=
 OpenBabel11042415353D

 39 43  0  0  1  0  0  0  0  0999 V2000
  190.4920  177.0380  147.5380 C   0  0  0  0  0  3  0  0  0  0  0  0
  192.7680  176.3280  146.8900 C   0  0  0  0  0  3  0  0  0  0  0  0
  189.9960  177.0140  146.1040 C   0  0  0  0  0  3  0  0  0  0  0  0
  193.2010  175.9580  144.4300 C   0  0  0  0  0  0  0  0  0  0  0  0
  192.4100  176.0790  143.3640 C   0  0  0  0  0  3  0  0  0  0  0  0
  192.4180  176.2920  145.6080 C   0  0  2  0  0  3  0  0  0  0  0  0
  191.7530  176.7240  147.8910 C   0  0  0  0  0  3  0  0  0  0  0  0
  191.0920  176.6210  145.1520 C   0  0  0  0  0  0  0  0  0  0  0  0
  191.0670  176.4990  143.8230 C   0  0  0  0  0  0  0  0  0  0  0  0
  189.1560  175.6320  142.4760 C   0  0  0  0  0  3  0  0  0  0  0  0
  188.0600  175.8240  141.6290 C   0  0  0  0  0  3  0  0  0  0  0  0
  189.9120  176.7260  142.9240 C   0  0  0  0  0  0  0  0  0  0  0  0
  187.7040  177.1150  141.2280 C   0  0  0  0  0  0  0  0  0  0  0  0
  188.4540  178.2110  141.6640 C   0  0  0  0  0  3  0  0  0  0  0  0
  189.5510  178.0160  142.5080 C   0  0  0  0  0  3  0  0  0  0  0  0
  186.5450  177.3230  140.3180 C   0  0  0  0  0  2  0  0  0  0  0  0
  185.6960  178.3840  140.8350 N   0  0  0  0  0  2  0  0  0  0  0  0
  184.9210  177.8040  141.9200 C   0  0  0  0  0  2  0  0  0  0  0  0
  184.9130  178.7260  143.1360 C   0  0  1  0  0  3  0  0  0  0  0  0
  183.6390  178.7310  143.7120 O   0  0  0  0  0  1  0  0  0  0  0  0
  185.8930  176.8070  144.4390 C   0  0  0  0  0  3  0  0  0  0  0  0
  185.9710  178.3180  144.1660 C   0  0  2  0  0  3  0  0  0  0  0  0
  185.6420  180.0700  145.8080 O   0  0  0  0  0  0  0  0  0  0  0  0
  185.6430  178.8510  145.4930 C   0  0  0  0  0  0  0  0  0  0  0  0
  185.4550  176.5880  145.8290 N   0  0  0  0  0  0  0  0  0  0  0  0
  185.3600  177.8470  146.3790 O   0  0  0  0  0  0  0  0  0  0  0  0
  196.6040  174.4770  144.6250 C   0  0  0  0  0  0  0  0  0  0  0  0
  194.6160  175.5540  144.3980 C   0  0  0  0  0  0  0  0  0  0  0  0
  195.2040  174.3520  144.9620 C   0  0  0  0  0  0  0  0  0  0  0  0
  196.7850  175.5850  143.9830 N   0  0  0  0  0  0  0  0  0  0  0  0
  195.5530  176.2500  143.8380 N   0  0  0  0  0  0  0  0  0  0  0  0
  194.6350  173.4230  145.5940 O   0  0  0  0  0  0  0  0  0  0  0  0
  197.7090  173.5410  144.9900 C   0  0  0  0  0  2  0  0  0  0  0  0
  197.4640  172.2560  142.9450 C   0  0  0  0  0  3  0  0  0  0  0  0
  197.5650  172.2280  144.2820 C   0  0  0  0  0  0  0  0  0  0  0  0
  197.9410  171.0050  140.8220 C   0  0  0  0  0  1  0  0  0  0  0  0
  197.2990  171.1610  142.0800 O   0  0  0  0  0  0  0  0  0  0  0  0
  197.5490  170.9740  145.0560 C   0  0  0  0  0  3  0  0  0  0  0  0
  196.7570  170.7870  146.1070 C   0  0  0  0  0  2  0  0  0  0  0  0
  1  7  1  0  0  0  0
  2  7  2  0  0  0  0
  3  1  2  0  0  0  0
  4  6  1  0  0  0  0
  5  9  1  0  0  0  0
  5  4  2  0  0  0  0
  6  2  1  6  0  0  0
  8  6  1  0  0  0  0
  8  3  1  0  0  0  0
  9  8  2  0  0  0  0
 10 12  1  0  0  0  0
 11 10  2  0  0  0  0
 12  9  1  0  0  0  0
 13 11  1  0  0  0  0
 13 14  2  0  0  0  0
 14 15  1  0  0  0  0
 15 12  2  0  0  0  0
 16 17  1  0  0  0  0
 16 13  1  0  0  0  0
 17 18  1  0  0  0  0
 18 19  1  0  0  0  0
 19 20  1  1  0  0  0
 21 25  2  0  0  0  0
 22 19  1  6  0  0  0
 22 21  1  0  0  0  0
 22 24  1  0  0  0  0
 24 23  2  0  0  0  0
 24 26  1  0  0  0  0
 25 26  1  0  0  0  0
 27 29  1  0  0  0  0
 27 33  1  0  0  0  0
 28  4  1  0  0  0  0
 28 29  1  0  0  0  0
 29 32  2  0  0  0  0
 30 27  2  0  0  0  0
 31 30  1  0  0  0  0
 31 28  2  0  0  0  0
 34 35  2  0  0  0  0
 35 33  1  0  0  0  0
 35 38  1  0  0  0  0
 36 37  1  0  0  0  0
 37 34  1  0  0  0  0
 38 39  2  0  0  0  0
M  END
>  <MODEL>
1

>  <REMARK>
 VINA RESULT:      -7.4      0.000      0.000
  Name = 
  11 active torsions:
  status: ('A' for Active; 'I' for Inactive)
    1  A    between atoms: C_2  and  C_4
    2  A    between atoms: C_2  and  C_35
    3  A    between atoms: C_5  and  C_22
    4  A    between atoms: C_10  and  C_35
    5  A    between atoms: C_11  and  O_30
    6  A    between atoms: C_12  and  C_22
    7  A    between atoms: C_12  and  N_39
    8  A    between atoms: C_13  and  C_38
    9  A    between atoms: C_15  and  C_23
   10  A    between atoms: C_16  and  C_25
   11  A    between atoms: C_23  and  N_39
                            x       y       z     vdW  Elec       q    Type
                         _______ _______ _______ _____ _____    ______ ____

>  <TORSDO>
F 11

$$$$
=
 OpenBabel11042415353D

 39 43  0  0  1  0  0  0  0  0999 V2000
  190.0930  174.0050  141.3620 C   0  0  0  0  0  3  0  0  0  0  0  0
  192.3230  173.7750  142.4030 C   0  0  0  0  0  3  0  0  0  0  0  0
  189.5370  174.7730  142.5460 C   0  0  0  0  0  2  0  0  0  0  0  0
  192.6260  174.7720  144.7030 C   0  0  0  0  0  0  0  0  0  0  0  0
  191.7830  175.4240  145.5040 C   0  0  0  0  0  3  0  0  0  0  0  0
  191.9110  174.4300  143.4840 C   0  0  0  0  0  0  0  0  0  0  0  0
  191.3610  173.5550  141.3000 C   0  0  0  0  0  3  0  0  0  0  0  0
  190.5710  174.9370  143.6270 C   0  0  0  0  0  0  0  0  0  0  0  0
  190.4750  175.5310  144.8190 C   0  0  0  0  0  0  0  0  0  0  0  0
  188.5800  175.5870  146.4380 C   0  0  0  0  0  3  0  0  0  0  0  0
  187.4570  176.2050  146.9970 C   0  0  0  0  0  3  0  0  0  0  0  0
  189.2860  176.2020  145.3930 C   0  0  0  0  0  0  0  0  0  0  0  0
  187.0330  177.4490  146.5210 C   0  0  0  0  0  0  0  0  0  0  0  0
  187.7260  178.0670  145.4770 C   0  0  0  0  0  3  0  0  0  0  0  0
  188.8470  177.4460  144.9170 C   0  0  0  0  0  3  0  0  0  0  0  0
  185.8320  178.1040  147.1060 C   0  0  0  0  0  2  0  0  0  0  0  0
  185.3130  179.0980  146.1800 N   0  0  0  0  0  2  0  0  0  0  0  0
  184.3290  178.4210  145.3510 C   0  0  0  0  0  2  0  0  0  0  0  0
  184.3200  178.9960  143.9370 C   0  0  1  0  0  3  0  0  0  0  0  0
  185.3380  179.9450  143.8110 O   0  0  0  0  0  1  0  0  0  0  0  0
  185.8780  177.9320  142.2700 C   0  0  0  0  0  3  0  0  0  0  0  0
  184.4660  177.9000  142.8770 C   0  0  2  0  0  3  0  0  0  0  0  0
  182.3950  178.2270  141.6610 O   0  0  0  0  0  0  0  0  0  0  0  0
  183.6540  178.2040  141.6930 C   0  0  0  0  0  0  0  0  0  0  0  0
  185.7860  178.3260  140.8530 N   0  0  0  0  0  0  0  0  0  0  0  0
  184.4380  178.4370  140.5960 O   0  0  0  0  0  0  0  0  0  0  0  0
  195.9870  173.4730  145.6130 C   0  0  0  0  0  0  0  0  0  0  0  0
  194.0310  174.4630  145.0160 C   0  0  0  0  0  0  0  0  0  0  0  0
  194.5730  173.2020  145.4870 C   0  0  0  0  0  0  0  0  0  0  0  0
  196.2100  174.7040  145.2810 N   0  0  0  0  0  0  0  0  0  0  0  0
  195.0000  175.3150  144.9060 N   0  0  0  0  0  0  0  0  0  0  0  0
  193.9620  172.1270  145.7290 O   0  0  0  0  0  0  0  0  0  0  0  0
  197.0470  172.5430  146.1020 C   0  0  0  0  0  2  0  0  0  0  0  0
  197.6970  171.7150  143.9150 C   0  0  0  0  0  3  0  0  0  0  0  0
  197.2590  171.4100  145.1450 C   0  0  0  0  0  0  0  0  0  0  0  0
  196.9740  170.3980  141.9040 C   0  0  0  0  0  1  0  0  0  0  0  0
  197.9410  170.8280  142.8520 O   0  0  0  0  0  0  0  0  0  0  0  0
  196.9980  170.0240  145.5770 C   0  0  0  0  0  3  0  0  0  0  0  0
  196.5220  169.7240  146.7810 C   0  0  0  0  0  2  0  0  0  0  0  0
  1  3  1  0  0  0  0
  2  6  2  0  0  0  0
  3  8  1  0  0  0  0
  4 28  1  0  0  0  0
  4  5  2  0  0  0  0
  6  8  1  0  0  0  0
  6  4  1  0  0  0  0
  7  1  2  0  0  0  0
  7  2  1  0  0  0  0
  8  9  2  0  0  0  0
  9 12  1  0  0  0  0
  9  5  1  0  0  0  0
 10 11  1  0  0  0  0
 12 10  2  0  0  0  0
 13 11  2  0  0  0  0
 13 16  1  0  0  0  0
 14 13  1  0  0  0  0
 15 12  1  0  0  0  0
 15 14  2  0  0  0  0
 17 16  1  0  0  0  0
 18 17  1  0  0  0  0
 19 20  1  1  0  0  0
 19 18  1  0  0  0  0
 21 22  1  0  0  0  0
 22 19  1  1  0  0  0
 23 24  2  0  0  0  0
 24 22  1  0  0  0  0
 25 21  2  0  0  0  0
 26 25  1  0  0  0  0
 26 24  1  0  0  0  0
 27 33  1  0  0  0  0
 28 29  1  0  0  0  0
 29 27  1  0  0  0  0
 29 32  2  0  0  0  0
 30 27  2  0  0  0  0
 31 28  2  0  0  0  0
 31 30  1  0  0  0  0
 34 35  2  0  0  0  0
 35 38  1  0  0  0  0
 35 33  1  0  0  0  0
 36 37  1  0  0  0  0
 37 34  1  0  0  0  0
 38 39  2  0  0  0  0
M  END
>  <MODEL>
2

>  <REMARK>
 VINA RESULT:      -7.2      1.775      3.631
  Name = 
  11 active torsions:
  status: ('A' for Active; 'I' for Inactive)
    1  A    between atoms: C_2  and  C_4
    2  A    between atoms: C_2  and  C_35
    3  A    between atoms: C_5  and  C_22
    4  A    between atoms: C_10  and  C_35
    5  A    between atoms: C_11  and  O_30
    6  A    between atoms: C_12  and  C_22
    7  A    between atoms: C_12  and  N_39
    8  A    between atoms: C_13  and  C_38
    9  A    between atoms: C_15  and  C_23
   10  A    between atoms: C_16  and  C_25
   11  A    between atoms: C_23  and  N_39
                            x       y       z     vdW  Elec       q    Type
                         _______ _______ _______ _____ _____    ______ ____

>  <TORSDO>
F 11

$$$$
=
 OpenBabel11042415353D

 39 43  0  0  1  0  0  0  0  0999 V2000
  189.9640  171.9960  143.3760 C   0  0  0  0  0  3  0  0  0  0  0  0
  192.2980  172.8040  143.4440 C   0  0  0  0  0  3  0  0  0  0  0  0
  189.4370  173.2320  144.0800 C   0  0  0  0  0  2  0  0  0  0  0  0
  192.7100  175.0360  144.5500 C   0  0  0  0  0  0  0  0  0  0  0  0
  191.8810  175.9020  145.1340 C   0  0  0  0  0  3  0  0  0  0  0  0
  191.9210  173.9120  144.0750 C   0  0  0  0  0  0  0  0  0  0  0  0
  191.2660  171.8060  143.0870 C   0  0  0  0  0  3  0  0  0  0  0  0
  190.5500  174.1830  144.4240 C   0  0  0  0  0  0  0  0  0  0  0  0
  190.5050  175.3600  145.0520 C   0  0  0  0  0  0  0  0  0  0  0  0
  188.8530  177.2260  144.9710 C   0  0  0  0  0  3  0  0  0  0  0  0
  187.7210  177.8890  145.4540 C   0  0  0  0  0  3  0  0  0  0  0  0
  189.3060  176.0480  145.5830 C   0  0  0  0  0  0  0  0  0  0  0  0
  187.0250  177.3750  146.5520 C   0  0  0  0  0  0  0  0  0  0  0  0
  187.4710  176.2050  147.1730 C   0  0  0  0  0  3  0  0  0  0  0  0
  188.6040  175.5460  146.6900 C   0  0  0  0  0  3  0  0  0  0  0  0
  185.8260  178.0840  147.0770 C   0  0  0  0  0  2  0  0  0  0  0  0
  185.4320  179.1350  146.1520 N   0  0  0  0  0  2  0  0  0  0  0  0
  184.3530  178.5930  145.3420 C   0  0  0  0  0  2  0  0  0  0  0  0
  184.4490  179.0920  143.9030 C   0  0  1  0  0  3  0  0  0  0  0  0
  185.5430  179.9510  143.7770 O   0  0  0  0  0  1  0  0  0  0  0  0
  185.9440  177.9120  142.2560 C   0  0  0  0  0  3  0  0  0  0  0  0
  184.5510  177.9330  142.9060 C   0  0  2  0  0  3  0  0  0  0  0  0
  182.4470  178.2140  141.7350 O   0  0  0  0  0  0  0  0  0  0  0  0
  183.7060  178.1770  141.7310 C   0  0  0  0  0  0  0  0  0  0  0  0
  185.8130  178.2230  140.8210 N   0  0  0  0  0  0  0  0  0  0  0  0
  184.4590  178.3350  140.5990 O   0  0  0  0  0  0  0  0  0  0  0  0
  196.2720  175.6820  143.7110 C   0  0  0  0  0  0  0  0  0  0  0  0
  194.1660  175.2090  144.4200 C   0  0  0  0  0  0  0  0  0  0  0  0
  194.8940  175.7320  143.2780 C   0  0  0  0  0  0  0  0  0  0  0  0
  196.3200  175.1910  144.9070 N   0  0  0  0  0  0  0  0  0  0  0  0
  195.0150  174.9030  145.3480 N   0  0  0  0  0  0  0  0  0  0  0  0
  194.4380  176.1350  142.1750 O   0  0  0  0  0  0  0  0  0  0  0  0
  197.4820  176.0610  142.9230 C   0  0  0  0  0  2  0  0  0  0  0  0
  197.7550  175.5890  140.5570 C   0  0  0  0  0  3  0  0  0  0  0  0
  197.7260  175.0950  141.8030 C   0  0  0  0  0  0  0  0  0  0  0  0
  197.2460  175.1150  138.1450 C   0  0  0  0  0  1  0  0  0  0  0  0
  197.9410  174.8750  139.3610 O   0  0  0  0  0  0  0  0  0  0  0  0
  197.9340  173.6650  142.0990 C   0  0  0  0  0  3  0  0  0  0  0  0
  197.0170  172.7370  141.8450 C   0  0  0  0  0  2  0  0  0  0  0  0
  1  3  1  0  0  0  0
  2  6  2  0  0  0  0
  3  8  1  0  0  0  0
  4  5  2  0  0  0  0
  6  8  1  0  0  0  0
  6  4  1  0  0  0  0
  7  1  2  0  0  0  0
  7  2  1  0  0  0  0
  8  9  2  0  0  0  0
  9  5  1  0  0  0  0
  9 12  1  0  0  0  0
 10 11  2  0  0  0  0
 10 12  1  0  0  0  0
 11 13  1  0  0  0  0
 12 15  2  0  0  0  0
 13 16  1  0  0  0  0
 13 14  2  0  0  0  0
 15 14  1  0  0  0  0
 17 16  1  0  0  0  0
 18 17  1  0  0  0  0
 19 20  1  1  0  0  0
 19 18  1  0  0  0  0
 21 22  1  0  0  0  0
 22 19  1  1  0  0  0
 24 23  2  0  0  0  0
 24 22  1  0  0  0  0
 25 21  2  0  0  0  0
 26 25  1  0  0  0  0
 26 24  1  0  0  0  0
 27 30  2  0  0  0  0
 28  4  1  0  0  0  0
 28 31  2  0  0  0  0
 29 27  1  0  0  0  0
 29 28  1  0  0  0  0
 30 31  1  0  0  0  0
 32 29  2  0  0  0  0
 33 27  1  0  0  0  0
 34 35  2  0  0  0  0
 35 38  1  0  0  0  0
 35 33  1  0  0  0  0
 36 37  1  0  0  0  0
 37 34  1  0  0  0  0
 39 38  2  0  0  0  0
M  END
>  <MODEL>
3

>  <REMARK>
 VINA RESULT:      -7.2      2.500      4.097
  Name = 
  11 active torsions:
  status: ('A' for Active; 'I' for Inactive)
    1  A    between atoms: C_2  and  C_4
    2  A    between atoms: C_2  and  C_35
    3  A    between atoms: C_5  and  C_22
    4  A    between atoms: C_10  and  C_35
    5  A    between atoms: C_11  and  O_30
    6  A    between atoms: C_12  and  C_22
    7  A    between atoms: C_12  and  N_39
    8  A    between atoms: C_13  and  C_38
    9  A    between atoms: C_15  and  C_23
   10  A    between atoms: C_16  and  C_25
   11  A    between atoms: C_23  and  N_39
                            x       y       z     vdW  Elec       q    Type
                         _______ _______ _______ _____ _____    ______ ____

>  <TORSDO>
F 11

$$$$
=
 OpenBabel11042415353D

 39 43  0  0  1  0  0  0  0  0999 V2000
  185.2910  178.5410  147.6370 C   0  0  0  0  0  3  0  0  0  0  0  0
  187.5660  177.8450  146.9730 C   0  0  0  0  0  3  0  0  0  0  0  0
  184.7780  178.4930  146.2100 C   0  0  0  0  0  3  0  0  0  0  0  0
  187.9740  177.4470  144.5130 C   0  0  0  0  0  0  0  0  0  0  0  0
  187.1700  177.5470  143.4540 C   0  0  0  0  0  3  0  0  0  0  0  0
  187.2010  177.7890  145.6950 C   0  0  2  0  0  3  0  0  0  0  0  0
  186.5580  178.2430  147.9800 C   0  0  0  0  0  3  0  0  0  0  0  0
  185.8670  178.0990  145.2500 C   0  0  0  0  0  0  0  0  0  0  0  0
  185.8280  177.9590  143.9230 C   0  0  0  0  0  0  0  0  0  0  0  0
  183.4580  178.6490  143.5700 C   0  0  0  0  0  3  0  0  0  0  0  0
  182.3450  178.8520  142.7480 C   0  0  0  0  0  3  0  0  0  0  0  0
  184.6610  178.1630  143.0350 C   0  0  0  0  0  0  0  0  0  0  0  0
  182.4260  178.5790  141.3800 C   0  0  0  0  0  0  0  0  0  0  0  0
  183.6180  178.0890  140.8380 C   0  0  0  0  0  3  0  0  0  0  0  0
  184.7280  177.8840  141.6610 C   0  0  0  0  0  3  0  0  0  0  0  0
  181.2400  178.7830  140.5050 C   0  0  0  0  0  2  0  0  0  0  0  0
  180.2760  179.6420  141.1730 N   0  0  0  0  0  2  0  0  0  0  0  0
  179.9710  180.7230  140.2500 C   0  0  0  0  0  2  0  0  0  0  0  0
  178.6330  180.4860  139.5560 C   0  0  1  0  0  3  0  0  0  0  0  0
  177.6920  180.0440  140.4910 O   0  0  0  0  0  1  0  0  0  0  0  0
  179.0600  182.0900  137.6630 C   0  0  0  0  0  3  0  0  0  0  0  0
  178.1340  181.7440  138.8400 C   0  0  2  0  0  3  0  0  0  0  0  0
  177.6950  183.1610  140.7580 O   0  0  0  0  0  0  0  0  0  0  0  0
  178.3110  182.9330  139.6830 C   0  0  0  0  0  0  0  0  0  0  0  0
  179.7470  183.3630  137.9460 N   0  0  0  0  0  0  0  0  0  0  0  0
  179.2230  183.7980  139.1420 O   0  0  0  0  0  0  0  0  0  0  0  0
  191.3830  175.9700  144.6150 C   0  0  0  0  0  0  0  0  0  0  0  0
  189.3930  177.0580  144.4690 C   0  0  0  0  0  0  0  0  0  0  0  0
  189.9750  175.7980  144.8950 C   0  0  0  0  0  0  0  0  0  0  0  0
  191.5720  177.1500  144.1210 N   0  0  0  0  0  0  0  0  0  0  0  0
  190.3390  177.8220  144.0250 N   0  0  0  0  0  0  0  0  0  0  0  0
  189.3970  174.7940  145.3910 O   0  0  0  0  0  0  0  0  0  0  0  0
  192.4850  175.0010  144.8900 C   0  0  0  0  0  2  0  0  0  0  0  0
  194.1600  175.5230  143.2120 C   0  0  0  0  0  3  0  0  0  0  0  0
  193.8170  175.5720  144.5080 C   0  0  0  0  0  0  0  0  0  0  0  0
  195.4680  176.6130  141.3670 C   0  0  0  0  0  1  0  0  0  0  0  0
  195.3590  175.9700  142.6300 O   0  0  0  0  0  0  0  0  0  0  0  0
  194.6860  176.1660  145.5400 C   0  0  0  0  0  3  0  0  0  0  0  0
  194.2210  176.9460  146.5100 C   0  0  0  0  0  2  0  0  0  0  0  0
  1  7  1  0  0  0  0
  2  7  2  0  0  0  0
  3  1  2  0  0  0  0
  4  6  1  0  0  0  0
  5  9  1  0  0  0  0
  5  4  2  0  0  0  0
  6  2  1  6  0  0  0
  8  6  1  0  0  0  0
  8  3  1  0  0  0  0
  9  8  2  0  0  0  0
 11 10  2  0  0  0  0
 12 10  1  0  0  0  0
 12  9  1  0  0  0  0
 13 11  1  0  0  0  0
 14 13  2  0  0  0  0
 14 15  1  0  0  0  0
 15 12  2  0  0  0  0
 16 17  1  0  0  0  0
 16 13  1  0  0  0  0
 18 17  1  0  0  0  0
 19 18  1  0  0  0  0
 19 20  1  1  0  0  0
 21 25  2  0  0  0  0
 21 22  1  0  0  0  0
 22 19  1  1  0  0  0
 22 24  1  0  0  0  0
 24 23  2  0  0  0  0
 25 26  1  0  0  0  0
 26 24  1  0  0  0  0
 27 33  1  0  0  0  0
 27 29  1  0  0  0  0
 28  4  1  0  0  0  0
 28 29  1  0  0  0  0
 29 32  2  0  0  0  0
 30 27  2  0  0  0  0
 31 30  1  0  0  0  0
 31 28  2  0  0  0  0
 34 35  2  0  0  0  0
 35 33  1  0  0  0  0
 35 38  1  0  0  0  0
 36 37  1  0  0  0  0
 37 34  1  0  0  0  0
 38 39  2  0  0  0  0
M  END
>  <MODEL>
4

>  <REMARK>
 VINA RESULT:      -6.9      4.417      6.694
  Name = 
  11 active torsions:
  status: ('A' for Active; 'I' for Inactive)
    1  A    between atoms: C_2  and  C_4
    2  A    between atoms: C_2  and  C_35
    3  A    between atoms: C_5  and  C_22
    4  A    between atoms: C_10  and  C_35
    5  A    between atoms: C_11  and  O_30
    6  A    between atoms: C_12  and  C_22
    7  A    between atoms: C_12  and  N_39
    8  A    between atoms: C_13  and  C_38
    9  A    between atoms: C_15  and  C_23
   10  A    between atoms: C_16  and  C_25
   11  A    between atoms: C_23  and  N_39
                            x       y       z     vdW  Elec       q    Type
                         _______ _______ _______ _____ _____    ______ ____

>  <TORSDO>
F 11

$$$$
=
 OpenBabel11042415353D

 39 43  0  0  1  0  0  0  0  0999 V2000
  186.0110  178.1480  147.0440 C   0  0  0  0  0  3  0  0  0  0  0  0
  184.0820  178.6530  145.5840 C   0  0  0  0  0  3  0  0  0  0  0  0
  186.8250  177.5790  145.8970 C   0  0  0  0  0  3  0  0  0  0  0  0
  184.2950  178.0390  143.1440 C   0  0  0  0  0  0  0  0  0  0  0  0
  185.2850  177.4680  142.4570 C   0  0  0  0  0  3  0  0  0  0  0  0
  184.7230  178.1610  144.5280 C   0  0  2  0  0  3  0  0  0  0  0  0
  184.7650  178.6370  146.8970 C   0  0  0  0  0  3  0  0  0  0  0  0
  186.0540  177.6150  144.6060 C   0  0  0  0  0  0  0  0  0  0  0  0
  186.4050  177.2000  143.3880 C   0  0  0  0  0  0  0  0  0  0  0  0
  188.8690  177.3390  143.0270 C   0  0  0  0  0  3  0  0  0  0  0  0
  190.0920  176.7730  142.6570 C   0  0  0  0  0  3  0  0  0  0  0  0
  187.6900  176.5800  142.9880 C   0  0  0  0  0  0  0  0  0  0  0  0
  190.1500  175.4360  142.2530 C   0  0  0  0  0  0  0  0  0  0  0  0
  188.9810  174.6720  142.2050 C   0  0  0  0  0  3  0  0  0  0  0  0
  187.7590  175.2410  142.5720 C   0  0  0  0  0  3  0  0  0  0  0  0
  191.4490  174.8330  141.8480 C   0  0  0  0  0  2  0  0  0  0  0  0
  192.4390  175.0470  142.8920 N   0  0  0  0  0  2  0  0  0  0  0  0
  192.2330  174.0000  143.8800 C   0  0  0  0  0  2  0  0  0  0  0  0
  192.5580  174.5040  145.2830 C   0  0  1  0  0  3  0  0  0  0  0  0
  193.8520  175.0320  145.3030 O   0  0  0  0  0  1  0  0  0  0  0  0
  192.0650  176.2620  147.0170 C   0  0  0  0  0  3  0  0  0  0  0  0
  191.5410  175.5430  145.7630 C   0  0  2  0  0  3  0  0  0  0  0  0
  189.5130  174.2210  145.6350 O   0  0  0  0  0  0  0  0  0  0  0  0
  190.3420  174.8920  146.3050 C   0  0  0  0  0  0  0  0  0  0  0  0
  191.2130  175.9120  148.1670 N   0  0  0  0  0  0  0  0  0  0  0  0
  190.2100  175.1260  147.6470 O   0  0  0  0  0  0  0  0  0  0  0  0
  181.1890  178.8240  141.2600 C   0  0  0  0  0  0  0  0  0  0  0  0
  183.0040  178.4650  142.5800 C   0  0  0  0  0  0  0  0  0  0  0  0
  182.4780  178.1700  141.2590 C   0  0  0  0  0  0  0  0  0  0  0  0
  181.0180  179.4130  142.4000 N   0  0  0  0  0  0  0  0  0  0  0  0
  182.1390  179.1860  143.2190 N   0  0  0  0  0  0  0  0  0  0  0  0
  183.0130  177.5050  140.3330 O   0  0  0  0  0  0  0  0  0  0  0  0
  180.2090  178.8940  140.1370 C   0  0  0  0  0  2  0  0  0  0  0  0
  179.5900  181.2360  139.9760 C   0  0  0  0  0  3  0  0  0  0  0  0
  179.2210  180.0010  140.3460 C   0  0  0  0  0  0  0  0  0  0  0  0
  178.9230  183.5340  139.2180 C   0  0  0  0  0  1  0  0  0  0  0  0
  178.8450  182.4210  140.0990 O   0  0  0  0  0  0  0  0  0  0  0  0
  177.8980  179.7060  140.9280 C   0  0  0  0  0  3  0  0  0  0  0  0
  177.7060  178.7480  141.8290 C   0  0  0  0  0  2  0  0  0  0  0  0
  2  7  2  0  0  0  0
  3  1  2  0  0  0  0
  4  6  1  0  0  0  0
  5  4  2  0  0  0  0
  5  9  1  0  0  0  0
  6  8  1  0  0  0  0
  6  2  1  1  0  0  0
  7  1  1  0  0  0  0
  8  3  1  0  0  0  0
  9  8  2  0  0  0  0
 11 10  2  0  0  0  0
 12 10  1  0  0  0  0
 12  9  1  0  0  0  0
 13 11  1  0  0  0  0
 14 13  2  0  0  0  0
 14 15  1  0  0  0  0
 15 12  2  0  0  0  0
 16 13  1  0  0  0  0
 16 17  1  0  0  0  0
 17 18  1  0  0  0  0
 18 19  1  0  0  0  0
 19 20  1  6  0  0  0
 21 25  2  0  0  0  0
 22 19  1  1  0  0  0
 22 24  1  0  0  0  0
 22 21  1  0  0  0  0
 23 24  2  0  0  0  0
 24 26  1  0  0  0  0
 26 25  1  0  0  0  0
 27 30  2  0  0  0  0
 28  4  1  0  0  0  0
 28 31  2  0  0  0  0
 29 27  1  0  0  0  0
 29 28  1  0  0  0  0
 30 31  1  0  0  0  0
 32 29  2  0  0  0  0
 33 35  1  0  0  0  0
 33 27  1  0  0  0  0
 34 37  1  0  0  0  0
 34 35  2  0  0  0  0
 35 38  1  0  0  0  0
 36 37  1  0  0  0  0
 38 39  2  0  0  0  0
M  END
>  <MODEL>
5

>  <REMARK>
 VINA RESULT:      -6.9      3.839     11.784
  Name = 
  11 active torsions:
  status: ('A' for Active; 'I' for Inactive)
    1  A    between atoms: C_2  and  C_4
    2  A    between atoms: C_2  and  C_35
    3  A    between atoms: C_5  and  C_22
    4  A    between atoms: C_10  and  C_35
    5  A    between atoms: C_11  and  O_30
    6  A    between atoms: C_12  and  C_22
    7  A    between atoms: C_12  and  N_39
    8  A    between atoms: C_13  and  C_38
    9  A    between atoms: C_15  and  C_23
   10  A    between atoms: C_16  and  C_25
   11  A    between atoms: C_23  and  N_39
                            x       y       z     vdW  Elec       q    Type
                         _______ _______ _______ _____ _____    ______ ____

>  <TORSDO>
F 11

$$$$
=
 OpenBabel11042415353D

 39 43  0  0  1  0  0  0  0  0999 V2000
  194.0430  176.3420  146.5370 C   0  0  0  0  0  3  0  0  0  0  0  0
  194.0820  174.1270  145.4440 C   0  0  0  0  0  3  0  0  0  0  0  0
  192.5290  176.4190  146.4950 C   0  0  0  0  0  2  0  0  0  0  0  0
  191.8570  173.1240  144.7970 C   0  0  0  0  0  0  0  0  0  0  0  0
  190.6090  173.5760  144.9310 C   0  0  0  0  0  3  0  0  0  0  0  0
  192.7550  174.1200  145.3560 C   0  0  0  0  0  0  0  0  0  0  0  0
  194.7450  175.2970  146.0600 C   0  0  0  0  0  3  0  0  0  0  0  0
  191.9360  175.2030  145.8380 C   0  0  0  0  0  0  0  0  0  0  0  0
  190.6590  174.8980  145.5960 C   0  0  0  0  0  0  0  0  0  0  0  0
  189.1920  176.8720  145.1920 C   0  0  0  0  0  3  0  0  0  0  0  0
  188.0690  177.6520  145.4850 C   0  0  0  0  0  3  0  0  0  0  0  0
  189.4660  175.7100  145.9270 C   0  0  0  0  0  0  0  0  0  0  0  0
  187.2020  177.2700  146.5140 C   0  0  0  0  0  0  0  0  0  0  0  0
  187.4690  176.1170  147.2570 C   0  0  0  0  0  3  0  0  0  0  0  0
  188.5940  175.3410  146.9630 C   0  0  0  0  0  3  0  0  0  0  0  0
  186.0120  178.1030  146.8370 C   0  0  0  0  0  2  0  0  0  0  0  0
  185.7630  179.0460  145.7580 N   0  0  0  0  0  2  0  0  0  0  0  0
  184.6470  178.5160  144.9910 C   0  0  0  0  0  2  0  0  0  0  0  0
  184.7780  178.8800  143.5150 C   0  0  1  0  0  3  0  0  0  0  0  0
  185.9640  179.5910  143.3110 O   0  0  0  0  0  1  0  0  0  0  0  0
  185.9870  176.7830  142.8240 C   0  0  0  0  0  3  0  0  0  0  0  0
  184.7280  177.6400  142.6180 C   0  0  2  0  0  3  0  0  0  0  0  0
  184.0450  178.6710  140.5330 O   0  0  0  0  0  0  0  0  0  0  0  0
  184.8790  178.0090  141.2050 C   0  0  0  0  0  0  0  0  0  0  0  0
  186.7890  176.7940  141.5870 N   0  0  0  0  0  0  0  0  0  0  0  0
  186.0440  177.5170  140.6820 O   0  0  0  0  0  0  0  0  0  0  0  0
  192.3670  169.9600  142.9160 C   0  0  0  0  0  0  0  0  0  0  0  0
  192.2350  171.8400  144.1860 C   0  0  0  0  0  0  0  0  0  0  0  0
  191.5590  171.1440  143.1060 C   0  0  0  0  0  0  0  0  0  0  0  0
  193.3410  169.9750  143.7680 N   0  0  0  0  0  0  0  0  0  0  0  0
  193.2630  171.1420  144.5500 N   0  0  0  0  0  0  0  0  0  0  0  0
  190.5190  171.4850  142.4830 O   0  0  0  0  0  0  0  0  0  0  0  0
  192.1240  168.8430  141.9560 C   0  0  0  0  0  2  0  0  0  0  0  0
  191.2390  169.2610  139.7340 C   0  0  0  0  0  3  0  0  0  0  0  0
  192.3110  169.2950  140.5390 C   0  0  0  0  0  0  0  0  0  0  0  0
  190.0550  169.4340  137.5270 C   0  0  0  0  0  1  0  0  0  0  0  0
  191.1830  169.6110  138.3740 O   0  0  0  0  0  0  0  0  0  0  0  0
  193.6330  169.7640  140.0860 C   0  0  0  0  0  3  0  0  0  0  0  0
  194.7150  168.9920  140.1040 C   0  0  0  0  0  2  0  0  0  0  0  0
  2  7  1  0  0  0  0
  3  1  1  0  0  0  0
  4  5  2  0  0  0  0
  4  6  1  0  0  0  0
  5  9  1  0  0  0  0
  6  2  2  0  0  0  0
  6  8  1  0  0  0  0
  7  1  2  0  0  0  0
  8  3  1  0  0  0  0
  9  8  2  0  0  0  0
  9 12  1  0  0  0  0
 10 11  2  0  0  0  0
 10 12  1  0  0  0  0
 11 13  1  0  0  0  0
 12 15  2  0  0  0  0
 13 16  1  0  0  0  0
 13 14  2  0  0  0  0
 15 14  1  0  0  0  0
 17 16  1  0  0  0  0
 18 17  1  0  0  0  0
 19 20  1  1  0  0  0
 19 18  1  0  0  0  0
 22 21  1  0  0  0  0
 22 19  1  1  0  0  0
 23 24  2  0  0  0  0
 24 22  1  0  0  0  0
 25 21  2  0  0  0  0
 26 24  1  0  0  0  0
 26 25  1  0  0  0  0
 27 29  1  0  0  0  0
 27 30  2  0  0  0  0
 28 31  2  0  0  0  0
 28  4  1  0  0  0  0
 29 28  1  0  0  0  0
 30 31  1  0  0  0  0
 32 29  2  0  0  0  0
 33 27  1  0  0  0  0
 34 35  2  0  0  0  0
 35 33  1  0  0  0  0
 36 37  1  0  0  0  0
 37 34  1  0  0  0  0
 38 39  2  0  0  0  0
 38 35  1  0  0  0  0
M  END
>  <MODEL>
6

>  <REMARK>
 VINA RESULT:      -6.7      3.806      5.025
  Name = 
  11 active torsions:
  status: ('A' for Active; 'I' for Inactive)
    1  A    between atoms: C_2  and  C_4
    2  A    between atoms: C_2  and  C_35
    3  A    between atoms: C_5  and  C_22
    4  A    between atoms: C_10  and  C_35
    5  A    between atoms: C_11  and  O_30
    6  A    between atoms: C_12  and  C_22
    7  A    between atoms: C_12  and  N_39
    8  A    between atoms: C_13  and  C_38
    9  A    between atoms: C_15  and  C_23
   10  A    between atoms: C_16  and  C_25
   11  A    between atoms: C_23  and  N_39
                            x       y       z     vdW  Elec       q    Type
                         _______ _______ _______ _____ _____    ______ ____

>  <TORSDO>
F 11

$$$$
=
 OpenBabel11042415353D

 39 43  0  0  1  0  0  0  0  0999 V2000
  188.6800  173.0640  141.4880 C   0  0  0  0  0  3  0  0  0  0  0  0
  190.5010  173.8740  142.9490 C   0  0  0  0  0  3  0  0  0  0  0  0
  187.7980  174.2580  141.7990 C   0  0  0  0  0  3  0  0  0  0  0  0
  190.1080  176.0430  144.1810 C   0  0  0  0  0  0  0  0  0  0  0  0
  189.0650  176.8730  144.2020 C   0  0  0  0  0  2  0  0  0  0  0  0
  189.7870  174.9440  143.2850 C   0  0  0  0  0  0  0  0  0  0  0  0
  189.9090  172.8940  142.0110 C   0  0  0  0  0  3  0  0  0  0  0  0
  188.4640  175.1930  142.7720 C   0  0  0  0  0  0  0  0  0  0  0  0
  188.0190  176.3330  143.3030 C   0  0  0  0  0  0  0  0  0  0  0  0
  185.8550  177.2500  144.1350 C   0  0  0  0  0  3  0  0  0  0  0  0
  184.6190  177.8700  143.9260 C   0  0  0  0  0  3  0  0  0  0  0  0
  186.7140  176.9880  143.0570 C   0  0  0  0  0  0  0  0  0  0  0  0
  184.2330  178.2410  142.6350 C   0  0  0  0  0  0  0  0  0  0  0  0
  185.0780  177.9800  141.5530 C   0  0  0  0  0  3  0  0  0  0  0  0
  186.3120  177.3570  141.7650 C   0  0  0  0  0  3  0  0  0  0  0  0
  182.9140  178.8910  142.4070 C   0  0  0  0  0  2  0  0  0  0  0  0
  182.4040  178.5230  141.0950 N   0  0  0  0  0  2  0  0  0  0  0  0
  181.0100  178.1520  141.2800 C   0  0  0  0  0  2  0  0  0  0  0  0
  180.1510  179.3810  141.5610 C   0  0  1  0  0  3  0  0  0  0  0  0
  180.3050  180.3070  140.5260 O   0  0  0  0  0  1  0  0  0  0  0  0
  178.4750  178.2590  143.0680 C   0  0  0  0  0  3  0  0  0  0  0  0
  178.6760  179.0130  141.7440 C   0  0  2  0  0  3  0  0  0  0  0  0
  178.1940  178.1420  139.5340 O   0  0  0  0  0  0  0  0  0  0  0  0
  178.2690  177.9830  140.7800 C   0  0  0  0  0  0  0  0  0  0  0  0
  178.0690  176.8730  142.7790 N   0  0  0  0  0  0  0  0  0  0  0  0
  177.9470  176.8110  141.4090 O   0  0  0  0  0  0  0  0  0  0  0  0
  193.5090  176.5520  145.5910 C   0  0  0  0  0  0  0  0  0  0  0  0
  191.3560  176.2260  144.9390 C   0  0  0  0  0  0  0  0  0  0  0  0
  192.6920  176.4210  144.4050 C   0  0  0  0  0  0  0  0  0  0  0  0
  192.7550  176.4340  146.6350 N   0  0  0  0  0  0  0  0  0  0  0  0
  191.4210  176.2370  146.2320 N   0  0  0  0  0  0  0  0  0  0  0  0
  193.0560  176.4660  143.2000 O   0  0  0  0  0  0  0  0  0  0  0  0
  194.9890  176.7320  145.6540 C   0  0  0  0  0  2  0  0  0  0  0  0
  195.6280  174.3940  145.8020 C   0  0  0  0  0  3  0  0  0  0  0  0
  195.7050  175.5360  145.1030 C   0  0  0  0  0  0  0  0  0  0  0  0
  195.6730  171.8850  145.7610 C   0  0  0  0  0  1  0  0  0  0  0  0
  196.2330  173.1630  145.4950 O   0  0  0  0  0  0  0  0  0  0  0  0
  196.4470  175.6440  143.8330 C   0  0  0  0  0  3  0  0  0  0  0  0
  196.7020  176.8080  143.2460 C   0  0  0  0  0  2  0  0  0  0  0  0
  1  3  2  0  0  0  0
  1  7  1  0  0  0  0
  2  6  1  0  0  0  0
  3  8  1  0  0  0  0
  4  5  1  0  0  0  0
  4 28  1  0  0  0  0
  6  4  2  0  0  0  0
  7  2  2  0  0  0  0
  8  6  1  0  0  0  0
  8  9  2  0  0  0  0
  9  5  1  0  0  0  0
 11 10  1  0  0  0  0
 12  9  1  0  0  0  0
 12 10  2  0  0  0  0
 13 11  2  0  0  0  0
 14 15  2  0  0  0  0
 14 13  1  0  0  0  0
 15 12  1  0  0  0  0
 16 13  1  0  0  0  0
 17 18  1  0  0  0  0
 17 16  1  0  0  0  0
 18 19  1  0  0  0  0
 19 20  1  6  0  0  0
 22 19  1  6  0  0  0
 22 21  1  0  0  0  0
 23 24  2  0  0  0  0
 24 26  1  0  0  0  0
 24 22  1  0  0  0  0
 25 21  2  0  0  0  0
 26 25  1  0  0  0  0
 27 33  1  0  0  0  0
 27 30  2  0  0  0  0
 28 31  2  0  0  0  0
 29 28  1  0  0  0  0
 29 27  1  0  0  0  0
 31 30  1  0  0  0  0
 32 29  2  0  0  0  0
 35 33  1  0  0  0  0
 35 34  2  0  0  0  0
 37 36  1  0  0  0  0
 37 34  1  0  0  0  0
 38 35  1  0  0  0  0
 39 38  2  0  0  0  0
M  END
>  <MODEL>
7

>  <REMARK>
 VINA RESULT:      -6.7      3.504      5.346
  Name = 
  11 active torsions:
  status: ('A' for Active; 'I' for Inactive)
    1  A    between atoms: C_2  and  C_4
    2  A    between atoms: C_2  and  C_35
    3  A    between atoms: C_5  and  C_22
    4  A    between atoms: C_10  and  C_35
    5  A    between atoms: C_11  and  O_30
    6  A    between atoms: C_12  and  C_22
    7  A    between atoms: C_12  and  N_39
    8  A    between atoms: C_13  and  C_38
    9  A    between atoms: C_15  and  C_23
   10  A    between atoms: C_16  and  C_25
   11  A    between atoms: C_23  and  N_39
                            x       y       z     vdW  Elec       q    Type
                         _______ _______ _______ _____ _____    ______ ____

>  <TORSDO>
F 11

$$$$
=
 OpenBabel11042415353D

 39 43  0  0  1  0  0  0  0  0999 V2000
  191.1610  176.1500  147.4260 C   0  0  0  0  0  3  0  0  0  0  0  0
  193.3600  175.7870  146.3610 C   0  0  0  0  0  3  0  0  0  0  0  0
  190.4690  176.3710  146.0950 C   0  0  0  0  0  3  0  0  0  0  0  0
  193.4610  175.9600  143.8440 C   0  0  0  0  0  0  0  0  0  0  0  0
  192.5210  176.2230  142.9350 C   0  0  0  0  0  3  0  0  0  0  0  0
  192.8340  175.9800  145.1550 C   0  0  2  0  0  3  0  0  0  0  0  0
  192.4750  175.8830  147.5430 C   0  0  0  0  0  3  0  0  0  0  0  0
  191.4400  176.2760  144.9500 C   0  0  0  0  0  0  0  0  0  0  0  0
  191.2340  176.4220  143.6390 C   0  0  0  0  0  0  0  0  0  0  0  0
  189.2340  175.6880  142.3430 C   0  0  0  0  0  3  0  0  0  0  0  0
  188.0200  175.9490  141.7000 C   0  0  0  0  0  3  0  0  0  0  0  0
  189.9520  176.7230  142.9610 C   0  0  0  0  0  0  0  0  0  0  0  0
  187.5070  177.2490  141.6770 C   0  0  0  0  0  0  0  0  0  0  0  0
  188.2160  178.2880  142.2860 C   0  0  0  0  0  3  0  0  0  0  0  0
  189.4310  178.0250  142.9250 C   0  0  0  0  0  3  0  0  0  0  0  0
  186.2210  177.5330  140.9850 C   0  0  0  0  0  2  0  0  0  0  0  0
  185.3570  178.3200  141.8510 N   0  0  0  0  0  2  0  0  0  0  0  0
  185.1670  177.5420  143.0650 C   0  0  0  0  0  2  0  0  0  0  0  0
  184.9030  178.4540  144.2600 C   0  0  1  0  0  3  0  0  0  0  0  0
  183.6360  179.0310  144.1390 O   0  0  0  0  0  1  0  0  0  0  0  0
  184.7670  178.6500  146.7670 C   0  0  0  0  0  3  0  0  0  0  0  0
  185.0310  177.7000  145.5870 C   0  0  2  0  0  3  0  0  0  0  0  0
  187.0940  176.4950  145.1780 O   0  0  0  0  0  0  0  0  0  0  0  0
  186.4270  177.3280  145.8470 C   0  0  0  0  0  0  0  0  0  0  0  0
  186.0100  178.8200  147.5390 N   0  0  0  0  0  0  0  0  0  0  0  0
  186.9240  177.9830  146.9400 O   0  0  0  0  0  0  0  0  0  0  0  0
  196.8560  174.8290  142.8400 C   0  0  0  0  0  0  0  0  0  0  0  0
  194.8790  175.6970  143.5480 C   0  0  0  0  0  0  0  0  0  0  0  0
  195.4360  174.5560  142.8440 C   0  0  0  0  0  0  0  0  0  0  0  0
  197.0710  175.9440  143.4600 N   0  0  0  0  0  0  0  0  0  0  0  0
  195.8470  176.4850  143.8930 N   0  0  0  0  0  0  0  0  0  0  0  0
  194.8330  173.5650  142.3540 O   0  0  0  0  0  0  0  0  0  0  0  0
  197.9410  173.9690  142.2830 C   0  0  0  0  0  2  0  0  0  0  0  0
  197.8140  175.0100  140.0930 C   0  0  0  0  0  3  0  0  0  0  0  0
  197.8410  173.8650  140.7920 C   0  0  0  0  0  0  0  0  0  0  0  0
  196.4770  175.2220  137.9810 C   0  0  0  0  0  1  0  0  0  0  0  0
  197.7000  175.1570  138.7010 O   0  0  0  0  0  0  0  0  0  0  0  0
  197.7870  172.5390  140.1490 C   0  0  0  0  0  3  0  0  0  0  0  0
  196.7070  171.7650  140.1860 C   0  0  0  0  0  2  0  0  0  0  0  0
  1  7  1  0  0  0  0
  2  7  2  0  0  0  0
  3  1  2  0  0  0  0
  4  6  1  0  0  0  0
  5  9  1  0  0  0  0
  5  4  2  0  0  0  0
  6  2  1  1  0  0  0
  8  6  1  0  0  0  0
  8  3  1  0  0  0  0
  9  8  2  0  0  0  0
 10 12  1  0  0  0  0
 11 10  2  0  0  0  0
 12  9  1  0  0  0  0
 13 11  1  0  0  0  0
 13 14  2  0  0  0  0
 14 15  1  0  0  0  0
 15 12  2  0  0  0  0
 16 13  1  0  0  0  0
 16 17  1  0  0  0  0
 17 18  1  0  0  0  0
 18 19  1  0  0  0  0
 19 20  1  6  0  0  0
 21 25  2  0  0  0  0
 22 19  1  6  0  0  0
 22 24  1  0  0  0  0
 22 21  1  0  0  0  0
 23 24  2  0  0  0  0
 24 26  1  0  0  0  0
 26 25  1  0  0  0  0
 27 29  1  0  0  0  0
 27 30  2  0  0  0  0
 28  4  1  0  0  0  0
 28 31  2  0  0  0  0
 29 28  1  0  0  0  0
 30 31  1  0  0  0  0
 32 29  2  0  0  0  0
 33 27  1  0  0  0  0
 34 35  2  0  0  0  0
 35 33  1  0  0  0  0
 36 37  1  0  0  0  0
 37 34  1  0  0  0  0
 38 39  2  0  0  0  0
 38 35  1  0  0  0  0
M  END
>  <MODEL>
8

>  <REMARK>
 VINA RESULT:      -6.7      1.903      2.431
  Name = 
  11 active torsions:
  status: ('A' for Active; 'I' for Inactive)
    1  A    between atoms: C_2  and  C_4
    2  A    between atoms: C_2  and  C_35
    3  A    between atoms: C_5  and  C_22
    4  A    between atoms: C_10  and  C_35
    5  A    between atoms: C_11  and  O_30
    6  A    between atoms: C_12  and  C_22
    7  A    between atoms: C_12  and  N_39
    8  A    between atoms: C_13  and  C_38
    9  A    between atoms: C_15  and  C_23
   10  A    between atoms: C_16  and  C_25
   11  A    between atoms: C_23  and  N_39
                            x       y       z     vdW  Elec       q    Type
                         _______ _______ _______ _____ _____    ______ ____

>  <TORSDO>
F 11

$$$$
=
 OpenBabel11042415353D

 39 43  0  0  1  0  0  0  0  0999 V2000
  186.6530  177.0200  147.5530 C   0  0  0  0  0  3  0  0  0  0  0  0
  184.8290  177.7200  146.0410 C   0  0  0  0  0  3  0  0  0  0  0  0
  187.6640  176.9520  146.4240 C   0  0  0  0  0  3  0  0  0  0  0  0
  185.3910  177.9480  143.5900 C   0  0  0  0  0  0  0  0  0  0  0  0
  186.5280  177.7540  142.9200 C   0  0  0  0  0  3  0  0  0  0  0  0
  185.6480  177.6740  144.9940 C   0  0  2  0  0  3  0  0  0  0  0  0
  185.3650  177.3710  147.3750 C   0  0  0  0  0  3  0  0  0  0  0  0
  187.0350  177.3020  145.1030 C   0  0  0  0  0  0  0  0  0  0  0  0
  187.5740  177.3440  143.8830 C   0  0  0  0  0  0  0  0  0  0  0  0
  189.3020  175.8000  142.9620 C   0  0  0  0  0  3  0  0  0  0  0  0
  190.6190  175.5020  142.6020 C   0  0  0  0  0  3  0  0  0  0  0  0
  188.9780  177.0490  143.5130 C   0  0  0  0  0  0  0  0  0  0  0  0
  191.6270  176.4540  142.7840 C   0  0  0  0  0  0  0  0  0  0  0  0
  191.3160  177.6990  143.3370 C   0  0  0  0  0  3  0  0  0  0  0  0
  189.9980  177.9940  143.6990 C   0  0  0  0  0  3  0  0  0  0  0  0
  193.0320  176.1360  142.4130 C   0  0  0  0  0  2  0  0  0  0  0  0
  193.8750  176.1700  143.5980 N   0  0  0  0  0  2  0  0  0  0  0  0
  193.6190  174.9380  144.3260 C   0  0  0  0  0  2  0  0  0  0  0  0
  193.4560  175.2100  145.8190 C   0  0  1  0  0  3  0  0  0  0  0  0
  194.5600  175.9300  146.2860 O   0  0  0  0  0  1  0  0  0  0  0  0
  192.2890  176.7540  147.4290 C   0  0  0  0  0  3  0  0  0  0  0  0
  192.1540  175.9580  146.1210 C   0  0  2  0  0  3  0  0  0  0  0  0
  190.5570  174.1830  145.7040 O   0  0  0  0  0  0  0  0  0  0  0  0
  191.0840  175.0210  146.4830 C   0  0  0  0  0  0  0  0  0  0  0  0
  191.3830  176.1800  148.4400 N   0  0  0  0  0  0  0  0  0  0  0  0
  190.6950  175.1840  147.7850 O   0  0  0  0  0  0  0  0  0  0  0  0
  182.3460  178.7480  141.6140 C   0  0  0  0  0  0  0  0  0  0  0  0
  184.1130  178.3670  142.9920 C   0  0  0  0  0  0  0  0  0  0  0  0
  183.6550  178.1330  141.6350 C   0  0  0  0  0  0  0  0  0  0  0  0
  182.1070  179.2650  142.7760 N   0  0  0  0  0  0  0  0  0  0  0  0
  183.1980  179.0240  143.6310 N   0  0  0  0  0  0  0  0  0  0  0  0
  184.2500  177.5380  140.6980 O   0  0  0  0  0  0  0  0  0  0  0  0
  181.4140  178.8530  140.4530 C   0  0  0  0  0  2  0  0  0  0  0  0
  179.6440  177.9010  141.8150 C   0  0  0  0  0  3  0  0  0  0  0  0
  179.9840  178.8210  140.9000 C   0  0  0  0  0  0  0  0  0  0  0  0
  177.6970  176.4180  142.3720 C   0  0  0  0  0  1  0  0  0  0  0  0
  178.3690  177.6700  142.3590 O   0  0  0  0  0  0  0  0  0  0  0  0
  179.0180  179.7860  140.3440 C   0  0  0  0  0  3  0  0  0  0  0  0
  179.3540  181.0270  140.0080 C   0  0  0  0  0  2  0  0  0  0  0  0
  2  7  2  0  0  0  0
  3  1  2  0  0  0  0
  4  6  1  0  0  0  0
  5  4  2  0  0  0  0
  5  9  1  0  0  0  0
  6  8  1  0  0  0  0
  6  2  1  6  0  0  0
  7  1  1  0  0  0  0
  8  3  1  0  0  0  0
  9  8  2  0  0  0  0
 10 12  1  0  0  0  0
 11 13  1  0  0  0  0
 11 10  2  0  0  0  0
 12 15  2  0  0  0  0
 12  9  1  0  0  0  0
 13 14  2  0  0  0  0
 14 15  1  0  0  0  0
 16 13  1  0  0  0  0
 16 17  1  0  0  0  0
 17 18  1  0  0  0  0
 18 19  1  0  0  0  0
 19 20  1  6  0  0  0
 21 25  2  0  0  0  0
 22 19  1  1  0  0  0
 22 24  1  0  0  0  0
 22 21  1  0  0  0  0
 23 24  2  0  0  0  0
 24 26  1  0  0  0  0
 26 25  1  0  0  0  0
 27 29  1  0  0  0  0
 27 30  2  0  0  0  0
 28  4  1  0  0  0  0
 28 31  2  0  0  0  0
 29 28  1  0  0  0  0
 30 31  1  0  0  0  0
 32 29  2  0  0  0  0
 33 35  1  0  0  0  0
 33 27  1  0  0  0  0
 34 37  1  0  0  0  0
 35 34  2  0  0  0  0
 37 36  1  0  0  0  0
 38 35  1  0  0  0  0
 39 38  2  0  0  0  0
M  END
>  <MODEL>
9

>  <REMARK>
 VINA RESULT:      -6.7      3.331     11.189
  Name = 
  11 active torsions:
  status: ('A' for Active; 'I' for Inactive)
    1  A    between atoms: C_2  and  C_4
    2  A    between atoms: C_2  and  C_35
    3  A    between atoms: C_5  and  C_22
    4  A    between atoms: C_10  and  C_35
    5  A    between atoms: C_11  and  O_30
    6  A    between atoms: C_12  and  C_22
    7  A    between atoms: C_12  and  N_39
    8  A    between atoms: C_13  and  C_38
    9  A    between atoms: C_15  and  C_23
   10  A    between atoms: C_16  and  C_25
   11  A    between atoms: C_23  and  N_39
                            x       y       z     vdW  Elec       q    Type
                         _______ _______ _______ _____ _____    ______ ____

>  <TORSDO>
F 11

$$$$
