=
 OpenBabel11042413513D

 25 26  0  0  1  0  0  0  0  0999 V2000
  191.1900  175.8980  147.6810 C   0  0  0  0  0  1  0  0  0  0  0  0
  190.3170  177.1100  145.4970 C   0  0  1  0  0  3  0  0  0  0  0  0
  191.3560  176.3220  146.2610 C   0  0  0  0  0  0  0  0  0  0  0  0
  190.9990  177.3020  144.1800 C   0  0  0  0  0  0  0  0  0  0  0  0
  190.5270  177.9380  143.2010 O   0  0  0  0  0  0  0  0  0  0  0  0
  193.1300  176.6310  143.2730 O   0  0  0  0  0  0  0  0  0  0  0  0
  192.2950  176.6640  144.2140 C   0  0  0  0  0  0  0  0  0  0  0  0
  192.4480  176.0810  145.5350 C   0  0  0  0  0  0  0  0  0  0  0  0
  189.0430  176.3240  145.3400 C   0  0  0  0  0  0  0  0  0  0  0  0
  189.0960  175.1080  145.0040 O   0  0  0  0  0  0  0  0  0  0  0  0
  185.2440  178.1740  146.0490 C   0  0  0  0  0  0  0  0  0  0  0  0
  186.9240  176.5330  146.6410 C   0  0  0  0  0  3  0  0  0  0  0  0
  185.6850  177.1350  146.8740 C   0  0  0  0  0  3  0  0  0  0  0  0
  187.2860  178.0070  144.7580 C   0  0  0  0  0  3  0  0  0  0  0  0
  186.0470  178.6110  144.9860 C   0  0  0  0  0  0  0  0  0  0  0  0
  187.7350  176.9630  145.5810 C   0  0  0  0  0  0  0  0  0  0  0  0
  185.5210  179.9120  143.9350 Cl  0  0  0  0  0  0  0  0  0  0  0  0
  184.0100  178.7640  146.2920 O   0  0  0  0  0  1  0  0  0  0  0  0
  193.5890  175.3650  146.0190 N   0  0  0  0  0  2  0  0  0  0  0  0
  193.9010  174.0060  145.6060 C   0  0  0  0  0  2  0  0  0  0  0  0
  194.8620  174.0330  144.5170 N   0  0  0  0  0  2  0  0  0  0  0  0
  195.9090  174.9680  144.8930 C   0  0  0  0  0  2  0  0  0  0  0  0
  196.9050  174.8970  142.7320 O   0  0  0  0  0  0  0  0  0  0  0  0
  196.4680  175.6090  143.6730 C   0  0  0  0  0  0  0  0  0  0  0  0
  196.5440  176.9920  143.5880 O   0  0  0  0  0  1  0  0  0  0  0  0
  2  9  1  6  0  0  0
  2  3  1  0  0  0  0
  3  1  1  0  0  0  0
  4  7  1  0  0  0  0
  4  2  1  0  0  0  0
  5  4  2  0  0  0  0
  6  7  2  0  0  0  0
  7  8  1  0  0  0  0
  8 19  1  0  0  0  0
  8  3  2  0  0  0  0
  9 16  1  0  0  0  0
 10  9  2  0  0  0  0
 11 18  1  0  0  0  0
 11 13  1  0  0  0  0
 12 13  2  0  0  0  0
 14 15  1  0  0  0  0
 14 16  2  0  0  0  0
 15 11  2  0  0  0  0
 16 12  1  0  0  0  0
 17 15  1  0  0  0  0
 20 19  1  0  0  0  0
 21 22  1  0  0  0  0
 21 20  1  0  0  0  0
 23 24  2  0  0  0  0
 24 22  1  0  0  0  0
 25 24  1  0  0  0  0
M  END
>  <MODEL>
1

>  <REMARK>
 VINA RESULT:      -6.5      0.000      0.000
  Name = 
  7 active torsions:
  status: ('A' for Active; 'I' for Inactive)
    1  A    between atoms: N_1  and  C_19
    2  A    between atoms: N_1  and  C_25
    3  A    between atoms: N_4  and  C_19
    4  A    between atoms: N_4  and  C_20
    5  A    between atoms: C_5  and  C_10
    6  A    between atoms: C_10  and  C_17
    7  A    between atoms: C_20  and  C_22
                            x       y       z     vdW  Elec       q    Type
                         _______ _______ _______ _____ _____    ______ ____

>  <TORSDO>
F 7

$$$$
=
 OpenBabel11042413513D

 25 26  0  0  1  0  0  0  0  0999 V2000
  191.0310  176.4510  147.5630 C   0  0  0  0  0  1  0  0  0  0  0  0
  190.1010  177.3180  145.2420 C   0  0  1  0  0  3  0  0  0  0  0  0
  191.1730  176.6810  146.0970 C   0  0  0  0  0  0  0  0  0  0  0  0
  190.7700  177.3510  143.9050 C   0  0  0  0  0  0  0  0  0  0  0  0
  190.2700  177.8290  142.8520 O   0  0  0  0  0  0  0  0  0  0  0  0
  192.9200  176.6400  143.0770 O   0  0  0  0  0  0  0  0  0  0  0  0
  192.0890  176.7720  144.0130 C   0  0  0  0  0  0  0  0  0  0  0  0
  192.2710  176.3820  145.4000 C   0  0  0  0  0  0  0  0  0  0  0  0
  188.8570  176.4720  145.2070 C   0  0  0  0  0  0  0  0  0  0  0  0
  188.9490  175.2350  144.9690 O   0  0  0  0  0  0  0  0  0  0  0  0
  185.0140  178.2210  145.9330 C   0  0  0  0  0  0  0  0  0  0  0  0
  186.6950  176.5550  146.4490 C   0  0  0  0  0  3  0  0  0  0  0  0
  185.4410  177.1240  146.6870 C   0  0  0  0  0  3  0  0  0  0  0  0
  187.0990  178.1780  144.7020 C   0  0  0  0  0  3  0  0  0  0  0  0
  185.8460  178.7500  144.9360 C   0  0  0  0  0  0  0  0  0  0  0  0
  187.5340  177.0770  145.4550 C   0  0  0  0  0  0  0  0  0  0  0  0
  185.3380  180.1250  143.9740 Cl  0  0  0  0  0  0  0  0  0  0  0  0
  183.7650  178.7770  146.1810 O   0  0  0  0  0  1  0  0  0  0  0  0
  193.4390  175.7820  145.9670 N   0  0  0  0  0  2  0  0  0  0  0  0
  193.7560  174.3720  145.8110 C   0  0  0  0  0  2  0  0  0  0  0  0
  194.7600  174.2070  144.7730 N   0  0  0  0  0  2  0  0  0  0  0  0
  195.9590  174.8940  145.2230 C   0  0  0  0  0  2  0  0  0  0  0  0
  197.1580  173.3780  146.6120 O   0  0  0  0  0  1  0  0  0  0  0  0
  197.0380  173.9030  145.4750 C   0  0  0  0  0  0  0  0  0  0  0  0
  197.9370  173.5850  144.4660 O   0  0  0  0  0  0  0  0  0  0  0  0
  2  9  1  6  0  0  0
  2  3  1  0  0  0  0
  3  1  1  0  0  0  0
  4  7  1  0  0  0  0
  4  2  1  0  0  0  0
  5  4  2  0  0  0  0
  6  7  2  0  0  0  0
  7  8  1  0  0  0  0
  8 19  1  0  0  0  0
  8  3  2  0  0  0  0
  9 16  1  0  0  0  0
 10  9  2  0  0  0  0
 11 18  1  0  0  0  0
 11 13  1  0  0  0  0
 12 13  2  0  0  0  0
 14 15  1  0  0  0  0
 14 16  2  0  0  0  0
 15 11  2  0  0  0  0
 16 12  1  0  0  0  0
 17 15  1  0  0  0  0
 20 19  1  0  0  0  0
 21 22  1  0  0  0  0
 21 20  1  0  0  0  0
 22 24  1  0  0  0  0
 24 23  1  0  0  0  0
 25 24  2  0  0  0  0
M  END
>  <MODEL>
2

>  <REMARK>
 VINA RESULT:      -6.5      1.070      1.279
  Name = 
  7 active torsions:
  status: ('A' for Active; 'I' for Inactive)
    1  A    between atoms: N_1  and  C_19
    2  A    between atoms: N_1  and  C_25
    3  A    between atoms: N_4  and  C_19
    4  A    between atoms: N_4  and  C_20
    5  A    between atoms: C_5  and  C_10
    6  A    between atoms: C_10  and  C_17
    7  A    between atoms: C_20  and  C_22
                            x       y       z     vdW  Elec       q    Type
                         _______ _______ _______ _____ _____    ______ ____

>  <TORSDO>
F 7

$$$$
=
 OpenBabel11042413513D

 25 26  0  0  1  0  0  0  0  0999 V2000
  190.2550  177.9460  144.3140 C   0  0  0  0  0  1  0  0  0  0  0  0
  189.3530  175.5150  144.8440 C   0  0  1  0  0  3  0  0  0  0  0  0
  190.4740  176.4970  144.5930 C   0  0  0  0  0  0  0  0  0  0  0  0
  190.1110  174.2360  145.0080 C   0  0  0  0  0  0  0  0  0  0  0  0
  189.5960  173.1050  145.2140 O   0  0  0  0  0  0  0  0  0  0  0  0
  192.4470  173.6430  144.9550 O   0  0  0  0  0  0  0  0  0  0  0  0
  191.5250  174.4960  144.8710 C   0  0  0  0  0  0  0  0  0  0  0  0
  191.6750  175.9170  144.6110 C   0  0  0  0  0  0  0  0  0  0  0  0
  188.5950  175.8620  146.0970 C   0  0  0  0  0  0  0  0  0  0  0  0
  189.0540  175.5160  147.2210 O   0  0  0  0  0  0  0  0  0  0  0  0
  184.9060  178.0310  145.8850 C   0  0  0  0  0  0  0  0  0  0  0  0
  186.7310  177.1130  147.1860 C   0  0  0  0  0  3  0  0  0  0  0  0
  185.5280  177.8210  147.1190 C   0  0  0  0  0  3  0  0  0  0  0  0
  186.6950  176.8230  144.7860 C   0  0  0  0  0  3  0  0  0  0  0  0
  185.4910  177.5290  144.7140 C   0  0  0  0  0  0  0  0  0  0  0  0
  187.3240  176.6090  146.0210 C   0  0  0  0  0  0  0  0  0  0  0  0
  184.7340  177.7770  143.1510 Cl  0  0  0  0  0  0  0  0  0  0  0  0
  183.7100  178.7360  145.8330 O   0  0  0  0  0  1  0  0  0  0  0  0
  192.9040  176.6150  144.3900 N   0  0  0  0  0  2  0  0  0  0  0  0
  193.8680  176.8670  145.4490 C   0  0  0  0  0  2  0  0  0  0  0  0
  195.2050  176.9520  144.8850 N   0  0  0  0  0  2  0  0  0  0  0  0
  195.2390  176.0700  143.7300 C   0  0  0  0  0  2  0  0  0  0  0  0
  197.5150  176.5130  143.1880 O   0  0  0  0  0  1  0  0  0  0  0  0
  196.3170  176.5050  142.8030 C   0  0  0  0  0  0  0  0  0  0  0  0
  195.9990  176.9400  141.5230 O   0  0  0  0  0  0  0  0  0  0  0  0
  1  3  1  0  0  0  0
  2  4  1  0  0  0  0
  2  9  1  1  0  0  0
  3  8  2  0  0  0  0
  3  2  1  0  0  0  0
  4  5  2  0  0  0  0
  7  6  2  0  0  0  0
  7  4  1  0  0  0  0
  8  7  1  0  0  0  0
  9 10  2  0  0  0  0
 11 13  1  0  0  0  0
 13 12  2  0  0  0  0
 14 16  2  0  0  0  0
 15 14  1  0  0  0  0
 15 11  2  0  0  0  0
 16  9  1  0  0  0  0
 16 12  1  0  0  0  0
 17 15  1  0  0  0  0
 18 11  1  0  0  0  0
 19  8  1  0  0  0  0
 19 20  1  0  0  0  0
 21 20  1  0  0  0  0
 22 21  1  0  0  0  0
 24 23  1  0  0  0  0
 24 22  1  0  0  0  0
 25 24  2  0  0  0  0
M  END
>  <MODEL>
3

>  <REMARK>
 VINA RESULT:      -6.4      1.980      2.314
  Name = 
  7 active torsions:
  status: ('A' for Active; 'I' for Inactive)
    1  A    between atoms: N_1  and  C_19
    2  A    between atoms: N_1  and  C_25
    3  A    between atoms: N_4  and  C_19
    4  A    between atoms: N_4  and  C_20
    5  A    between atoms: C_5  and  C_10
    6  A    between atoms: C_10  and  C_17
    7  A    between atoms: C_20  and  C_22
                            x       y       z     vdW  Elec       q    Type
                         _______ _______ _______ _____ _____    ______ ____

>  <TORSDO>
F 7

$$$$
=
 OpenBabel11042413513D

 25 26  0  0  1  0  0  0  0  0999 V2000
  190.8640  178.1810  143.8760 C   0  0  0  0  0  1  0  0  0  0  0  0
  189.6880  176.0500  144.9140 C   0  0  1  0  0  3  0  0  0  0  0  0
  190.9100  176.8000  144.4370 C   0  0  0  0  0  0  0  0  0  0  0  0
  190.2830  174.7370  145.3130 C   0  0  0  0  0  0  0  0  0  0  0  0
  189.6390  173.7500  145.7580 O   0  0  0  0  0  0  0  0  0  0  0  0
  192.5170  173.8300  145.3140 O   0  0  0  0  0  0  0  0  0  0  0  0
  191.7090  174.7670  145.0860 C   0  0  0  0  0  0  0  0  0  0  0  0
  192.0250  176.0750  144.5390 C   0  0  0  0  0  0  0  0  0  0  0  0
  189.0510  176.7380  146.0920 C   0  0  0  0  0  0  0  0  0  0  0  0
  189.7150  176.9020  147.1530 O   0  0  0  0  0  0  0  0  0  0  0  0
  185.0120  178.1480  145.8680 C   0  0  0  0  0  0  0  0  0  0  0  0
  186.7000  176.7680  146.9240 C   0  0  0  0  0  3  0  0  0  0  0  0
  185.3820  177.2270  146.8530 C   0  0  0  0  0  3  0  0  0  0  0  0
  187.2830  178.1500  145.0260 C   0  0  0  0  0  3  0  0  0  0  0  0
  185.9660  178.6100  144.9500 C   0  0  0  0  0  0  0  0  0  0  0  0
  187.6610  177.2250  146.0120 C   0  0  0  0  0  0  0  0  0  0  0  0
  185.5320  179.7660  143.7040 Cl  0  0  0  0  0  0  0  0  0  0  0  0
  183.6980  178.5950  145.8080 O   0  0  0  0  0  1  0  0  0  0  0  0
  193.3200  176.5400  144.1460 N   0  0  0  0  0  2  0  0  0  0  0  0
  194.0320  176.0100  142.9950 C   0  0  0  0  0  2  0  0  0  0  0  0
  195.4480  175.8990  143.3020 N   0  0  0  0  0  2  0  0  0  0  0  0
  195.6860  174.5330  143.7360 C   0  0  0  0  0  2  0  0  0  0  0  0
  197.5090  174.1660  145.2220 O   0  0  0  0  0  0  0  0  0  0  0  0
  196.3160  174.5390  145.0830 C   0  0  0  0  0  0  0  0  0  0  0  0
  195.5750  174.9200  146.1940 O   0  0  0  0  0  1  0  0  0  0  0  0
  1  3  1  0  0  0  0
  2  4  1  0  0  0  0
  2  9  1  1  0  0  0
  3  8  2  0  0  0  0
  3  2  1  0  0  0  0
  4  5  2  0  0  0  0
  7  4  1  0  0  0  0
  7  6  2  0  0  0  0
  8  7  1  0  0  0  0
  9 10  2  0  0  0  0
 11 13  1  0  0  0  0
 13 12  2  0  0  0  0
 14 16  2  0  0  0  0
 15 14  1  0  0  0  0
 15 11  2  0  0  0  0
 16  9  1  0  0  0  0
 16 12  1  0  0  0  0
 17 15  1  0  0  0  0
 18 11  1  0  0  0  0
 19  8  1  0  0  0  0
 20 21  1  0  0  0  0
 20 19  1  0  0  0  0
 21 22  1  0  0  0  0
 22 24  1  0  0  0  0
 24 23  2  0  0  0  0
 24 25  1  0  0  0  0
M  END
>  <MODEL>
4

>  <REMARK>
 VINA RESULT:      -6.3      1.854      2.298
  Name = 
  7 active torsions:
  status: ('A' for Active; 'I' for Inactive)
    1  A    between atoms: N_1  and  C_19
    2  A    between atoms: N_1  and  C_25
    3  A    between atoms: N_4  and  C_19
    4  A    between atoms: N_4  and  C_20
    5  A    between atoms: C_5  and  C_10
    6  A    between atoms: C_10  and  C_17
    7  A    between atoms: C_20  and  C_22
                            x       y       z     vdW  Elec       q    Type
                         _______ _______ _______ _____ _____    ______ ____

>  <TORSDO>
F 7

$$$$
=
 OpenBabel11042413513D

 25 26  0  0  1  0  0  0  0  0999 V2000
  191.2770  176.0730  147.7490 C   0  0  0  0  0  1  0  0  0  0  0  0
  190.3890  177.1450  145.4990 C   0  0  1  0  0  3  0  0  0  0  0  0
  191.4410  176.4230  146.3090 C   0  0  0  0  0  0  0  0  0  0  0  0
  191.0760  177.2820  144.1770 C   0  0  0  0  0  0  0  0  0  0  0  0
  190.5960  177.8540  143.1620 O   0  0  0  0  0  0  0  0  0  0  0  0
  193.2280  176.6140  143.3190 O   0  0  0  0  0  0  0  0  0  0  0  0
  192.3860  176.6780  144.2520 C   0  0  0  0  0  0  0  0  0  0  0  0
  192.5440  176.1700  145.6030 C   0  0  0  0  0  0  0  0  0  0  0  0
  189.1350  176.3220  145.3770 C   0  0  0  0  0  0  0  0  0  0  0  0
  189.2180  175.0970  145.0810 O   0  0  0  0  0  0  0  0  0  0  0  0
  185.2940  178.0960  146.0520 C   0  0  0  0  0  0  0  0  0  0  0  0
  187.0130  176.5070  146.6750 C   0  0  0  0  0  3  0  0  0  0  0  0
  185.7600  177.0840  146.8970 C   0  0  0  0  0  3  0  0  0  0  0  0
  187.3390  177.9500  144.7620 C   0  0  0  0  0  3  0  0  0  0  0  0
  186.0860  178.5300  144.9790 C   0  0  0  0  0  0  0  0  0  0  0  0
  187.8130  176.9350  145.6060 C   0  0  0  0  0  0  0  0  0  0  0  0
  185.5290  179.7960  143.9020 Cl  0  0  0  0  0  0  0  0  0  0  0  0
  184.0460  178.6610  146.2840 O   0  0  0  0  0  1  0  0  0  0  0  0
  193.6980  175.5090  146.1310 N   0  0  0  0  0  2  0  0  0  0  0  0
  194.2550  174.3030  145.5410 C   0  0  0  0  0  2  0  0  0  0  0  0
  193.3340  173.1940  145.7270 N   0  0  0  0  0  2  0  0  0  0  0  0
  193.1360  172.5780  144.4270 C   0  0  0  0  0  2  0  0  0  0  0  0
  190.8140  172.0700  144.5510 O   0  0  0  0  0  1  0  0  0  0  0  0
  191.7210  172.7480  144.0030 C   0  0  0  0  0  0  0  0  0  0  0  0
  191.4050  173.6270  142.9770 O   0  0  0  0  0  0  0  0  0  0  0  0
  2  9  1  6  0  0  0
  2  3  1  0  0  0  0
  3  1  1  0  0  0  0
  4  7  1  0  0  0  0
  4  2  1  0  0  0  0
  5  4  2  0  0  0  0
  6  7  2  0  0  0  0
  7  8  1  0  0  0  0
  8 19  1  0  0  0  0
  8  3  2  0  0  0  0
  9 16  1  0  0  0  0
 10  9  2  0  0  0  0
 11 18  1  0  0  0  0
 11 13  1  0  0  0  0
 12 13  2  0  0  0  0
 14 15  1  0  0  0  0
 14 16  2  0  0  0  0
 15 11  2  0  0  0  0
 16 12  1  0  0  0  0
 17 15  1  0  0  0  0
 20 21  1  0  0  0  0
 20 19  1  0  0  0  0
 22 21  1  0  0  0  0
 24 22  1  0  0  0  0
 24 23  1  0  0  0  0
 25 24  2  0  0  0  0
M  END
>  <MODEL>
5

>  <REMARK>
 VINA RESULT:      -6.3      1.367      2.332
  Name = 
  7 active torsions:
  status: ('A' for Active; 'I' for Inactive)
    1  A    between atoms: N_1  and  C_19
    2  A    between atoms: N_1  and  C_25
    3  A    between atoms: N_4  and  C_19
    4  A    between atoms: N_4  and  C_20
    5  A    between atoms: C_5  and  C_10
    6  A    between atoms: C_10  and  C_17
    7  A    between atoms: C_20  and  C_22
                            x       y       z     vdW  Elec       q    Type
                         _______ _______ _______ _____ _____    ______ ____

>  <TORSDO>
F 7

$$$$
=
 OpenBabel11042413513D

 25 26  0  0  1  0  0  0  0  0999 V2000
  191.1910  178.1730  143.8720 C   0  0  0  0  0  1  0  0  0  0  0  0
  189.4190  176.2570  143.4360 C   0  0  1  0  0  3  0  0  0  0  0  0
  190.8220  176.8170  143.3730 C   0  0  0  0  0  0  0  0  0  0  0  0
  189.6010  174.9290  142.7720 C   0  0  0  0  0  0  0  0  0  0  0  0
  188.6870  174.0890  142.5600 O   0  0  0  0  0  0  0  0  0  0  0  0
  191.4840  173.7690  141.8110 O   0  0  0  0  0  0  0  0  0  0  0  0
  190.9850  174.7690  142.3890 C   0  0  0  0  0  0  0  0  0  0  0  0
  191.6810  175.9800  142.7900 C   0  0  0  0  0  0  0  0  0  0  0  0
  188.9600  176.0940  144.8600 C   0  0  0  0  0  0  0  0  0  0  0  0
  189.6050  175.3410  145.6420 O   0  0  0  0  0  0  0  0  0  0  0  0
  185.4970  178.1740  146.2860 C   0  0  0  0  0  0  0  0  0  0  0  0
  187.1800  176.4550  146.5690 C   0  0  0  0  0  3  0  0  0  0  0  0
  186.0500  177.1320  147.0360 C   0  0  0  0  0  3  0  0  0  0  0  0
  187.2070  177.8580  144.6000 C   0  0  0  0  0  3  0  0  0  0  0  0
  186.0760  178.5380  145.0620 C   0  0  0  0  0  0  0  0  0  0  0  0
  187.7670  176.8120  145.3480 C   0  0  0  0  0  0  0  0  0  0  0  0
  185.4050  179.8400  144.0980 Cl  0  0  0  0  0  0  0  0  0  0  0  0
  184.3730  178.8380  146.7620 O   0  0  0  0  0  1  0  0  0  0  0  0
  193.0680  176.2660  142.5920 N   0  0  0  0  0  2  0  0  0  0  0  0
  194.0740  176.0410  143.6170 C   0  0  0  0  0  2  0  0  0  0  0  0
  193.6270  174.9960  144.5220 N   0  0  0  0  0  2  0  0  0  0  0  0
  194.3380  175.1820  145.7760 C   0  0  0  0  0  2  0  0  0  0  0  0
  194.5650  177.3310  146.7750 O   0  0  0  0  0  0  0  0  0  0  0  0
  193.8010  176.3760  146.4820 C   0  0  0  0  0  0  0  0  0  0  0  0
  192.4640  176.4190  146.8530 O   0  0  0  0  0  1  0  0  0  0  0  0
  2  9  1  1  0  0  0
  3  2  1  0  0  0  0
  3  1  1  0  0  0  0
  4  2  1  0  0  0  0
  5  4  2  0  0  0  0
  6  7  2  0  0  0  0
  7  4  1  0  0  0  0
  7  8  1  0  0  0  0
  8  3  2  0  0  0  0
  9 16  1  0  0  0  0
  9 10  2  0  0  0  0
 11 18  1  0  0  0  0
 11 13  1  0  0  0  0
 12 13  2  0  0  0  0
 14 15  1  0  0  0  0
 14 16  2  0  0  0  0
 15 11  2  0  0  0  0
 16 12  1  0  0  0  0
 17 15  1  0  0  0  0
 19  8  1  0  0  0  0
 19 20  1  0  0  0  0
 20 21  1  0  0  0  0
 21 22  1  0  0  0  0
 22 24  1  0  0  0  0
 24 23  2  0  0  0  0
 24 25  1  0  0  0  0
M  END
>  <MODEL>
6

>  <REMARK>
 VINA RESULT:      -6.2      2.102      2.771
  Name = 
  7 active torsions:
  status: ('A' for Active; 'I' for Inactive)
    1  A    between atoms: N_1  and  C_19
    2  A    between atoms: N_1  and  C_25
    3  A    between atoms: N_4  and  C_19
    4  A    between atoms: N_4  and  C_20
    5  A    between atoms: C_5  and  C_10
    6  A    between atoms: C_10  and  C_17
    7  A    between atoms: C_20  and  C_22
                            x       y       z     vdW  Elec       q    Type
                         _______ _______ _______ _____ _____    ______ ____

>  <TORSDO>
F 7

$$$$
=
 OpenBabel11042413513D

 25 26  0  0  1  0  0  0  0  0999 V2000
  189.7790  173.2490  144.4760 C   0  0  0  0  0  1  0  0  0  0  0  0
  189.7350  175.3630  146.0660 C   0  0  1  0  0  3  0  0  0  0  0  0
  190.4630  174.2630  145.3300 C   0  0  0  0  0  0  0  0  0  0  0  0
  190.8620  176.0340  146.7850 C   0  0  0  0  0  0  0  0  0  0  0  0
  190.7460  177.0140  147.5680 O   0  0  0  0  0  0  0  0  0  0  0  0
  193.2440  175.6750  146.8930 O   0  0  0  0  0  0  0  0  0  0  0  0
  192.1020  175.3670  146.4620 C   0  0  0  0  0  0  0  0  0  0  0  0
  191.7770  174.2780  145.5580 C   0  0  0  0  0  0  0  0  0  0  0  0
  189.0620  176.3090  145.1080 C   0  0  0  0  0  0  0  0  0  0  0  0
  189.6100  176.5700  144.0000 O   0  0  0  0  0  0  0  0  0  0  0  0
  185.3010  178.0960  146.1140 C   0  0  0  0  0  0  0  0  0  0  0  0
  187.0660  176.5060  146.5900 C   0  0  0  0  0  3  0  0  0  0  0  0
  185.8390  177.0880  146.9200 C   0  0  0  0  0  3  0  0  0  0  0  0
  187.2220  177.9390  144.6470 C   0  0  0  0  0  3  0  0  0  0  0  0
  185.9950  178.5230  144.9730 C   0  0  0  0  0  0  0  0  0  0  0  0
  187.7670  176.9260  145.4510 C   0  0  0  0  0  0  0  0  0  0  0  0
  185.3460  179.7850  143.9430 Cl  0  0  0  0  0  0  0  0  0  0  0  0
  184.0810  178.6660  146.4550 O   0  0  0  0  0  1  0  0  0  0  0  0
  192.6980  173.3390  144.9940 N   0  0  0  0  0  2  0  0  0  0  0  0
  193.3700  173.5600  143.7240 C   0  0  0  0  0  2  0  0  0  0  0  0
  194.6750  174.1540  143.9560 N   0  0  0  0  0  2  0  0  0  0  0  0
  194.8070  175.2710  143.0350 C   0  0  0  0  0  2  0  0  0  0  0  0
  195.3320  176.8240  144.7610 O   0  0  0  0  0  1  0  0  0  0  0  0
  195.6520  176.3280  143.6500 C   0  0  0  0  0  0  0  0  0  0  0  0
  196.7750  176.7960  142.9810 O   0  0  0  0  0  0  0  0  0  0  0  0
  1  3  1  0  0  0  0
  2  9  1  6  0  0  0
  2  4  1  0  0  0  0
  3  8  2  0  0  0  0
  3  2  1  0  0  0  0
  4  5  2  0  0  0  0
  7  4  1  0  0  0  0
  7  6  2  0  0  0  0
  8  7  1  0  0  0  0
  9 16  1  0  0  0  0
 10  9  2  0  0  0  0
 11 18  1  0  0  0  0
 11 13  1  0  0  0  0
 12 13  2  0  0  0  0
 14 15  1  0  0  0  0
 14 16  2  0  0  0  0
 15 11  2  0  0  0  0
 16 12  1  0  0  0  0
 17 15  1  0  0  0  0
 19  8  1  0  0  0  0
 20 21  1  0  0  0  0
 20 19  1  0  0  0  0
 22 24  1  0  0  0  0
 22 21  1  0  0  0  0
 24 23  1  0  0  0  0
 25 24  2  0  0  0  0
M  END
>  <MODEL>
7

>  <REMARK>
 VINA RESULT:      -6.1      1.703      2.121
  Name = 
  7 active torsions:
  status: ('A' for Active; 'I' for Inactive)
    1  A    between atoms: N_1  and  C_19
    2  A    between atoms: N_1  and  C_25
    3  A    between atoms: N_4  and  C_19
    4  A    between atoms: N_4  and  C_20
    5  A    between atoms: C_5  and  C_10
    6  A    between atoms: C_10  and  C_17
    7  A    between atoms: C_20  and  C_22
                            x       y       z     vdW  Elec       q    Type
                         _______ _______ _______ _____ _____    ______ ____

>  <TORSDO>
F 7

$$$$
=
 OpenBabel11042413513D

 25 26  0  0  1  0  0  0  0  0999 V2000
  189.7000  174.0310  145.7310 C   0  0  0  0  0  1  0  0  0  0  0  0
  189.7770  176.4240  144.6050 C   0  0  1  0  0  3  0  0  0  0  0  0
  190.3510  175.0490  144.8570 C   0  0  0  0  0  0  0  0  0  0  0  0
  190.8280  177.0280  143.7290 C   0  0  0  0  0  0  0  0  0  0  0  0
  190.8090  178.2010  143.2710 O   0  0  0  0  0  0  0  0  0  0  0  0
  192.9190  176.2440  142.8200 O   0  0  0  0  0  0  0  0  0  0  0  0
  191.8820  176.0650  143.5100 C   0  0  0  0  0  0  0  0  0  0  0  0
  191.5200  174.8640  144.2420 C   0  0  0  0  0  0  0  0  0  0  0  0
  188.4560  176.3400  143.8880 C   0  0  0  0  0  0  0  0  0  0  0  0
  188.3830  175.7400  142.7800 O   0  0  0  0  0  0  0  0  0  0  0  0
  184.9400  178.1080  145.5830 C   0  0  0  0  0  0  0  0  0  0  0  0
  186.1710  177.3140  143.6530 C   0  0  0  0  0  3  0  0  0  0  0  0
  185.0230  177.8900  144.2040 C   0  0  0  0  0  3  0  0  0  0  0  0
  187.1560  177.1700  145.8570 C   0  0  0  0  0  3  0  0  0  0  0  0
  186.0100  177.7470  146.4130 C   0  0  0  0  0  0  0  0  0  0  0  0
  187.2470  176.9490  144.4750 C   0  0  0  0  0  0  0  0  0  0  0  0
  185.9360  178.0070  148.1450 Cl  0  0  0  0  0  0  0  0  0  0  0  0
  183.7930  178.6820  146.1170 O   0  0  0  0  0  1  0  0  0  0  0  0
  192.2840  173.6570  144.3240 N   0  0  0  0  0  2  0  0  0  0  0  0
  193.6320  173.6120  144.8680 C   0  0  0  0  0  2  0  0  0  0  0  0
  193.6750  174.3310  146.1300 N   0  0  0  0  0  2  0  0  0  0  0  0
  194.7550  175.2980  146.0360 C   0  0  0  0  0  2  0  0  0  0  0  0
  193.1590  176.8190  146.9320 O   0  0  0  0  0  1  0  0  0  0  0  0
  194.2250  176.6650  146.2840 C   0  0  0  0  0  0  0  0  0  0  0  0
  194.8870  177.7710  145.7660 O   0  0  0  0  0  0  0  0  0  0  0  0
  2  9  1  6  0  0  0
  2  3  1  0  0  0  0
  3  1  1  0  0  0  0
  4  2  1  0  0  0  0
  5  4  2  0  0  0  0
  6  7  2  0  0  0  0
  7  4  1  0  0  0  0
  7  8  1  0  0  0  0
  8 19  1  0  0  0  0
  8  3  2  0  0  0  0
  9 16  1  0  0  0  0
 10  9  2  0  0  0  0
 11 18  1  0  0  0  0
 11 15  1  0  0  0  0
 12 13  1  0  0  0  0
 12 16  2  0  0  0  0
 13 11  2  0  0  0  0
 14 15  2  0  0  0  0
 15 17  1  0  0  0  0
 16 14  1  0  0  0  0
 19 20  1  0  0  0  0
 20 21  1  0  0  0  0
 22 21  1  0  0  0  0
 22 24  1  0  0  0  0
 24 23  1  0  0  0  0
 25 24  2  0  0  0  0
M  END
>  <MODEL>
8

>  <REMARK>
 VINA RESULT:      -6.1      1.987      2.431
  Name = 
  7 active torsions:
  status: ('A' for Active; 'I' for Inactive)
    1  A    between atoms: N_1  and  C_19
    2  A    between atoms: N_1  and  C_25
    3  A    between atoms: N_4  and  C_19
    4  A    between atoms: N_4  and  C_20
    5  A    between atoms: C_5  and  C_10
    6  A    between atoms: C_10  and  C_17
    7  A    between atoms: C_20  and  C_22
                            x       y       z     vdW  Elec       q    Type
                         _______ _______ _______ _____ _____    ______ ____

>  <TORSDO>
F 7

$$$$
=
 OpenBabel11042413513D

 25 26  0  0  1  0  0  0  0  0999 V2000
  186.1440  177.8540  144.8620 C   0  0  0  0  0  1  0  0  0  0  0  0
  187.7030  176.4300  143.2680 C   0  0  1  0  0  3  0  0  0  0  0  0
  186.5780  177.4110  143.5060 C   0  0  0  0  0  0  0  0  0  0  0  0
  187.6760  176.3060  141.7770 C   0  0  0  0  0  0  0  0  0  0  0  0
  188.4300  175.5630  141.0950 O   0  0  0  0  0  0  0  0  0  0  0  0
  186.3400  177.2900  140.0280 O   0  0  0  0  0  0  0  0  0  0  0  0
  186.6350  177.1530  141.2440 C   0  0  0  0  0  0  0  0  0  0  0  0
  185.9940  177.8040  142.3730 C   0  0  0  0  0  0  0  0  0  0  0  0
  189.0190  176.9850  143.7430 C   0  0  0  0  0  0  0  0  0  0  0  0
  189.5750  177.9170  143.0970 O   0  0  0  0  0  0  0  0  0  0  0  0
  190.8700  175.4290  147.2800 C   0  0  0  0  0  0  0  0  0  0  0  0
  188.9410  175.6160  145.8270 C   0  0  0  0  0  3  0  0  0  0  0  0
  189.5430  175.1070  146.9810 C   0  0  0  0  0  3  0  0  0  0  0  0
  190.9910  176.7700  145.2670 C   0  0  0  0  0  3  0  0  0  0  0  0
  191.5970  176.2650  146.4210 C   0  0  0  0  0  0  0  0  0  0  0  0
  189.6600  176.4510  144.9600 C   0  0  0  0  0  0  0  0  0  0  0  0
  193.2630  176.6870  146.7690 Cl  0  0  0  0  0  0  0  0  0  0  0  0
  191.4560  174.9170  148.4310 O   0  0  0  0  0  1  0  0  0  0  0  0
  184.8960  178.7190  142.3140 N   0  0  0  0  0  2  0  0  0  0  0  0
  183.5240  178.2900  142.0950 C   0  0  0  0  0  2  0  0  0  0  0  0
  183.1010  178.6640  140.7560 N   0  0  0  0  0  2  0  0  0  0  0  0
  181.8330  178.0000  140.5060 C   0  0  0  0  0  2  0  0  0  0  0  0
  179.9740  178.3780  141.9440 O   0  0  0  0  0  1  0  0  0  0  0  0
  180.7210  178.8310  141.0390 C   0  0  0  0  0  0  0  0  0  0  0  0
  180.4820  180.0920  140.5100 O   0  0  0  0  0  0  0  0  0  0  0  0
  2  3  1  0  0  0  0
  2  9  1  6  0  0  0
  3  1  1  0  0  0  0
  4  2  1  0  0  0  0
  5  4  2  0  0  0  0
  6  7  2  0  0  0  0
  7  4  1  0  0  0  0
  7  8  1  0  0  0  0
  8  3  2  0  0  0  0
  9 16  1  0  0  0  0
 10  9  2  0  0  0  0
 11 18  1  0  0  0  0
 12 13  2  0  0  0  0
 13 11  1  0  0  0  0
 14 15  1  0  0  0  0
 15 17  1  0  0  0  0
 15 11  2  0  0  0  0
 16 14  2  0  0  0  0
 16 12  1  0  0  0  0
 19  8  1  0  0  0  0
 20 19  1  0  0  0  0
 21 20  1  0  0  0  0
 22 21  1  0  0  0  0
 22 24  1  0  0  0  0
 24 23  1  0  0  0  0
 25 24  2  0  0  0  0
M  END
>  <MODEL>
9

>  <REMARK>
 VINA RESULT:      -6.0      4.973      9.030
  Name = 
  7 active torsions:
  status: ('A' for Active; 'I' for Inactive)
    1  A    between atoms: N_1  and  C_19
    2  A    between atoms: N_1  and  C_25
    3  A    between atoms: N_4  and  C_19
    4  A    between atoms: N_4  and  C_20
    5  A    between atoms: C_5  and  C_10
    6  A    between atoms: C_10  and  C_17
    7  A    between atoms: C_20  and  C_22
                            x       y       z     vdW  Elec       q    Type
                         _______ _______ _______ _____ _____    ______ ____

>  <TORSDO>
F 7

$$$$
