=
 OpenBabel11042416573D

 35 39  0  0  1  0  0  0  0  0999 V2000
  188.4970  174.2110  141.4480 S   0  0  0  0  0  0  0  0  0  0  0  0
  195.0090  176.8260  144.7500 O   0  0  0  0  0  0  0  0  0  0  0  0
  190.3670  175.6200  142.8400 N   0  0  0  0  0  0  0  0  0  0  0  0
  192.2630  172.1620  142.7960 C   0  0  0  0  0  3  0  0  0  0  0  0
  191.2240  172.2960  141.7490 C   0  0  0  0  0  0  0  0  0  0  0  0
  191.0770  173.5320  141.0370 N   0  0  0  0  0  2  0  0  0  0  0  0
  190.4540  177.9790  143.0730 C   0  0  0  0  0  2  0  0  0  0  0  0
  193.1650  175.5970  143.9120 C   0  0  0  0  0  0  0  0  0  0  0  0
  188.6930  176.9760  141.8340 C   0  0  0  0  0  0  0  0  0  0  0  0
  194.4450  175.7050  144.6300 C   0  0  0  0  0  0  0  0  0  0  0  0
  193.0150  174.5340  142.8550 C   0  0  0  0  0  2  0  0  0  0  0  0
  189.3100  178.0790  142.3440 N   0  0  0  0  0  0  0  0  0  0  0  0
  192.2880  176.6070  144.0250 C   0  0  0  0  0  3  0  0  0  0  0  0
  194.3060  173.3460  145.4700 C   0  0  0  0  0  2  0  0  0  0  0  0
  189.8770  173.9050  140.2920 C   0  0  0  0  0  2  0  0  0  0  0  0
  193.0520  173.1020  143.3330 C   0  0  0  0  0  0  0  0  0  0  0  0
  195.0620  174.5540  145.1960 N   0  0  0  0  0  2  0  0  0  0  0  0
  191.0080  176.7200  143.3090 C   0  0  0  0  0  0  0  0  0  0  0  0
  189.2330  175.7110  142.0990 C   0  0  1  0  0  3  0  0  0  0  0  0
  190.4170  171.2680  141.4300 C   0  0  0  0  0  3  0  0  0  0  0  0
  193.9900  172.6570  144.2690 O   0  0  0  0  0  0  0  0  0  0  0  0
  190.3910  169.9840  142.0000 O   0  0  0  0  0  0  0  0  0  0  0  0
  191.1400  168.8660  141.5490 C   0  0  0  0  0  1  0  0  0  0  0  0
  187.5010  177.1070  141.0520 N   0  0  0  0  0  2  0  0  0  0  0  0
  186.1740  177.2050  141.6430 C   0  0  0  0  0  2  0  0  0  0  0  0
  186.0240  178.5290  142.3650 C   0  0  0  0  0  2  0  0  0  0  0  0
  185.2140  178.3410  143.5560 N   0  0  0  0  0  2  0  0  0  0  0  0
  185.6380  179.1220  147.2050 C   0  0  0  0  0  2  0  0  0  0  0  0
  185.9710  178.8830  144.6720 C   0  0  1  0  0  3  0  0  0  0  0  0
  187.5440  176.3830  146.9760 C   0  0  0  0  0  1  0  0  0  0  0  0
  184.5940  178.1240  146.7270 C   0  0  1  0  0  3  0  0  0  0  0  0
  186.6110  176.6840  145.8200 C   0  0  2  0  0  3  0  0  0  0  0  0
  185.0190  179.2800  145.8190 C   0  0  1  0  0  3  0  0  0  0  0  0
  187.0980  177.9240  145.0700 C   0  0  0  0  0  2  0  0  0  0  0  0
  185.1550  176.7470  146.3110 C   0  0  0  0  0  2  0  0  0  0  0  0
  3 18  2  0  0  0  0
  4 16  2  0  0  0  0
  5  4  1  0  0  0  0
  6  5  1  0  0  0  0
  7 18  1  0  0  0  0
  8 13  2  0  0  0  0
  8 10  1  0  0  0  0
  9 19  1  0  0  0  0
  9 12  2  0  0  0  0
 10  2  2  0  0  0  0
 10 17  1  0  0  0  0
 11 16  1  0  0  0  0
 11  8  1  0  0  0  0
 12  7  1  0  0  0  0
 15  6  1  0  0  0  0
 15  1  1  0  0  0  0
 16 21  1  0  0  0  0
 17 14  1  0  0  0  0
 18 13  1  0  0  0  0
 19  1  1  6  0  0  0
 19  3  1  0  0  0  0
 20  5  2  0  0  0  0
 20 22  1  0  0  0  0
 21 14  1  0  0  0  0
 23 22  1  0  0  0  0
 24 25  1  0  0  0  0
 24  9  1  0  0  0  0
 25 26  1  0  0  0  0
 26 27  1  0  0  0  0
 29 27  1  6  0  0  0
 29 34  1  0  0  0  0
 29 33  1  0  0  0  0
 31 35  1  6  0  0  0
 31 28  1  0  0  0  0
 32 35  1  0  0  0  0
 32 30  1  1  0  0  0
 33 31  1  0  0  0  0
 33 28  1  1  0  0  0
 34 32  1  0  0  0  0
M  END
>  <MODEL>
1

>  <REMARK>
 VINA RESULT:      -8.1      0.000      0.000
  Name = 
  6 active torsions:
  status: ('A' for Active; 'I' for Inactive)
    1  A    between atoms: O_1  and  C_33
    2  A    between atoms: C_8  and  N_27
    3  A    between atoms: C_13  and  C_16
    4  A    between atoms: C_13  and  N_31
    5  A    between atoms: C_15  and  N_31
    6  A    between atoms: C_16  and  N_27
                            x       y       z     vdW  Elec       q    Type
                         _______ _______ _______ _____ _____    ______ ____

>  <TORSDO>
F 6

$$$$
=
 OpenBabel11042416573D

 35 39  0  0  1  0  0  0  0  0999 V2000
  189.3990  174.9370  145.9150 S   0  0  0  0  0  0  0  0  0  0  0  0
  186.8940  177.4010  139.0010 O   0  0  0  0  0  0  0  0  0  0  0  0
  188.6610  175.1590  143.3020 N   0  0  0  0  0  0  0  0  0  0  0  0
  186.5260  178.1700  144.6920 C   0  0  0  0  0  3  0  0  0  0  0  0
  187.6500  177.7680  145.5690 C   0  0  0  0  0  0  0  0  0  0  0  0
  188.9220  177.4310  144.9990 N   0  0  0  0  0  2  0  0  0  0  0  0
  189.7050  174.0920  141.4580 C   0  0  0  0  0  2  0  0  0  0  0  0
  187.2650  176.8740  141.2800 C   0  0  0  0  0  0  0  0  0  0  0  0
  190.5120  173.7090  143.6590 C   0  0  0  0  0  0  0  0  0  0  0  0
  186.5000  177.5050  140.1930 C   0  0  0  0  0  0  0  0  0  0  0  0
  187.6020  177.6940  142.4980 C   0  0  0  0  0  2  0  0  0  0  0  0
  190.5650  173.4820  142.3160 N   0  0  0  0  0  0  0  0  0  0  0  0
  187.8630  175.6970  141.0340 C   0  0  0  0  0  3  0  0  0  0  0  0
  184.5760  178.0510  141.7070 C   0  0  0  0  0  2  0  0  0  0  0  0
  189.9500  176.6650  145.6990 C   0  0  0  0  0  2  0  0  0  0  0  0
  186.4400  178.1340  143.3550 C   0  0  0  0  0  0  0  0  0  0  0  0
  185.3100  178.2360  140.4680 N   0  0  0  0  0  2  0  0  0  0  0  0
  188.7430  174.9690  141.9610 C   0  0  0  0  0  0  0  0  0  0  0  0
  189.5250  174.5660  144.1650 C   0  0  1  0  0  3  0  0  0  0  0  0
  187.5120  177.7300  146.9070 C   0  0  0  0  0  3  0  0  0  0  0  0
  185.2620  178.6430  142.8010 O   0  0  0  0  0  0  0  0  0  0  0  0
  186.3620  178.0160  147.6630 O   0  0  0  0  0  0  0  0  0  0  0  0
  185.8920  179.3140  147.9910 C   0  0  0  0  0  1  0  0  0  0  0  0
  191.4420  173.0710  144.5420 N   0  0  0  0  0  2  0  0  0  0  0  0
  192.2190  171.9020  144.1600 C   0  0  0  0  0  2  0  0  0  0  0  0
  193.6750  172.1010  144.5320 C   0  0  0  0  0  2  0  0  0  0  0  0
  193.7810  173.1610  145.5190 N   0  0  0  0  0  2  0  0  0  0  0  0
  195.6180  175.6000  143.3330 C   0  0  0  0  0  2  0  0  0  0  0  0
  194.9580  173.9420  145.1770 C   0  0  1  0  0  3  0  0  0  0  0  0
  194.7590  177.6200  145.8560 C   0  0  0  0  0  1  0  0  0  0  0  0
  194.1040  175.4630  143.2650 C   0  0  1  0  0  3  0  0  0  0  0  0
  194.0740  176.2710  145.7770 C   0  0  2  0  0  3  0  0  0  0  0  0
  194.9630  174.2620  143.6670 C   0  0  1  0  0  3  0  0  0  0  0  0
  195.0760  175.1610  146.0970 C   0  0  0  0  0  2  0  0  0  0  0  0
  193.3400  176.1210  144.4340 C   0  0  0  0  0  2  0  0  0  0  0  0
  2 10  2  0  0  0  0
  4  5  1  0  0  0  0
  5 20  2  0  0  0  0
  6  5  1  0  0  0  0
  6 15  1  0  0  0  0
  7 18  1  0  0  0  0
  7 12  1  0  0  0  0
  8 11  1  0  0  0  0
  9 19  1  0  0  0  0
  9 24  1  0  0  0  0
 10 17  1  0  0  0  0
 10  8  1  0  0  0  0
 11 16  1  0  0  0  0
 12  9  2  0  0  0  0
 13  8  2  0  0  0  0
 13 18  1  0  0  0  0
 14 21  1  0  0  0  0
 15  1  1  0  0  0  0
 16  4  2  0  0  0  0
 17 14  1  0  0  0  0
 18  3  2  0  0  0  0
 19  3  1  6  0  0  0
 19  1  1  0  0  0  0
 20 22  1  0  0  0  0
 21 16  1  0  0  0  0
 22 23  1  0  0  0  0
 25 26  1  0  0  0  0
 25 24  1  0  0  0  0
 26 27  1  0  0  0  0
 29 27  1  1  0  0  0
 29 34  1  0  0  0  0
 31 28  1  1  0  0  0
 31 33  1  0  0  0  0
 31 35  1  0  0  0  0
 32 30  1  6  0  0  0
 32 34  1  0  0  0  0
 33 28  1  1  0  0  0
 33 29  1  0  0  0  0
 35 32  1  0  0  0  0
M  END
>  <MODEL>
2

>  <REMARK>
 VINA RESULT:      -8.1      3.383      8.389
  Name = 
  6 active torsions:
  status: ('A' for Active; 'I' for Inactive)
    1  A    between atoms: O_1  and  C_33
    2  A    between atoms: C_8  and  N_27
    3  A    between atoms: C_13  and  C_16
    4  A    between atoms: C_13  and  N_31
    5  A    between atoms: C_15  and  N_31
    6  A    between atoms: C_16  and  N_27
                            x       y       z     vdW  Elec       q    Type
                         _______ _______ _______ _____ _____    ______ ____

>  <TORSDO>
F 6

$$$$
=
 OpenBabel11042416573D

 35 39  0  0  1  0  0  0  0  0999 V2000
  189.8260  173.7120  144.4200 S   0  0  0  0  0  0  0  0  0  0  0  0
  196.7060  177.1590  143.4540 O   0  0  0  0  0  0  0  0  0  0  0  0
  192.3090  174.7860  144.7480 N   0  0  0  0  0  0  0  0  0  0  0  0
  192.5310  174.1690  140.8590 C   0  0  0  0  0  3  0  0  0  0  0  0
  191.1480  174.2130  141.3870 C   0  0  0  0  0  0  0  0  0  0  0  0
  190.7860  175.1890  142.3750 N   0  0  0  0  0  2  0  0  0  0  0  0
  193.0900  175.9400  146.6680 C   0  0  0  0  0  2  0  0  0  0  0  0
  194.7220  175.8710  143.3420 C   0  0  0  0  0  0  0  0  0  0  0  0
  190.8860  175.0550  146.6350 C   0  0  0  0  0  0  0  0  0  0  0  0
  196.0350  176.2950  142.8300 C   0  0  0  0  0  0  0  0  0  0  0  0
  193.5500  175.8410  142.3950 C   0  0  0  0  0  2  0  0  0  0  0  0
  191.8940  175.7150  147.2730 N   0  0  0  0  0  0  0  0  0  0  0  0
  194.5560  175.7930  144.6720 C   0  0  0  0  0  3  0  0  0  0  0  0
  196.0760  174.4790  141.1000 C   0  0  0  0  0  2  0  0  0  0  0  0
  189.6080  175.0820  143.2320 C   0  0  0  0  0  2  0  0  0  0  0  0
  193.6180  174.8330  141.2740 C   0  0  0  0  0  0  0  0  0  0  0  0
  196.5630  175.7400  141.6300 N   0  0  0  0  0  2  0  0  0  0  0  0
  193.2960  175.4830  145.3650 C   0  0  0  0  0  0  0  0  0  0  0  0
  191.1050  174.5700  145.3390 C   0  0  1  0  0  3  0  0  0  0  0  0
  190.2030  173.3640  140.9440 C   0  0  0  0  0  3  0  0  0  0  0  0
  194.7840  174.6280  140.5300 O   0  0  0  0  0  0  0  0  0  0  0  0
  190.3430  172.3400  139.9920 O   0  0  0  0  0  0  0  0  0  0  0  0
  189.5080  172.1450  138.8610 C   0  0  0  0  0  1  0  0  0  0  0  0
  189.6270  174.8490  147.2850 N   0  0  0  0  0  2  0  0  0  0  0  0
  188.4210  175.5750  146.9190 C   0  0  0  0  0  2  0  0  0  0  0  0
  188.7440  177.0390  146.6930 C   0  0  0  0  0  2  0  0  0  0  0  0
  188.0380  177.5150  145.5170 N   0  0  0  0  0  2  0  0  0  0  0  0
  184.3960  178.1340  146.1910 C   0  0  0  0  0  2  0  0  0  0  0  0
  186.6620  177.0640  145.6380 C   0  0  1  0  0  3  0  0  0  0  0  0
  184.3530  178.0240  142.8490 C   0  0  0  0  0  1  0  0  0  0  0  0
  185.3490  179.2810  145.8870 C   0  0  1  0  0  3  0  0  0  0  0  0
  185.7020  178.1530  143.5270 C   0  0  2  0  0  3  0  0  0  0  0  0
  185.8710  178.0120  146.5640 C   0  0  1  0  0  3  0  0  0  0  0  0
  186.0450  176.8510  144.2520 C   0  0  0  0  0  2  0  0  0  0  0  0
  185.7430  179.4180  144.4000 C   0  0  0  0  0  2  0  0  0  0  0  0
  3 19  1  0  0  0  0
  3 18  2  0  0  0  0
  4 16  2  0  0  0  0
  4  5  1  0  0  0  0
  5  6  1  0  0  0  0
  6 15  1  0  0  0  0
  7 12  1  0  0  0  0
  8 13  2  0  0  0  0
  9 12  2  0  0  0  0
  9 24  1  0  0  0  0
 10  8  1  0  0  0  0
 10  2  2  0  0  0  0
 11  8  1  0  0  0  0
 13 18  1  0  0  0  0
 14 17  1  0  0  0  0
 15  1  1  0  0  0  0
 16 11  1  0  0  0  0
 17 10  1  0  0  0  0
 18  7  1  0  0  0  0
 19  1  1  6  0  0  0
 19  9  1  0  0  0  0
 20  5  2  0  0  0  0
 21 14  1  0  0  0  0
 21 16  1  0  0  0  0
 22 20  1  0  0  0  0
 23 22  1  0  0  0  0
 25 24  1  0  0  0  0
 26 25  1  0  0  0  0
 27 26  1  0  0  0  0
 29 27  1  6  0  0  0
 29 33  1  0  0  0  0
 31 35  1  6  0  0  0
 31 28  1  0  0  0  0
 31 33  1  0  0  0  0
 32 30  1  1  0  0  0
 32 34  1  0  0  0  0
 32 35  1  0  0  0  0
 33 28  1  6  0  0  0
 34 29  1  0  0  0  0
M  END
>  <MODEL>
3

>  <REMARK>
 VINA RESULT:      -8.0      2.378      3.694
  Name = 
  6 active torsions:
  status: ('A' for Active; 'I' for Inactive)
    1  A    between atoms: O_1  and  C_33
    2  A    between atoms: C_8  and  N_27
    3  A    between atoms: C_13  and  C_16
    4  A    between atoms: C_13  and  N_31
    5  A    between atoms: C_15  and  N_31
    6  A    between atoms: C_16  and  N_27
                            x       y       z     vdW  Elec       q    Type
                         _______ _______ _______ _____ _____    ______ ____

>  <TORSDO>
F 6

$$$$
=
 OpenBabel11042416573D

 35 39  0  0  1  0  0  0  0  0999 V2000
  190.3570  176.4510  142.7700 S   0  0  0  0  0  0  0  0  0  0  0  0
  184.8220  178.0260  147.9700 O   0  0  0  0  0  0  0  0  0  0  0  0
  188.9380  177.2690  144.9470 N   0  0  0  0  0  0  0  0  0  0  0  0
  185.9370  177.1670  142.3900 C   0  0  0  0  0  3  0  0  0  0  0  0
  187.1070  176.3560  141.9830 C   0  0  0  0  0  0  0  0  0  0  0  0
  187.8110  175.5730  142.9550 N   0  0  0  0  0  2  0  0  0  0  0  0
  189.6890  177.2440  147.1960 C   0  0  0  0  0  2  0  0  0  0  0  0
  186.1940  177.7220  146.0630 C   0  0  0  0  0  0  0  0  0  0  0  0
  191.1330  176.5110  145.4590 C   0  0  0  0  0  0  0  0  0  0  0  0
  184.9460  178.1390  146.7210 C   0  0  0  0  0  0  0  0  0  0  0  0
  186.1110  176.8310  144.8500 C   0  0  0  0  0  2  0  0  0  0  0  0
  190.8900  176.7670  146.7750 N   0  0  0  0  0  0  0  0  0  0  0  0
  187.3510  177.9170  146.7160 C   0  0  0  0  0  3  0  0  0  0  0  0
  184.0690  179.2180  144.6330 C   0  0  0  0  0  2  0  0  0  0  0  0
  189.1680  175.0650  142.7650 C   0  0  0  0  0  2  0  0  0  0  0  0
  185.4740  177.4290  143.6190 C   0  0  0  0  0  0  0  0  0  0  0  0
  183.8650  178.6720  145.9630 N   0  0  0  0  0  2  0  0  0  0  0  0
  188.6800  177.4810  146.2620 C   0  0  0  0  0  0  0  0  0  0  0  0
  190.1290  176.7800  144.5180 C   0  0  1  0  0  3  0  0  0  0  0  0
  187.5190  176.3180  140.7030 C   0  0  0  0  0  3  0  0  0  0  0  0
  184.2990  178.1850  143.6860 O   0  0  0  0  0  0  0  0  0  0  0  0
  186.9780  177.0050  139.6030 O   0  0  0  0  0  0  0  0  0  0  0  0
  186.6900  176.4350  138.3350 C   0  0  0  0  0  1  0  0  0  0  0  0
  192.3990  175.9900  145.0410 N   0  0  0  0  0  2  0  0  0  0  0  0
  193.6150  176.7890  145.0190 C   0  0  0  0  0  2  0  0  0  0  0  0
  194.5650  176.3190  146.1020 C   0  0  0  0  0  2  0  0  0  0  0  0
  194.6660  174.8710  146.0630 N   0  0  0  0  0  2  0  0  0  0  0  0
  197.5670  172.7330  145.0060 C   0  0  0  0  0  2  0  0  0  0  0  0
  195.7600  174.5480  145.1620 C   0  0  1  0  0  3  0  0  0  0  0  0
  195.2270  171.6120  142.8970 C   0  0  0  0  0  1  0  0  0  0  0  0
  196.5400  172.2300  146.0100 C   0  0  1  0  0  3  0  0  0  0  0  0
  194.7650  172.4540  144.0690 C   0  0  2  0  0  3  0  0  0  0  0  0
  196.8360  173.7280  145.9040 C   0  0  1  0  0  3  0  0  0  0  0  0
  195.2240  173.9010  143.8810 C   0  0  0  0  0  2  0  0  0  0  0  0
  195.1900  171.8020  145.3950 C   0  0  0  0  0  2  0  0  0  0  0  0
  3 18  2  0  0  0  0
  4 16  2  0  0  0  0
  5  4  1  0  0  0  0
  5  6  1  0  0  0  0
  8 13  2  0  0  0  0
  8 10  1  0  0  0  0
  9 12  2  0  0  0  0
 10  2  2  0  0  0  0
 11  8  1  0  0  0  0
 12  7  1  0  0  0  0
 14 17  1  0  0  0  0
 15  1  1  0  0  0  0
 15  6  1  0  0  0  0
 16 21  1  0  0  0  0
 16 11  1  0  0  0  0
 17 10  1  0  0  0  0
 18 13  1  0  0  0  0
 18  7  1  0  0  0  0
 19  1  1  1  0  0  0
 19  3  1  0  0  0  0
 19  9  1  0  0  0  0
 20  5  2  0  0  0  0
 21 14  1  0  0  0  0
 22 20  1  0  0  0  0
 23 22  1  0  0  0  0
 24  9  1  0  0  0  0
 25 24  1  0  0  0  0
 25 26  1  0  0  0  0
 27 26  1  0  0  0  0
 29 33  1  0  0  0  0
 29 27  1  1  0  0  0
 31 28  1  6  0  0  0
 32 30  1  6  0  0  0
 32 35  1  0  0  0  0
 33 28  1  6  0  0  0
 33 31  1  0  0  0  0
 34 32  1  0  0  0  0
 34 29  1  0  0  0  0
 35 31  1  0  0  0  0
M  END
>  <MODEL>
4

>  <REMARK>
 VINA RESULT:      -8.0      3.547      8.651
  Name = 
  6 active torsions:
  status: ('A' for Active; 'I' for Inactive)
    1  A    between atoms: O_1  and  C_33
    2  A    between atoms: C_8  and  N_27
    3  A    between atoms: C_13  and  C_16
    4  A    between atoms: C_13  and  N_31
    5  A    between atoms: C_15  and  N_31
    6  A    between atoms: C_16  and  N_27
                            x       y       z     vdW  Elec       q    Type
                         _______ _______ _______ _____ _____    ______ ____

>  <TORSDO>
F 6

$$$$
=
 OpenBabel11042416573D

 35 39  0  0  1  0  0  0  0  0999 V2000
  190.3020  176.5130  142.7570 S   0  0  0  0  0  0  0  0  0  0  0  0
  184.7740  178.0040  147.9890 O   0  0  0  0  0  0  0  0  0  0  0  0
  188.8850  177.2970  144.9490 N   0  0  0  0  0  0  0  0  0  0  0  0
  185.8810  177.2340  142.3950 C   0  0  0  0  0  3  0  0  0  0  0  0
  187.0500  176.4290  141.9730 C   0  0  0  0  0  0  0  0  0  0  0  0
  187.7570  175.6310  142.9320 N   0  0  0  0  0  2  0  0  0  0  0  0
  189.6390  177.2360  147.1970 C   0  0  0  0  0  2  0  0  0  0  0  0
  186.1430  177.7300  146.0750 C   0  0  0  0  0  0  0  0  0  0  0  0
  191.0810  176.5310  145.4460 C   0  0  0  0  0  0  0  0  0  0  0  0
  184.8950  178.1360  146.7420 C   0  0  0  0  0  0  0  0  0  0  0  0
  186.0580  176.8590  144.8490 C   0  0  0  0  0  2  0  0  0  0  0  0
  190.8410  176.7660  146.7660 N   0  0  0  0  0  0  0  0  0  0  0  0
  187.3000  177.9160  146.7300 C   0  0  0  0  0  3  0  0  0  0  0  0
  184.0160  179.2490  144.6730 C   0  0  0  0  0  2  0  0  0  0  0  0
  189.1130  175.1270  142.7320 C   0  0  0  0  0  2  0  0  0  0  0  0
  185.4190  177.4770  143.6290 C   0  0  0  0  0  0  0  0  0  0  0  0
  183.8140  178.6810  145.9940 N   0  0  0  0  0  2  0  0  0  0  0  0
  188.6290  177.4870  146.2670 C   0  0  0  0  0  0  0  0  0  0  0  0
  190.0760  176.8140  144.5110 C   0  0  1  0  0  3  0  0  0  0  0  0
  187.4610  176.4120  140.6920 C   0  0  0  0  0  3  0  0  0  0  0  0
  184.2450  178.2310  143.7090 O   0  0  0  0  0  0  0  0  0  0  0  0
  186.9190  177.1160  139.6040 O   0  0  0  0  0  0  0  0  0  0  0  0
  186.5150  176.5430  138.3690 C   0  0  0  0  0  1  0  0  0  0  0  0
  192.3470  176.0170  145.0180 N   0  0  0  0  0  2  0  0  0  0  0  0
  193.5440  176.8390  144.9250 C   0  0  0  0  0  2  0  0  0  0  0  0
  194.6970  176.0190  144.3820 C   0  0  0  0  0  2  0  0  0  0  0  0
  194.5960  174.6570  144.8750 N   0  0  0  0  0  2  0  0  0  0  0  0
  197.9410  173.4390  143.6790 C   0  0  0  0  0  2  0  0  0  0  0  0
  195.4280  173.8330  144.0130 C   0  0  1  0  0  3  0  0  0  0  0  0
  197.0540  170.8680  145.6260 C   0  0  0  0  0  1  0  0  0  0  0  0
  197.7950  174.1650  145.0070 C   0  0  1  0  0  3  0  0  0  0  0  0
  196.2610  172.1530  145.7600 C   0  0  2  0  0  3  0  0  0  0  0  0
  196.8270  174.4660  143.8610 C   0  0  1  0  0  3  0  0  0  0  0  0
  195.4260  172.3800  144.4990 C   0  0  0  0  0  2  0  0  0  0  0  0
  197.1890  173.3160  146.1460 C   0  0  0  0  0  2  0  0  0  0  0  0
  3 18  2  0  0  0  0
  4 16  2  0  0  0  0
  5  4  1  0  0  0  0
  5  6  1  0  0  0  0
  8 13  2  0  0  0  0
  8 10  1  0  0  0  0
  9 12  2  0  0  0  0
 10  2  2  0  0  0  0
 11  8  1  0  0  0  0
 12  7  1  0  0  0  0
 14 17  1  0  0  0  0
 15  1  1  0  0  0  0
 15  6  1  0  0  0  0
 16 21  1  0  0  0  0
 16 11  1  0  0  0  0
 17 10  1  0  0  0  0
 18 13  1  0  0  0  0
 18  7  1  0  0  0  0
 19  1  1  1  0  0  0
 19  3  1  0  0  0  0
 19  9  1  0  0  0  0
 20  5  2  0  0  0  0
 21 14  1  0  0  0  0
 22 20  1  0  0  0  0
 23 22  1  0  0  0  0
 24  9  1  0  0  0  0
 25 24  1  0  0  0  0
 26 27  1  0  0  0  0
 26 25  1  0  0  0  0
 29 34  1  0  0  0  0
 29 27  1  1  0  0  0
 31 28  1  6  0  0  0
 31 35  1  0  0  0  0
 32 30  1  6  0  0  0
 32 35  1  0  0  0  0
 33 28  1  6  0  0  0
 33 29  1  0  0  0  0
 33 31  1  0  0  0  0
 34 32  1  0  0  0  0
M  END
>  <MODEL>
5

>  <REMARK>
 VINA RESULT:      -8.0      3.656      8.853
  Name = 
  6 active torsions:
  status: ('A' for Active; 'I' for Inactive)
    1  A    between atoms: O_1  and  C_33
    2  A    between atoms: C_8  and  N_27
    3  A    between atoms: C_13  and  C_16
    4  A    between atoms: C_13  and  N_31
    5  A    between atoms: C_15  and  N_31
    6  A    between atoms: C_16  and  N_27
                            x       y       z     vdW  Elec       q    Type
                         _______ _______ _______ _____ _____    ______ ____

>  <TORSDO>
F 6

$$$$
=
 OpenBabel11042416573D

 35 39  0  0  1  0  0  0  0  0999 V2000
  190.4180  176.2330  142.7520 S   0  0  0  0  0  0  0  0  0  0  0  0
  185.0270  178.0170  148.0340 O   0  0  0  0  0  0  0  0  0  0  0  0
  189.0650  177.0990  144.9520 N   0  0  0  0  0  0  0  0  0  0  0  0
  186.0290  177.1490  142.4350 C   0  0  0  0  0  3  0  0  0  0  0  0
  187.1570  176.2890  142.0070 C   0  0  0  0  0  0  0  0  0  0  0  0
  187.8380  175.4680  142.9650 N   0  0  0  0  0  2  0  0  0  0  0  0
  189.8430  177.0240  147.1920 C   0  0  0  0  0  2  0  0  0  0  0  0
  186.3590  177.6650  146.1070 C   0  0  0  0  0  0  0  0  0  0  0  0
  191.2310  176.2400  145.4310 C   0  0  0  0  0  0  0  0  0  0  0  0
  185.1390  178.1330  146.7850 C   0  0  0  0  0  0  0  0  0  0  0  0
  186.2200  176.7880  144.8900 C   0  0  0  0  0  2  0  0  0  0  0  0
  191.0170  176.4970  146.7520 N   0  0  0  0  0  0  0  0  0  0  0  0
  187.5310  177.8050  146.7470 C   0  0  0  0  0  3  0  0  0  0  0  0
  184.2850  179.2650  144.7160 C   0  0  0  0  0  2  0  0  0  0  0  0
  189.1680  174.9020  142.7530 C   0  0  0  0  0  2  0  0  0  0  0  0
  185.5950  177.4230  143.6720 C   0  0  0  0  0  0  0  0  0  0  0  0
  184.0740  178.7190  146.0450 N   0  0  0  0  0  2  0  0  0  0  0  0
  188.8340  177.3120  146.2720 C   0  0  0  0  0  0  0  0  0  0  0  0
  190.2280  176.5590  144.5050 C   0  0  1  0  0  3  0  0  0  0  0  0
  187.5500  176.2420  140.7220 C   0  0  0  0  0  3  0  0  0  0  0  0
  184.4560  178.2300  143.7590 O   0  0  0  0  0  0  0  0  0  0  0  0
  187.0270  176.9600  139.6330 O   0  0  0  0  0  0  0  0  0  0  0  0
  186.7110  176.4160  138.3600 C   0  0  0  0  0  1  0  0  0  0  0  0
  192.4670  175.6660  144.9930 N   0  0  0  0  0  2  0  0  0  0  0  0
  193.4710  175.1550  145.9140 C   0  0  0  0  0  2  0  0  0  0  0  0
  194.8020  175.8360  145.6600 C   0  0  0  0  0  2  0  0  0  0  0  0
  194.8480  176.3120  144.2890 N   0  0  0  0  0  2  0  0  0  0  0  0
  197.9100  174.4540  143.1570 C   0  0  0  0  0  2  0  0  0  0  0  0
  196.2400  176.2660  143.8730 C   0  0  1  0  0  3  0  0  0  0  0  0
  196.8600  175.6750  140.2260 C   0  0  0  0  0  1  0  0  0  0  0  0
  196.5300  173.8150  143.0950 C   0  0  1  0  0  3  0  0  0  0  0  0
  195.8930  175.7270  141.3920 C   0  0  2  0  0  3  0  0  0  0  0  0
  196.8360  174.8720  144.1590 C   0  0  1  0  0  3  0  0  0  0  0  0
  196.3810  176.7450  142.4240 C   0  0  0  0  0  2  0  0  0  0  0  0
  195.6370  174.3140  141.9390 C   0  0  0  0  0  2  0  0  0  0  0  0
  1 15  1  0  0  0  0
  3 18  2  0  0  0  0
  4 16  2  0  0  0  0
  5  4  1  0  0  0  0
  5  6  1  0  0  0  0
  8 13  2  0  0  0  0
  8 10  1  0  0  0  0
  9 12  2  0  0  0  0
 10  2  2  0  0  0  0
 11  8  1  0  0  0  0
 12  7  1  0  0  0  0
 14 17  1  0  0  0  0
 15  6  1  0  0  0  0
 16 21  1  0  0  0  0
 16 11  1  0  0  0  0
 17 10  1  0  0  0  0
 18 13  1  0  0  0  0
 18  7  1  0  0  0  0
 19  1  1  1  0  0  0
 19  3  1  0  0  0  0
 19  9  1  0  0  0  0
 20  5  2  0  0  0  0
 21 14  1  0  0  0  0
 22 20  1  0  0  0  0
 23 22  1  0  0  0  0
 24  9  1  0  0  0  0
 24 25  1  0  0  0  0
 26 25  1  0  0  0  0
 27 26  1  0  0  0  0
 29 33  1  0  0  0  0
 29 27  1  6  0  0  0
 31 35  1  6  0  0  0
 31 28  1  0  0  0  0
 31 33  1  0  0  0  0
 32 30  1  6  0  0  0
 32 35  1  0  0  0  0
 32 34  1  0  0  0  0
 33 28  1  6  0  0  0
 34 29  1  0  0  0  0
M  END
>  <MODEL>
6

>  <REMARK>
 VINA RESULT:      -7.8      3.698      8.701
  Name = 
  6 active torsions:
  status: ('A' for Active; 'I' for Inactive)
    1  A    between atoms: O_1  and  C_33
    2  A    between atoms: C_8  and  N_27
    3  A    between atoms: C_13  and  C_16
    4  A    between atoms: C_13  and  N_31
    5  A    between atoms: C_15  and  N_31
    6  A    between atoms: C_16  and  N_27
                            x       y       z     vdW  Elec       q    Type
                         _______ _______ _______ _____ _____    ______ ____

>  <TORSDO>
F 6

$$$$
=
 OpenBabel11042416573D

 35 39  0  0  1  0  0  0  0  0999 V2000
  191.5740  174.6700  144.2180 S   0  0  0  0  0  0  0  0  0  0  0  0
  184.5940  177.7340  142.7900 O   0  0  0  0  0  0  0  0  0  0  0  0
  189.0530  175.1900  143.3240 N   0  0  0  0  0  0  0  0  0  0  0  0
  188.9000  177.3920  146.5920 C   0  0  0  0  0  3  0  0  0  0  0  0
  190.2740  177.0870  146.1320 C   0  0  0  0  0  0  0  0  0  0  0  0
  190.5900  177.1300  144.7340 N   0  0  0  0  0  2  0  0  0  0  0  0
  188.2090  174.7070  141.1610 C   0  0  0  0  0  2  0  0  0  0  0  0
  186.6220  176.9020  143.6880 C   0  0  0  0  0  0  0  0  0  0  0  0
  190.4420  174.1200  141.7180 C   0  0  0  0  0  0  0  0  0  0  0  0
  185.3020  177.5400  143.8140 C   0  0  0  0  0  0  0  0  0  0  0  0
  187.8050  177.5470  144.3620 C   0  0  0  0  0  2  0  0  0  0  0  0
  189.4060  174.1490  140.8340 N   0  0  0  0  0  0  0  0  0  0  0  0
  186.7740  175.9390  142.7650 C   0  0  0  0  0  3  0  0  0  0  0  0
  185.3430  177.3960  146.3180 C   0  0  0  0  0  2  0  0  0  0  0  0
  191.7600  176.4850  144.1430 C   0  0  0  0  0  2  0  0  0  0  0  0
  187.7860  177.5760  145.8710 C   0  0  0  0  0  0  0  0  0  0  0  0
  184.8080  177.9460  145.0860 N   0  0  0  0  0  2  0  0  0  0  0  0
  188.0350  175.2600  142.4300 C   0  0  0  0  0  0  0  0  0  0  0  0
  190.2560  174.6480  143.0020 C   0  0  1  0  0  3  0  0  0  0  0  0
  191.2520  176.7850  147.0050 C   0  0  0  0  0  3  0  0  0  0  0  0
  186.6360  177.9160  146.5910 O   0  0  0  0  0  0  0  0  0  0  0  0
  191.1580  176.6860  148.4040 O   0  0  0  0  0  0  0  0  0  0  0  0
  191.5660  177.6810  149.3310 C   0  0  0  0  0  1  0  0  0  0  0  0
  191.7000  173.5460  141.3440 N   0  0  0  0  0  2  0  0  0  0  0  0
  192.5970  174.1660  140.3820 C   0  0  0  0  0  2  0  0  0  0  0  0
  193.6690  174.9570  141.1060 C   0  0  0  0  0  2  0  0  0  0  0  0
  194.3760  174.0850  142.0260 N   0  0  0  0  0  2  0  0  0  0  0  0
  196.8240  176.5130  143.5130 C   0  0  0  0  0  2  0  0  0  0  0  0
  195.7170  174.6240  142.1750 C   0  0  1  0  0  3  0  0  0  0  0  0
  197.4800  173.8180  145.3800 C   0  0  0  0  0  1  0  0  0  0  0  0
  195.4530  176.2950  144.1340 C   0  0  1  0  0  3  0  0  0  0  0  0
  196.2120  173.8020  144.5510 C   0  0  2  0  0  3  0  0  0  0  0  0
  195.6500  176.0980  142.6300 C   0  0  1  0  0  3  0  0  0  0  0  0
  196.5650  173.7110  143.0660 C   0  0  0  0  0  2  0  0  0  0  0  0
  195.3060  174.9830  144.9350 C   0  0  0  0  0  2  0  0  0  0  0  0
  2 10  2  0  0  0  0
  5  4  1  0  0  0  0
  5 20  2  0  0  0  0
  6  5  1  0  0  0  0
  7 18  1  0  0  0  0
  8 10  1  0  0  0  0
  8 11  1  0  0  0  0
 10 17  1  0  0  0  0
 11 16  1  0  0  0  0
 12  7  1  0  0  0  0
 12  9  2  0  0  0  0
 13  8  2  0  0  0  0
 14 21  1  0  0  0  0
 15  1  1  0  0  0  0
 15  6  1  0  0  0  0
 16 21  1  0  0  0  0
 16  4  2  0  0  0  0
 17 14  1  0  0  0  0
 18 13  1  0  0  0  0
 18  3  2  0  0  0  0
 19  9  1  6  0  0  0
 19  3  1  0  0  0  0
 19  1  1  0  0  0  0
 20 22  1  0  0  0  0
 22 23  1  0  0  0  0
 24  9  1  0  0  0  0
 25 26  1  0  0  0  0
 25 24  1  0  0  0  0
 26 27  1  0  0  0  0
 29 27  1  1  0  0  0
 29 33  1  0  0  0  0
 29 34  1  0  0  0  0
 31 28  1  1  0  0  0
 31 35  1  0  0  0  0
 32 35  1  0  0  0  0
 32 30  1  1  0  0  0
 33 28  1  1  0  0  0
 33 31  1  0  0  0  0
 34 32  1  0  0  0  0
M  END
>  <MODEL>
7

>  <REMARK>
 VINA RESULT:      -7.7      3.239      8.289
  Name = 
  6 active torsions:
  status: ('A' for Active; 'I' for Inactive)
    1  A    between atoms: O_1  and  C_33
    2  A    between atoms: C_8  and  N_27
    3  A    between atoms: C_13  and  C_16
    4  A    between atoms: C_13  and  N_31
    5  A    between atoms: C_15  and  N_31
    6  A    between atoms: C_16  and  N_27
                            x       y       z     vdW  Elec       q    Type
                         _______ _______ _______ _____ _____    ______ ____

>  <TORSDO>
F 6

$$$$
=
 OpenBabel11042416573D

 35 39  0  0  1  0  0  0  0  0999 V2000
  190.1100  175.9910  143.9760 S   0  0  0  0  0  0  0  0  0  0  0  0
  192.3650  168.7740  142.2510 O   0  0  0  0  0  0  0  0  0  0  0  0
  190.5720  173.5850  142.7850 N   0  0  0  0  0  0  0  0  0  0  0  0
  193.5840  173.4810  145.3280 C   0  0  0  0  0  3  0  0  0  0  0  0
  192.5040  174.4210  145.7070 C   0  0  0  0  0  0  0  0  0  0  0  0
  191.1310  174.0420  145.5400 N   0  0  0  0  0  2  0  0  0  0  0  0
  189.0730  172.4170  141.3650 C   0  0  0  0  0  2  0  0  0  0  0  0
  192.1340  171.0320  142.9280 C   0  0  0  0  0  0  0  0  0  0  0  0
  188.4540  174.5300  142.2570 C   0  0  0  0  0  0  0  0  0  0  0  0
  192.9090  169.7930  142.7540 C   0  0  0  0  0  0  0  0  0  0  0  0
  192.1730  171.7290  144.2630 C   0  0  0  0  0  2  0  0  0  0  0  0
  188.1860  173.4410  141.4830 N   0  0  0  0  0  0  0  0  0  0  0  0
  191.2170  171.3420  141.9970 C   0  0  0  0  0  3  0  0  0  0  0  0
  195.0710  170.9280  143.3290 C   0  0  0  0  0  2  0  0  0  0  0  0
  190.0230  174.9930  145.5030 C   0  0  0  0  0  2  0  0  0  0  0  0
  193.5020  172.3130  144.6780 C   0  0  0  0  0  0  0  0  0  0  0  0
  194.2750  169.7270  143.1480 N   0  0  0  0  0  2  0  0  0  0  0  0
  190.2870  172.4800  142.0510 C   0  0  0  0  0  0  0  0  0  0  0  0
  189.6870  174.6060  142.9190 C   0  0  1  0  0  3  0  0  0  0  0  0
  192.7810  175.6290  146.2300 C   0  0  0  0  0  3  0  0  0  0  0  0
  194.7010  171.6120  144.5170 O   0  0  0  0  0  0  0  0  0  0  0  0
  194.0450  176.1930  146.4730 O   0  0  0  0  0  0  0  0  0  0  0  0
  194.5870  177.3230  145.8050 C   0  0  0  0  0  1  0  0  0  0  0  0
  187.4960  175.5860  142.3820 N   0  0  0  0  0  2  0  0  0  0  0  0
  187.3380  176.6310  141.3820 C   0  0  0  0  0  2  0  0  0  0  0  0
  187.1400  177.9730  142.0600 C   0  0  0  0  0  2  0  0  0  0  0  0
  186.0240  177.8880  142.9840 N   0  0  0  0  0  2  0  0  0  0  0  0
  185.2690  179.3190  146.3730 C   0  0  0  0  0  2  0  0  0  0  0  0
  186.3760  178.6860  144.1460 C   0  0  1  0  0  3  0  0  0  0  0  0
  187.2710  176.7880  147.2490 C   0  0  0  0  0  1  0  0  0  0  0  0
  184.4670  178.1540  145.8120 C   0  0  1  0  0  3  0  0  0  0  0  0
  186.7270  176.7910  145.8350 C   0  0  2  0  0  3  0  0  0  0  0  0
  185.0990  179.1750  144.8630 C   0  0  1  0  0  3  0  0  0  0  0  0
  187.3660  177.9280  145.0360 C   0  0  0  0  0  2  0  0  0  0  0  0
  185.1900  176.7900  145.8540 C   0  0  0  0  0  2  0  0  0  0  0  0
  1 15  1  0  0  0  0
  2 10  2  0  0  0  0
  3 19  1  0  0  0  0
  4  5  1  0  0  0  0
  5 20  2  0  0  0  0
  6  5  1  0  0  0  0
  7 12  1  0  0  0  0
  7 18  1  0  0  0  0
  8 11  1  0  0  0  0
  9 24  1  0  0  0  0
 10  8  1  0  0  0  0
 10 17  1  0  0  0  0
 11 16  1  0  0  0  0
 12  9  2  0  0  0  0
 13 18  1  0  0  0  0
 13  8  2  0  0  0  0
 14 21  1  0  0  0  0
 15  6  1  0  0  0  0
 16  4  2  0  0  0  0
 17 14  1  0  0  0  0
 18  3  2  0  0  0  0
 19  9  1  1  0  0  0
 19  1  1  0  0  0  0
 20 22  1  0  0  0  0
 21 16  1  0  0  0  0
 23 22  1  0  0  0  0
 25 26  1  0  0  0  0
 25 24  1  0  0  0  0
 26 27  1  0  0  0  0
 29 27  1  6  0  0  0
 29 33  1  0  0  0  0
 29 34  1  0  0  0  0
 31 35  1  6  0  0  0
 31 28  1  0  0  0  0
 32 35  1  0  0  0  0
 32 30  1  1  0  0  0
 33 31  1  0  0  0  0
 33 28  1  1  0  0  0
 34 32  1  0  0  0  0
M  END
>  <MODEL>
8

>  <REMARK>
 VINA RESULT:      -7.5      1.988      4.299
  Name = 
  6 active torsions:
  status: ('A' for Active; 'I' for Inactive)
    1  A    between atoms: O_1  and  C_33
    2  A    between atoms: C_8  and  N_27
    3  A    between atoms: C_13  and  C_16
    4  A    between atoms: C_13  and  N_31
    5  A    between atoms: C_15  and  N_31
    6  A    between atoms: C_16  and  N_27
                            x       y       z     vdW  Elec       q    Type
                         _______ _______ _______ _____ _____    ______ ____

>  <TORSDO>
F 6

$$$$
=
 OpenBabel11042416573D

 35 39  0  0  1  0  0  0  0  0999 V2000
  189.4990  175.0870  145.8500 S   0  0  0  0  0  0  0  0  0  0  0  0
  186.6940  177.4260  139.0080 O   0  0  0  0  0  0  0  0  0  0  0  0
  188.6530  175.2630  143.2670 N   0  0  0  0  0  0  0  0  0  0  0  0
  186.5550  178.2810  144.6970 C   0  0  0  0  0  3  0  0  0  0  0  0
  187.7160  177.9000  145.5340 C   0  0  0  0  0  0  0  0  0  0  0  0
  188.9660  177.5630  144.9170 N   0  0  0  0  0  2  0  0  0  0  0  0
  189.6280  174.1740  141.3990 C   0  0  0  0  0  2  0  0  0  0  0  0
  187.1620  176.9370  141.2780 C   0  0  0  0  0  0  0  0  0  0  0  0
  190.5280  173.8310  143.5700 C   0  0  0  0  0  0  0  0  0  0  0  0
  186.3480  177.5450  140.2140 C   0  0  0  0  0  0  0  0  0  0  0  0
  187.5430  177.7780  142.4690 C   0  0  0  0  0  2  0  0  0  0  0  0
  190.5270  173.5830  142.2300 N   0  0  0  0  0  0  0  0  0  0  0  0
  187.7580  175.7600  141.0260 C   0  0  0  0  0  3  0  0  0  0  0  0
  184.4840  178.1030  141.7980 C   0  0  0  0  0  2  0  0  0  0  0  0
  190.0280  176.8150  145.5850 C   0  0  0  0  0  2  0  0  0  0  0  0
  186.4140  178.2240  143.3660 C   0  0  0  0  0  0  0  0  0  0  0  0
  185.1660  178.2730  140.5270 N   0  0  0  0  0  2  0  0  0  0  0  0
  188.6810  175.0530  141.9270 C   0  0  0  0  0  0  0  0  0  0  0  0
  189.5560  174.6890  144.1030 C   0  0  1  0  0  3  0  0  0  0  0  0
  187.6330  177.8820  146.8760 C   0  0  0  0  0  3  0  0  0  0  0  0
  185.2100  178.7160  142.8530 O   0  0  0  0  0  0  0  0  0  0  0  0
  186.5140  178.1720  147.6750 O   0  0  0  0  0  0  0  0  0  0  0  0
  186.2030  179.4410  148.2310 C   0  0  0  0  0  1  0  0  0  0  0  0
  191.4970  173.2140  144.4230 N   0  0  0  0  0  2  0  0  0  0  0  0
  192.9280  173.2720  144.1650 C   0  0  0  0  0  2  0  0  0  0  0  0
  193.3240  174.6760  143.7500 C   0  0  0  0  0  2  0  0  0  0  0  0
  193.9340  174.6360  142.4330 N   0  0  0  0  0  2  0  0  0  0  0  0
  196.9600  176.7480  143.1350 C   0  0  0  0  0  2  0  0  0  0  0  0
  194.7060  175.8590  142.2880 C   0  0  1  0  0  3  0  0  0  0  0  0
  197.7120  175.6670  140.0600 C   0  0  0  0  0  1  0  0  0  0  0  0
  196.9680  175.2480  143.3880 C   0  0  1  0  0  3  0  0  0  0  0  0
  196.5850  174.9660  140.7920 C   0  0  2  0  0  3  0  0  0  0  0  0
  195.6590  176.0330  143.4900 C   0  0  1  0  0  3  0  0  0  0  0  0
  195.3840  175.9040  140.9150 C   0  0  0  0  0  2  0  0  0  0  0  0
  197.0920  174.3770  142.1180 C   0  0  0  0  0  2  0  0  0  0  0  0
  2 10  2  0  0  0  0
  4  5  1  0  0  0  0
  5 20  2  0  0  0  0
  6  5  1  0  0  0  0
  6 15  1  0  0  0  0
  7 18  1  0  0  0  0
  7 12  1  0  0  0  0
  8 11  1  0  0  0  0
  9 19  1  0  0  0  0
  9 24  1  0  0  0  0
 10 17  1  0  0  0  0
 10  8  1  0  0  0  0
 11 16  1  0  0  0  0
 12  9  2  0  0  0  0
 13  8  2  0  0  0  0
 13 18  1  0  0  0  0
 14 21  1  0  0  0  0
 15  1  1  0  0  0  0
 16  4  2  0  0  0  0
 17 14  1  0  0  0  0
 18  3  2  0  0  0  0
 19  3  1  6  0  0  0
 19  1  1  0  0  0  0
 20 22  1  0  0  0  0
 21 16  1  0  0  0  0
 22 23  1  0  0  0  0
 25 24  1  0  0  0  0
 26 25  1  0  0  0  0
 27 26  1  0  0  0  0
 28 31  1  0  0  0  0
 29 27  1  1  0  0  0
 29 33  1  0  0  0  0
 31 35  1  6  0  0  0
 31 33  1  0  0  0  0
 32 30  1  1  0  0  0
 32 34  1  0  0  0  0
 32 35  1  0  0  0  0
 33 28  1  6  0  0  0
 34 29  1  0  0  0  0
M  END
>  <MODEL>
9

>  <REMARK>
 VINA RESULT:      -7.3      3.632      8.919
  Name = 
  6 active torsions:
  status: ('A' for Active; 'I' for Inactive)
    1  A    between atoms: O_1  and  C_33
    2  A    between atoms: C_8  and  N_27
    3  A    between atoms: C_13  and  C_16
    4  A    between atoms: C_13  and  N_31
    5  A    between atoms: C_15  and  N_31
    6  A    between atoms: C_16  and  N_27
                            x       y       z     vdW  Elec       q    Type
                         _______ _______ _______ _____ _____    ______ ____

>  <TORSDO>
F 6

$$$$
