=
 OpenBabel11042414093D

 49 52  0  0  1  0  0  0  0  0999 V2000
  191.2290  177.0970  143.3970 C   0  0  0  0  0  2  0  0  0  0  0  0
  194.3180  174.9530  142.1380 C   0  0  2  0  0  3  0  0  0  0  0  0
  193.3790  175.9020  142.9580 C   0  0  2  0  0  0  0  0  0  0  0  0
  192.3300  174.9060  143.4940 C   0  0  0  0  0  2  0  0  0  0  0  0
  191.8850  175.9870  142.5900 C   0  0  1  0  0  3  0  0  0  0  0  0
  193.9250  176.2610  141.5730 C   0  0  0  0  0  2  0  0  0  0  0  0
  193.6230  173.9130  141.3750 N   0  0  0  0  0  2  0  0  0  0  0  0
  194.5810  173.1750  140.6450 N   0  0  0  0  0  2  0  0  0  0  0  0
  194.3000  171.7520  140.8260 C   0  0  0  0  0  2  0  0  0  0  0  0
  195.0000  169.6360  141.9060 C   0  0  0  0  0  3  0  0  0  0  0  0
  195.4410  171.0210  141.5370 C   0  0  2  0  0  3  0  0  0  0  0  0
  195.6920  171.6500  142.8310 N   0  0  0  0  0  0  0  0  0  0  0  0
  195.4150  170.7960  143.7630 C   0  0  0  0  0  0  0  0  0  0  0  0
  194.9940  169.5060  143.2280 C   0  0  0  0  0  3  0  0  0  0  0  0
  195.5880  171.1360  145.2110 C   0  0  1  0  0  3  0  0  0  0  0  0
  196.2820  169.6480  146.9470 O   0  0  0  0  0  1  0  0  0  0  0  0
  195.2040  169.9730  146.1240 C   0  0  0  0  0  2  0  0  0  0  0  0
  196.9860  171.6870  145.4930 C   0  0  0  0  0  2  0  0  0  0  0  0
  196.9800  173.1550  145.9000 C   0  0  1  0  0  3  0  0  0  0  0  0
  197.8770  173.9350  144.9580 C   0  0  0  0  0  1  0  0  0  0  0  0
  195.5620  173.6900  145.8030 C   0  0  0  0  0  2  0  0  0  0  0  0
  195.5510  175.2080  145.6860 C   0  0  0  0  0  2  0  0  0  0  0  0
  194.4250  175.8160  146.5040 C   0  0  0  0  0  2  0  0  0  0  0  0
  194.3070  177.3160  146.2370 C   0  0  0  0  0  2  0  0  0  0  0  0
  195.3690  177.7460  145.3410 N   0  0  0  0  0  1  0  0  0  0  0  0
  189.9500  176.5830  144.0570 C   0  0  2  0  0  3  0  0  0  0  0  0
  187.8970  176.1610  142.6010 C   0  0  0  0  0  0  0  0  0  0  0  0
  186.8950  176.6310  141.9250 N   0  0  0  0  0  0  0  0  0  0  0  0
  188.7660  177.0420  143.3260 N   0  0  0  0  0  2  0  0  0  0  0  0
  188.1550  174.7500  142.5890 N   0  0  0  0  0  2  0  0  0  0  0  0
  186.5280  178.0410  141.8910 C   0  0  0  0  0  2  0  0  0  0  0  0
  184.6510  178.4770  140.3080 O   0  0  0  0  0  1  0  0  0  0  0  0
  184.1870  178.0990  142.5770 C   0  0  0  0  0  2  0  0  0  0  0  0
  185.0750  178.1940  141.5970 C   0  0  0  0  0  0  0  0  0  0  0  0
  187.5160  173.8360  141.6540 C   0  0  0  0  0  2  0  0  0  0  0  0
  188.4310  172.6520  141.4020 C   0  0  0  0  0  2  0  0  0  0  0  0
  189.5130  172.6550  142.3720 N   0  0  0  0  0  2  0  0  0  0  0  0
  190.7120  172.1850  141.6840 C   0  0  0  0  0  2  0  0  0  0  0  0
  191.0490  171.8320  139.2370 C   0  0  0  0  0  1  0  0  0  0  0  0
  190.3360  171.3290  140.4760 C   0  0  1  0  0  3  0  0  0  0  0  0
  190.7150  170.0040  140.7120 O   0  0  0  0  0  1  0  0  0  0  0  0
  189.9080  176.9470  145.4860 N   0  0  0  0  0  2  0  0  0  0  0  0
  189.0960  176.0650  146.3300 C   0  0  2  0  0  0  0  0  0  0  0  0
  191.2570  175.3360  147.4870 C   0  0  0  0  0  1  0  0  0  0  0  0
  189.7500  175.1950  147.4040 C   0  0  2  0  0  3  0  0  0  0  0  0
  189.3970  174.6070  146.0450 C   0  0  0  0  0  2  0  0  0  0  0  0
  187.5940  176.3040  146.3920 C   0  0  0  0  0  2  0  0  0  0  0  0
  186.7130  177.9930  147.4790 C   0  0  0  0  0  1  0  0  0  0  0  0
  187.3180  177.6620  146.2740 O   0  0  0  0  0  0  0  0  0  0  0  0
  2  7  1  6  0  0  0
  2  3  1  0  0  0  0
  3  6  1  1  0  0  0
  3  4  1  0  0  0  0
  5  3  1  0  0  0  0
  5  1  1  1  0  0  0
  5  4  1  0  0  0  0
  6  2  1  0  0  0  0
  8  9  1  0  0  0  0
  8  7  1  0  0  0  0
 10 14  2  0  0  0  0
 11  9  1  1  0  0  0
 11 10  1  0  0  0  0
 11 12  1  0  0  0  0
 12 13  2  0  0  0  0
 13 15  1  0  0  0  0
 14 13  1  0  0  0  0
 15 18  1  6  0  0  0
 15 17  1  0  0  0  0
 17 16  1  0  0  0  0
 18 19  1  0  0  0  0
 19 20  1  6  0  0  0
 21 19  1  0  0  0  0
 22 21  1  0  0  0  0
 22 23  1  0  0  0  0
 24 23  1  0  0  0  0
 25 24  1  0  0  0  0
 26  1  1  6  0  0  0
 26 42  1  0  0  0  0
 27 29  1  0  0  0  0
 28 27  2  0  0  0  0
 29 26  1  0  0  0  0
 30 27  1  0  0  0  0
 31 28  1  0  0  0  0
 32 34  1  0  0  0  0
 34 31  1  0  0  0  0
 34 33  2  0  0  0  0
 35 30  1  0  0  0  0
 36 35  1  0  0  0  0
 36 37  1  0  0  0  0
 38 37  1  0  0  0  0
 40 39  1  6  0  0  0
 40 41  1  0  0  0  0
 40 38  1  0  0  0  0
 42 43  1  0  0  0  0
 43 47  1  1  0  0  0
 43 45  1  0  0  0  0
 45 44  1  6  0  0  0
 46 43  1  0  0  0  0
 46 45  1  0  0  0  0
 49 47  1  0  0  0  0
 49 48  1  0  0  0  0
M  END
>  <MODEL>
1

>  <REMARK>
 VINA RESULT:      -5.1      0.000      0.000
  Name = 
  26 active torsions:
  status: ('A' for Active; 'I' for Inactive)
    1  A    between atoms: C_1  and  N_12
    2  A    between atoms: C_3  and  C_4
    3  A    between atoms: C_3  and  N_32
    4  A    between atoms: C_4  and  N_49
    5  A    between atoms: C_7  and  C_17
    6  A    between atoms: C_7  and  C_24
    7  A    between atoms: C_8  and  N_10
    8  A    between atoms: C_8  and  C_23
    9  A    between atoms: N_10  and  C_44
   10  A    between atoms: C_11  and  C_39
   11  A    between atoms: N_12  and  N_15
   12  A    between atoms: C_14  and  C_37
   13  A    between atoms: N_15  and  C_37
   14  A    between atoms: C_17  and  C_39
   15  A    between atoms: C_19  and  C_46
   16  A    between atoms: C_20  and  C_28
   17  A    between atoms: C_20  and  C_44
   18  A    between atoms: C_23  and  O_35
   19  A    between atoms: C_24  and  C_36
   20  A    between atoms: C_29  and  C_31
   21  A    between atoms: C_29  and  C_36
   22  A    between atoms: C_29  and  C_47
   23  A    between atoms: N_32  and  C_46
   24  A    between atoms: N_38  and  C_43
   25  A    between atoms: C_42  and  C_43
   26  A    between atoms: C_44  and  N_48
                            x       y       z     vdW  Elec       q    Type
                         _______ _______ _______ _____ _____    ______ ____

>  <TORSDO>
F 26

$$$$
=
 OpenBabel11042414093D

 49 52  0  0  1  0  0  0  0  0999 V2000
  188.3380  174.5980  142.6170 C   0  0  0  0  0  2  0  0  0  0  0  0
  190.2110  171.2960  141.4670 C   0  0  2  0  0  3  0  0  0  0  0  0
  189.3410  172.3390  142.2490 C   0  0  2  0  0  0  0  0  0  0  0  0
  188.1670  172.5530  141.2710 C   0  0  0  0  0  2  0  0  0  0  0  0
  189.0340  173.7030  141.6020 C   0  0  1  0  0  3  0  0  0  0  0  0
  190.8660  172.4320  142.1490 C   0  0  0  0  0  2  0  0  0  0  0  0
  190.3020  171.5350  140.0240 N   0  0  0  0  0  2  0  0  0  0  0  0
  191.6520  171.3960  139.6300 N   0  0  0  0  0  2  0  0  0  0  0  0
  191.8940  172.2910  138.5010 C   0  0  0  0  0  2  0  0  0  0  0  0
  192.7860  174.4960  137.8060 C   0  0  0  0  0  3  0  0  0  0  0  0
  192.1980  173.7220  138.9490 C   0  0  2  0  0  3  0  0  0  0  0  0
  193.2780  173.7060  139.9340 N   0  0  0  0  0  0  0  0  0  0  0  0
  194.2990  174.3240  139.4320 C   0  0  0  0  0  0  0  0  0  0  0  0
  194.0280  174.8560  138.1020 C   0  0  0  0  0  3  0  0  0  0  0  0
  195.5670  174.4940  140.2100 C   0  0  1  0  0  3  0  0  0  0  0  0
  197.6080  175.7360  140.2820 O   0  0  0  0  0  1  0  0  0  0  0  0
  196.6320  175.2470  139.4140 C   0  0  0  0  0  2  0  0  0  0  0  0
  195.3020  175.1030  141.5870 C   0  0  0  0  0  2  0  0  0  0  0  0
  195.2540  174.0640  142.7010 C   0  0  1  0  0  3  0  0  0  0  0  0
  196.6610  173.8220  143.2140 C   0  0  0  0  0  1  0  0  0  0  0  0
  194.3890  174.5920  143.8330 C   0  0  0  0  0  2  0  0  0  0  0  0
  195.1270  175.6470  144.6450 C   0  0  0  0  0  2  0  0  0  0  0  0
  194.7130  175.6060  146.1060 C   0  0  0  0  0  2  0  0  0  0  0  0
  194.0150  176.9040  146.5100 C   0  0  0  0  0  2  0  0  0  0  0  0
  192.8430  176.6070  147.3190 N   0  0  0  0  0  1  0  0  0  0  0  0
  188.2820  176.0350  142.1000 C   0  0  2  0  0  3  0  0  0  0  0  0
  186.7900  176.8550  140.2000 C   0  0  0  0  0  0  0  0  0  0  0  0
  186.4460  176.8000  138.9500 N   0  0  0  0  0  0  0  0  0  0  0  0
  187.8830  176.0670  140.6920 N   0  0  0  0  0  2  0  0  0  0  0  0
  186.0430  177.6860  141.1000 N   0  0  0  0  0  2  0  0  0  0  0  0
  187.1510  176.0130  137.9480 C   0  0  0  0  0  2  0  0  0  0  0  0
  185.2260  175.9000  136.3670 O   0  0  0  0  0  1  0  0  0  0  0  0
  187.2990  176.6970  135.6100 C   0  0  0  0  0  2  0  0  0  0  0  0
  186.5520  176.2280  136.6000 C   0  0  0  0  0  0  0  0  0  0  0  0
  184.7580  178.2740  140.7530 C   0  0  0  0  0  2  0  0  0  0  0  0
  183.8440  178.2340  141.9640 C   0  0  0  0  0  2  0  0  0  0  0  0
  184.4160  179.0290  143.0370 N   0  0  0  0  0  2  0  0  0  0  0  0
  184.4020  178.2040  144.2410 C   0  0  0  0  0  2  0  0  0  0  0  0
  184.1540  178.2740  146.7230 C   0  0  0  0  0  1  0  0  0  0  0  0
  184.5220  179.0750  145.4900 C   0  0  1  0  0  3  0  0  0  0  0  0
  185.8420  179.5220  145.6160 O   0  0  0  0  0  1  0  0  0  0  0  0
  189.5580  176.7350  142.3430 N   0  0  0  0  0  2  0  0  0  0  0  0
  189.8220  177.0820  143.7420 C   0  0  2  0  0  0  0  0  0  0  0  0
  192.2340  177.5910  143.0620 C   0  0  0  0  0  1  0  0  0  0  0  0
  191.2120  177.5430  144.1810 C   0  0  2  0  0  3  0  0  0  0  0  0
  190.7820  176.0970  144.3770 C   0  0  0  0  0  2  0  0  0  0  0  0
  188.6360  177.3480  144.6590 C   0  0  0  0  0  2  0  0  0  0  0  0
  187.2820  176.4530  146.1340 C   0  0  0  0  0  1  0  0  0  0  0  0
  188.5920  176.4000  145.6760 O   0  0  0  0  0  0  0  0  0  0  0  0
  2  7  1  6  0  0  0
  2  6  1  0  0  0  0
  2  3  1  0  0  0  0
  3  4  1  1  0  0  0
  4  5  1  0  0  0  0
  5  3  1  0  0  0  0
  5  1  1  1  0  0  0
  6  3  1  0  0  0  0
  8  7  1  0  0  0  0
  9  8  1  0  0  0  0
 10 14  2  0  0  0  0
 10 11  1  0  0  0  0
 11  9  1  6  0  0  0
 11 12  1  0  0  0  0
 13 12  2  0  0  0  0
 13 15  1  0  0  0  0
 14 13  1  0  0  0  0
 15 17  1  6  0  0  0
 15 18  1  0  0  0  0
 17 16  1  0  0  0  0
 18 19  1  0  0  0  0
 19 20  1  1  0  0  0
 19 21  1  0  0  0  0
 21 22  1  0  0  0  0
 22 23  1  0  0  0  0
 23 24  1  0  0  0  0
 24 25  1  0  0  0  0
 26 42  1  0  0  0  0
 26  1  1  6  0  0  0
 27 29  1  0  0  0  0
 27 30  1  0  0  0  0
 28 27  2  0  0  0  0
 29 26  1  0  0  0  0
 31 28  1  0  0  0  0
 32 34  1  0  0  0  0
 33 34  2  0  0  0  0
 34 31  1  0  0  0  0
 35 30  1  0  0  0  0
 35 36  1  0  0  0  0
 36 37  1  0  0  0  0
 37 38  1  0  0  0  0
 38 40  1  0  0  0  0
 40 41  1  0  0  0  0
 40 39  1  1  0  0  0
 42 43  1  0  0  0  0
 43 45  1  0  0  0  0
 43 46  1  0  0  0  0
 43 47  1  1  0  0  0
 45 44  1  6  0  0  0
 45 46  1  0  0  0  0
 47 49  1  0  0  0  0
 49 48  1  0  0  0  0
M  END
>  <MODEL>
2

>  <REMARK>
 VINA RESULT:      -4.9      3.002      5.569
  Name = 
  26 active torsions:
  status: ('A' for Active; 'I' for Inactive)
    1  A    between atoms: C_1  and  N_12
    2  A    between atoms: C_3  and  C_4
    3  A    between atoms: C_3  and  N_32
    4  A    between atoms: C_4  and  N_49
    5  A    between atoms: C_7  and  C_17
    6  A    between atoms: C_7  and  C_24
    7  A    between atoms: C_8  and  N_10
    8  A    between atoms: C_8  and  C_23
    9  A    between atoms: N_10  and  C_44
   10  A    between atoms: C_11  and  C_39
   11  A    between atoms: N_12  and  N_15
   12  A    between atoms: C_14  and  C_37
   13  A    between atoms: N_15  and  C_37
   14  A    between atoms: C_17  and  C_39
   15  A    between atoms: C_19  and  C_46
   16  A    between atoms: C_20  and  C_28
   17  A    between atoms: C_20  and  C_44
   18  A    between atoms: C_23  and  O_35
   19  A    between atoms: C_24  and  C_36
   20  A    between atoms: C_29  and  C_31
   21  A    between atoms: C_29  and  C_36
   22  A    between atoms: C_29  and  C_47
   23  A    between atoms: N_32  and  C_46
   24  A    between atoms: N_38  and  C_43
   25  A    between atoms: C_42  and  C_43
   26  A    between atoms: C_44  and  N_48
                            x       y       z     vdW  Elec       q    Type
                         _______ _______ _______ _____ _____    ______ ____

>  <TORSDO>
F 26

$$$$
=
 OpenBabel11042414093D

 49 52  0  0  1  0  0  0  0  0999 V2000
  188.0120  174.3300  141.0570 C   0  0  0  0  0  2  0  0  0  0  0  0
  190.4170  172.1970  138.7360 C   0  0  2  0  0  3  0  0  0  0  0  0
  189.2360  172.6660  139.6520 C   0  0  2  0  0  0  0  0  0  0  0  0
  188.5360  173.6990  138.7450 C   0  0  0  0  0  2  0  0  0  0  0  0
  189.1160  174.1550  140.0260 C   0  0  1  0  0  3  0  0  0  0  0  0
  190.6640  172.4670  140.1680 C   0  0  0  0  0  2  0  0  0  0  0  0
  191.0580  173.2670  137.9670 N   0  0  0  0  0  2  0  0  0  0  0  0
  192.3790  173.4320  138.4400 N   0  0  0  0  0  2  0  0  0  0  0  0
  193.0450  174.4270  137.6030 C   0  0  0  0  0  2  0  0  0  0  0  0
  195.4710  174.7790  137.9610 C   0  0  0  0  0  3  0  0  0  0  0  0
  194.0990  175.2230  138.3760 C   0  0  2  0  0  3  0  0  0  0  0  0
  194.0430  174.8620  139.7910 N   0  0  0  0  0  0  0  0  0  0  0  0
  195.1590  174.2900  140.1120 C   0  0  0  0  0  0  0  0  0  0  0  0
  196.0970  174.2350  138.9970 C   0  0  0  0  0  3  0  0  0  0  0  0
  195.4190  173.8180  141.5090 C   0  0  1  0  0  3  0  0  0  0  0  0
  196.4670  171.6730  141.6170 O   0  0  0  0  0  1  0  0  0  0  0  0
  195.2260  172.3080  141.6500 C   0  0  0  0  0  2  0  0  0  0  0  0
  196.7760  174.3020  142.0200 C   0  0  0  0  0  2  0  0  0  0  0  0
  196.6800  175.0870  143.3220 C   0  0  1  0  0  3  0  0  0  0  0  0
  195.6600  176.1980  143.1560 C   0  0  0  0  0  1  0  0  0  0  0  0
  196.2290  174.1530  144.4320 C   0  0  0  0  0  2  0  0  0  0  0  0
  197.3060  173.1290  144.7630 C   0  0  0  0  0  2  0  0  0  0  0  0
  196.9070  172.2740  145.9530 C   0  0  0  0  0  2  0  0  0  0  0  0
  197.0730  170.7880  145.6350 C   0  0  0  0  0  2  0  0  0  0  0  0
  196.2850  169.9900  146.5620 N   0  0  0  0  0  1  0  0  0  0  0  0
  188.5000  175.2100  142.2070 C   0  0  2  0  0  3  0  0  0  0  0  0
  187.3900  177.0870  143.5330 C   0  0  0  0  0  0  0  0  0  0  0  0
  186.6380  178.1440  143.5520 N   0  0  0  0  0  0  0  0  0  0  0  0
  187.7100  176.4410  142.2930 N   0  0  0  0  0  2  0  0  0  0  0  0
  187.8720  176.5430  144.7700 N   0  0  0  0  0  2  0  0  0  0  0  0
  186.1190  178.7930  142.3550 C   0  0  0  0  0  2  0  0  0  0  0  0
  183.8390  178.3470  143.2610 O   0  0  0  0  0  1  0  0  0  0  0  0
  184.2080  178.2290  140.9470 C   0  0  0  0  0  2  0  0  0  0  0  0
  184.6780  178.4590  142.1650 C   0  0  0  0  0  0  0  0  0  0  0  0
  187.3570  176.9510  146.0680 C   0  0  0  0  0  2  0  0  0  0  0  0
  188.4970  177.4840  146.9170 C   0  0  0  0  0  2  0  0  0  0  0  0
  189.7580  176.9430  146.4370 N   0  0  0  0  0  2  0  0  0  0  0  0
  190.1110  175.8300  147.3140 C   0  0  0  0  0  2  0  0  0  0  0  0
  192.5420  176.2670  146.9610 C   0  0  0  0  0  1  0  0  0  0  0  0
  191.4520  176.0900  147.9980 C   0  0  1  0  0  3  0  0  0  0  0  0
  191.3610  177.2560  148.7660 O   0  0  0  0  0  1  0  0  0  0  0  0
  189.9470  175.4740  142.0940 N   0  0  0  0  0  2  0  0  0  0  0  0
  190.7530  175.0210  143.2320 C   0  0  2  0  0  0  0  0  0  0  0  0
  192.0720  177.2040  143.0450 C   0  0  0  0  0  1  0  0  0  0  0  0
  191.8850  175.8910  143.7790 C   0  0  2  0  0  3  0  0  0  0  0  0
  192.1850  174.7540  142.8130 C   0  0  0  0  0  2  0  0  0  0  0  0
  190.2200  173.8830  144.0900 C   0  0  0  0  0  2  0  0  0  0  0  0
  189.3270  171.9180  143.6980 C   0  0  0  0  0  1  0  0  0  0  0  0
  190.4820  172.6590  143.4830 O   0  0  0  0  0  0  0  0  0  0  0  0
  2  7  1  6  0  0  0
  2  3  1  0  0  0  0
  2  6  1  0  0  0  0
  3  4  1  1  0  0  0
  3  5  1  0  0  0  0
  3  6  1  0  0  0  0
  4  5  1  0  0  0  0
  5  1  1  1  0  0  0
  7  8  1  0  0  0  0
  9  8  1  0  0  0  0
 10 11  1  0  0  0  0
 10 14  2  0  0  0  0
 11  9  1  6  0  0  0
 11 12  1  0  0  0  0
 12 13  2  0  0  0  0
 13 15  1  0  0  0  0
 14 13  1  0  0  0  0
 15 17  1  6  0  0  0
 15 18  1  0  0  0  0
 16 17  1  0  0  0  0
 18 19  1  0  0  0  0
 19 20  1  6  0  0  0
 19 21  1  0  0  0  0
 21 22  1  0  0  0  0
 22 23  1  0  0  0  0
 24 23  1  0  0  0  0
 24 25  1  0  0  0  0
 26  1  1  6  0  0  0
 26 29  1  0  0  0  0
 27 28  2  0  0  0  0
 27 30  1  0  0  0  0
 29 27  1  0  0  0  0
 30 35  1  0  0  0  0
 31 28  1  0  0  0  0
 33 34  2  0  0  0  0
 34 31  1  0  0  0  0
 34 32  1  0  0  0  0
 35 36  1  0  0  0  0
 37 36  1  0  0  0  0
 37 38  1  0  0  0  0
 38 40  1  0  0  0  0
 40 39  1  6  0  0  0
 40 41  1  0  0  0  0
 42 26  1  0  0  0  0
 42 43  1  0  0  0  0
 43 45  1  0  0  0  0
 43 47  1  1  0  0  0
 45 44  1  6  0  0  0
 46 43  1  0  0  0  0
 46 45  1  0  0  0  0
 49 48  1  0  0  0  0
 49 47  1  0  0  0  0
M  END
>  <MODEL>
3

>  <REMARK>
 VINA RESULT:      -4.7      2.380      5.231
  Name = 
  26 active torsions:
  status: ('A' for Active; 'I' for Inactive)
    1  A    between atoms: C_1  and  N_12
    2  A    between atoms: C_3  and  C_4
    3  A    between atoms: C_3  and  N_32
    4  A    between atoms: C_4  and  N_49
    5  A    between atoms: C_7  and  C_17
    6  A    between atoms: C_7  and  C_24
    7  A    between atoms: C_8  and  N_10
    8  A    between atoms: C_8  and  C_23
    9  A    between atoms: N_10  and  C_44
   10  A    between atoms: C_11  and  C_39
   11  A    between atoms: N_12  and  N_15
   12  A    between atoms: C_14  and  C_37
   13  A    between atoms: N_15  and  C_37
   14  A    between atoms: C_17  and  C_39
   15  A    between atoms: C_19  and  C_46
   16  A    between atoms: C_20  and  C_28
   17  A    between atoms: C_20  and  C_44
   18  A    between atoms: C_23  and  O_35
   19  A    between atoms: C_24  and  C_36
   20  A    between atoms: C_29  and  C_31
   21  A    between atoms: C_29  and  C_36
   22  A    between atoms: C_29  and  C_47
   23  A    between atoms: N_32  and  C_46
   24  A    between atoms: N_38  and  C_43
   25  A    between atoms: C_42  and  C_43
   26  A    between atoms: C_44  and  N_48
                            x       y       z     vdW  Elec       q    Type
                         _______ _______ _______ _____ _____    ______ ____

>  <TORSDO>
F 26

$$$$
=
 OpenBabel11042414093D

 49 52  0  0  1  0  0  0  0  0999 V2000
  191.2210  171.8220  140.9100 C   0  0  0  0  0  2  0  0  0  0  0  0
  187.9490  174.0450  140.6350 C   0  0  2  0  0  3  0  0  0  0  0  0
  188.9640  172.8520  140.6130 C   0  0  2  0  0  0  0  0  0  0  0  0
  189.2620  172.6750  142.1160 C   0  0  0  0  0  2  0  0  0  0  0  0
  190.3700  173.0460  141.2110 C   0  0  1  0  0  3  0  0  0  0  0  0
  189.0280  174.0210  139.6250 C   0  0  0  0  0  2  0  0  0  0  0  0
  188.2680  175.1030  141.5980 N   0  0  0  0  0  2  0  0  0  0  0  0
  187.1300  175.3360  142.4020 N   0  0  0  0  0  2  0  0  0  0  0  0
  186.5860  176.6470  142.0560 C   0  0  0  0  0  2  0  0  0  0  0  0
  185.7330  178.6810  143.1850 C   0  0  0  0  0  3  0  0  0  0  0  0
  185.6400  177.1850  143.1320 C   0  0  2  0  0  3  0  0  0  0  0  0
  186.1160  176.7720  144.4510 N   0  0  0  0  0  0  0  0  0  0  0  0
  186.4490  177.8310  145.1160 C   0  0  0  0  0  0  0  0  0  0  0  0
  186.2060  179.0580  144.3670 C   0  0  0  0  0  3  0  0  0  0  0  0
  186.9610  177.7410  146.5200 C   0  0  1  0  0  3  0  0  0  0  0  0
  184.8190  178.3290  147.4000 O   0  0  0  0  0  1  0  0  0  0  0  0
  185.8530  177.4000  147.5150 C   0  0  0  0  0  2  0  0  0  0  0  0
  188.1670  176.8050  146.6180 C   0  0  0  0  0  2  0  0  0  0  0  0
  189.5000  177.5400  146.5600 C   0  0  1  0  0  3  0  0  0  0  0  0
  190.4690  176.8850  147.5270 C   0  0  0  0  0  1  0  0  0  0  0  0
  190.0570  177.4460  145.1500 C   0  0  0  0  0  2  0  0  0  0  0  0
  189.6340  176.1500  144.4740 C   0  0  0  0  0  2  0  0  0  0  0  0
  190.8230  175.2350  144.2410 C   0  0  0  0  0  2  0  0  0  0  0  0
  190.7810  174.0370  145.1890 C   0  0  0  0  0  2  0  0  0  0  0  0
  191.8240  173.0870  144.8360 N   0  0  0  0  0  1  0  0  0  0  0  0
  192.5680  172.2470  140.3250 C   0  0  2  0  0  3  0  0  0  0  0  0
  194.0900  173.0020  142.2280 C   0  0  0  0  0  0  0  0  0  0  0  0
  194.5660  173.9610  142.9620 N   0  0  0  0  0  0  0  0  0  0  0  0
  193.1890  173.2850  141.1490 N   0  0  0  0  0  2  0  0  0  0  0  0
  194.4420  171.6440  142.5300 N   0  0  0  0  0  2  0  0  0  0  0  0
  194.2950  175.3730  142.7260 C   0  0  0  0  0  2  0  0  0  0  0  0
  196.2160  176.7480  143.5250 O   0  0  0  0  0  1  0  0  0  0  0  0
  196.0540  176.1970  141.2500 C   0  0  0  0  0  2  0  0  0  0  0  0
  195.5650  176.1130  142.4790 C   0  0  0  0  0  0  0  0  0  0  0  0
  195.0970  171.2520  143.7690 C   0  0  0  0  0  2  0  0  0  0  0  0
  196.5950  171.1680  143.5420 C   0  0  0  0  0  2  0  0  0  0  0  0
  197.2960  171.6690  144.7120 N   0  0  0  0  0  2  0  0  0  0  0  0
  196.3100  172.3470  145.5490 C   0  0  0  0  0  2  0  0  0  0  0  0
  197.8930  174.2170  145.0780 C   0  0  0  0  0  1  0  0  0  0  0  0
  196.8570  173.6840  146.0460 C   0  0  1  0  0  3  0  0  0  0  0  0
  195.8090  174.6050  146.1430 O   0  0  0  0  0  1  0  0  0  0  0  0
  192.4270  172.6530  138.9140 N   0  0  0  0  0  2  0  0  0  0  0  0
  192.7640  171.6190  137.9310 C   0  0  2  0  0  0  0  0  0  0  0  0
  195.1940  172.4040  138.0780 C   0  0  0  0  0  1  0  0  0  0  0  0
  194.2070  171.4380  137.4550 C   0  0  2  0  0  3  0  0  0  0  0  0
  193.2140  172.2360  136.6220 C   0  0  0  0  0  2  0  0  0  0  0  0
  191.7630  170.4990  137.6850 C   0  0  0  0  0  2  0  0  0  0  0  0
  189.6770  169.9550  137.2840 C   0  0  0  0  0  1  0  0  0  0  0  0
  190.4640  170.9870  137.7780 O   0  0  0  0  0  0  0  0  0  0  0  0
  2  7  1  1  0  0  0
  3  6  1  6  0  0  0
  3  2  1  0  0  0  0
  3  5  1  0  0  0  0
  3  4  1  0  0  0  0
  5  1  1  6  0  0  0
  5  4  1  0  0  0  0
  6  2  1  0  0  0  0
  7  8  1  0  0  0  0
  9  8  1  0  0  0  0
 10 14  2  0  0  0  0
 11  9  1  6  0  0  0
 11 10  1  0  0  0  0
 11 12  1  0  0  0  0
 12 13  2  0  0  0  0
 13 15  1  0  0  0  0
 14 13  1  0  0  0  0
 15 18  1  6  0  0  0
 15 17  1  0  0  0  0
 16 17  1  0  0  0  0
 19 18  1  0  0  0  0
 19 20  1  1  0  0  0
 21 19  1  0  0  0  0
 22 21  1  0  0  0  0
 23 22  1  0  0  0  0
 23 24  1  0  0  0  0
 25 24  1  0  0  0  0
 26  1  1  1  0  0  0
 26 29  1  0  0  0  0
 27 30  1  0  0  0  0
 27 28  2  0  0  0  0
 29 27  1  0  0  0  0
 30 35  1  0  0  0  0
 31 28  1  0  0  0  0
 33 34  2  0  0  0  0
 34 31  1  0  0  0  0
 34 32  1  0  0  0  0
 36 35  1  0  0  0  0
 36 37  1  0  0  0  0
 37 38  1  0  0  0  0
 38 40  1  0  0  0  0
 40 39  1  6  0  0  0
 40 41  1  0  0  0  0
 42 26  1  0  0  0  0
 43 47  1  6  0  0  0
 43 42  1  0  0  0  0
 45 43  1  0  0  0  0
 45 44  1  1  0  0  0
 46 45  1  0  0  0  0
 46 43  1  0  0  0  0
 47 49  1  0  0  0  0
 48 49  1  0  0  0  0
M  END
>  <MODEL>
4

>  <REMARK>
 VINA RESULT:      -4.6      2.314      9.188
  Name = 
  26 active torsions:
  status: ('A' for Active; 'I' for Inactive)
    1  A    between atoms: C_1  and  N_12
    2  A    between atoms: C_3  and  C_4
    3  A    between atoms: C_3  and  N_32
    4  A    between atoms: C_4  and  N_49
    5  A    between atoms: C_7  and  C_17
    6  A    between atoms: C_7  and  C_24
    7  A    between atoms: C_8  and  N_10
    8  A    between atoms: C_8  and  C_23
    9  A    between atoms: N_10  and  C_44
   10  A    between atoms: C_11  and  C_39
   11  A    between atoms: N_12  and  N_15
   12  A    between atoms: C_14  and  C_37
   13  A    between atoms: N_15  and  C_37
   14  A    between atoms: C_17  and  C_39
   15  A    between atoms: C_19  and  C_46
   16  A    between atoms: C_20  and  C_28
   17  A    between atoms: C_20  and  C_44
   18  A    between atoms: C_23  and  O_35
   19  A    between atoms: C_24  and  C_36
   20  A    between atoms: C_29  and  C_31
   21  A    between atoms: C_29  and  C_36
   22  A    between atoms: C_29  and  C_47
   23  A    between atoms: N_32  and  C_46
   24  A    between atoms: N_38  and  C_43
   25  A    between atoms: C_42  and  C_43
   26  A    between atoms: C_44  and  N_48
                            x       y       z     vdW  Elec       q    Type
                         _______ _______ _______ _____ _____    ______ ____

>  <TORSDO>
F 26

$$$$
=
 OpenBabel11042414093D

 49 52  0  0  1  0  0  0  0  0999 V2000
  192.2070  172.9420  142.5240 C   0  0  0  0  0  2  0  0  0  0  0  0
  188.6280  174.6350  142.7590 C   0  0  2  0  0  3  0  0  0  0  0  0
  189.9950  173.9500  143.1030 C   0  0  2  0  0  0  0  0  0  0  0  0
  190.9960  175.0660  142.7390 C   0  0  0  0  0  2  0  0  0  0  0  0
  191.0570  173.7880  141.9990 C   0  0  1  0  0  3  0  0  0  0  0  0
  188.8620  173.2280  142.3680 C   0  0  0  0  0  2  0  0  0  0  0  0
  188.6390  175.4420  141.5350 N   0  0  0  0  0  2  0  0  0  0  0  0
  188.2120  176.7490  141.8560 N   0  0  0  0  0  2  0  0  0  0  0  0
  186.8640  176.9360  141.3240 C   0  0  0  0  0  2  0  0  0  0  0  0
  185.7990  178.7090  142.6880 C   0  0  0  0  0  3  0  0  0  0  0  0
  185.8420  177.2320  142.4240 C   0  0  2  0  0  3  0  0  0  0  0  0
  186.3140  176.6780  143.6910 N   0  0  0  0  0  0  0  0  0  0  0  0
  186.5310  177.6570  144.5100 C   0  0  0  0  0  0  0  0  0  0  0  0
  186.2010  178.9520  143.9290 C   0  0  0  0  0  3  0  0  0  0  0  0
  187.0080  177.4120  145.9090 C   0  0  1  0  0  3  0  0  0  0  0  0
  186.1350  179.0020  147.4650 O   0  0  0  0  0  1  0  0  0  0  0  0
  185.9290  177.7240  146.9460 C   0  0  0  0  0  2  0  0  0  0  0  0
  187.6020  176.0110  146.0610 C   0  0  0  0  0  2  0  0  0  0  0  0
  188.8430  175.9810  146.9440 C   0  0  1  0  0  3  0  0  0  0  0  0
  189.0300  174.5780  147.4890 C   0  0  0  0  0  1  0  0  0  0  0  0
  190.0540  176.3620  146.1100 C   0  0  0  0  0  2  0  0  0  0  0  0
  191.2390  176.7290  146.9930 C   0  0  0  0  0  2  0  0  0  0  0  0
  192.5390  176.1870  146.4240 C   0  0  0  0  0  2  0  0  0  0  0  0
  192.4510  174.6770  146.2080 C   0  0  0  0  0  2  0  0  0  0  0  0
  193.6600  174.1960  145.5560 N   0  0  0  0  0  1  0  0  0  0  0  0
  193.1810  172.6150  141.3930 C   0  0  2  0  0  3  0  0  0  0  0  0
  195.6290  172.5300  142.1060 C   0  0  0  0  0  0  0  0  0  0  0  0
  196.7420  173.1530  142.3490 N   0  0  0  0  0  0  0  0  0  0  0  0
  194.4820  173.2450  141.6260 N   0  0  0  0  0  2  0  0  0  0  0  0
  195.5410  171.1210  142.3580 N   0  0  0  0  0  2  0  0  0  0  0  0
  196.9460  174.5740  142.1040 C   0  0  0  0  0  2  0  0  0  0  0  0
  196.9290  176.7080  143.3940 O   0  0  0  0  0  1  0  0  0  0  0  0
  197.1160  174.6670  144.5360 C   0  0  0  0  0  2  0  0  0  0  0  0
  196.9860  175.3240  143.3920 C   0  0  0  0  0  0  0  0  0  0  0  0
  196.5440  170.3870  143.1150 C   0  0  0  0  0  2  0  0  0  0  0  0
  196.0180  169.0000  143.4350 C   0  0  0  0  0  2  0  0  0  0  0  0
  196.3890  168.6360  144.7910 N   0  0  0  0  0  2  0  0  0  0  0  0
  195.1630  168.6210  145.5840 C   0  0  0  0  0  2  0  0  0  0  0  0
  196.7790  168.9300  147.4600 C   0  0  0  0  0  1  0  0  0  0  0  0
  195.4710  168.2890  147.0430 C   0  0  1  0  0  3  0  0  0  0  0  0
  194.4440  168.7800  147.8560 O   0  0  0  0  0  1  0  0  0  0  0  0
  192.6070  172.9720  140.0820 N   0  0  0  0  0  2  0  0  0  0  0  0
  192.6430  171.9070  139.0750 C   0  0  2  0  0  0  0  0  0  0  0  0
  194.6950  173.0560  138.0700 C   0  0  0  0  0  1  0  0  0  0  0  0
  193.7220  171.8960  137.9910 C   0  0  2  0  0  3  0  0  0  0  0  0
  192.3370  172.4510  137.6940 C   0  0  0  0  0  2  0  0  0  0  0  0
  191.8560  170.6320  139.3400 C   0  0  0  0  0  2  0  0  0  0  0  0
  189.8650  170.2330  138.5110 C   0  0  0  0  0  1  0  0  0  0  0  0
  190.5090  170.9280  139.5260 O   0  0  0  0  0  0  0  0  0  0  0  0
  2  7  1  6  0  0  0
  2  3  1  0  0  0  0
  3  6  1  1  0  0  0
  4  3  1  0  0  0  0
  5  1  1  1  0  0  0
  5  4  1  0  0  0  0
  5  3  1  0  0  0  0
  6  2  1  0  0  0  0
  7  8  1  0  0  0  0
  9  8  1  0  0  0  0
 10 14  2  0  0  0  0
 11  9  1  6  0  0  0
 11 10  1  0  0  0  0
 11 12  1  0  0  0  0
 12 13  2  0  0  0  0
 13 15  1  0  0  0  0
 14 13  1  0  0  0  0
 15 18  1  6  0  0  0
 15 17  1  0  0  0  0
 17 16  1  0  0  0  0
 18 19  1  0  0  0  0
 19 20  1  6  0  0  0
 21 19  1  0  0  0  0
 21 22  1  0  0  0  0
 23 22  1  0  0  0  0
 24 23  1  0  0  0  0
 25 24  1  0  0  0  0
 26 29  1  0  0  0  0
 26  1  1  1  0  0  0
 27 28  2  0  0  0  0
 27 30  1  0  0  0  0
 29 27  1  0  0  0  0
 30 35  1  0  0  0  0
 31 28  1  0  0  0  0
 31 34  1  0  0  0  0
 34 32  1  0  0  0  0
 34 33  2  0  0  0  0
 35 36  1  0  0  0  0
 36 37  1  0  0  0  0
 37 38  1  0  0  0  0
 38 40  1  0  0  0  0
 40 39  1  1  0  0  0
 40 41  1  0  0  0  0
 42 26  1  0  0  0  0
 43 47  1  1  0  0  0
 43 42  1  0  0  0  0
 45 44  1  1  0  0  0
 45 43  1  0  0  0  0
 46 45  1  0  0  0  0
 46 43  1  0  0  0  0
 47 49  1  0  0  0  0
 48 49  1  0  0  0  0
M  END
>  <MODEL>
5

>  <REMARK>
 VINA RESULT:      -4.5      2.179      9.120
  Name = 
  26 active torsions:
  status: ('A' for Active; 'I' for Inactive)
    1  A    between atoms: C_1  and  N_12
    2  A    between atoms: C_3  and  C_4
    3  A    between atoms: C_3  and  N_32
    4  A    between atoms: C_4  and  N_49
    5  A    between atoms: C_7  and  C_17
    6  A    between atoms: C_7  and  C_24
    7  A    between atoms: C_8  and  N_10
    8  A    between atoms: C_8  and  C_23
    9  A    between atoms: N_10  and  C_44
   10  A    between atoms: C_11  and  C_39
   11  A    between atoms: N_12  and  N_15
   12  A    between atoms: C_14  and  C_37
   13  A    between atoms: N_15  and  C_37
   14  A    between atoms: C_17  and  C_39
   15  A    between atoms: C_19  and  C_46
   16  A    between atoms: C_20  and  C_28
   17  A    between atoms: C_20  and  C_44
   18  A    between atoms: C_23  and  O_35
   19  A    between atoms: C_24  and  C_36
   20  A    between atoms: C_29  and  C_31
   21  A    between atoms: C_29  and  C_36
   22  A    between atoms: C_29  and  C_47
   23  A    between atoms: N_32  and  C_46
   24  A    between atoms: N_38  and  C_43
   25  A    between atoms: C_42  and  C_43
   26  A    between atoms: C_44  and  N_48
                            x       y       z     vdW  Elec       q    Type
                         _______ _______ _______ _____ _____    ______ ____

>  <TORSDO>
F 26

$$$$
=
 OpenBabel11042414093D

 49 52  0  0  1  0  0  0  0  0999 V2000
  191.5540  172.3030  139.3330 C   0  0  0  0  0  2  0  0  0  0  0  0
  188.0840  173.1370  141.0630 C   0  0  2  0  0  3  0  0  0  0  0  0
  189.4000  172.4270  140.5930 C   0  0  2  0  0  0  0  0  0  0  0  0
  190.4740  173.2670  141.3150 C   0  0  0  0  0  2  0  0  0  0  0  0
  190.4680  173.2410  139.8370 C   0  0  1  0  0  3  0  0  0  0  0  0
  188.2360  172.7370  139.6470 C   0  0  0  0  0  2  0  0  0  0  0  0
  188.1640  174.5990  141.1210 N   0  0  0  0  0  2  0  0  0  0  0  0
  187.4560  175.0420  142.2600 N   0  0  0  0  0  2  0  0  0  0  0  0
  186.7750  176.2900  141.9200 C   0  0  0  0  0  2  0  0  0  0  0  0
  186.0030  178.3260  143.1020 C   0  0  0  0  0  3  0  0  0  0  0  0
  185.9340  176.8270  143.0790 C   0  0  2  0  0  3  0  0  0  0  0  0
  186.5490  176.4430  144.3480 N   0  0  0  0  0  0  0  0  0  0  0  0
  186.9280  177.5180  144.9610 C   0  0  0  0  0  0  0  0  0  0  0  0
  186.5870  178.7290  144.2240 C   0  0  0  0  0  3  0  0  0  0  0  0
  187.5820  177.4580  146.3070 C   0  0  1  0  0  3  0  0  0  0  0  0
  185.6480  177.3150  147.7030 O   0  0  0  0  0  1  0  0  0  0  0  0
  186.7350  178.1290  147.3870 C   0  0  0  0  0  2  0  0  0  0  0  0
  187.9960  176.0310  146.6660 C   0  0  0  0  0  2  0  0  0  0  0  0
  189.4690  175.7500  146.3990 C   0  0  1  0  0  3  0  0  0  0  0  0
  190.0500  174.9860  147.5750 C   0  0  0  0  0  1  0  0  0  0  0  0
  189.5930  174.9070  145.1420 C   0  0  0  0  0  2  0  0  0  0  0  0
  190.6920  175.4340  144.2290 C   0  0  0  0  0  2  0  0  0  0  0  0
  190.2480  176.6900  143.5000 C   0  0  0  0  0  2  0  0  0  0  0  0
  191.4540  177.5200  143.0620 C   0  0  0  0  0  2  0  0  0  0  0  0
  191.3800  178.8510  143.6460 N   0  0  0  0  0  1  0  0  0  0  0  0
  192.6050  173.0870  138.5480 C   0  0  2  0  0  3  0  0  0  0  0  0
  194.4660  172.6830  140.2460 C   0  0  0  0  0  0  0  0  0  0  0  0
  195.3610  173.1630  141.0550 N   0  0  0  0  0  0  0  0  0  0  0  0
  193.6720  173.5580  139.4330 N   0  0  0  0  0  2  0  0  0  0  0  0
  194.2480  171.2660  140.1980 N   0  0  0  0  0  2  0  0  0  0  0  0
  195.6810  174.5800  141.1620 C   0  0  0  0  0  2  0  0  0  0  0  0
  196.6340  175.2740  143.3600 O   0  0  0  0  0  1  0  0  0  0  0  0
  194.3060  175.2000  143.0800 C   0  0  0  0  0  2  0  0  0  0  0  0
  195.5190  175.0440  142.5700 C   0  0  0  0  0  0  0  0  0  0  0  0
  194.7880  170.3470  141.1890 C   0  0  0  0  0  2  0  0  0  0  0  0
  193.7390  170.0840  142.2540 C   0  0  0  0  0  2  0  0  0  0  0  0
  194.2840  170.3940  143.5650 N   0  0  0  0  0  2  0  0  0  0  0  0
  193.7200  171.6780  143.9730 C   0  0  0  0  0  2  0  0  0  0  0  0
  195.6780  172.4010  145.3400 C   0  0  0  0  0  1  0  0  0  0  0  0
  194.2040  172.0550  145.3720 C   0  0  1  0  0  3  0  0  0  0  0  0
  193.4850  173.1660  145.8260 O   0  0  0  0  0  1  0  0  0  0  0  0
  191.9830  174.1820  137.7800 N   0  0  0  0  0  2  0  0  0  0  0  0
  192.0730  174.0500  136.3230 C   0  0  2  0  0  0  0  0  0  0  0  0
  193.4390  176.2120  136.3060 C   0  0  0  0  0  1  0  0  0  0  0  0
  192.8300  175.0870  135.4930 C   0  0  2  0  0  3  0  0  0  0  0  0
  191.3160  175.1630  135.6260 C   0  0  0  0  0  2  0  0  0  0  0  0
  191.7480  172.7020  135.6960 C   0  0  0  0  0  2  0  0  0  0  0  0
  190.1400  171.2240  135.8950 C   0  0  0  0  0  1  0  0  0  0  0  0
  190.3720  172.5520  135.5620 O   0  0  0  0  0  0  0  0  0  0  0  0
  2  7  1  6  0  0  0
  3  6  1  1  0  0  0
  3  2  1  0  0  0  0
  3  4  1  0  0  0  0
  5  1  1  1  0  0  0
  5  3  1  0  0  0  0
  5  4  1  0  0  0  0
  6  2  1  0  0  0  0
  7  8  1  0  0  0  0
  9  8  1  0  0  0  0
 10 14  2  0  0  0  0
 11  9  1  6  0  0  0
 11 10  1  0  0  0  0
 11 12  1  0  0  0  0
 12 13  2  0  0  0  0
 13 15  1  0  0  0  0
 14 13  1  0  0  0  0
 15 18  1  1  0  0  0
 15 17  1  0  0  0  0
 17 16  1  0  0  0  0
 19 18  1  0  0  0  0
 19 20  1  1  0  0  0
 21 19  1  0  0  0  0
 22 21  1  0  0  0  0
 23 22  1  0  0  0  0
 24 23  1  0  0  0  0
 24 25  1  0  0  0  0
 26  1  1  1  0  0  0
 26 29  1  0  0  0  0
 27 28  2  0  0  0  0
 28 31  1  0  0  0  0
 29 27  1  0  0  0  0
 30 27  1  0  0  0  0
 30 35  1  0  0  0  0
 31 34  1  0  0  0  0
 34 33  2  0  0  0  0
 34 32  1  0  0  0  0
 35 36  1  0  0  0  0
 36 37  1  0  0  0  0
 37 38  1  0  0  0  0
 38 40  1  0  0  0  0
 40 39  1  6  0  0  0
 40 41  1  0  0  0  0
 42 26  1  0  0  0  0
 43 47  1  6  0  0  0
 43 42  1  0  0  0  0
 45 46  1  0  0  0  0
 45 44  1  1  0  0  0
 45 43  1  0  0  0  0
 46 43  1  0  0  0  0
 49 47  1  0  0  0  0
 49 48  1  0  0  0  0
M  END
>  <MODEL>
6

>  <REMARK>
 VINA RESULT:      -4.4      2.572      8.980
  Name = 
  26 active torsions:
  status: ('A' for Active; 'I' for Inactive)
    1  A    between atoms: C_1  and  N_12
    2  A    between atoms: C_3  and  C_4
    3  A    between atoms: C_3  and  N_32
    4  A    between atoms: C_4  and  N_49
    5  A    between atoms: C_7  and  C_17
    6  A    between atoms: C_7  and  C_24
    7  A    between atoms: C_8  and  N_10
    8  A    between atoms: C_8  and  C_23
    9  A    between atoms: N_10  and  C_44
   10  A    between atoms: C_11  and  C_39
   11  A    between atoms: N_12  and  N_15
   12  A    between atoms: C_14  and  C_37
   13  A    between atoms: N_15  and  C_37
   14  A    between atoms: C_17  and  C_39
   15  A    between atoms: C_19  and  C_46
   16  A    between atoms: C_20  and  C_28
   17  A    between atoms: C_20  and  C_44
   18  A    between atoms: C_23  and  O_35
   19  A    between atoms: C_24  and  C_36
   20  A    between atoms: C_29  and  C_31
   21  A    between atoms: C_29  and  C_36
   22  A    between atoms: C_29  and  C_47
   23  A    between atoms: N_32  and  C_46
   24  A    between atoms: N_38  and  C_43
   25  A    between atoms: C_42  and  C_43
   26  A    between atoms: C_44  and  N_48
                            x       y       z     vdW  Elec       q    Type
                         _______ _______ _______ _____ _____    ______ ____

>  <TORSDO>
F 26

$$$$
=
 OpenBabel11042414093D

 49 52  0  0  1  0  0  0  0  0999 V2000
  190.0730  173.0390  140.4200 C   0  0  0  0  0  2  0  0  0  0  0  0
  192.7470  172.9920  143.3490 C   0  0  2  0  0  3  0  0  0  0  0  0
  192.0460  172.9210  141.9490 C   0  0  2  0  0  0  0  0  0  0  0  0
  191.6410  174.3940  141.7350 C   0  0  0  0  0  2  0  0  0  0  0  0
  190.5780  173.3700  141.8160 C   0  0  1  0  0  3  0  0  0  0  0  0
  191.8170  171.8830  143.0510 C   0  0  0  0  0  2  0  0  0  0  0  0
  192.0900  173.8730  144.3190 N   0  0  0  0  0  2  0  0  0  0  0  0
  193.0450  174.7890  144.8120 N   0  0  0  0  0  2  0  0  0  0  0  0
  193.0280  174.7290  146.2720 C   0  0  0  0  0  2  0  0  0  0  0  0
  191.2200  175.4540  147.8030 C   0  0  0  0  0  3  0  0  0  0  0  0
  192.3150  175.9320  146.8940 C   0  0  2  0  0  3  0  0  0  0  0  0
  191.5930  176.6620  145.8540 N   0  0  0  0  0  0  0  0  0  0  0  0
  190.3250  176.5870  146.1060 C   0  0  0  0  0  0  0  0  0  0  0  0
  190.0440  175.8530  147.3340 C   0  0  0  0  0  3  0  0  0  0  0  0
  189.3150  177.2560  145.2260 C   0  0  1  0  0  3  0  0  0  0  0  0
  189.6640  177.0990  142.8670 O   0  0  0  0  0  1  0  0  0  0  0  0
  189.9550  177.8780  143.9860 C   0  0  0  0  0  2  0  0  0  0  0  0
  188.1510  176.3200  144.8980 C   0  0  0  0  0  2  0  0  0  0  0  0
  186.7990  176.8720  145.3310 C   0  0  1  0  0  3  0  0  0  0  0  0
  186.6870  176.7820  146.8410 C   0  0  0  0  0  1  0  0  0  0  0  0
  186.6980  178.3260  144.9040 C   0  0  0  0  0  2  0  0  0  0  0  0
  185.7790  178.4870  143.7010 C   0  0  0  0  0  2  0  0  0  0  0  0
  186.5720  178.7290  142.4290 C   0  0  0  0  0  2  0  0  0  0  0  0
  185.9280  178.0150  141.2420 C   0  0  0  0  0  2  0  0  0  0  0  0
  186.9570  177.4560  140.3800 N   0  0  0  0  0  1  0  0  0  0  0  0
  191.1540  172.3030  139.6300 C   0  0  2  0  0  3  0  0  0  0  0  0
  193.0600  173.5130  138.4420 C   0  0  0  0  0  0  0  0  0  0  0  0
  193.4580  174.3110  137.4980 N   0  0  0  0  0  0  0  0  0  0  0  0
  191.6780  173.1460  138.5540 N   0  0  0  0  0  2  0  0  0  0  0  0
  194.0110  173.0270  139.4000 N   0  0  0  0  0  2  0  0  0  0  0  0
  192.5840  174.8390  136.4600 C   0  0  0  0  0  2  0  0  0  0  0  0
  194.5920  176.0860  135.6680 O   0  0  0  0  0  1  0  0  0  0  0  0
  192.4600  177.0150  135.3630 C   0  0  0  0  0  2  0  0  0  0  0  0
  193.2150  176.0150  135.7960 C   0  0  0  0  0  0  0  0  0  0  0  0
  195.3510  173.5780  139.5370 C   0  0  0  0  0  2  0  0  0  0  0  0
  195.8710  173.2920  140.9330 C   0  0  0  0  0  2  0  0  0  0  0  0
  196.8790  174.2760  141.2910 N   0  0  0  0  0  2  0  0  0  0  0  0
  196.5860  174.7180  142.6520 C   0  0  0  0  0  2  0  0  0  0  0  0
  196.1350  176.9020  141.5320 C   0  0  0  0  0  1  0  0  0  0  0  0
  196.7160  176.2360  142.7620 C   0  0  1  0  0  3  0  0  0  0  0  0
  196.0200  176.6800  143.8910 O   0  0  0  0  0  1  0  0  0  0  0  0
  190.6580  171.0030  139.1390 N   0  0  0  0  0  2  0  0  0  0  0  0
  191.6800  169.9640  138.9840 C   0  0  2  0  0  0  0  0  0  0  0  0
  190.8190  168.9270  141.1570 C   0  0  0  0  0  1  0  0  0  0  0  0
  191.8100  168.8410  140.0150 C   0  0  2  0  0  3  0  0  0  0  0  0
  192.7230  170.0580  140.0790 C   0  0  0  0  0  2  0  0  0  0  0  0
  192.3390  169.7920  137.6230 C   0  0  0  0  0  2  0  0  0  0  0  0
  193.9870  170.5640  136.3990 C   0  0  0  0  0  1  0  0  0  0  0  0
  193.6810  170.1530  137.6890 O   0  0  0  0  0  0  0  0  0  0  0  0
  2  7  1  1  0  0  0
  3  4  1  6  0  0  0
  3  6  1  0  0  0  0
  3  2  1  0  0  0  0
  4  5  1  0  0  0  0
  5  1  1  6  0  0  0
  5  3  1  0  0  0  0
  6  2  1  0  0  0  0
  7  8  1  0  0  0  0
  8  9  1  0  0  0  0
 11  9  1  6  0  0  0
 11 10  1  0  0  0  0
 12 13  2  0  0  0  0
 12 11  1  0  0  0  0
 13 14  1  0  0  0  0
 14 10  2  0  0  0  0
 15 17  1  6  0  0  0
 15 13  1  0  0  0  0
 16 17  1  0  0  0  0
 18 15  1  0  0  0  0
 18 19  1  0  0  0  0
 19 20  1  1  0  0  0
 21 19  1  0  0  0  0
 22 21  1  0  0  0  0
 23 22  1  0  0  0  0
 24 23  1  0  0  0  0
 25 24  1  0  0  0  0
 26  1  1  6  0  0  0
 27 29  1  0  0  0  0
 27 30  1  0  0  0  0
 28 27  2  0  0  0  0
 29 26  1  0  0  0  0
 30 35  1  0  0  0  0
 31 28  1  0  0  0  0
 32 34  1  0  0  0  0
 33 34  2  0  0  0  0
 34 31  1  0  0  0  0
 35 36  1  0  0  0  0
 36 37  1  0  0  0  0
 37 38  1  0  0  0  0
 38 40  1  0  0  0  0
 40 39  1  6  0  0  0
 40 41  1  0  0  0  0
 42 26  1  0  0  0  0
 43 47  1  6  0  0  0
 43 42  1  0  0  0  0
 43 45  1  0  0  0  0
 43 46  1  0  0  0  0
 45 46  1  0  0  0  0
 45 44  1  1  0  0  0
 47 49  1  0  0  0  0
 48 49  1  0  0  0  0
M  END
>  <MODEL>
7

>  <REMARK>
 VINA RESULT:      -4.3      3.129      8.702
  Name = 
  26 active torsions:
  status: ('A' for Active; 'I' for Inactive)
    1  A    between atoms: C_1  and  N_12
    2  A    between atoms: C_3  and  C_4
    3  A    between atoms: C_3  and  N_32
    4  A    between atoms: C_4  and  N_49
    5  A    between atoms: C_7  and  C_17
    6  A    between atoms: C_7  and  C_24
    7  A    between atoms: C_8  and  N_10
    8  A    between atoms: C_8  and  C_23
    9  A    between atoms: N_10  and  C_44
   10  A    between atoms: C_11  and  C_39
   11  A    between atoms: N_12  and  N_15
   12  A    between atoms: C_14  and  C_37
   13  A    between atoms: N_15  and  C_37
   14  A    between atoms: C_17  and  C_39
   15  A    between atoms: C_19  and  C_46
   16  A    between atoms: C_20  and  C_28
   17  A    between atoms: C_20  and  C_44
   18  A    between atoms: C_23  and  O_35
   19  A    between atoms: C_24  and  C_36
   20  A    between atoms: C_29  and  C_31
   21  A    between atoms: C_29  and  C_36
   22  A    between atoms: C_29  and  C_47
   23  A    between atoms: N_32  and  C_46
   24  A    between atoms: N_38  and  C_43
   25  A    between atoms: C_42  and  C_43
   26  A    between atoms: C_44  and  N_48
                            x       y       z     vdW  Elec       q    Type
                         _______ _______ _______ _____ _____    ______ ____

>  <TORSDO>
F 26

$$$$
=
 OpenBabel11042414093D

 49 52  0  0  1  0  0  0  0  0999 V2000
  191.9940  171.6200  143.5320 C   0  0  0  0  0  2  0  0  0  0  0  0
  188.4840  173.1060  142.4370 C   0  0  2  0  0  3  0  0  0  0  0  0
  189.6490  172.1400  142.8420 C   0  0  2  0  0  0  0  0  0  0  0  0
  189.8490  172.5070  144.3270 C   0  0  0  0  0  2  0  0  0  0  0  0
  190.9650  172.7300  143.3840 C   0  0  1  0  0  3  0  0  0  0  0  0
  189.6320  172.9210  141.5250 C   0  0  0  0  0  2  0  0  0  0  0  0
  188.5810  174.4540  143.0040 N   0  0  0  0  0  2  0  0  0  0  0  0
  188.7750  175.3720  141.9480 N   0  0  0  0  0  2  0  0  0  0  0  0
  189.8920  176.2460  142.2990 C   0  0  0  0  0  2  0  0  0  0  0  0
  189.5460  177.6160  144.3340 C   0  0  0  0  0  3  0  0  0  0  0  0
  189.4230  177.5990  142.8380 C   0  0  2  0  0  3  0  0  0  0  0  0
  187.9850  177.7400  142.6180 N   0  0  0  0  0  0  0  0  0  0  0  0
  187.3980  177.7930  143.7700 C   0  0  0  0  0  0  0  0  0  0  0  0
  188.3420  177.7400  144.8800 C   0  0  0  0  0  3  0  0  0  0  0  0
  185.9130  177.9570  143.8820 C   0  0  1  0  0  3  0  0  0  0  0  0
  185.5210  179.6980  145.4710 O   0  0  0  0  0  1  0  0  0  0  0  0
  185.5110  179.4140  144.1060 C   0  0  0  0  0  2  0  0  0  0  0  0
  185.1880  177.3060  142.7040 C   0  0  0  0  0  2  0  0  0  0  0  0
  184.3840  178.2990  141.8740 C   0  0  1  0  0  3  0  0  0  0  0  0
  184.8070  178.1880  140.4210 C   0  0  0  0  0  1  0  0  0  0  0  0
  182.9070  177.9640  141.9950 C   0  0  0  0  0  2  0  0  0  0  0  0
  182.1500  178.3410  140.7290 C   0  0  0  0  0  2  0  0  0  0  0  0
  180.8920  179.1290  141.0530 C   0  0  0  0  0  2  0  0  0  0  0  0
  179.7540  178.1930  141.4590 C   0  0  0  0  0  2  0  0  0  0  0  0
  178.4830  178.8970  141.3920 N   0  0  0  0  0  1  0  0  0  0  0  0
  193.0090  171.6870  142.3910 C   0  0  2  0  0  3  0  0  0  0  0  0
  195.1250  172.3820  143.6350 C   0  0  0  0  0  0  0  0  0  0  0  0
  196.3440  172.1180  143.9960 N   0  0  0  0  0  0  0  0  0  0  0  0
  194.3630  171.4280  142.8830 N   0  0  0  0  0  2  0  0  0  0  0  0
  194.5540  173.6560  143.9640 N   0  0  0  0  0  2  0  0  0  0  0  0
  197.0090  170.8470  143.7380 C   0  0  0  0  0  2  0  0  0  0  0  0
  197.2570  168.6420  144.8760 O   0  0  0  0  0  1  0  0  0  0  0  0
  196.7370  170.5460  146.1440 C   0  0  0  0  0  2  0  0  0  0  0  0
  197.0110  170.0020  144.9670 C   0  0  0  0  0  0  0  0  0  0  0  0
  195.3450  174.7760  144.4530 C   0  0  0  0  0  2  0  0  0  0  0  0
  194.9720  175.0630  145.8960 C   0  0  0  0  0  2  0  0  0  0  0  0
  194.4990  176.4310  146.0170 N   0  0  0  0  0  2  0  0  0  0  0  0
  193.1920  176.4940  145.3690 C   0  0  0  0  0  2  0  0  0  0  0  0
  191.5360  175.0110  146.5020 C   0  0  0  0  0  1  0  0  0  0  0  0
  192.0740  176.4240  146.4070 C   0  0  1  0  0  3  0  0  0  0  0  0
  192.5780  176.8040  147.6560 O   0  0  0  0  0  1  0  0  0  0  0  0
  192.9060  172.9680  141.6670 N   0  0  0  0  0  2  0  0  0  0  0  0
  193.4210  172.9500  140.2940 C   0  0  2  0  0  0  0  0  0  0  0  0
  194.8650  174.9690  140.9100 C   0  0  0  0  0  1  0  0  0  0  0  0
  194.4580  173.9780  139.8390 C   0  0  2  0  0  3  0  0  0  0  0  0
  192.9820  174.1840  139.5310 C   0  0  0  0  0  2  0  0  0  0  0  0
  193.2140  171.6950  139.4590 C   0  0  0  0  0  2  0  0  0  0  0  0
  191.6160  170.2280  139.7800 C   0  0  0  0  0  1  0  0  0  0  0  0
  191.8580  171.4830  139.2370 O   0  0  0  0  0  0  0  0  0  0  0  0
  2  3  1  0  0  0  0
  2  7  1  1  0  0  0
  3  6  1  6  0  0  0
  3  5  1  0  0  0  0
  3  4  1  0  0  0  0
  5  1  1  1  0  0  0
  5  4  1  0  0  0  0
  6  2  1  0  0  0  0
  8  9  1  0  0  0  0
  8  7  1  0  0  0  0
 10 14  2  0  0  0  0
 11  9  1  1  0  0  0
 11 10  1  0  0  0  0
 12 11  1  0  0  0  0
 12 13  2  0  0  0  0
 13 15  1  0  0  0  0
 13 14  1  0  0  0  0
 15 18  1  6  0  0  0
 15 17  1  0  0  0  0
 17 16  1  0  0  0  0
 19 20  1  6  0  0  0
 19 21  1  0  0  0  0
 19 18  1  0  0  0  0
 22 23  1  0  0  0  0
 22 21  1  0  0  0  0
 23 24  1  0  0  0  0
 25 24  1  0  0  0  0
 26 29  1  0  0  0  0
 26  1  1  1  0  0  0
 27 30  1  0  0  0  0
 27 28  2  0  0  0  0
 29 27  1  0  0  0  0
 30 35  1  0  0  0  0
 31 28  1  0  0  0  0
 31 34  1  0  0  0  0
 32 34  1  0  0  0  0
 34 33  2  0  0  0  0
 35 36  1  0  0  0  0
 36 37  1  0  0  0  0
 38 37  1  0  0  0  0
 38 40  1  0  0  0  0
 40 39  1  1  0  0  0
 40 41  1  0  0  0  0
 42 26  1  0  0  0  0
 43 47  1  6  0  0  0
 43 42  1  0  0  0  0
 45 43  1  0  0  0  0
 45 44  1  1  0  0  0
 46 45  1  0  0  0  0
 46 43  1  0  0  0  0
 49 47  1  0  0  0  0
 49 48  1  0  0  0  0
M  END
>  <MODEL>
8

>  <REMARK>
 VINA RESULT:      -4.1      2.431     10.488
  Name = 
  26 active torsions:
  status: ('A' for Active; 'I' for Inactive)
    1  A    between atoms: C_1  and  N_12
    2  A    between atoms: C_3  and  C_4
    3  A    between atoms: C_3  and  N_32
    4  A    between atoms: C_4  and  N_49
    5  A    between atoms: C_7  and  C_17
    6  A    between atoms: C_7  and  C_24
    7  A    between atoms: C_8  and  N_10
    8  A    between atoms: C_8  and  C_23
    9  A    between atoms: N_10  and  C_44
   10  A    between atoms: C_11  and  C_39
   11  A    between atoms: N_12  and  N_15
   12  A    between atoms: C_14  and  C_37
   13  A    between atoms: N_15  and  C_37
   14  A    between atoms: C_17  and  C_39
   15  A    between atoms: C_19  and  C_46
   16  A    between atoms: C_20  and  C_28
   17  A    between atoms: C_20  and  C_44
   18  A    between atoms: C_23  and  O_35
   19  A    between atoms: C_24  and  C_36
   20  A    between atoms: C_29  and  C_31
   21  A    between atoms: C_29  and  C_36
   22  A    between atoms: C_29  and  C_47
   23  A    between atoms: N_32  and  C_46
   24  A    between atoms: N_38  and  C_43
   25  A    between atoms: C_42  and  C_43
   26  A    between atoms: C_44  and  N_48
                            x       y       z     vdW  Elec       q    Type
                         _______ _______ _______ _____ _____    ______ ____

>  <TORSDO>
F 26

$$$$
=
 OpenBabel11042414093D

 49 52  0  0  1  0  0  0  0  0999 V2000
  192.0120  174.0130  142.9210 C   0  0  0  0  0  2  0  0  0  0  0  0
  188.1790  174.9330  142.4910 C   0  0  2  0  0  3  0  0  0  0  0  0
  189.5610  174.4740  143.0690 C   0  0  2  0  0  0  0  0  0  0  0  0
  190.3430  175.8030  143.0880 C   0  0  0  0  0  2  0  0  0  0  0  0
  190.8390  174.7000  142.2390 C   0  0  1  0  0  3  0  0  0  0  0  0
  188.7950  173.6810  142.0050 C   0  0  0  0  0  2  0  0  0  0  0  0
  188.2650  175.9180  141.4090 N   0  0  0  0  0  2  0  0  0  0  0  0
  187.7040  177.1330  141.8620 N   0  0  0  0  0  2  0  0  0  0  0  0
  186.2660  177.0980  141.6050 C   0  0  0  0  0  2  0  0  0  0  0  0
  185.5270  178.8880  143.1500 C   0  0  0  0  0  3  0  0  0  0  0  0
  185.4450  177.4190  142.8560 C   0  0  2  0  0  3  0  0  0  0  0  0
  186.0760  176.8070  144.0240 N   0  0  0  0  0  0  0  0  0  0  0  0
  186.4720  177.7500  144.8160 C   0  0  0  0  0  0  0  0  0  0  0  0
  186.1290  179.0770  144.3180 C   0  0  0  0  0  3  0  0  0  0  0  0
  187.1460  177.4440  146.1180 C   0  0  1  0  0  3  0  0  0  0  0  0
  185.7480  177.8880  148.0050 O   0  0  0  0  0  1  0  0  0  0  0  0
  186.1720  176.8730  147.1480 C   0  0  0  0  0  2  0  0  0  0  0  0
  188.3870  176.5740  145.9160 C   0  0  0  0  0  2  0  0  0  0  0  0
  188.9980  176.0890  147.2240 C   0  0  1  0  0  3  0  0  0  0  0  0
  189.0130  174.5720  147.2330 C   0  0  0  0  0  1  0  0  0  0  0  0
  190.4220  176.6070  147.3280 C   0  0  0  0  0  2  0  0  0  0  0  0
  191.3540  175.8520  146.3900 C   0  0  0  0  0  2  0  0  0  0  0  0
  192.8080  176.0530  146.7780 C   0  0  0  0  0  2  0  0  0  0  0  0
  193.6930  174.9820  146.1420 C   0  0  0  0  0  2  0  0  0  0  0  0
  195.0330  175.5080  145.9260 N   0  0  0  0  0  1  0  0  0  0  0  0
  192.8770  173.2950  141.8850 C   0  0  2  0  0  3  0  0  0  0  0  0
  192.3760  171.9880  139.7520 C   0  0  0  0  0  0  0  0  0  0  0  0
  191.6000  171.1810  139.0960 N   0  0  0  0  0  0  0  0  0  0  0  0
  192.0800  172.3430  141.1100 N   0  0  0  0  0  2  0  0  0  0  0  0
  193.5180  172.5550  139.0960 N   0  0  0  0  0  2  0  0  0  0  0  0
  190.4320  170.5290  139.6730 C   0  0  0  0  0  2  0  0  0  0  0  0
  190.8330  169.0590  141.6480 O   0  0  0  0  0  1  0  0  0  0  0  0
  191.1690  168.2100  139.4870 C   0  0  0  0  0  2  0  0  0  0  0  0
  190.8120  169.2170  140.2720 C   0  0  0  0  0  0  0  0  0  0  0  0
  193.7200  172.4870  137.6560 C   0  0  0  0  0  2  0  0  0  0  0  0
  192.3740  172.5340  136.9570 C   0  0  0  0  0  2  0  0  0  0  0  0
  192.2500  173.7780  136.2170 N   0  0  0  0  0  2  0  0  0  0  0  0
  191.1160  174.5050  136.7820 C   0  0  0  0  0  2  0  0  0  0  0  0
  190.5620  175.7870  134.7140 C   0  0  0  0  0  1  0  0  0  0  0  0
  190.0580  174.7650  135.7120 C   0  0  1  0  0  3  0  0  0  0  0  0
  189.7780  173.5710  135.0390 O   0  0  0  0  0  1  0  0  0  0  0  0
  194.0500  172.6650  142.5200 N   0  0  0  0  0  2  0  0  0  0  0  0
  195.3410  173.2710  142.1830 C   0  0  2  0  0  0  0  0  0  0  0  0
  196.3750  170.9390  142.3610 C   0  0  0  0  0  1  0  0  0  0  0  0
  196.6020  172.4110  142.0810 C   0  0  2  0  0  3  0  0  0  0  0  0
  196.3030  173.1930  143.3520 C   0  0  0  0  0  2  0  0  0  0  0  0
  195.3500  174.6640  141.5690 C   0  0  0  0  0  2  0  0  0  0  0  0
  196.0050  176.7450  141.7890 C   0  0  0  0  0  1  0  0  0  0  0  0
  195.6980  175.6100  142.5270 O   0  0  0  0  0  0  0  0  0  0  0  0
  2  7  1  6  0  0  0
  2  3  1  0  0  0  0
  3  6  1  1  0  0  0
  3  4  1  0  0  0  0
  5  1  1  1  0  0  0
  5  3  1  0  0  0  0
  5  4  1  0  0  0  0
  6  2  1  0  0  0  0
  7  8  1  0  0  0  0
  9  8  1  0  0  0  0
 10 14  2  0  0  0  0
 11  9  1  6  0  0  0
 11 10  1  0  0  0  0
 11 12  1  0  0  0  0
 12 13  2  0  0  0  0
 13 15  1  0  0  0  0
 14 13  1  0  0  0  0
 15 18  1  6  0  0  0
 15 17  1  0  0  0  0
 17 16  1  0  0  0  0
 18 19  1  0  0  0  0
 19 20  1  6  0  0  0
 19 21  1  0  0  0  0
 22 23  1  0  0  0  0
 22 21  1  0  0  0  0
 24 23  1  0  0  0  0
 25 24  1  0  0  0  0
 26 42  1  0  0  0  0
 26  1  1  1  0  0  0
 27 29  1  0  0  0  0
 28 31  1  0  0  0  0
 28 27  2  0  0  0  0
 29 26  1  0  0  0  0
 30 27  1  0  0  0  0
 31 34  1  0  0  0  0
 33 34  2  0  0  0  0
 34 32  1  0  0  0  0
 35 30  1  0  0  0  0
 36 35  1  0  0  0  0
 37 38  1  0  0  0  0
 37 36  1  0  0  0  0
 40 39  1  6  0  0  0
 40 38  1  0  0  0  0
 41 40  1  0  0  0  0
 43 47  1  6  0  0  0
 43 42  1  0  0  0  0
 43 46  1  0  0  0  0
 45 43  1  0  0  0  0
 45 44  1  1  0  0  0
 45 46  1  0  0  0  0
 47 49  1  0  0  0  0
 48 49  1  0  0  0  0
M  END
>  <MODEL>
9

>  <REMARK>
 VINA RESULT:      -4.0      2.697      8.299
  Name = 
  26 active torsions:
  status: ('A' for Active; 'I' for Inactive)
    1  A    between atoms: C_1  and  N_12
    2  A    between atoms: C_3  and  C_4
    3  A    between atoms: C_3  and  N_32
    4  A    between atoms: C_4  and  N_49
    5  A    between atoms: C_7  and  C_17
    6  A    between atoms: C_7  and  C_24
    7  A    between atoms: C_8  and  N_10
    8  A    between atoms: C_8  and  C_23
    9  A    between atoms: N_10  and  C_44
   10  A    between atoms: C_11  and  C_39
   11  A    between atoms: N_12  and  N_15
   12  A    between atoms: C_14  and  C_37
   13  A    between atoms: N_15  and  C_37
   14  A    between atoms: C_17  and  C_39
   15  A    between atoms: C_19  and  C_46
   16  A    between atoms: C_20  and  C_28
   17  A    between atoms: C_20  and  C_44
   18  A    between atoms: C_23  and  O_35
   19  A    between atoms: C_24  and  C_36
   20  A    between atoms: C_29  and  C_31
   21  A    between atoms: C_29  and  C_36
   22  A    between atoms: C_29  and  C_47
   23  A    between atoms: N_32  and  C_46
   24  A    between atoms: N_38  and  C_43
   25  A    between atoms: C_42  and  C_43
   26  A    between atoms: C_44  and  N_48
                            x       y       z     vdW  Elec       q    Type
                         _______ _______ _______ _____ _____    ______ ____

>  <TORSDO>
F 26

$$$$
