=
 OpenBabel11042413433D

 58 64  0  0  1  0  0  0  0  0999 V2000
  190.9960  174.9350  145.5890 S   0  0  0  0  0  0  0  0  0  0  0  0
  192.3080  176.7660  147.8660 C   0  0  0  0  0  2  0  0  0  0  0  0
  190.7980  176.6770  147.6930 C   0  0  0  0  0  2  0  0  0  0  0  0
  193.0290  176.5130  146.5490 C   0  0  0  0  0  2  0  0  0  0  0  0
  192.7640  175.0940  146.0570 C   0  0  2  0  0  3  0  0  0  0  0  0
  190.3890  175.2730  147.2760 C   0  0  1  0  0  3  0  0  0  0  0  0
  193.8660  175.6290  143.7160 C   0  0  1  0  0  3  0  0  0  0  0  0
  193.0350  174.3610  143.6280 C   0  0  0  0  0  2  0  0  0  0  0  0
  193.7440  174.7020  144.9290 C   0  0  2  0  0  0  0  0  0  0  0  0
  196.9850  173.3830  146.3950 C   0  0  0  0  0  3  0  0  0  0  0  0
  196.1000  174.2320  145.8730 C   0  0  0  0  0  3  0  0  0  0  0  0
  195.7450  171.4150  145.4130 C   0  0  0  0  0  2  0  0  0  0  0  0
  194.6540  172.4100  145.1180 C   0  0  0  0  0  3  0  0  0  0  0  0
  194.8520  173.7290  145.2560 C   0  0  0  0  0  0  0  0  0  0  0  0
  196.7410  171.9730  146.3290 N   0  0  0  0  0  2  0  0  0  0  0  0
  195.1520  175.4560  142.9150 C   0  0  0  0  0  2  0  0  0  0  0  0
  194.8750  175.6430  141.4320 C   0  0  0  0  0  2  0  0  0  0  0  0
  195.5140  174.5800  140.6670 N   0  0  0  0  0  2  0  0  0  0  0  0
  195.3550  171.8930  141.6040 C   0  0  0  0  0  2  0  0  0  0  0  0
  193.1610  174.4930  140.1070 C   0  0  0  0  0  2  0  0  0  0  0  0
  194.4600  173.6990  140.1850 C   0  0  2  0  0  3  0  0  0  0  0  0
  194.2820  172.4970  141.0910 C   0  0  0  0  0  0  0  0  0  0  0  0
  191.9220  172.3360  140.1580 C   0  0  0  0  0  0  0  0  0  0  0  0
  190.1010  171.0780  141.3400 C   0  0  2  0  0  3  0  0  0  0  0  0
  191.2020  170.4080  142.1840 C   0  0  0  0  0  2  0  0  0  0  0  0
  190.6760  171.5050  139.9760 C   0  0  1  0  0  3  0  0  0  0  0  0
  192.4350  171.3110  142.3510 C   0  0  0  0  0  2  0  0  0  0  0  0
  193.0090  171.6850  140.9820 C   0  0  2  0  0  3  0  0  0  0  0  0
  191.9990  173.6140  139.7480 C   0  0  0  0  0  3  0  0  0  0  0  0
  189.6640  172.0470  139.0040 C   0  0  0  0  0  0  0  0  0  0  0  0
  189.5890  171.5540  137.8450 O   0  0  0  0  0  0  0  0  0  0  0  0
  188.8670  173.1330  139.3370 O   0  0  0  0  0  1  0  0  0  0  0  0
  189.2880  171.8950  143.5610 C   0  0  0  0  0  1  0  0  0  0  0  0
  189.4850  172.2520  142.1010 C   0  0  0  0  0  2  0  0  0  0  0  0
  188.8740  175.1630  147.3050 C   0  0  0  0  0  2  0  0  0  0  0  0
  188.2860  175.9740  146.2490 N   0  0  0  0  0  2  0  0  0  0  0  0
  184.9230  178.0130  148.0700 F   0  0  0  0  0  0  0  0  0  0  0  0
  185.9090  178.6720  147.3580 C   0  0  0  0  0  0  0  0  0  0  0  0
  187.0020  176.4600  146.7320 C   0  0  1  0  0  3  0  0  0  0  0  0
  185.4200  178.9020  145.9130 C   0  0  1  0  0  3  0  0  0  0  0  0
  186.1510  179.8890  147.9750 F   0  0  0  0  0  0  0  0  0  0  0  0
  185.8050  180.1450  145.4460 F   0  0  0  0  0  0  0  0  0  0  0  0
  187.1910  177.8400  147.3850 C   0  0  0  0  0  2  0  0  0  0  0  0
  185.8810  177.8240  144.9200 C   0  0  1  0  0  3  0  0  0  0  0  0
  185.9710  176.4560  145.5940 C   0  0  0  0  0  2  0  0  0  0  0  0
  184.9890  177.7670  143.8460 O   0  0  0  0  0  0  0  0  0  0  0  0
  186.9080  178.7860  142.8140 C   0  0  0  0  0  2  0  0  0  0  0  0
  186.5000  177.6490  140.6380 C   0  0  0  0  0  2  0  0  0  0  0  0
  185.3830  178.7930  142.9810 C   0  0  1  0  0  3  0  0  0  0  0  0
  184.7190  178.6190  141.6120 C   0  0  0  0  0  2  0  0  0  0  0  0
  185.1600  177.4300  141.0060 O   0  0  0  0  0  0  0  0  0  0  0  0
  187.4200  177.6750  141.8830 C   0  0  2  0  0  0  0  0  0  0  0  0
  187.3490  176.3510  142.6440 C   0  0  0  0  0  1  0  0  0  0  0  0
  188.7680  177.9960  141.5690 O   0  0  0  0  0  0  0  0  0  0  0  0
  189.4520  177.7820  144.1520 O   0  0  0  0  0  1  0  0  0  0  0  0
  190.0480  175.7540  142.6100 O   0  0  0  0  0  1  0  0  0  0  0  0
  189.8870  177.4330  142.7440 P   0  0  0  0  0  0  0  0  0  0  0  0
  191.3940  178.1470  142.4440 O   0  0  0  0  0  0  0  0  0  0  0  0
  1  5  1  0  0  0  0
  1  6  1  0  0  0  0
  3  2  1  0  0  0  0
  4  2  1  0  0  0  0
  5  4  1  6  0  0  0
  6 35  1  6  0  0  0
  6  3  1  0  0  0  0
  7 16  1  6  0  0  0
  7  9  1  0  0  0  0
  8  7  1  0  0  0  0
  8  9  1  0  0  0  0
  9 14  1  1  0  0  0
  9  5  1  0  0  0  0
 11 10  2  0  0  0  0
 12 15  1  0  0  0  0
 13 14  2  0  0  0  0
 13 12  1  0  0  0  0
 14 11  1  0  0  0  0
 15 10  1  0  0  0  0
 17 16  1  0  0  0  0
 18 17  1  0  0  0  0
 20 21  1  0  0  0  0
 21 18  1  1  0  0  0
 21 22  1  0  0  0  0
 22 19  2  0  0  0  0
 23 28  1  0  0  0  0
 24 34  1  1  0  0  0
 24 25  1  0  0  0  0
 25 27  1  0  0  0  0
 26 30  1  1  0  0  0
 26 23  1  0  0  0  0
 26 24  1  0  0  0  0
 28 22  1  0  0  0  0
 28 27  1  1  0  0  0
 29 20  1  0  0  0  0
 29 23  2  0  0  0  0
 30 32  1  0  0  0  0
 31 30  2  0  0  0  0
 34 33  1  0  0  0  0
 36 35  1  0  0  0  0
 38 43  1  0  0  0  0
 38 41  1  0  0  0  0
 38 37  1  0  0  0  0
 39 36  1  6  0  0  0
 39 43  1  0  0  0  0
 40 42  1  6  0  0  0
 40 38  1  0  0  0  0
 44 46  1  6  0  0  0
 44 45  1  0  0  0  0
 44 40  1  0  0  0  0
 45 39  1  0  0  0  0
 47 49  1  0  0  0  0
 48 51  1  0  0  0  0
 48 52  1  0  0  0  0
 49 46  1  1  0  0  0
 50 49  1  0  0  0  0
 51 50  1  0  0  0  0
 52 53  1  1  0  0  0
 52 47  1  0  0  0  0
 54 52  1  0  0  0  0
 54 57  1  0  0  0  0
 56 57  1  0  0  0  0
 57 55  1  0  0  0  0
 58 57  2  0  0  0  0
M  END
>  <MODEL>
1

>  <REMARK>
 VINA RESULT:      -8.3      0.000      0.000
  Name = 
  15 active torsions:
  status: ('A' for Active; 'I' for Inactive)
    1  A    between atoms: N_3  and  C_4
    2  A    between atoms: N_3  and  C_15
    3  A    between atoms: C_4  and  C_20
    4  A    between atoms: C_7  and  C_47
    5  A    between atoms: C_11  and  C_34
    6  A    between atoms: N_13  and  C_25
    7  A    between atoms: N_13  and  C_37
    8  A    between atoms: O_19  and  C_26
    9  A    between atoms: O_19  and  C_55
   10  A    between atoms: C_20  and  C_22
   11  A    between atoms: C_25  and  C_53
   12  A    between atoms: P_31  and  O_50
   13  A    between atoms: C_40  and  O_50
   14  A    between atoms: C_42  and  C_57
   15  A    between atoms: C_43  and  C_57
                            x       y       z     vdW  Elec       q    Type
                         _______ _______ _______ _____ _____    ______ ____

>  <TORSDO>
F 15

$$$$
=
 OpenBabel11042413433D

 58 64  0  0  1  0  0  0  0  0999 V2000
  191.7760  175.1020  146.4800 S   0  0  0  0  0  0  0  0  0  0  0  0
  190.8920  173.0890  144.1520 C   0  0  0  0  0  2  0  0  0  0  0  0
  189.9850  173.3700  145.3420 C   0  0  0  0  0  2  0  0  0  0  0  0
  192.3580  173.2670  144.5210 C   0  0  0  0  0  2  0  0  0  0  0  0
  192.6410  174.7160  144.9080 C   0  0  2  0  0  3  0  0  0  0  0  0
  190.1140  174.8200  145.7810 C   0  0  1  0  0  3  0  0  0  0  0  0
  195.0070  174.2730  145.9980 C   0  0  1  0  0  3  0  0  0  0  0  0
  194.5900  175.7180  146.2150 C   0  0  0  0  0  2  0  0  0  0  0  0
  194.1590  174.9960  144.9470 C   0  0  2  0  0  0  0  0  0  0  0  0
  196.6740  176.8560  142.7990 C   0  0  0  0  0  3  0  0  0  0  0  0
  195.9250  176.5290  143.8520 C   0  0  0  0  0  3  0  0  0  0  0  0
  195.0860  175.6640  141.2410 C   0  0  0  0  0  2  0  0  0  0  0  0
  194.4750  175.1020  142.4960 C   0  0  0  0  0  3  0  0  0  0  0  0
  194.8090  175.5660  143.7080 C   0  0  0  0  0  0  0  0  0  0  0  0
  196.3770  176.2980  141.5140 N   0  0  0  0  0  2  0  0  0  0  0  0
  196.4950  174.2120  145.6760 C   0  0  0  0  0  2  0  0  0  0  0  0
  197.0610  172.8550  146.0640 C   0  0  0  0  0  2  0  0  0  0  0  0
  197.5470  172.1590  144.8810 N   0  0  0  0  0  2  0  0  0  0  0  0
  197.9410  173.2600  142.2810 C   0  0  0  0  0  2  0  0  0  0  0  0
  195.7450  170.8030  144.0010 C   0  0  0  0  0  2  0  0  0  0  0  0
  196.4620  172.1450  143.9090 C   0  0  2  0  0  3  0  0  0  0  0  0
  196.9750  172.3650  142.4990 C   0  0  0  0  0  0  0  0  0  0  0  0
  194.8580  171.1990  141.7110 C   0  0  0  0  0  0  0  0  0  0  0  0
  194.6580  170.1980  139.4190 C   0  0  2  0  0  3  0  0  0  0  0  0
  195.9010  171.0180  139.0240 C   0  0  0  0  0  2  0  0  0  0  0  0
  193.9140  170.8990  140.5720 C   0  0  1  0  0  3  0  0  0  0  0  0
  196.8310  171.2710  140.2210 C   0  0  0  0  0  2  0  0  0  0  0  0
  196.0790  172.0050  141.3340 C   0  0  2  0  0  3  0  0  0  0  0  0
  194.7000  170.6620  142.9330 C   0  0  0  0  0  3  0  0  0  0  0  0
  192.6040  170.2710  140.9560 C   0  0  0  0  0  0  0  0  0  0  0  0
  191.6830  170.9910  141.4320 O   0  0  0  0  0  1  0  0  0  0  0  0
  192.4190  168.8980  140.8680 O   0  0  0  0  0  0  0  0  0  0  0  0
  195.9580  168.1830  138.7060 C   0  0  0  0  0  1  0  0  0  0  0  0
  195.0530  168.7640  139.7730 C   0  0  0  0  0  2  0  0  0  0  0  0
  189.0600  175.1200  146.8350 C   0  0  0  0  0  2  0  0  0  0  0  0
  188.8350  176.5540  146.9330 N   0  0  0  0  0  2  0  0  0  0  0  0
  184.7400  177.8750  147.4490 F   0  0  0  0  0  0  0  0  0  0  0  0
  185.7600  178.7190  147.0480 C   0  0  0  0  0  0  0  0  0  0  0  0
  187.3960  176.7720  146.9480 C   0  0  1  0  0  3  0  0  0  0  0  0
  185.7340  178.8470  145.5100 C   0  0  1  0  0  3  0  0  0  0  0  0
  185.5520  179.9590  147.6290 F   0  0  0  0  0  0  0  0  0  0  0  0
  186.0060  180.1430  145.1120 F   0  0  0  0  0  0  0  0  0  0  0  0
  187.0970  178.1610  147.5370 C   0  0  0  0  0  2  0  0  0  0  0  0
  186.6880  177.8850  144.7890 C   0  0  1  0  0  3  0  0  0  0  0  0
  186.8130  176.5620  145.5440 C   0  0  0  0  0  2  0  0  0  0  0  0
  186.2230  177.6500  143.4930 O   0  0  0  0  0  0  0  0  0  0  0  0
  188.3870  177.1150  142.5890 C   0  0  0  0  0  2  0  0  0  0  0  0
  187.4380  176.3970  140.4030 C   0  0  0  0  0  2  0  0  0  0  0  0
  187.2310  178.1220  142.6450 C   0  0  1  0  0  3  0  0  0  0  0  0
  186.6790  178.3450  141.2340 C   0  0  0  0  0  2  0  0  0  0  0  0
  186.2650  177.1230  140.6760 O   0  0  0  0  0  0  0  0  0  0  0  0
  188.0930  175.8880  141.7100 C   0  0  2  0  0  0  0  0  0  0  0  0
  187.1400  174.9740  142.4810 C   0  0  0  0  0  1  0  0  0  0  0  0
  189.3360  175.2370  141.4910 O   0  0  0  0  0  0  0  0  0  0  0  0
  188.1610  174.0860  139.3740 O   0  0  0  0  0  0  0  0  0  0  0  0
  190.7090  173.5960  139.7100 O   0  0  0  0  0  1  0  0  0  0  0  0
  189.2120  173.8800  140.4450 P   0  0  0  0  0  0  0  0  0  0  0  0
  188.7940  172.5210  141.3670 O   0  0  0  0  0  1  0  0  0  0  0  0
  2  4  1  0  0  0  0
  2  3  1  0  0  0  0
  3  6  1  0  0  0  0
  5  4  1  1  0  0  0
  5  9  1  0  0  0  0
  5  1  1  0  0  0  0
  6  1  1  0  0  0  0
  6 35  1  1  0  0  0
  7 16  1  6  0  0  0
  7  8  1  0  0  0  0
  9 14  1  6  0  0  0
  9  7  1  0  0  0  0
  9  8  1  0  0  0  0
 10 11  2  0  0  0  0
 12 15  1  0  0  0  0
 12 13  1  0  0  0  0
 13 14  2  0  0  0  0
 14 11  1  0  0  0  0
 15 10  1  0  0  0  0
 16 17  1  0  0  0  0
 18 17  1  0  0  0  0
 19 22  2  0  0  0  0
 21 20  1  0  0  0  0
 21 18  1  1  0  0  0
 22 21  1  0  0  0  0
 23 29  2  0  0  0  0
 24 34  1  1  0  0  0
 24 26  1  0  0  0  0
 25 24  1  0  0  0  0
 25 27  1  0  0  0  0
 26 30  1  1  0  0  0
 26 23  1  0  0  0  0
 28 27  1  6  0  0  0
 28 23  1  0  0  0  0
 28 22  1  0  0  0  0
 29 20  1  0  0  0  0
 30 31  1  0  0  0  0
 32 30  2  0  0  0  0
 33 34  1  0  0  0  0
 35 36  1  0  0  0  0
 38 37  1  0  0  0  0
 38 43  1  0  0  0  0
 38 41  1  0  0  0  0
 39 36  1  6  0  0  0
 39 43  1  0  0  0  0
 40 42  1  1  0  0  0
 40 38  1  0  0  0  0
 44 46  1  6  0  0  0
 44 40  1  0  0  0  0
 44 45  1  0  0  0  0
 45 39  1  0  0  0  0
 47 49  1  0  0  0  0
 48 51  1  0  0  0  0
 48 52  1  0  0  0  0
 49 46  1  1  0  0  0
 50 49  1  0  0  0  0
 51 50  1  0  0  0  0
 52 53  1  1  0  0  0
 52 47  1  0  0  0  0
 54 52  1  0  0  0  0
 55 57  2  0  0  0  0
 56 57  1  0  0  0  0
 57 58  1  0  0  0  0
 57 54  1  0  0  0  0
M  END
>  <MODEL>
2

>  <REMARK>
 VINA RESULT:      -7.9      1.898      3.827
  Name = 
  15 active torsions:
  status: ('A' for Active; 'I' for Inactive)
    1  A    between atoms: N_3  and  C_4
    2  A    between atoms: N_3  and  C_15
    3  A    between atoms: C_4  and  C_20
    4  A    between atoms: C_7  and  C_47
    5  A    between atoms: C_11  and  C_34
    6  A    between atoms: N_13  and  C_25
    7  A    between atoms: N_13  and  C_37
    8  A    between atoms: O_19  and  C_26
    9  A    between atoms: O_19  and  C_55
   10  A    between atoms: C_20  and  C_22
   11  A    between atoms: C_25  and  C_53
   12  A    between atoms: P_31  and  O_50
   13  A    between atoms: C_40  and  O_50
   14  A    between atoms: C_42  and  C_57
   15  A    between atoms: C_43  and  C_57
                            x       y       z     vdW  Elec       q    Type
                         _______ _______ _______ _____ _____    ______ ____

>  <TORSDO>
F 15

$$$$
=
 OpenBabel11042413433D

 58 64  0  0  1  0  0  0  0  0999 V2000
  190.9350  176.4450  145.1190 S   0  0  0  0  0  0  0  0  0  0  0  0
  192.1690  176.4740  148.0740 C   0  0  0  0  0  2  0  0  0  0  0  0
  190.8380  177.1450  147.7650 C   0  0  0  0  0  2  0  0  0  0  0  0
  193.0700  176.4460  146.8470 C   0  0  0  0  0  2  0  0  0  0  0  0
  192.4430  175.6030  145.7410 C   0  0  2  0  0  3  0  0  0  0  0  0
  190.0680  176.3500  146.7220 C   0  0  1  0  0  3  0  0  0  0  0  0
  194.4380  176.3770  144.1920 C   0  0  1  0  0  3  0  0  0  0  0  0
  193.2180  176.0440  143.3500 C   0  0  0  0  0  2  0  0  0  0  0  0
  193.4730  175.2750  144.6370 C   0  0  2  0  0  0  0  0  0  0  0  0
  194.5030  171.6970  145.3700 C   0  0  0  0  0  3  0  0  0  0  0  0
  194.4230  173.0240  145.4710 C   0  0  0  0  0  3  0  0  0  0  0  0
  193.7660  171.7920  142.9570 C   0  0  0  0  0  2  0  0  0  0  0  0
  193.4280  173.2300  143.2470 C   0  0  0  0  0  3  0  0  0  0  0  0
  193.8080  173.8240  144.3870 C   0  0  0  0  0  0  0  0  0  0  0  0
  194.0200  171.0450  144.1900 N   0  0  0  0  0  2  0  0  0  0  0  0
  195.6960  175.8710  143.4940 C   0  0  0  0  0  2  0  0  0  0  0  0
  195.6970  176.3010  142.0370 C   0  0  0  0  0  2  0  0  0  0  0  0
  196.6480  175.5000  141.2790 N   0  0  0  0  0  2  0  0  0  0  0  0
  197.3870  172.9990  140.1290 C   0  0  0  0  0  2  0  0  0  0  0  0
  194.4680  175.2950  140.2500 C   0  0  0  0  0  2  0  0  0  0  0  0
  195.9560  175.0070  140.0970 C   0  0  2  0  0  3  0  0  0  0  0  0
  196.1800  173.5190  139.9010 C   0  0  0  0  0  0  0  0  0  0  0  0
  194.0210  173.5270  138.5580 C   0  0  0  0  0  0  0  0  0  0  0  0
  192.7120  171.4310  138.1210 C   0  0  2  0  0  3  0  0  0  0  0  0
  193.9640  170.6390  138.5450 C   0  0  0  0  0  2  0  0  0  0  0  0
  193.1270  172.8120  137.5760 C   0  0  1  0  0  3  0  0  0  0  0  0
  194.8210  171.4120  139.5610 C   0  0  0  0  0  2  0  0  0  0  0  0
  195.2540  172.7590  138.9780 C   0  0  2  0  0  3  0  0  0  0  0  0
  193.6710  174.6920  139.1300 C   0  0  0  0  0  3  0  0  0  0  0  0
  192.0040  173.6280  136.9980 C   0  0  0  0  0  0  0  0  0  0  0  0
  192.1770  174.2400  135.9080 O   0  0  0  0  0  0  0  0  0  0  0  0
  190.8080  173.7810  137.6850 O   0  0  0  0  0  1  0  0  0  0  0  0
  190.7880  170.3550  139.3040 C   0  0  0  0  0  1  0  0  0  0  0  0
  191.7300  171.5420  139.2880 C   0  0  0  0  0  2  0  0  0  0  0  0
  188.6710  176.9290  146.5810 C   0  0  0  0  0  2  0  0  0  0  0  0
  187.6700  175.9270  146.9150 N   0  0  0  0  0  2  0  0  0  0  0  0
  184.2690  178.5080  147.6600 F   0  0  0  0  0  0  0  0  0  0  0  0
  185.4860  178.9780  147.2000 C   0  0  0  0  0  0  0  0  0  0  0  0
  186.3850  176.6040  147.0110 C   0  0  1  0  0  3  0  0  0  0  0  0
  185.4210  179.1330  145.6660 C   0  0  1  0  0  3  0  0  0  0  0  0
  185.7290  180.2080  147.7900 F   0  0  0  0  0  0  0  0  0  0  0  0
  186.0810  180.2750  145.2500 F   0  0  0  0  0  0  0  0  0  0  0  0
  186.5900  178.0050  147.6130 C   0  0  0  0  0  2  0  0  0  0  0  0
  185.9660  177.9230  144.8930 C   0  0  1  0  0  3  0  0  0  0  0  0
  185.6900  176.6200  145.6420 C   0  0  0  0  0  2  0  0  0  0  0  0
  185.3800  177.8760  143.6260 O   0  0  0  0  0  0  0  0  0  0  0  0
  187.6410  177.9000  142.8050 C   0  0  0  0  0  2  0  0  0  0  0  0
  186.9980  176.8740  140.6310 C   0  0  0  0  0  2  0  0  0  0  0  0
  186.2600  178.5660  142.7840 C   0  0  1  0  0  3  0  0  0  0  0  0
  185.7220  178.5810  141.3500 C   0  0  0  0  0  2  0  0  0  0  0  0
  185.6660  177.2730  140.8390 O   0  0  0  0  0  0  0  0  0  0  0  0
  187.7140  176.6060  141.9770 C   0  0  2  0  0  0  0  0  0  0  0  0
  187.0070  175.5030  142.7640 C   0  0  0  0  0  1  0  0  0  0  0  0
  189.0920  176.3010  141.8210 O   0  0  0  0  0  0  0  0  0  0  0  0
  190.8210  174.3470  141.2060 O   0  0  0  0  0  1  0  0  0  0  0  0
  189.0790  173.8200  143.0850 O   0  0  0  0  0  1  0  0  0  0  0  0
  189.3930  174.6210  141.6280 P   0  0  0  0  0  0  0  0  0  0  0  0
  188.3460  174.0150  140.4410 O   0  0  0  0  0  0  0  0  0  0  0  0
  1  5  1  0  0  0  0
  1  6  1  0  0  0  0
  3  2  1  0  0  0  0
  4  2  1  0  0  0  0
  5  4  1  1  0  0  0
  6 35  1  6  0  0  0
  6  3  1  0  0  0  0
  7 16  1  6  0  0  0
  7  9  1  0  0  0  0
  8  7  1  0  0  0  0
  8  9  1  0  0  0  0
  9 14  1  6  0  0  0
  9  5  1  0  0  0  0
 10 11  2  0  0  0  0
 12 13  1  0  0  0  0
 12 15  1  0  0  0  0
 13 14  2  0  0  0  0
 14 11  1  0  0  0  0
 15 10  1  0  0  0  0
 17 16  1  0  0  0  0
 18 17  1  0  0  0  0
 21 20  1  0  0  0  0
 21 18  1  1  0  0  0
 22 21  1  0  0  0  0
 22 19  2  0  0  0  0
 23 28  1  0  0  0  0
 23 29  2  0  0  0  0
 24 25  1  0  0  0  0
 24 34  1  1  0  0  0
 25 27  1  0  0  0  0
 26 30  1  1  0  0  0
 26 24  1  0  0  0  0
 26 23  1  0  0  0  0
 28 27  1  1  0  0  0
 28 22  1  0  0  0  0
 29 20  1  0  0  0  0
 30 32  1  0  0  0  0
 31 30  2  0  0  0  0
 34 33  1  0  0  0  0
 35 36  1  0  0  0  0
 38 43  1  0  0  0  0
 38 37  1  0  0  0  0
 38 41  1  0  0  0  0
 39 36  1  6  0  0  0
 39 43  1  0  0  0  0
 40 42  1  1  0  0  0
 40 38  1  0  0  0  0
 44 46  1  6  0  0  0
 44 45  1  0  0  0  0
 44 40  1  0  0  0  0
 45 39  1  0  0  0  0
 48 51  1  0  0  0  0
 48 52  1  0  0  0  0
 49 47  1  0  0  0  0
 49 46  1  1  0  0  0
 50 49  1  0  0  0  0
 51 50  1  0  0  0  0
 52 53  1  1  0  0  0
 52 47  1  0  0  0  0
 54 52  1  0  0  0  0
 55 57  1  0  0  0  0
 57 54  1  0  0  0  0
 57 56  1  0  0  0  0
 58 57  2  0  0  0  0
M  END
>  <MODEL>
3

>  <REMARK>
 VINA RESULT:      -7.8      1.703      2.364
  Name = 
  15 active torsions:
  status: ('A' for Active; 'I' for Inactive)
    1  A    between atoms: N_3  and  C_4
    2  A    between atoms: N_3  and  C_15
    3  A    between atoms: C_4  and  C_20
    4  A    between atoms: C_7  and  C_47
    5  A    between atoms: C_11  and  C_34
    6  A    between atoms: N_13  and  C_25
    7  A    between atoms: N_13  and  C_37
    8  A    between atoms: O_19  and  C_26
    9  A    between atoms: O_19  and  C_55
   10  A    between atoms: C_20  and  C_22
   11  A    between atoms: C_25  and  C_53
   12  A    between atoms: P_31  and  O_50
   13  A    between atoms: C_40  and  O_50
   14  A    between atoms: C_42  and  C_57
   15  A    between atoms: C_43  and  C_57
                            x       y       z     vdW  Elec       q    Type
                         _______ _______ _______ _____ _____    ______ ____

>  <TORSDO>
F 15

$$$$
=
 OpenBabel11042413433D

 58 64  0  0  1  0  0  0  0  0999 V2000
  195.5920  173.5700  141.7910 S   0  0  0  0  0  0  0  0  0  0  0  0
  196.1740  176.6710  141.2430 C   0  0  0  0  0  2  0  0  0  0  0  0
  196.6120  175.5970  140.2570 C   0  0  0  0  0  2  0  0  0  0  0  0
  196.1100  176.1230  142.6630 C   0  0  0  0  0  2  0  0  0  0  0  0
  195.0520  175.0290  142.7650 C   0  0  2  0  0  3  0  0  0  0  0  0
  195.5900  174.4720  140.2050 C   0  0  1  0  0  3  0  0  0  0  0  0
  194.3940  175.8650  145.1840 C   0  0  1  0  0  3  0  0  0  0  0  0
  195.7760  175.2350  145.2030 C   0  0  0  0  0  2  0  0  0  0  0  0
  194.7250  174.7050  144.2400 C   0  0  2  0  0  0  0  0  0  0  0  0
  192.6970  171.5000  144.1250 C   0  0  0  0  0  3  0  0  0  0  0  0
  192.9960  172.7970  144.0540 C   0  0  0  0  0  3  0  0  0  0  0  0
  194.6990  171.0750  145.6040 C   0  0  0  0  0  2  0  0  0  0  0  0
  195.1150  172.4720  145.2310 C   0  0  0  0  0  3  0  0  0  0  0  0
  194.2860  173.3000  144.5790 C   0  0  0  0  0  0  0  0  0  0  0  0
  193.6170  170.5930  144.7440 N   0  0  0  0  0  2  0  0  0  0  0  0
  193.6280  175.4600  146.4380 C   0  0  0  0  0  2  0  0  0  0  0  0
  192.7540  176.6090  146.9140 C   0  0  0  0  0  2  0  0  0  0  0  0
  191.4730  176.1010  147.3860 N   0  0  0  0  0  2  0  0  0  0  0  0
  189.0360  174.6280  147.5030 C   0  0  0  0  0  2  0  0  0  0  0  0
  190.4940  177.5280  145.6940 C   0  0  0  0  0  2  0  0  0  0  0  0
  190.5580  176.1120  146.2540 C   0  0  2  0  0  3  0  0  0  0  0  0
  189.1700  175.6490  146.6560 C   0  0  0  0  0  0  0  0  0  0  0  0
  188.3230  176.9380  144.6350 C   0  0  0  0  0  0  0  0  0  0  0  0
  185.9250  177.6430  144.4100 C   0  0  2  0  0  3  0  0  0  0  0  0
  185.5930  176.6400  145.5310 C   0  0  0  0  0  2  0  0  0  0  0  0
  187.1960  177.1920  143.6640 C   0  0  1  0  0  3  0  0  0  0  0  0
  186.7720  176.4410  146.4970 C   0  0  0  0  0  2  0  0  0  0  0  0
  188.0070  175.9530  145.7370 C   0  0  2  0  0  3  0  0  0  0  0  0
  189.4650  177.6460  144.6090 C   0  0  0  0  0  3  0  0  0  0  0  0
  187.5460  178.0130  142.4550 C   0  0  0  0  0  0  0  0  0  0  0  0
  186.6660  178.7420  141.9200 O   0  0  0  0  0  1  0  0  0  0  0  0
  188.8020  177.9210  141.8700 O   0  0  0  0  0  0  0  0  0  0  0  0
  184.9290  179.3500  145.9430 C   0  0  0  0  0  1  0  0  0  0  0  0
  186.0600  179.0560  144.9790 C   0  0  0  0  0  2  0  0  0  0  0  0
  195.9510  173.5210  139.0760 C   0  0  0  0  0  2  0  0  0  0  0  0
  195.5660  174.0870  137.7920 N   0  0  0  0  0  2  0  0  0  0  0  0
  195.6820  170.4700  135.4080 F   0  0  0  0  0  0  0  0  0  0  0  0
  195.7450  170.4650  136.7900 C   0  0  0  0  0  0  0  0  0  0  0  0
  195.3780  172.9830  136.8630 C   0  0  1  0  0  3  0  0  0  0  0  0
  194.3370  170.1890  137.3580 C   0  0  1  0  0  3  0  0  0  0  0  0
  196.6180  169.4630  137.1810 F   0  0  0  0  0  0  0  0  0  0  0  0
  194.3980  169.3560  138.4610 F   0  0  0  0  0  0  0  0  0  0  0  0
  196.2850  171.8110  137.2740 C   0  0  0  0  0  2  0  0  0  0  0  0
  193.5530  171.4570  137.7250 C   0  0  1  0  0  3  0  0  0  0  0  0
  193.8920  172.6080  136.7790 C   0  0  0  0  0  2  0  0  0  0  0  0
  192.1830  171.1890  137.6760 O   0  0  0  0  0  0  0  0  0  0  0  0
  191.6880  172.2240  139.7910 C   0  0  0  0  0  2  0  0  0  0  0  0
  189.2300  171.9950  139.4720 C   0  0  0  0  0  2  0  0  0  0  0  0
  191.8100  170.9170  138.9970 C   0  0  1  0  0  3  0  0  0  0  0  0
  190.4720  170.1720  139.0300 C   0  0  0  0  0  2  0  0  0  0  0  0
  189.4500  170.9880  138.5150 O   0  0  0  0  0  0  0  0  0  0  0  0
  190.4000  173.0090  139.4900 C   0  0  2  0  0  0  0  0  0  0  0  0
  190.5650  173.6800  138.1260 C   0  0  0  0  0  1  0  0  0  0  0  0
  190.2710  173.9860  140.5120 O   0  0  0  0  0  0  0  0  0  0  0  0
  189.9110  174.1100  143.1660 O   0  0  0  0  0  1  0  0  0  0  0  0
  187.7900  173.6080  141.7170 O   0  0  0  0  0  0  0  0  0  0  0  0
  189.4580  173.3990  141.9070 P   0  0  0  0  0  0  0  0  0  0  0  0
  189.7820  171.7430  142.0680 O   0  0  0  0  0  1  0  0  0  0  0  0
  1  5  1  0  0  0  0
  2  4  1  0  0  0  0
  3  2  1  0  0  0  0
  5  4  1  1  0  0  0
  5  9  1  0  0  0  0
  6 35  1  6  0  0  0
  6  3  1  0  0  0  0
  6  1  1  0  0  0  0
  7  8  1  0  0  0  0
  7 16  1  1  0  0  0
  9 14  1  1  0  0  0
  9  7  1  0  0  0  0
  9  8  1  0  0  0  0
 10 15  1  0  0  0  0
 11 10  2  0  0  0  0
 11 14  1  0  0  0  0
 13 12  1  0  0  0  0
 14 13  2  0  0  0  0
 15 12  1  0  0  0  0
 16 17  1  0  0  0  0
 17 18  1  0  0  0  0
 20 21  1  0  0  0  0
 21 22  1  0  0  0  0
 21 18  1  1  0  0  0
 22 19  2  0  0  0  0
 23 28  1  0  0  0  0
 24 34  1  1  0  0  0
 24 25  1  0  0  0  0
 25 27  1  0  0  0  0
 26 30  1  6  0  0  0
 26 24  1  0  0  0  0
 26 23  1  0  0  0  0
 28 27  1  1  0  0  0
 28 22  1  0  0  0  0
 29 23  2  0  0  0  0
 29 20  1  0  0  0  0
 31 30  1  0  0  0  0
 32 30  2  0  0  0  0
 34 33  1  0  0  0  0
 36 35  1  0  0  0  0
 37 38  1  0  0  0  0
 38 41  1  0  0  0  0
 38 43  1  0  0  0  0
 38 40  1  0  0  0  0
 39 43  1  0  0  0  0
 39 36  1  1  0  0  0
 40 44  1  0  0  0  0
 40 42  1  1  0  0  0
 44 46  1  6  0  0  0
 45 39  1  0  0  0  0
 45 44  1  0  0  0  0
 48 52  1  0  0  0  0
 49 46  1  6  0  0  0
 49 50  1  0  0  0  0
 49 47  1  0  0  0  0
 51 50  1  0  0  0  0
 51 48  1  0  0  0  0
 52 53  1  6  0  0  0
 52 47  1  0  0  0  0
 52 54  1  0  0  0  0
 54 57  1  0  0  0  0
 56 57  2  0  0  0  0
 57 58  1  0  0  0  0
 57 55  1  0  0  0  0
M  END
>  <MODEL>
4

>  <REMARK>
 VINA RESULT:      -7.6      4.389      8.901
  Name = 
  15 active torsions:
  status: ('A' for Active; 'I' for Inactive)
    1  A    between atoms: N_3  and  C_4
    2  A    between atoms: N_3  and  C_15
    3  A    between atoms: C_4  and  C_20
    4  A    between atoms: C_7  and  C_47
    5  A    between atoms: C_11  and  C_34
    6  A    between atoms: N_13  and  C_25
    7  A    between atoms: N_13  and  C_37
    8  A    between atoms: O_19  and  C_26
    9  A    between atoms: O_19  and  C_55
   10  A    between atoms: C_20  and  C_22
   11  A    between atoms: C_25  and  C_53
   12  A    between atoms: P_31  and  O_50
   13  A    between atoms: C_40  and  O_50
   14  A    between atoms: C_42  and  C_57
   15  A    between atoms: C_43  and  C_57
                            x       y       z     vdW  Elec       q    Type
                         _______ _______ _______ _____ _____    ______ ____

>  <TORSDO>
F 15

$$$$
=
 OpenBabel11042413433D

 58 64  0  0  1  0  0  0  0  0999 V2000
  194.8990  173.3480  141.4490 S   0  0  0  0  0  0  0  0  0  0  0  0
  195.3900  176.5050  141.2260 C   0  0  0  0  0  2  0  0  0  0  0  0
  196.1310  175.5230  140.3290 C   0  0  0  0  0  2  0  0  0  0  0  0
  195.0100  175.8610  142.5520 C   0  0  0  0  0  2  0  0  0  0  0  0
  194.0350  174.7090  142.3270 C   0  0  2  0  0  3  0  0  0  0  0  0
  195.2330  174.3520  139.9620 C   0  0  1  0  0  3  0  0  0  0  0  0
  193.9100  174.8560  144.9630 C   0  0  1  0  0  3  0  0  0  0  0  0
  194.3050  173.4540  144.5330 C   0  0  0  0  0  2  0  0  0  0  0  0
  193.3730  174.2720  143.6530 C   0  0  2  0  0  0  0  0  0  0  0  0
  190.5020  171.8690  144.2690 C   0  0  0  0  0  3  0  0  0  0  0  0
  191.7430  172.3150  144.0780 C   0  0  0  0  0  3  0  0  0  0  0  0
  189.5440  173.9180  143.1480 C   0  0  0  0  0  2  0  0  0  0  0  0
  190.9420  174.4680  143.2390 C   0  0  0  0  0  3  0  0  0  0  0  0
  191.9780  173.6950  143.5940 C   0  0  0  0  0  0  0  0  0  0  0  0
  189.3880  172.7190  143.9740 N   0  0  0  0  0  2  0  0  0  0  0  0
  192.9380  174.7780  146.1350 C   0  0  0  0  0  2  0  0  0  0  0  0
  192.8440  176.1270  146.8290 C   0  0  0  0  0  2  0  0  0  0  0  0
  191.5090  176.3150  147.3800 N   0  0  0  0  0  2  0  0  0  0  0  0
  189.0930  174.8240  147.6340 C   0  0  0  0  0  2  0  0  0  0  0  0
  190.4760  177.6340  145.6340 C   0  0  0  0  0  2  0  0  0  0  0  0
  190.5690  176.2520  146.2700 C   0  0  2  0  0  3  0  0  0  0  0  0
  189.1960  175.7980  146.7280 C   0  0  0  0  0  0  0  0  0  0  0  0
  188.2890  176.9620  144.6580 C   0  0  0  0  0  0  0  0  0  0  0  0
  185.8780  177.6280  144.4480 C   0  0  2  0  0  3  0  0  0  0  0  0
  185.5830  176.6860  145.6320 C   0  0  0  0  0  2  0  0  0  0  0  0
  187.1380  177.1490  143.7010 C   0  0  1  0  0  3  0  0  0  0  0  0
  186.7850  176.5540  146.5800 C   0  0  0  0  0  2  0  0  0  0  0  0
  188.0090  176.0370  145.8200 C   0  0  2  0  0  3  0  0  0  0  0  0
  189.4210  177.6800  144.5670 C   0  0  0  0  0  3  0  0  0  0  0  0
  187.4510  177.9050  142.4400 C   0  0  0  0  0  0  0  0  0  0  0  0
  186.5450  178.5770  141.8750 O   0  0  0  0  0  1  0  0  0  0  0  0
  188.7020  177.8110  141.8450 O   0  0  0  0  0  0  0  0  0  0  0  0
  184.8240  179.8960  144.4760 C   0  0  0  0  0  1  0  0  0  0  0  0
  186.0090  179.0710  144.9350 C   0  0  0  0  0  2  0  0  0  0  0  0
  195.9280  173.4970  138.9150 C   0  0  0  0  0  2  0  0  0  0  0  0
  196.4370  174.3310  137.8360 N   0  0  0  0  0  2  0  0  0  0  0  0
  197.0340  171.5060  134.6050 F   0  0  0  0  0  0  0  0  0  0  0  0
  196.8660  171.1190  135.9230 C   0  0  0  0  0  0  0  0  0  0  0  0
  196.4330  173.5280  136.6220 C   0  0  1  0  0  3  0  0  0  0  0  0
  195.3900  170.7310  136.1510 C   0  0  1  0  0  3  0  0  0  0  0  0
  197.6850  170.0290  136.1640 F   0  0  0  0  0  0  0  0  0  0  0  0
  195.2860  169.6270  136.9760 F   0  0  0  0  0  0  0  0  0  0  0  0
  197.2860  172.2680  136.8410 C   0  0  0  0  0  2  0  0  0  0  0  0
  194.5260  171.8680  136.7150 C   0  0  1  0  0  3  0  0  0  0  0  0
  194.9900  173.2260  136.1910 C   0  0  0  0  0  2  0  0  0  0  0  0
  193.1900  171.6560  136.3660 O   0  0  0  0  0  0  0  0  0  0  0  0
  192.0850  172.2870  138.4080 C   0  0  0  0  0  2  0  0  0  0  0  0
  189.8250  171.8040  137.4850 C   0  0  0  0  0  2  0  0  0  0  0  0
  192.5830  171.1410  137.5170 C   0  0  1  0  0  3  0  0  0  0  0  0
  191.4040  170.2390  137.1400 C   0  0  0  0  0  2  0  0  0  0  0  0
  190.4060  170.9900  136.4960 O   0  0  0  0  0  0  0  0  0  0  0  0
  190.7890  172.9410  137.9030 C   0  0  2  0  0  0  0  0  0  0  0  0
  191.1420  173.8270  136.7090 C   0  0  0  0  0  1  0  0  0  0  0  0
  190.2860  173.7270  138.9740 O   0  0  0  0  0  0  0  0  0  0  0  0
  188.0100  174.2380  137.6540 O   0  0  0  0  0  0  0  0  0  0  0  0
  187.9320  172.3110  139.4220 O   0  0  0  0  0  1  0  0  0  0  0  0
  188.5710  173.8190  138.9970 P   0  0  0  0  0  0  0  0  0  0  0  0
  188.1030  174.9540  140.1640 O   0  0  0  0  0  1  0  0  0  0  0  0
  1  5  1  0  0  0  0
  2  4  1  0  0  0  0
  3  2  1  0  0  0  0
  5  4  1  1  0  0  0
  5  9  1  0  0  0  0
  6 35  1  6  0  0  0
  6  3  1  0  0  0  0
  6  1  1  0  0  0  0
  7 16  1  1  0  0  0
  8  7  1  0  0  0  0
  9 14  1  6  0  0  0
  9  8  1  0  0  0  0
  9  7  1  0  0  0  0
 11 10  2  0  0  0  0
 12 13  1  0  0  0  0
 12 15  1  0  0  0  0
 13 14  2  0  0  0  0
 14 11  1  0  0  0  0
 15 10  1  0  0  0  0
 16 17  1  0  0  0  0
 17 18  1  0  0  0  0
 20 21  1  0  0  0  0
 21 22  1  0  0  0  0
 21 18  1  1  0  0  0
 22 19  2  0  0  0  0
 23 28  1  0  0  0  0
 24 34  1  1  0  0  0
 24 25  1  0  0  0  0
 25 27  1  0  0  0  0
 26 30  1  6  0  0  0
 26 24  1  0  0  0  0
 26 23  1  0  0  0  0
 28 27  1  1  0  0  0
 28 22  1  0  0  0  0
 29 23  2  0  0  0  0
 29 20  1  0  0  0  0
 31 30  1  0  0  0  0
 32 30  2  0  0  0  0
 33 34  1  0  0  0  0
 36 35  1  0  0  0  0
 37 38  1  0  0  0  0
 38 40  1  0  0  0  0
 38 41  1  0  0  0  0
 38 43  1  0  0  0  0
 39 43  1  0  0  0  0
 39 36  1  1  0  0  0
 40 44  1  0  0  0  0
 40 42  1  1  0  0  0
 44 46  1  6  0  0  0
 45 39  1  0  0  0  0
 45 44  1  0  0  0  0
 48 52  1  0  0  0  0
 49 46  1  6  0  0  0
 49 47  1  0  0  0  0
 50 49  1  0  0  0  0
 51 50  1  0  0  0  0
 51 48  1  0  0  0  0
 52 53  1  6  0  0  0
 52 47  1  0  0  0  0
 52 54  1  0  0  0  0
 54 57  1  0  0  0  0
 55 57  2  0  0  0  0
 57 56  1  0  0  0  0
 57 58  1  0  0  0  0
M  END
>  <MODEL>
5

>  <REMARK>
 VINA RESULT:      -7.6      4.703      9.498
  Name = 
  15 active torsions:
  status: ('A' for Active; 'I' for Inactive)
    1  A    between atoms: N_3  and  C_4
    2  A    between atoms: N_3  and  C_15
    3  A    between atoms: C_4  and  C_20
    4  A    between atoms: C_7  and  C_47
    5  A    between atoms: C_11  and  C_34
    6  A    between atoms: N_13  and  C_25
    7  A    between atoms: N_13  and  C_37
    8  A    between atoms: O_19  and  C_26
    9  A    between atoms: O_19  and  C_55
   10  A    between atoms: C_20  and  C_22
   11  A    between atoms: C_25  and  C_53
   12  A    between atoms: P_31  and  O_50
   13  A    between atoms: C_40  and  O_50
   14  A    between atoms: C_42  and  C_57
   15  A    between atoms: C_43  and  C_57
                            x       y       z     vdW  Elec       q    Type
                         _______ _______ _______ _____ _____    ______ ____

>  <TORSDO>
F 15

$$$$
=
 OpenBabel11042413433D

 58 64  0  0  1  0  0  0  0  0999 V2000
  190.8400  175.8320  145.1830 S   0  0  0  0  0  0  0  0  0  0  0  0
  190.1370  177.5820  147.7720 C   0  0  0  0  0  2  0  0  0  0  0  0
  191.3050  176.6060  147.7690 C   0  0  0  0  0  2  0  0  0  0  0  0
  189.0480  177.1420  146.8020 C   0  0  0  0  0  2  0  0  0  0  0  0
  189.5730  177.1480  145.3700 C   0  0  2  0  0  3  0  0  0  0  0  0
  191.9730  176.5770  146.4040 C   0  0  1  0  0  3  0  0  0  0  0  0
  188.5690  176.0870  143.1680 C   0  0  1  0  0  3  0  0  0  0  0  0
  188.7960  177.5770  142.9780 C   0  0  0  0  0  2  0  0  0  0  0  0
  188.4160  177.0470  144.3510 C   0  0  2  0  0  0  0  0  0  0  0  0
  185.1610  177.1270  146.2990 C   0  0  0  0  0  3  0  0  0  0  0  0
  186.2540  176.6490  145.7060 C   0  0  0  0  0  3  0  0  0  0  0  0
  185.2300  179.1990  144.8590 C   0  0  0  0  0  2  0  0  0  0  0  0
  186.6010  178.7240  144.4600 C   0  0  0  0  0  3  0  0  0  0  0  0
  187.0430  177.5020  144.7880 C   0  0  0  0  0  0  0  0  0  0  0  0
  184.7280  178.4640  146.0210 N   0  0  0  0  0  2  0  0  0  0  0  0
  187.2560  175.6800  142.5100 C   0  0  0  0  0  2  0  0  0  0  0  0
  187.4110  174.3360  141.8180 C   0  0  0  0  0  2  0  0  0  0  0  0
  188.8120  173.9400  141.8000 N   0  0  0  0  0  2  0  0  0  0  0  0
  191.6040  174.0440  141.2360 C   0  0  0  0  0  2  0  0  0  0  0  0
  188.4190  173.1380  139.5510 C   0  0  0  0  0  2  0  0  0  0  0  0
  189.2760  174.0450  140.4250 C   0  0  2  0  0  3  0  0  0  0  0  0
  190.7370  173.6590  140.2980 C   0  0  0  0  0  0  0  0  0  0  0  0
  190.2380  173.1660  137.8550 C   0  0  0  0  0  0  0  0  0  0  0  0
  191.7210  171.7030  136.4560 C   0  0  2  0  0  3  0  0  0  0  0  0
  192.8000  171.8710  137.5430 C   0  0  0  0  0  2  0  0  0  0  0  0
  190.7760  172.9200  136.4670 C   0  0  1  0  0  3  0  0  0  0  0  0
  192.1900  172.0970  138.9350 C   0  0  0  0  0  2  0  0  0  0  0  0
  191.2890  173.3350  138.9270 C   0  0  2  0  0  3  0  0  0  0  0  0
  188.9260  173.0900  138.1400 C   0  0  0  0  0  3  0  0  0  0  0  0
  189.7610  172.9430  135.3580 C   0  0  0  0  0  0  0  0  0  0  0  0
  189.6140  171.9240  134.6270 O   0  0  0  0  0  0  0  0  0  0  0  0
  189.0390  174.0940  135.0760 O   0  0  0  0  0  1  0  0  0  0  0  0
  191.5880  169.2930  135.8000 C   0  0  0  0  0  1  0  0  0  0  0  0
  190.9700  170.3860  136.6490 C   0  0  0  0  0  2  0  0  0  0  0  0
  193.2460  175.7510  146.4880 C   0  0  0  0  0  2  0  0  0  0  0  0
  194.3660  176.4870  145.9200 N   0  0  0  0  0  2  0  0  0  0  0  0
  196.8010  173.0360  144.9460 F   0  0  0  0  0  0  0  0  0  0  0  0
  195.4200  173.0320  144.8610 C   0  0  0  0  0  0  0  0  0  0  0  0
  195.3320  175.5110  145.4360 C   0  0  1  0  0  3  0  0  0  0  0  0
  195.0030  173.3010  143.4000 C   0  0  1  0  0  3  0  0  0  0  0  0
  194.9630  171.7880  145.2630 F   0  0  0  0  0  0  0  0  0  0  0  0
  193.9170  172.5240  143.0400 F   0  0  0  0  0  0  0  0  0  0  0  0
  194.8560  174.0950  145.8050 C   0  0  0  0  0  2  0  0  0  0  0  0
  194.6910  174.7750  143.1020 C   0  0  1  0  0  3  0  0  0  0  0  0
  195.5740  175.7050  143.9320 C   0  0  0  0  0  2  0  0  0  0  0  0
  194.8840  175.0260  141.7410 O   0  0  0  0  0  0  0  0  0  0  0  0
  195.7110  173.5170  140.0600 C   0  0  0  0  0  2  0  0  0  0  0  0
  197.0770  175.2860  138.9630 C   0  0  0  0  0  2  0  0  0  0  0  0
  195.9930  174.2570  141.3740 C   0  0  1  0  0  3  0  0  0  0  0  0
  197.2270  175.1480  141.2040 C   0  0  0  0  0  2  0  0  0  0  0  0
  197.0310  176.0490  140.1430 O   0  0  0  0  0  0  0  0  0  0  0  0
  195.8040  174.4160  138.8160 C   0  0  2  0  0  0  0  0  0  0  0  0
  194.5490  175.2870  138.7670 C   0  0  0  0  0  1  0  0  0  0  0  0
  195.8520  173.5500  137.6910 O   0  0  0  0  0  0  0  0  0  0  0  0
  196.3780  175.8020  136.3360 O   0  0  0  0  0  1  0  0  0  0  0  0
  196.8050  173.5500  135.0750 O   0  0  0  0  0  0  0  0  0  0  0  0
  195.8520  174.3890  136.1920 P   0  0  0  0  0  0  0  0  0  0  0  0
  194.2620  174.4540  135.6070 O   0  0  0  0  0  1  0  0  0  0  0  0
  1  5  1  0  0  0  0
  1  6  1  0  0  0  0
  3  2  1  0  0  0  0
  4  2  1  0  0  0  0
  5  4  1  1  0  0  0
  6 35  1  1  0  0  0
  6  3  1  0  0  0  0
  7 16  1  6  0  0  0
  7  9  1  0  0  0  0
  8  7  1  0  0  0  0
  8  9  1  0  0  0  0
  9 14  1  1  0  0  0
  9  5  1  0  0  0  0
 11 10  2  0  0  0  0
 12 15  1  0  0  0  0
 13 14  2  0  0  0  0
 13 12  1  0  0  0  0
 14 11  1  0  0  0  0
 15 10  1  0  0  0  0
 17 16  1  0  0  0  0
 18 17  1  0  0  0  0
 20 21  1  0  0  0  0
 21 18  1  1  0  0  0
 22 21  1  0  0  0  0
 22 19  2  0  0  0  0
 23 29  2  0  0  0  0
 23 28  1  0  0  0  0
 24 26  1  0  0  0  0
 24 34  1  1  0  0  0
 24 25  1  0  0  0  0
 25 27  1  0  0  0  0
 26 30  1  6  0  0  0
 26 23  1  0  0  0  0
 28 27  1  1  0  0  0
 28 22  1  0  0  0  0
 29 20  1  0  0  0  0
 31 30  2  0  0  0  0
 32 30  1  0  0  0  0
 33 34  1  0  0  0  0
 36 35  1  0  0  0  0
 38 37  1  0  0  0  0
 38 41  1  0  0  0  0
 38 43  1  0  0  0  0
 39 43  1  0  0  0  0
 39 36  1  6  0  0  0
 40 42  1  1  0  0  0
 40 38  1  0  0  0  0
 44 46  1  6  0  0  0
 44 40  1  0  0  0  0
 44 45  1  0  0  0  0
 45 39  1  0  0  0  0
 47 49  1  0  0  0  0
 48 51  1  0  0  0  0
 49 46  1  6  0  0  0
 50 49  1  0  0  0  0
 51 50  1  0  0  0  0
 52 53  1  6  0  0  0
 52 48  1  0  0  0  0
 52 47  1  0  0  0  0
 54 52  1  0  0  0  0
 56 57  2  0  0  0  0
 57 55  1  0  0  0  0
 57 54  1  0  0  0  0
 58 57  1  0  0  0  0
M  END
>  <MODEL>
6

>  <REMARK>
 VINA RESULT:      -7.3      4.298      8.262
  Name = 
  15 active torsions:
  status: ('A' for Active; 'I' for Inactive)
    1  A    between atoms: N_3  and  C_4
    2  A    between atoms: N_3  and  C_15
    3  A    between atoms: C_4  and  C_20
    4  A    between atoms: C_7  and  C_47
    5  A    between atoms: C_11  and  C_34
    6  A    between atoms: N_13  and  C_25
    7  A    between atoms: N_13  and  C_37
    8  A    between atoms: O_19  and  C_26
    9  A    between atoms: O_19  and  C_55
   10  A    between atoms: C_20  and  C_22
   11  A    between atoms: C_25  and  C_53
   12  A    between atoms: P_31  and  O_50
   13  A    between atoms: C_40  and  O_50
   14  A    between atoms: C_42  and  C_57
   15  A    between atoms: C_43  and  C_57
                            x       y       z     vdW  Elec       q    Type
                         _______ _______ _______ _____ _____    ______ ____

>  <TORSDO>
F 15

$$$$
=
 OpenBabel11042413433D

 58 64  0  0  1  0  0  0  0  0999 V2000
  188.0220  175.3440  141.1900 S   0  0  0  0  0  0  0  0  0  0  0  0
  187.5530  175.2940  138.0220 C   0  0  0  0  0  2  0  0  0  0  0  0
  186.6220  176.0630  138.9490 C   0  0  0  0  0  2  0  0  0  0  0  0
  188.1920  174.1120  138.7410 C   0  0  0  0  0  2  0  0  0  0  0  0
  189.0760  174.5970  139.8860 C   0  0  2  0  0  3  0  0  0  0  0  0
  187.4010  176.6720  140.1040 C   0  0  1  0  0  3  0  0  0  0  0  0
  189.4030  172.0620  140.5540 C   0  0  1  0  0  3  0  0  0  0  0  0
  189.5830  172.9530  141.7700 C   0  0  0  0  0  2  0  0  0  0  0  0
  189.9940  173.4660  140.3990 C   0  0  2  0  0  0  0  0  0  0  0  0
  193.3580  174.1680  138.7900 C   0  0  0  0  0  3  0  0  0  0  0  0
  192.0970  173.7610  138.9300 C   0  0  0  0  0  3  0  0  0  0  0  0
  193.7300  174.0190  141.2820 C   0  0  0  0  0  2  0  0  0  0  0  0
  192.2360  173.8540  141.3690 C   0  0  0  0  0  3  0  0  0  0  0  0
  191.4880  173.6510  140.2750 C   0  0  0  0  0  0  0  0  0  0  0  0
  194.1400  174.4700  139.9520 N   0  0  0  0  0  2  0  0  0  0  0  0
  190.4350  170.9410  140.5820 C   0  0  0  0  0  2  0  0  0  0  0  0
  190.6450  170.4560  142.0070 C   0  0  0  0  0  2  0  0  0  0  0  0
  191.0730  169.0640  142.0050 N   0  0  0  0  0  2  0  0  0  0  0  0
  193.4590  168.2810  140.6560 C   0  0  0  0  0  2  0  0  0  0  0  0
  192.4200  170.1950  143.6670 C   0  0  0  0  0  2  0  0  0  0  0  0
  192.3340  168.9960  142.7300 C   0  0  2  0  0  3  0  0  0  0  0  0
  193.5200  168.9890  141.7850 C   0  0  0  0  0  0  0  0  0  0  0  0
  194.8860  169.8760  143.7370 C   0  0  0  0  0  0  0  0  0  0  0  0
  197.0860  171.0390  143.4100 C   0  0  2  0  0  3  0  0  0  0  0  0
  197.1020  170.4640  141.9810 C   0  0  0  0  0  2  0  0  0  0  0  0
  196.2510  170.1270  144.3300 C   0  0  1  0  0  3  0  0  0  0  0  0
  195.6850  170.2510  141.4260 C   0  0  0  0  0  2  0  0  0  0  0  0
  194.8930  169.3090  142.3360 C   0  0  2  0  0  3  0  0  0  0  0  0
  193.7550  170.2670  144.3490 C   0  0  0  0  0  3  0  0  0  0  0  0
  196.2720  170.5050  145.7850 C   0  0  0  0  0  0  0  0  0  0  0  0
  196.8160  171.5870  146.1400 O   0  0  0  0  0  0  0  0  0  0  0  0
  195.7730  169.6440  146.7520 O   0  0  0  0  0  1  0  0  0  0  0  0
  197.4490  173.3510  142.5280 C   0  0  0  0  0  1  0  0  0  0  0  0
  196.5700  172.4780  143.4010 C   0  0  0  0  0  2  0  0  0  0  0  0
  186.4860  177.5920  140.8950 C   0  0  0  0  0  2  0  0  0  0  0  0
  186.1050  176.9680  142.1530 N   0  0  0  0  0  2  0  0  0  0  0  0
  185.4920  179.8060  145.3710 F   0  0  0  0  0  0  0  0  0  0  0  0
  185.1410  178.4710  145.4660 C   0  0  0  0  0  0  0  0  0  0  0  0
  186.1690  177.9910  143.1870 C   0  0  1  0  0  3  0  0  0  0  0  0
  186.2640  177.7040  146.1940 C   0  0  1  0  0  3  0  0  0  0  0  0
  183.9620  178.3810  146.1870 F   0  0  0  0  0  0  0  0  0  0  0  0
  185.7450  176.7540  147.0550 F   0  0  0  0  0  0  0  0  0  0  0  0
  184.9060  177.9110  144.0620 C   0  0  0  0  0  2  0  0  0  0  0  0
  187.2750  177.0340  145.2520 C   0  0  1  0  0  3  0  0  0  0  0  0
  187.4760  177.8600  143.9820 C   0  0  0  0  0  2  0  0  0  0  0  0
  188.4950  176.8750  145.9130 O   0  0  0  0  0  0  0  0  0  0  0  0
  189.9890  175.3430  144.8130 C   0  0  0  0  0  2  0  0  0  0  0  0
  191.4080  175.0710  146.8390 C   0  0  0  0  0  2  0  0  0  0  0  0
  188.8140  175.5180  145.7830 C   0  0  1  0  0  3  0  0  0  0  0  0
  189.1840  174.9250  147.1460 C   0  0  0  0  0  2  0  0  0  0  0  0
  190.3490  175.5360  147.6400 O   0  0  0  0  0  0  0  0  0  0  0  0
  191.3520  175.7010  145.4260 C   0  0  2  0  0  0  0  0  0  0  0  0
  191.4500  177.2250  145.5010 C   0  0  0  0  0  1  0  0  0  0  0  0
  192.3420  175.1820  144.5490 O   0  0  0  0  0  0  0  0  0  0  0  0
  194.0270  176.1100  146.4160 O   0  0  0  0  0  1  0  0  0  0  0  0
  194.2770  173.5890  145.7600 O   0  0  0  0  0  1  0  0  0  0  0  0
  193.9130  175.1590  145.2430 P   0  0  0  0  0  0  0  0  0  0  0  0
  195.0360  175.6130  144.0590 O   0  0  0  0  0  0  0  0  0  0  0  0
  2  4  1  0  0  0  0
  2  3  1  0  0  0  0
  3  6  1  0  0  0  0
  5  4  1  6  0  0  0
  5  9  1  0  0  0  0
  5  1  1  0  0  0  0
  6 35  1  1  0  0  0
  6  1  1  0  0  0  0
  7 16  1  1  0  0  0
  7  8  1  0  0  0  0
  9 14  1  6  0  0  0
  9  7  1  0  0  0  0
  9  8  1  0  0  0  0
 10 11  2  0  0  0  0
 10 15  1  0  0  0  0
 11 14  1  0  0  0  0
 12 13  1  0  0  0  0
 14 13  2  0  0  0  0
 15 12  1  0  0  0  0
 16 17  1  0  0  0  0
 18 17  1  0  0  0  0
 19 22  2  0  0  0  0
 20 29  1  0  0  0  0
 21 18  1  6  0  0  0
 21 20  1  0  0  0  0
 22 28  1  0  0  0  0
 22 21  1  0  0  0  0
 23 26  1  0  0  0  0
 23 29  2  0  0  0  0
 24 34  1  6  0  0  0
 24 26  1  0  0  0  0
 25 24  1  0  0  0  0
 26 30  1  1  0  0  0
 27 25  1  0  0  0  0
 28 27  1  6  0  0  0
 28 23  1  0  0  0  0
 30 31  2  0  0  0  0
 30 32  1  0  0  0  0
 33 34  1  0  0  0  0
 35 36  1  0  0  0  0
 37 38  1  0  0  0  0
 38 41  1  0  0  0  0
 38 40  1  0  0  0  0
 39 36  1  6  0  0  0
 39 45  1  0  0  0  0
 39 43  1  0  0  0  0
 40 42  1  6  0  0  0
 43 38  1  0  0  0  0
 44 46  1  1  0  0  0
 44 40  1  0  0  0  0
 45 44  1  0  0  0  0
 47 52  1  0  0  0  0
 47 49  1  0  0  0  0
 48 51  1  0  0  0  0
 49 46  1  1  0  0  0
 49 50  1  0  0  0  0
 50 51  1  0  0  0  0
 52 53  1  1  0  0  0
 52 48  1  0  0  0  0
 54 57  1  0  0  0  0
 54 52  1  0  0  0  0
 57 56  1  0  0  0  0
 57 55  1  0  0  0  0
 58 57  2  0  0  0  0
M  END
>  <MODEL>
7

>  <REMARK>
 VINA RESULT:      -7.2      3.137      6.399
  Name = 
  15 active torsions:
  status: ('A' for Active; 'I' for Inactive)
    1  A    between atoms: N_3  and  C_4
    2  A    between atoms: N_3  and  C_15
    3  A    between atoms: C_4  and  C_20
    4  A    between atoms: C_7  and  C_47
    5  A    between atoms: C_11  and  C_34
    6  A    between atoms: N_13  and  C_25
    7  A    between atoms: N_13  and  C_37
    8  A    between atoms: O_19  and  C_26
    9  A    between atoms: O_19  and  C_55
   10  A    between atoms: C_20  and  C_22
   11  A    between atoms: C_25  and  C_53
   12  A    between atoms: P_31  and  O_50
   13  A    between atoms: C_40  and  O_50
   14  A    between atoms: C_42  and  C_57
   15  A    between atoms: C_43  and  C_57
                            x       y       z     vdW  Elec       q    Type
                         _______ _______ _______ _____ _____    ______ ____

>  <TORSDO>
F 15

$$$$
=
 OpenBabel11042413433D

 58 64  0  0  1  0  0  0  0  0999 V2000
  191.3180  176.4370  144.7050 S   0  0  0  0  0  0  0  0  0  0  0  0
  190.4270  175.3650  147.5890 C   0  0  0  0  0  2  0  0  0  0  0  0
  191.8560  175.2030  147.0910 C   0  0  0  0  0  2  0  0  0  0  0  0
  189.4410  175.4110  146.4280 C   0  0  0  0  0  2  0  0  0  0  0  0
  189.7020  176.6330  145.5530 C   0  0  2  0  0  3  0  0  0  0  0  0
  192.2720  176.4070  146.2610 C   0  0  1  0  0  3  0  0  0  0  0  0
  188.5600  176.2470  143.2020 C   0  0  1  0  0  3  0  0  0  0  0  0
  188.9250  177.7120  143.3750 C   0  0  0  0  0  2  0  0  0  0  0  0
  188.5220  176.8920  144.5910 C   0  0  2  0  0  0  0  0  0  0  0  0
  185.4020  178.9870  145.1110 C   0  0  0  0  0  3  0  0  0  0  0  0
  186.6600  178.6660  144.8080 C   0  0  0  0  0  3  0  0  0  0  0  0
  185.1760  176.9260  146.5510 C   0  0  0  0  0  2  0  0  0  0  0  0
  186.4780  176.5010  145.9280 C   0  0  0  0  0  3  0  0  0  0  0  0
  187.2070  177.3430  145.1830 C   0  0  0  0  0  0  0  0  0  0  0  0
  184.5860  178.0580  145.8340 N   0  0  0  0  0  2  0  0  0  0  0  0
  187.2020  176.1350  142.5200 C   0  0  0  0  0  2  0  0  0  0  0  0
  187.2280  175.0310  141.4750 C   0  0  0  0  0  2  0  0  0  0  0  0
  188.1920  175.3530  140.4310 N   0  0  0  0  0  2  0  0  0  0  0  0
  187.2270  175.3000  137.7490 C   0  0  0  0  0  2  0  0  0  0  0  0
  189.7550  173.5920  139.8720 C   0  0  0  0  0  2  0  0  0  0  0  0
  188.3630  174.1590  139.6160 C   0  0  2  0  0  3  0  0  0  0  0  0
  188.1890  174.4620  138.1400 C   0  0  0  0  0  0  0  0  0  0  0  0
  189.5850  172.3820  137.7050 C   0  0  0  0  0  0  0  0  0  0  0  0
  190.7430  171.9860  135.5140 C   0  0  2  0  0  3  0  0  0  0  0  0
  189.8430  173.0840  134.9150 C   0  0  0  0  0  2  0  0  0  0  0  0
  190.0390  171.3340  136.7200 C   0  0  1  0  0  3  0  0  0  0  0  0
  189.4330  174.1320  135.9620 C   0  0  0  0  0  2  0  0  0  0  0  0
  188.6990  173.4620  137.1260 C   0  0  2  0  0  3  0  0  0  0  0  0
  190.0550  172.4360  138.9630 C   0  0  0  0  0  3  0  0  0  0  0  0
  190.7560  170.1500  137.3080 C   0  0  0  0  0  0  0  0  0  0  0  0
  190.0960  169.1320  137.6560 O   0  0  0  0  0  1  0  0  0  0  0  0
  192.1220  170.1910  137.5450 O   0  0  0  0  0  0  0  0  0  0  0  0
  192.7460  173.2360  134.6870 C   0  0  0  0  0  1  0  0  0  0  0  0
  192.1110  172.5600  135.8850 C   0  0  0  0  0  2  0  0  0  0  0  0
  193.7560  176.3110  145.9480 C   0  0  0  0  0  2  0  0  0  0  0  0
  193.9570  175.8990  144.5660 N   0  0  0  0  0  2  0  0  0  0  0  0
  197.8890  174.1690  145.1410 F   0  0  0  0  0  0  0  0  0  0  0  0
  196.7820  173.7880  145.8780 C   0  0  0  0  0  0  0  0  0  0  0  0
  195.2750  175.2870  144.4780 C   0  0  1  0  0  3  0  0  0  0  0  0
  196.1780  172.5100  145.2580 C   0  0  1  0  0  3  0  0  0  0  0  0
  197.1910  173.5360  147.1770 F   0  0  0  0  0  0  0  0  0  0  0  0
  195.7490  171.6340  146.2380 F   0  0  0  0  0  0  0  0  0  0  0  0
  195.7680  174.9320  145.8910 C   0  0  0  0  0  2  0  0  0  0  0  0
  195.0270  172.7770  144.2780 C   0  0  1  0  0  3  0  0  0  0  0  0
  195.2390  174.0870  143.5210 C   0  0  0  0  0  2  0  0  0  0  0  0
  194.9280  171.7160  143.3740 O   0  0  0  0  0  0  0  0  0  0  0  0
  192.5920  171.1930  143.6120 C   0  0  0  0  0  2  0  0  0  0  0  0
  192.6940  169.3780  141.9120 C   0  0  0  0  0  2  0  0  0  0  0  0
  194.0360  170.8110  143.9600 C   0  0  1  0  0  3  0  0  0  0  0  0
  194.3210  169.3890  143.4670 C   0  0  0  0  0  2  0  0  0  0  0  0
  194.0880  169.2990  142.0840 O   0  0  0  0  0  0  0  0  0  0  0  0
  192.1830  170.8150  142.1790 C   0  0  2  0  0  0  0  0  0  0  0  0
  192.8340  171.8140  141.2230 C   0  0  0  0  0  1  0  0  0  0  0  0
  190.7680  170.9190  142.1190 O   0  0  0  0  0  0  0  0  0  0  0  0
  190.3290  171.6970  144.6470 O   0  0  0  0  0  1  0  0  0  0  0  0
  190.8870  173.5820  142.9210 O   0  0  0  0  0  1  0  0  0  0  0  0
  190.1320  172.0940  143.1990 P   0  0  0  0  0  0  0  0  0  0  0  0
  188.4720  172.2640  142.9000 O   0  0  0  0  0  0  0  0  0  0  0  0
  1  5  1  0  0  0  0
  1  6  1  0  0  0  0
  3  2  1  0  0  0  0
  4  2  1  0  0  0  0
  5  4  1  6  0  0  0
  6 35  1  6  0  0  0
  6  3  1  0  0  0  0
  7 16  1  6  0  0  0
  7  8  1  0  0  0  0
  7  9  1  0  0  0  0
  8  9  1  0  0  0  0
  9 14  1  1  0  0  0
  9  5  1  0  0  0  0
 10 15  1  0  0  0  0
 11 10  2  0  0  0  0
 11 14  1  0  0  0  0
 13 12  1  0  0  0  0
 14 13  2  0  0  0  0
 15 12  1  0  0  0  0
 17 16  1  0  0  0  0
 18 17  1  0  0  0  0
 19 22  2  0  0  0  0
 21 20  1  0  0  0  0
 21 18  1  1  0  0  0
 22 21  1  0  0  0  0
 23 29  2  0  0  0  0
 24 34  1  1  0  0  0
 24 26  1  0  0  0  0
 25 24  1  0  0  0  0
 25 27  1  0  0  0  0
 26 30  1  1  0  0  0
 26 23  1  0  0  0  0
 28 27  1  6  0  0  0
 28 23  1  0  0  0  0
 28 22  1  0  0  0  0
 29 20  1  0  0  0  0
 30 32  2  0  0  0  0
 30 31  1  0  0  0  0
 33 34  1  0  0  0  0
 36 35  1  0  0  0  0
 37 38  1  0  0  0  0
 38 43  1  0  0  0  0
 38 41  1  0  0  0  0
 39 36  1  1  0  0  0
 39 43  1  0  0  0  0
 40 38  1  0  0  0  0
 40 42  1  1  0  0  0
 44 46  1  6  0  0  0
 44 40  1  0  0  0  0
 45 44  1  0  0  0  0
 45 39  1  0  0  0  0
 47 49  1  0  0  0  0
 48 51  1  0  0  0  0
 48 52  1  0  0  0  0
 49 46  1  6  0  0  0
 50 49  1  0  0  0  0
 51 50  1  0  0  0  0
 52 53  1  6  0  0  0
 52 47  1  0  0  0  0
 54 52  1  0  0  0  0
 54 57  1  0  0  0  0
 56 57  1  0  0  0  0
 57 55  1  0  0  0  0
 58 57  2  0  0  0  0
M  END
>  <MODEL>
8

>  <REMARK>
 VINA RESULT:      -7.2      4.070      8.312
  Name = 
  15 active torsions:
  status: ('A' for Active; 'I' for Inactive)
    1  A    between atoms: N_3  and  C_4
    2  A    between atoms: N_3  and  C_15
    3  A    between atoms: C_4  and  C_20
    4  A    between atoms: C_7  and  C_47
    5  A    between atoms: C_11  and  C_34
    6  A    between atoms: N_13  and  C_25
    7  A    between atoms: N_13  and  C_37
    8  A    between atoms: O_19  and  C_26
    9  A    between atoms: O_19  and  C_55
   10  A    between atoms: C_20  and  C_22
   11  A    between atoms: C_25  and  C_53
   12  A    between atoms: P_31  and  O_50
   13  A    between atoms: C_40  and  O_50
   14  A    between atoms: C_42  and  C_57
   15  A    between atoms: C_43  and  C_57
                            x       y       z     vdW  Elec       q    Type
                         _______ _______ _______ _____ _____    ______ ____

>  <TORSDO>
F 15

$$$$
=
 OpenBabel11042413433D

 58 64  0  0  1  0  0  0  0  0999 V2000
  191.3940  176.7390  145.0230 S   0  0  0  0  0  0  0  0  0  0  0  0
  190.3760  175.2290  147.6580 C   0  0  0  0  0  2  0  0  0  0  0  0
  191.8490  175.2480  147.2760 C   0  0  0  0  0  2  0  0  0  0  0  0
  189.4850  175.3500  146.4290 C   0  0  0  0  0  2  0  0  0  0  0  0
  189.7040  176.6940  145.7400 C   0  0  2  0  0  3  0  0  0  0  0  0
  192.2200  176.5800  146.6430 C   0  0  1  0  0  3  0  0  0  0  0  0
  188.6590  176.3010  143.3450 C   0  0  1  0  0  3  0  0  0  0  0  0
  189.0870  177.7510  143.5010 C   0  0  0  0  0  2  0  0  0  0  0  0
  188.5860  176.9830  144.7140 C   0  0  2  0  0  0  0  0  0  0  0  0
  185.5460  177.3510  146.9550 C   0  0  0  0  0  3  0  0  0  0  0  0
  186.5690  176.7860  146.3140 C   0  0  0  0  0  3  0  0  0  0  0  0
  185.4870  179.2440  145.2860 C   0  0  0  0  0  2  0  0  0  0  0  0
  186.8070  178.6990  144.8100 C   0  0  0  0  0  3  0  0  0  0  0  0
  187.2680  177.5130  145.2300 C   0  0  0  0  0  0  0  0  0  0  0  0
  185.0990  178.6560  146.5690 N   0  0  0  0  0  2  0  0  0  0  0  0
  187.3310  176.2360  142.6000 C   0  0  0  0  0  2  0  0  0  0  0  0
  187.2380  174.9440  141.8050 C   0  0  0  0  0  2  0  0  0  0  0  0
  188.4480  174.7520  141.0180 N   0  0  0  0  0  2  0  0  0  0  0  0
  188.2500  172.4380  139.3650 C   0  0  0  0  0  2  0  0  0  0  0  0
  190.4050  173.7950  142.0730 C   0  0  0  0  0  2  0  0  0  0  0  0
  189.0490  173.4970  141.4440 C   0  0  2  0  0  3  0  0  0  0  0  0
  189.2140  172.5360  140.2830 C   0  0  0  0  0  0  0  0  0  0  0  0
  191.0400  171.4260  141.6600 C   0  0  0  0  0  0  0  0  0  0  0  0
  192.7860  169.9520  140.6240 C   0  0  2  0  0  3  0  0  0  0  0  0
  191.8870  169.8750  139.3750 C   0  0  0  0  0  2  0  0  0  0  0  0
  191.9250  170.2220  141.8720 C   0  0  1  0  0  3  0  0  0  0  0  0
  191.0270  171.1370  139.2030 C   0  0  0  0  0  2  0  0  0  0  0  0
  190.1510  171.3580  140.4390 C   0  0  2  0  0  3  0  0  0  0  0  0
  191.1440  172.5340  142.4130 C   0  0  0  0  0  3  0  0  0  0  0  0
  192.6710  170.1800  143.1770 C   0  0  0  0  0  0  0  0  0  0  0  0
  192.3100  170.9310  144.1250 O   0  0  0  0  0  1  0  0  0  0  0  0
  193.7970  169.3840  143.3290 O   0  0  0  0  0  0  0  0  0  0  0  0
  195.2170  170.3470  140.1820 C   0  0  0  0  0  1  0  0  0  0  0  0
  193.8760  171.0070  140.4330 C   0  0  0  0  0  2  0  0  0  0  0  0
  193.7270  176.6430  146.4550 C   0  0  0  0  0  2  0  0  0  0  0  0
  194.1190  175.9190  145.2540 N   0  0  0  0  0  2  0  0  0  0  0  0
  196.8370  172.7740  146.4790 F   0  0  0  0  0  0  0  0  0  0  0  0
  195.8150  172.5750  145.5680 C   0  0  0  0  0  0  0  0  0  0  0  0
  195.2330  175.0530  145.6090 C   0  0  1  0  0  3  0  0  0  0  0  0
  196.3860  172.6770  144.1380 C   0  0  1  0  0  3  0  0  0  0  0  0
  195.2860  171.3120  145.7770 F   0  0  0  0  0  0  0  0  0  0  0  0
  195.8150  171.7350  143.3030 F   0  0  0  0  0  0  0  0  0  0  0  0
  194.7210  173.6160  145.8050 C   0  0  0  0  0  2  0  0  0  0  0  0
  196.2380  174.0690  143.5060 C   0  0  1  0  0  3  0  0  0  0  0  0
  196.3490  175.1690  144.5600 C   0  0  0  0  0  2  0  0  0  0  0  0
  197.2230  174.2450  142.5300 O   0  0  0  0  0  0  0  0  0  0  0  0
  195.4290  174.1180  140.9310 C   0  0  0  0  0  2  0  0  0  0  0  0
  196.7510  175.2740  139.1670 C   0  0  0  0  0  2  0  0  0  0  0  0
  196.7670  173.5390  141.4110 C   0  0  1  0  0  3  0  0  0  0  0  0
  197.7940  173.6190  140.2770 C   0  0  0  0  0  2  0  0  0  0  0  0
  197.9390  174.9480  139.8460 O   0  0  0  0  0  0  0  0  0  0  0  0
  195.5730  175.4390  140.1570 C   0  0  2  0  0  0  0  0  0  0  0  0
  195.8590  176.5490  141.1680 C   0  0  0  0  0  1  0  0  0  0  0  0
  194.3300  175.6670  139.5070 O   0  0  0  0  0  0  0  0  0  0  0  0
  194.1880  175.6730  136.8310 O   0  0  0  0  0  0  0  0  0  0  0  0
  195.4050  173.6360  137.9350 O   0  0  0  0  0  1  0  0  0  0  0  0
  194.1580  174.7750  138.0500 P   0  0  0  0  0  0  0  0  0  0  0  0
  192.6760  173.9530  138.0880 O   0  0  0  0  0  1  0  0  0  0  0  0
  1  5  1  0  0  0  0
  1  6  1  0  0  0  0
  3  2  1  0  0  0  0
  4  2  1  0  0  0  0
  5  4  1  6  0  0  0
  6 35  1  6  0  0  0
  6  3  1  0  0  0  0
  7 16  1  6  0  0  0
  7  8  1  0  0  0  0
  7  9  1  0  0  0  0
  8  9  1  0  0  0  0
  9 14  1  1  0  0  0
  9  5  1  0  0  0  0
 11 10  2  0  0  0  0
 12 15  1  0  0  0  0
 13 14  2  0  0  0  0
 13 12  1  0  0  0  0
 14 11  1  0  0  0  0
 15 10  1  0  0  0  0
 17 16  1  0  0  0  0
 18 17  1  0  0  0  0
 19 22  2  0  0  0  0
 20 29  1  0  0  0  0
 21 18  1  6  0  0  0
 21 20  1  0  0  0  0
 22 28  1  0  0  0  0
 22 21  1  0  0  0  0
 23 26  1  0  0  0  0
 23 29  2  0  0  0  0
 24 34  1  6  0  0  0
 24 26  1  0  0  0  0
 25 24  1  0  0  0  0
 26 30  1  1  0  0  0
 27 25  1  0  0  0  0
 28 27  1  6  0  0  0
 28 23  1  0  0  0  0
 30 32  2  0  0  0  0
 30 31  1  0  0  0  0
 33 34  1  0  0  0  0
 36 35  1  0  0  0  0
 38 41  1  0  0  0  0
 38 43  1  0  0  0  0
 38 37  1  0  0  0  0
 39 36  1  6  0  0  0
 39 43  1  0  0  0  0
 40 42  1  6  0  0  0
 40 38  1  0  0  0  0
 44 46  1  6  0  0  0
 44 40  1  0  0  0  0
 44 45  1  0  0  0  0
 45 39  1  0  0  0  0
 47 49  1  0  0  0  0
 48 51  1  0  0  0  0
 48 52  1  0  0  0  0
 49 46  1  1  0  0  0
 50 49  1  0  0  0  0
 51 50  1  0  0  0  0
 52 47  1  0  0  0  0
 52 53  1  1  0  0  0
 54 52  1  0  0  0  0
 55 57  2  0  0  0  0
 56 57  1  0  0  0  0
 57 58  1  0  0  0  0
 57 54  1  0  0  0  0
M  END
>  <MODEL>
9

>  <REMARK>
 VINA RESULT:      -7.2      4.302      8.325
  Name = 
  15 active torsions:
  status: ('A' for Active; 'I' for Inactive)
    1  A    between atoms: N_3  and  C_4
    2  A    between atoms: N_3  and  C_15
    3  A    between atoms: C_4  and  C_20
    4  A    between atoms: C_7  and  C_47
    5  A    between atoms: C_11  and  C_34
    6  A    between atoms: N_13  and  C_25
    7  A    between atoms: N_13  and  C_37
    8  A    between atoms: O_19  and  C_26
    9  A    between atoms: O_19  and  C_55
   10  A    between atoms: C_20  and  C_22
   11  A    between atoms: C_25  and  C_53
   12  A    between atoms: P_31  and  O_50
   13  A    between atoms: C_40  and  O_50
   14  A    between atoms: C_42  and  C_57
   15  A    between atoms: C_43  and  C_57
                            x       y       z     vdW  Elec       q    Type
                         _______ _______ _______ _____ _____    ______ ____

>  <TORSDO>
F 15

$$$$
