=
 OpenBabel11042418473D

 44 49  0  0  1  0  0  0  0  0999 V2000
  193.5280  175.5530  145.1100 N   0  0  0  0  0  0  0  0  0  0  0  0
  190.1690  176.6530  145.2080 C   0  0  0  0  0  3  0  0  0  0  0  0
  191.1360  175.0850  147.6650 C   0  0  0  0  0  3  0  0  0  0  0  0
  191.9100  175.7950  146.8030 C   0  0  0  0  0  0  0  0  0  0  0  0
  192.8150  176.4920  145.9810 C   0  0  2  0  0  3  0  0  0  0  0  0
  188.8400  174.5150  148.0110 F   0  0  0  0  0  0  0  0  0  0  0  0
  189.7560  175.1760  147.2630 C   0  0  0  0  0  0  0  0  0  0  0  0
  189.2810  175.9340  146.0960 C   0  0  0  0  0  0  0  0  0  0  0  0
  191.4510  176.5380  145.6400 C   0  0  0  0  0  0  0  0  0  0  0  0
  187.9040  175.9070  145.8320 O   0  0  0  0  0  0  0  0  0  0  0  0
  184.5320  177.6590  146.5910 C   0  0  0  0  0  2  0  0  0  0  0  0
  185.2250  176.2510  144.7900 O   0  0  0  0  0  0  0  0  0  0  0  0
  185.5650  176.8730  145.8330 C   0  0  0  0  0  0  0  0  0  0  0  0
  186.4460  178.7540  147.7460 C   0  0  0  0  0  3  0  0  0  0  0  0
  185.1460  178.7410  147.4400 C   0  0  0  0  0  3  0  0  0  0  0  0
  187.3680  177.7340  147.2130 C   0  0  0  0  0  3  0  0  0  0  0  0
  186.9650  176.8260  146.3190 C   0  0  0  0  0  0  0  0  0  0  0  0
  193.8390  176.1870  143.8190 C   0  0  0  0  0  2  0  0  0  0  0  0
  192.8910  175.7710  142.6950 C   0  0  0  0  0  2  0  0  0  0  0  0
  193.0890  174.2990  142.3900 C   0  0  0  0  0  2  0  0  0  0  0  0
  189.3190  173.6960  142.7740 C   0  0  1  0  0  3  0  0  0  0  0  0
  191.6960  172.2840  141.7710 C   0  0  1  0  0  3  0  0  0  0  0  0
  189.2020  172.5200  141.8070 C   0  0  0  0  0  2  0  0  0  0  0  0
  190.3700  171.5640  142.0100 C   0  0  0  0  0  2  0  0  0  0  0  0
  190.6310  174.4350  142.5240 C   0  0  0  0  0  2  0  0  0  0  0  0
  191.8300  173.5020  142.7030 C   0  0  2  0  0  3  0  0  0  0  0  0
  192.7380  171.3820  141.9910 O   0  0  0  0  0  1  0  0  0  0  0  0
  188.1630  174.6550  142.5560 C   0  0  0  0  0  2  0  0  0  0  0  0
  188.1910  175.1710  141.2000 N   0  0  0  0  0  2  0  0  0  0  0  0
  188.1780  176.6210  141.3030 C   0  0  0  0  0  2  0  0  0  0  0  0
  185.8300  177.4300  141.2820 C   0  0  0  0  0  2  0  0  0  0  0  0
  185.2060  178.6320  141.8230 N   0  0  0  0  0  0  0  0  0  0  0  0
  186.0070  179.0510  142.9680 C   0  0  0  0  0  2  0  0  0  0  0  0
  183.9060  178.2410  142.3380 C   0  0  0  0  0  1  0  0  0  0  0  0
  187.3320  178.3340  142.8940 C   0  0  0  0  0  2  0  0  0  0  0  0
  187.0080  177.0670  142.1580 C   0  0  2  0  0  3  0  0  0  0  0  0
  194.7790  175.1750  145.7640 C   0  0  0  0  0  2  0  0  0  0  0  0
  195.8530  169.6590  144.6660 C   0  0  0  0  0  1  0  0  0  0  0  0
  194.0060  172.8630  145.5760 C   0  0  0  0  0  3  0  0  0  0  0  0
  194.2060  171.3750  145.4620 C   0  0  0  0  0  2  0  0  0  0  0  0
  195.0320  173.7170  145.5810 C   0  0  0  0  0  0  0  0  0  0  0  0
  196.6530  171.9530  145.1580 C   0  0  0  0  0  3  0  0  0  0  0  0
  195.5640  171.0300  145.0330 N   0  0  0  0  0  0  0  0  0  0  0  0
  196.4150  173.2360  145.4230 C   0  0  0  0  0  3  0  0  0  0  0  0
  1 37  1  0  0  0  0
  2  9  2  0  0  0  0
  2  8  1  0  0  0  0
  4  3  2  0  0  0  0
  5  1  1  6  0  0  0
  5  4  1  0  0  0  0
  7  3  1  0  0  0  0
  7  6  1  0  0  0  0
  8  7  2  0  0  0  0
  9  5  1  0  0  0  0
  9  4  1  0  0  0  0
 10  8  1  0  0  0  0
 10 17  1  0  0  0  0
 11 15  1  0  0  0  0
 12 13  2  0  0  0  0
 13 17  1  0  0  0  0
 13 11  1  0  0  0  0
 15 14  2  0  0  0  0
 16 14  1  0  0  0  0
 17 16  2  0  0  0  0
 18  1  1  0  0  0  0
 19 18  1  0  0  0  0
 20 19  1  0  0  0  0
 21 28  1  6  0  0  0
 22 27  1  1  0  0  0
 22 24  1  0  0  0  0
 22 26  1  0  0  0  0
 23 24  1  0  0  0  0
 23 21  1  0  0  0  0
 25 26  1  0  0  0  0
 25 21  1  0  0  0  0
 26 20  1  6  0  0  0
 29 30  1  0  0  0  0
 29 28  1  0  0  0  0
 31 32  1  0  0  0  0
 31 36  1  0  0  0  0
 32 34  1  0  0  0  0
 32 33  1  0  0  0  0
 35 33  1  0  0  0  0
 36 30  1  6  0  0  0
 36 35  1  0  0  0  0
 38 43  1  0  0  0  0
 39 41  2  0  0  0  0
 40 39  1  0  0  0  0
 41 37  1  0  0  0  0
 42 44  2  0  0  0  0
 43 42  1  0  0  0  0
 43 40  1  0  0  0  0
 44 41  1  0  0  0  0
M  END
>  <MODEL>
1

>  <REMARK>
 VINA RESULT:      -7.6      0.000      0.000
  Name = 
  13 active torsions:
  status: ('A' for Active; 'I' for Inactive)
    1  A    between atoms: C_6  and  C_9
    2  A    between atoms: O_7  and  C_38
    3  A    between atoms: O_7  and  C_39
    4  A    between atoms: N_8  and  C_9
    5  A    between atoms: N_8  and  C_27
    6  A    between atoms: C_15  and  C_33
    7  A    between atoms: C_16  and  C_30
    8  A    between atoms: C_16  and  N_41
    9  A    between atoms: C_21  and  N_41
   10  A    between atoms: C_24  and  C_30
   11  A    between atoms: C_24  and  C_37
   12  A    between atoms: C_27  and  C_43
   13  A    between atoms: C_33  and  N_41
                            x       y       z     vdW  Elec       q    Type
                         _______ _______ _______ _____ _____    ______ ____

>  <TORSDO>
F 13

$$$$
=
 OpenBabel11042418473D

 44 49  0  0  1  0  0  0  0  0999 V2000
  188.7440  176.7980  142.3760 N   0  0  0  0  0  0  0  0  0  0  0  0
  191.0990  174.2500  143.0570 C   0  0  0  0  0  3  0  0  0  0  0  0
  188.2740  173.2990  142.3220 C   0  0  0  0  0  3  0  0  0  0  0  0
  188.8450  174.4800  141.9720 C   0  0  0  0  0  0  0  0  0  0  0  0
  189.3240  175.7350  141.5510 C   0  0  2  0  0  3  0  0  0  0  0  0
  188.7940  171.3110  143.5450 F   0  0  0  0  0  0  0  0  0  0  0  0
  189.2040  172.5240  143.1030 C   0  0  0  0  0  0  0  0  0  0  0  0
  190.5640  172.9650  143.4490 C   0  0  0  0  0  0  0  0  0  0  0  0
  190.1840  174.9300  142.3210 C   0  0  0  0  0  0  0  0  0  0  0  0
  191.3390  172.0970  144.2320 O   0  0  0  0  0  0  0  0  0  0  0  0
  194.9320  171.5840  142.8750 C   0  0  0  0  0  2  0  0  0  0  0  0
  192.8150  170.7770  142.1200 O   0  0  0  0  0  0  0  0  0  0  0  0
  193.4450  171.4080  143.0110 C   0  0  0  0  0  0  0  0  0  0  0  0
  194.9130  172.2260  145.2810 C   0  0  0  0  0  3  0  0  0  0  0  0
  195.6000  171.8470  144.2000 C   0  0  0  0  0  3  0  0  0  0  0  0
  193.4440  172.3490  145.2500 C   0  0  0  0  0  3  0  0  0  0  0  0
  192.7340  171.9820  144.1790 C   0  0  0  0  0  0  0  0  0  0  0  0
  189.6120  177.9850  142.3670 C   0  0  0  0  0  2  0  0  0  0  0  0
  190.4150  178.1600  143.6550 C   0  0  0  0  0  2  0  0  0  0  0  0
  189.5770  177.7080  144.8350 C   0  0  0  0  0  2  0  0  0  0  0  0
  192.4000  175.6300  146.3950 C   0  0  1  0  0  3  0  0  0  0  0  0
  189.5710  176.2550  146.9020 C   0  0  1  0  0  3  0  0  0  0  0  0
  191.7730  175.4400  147.7750 C   0  0  0  0  0  2  0  0  0  0  0  0
  190.2910  175.1230  147.6310 C   0  0  0  0  0  2  0  0  0  0  0  0
  191.7010  176.7760  145.6690 C   0  0  0  0  0  2  0  0  0  0  0  0
  190.2040  176.5020  145.5200 C   0  0  2  0  0  3  0  0  0  0  0  0
  188.2240  175.9150  146.7700 O   0  0  0  0  0  1  0  0  0  0  0  0
  193.8730  175.9630  146.5430 C   0  0  0  0  0  2  0  0  0  0  0  0
  194.3810  176.5360  145.3090 N   0  0  0  0  0  2  0  0  0  0  0  0
  195.5620  175.7690  144.9470 C   0  0  0  0  0  2  0  0  0  0  0  0
  196.6410  176.2270  142.7570 C   0  0  0  0  0  2  0  0  0  0  0  0
  196.1140  176.7350  141.4960 N   0  0  0  0  0  0  0  0  0  0  0  0
  194.7050  176.3580  141.4380 C   0  0  0  0  0  2  0  0  0  0  0  0
  196.7880  176.0130  140.4310 C   0  0  0  0  0  1  0  0  0  0  0  0
  194.2750  175.9600  142.8270 C   0  0  0  0  0  2  0  0  0  0  0  0
  195.5430  175.4640  143.4620 C   0  0  2  0  0  3  0  0  0  0  0  0
  187.4430  177.1580  141.8160 C   0  0  0  0  0  2  0  0  0  0  0  0
  184.0840  178.8200  146.1460 C   0  0  0  0  0  1  0  0  0  0  0  0
  186.2980  176.6640  143.9200 C   0  0  0  0  0  3  0  0  0  0  0  0
  185.3060  176.9420  145.0170 C   0  0  0  0  0  2  0  0  0  0  0  0
  186.4960  177.5160  142.9110 C   0  0  0  0  0  0  0  0  0  0  0  0
  185.0080  179.1820  143.8750 C   0  0  0  0  0  3  0  0  0  0  0  0
  184.8650  178.3400  145.0250 N   0  0  0  0  0  0  0  0  0  0  0  0
  185.7790  178.8020  142.8580 C   0  0  0  0  0  3  0  0  0  0  0  0
  2  8  1  0  0  0  0
  3  7  1  0  0  0  0
  4  9  1  0  0  0  0
  4  3  2  0  0  0  0
  5  4  1  0  0  0  0
  5  9  1  0  0  0  0
  5  1  1  1  0  0  0
  7  8  2  0  0  0  0
  7  6  1  0  0  0  0
  8 10  1  0  0  0  0
  9  2  2  0  0  0  0
 11 13  1  0  0  0  0
 11 15  1  0  0  0  0
 12 13  2  0  0  0  0
 13 17  1  0  0  0  0
 15 14  2  0  0  0  0
 16 14  1  0  0  0  0
 17 10  1  0  0  0  0
 17 16  2  0  0  0  0
 18  1  1  0  0  0  0
 18 19  1  0  0  0  0
 19 20  1  0  0  0  0
 21 28  1  1  0  0  0
 21 23  1  0  0  0  0
 22 27  1  6  0  0  0
 22 24  1  0  0  0  0
 24 23  1  0  0  0  0
 25 21  1  0  0  0  0
 26 20  1  1  0  0  0
 26 25  1  0  0  0  0
 26 22  1  0  0  0  0
 29 28  1  0  0  0  0
 30 29  1  0  0  0  0
 31 36  1  0  0  0  0
 32 31  1  0  0  0  0
 33 32  1  0  0  0  0
 33 35  1  0  0  0  0
 34 32  1  0  0  0  0
 35 36  1  0  0  0  0
 36 30  1  1  0  0  0
 37  1  1  0  0  0  0
 37 41  1  0  0  0  0
 39 40  1  0  0  0  0
 40 43  1  0  0  0  0
 41 39  2  0  0  0  0
 42 43  1  0  0  0  0
 43 38  1  0  0  0  0
 44 41  1  0  0  0  0
 44 42  2  0  0  0  0
M  END
>  <MODEL>
2

>  <REMARK>
 VINA RESULT:      -7.5      1.983      8.620
  Name = 
  13 active torsions:
  status: ('A' for Active; 'I' for Inactive)
    1  A    between atoms: C_6  and  C_9
    2  A    between atoms: O_7  and  C_38
    3  A    between atoms: O_7  and  C_39
    4  A    between atoms: N_8  and  C_9
    5  A    between atoms: N_8  and  C_27
    6  A    between atoms: C_15  and  C_33
    7  A    between atoms: C_16  and  C_30
    8  A    between atoms: C_16  and  N_41
    9  A    between atoms: C_21  and  N_41
   10  A    between atoms: C_24  and  C_30
   11  A    between atoms: C_24  and  C_37
   12  A    between atoms: C_27  and  C_43
   13  A    between atoms: C_33  and  N_41
                            x       y       z     vdW  Elec       q    Type
                         _______ _______ _______ _____ _____    ______ ____

>  <TORSDO>
F 13

$$$$
=
 OpenBabel11042418473D

 44 49  0  0  1  0  0  0  0  0999 V2000
  193.6360  175.7850  145.4380 N   0  0  0  0  0  0  0  0  0  0  0  0
  190.2540  176.8170  145.3800 C   0  0  0  0  0  3  0  0  0  0  0  0
  191.0770  175.0620  147.7610 C   0  0  0  0  0  3  0  0  0  0  0  0
  191.8950  175.8550  147.0220 C   0  0  0  0  0  0  0  0  0  0  0  0
  192.8410  176.6340  146.3290 C   0  0  2  0  0  3  0  0  0  0  0  0
  188.7760  174.4270  147.8890 F   0  0  0  0  0  0  0  0  0  0  0  0
  189.7280  175.1630  147.2680 C   0  0  0  0  0  0  0  0  0  0  0  0
  189.3210  176.0110  146.1370 C   0  0  0  0  0  0  0  0  0  0  0  0
  191.5040  176.6860  145.8940 C   0  0  0  0  0  0  0  0  0  0  0  0
  187.9680  175.9830  145.7700 O   0  0  0  0  0  0  0  0  0  0  0  0
  185.6950  178.9640  146.7500 C   0  0  0  0  0  2  0  0  0  0  0  0
  186.1850  176.9050  147.8570 O   0  0  0  0  0  0  0  0  0  0  0  0
  186.3310  177.6050  146.8180 C   0  0  0  0  0  0  0  0  0  0  0  0
  186.1110  178.8600  144.2980 C   0  0  0  0  0  3  0  0  0  0  0  0
  185.4850  179.4280  145.3320 C   0  0  0  0  0  3  0  0  0  0  0  0
  187.0000  177.6990  144.4850 C   0  0  0  0  0  3  0  0  0  0  0  0
  187.1300  177.1020  145.6730 C   0  0  0  0  0  0  0  0  0  0  0  0
  193.9150  176.4870  144.1760 C   0  0  0  0  0  2  0  0  0  0  0  0
  193.4870  175.7030  142.9370 C   0  0  0  0  0  2  0  0  0  0  0  0
  194.6950  175.0040  142.3430 C   0  0  0  0  0  2  0  0  0  0  0  0
  192.8170  171.9020  141.0880 C   0  0  1  0  0  3  0  0  0  0  0  0
  193.5650  174.5780  140.1240 C   0  0  1  0  0  3  0  0  0  0  0  0
  192.0880  172.5650  139.9220 C   0  0  0  0  0  2  0  0  0  0  0  0
  193.0360  173.4990  139.1820 C   0  0  0  0  0  2  0  0  0  0  0  0
  193.3280  172.9740  142.0470 C   0  0  0  0  0  2  0  0  0  0  0  0
  194.2720  173.9440  141.3360 C   0  0  2  0  0  3  0  0  0  0  0  0
  194.4450  175.3960  139.4150 O   0  0  0  0  0  1  0  0  0  0  0  0
  191.8650  170.9850  141.8330 C   0  0  0  0  0  2  0  0  0  0  0  0
  190.4930  171.2830  141.4630 N   0  0  0  0  0  2  0  0  0  0  0  0
  189.7700  171.5280  142.7000 C   0  0  0  0  0  2  0  0  0  0  0  0
  188.8110  173.3020  141.2500 C   0  0  0  0  0  2  0  0  0  0  0  0
  189.1640  174.7040  141.0580 N   0  0  0  0  0  0  0  0  0  0  0  0
  189.7700  175.1660  142.3020 C   0  0  0  0  0  2  0  0  0  0  0  0
  187.9210  175.4370  140.8960 C   0  0  0  0  0  1  0  0  0  0  0  0
  190.1390  173.9520  143.1170 C   0  0  0  0  0  2  0  0  0  0  0  0
  189.1520  172.9130  142.6700 C   0  0  2  0  0  3  0  0  0  0  0  0
  194.9020  175.4790  146.1000 C   0  0  0  0  0  2  0  0  0  0  0  0
  196.4130  170.0700  144.9840 C   0  0  0  0  0  1  0  0  0  0  0  0
  194.2830  173.1590  145.6360 C   0  0  0  0  0  3  0  0  0  0  0  0
  194.5640  171.6870  145.4940 C   0  0  0  0  0  2  0  0  0  0  0  0
  195.2480  174.0420  145.9030 C   0  0  0  0  0  0  0  0  0  0  0  0
  196.9940  172.3540  145.7500 C   0  0  0  0  0  3  0  0  0  0  0  0
  195.9960  171.4080  145.3490 N   0  0  0  0  0  0  0  0  0  0  0  0
  196.6530  173.6130  146.0210 C   0  0  0  0  0  3  0  0  0  0  0  0
  1 37  1  0  0  0  0
  2  9  2  0  0  0  0
  2  8  1  0  0  0  0
  4  3  2  0  0  0  0
  5  1  1  6  0  0  0
  5  4  1  0  0  0  0
  7  3  1  0  0  0  0
  7  6  1  0  0  0  0
  8  7  2  0  0  0  0
  9  5  1  0  0  0  0
  9  4  1  0  0  0  0
 10  8  1  0  0  0  0
 11 13  1  0  0  0  0
 13 12  2  0  0  0  0
 14 16  1  0  0  0  0
 14 15  2  0  0  0  0
 15 11  1  0  0  0  0
 16 17  2  0  0  0  0
 17 10  1  0  0  0  0
 17 13  1  0  0  0  0
 18  1  1  0  0  0  0
 19 18  1  0  0  0  0
 20 19  1  0  0  0  0
 21 28  1  1  0  0  0
 21 25  1  0  0  0  0
 22 27  1  6  0  0  0
 22 26  1  0  0  0  0
 23 21  1  0  0  0  0
 24 23  1  0  0  0  0
 24 22  1  0  0  0  0
 26 25  1  0  0  0  0
 26 20  1  1  0  0  0
 29 28  1  0  0  0  0
 29 30  1  0  0  0  0
 31 36  1  0  0  0  0
 32 31  1  0  0  0  0
 32 33  1  0  0  0  0
 33 35  1  0  0  0  0
 34 32  1  0  0  0  0
 36 30  1  6  0  0  0
 36 35  1  0  0  0  0
 38 43  1  0  0  0  0
 39 41  2  0  0  0  0
 40 39  1  0  0  0  0
 41 44  1  0  0  0  0
 41 37  1  0  0  0  0
 42 44  2  0  0  0  0
 43 40  1  0  0  0  0
 43 42  1  0  0  0  0
M  END
>  <MODEL>
3

>  <REMARK>
 VINA RESULT:      -7.4      1.669      2.991
  Name = 
  13 active torsions:
  status: ('A' for Active; 'I' for Inactive)
    1  A    between atoms: C_6  and  C_9
    2  A    between atoms: O_7  and  C_38
    3  A    between atoms: O_7  and  C_39
    4  A    between atoms: N_8  and  C_9
    5  A    between atoms: N_8  and  C_27
    6  A    between atoms: C_15  and  C_33
    7  A    between atoms: C_16  and  C_30
    8  A    between atoms: C_16  and  N_41
    9  A    between atoms: C_21  and  N_41
   10  A    between atoms: C_24  and  C_30
   11  A    between atoms: C_24  and  C_37
   12  A    between atoms: C_27  and  C_43
   13  A    between atoms: C_33  and  N_41
                            x       y       z     vdW  Elec       q    Type
                         _______ _______ _______ _____ _____    ______ ____

>  <TORSDO>
F 13

$$$$
=
 OpenBabel11042418473D

 44 49  0  0  1  0  0  0  0  0999 V2000
  193.7550  175.9610  144.2060 N   0  0  0  0  0  0  0  0  0  0  0  0
  190.3680  176.9590  144.4000 C   0  0  0  0  0  3  0  0  0  0  0  0
  191.3210  175.0260  146.5870 C   0  0  0  0  0  3  0  0  0  0  0  0
  192.0950  175.8850  145.8750 C   0  0  0  0  0  0  0  0  0  0  0  0
  193.0000  176.7270  145.2010 C   0  0  2  0  0  3  0  0  0  0  0  0
  189.0330  174.3590  146.7780 F   0  0  0  0  0  0  0  0  0  0  0  0
  189.9480  175.1530  146.1720 C   0  0  0  0  0  0  0  0  0  0  0  0
  189.4800  176.0850  145.1340 C   0  0  0  0  0  0  0  0  0  0  0  0
  191.6430  176.8000  144.8390 C   0  0  0  0  0  0  0  0  0  0  0  0
  188.1090  176.0720  144.8350 O   0  0  0  0  0  0  0  0  0  0  0  0
  185.9200  178.7260  146.6190 C   0  0  0  0  0  2  0  0  0  0  0  0
  186.6780  176.5670  147.3020 O   0  0  0  0  0  0  0  0  0  0  0  0
  186.6140  177.4160  146.3720 C   0  0  0  0  0  0  0  0  0  0  0  0
  185.9100  179.0020  144.1440 C   0  0  0  0  0  3  0  0  0  0  0  0
  185.4490  179.3730  145.3420 C   0  0  0  0  0  3  0  0  0  0  0  0
  186.8650  177.8870  144.0030 C   0  0  0  0  0  3  0  0  0  0  0  0
  187.2220  177.1360  145.0490 C   0  0  0  0  0  0  0  0  0  0  0  0
  193.3450  176.3430  142.8460 C   0  0  0  0  0  2  0  0  0  0  0  0
  193.2510  175.1600  141.8850 C   0  0  0  0  0  2  0  0  0  0  0  0
  192.9400  173.9000  142.6680 C   0  0  0  0  0  2  0  0  0  0  0  0
  189.1740  174.0680  141.9510 C   0  0  1  0  0  3  0  0  0  0  0  0
  191.0700  172.3900  143.4480 C   0  0  1  0  0  3  0  0  0  0  0  0
  188.8250  172.6400  142.3650 C   0  0  0  0  0  2  0  0  0  0  0  0
  189.5600  172.2780  143.6480 C   0  0  0  0  0  2  0  0  0  0  0  0
  190.6790  174.1810  141.7250 C   0  0  0  0  0  2  0  0  0  0  0  0
  191.4550  173.8090  142.9900 C   0  0  2  0  0  3  0  0  0  0  0  0
  191.7040  172.0740  144.6510 O   0  0  0  0  0  1  0  0  0  0  0  0
  188.4530  174.4190  140.6630 C   0  0  0  0  0  2  0  0  0  0  0  0
  188.2120  173.2180  139.8830 N   0  0  0  0  0  2  0  0  0  0  0  0
  188.5310  173.5450  138.5020 C   0  0  0  0  0  2  0  0  0  0  0  0
  189.9550  171.5640  138.9680 C   0  0  0  0  0  2  0  0  0  0  0  0
  191.3880  171.4250  139.2060 N   0  0  0  0  0  0  0  0  0  0  0  0
  192.0460  172.5240  138.5070 C   0  0  0  0  0  2  0  0  0  0  0  0
  191.8100  170.1980  138.5530 C   0  0  0  0  0  1  0  0  0  0  0  0
  190.9950  173.5510  138.1660 C   0  0  0  0  0  2  0  0  0  0  0  0
  189.7350  172.7430  138.0480 C   0  0  2  0  0  3  0  0  0  0  0  0
  195.1750  176.2590  144.3730 C   0  0  0  0  0  2  0  0  0  0  0  0
  197.8440  171.2110  144.8140 C   0  0  0  0  0  1  0  0  0  0  0  0
  195.9950  174.4080  145.7460 C   0  0  0  0  0  3  0  0  0  0  0  0
  196.8110  173.1680  145.9960 C   0  0  0  0  0  2  0  0  0  0  0  0
  195.9460  174.9940  144.5470 C   0  0  0  0  0  0  0  0  0  0  0  0
  197.2670  173.2360  143.5060 C   0  0  0  0  0  3  0  0  0  0  0  0
  197.2400  172.5260  144.7500 N   0  0  0  0  0  0  0  0  0  0  0  0
  196.6580  174.4150  143.3950 C   0  0  0  0  0  3  0  0  0  0  0  0
  1 37  1  0  0  0  0
  2  9  2  0  0  0  0
  2  8  1  0  0  0  0
  4  3  2  0  0  0  0
  5  1  1  6  0  0  0
  5  4  1  0  0  0  0
  7  3  1  0  0  0  0
  7  6  1  0  0  0  0
  8  7  2  0  0  0  0
  9  5  1  0  0  0  0
  9  4  1  0  0  0  0
 10 17  1  0  0  0  0
 10  8  1  0  0  0  0
 13 11  1  0  0  0  0
 13 12  2  0  0  0  0
 14 15  2  0  0  0  0
 15 11  1  0  0  0  0
 16 14  1  0  0  0  0
 16 17  2  0  0  0  0
 17 13  1  0  0  0  0
 18  1  1  0  0  0  0
 19 20  1  0  0  0  0
 19 18  1  0  0  0  0
 21 28  1  6  0  0  0
 21 23  1  0  0  0  0
 22 24  1  0  0  0  0
 22 27  1  1  0  0  0
 23 24  1  0  0  0  0
 25 21  1  0  0  0  0
 25 26  1  0  0  0  0
 26 20  1  6  0  0  0
 26 22  1  0  0  0  0
 29 28  1  0  0  0  0
 30 29  1  0  0  0  0
 31 32  1  0  0  0  0
 33 32  1  0  0  0  0
 34 32  1  0  0  0  0
 35 33  1  0  0  0  0
 36 35  1  0  0  0  0
 36 30  1  1  0  0  0
 36 31  1  0  0  0  0
 37 41  1  0  0  0  0
 39 40  1  0  0  0  0
 41 39  2  0  0  0  0
 42 43  1  0  0  0  0
 43 38  1  0  0  0  0
 43 40  1  0  0  0  0
 44 42  2  0  0  0  0
 44 41  1  0  0  0  0
M  END
>  <MODEL>
4

>  <REMARK>
 VINA RESULT:      -7.3      2.032      3.822
  Name = 
  13 active torsions:
  status: ('A' for Active; 'I' for Inactive)
    1  A    between atoms: C_6  and  C_9
    2  A    between atoms: O_7  and  C_38
    3  A    between atoms: O_7  and  C_39
    4  A    between atoms: N_8  and  C_9
    5  A    between atoms: N_8  and  C_27
    6  A    between atoms: C_15  and  C_33
    7  A    between atoms: C_16  and  C_30
    8  A    between atoms: C_16  and  N_41
    9  A    between atoms: C_21  and  N_41
   10  A    between atoms: C_24  and  C_30
   11  A    between atoms: C_24  and  C_37
   12  A    between atoms: C_27  and  C_43
   13  A    between atoms: C_33  and  N_41
                            x       y       z     vdW  Elec       q    Type
                         _______ _______ _______ _____ _____    ______ ____

>  <TORSDO>
F 13

$$$$
=
 OpenBabel11042418473D

 44 49  0  0  1  0  0  0  0  0999 V2000
  189.1570  173.2200  141.7990 N   0  0  0  0  0  0  0  0  0  0  0  0
  187.5610  175.6730  143.7850 C   0  0  0  0  0  3  0  0  0  0  0  0
  187.8880  176.3630  140.8110 C   0  0  0  0  0  3  0  0  0  0  0  0
  187.8370  175.1180  141.3500 C   0  0  0  0  0  0  0  0  0  0  0  0
  187.8030  173.7810  141.7880 C   0  0  2  0  0  3  0  0  0  0  0  0
  187.7920  178.6530  141.4920 F   0  0  0  0  0  0  0  0  0  0  0  0
  187.7550  177.3480  141.8540 C   0  0  0  0  0  0  0  0  0  0  0  0
  187.5860  177.0280  143.2790 C   0  0  0  0  0  0  0  0  0  0  0  0
  187.6820  174.7910  142.7600 C   0  0  0  0  0  0  0  0  0  0  0  0
  187.4890  178.1060  144.1700 O   0  0  0  0  0  0  0  0  0  0  0  0
  184.0500  178.6780  145.8640 C   0  0  0  0  0  2  0  0  0  0  0  0
  184.9280  179.3930  143.7610 O   0  0  0  0  0  0  0  0  0  0  0  0
  185.1580  178.8140  144.8570 C   0  0  0  0  0  0  0  0  0  0  0  0
  185.8340  178.1240  147.5110 C   0  0  0  0  0  3  0  0  0  0  0  0
  184.5710  178.4850  147.2640 C   0  0  0  0  0  3  0  0  0  0  0  0
  186.8090  177.9550  146.4170 C   0  0  0  0  0  3  0  0  0  0  0  0
  186.5020  178.2610  145.1530 C   0  0  0  0  0  0  0  0  0  0  0  0
  189.2930  172.2300  142.8790 C   0  0  0  0  0  2  0  0  0  0  0  0
  190.4000  172.5670  143.8750 C   0  0  0  0  0  2  0  0  0  0  0  0
  189.7800  172.9530  145.2040 C   0  0  0  0  0  2  0  0  0  0  0  0
  191.5770  176.3380  145.0250 C   0  0  1  0  0  3  0  0  0  0  0  0
  189.3710  175.0780  146.5080 C   0  0  1  0  0  3  0  0  0  0  0  0
  190.5120  177.1710  145.7360 C   0  0  0  0  0  2  0  0  0  0  0  0
  189.9800  176.4100  146.9420 C   0  0  0  0  0  2  0  0  0  0  0  0
  190.9700  175.0160  144.5660 C   0  0  0  0  0  2  0  0  0  0  0  0
  190.4070  174.2280  145.7500 C   0  0  2  0  0  3  0  0  0  0  0  0
  188.9180  174.4040  147.6420 O   0  0  0  0  0  1  0  0  0  0  0  0
  192.0930  177.0930  143.8140 C   0  0  0  0  0  2  0  0  0  0  0  0
  193.1350  176.3260  143.1550 N   0  0  0  0  0  2  0  0  0  0  0  0
  194.3210  176.4280  143.9890 C   0  0  0  0  0  2  0  0  0  0  0  0
  194.2930  174.0480  143.2790 C   0  0  0  0  0  2  0  0  0  0  0  0
  194.0160  172.8150  144.0070 N   0  0  0  0  0  0  0  0  0  0  0  0
  194.3720  173.0520  145.4020 C   0  0  0  0  0  2  0  0  0  0  0  0
  194.9340  171.8080  143.5030 C   0  0  0  0  0  1  0  0  0  0  0  0
  194.5010  174.5420  145.6000 C   0  0  0  0  0  2  0  0  0  0  0  0
  194.8940  175.0470  144.2420 C   0  0  2  0  0  3  0  0  0  0  0  0
  189.3930  172.5590  140.5180 C   0  0  0  0  0  2  0  0  0  0  0  0
  194.0100  174.5230  137.7580 C   0  0  0  0  0  1  0  0  0  0  0  0
  191.5990  173.6130  140.5630 C   0  0  0  0  0  3  0  0  0  0  0  0
  192.7840  174.2980  139.9350 C   0  0  0  0  0  2  0  0  0  0  0  0
  190.5700  173.1700  139.8370 C   0  0  0  0  0  0  0  0  0  0  0  0
  191.6590  173.7380  137.7360 C   0  0  0  0  0  3  0  0  0  0  0  0
  192.8230  174.1150  138.4810 N   0  0  0  0  0  0  0  0  0  0  0  0
  190.5770  173.2890  138.3680 C   0  0  0  0  0  3  0  0  0  0  0  0
  1 18  1  0  0  0  0
  3  4  2  0  0  0  0
  3  7  1  0  0  0  0
  4  5  1  0  0  0  0
  4  9  1  0  0  0  0
  5  1  1  1  0  0  0
  5  9  1  0  0  0  0
  6  7  1  0  0  0  0
  7  8  2  0  0  0  0
  8  2  1  0  0  0  0
  8 10  1  0  0  0  0
  9  2  2  0  0  0  0
 10 17  1  0  0  0  0
 11 15  1  0  0  0  0
 12 13  2  0  0  0  0
 13 17  1  0  0  0  0
 13 11  1  0  0  0  0
 15 14  2  0  0  0  0
 16 14  1  0  0  0  0
 17 16  2  0  0  0  0
 18 19  1  0  0  0  0
 19 20  1  0  0  0  0
 21 28  1  6  0  0  0
 21 23  1  0  0  0  0
 22 24  1  0  0  0  0
 22 27  1  1  0  0  0
 23 24  1  0  0  0  0
 25 21  1  0  0  0  0
 25 26  1  0  0  0  0
 26 20  1  6  0  0  0
 26 22  1  0  0  0  0
 29 28  1  0  0  0  0
 29 30  1  0  0  0  0
 31 32  1  0  0  0  0
 31 36  1  0  0  0  0
 32 33  1  0  0  0  0
 33 35  1  0  0  0  0
 34 32  1  0  0  0  0
 36 30  1  6  0  0  0
 36 35  1  0  0  0  0
 37  1  1  0  0  0  0
 38 43  1  0  0  0  0
 40 39  1  0  0  0  0
 41 37  1  0  0  0  0
 41 39  2  0  0  0  0
 42 44  2  0  0  0  0
 42 43  1  0  0  0  0
 43 40  1  0  0  0  0
 44 41  1  0  0  0  0
M  END
>  <MODEL>
5

>  <REMARK>
 VINA RESULT:      -7.2      2.516      6.516
  Name = 
  13 active torsions:
  status: ('A' for Active; 'I' for Inactive)
    1  A    between atoms: C_6  and  C_9
    2  A    between atoms: O_7  and  C_38
    3  A    between atoms: O_7  and  C_39
    4  A    between atoms: N_8  and  C_9
    5  A    between atoms: N_8  and  C_27
    6  A    between atoms: C_15  and  C_33
    7  A    between atoms: C_16  and  C_30
    8  A    between atoms: C_16  and  N_41
    9  A    between atoms: C_21  and  N_41
   10  A    between atoms: C_24  and  C_30
   11  A    between atoms: C_24  and  C_37
   12  A    between atoms: C_27  and  C_43
   13  A    between atoms: C_33  and  N_41
                            x       y       z     vdW  Elec       q    Type
                         _______ _______ _______ _____ _____    ______ ____

>  <TORSDO>
F 13

$$$$
=
 OpenBabel11042418473D

 44 49  0  0  1  0  0  0  0  0999 V2000
  190.9090  173.2350  143.0030 N   0  0  0  0  0  0  0  0  0  0  0  0
  188.8050  175.5350  144.6730 C   0  0  0  0  0  3  0  0  0  0  0  0
  188.8690  175.7590  141.6110 C   0  0  0  0  0  3  0  0  0  0  0  0
  189.1460  174.6510  142.3460 C   0  0  0  0  0  0  0  0  0  0  0  0
  189.4580  173.4410  142.9950 C   0  0  2  0  0  3  0  0  0  0  0  0
  188.2240  178.0400  141.9200 F   0  0  0  0  0  0  0  0  0  0  0  0
  188.5230  176.8470  142.4880 C   0  0  0  0  0  0  0  0  0  0  0  0
  188.4770  176.7470  143.9550 C   0  0  0  0  0  0  0  0  0  0  0  0
  189.1150  174.5450  143.7970 C   0  0  0  0  0  0  0  0  0  0  0  0
  188.1380  177.9080  144.6660 O   0  0  0  0  0  0  0  0  0  0  0  0
  184.3990  178.7610  145.2230 C   0  0  0  0  0  2  0  0  0  0  0  0
  185.9410  179.4020  143.5160 O   0  0  0  0  0  0  0  0  0  0  0  0
  185.7720  178.8050  144.6140 C   0  0  0  0  0  0  0  0  0  0  0  0
  185.5320  178.0590  147.3270 C   0  0  0  0  0  3  0  0  0  0  0  0
  184.4410  178.5230  146.7110 C   0  0  0  0  0  3  0  0  0  0  0  0
  186.7820  177.8110  146.5860 C   0  0  0  0  0  3  0  0  0  0  0  0
  186.9090  178.1420  145.2980 C   0  0  0  0  0  0  0  0  0  0  0  0
  191.2330  171.8980  143.5240 C   0  0  0  0  0  2  0  0  0  0  0  0
  192.4980  171.8700  144.3810 C   0  0  0  0  0  2  0  0  0  0  0  0
  193.5350  170.9840  143.7180 C   0  0  0  0  0  2  0  0  0  0  0  0
  196.2790  173.4310  144.8130 C   0  0  1  0  0  3  0  0  0  0  0  0
  195.4570  170.6530  145.3220 C   0  0  1  0  0  3  0  0  0  0  0  0
  196.7380  172.6760  146.0590 C   0  0  0  0  0  2  0  0  0  0  0  0
  196.8200  171.1860  145.7610 C   0  0  0  0  0  2  0  0  0  0  0  0
  194.9070  172.9210  144.3830 C   0  0  0  0  0  2  0  0  0  0  0  0
  194.9440  171.4210  144.0900 C   0  0  2  0  0  3  0  0  0  0  0  0
  195.5810  169.2930  145.0370 O   0  0  0  0  0  1  0  0  0  0  0  0
  196.1820  174.9140  145.1190 C   0  0  0  0  0  2  0  0  0  0  0  0
  195.1750  175.1490  146.1370 N   0  0  0  0  0  2  0  0  0  0  0  0
  194.5880  176.4490  145.8540 C   0  0  0  0  0  2  0  0  0  0  0  0
  192.6070  177.1660  147.1690 C   0  0  0  0  0  2  0  0  0  0  0  0
  191.5540  176.4110  147.8400 N   0  0  0  0  0  0  0  0  0  0  0  0
  191.4120  175.1470  147.1250 C   0  0  0  0  0  2  0  0  0  0  0  0
  190.3160  177.1450  147.6480 C   0  0  0  0  0  1  0  0  0  0  0  0
  192.6340  174.9640  146.2600 C   0  0  0  0  0  2  0  0  0  0  0  0
  193.0780  176.3690  145.9740 C   0  0  2  0  0  3  0  0  0  0  0  0
  191.3980  173.3390  141.6300 C   0  0  0  0  0  2  0  0  0  0  0  0
  196.1920  176.4530  141.3010 C   0  0  0  0  0  1  0  0  0  0  0  0
  193.7160  173.5870  140.8940 C   0  0  0  0  0  3  0  0  0  0  0  0
  195.0690  174.2490  140.8830 C   0  0  0  0  0  2  0  0  0  0  0  0
  192.6950  174.0730  141.6040 C   0  0  0  0  0  0  0  0  0  0  0  0
  193.9540  176.0410  142.2830 C   0  0  0  0  0  3  0  0  0  0  0  0
  195.0260  175.6050  141.4390 N   0  0  0  0  0  0  0  0  0  0  0  0
  192.8380  175.3200  142.3740 C   0  0  0  0  0  3  0  0  0  0  0  0
  1 18  1  0  0  0  0
  3  4  2  0  0  0  0
  3  7  1  0  0  0  0
  4  5  1  0  0  0  0
  4  9  1  0  0  0  0
  5  1  1  1  0  0  0
  5  9  1  0  0  0  0
  6  7  1  0  0  0  0
  7  8  2  0  0  0  0
  8 10  1  0  0  0  0
  8  2  1  0  0  0  0
  9  2  2  0  0  0  0
 10 17  1  0  0  0  0
 11 15  1  0  0  0  0
 12 13  2  0  0  0  0
 13 11  1  0  0  0  0
 13 17  1  0  0  0  0
 15 14  2  0  0  0  0
 16 14  1  0  0  0  0
 17 16  2  0  0  0  0
 18 19  1  0  0  0  0
 20 19  1  0  0  0  0
 21 28  1  1  0  0  0
 21 23  1  0  0  0  0
 22 27  1  6  0  0  0
 22 24  1  0  0  0  0
 24 23  1  0  0  0  0
 25 21  1  0  0  0  0
 26 20  1  1  0  0  0
 26 25  1  0  0  0  0
 26 22  1  0  0  0  0
 28 29  1  0  0  0  0
 30 29  1  0  0  0  0
 31 32  1  0  0  0  0
 33 32  1  0  0  0  0
 34 32  1  0  0  0  0
 35 33  1  0  0  0  0
 36 30  1  1  0  0  0
 36 35  1  0  0  0  0
 36 31  1  0  0  0  0
 37  1  1  0  0  0  0
 38 43  1  0  0  0  0
 39 41  2  0  0  0  0
 40 39  1  0  0  0  0
 40 43  1  0  0  0  0
 41 37  1  0  0  0  0
 41 44  1  0  0  0  0
 42 44  2  0  0  0  0
 43 42  1  0  0  0  0
M  END
>  <MODEL>
6

>  <REMARK>
 VINA RESULT:      -7.1      2.443      5.718
  Name = 
  13 active torsions:
  status: ('A' for Active; 'I' for Inactive)
    1  A    between atoms: C_6  and  C_9
    2  A    between atoms: O_7  and  C_38
    3  A    between atoms: O_7  and  C_39
    4  A    between atoms: N_8  and  C_9
    5  A    between atoms: N_8  and  C_27
    6  A    between atoms: C_15  and  C_33
    7  A    between atoms: C_16  and  C_30
    8  A    between atoms: C_16  and  N_41
    9  A    between atoms: C_21  and  N_41
   10  A    between atoms: C_24  and  C_30
   11  A    between atoms: C_24  and  C_37
   12  A    between atoms: C_27  and  C_43
   13  A    between atoms: C_33  and  N_41
                            x       y       z     vdW  Elec       q    Type
                         _______ _______ _______ _____ _____    ______ ____

>  <TORSDO>
F 13

$$$$
=
 OpenBabel11042418473D

 44 49  0  0  1  0  0  0  0  0999 V2000
  190.3230  173.2370  142.6320 N   0  0  0  0  0  0  0  0  0  0  0  0
  188.2320  176.0820  142.4320 C   0  0  0  0  0  3  0  0  0  0  0  0
  191.1830  176.6320  143.0810 C   0  0  0  0  0  3  0  0  0  0  0  0
  190.6880  175.5540  142.4200 C   0  0  0  0  0  0  0  0  0  0  0  0
  190.2990  174.3910  141.7290 C   0  0  2  0  0  3  0  0  0  0  0  0
  190.4170  178.6460  144.1180 F   0  0  0  0  0  0  0  0  0  0  0  0
  190.1030  177.5150  143.4420 C   0  0  0  0  0  0  0  0  0  0  0  0
  188.6890  177.2670  143.1240 C   0  0  0  0  0  0  0  0  0  0  0  0
  189.2900  175.2930  142.1130 C   0  0  0  0  0  0  0  0  0  0  0  0
  187.7580  178.2200  143.5630 O   0  0  0  0  0  0  0  0  0  0  0  0
  184.6270  178.5160  145.8270 C   0  0  0  0  0  2  0  0  0  0  0  0
  185.5370  179.9760  144.1700 O   0  0  0  0  0  0  0  0  0  0  0  0
  185.6850  178.9160  144.8360 C   0  0  0  0  0  0  0  0  0  0  0  0
  186.3180  176.9430  146.7550 C   0  0  0  0  0  3  0  0  0  0  0  0
  185.1590  177.5940  146.8920 C   0  0  0  0  0  3  0  0  0  0  0  0
  187.1740  177.1440  145.5710 C   0  0  0  0  0  3  0  0  0  0  0  0
  186.8820  178.0610  144.6450 C   0  0  0  0  0  0  0  0  0  0  0  0
  189.2790  173.3680  143.6600 C   0  0  0  0  0  2  0  0  0  0  0  0
  189.7960  173.1550  145.0820 C   0  0  0  0  0  2  0  0  0  0  0  0
  189.6540  174.4450  145.8670 C   0  0  0  0  0  2  0  0  0  0  0  0
  193.4680  174.7440  146.1640 C   0  0  1  0  0  3  0  0  0  0  0  0
  191.0720  176.3640  146.6970 C   0  0  1  0  0  3  0  0  0  0  0  0
  193.5420  176.2640  146.2960 C   0  0  0  0  0  2  0  0  0  0  0  0
  192.4480  176.7570  147.2310 C   0  0  0  0  0  2  0  0  0  0  0  0
  192.1040  174.3450  145.6080 C   0  0  0  0  0  2  0  0  0  0  0  0
  190.9750  174.8380  146.5140 C   0  0  2  0  0  3  0  0  0  0  0  0
  190.1010  176.8130  147.5930 O   0  0  0  0  0  1  0  0  0  0  0  0
  194.5500  174.2580  145.2180 C   0  0  0  0  0  2  0  0  0  0  0  0
  194.1000  174.3770  143.8430 N   0  0  0  0  0  2  0  0  0  0  0  0
  194.6620  173.2490  143.1190 C   0  0  0  0  0  2  0  0  0  0  0  0
  196.3270  174.6870  141.9670 C   0  0  0  0  0  2  0  0  0  0  0  0
  196.1810  175.7630  140.9930 N   0  0  0  0  0  0  0  0  0  0  0  0
  194.9510  175.5050  140.2520 C   0  0  0  0  0  2  0  0  0  0  0  0
  197.2770  175.6340  140.0490 C   0  0  0  0  0  1  0  0  0  0  0  0
  194.1480  174.4910  141.0270 C   0  0  0  0  0  2  0  0  0  0  0  0
  195.1900  173.7100  141.7740 C   0  0  2  0  0  3  0  0  0  0  0  0
  190.0670  172.0310  141.8480 C   0  0  0  0  0  2  0  0  0  0  0  0
  195.1910  169.6760  140.8530 C   0  0  0  0  0  1  0  0  0  0  0  0
  191.9170  171.5490  140.3230 C   0  0  0  0  0  3  0  0  0  0  0  0
  193.1780  170.8400  139.9090 C   0  0  0  0  0  2  0  0  0  0  0  0
  191.3520  171.3520  141.5170 C   0  0  0  0  0  0  0  0  0  0  0  0
  193.1730  169.9250  142.2710 C   0  0  0  0  0  3  0  0  0  0  0  0
  193.8580  170.2090  141.0450 N   0  0  0  0  0  0  0  0  0  0  0  0
  191.9770  170.4600  142.5090 C   0  0  0  0  0  3  0  0  0  0  0  0
  1 18  1  0  0  0  0
  2  8  1  0  0  0  0
  3  7  1  0  0  0  0
  4  3  2  0  0  0  0
  5  9  1  0  0  0  0
  5  4  1  0  0  0  0
  5  1  1  1  0  0  0
  7  6  1  0  0  0  0
  8  7  2  0  0  0  0
  8 10  1  0  0  0  0
  9  4  1  0  0  0  0
  9  2  2  0  0  0  0
 10 17  1  0  0  0  0
 11 15  1  0  0  0  0
 12 13  2  0  0  0  0
 13 11  1  0  0  0  0
 14 15  2  0  0  0  0
 16 14  1  0  0  0  0
 17 13  1  0  0  0  0
 17 16  2  0  0  0  0
 18 19  1  0  0  0  0
 19 20  1  0  0  0  0
 21 28  1  6  0  0  0
 21 23  1  0  0  0  0
 22 24  1  0  0  0  0
 22 27  1  1  0  0  0
 23 24  1  0  0  0  0
 25 21  1  0  0  0  0
 25 26  1  0  0  0  0
 26 20  1  6  0  0  0
 26 22  1  0  0  0  0
 29 28  1  0  0  0  0
 30 29  1  0  0  0  0
 32 31  1  0  0  0  0
 33 32  1  0  0  0  0
 33 35  1  0  0  0  0
 34 32  1  0  0  0  0
 35 36  1  0  0  0  0
 36 31  1  0  0  0  0
 36 30  1  1  0  0  0
 37  1  1  0  0  0  0
 38 43  1  0  0  0  0
 39 41  2  0  0  0  0
 40 39  1  0  0  0  0
 40 43  1  0  0  0  0
 41 37  1  0  0  0  0
 41 44  1  0  0  0  0
 42 44  2  0  0  0  0
 43 42  1  0  0  0  0
M  END
>  <MODEL>
7

>  <REMARK>
 VINA RESULT:      -6.9      2.705      6.147
  Name = 
  13 active torsions:
  status: ('A' for Active; 'I' for Inactive)
    1  A    between atoms: C_6  and  C_9
    2  A    between atoms: O_7  and  C_38
    3  A    between atoms: O_7  and  C_39
    4  A    between atoms: N_8  and  C_9
    5  A    between atoms: N_8  and  C_27
    6  A    between atoms: C_15  and  C_33
    7  A    between atoms: C_16  and  C_30
    8  A    between atoms: C_16  and  N_41
    9  A    between atoms: C_21  and  N_41
   10  A    between atoms: C_24  and  C_30
   11  A    between atoms: C_24  and  C_37
   12  A    between atoms: C_27  and  C_43
   13  A    between atoms: C_33  and  N_41
                            x       y       z     vdW  Elec       q    Type
                         _______ _______ _______ _____ _____    ______ ____

>  <TORSDO>
F 13

$$$$
=
 OpenBabel11042418473D

 44 49  0  0  1  0  0  0  0  0999 V2000
  190.6860  173.6750  142.7280 N   0  0  0  0  0  0  0  0  0  0  0  0
  188.4880  175.8550  144.4370 C   0  0  0  0  0  3  0  0  0  0  0  0
  188.6380  176.2220  141.3920 C   0  0  0  0  0  3  0  0  0  0  0  0
  188.9150  175.0860  142.0830 C   0  0  0  0  0  0  0  0  0  0  0  0
  189.2320  173.8540  142.6850 C   0  0  2  0  0  3  0  0  0  0  0  0
  187.9370  178.4740  141.7850 F   0  0  0  0  0  0  0  0  0  0  0  0
  188.2440  177.2620  142.3070 C   0  0  0  0  0  0  0  0  0  0  0  0
  188.1570  177.0920  143.7660 C   0  0  0  0  0  0  0  0  0  0  0  0
  188.8440  174.9130  143.5260 C   0  0  0  0  0  0  0  0  0  0  0  0
  187.7730  178.2120  144.5180 O   0  0  0  0  0  0  0  0  0  0  0  0
  184.0250  178.9670  145.1450 C   0  0  0  0  0  2  0  0  0  0  0  0
  185.5630  179.7880  143.5130 O   0  0  0  0  0  0  0  0  0  0  0  0
  185.3980  179.0850  144.5460 C   0  0  0  0  0  0  0  0  0  0  0  0
  185.1610  178.0760  147.1730 C   0  0  0  0  0  3  0  0  0  0  0  0
  184.0660  178.5870  146.6020 C   0  0  0  0  0  3  0  0  0  0  0  0
  186.4150  177.9150  146.4150 C   0  0  0  0  0  3  0  0  0  0  0  0
  186.5410  178.3710  145.1660 C   0  0  0  0  0  0  0  0  0  0  0  0
  191.0280  172.4160  143.4090 C   0  0  0  0  0  2  0  0  0  0  0  0
  191.9210  172.6110  144.6330 C   0  0  0  0  0  2  0  0  0  0  0  0
  191.4030  173.7770  145.4520 C   0  0  0  0  0  2  0  0  0  0  0  0
  195.0610  174.7400  146.0980 C   0  0  1  0  0  3  0  0  0  0  0  0
  192.4430  176.0510  145.8150 C   0  0  1  0  0  3  0  0  0  0  0  0
  194.9420  176.2250  145.7630 C   0  0  0  0  0  2  0  0  0  0  0  0
  193.6620  176.7910  146.3620 C   0  0  0  0  0  2  0  0  0  0  0  0
  193.8580  173.9900  145.5330 C   0  0  0  0  0  2  0  0  0  0  0  0
  192.5490  174.5420  146.1000 C   0  0  2  0  0  3  0  0  0  0  0  0
  191.2960  176.5830  146.4060 O   0  0  0  0  0  1  0  0  0  0  0  0
  196.3290  174.1760  145.4840 C   0  0  0  0  0  2  0  0  0  0  0  0
  196.0860  172.8360  144.9810 N   0  0  0  0  0  2  0  0  0  0  0  0
  196.9180  171.9370  145.7650 C   0  0  0  0  0  2  0  0  0  0  0  0
  194.9170  170.4650  145.7640 C   0  0  0  0  0  2  0  0  0  0  0  0
  194.5680  169.2900  146.5550 N   0  0  0  0  0  0  0  0  0  0  0  0
  195.8210  168.6510  146.9460 C   0  0  0  0  0  2  0  0  0  0  0  0
  193.8850  168.3670  145.6660 C   0  0  0  0  0  1  0  0  0  0  0  0
  196.9350  169.6430  146.7250 C   0  0  0  0  0  2  0  0  0  0  0  0
  196.4210  170.5120  145.6150 C   0  0  2  0  0  3  0  0  0  0  0  0
  191.1850  173.6200  141.3560 C   0  0  0  0  0  2  0  0  0  0  0  0
  196.1620  176.4150  140.8960 C   0  0  0  0  0  1  0  0  0  0  0  0
  193.4090  173.8380  140.3630 C   0  0  0  0  0  3  0  0  0  0  0  0
  194.8040  174.3990  140.2780 C   0  0  0  0  0  2  0  0  0  0  0  0
  192.5300  174.2590  141.2750 C   0  0  0  0  0  0  0  0  0  0  0  0
  194.0330  175.9890  142.0920 C   0  0  0  0  0  3  0  0  0  0  0  0
  194.9510  175.6360  141.0500 N   0  0  0  0  0  0  0  0  0  0  0  0
  192.8770  175.3400  142.2140 C   0  0  0  0  0  3  0  0  0  0  0  0
  1 18  1  0  0  0  0
  3  4  2  0  0  0  0
  3  7  1  0  0  0  0
  4  5  1  0  0  0  0
  4  9  1  0  0  0  0
  5  1  1  1  0  0  0
  5  9  1  0  0  0  0
  6  7  1  0  0  0  0
  7  8  2  0  0  0  0
  8  2  1  0  0  0  0
  8 10  1  0  0  0  0
  9  2  2  0  0  0  0
 10 17  1  0  0  0  0
 11 15  1  0  0  0  0
 12 13  2  0  0  0  0
 13 11  1  0  0  0  0
 13 17  1  0  0  0  0
 15 14  2  0  0  0  0
 16 14  1  0  0  0  0
 17 16  2  0  0  0  0
 18 19  1  0  0  0  0
 19 20  1  0  0  0  0
 21 28  1  6  0  0  0
 22 26  1  0  0  0  0
 22 24  1  0  0  0  0
 22 27  1  1  0  0  0
 23 21  1  0  0  0  0
 23 24  1  0  0  0  0
 25 21  1  0  0  0  0
 25 26  1  0  0  0  0
 26 20  1  6  0  0  0
 29 28  1  0  0  0  0
 29 30  1  0  0  0  0
 31 32  1  0  0  0  0
 32 33  1  0  0  0  0
 34 32  1  0  0  0  0
 35 33  1  0  0  0  0
 36 31  1  0  0  0  0
 36 30  1  1  0  0  0
 36 35  1  0  0  0  0
 37  1  1  0  0  0  0
 38 43  1  0  0  0  0
 39 41  2  0  0  0  0
 40 39  1  0  0  0  0
 40 43  1  0  0  0  0
 41 37  1  0  0  0  0
 41 44  1  0  0  0  0
 42 44  2  0  0  0  0
 43 42  1  0  0  0  0
M  END
>  <MODEL>
8

>  <REMARK>
 VINA RESULT:      -6.9      2.545      7.179
  Name = 
  13 active torsions:
  status: ('A' for Active; 'I' for Inactive)
    1  A    between atoms: C_6  and  C_9
    2  A    between atoms: O_7  and  C_38
    3  A    between atoms: O_7  and  C_39
    4  A    between atoms: N_8  and  C_9
    5  A    between atoms: N_8  and  C_27
    6  A    between atoms: C_15  and  C_33
    7  A    between atoms: C_16  and  C_30
    8  A    between atoms: C_16  and  N_41
    9  A    between atoms: C_21  and  N_41
   10  A    between atoms: C_24  and  C_30
   11  A    between atoms: C_24  and  C_37
   12  A    between atoms: C_27  and  C_43
   13  A    between atoms: C_33  and  N_41
                            x       y       z     vdW  Elec       q    Type
                         _______ _______ _______ _____ _____    ______ ____

>  <TORSDO>
F 13

$$$$
=
 OpenBabel11042418473D

 44 49  0  0  1  0  0  0  0  0999 V2000
  194.2310  175.7090  144.9630 N   0  0  0  0  0  0  0  0  0  0  0  0
  190.8350  176.6820  144.7990 C   0  0  0  0  0  3  0  0  0  0  0  0
  191.7090  175.3030  147.4000 C   0  0  0  0  0  3  0  0  0  0  0  0
  192.5070  175.9890  146.5420 C   0  0  0  0  0  0  0  0  0  0  0  0
  193.4340  176.6700  145.7300 C   0  0  2  0  0  3  0  0  0  0  0  0
  189.4180  174.6670  147.6490 F   0  0  0  0  0  0  0  0  0  0  0  0
  190.3530  175.3160  146.9150 C   0  0  0  0  0  0  0  0  0  0  0  0
  189.9220  175.9840  145.6770 C   0  0  0  0  0  0  0  0  0  0  0  0
  192.0930  176.6420  145.3090 C   0  0  0  0  0  0  0  0  0  0  0  0
  188.5650  175.8870  145.3370 O   0  0  0  0  0  0  0  0  0  0  0  0
  185.9670  178.6900  144.6950 C   0  0  0  0  0  2  0  0  0  0  0  0
  187.8880  177.9870  143.4620 O   0  0  0  0  0  0  0  0  0  0  0  0
  187.2030  177.8540  144.5120 C   0  0  0  0  0  0  0  0  0  0  0  0
  186.0680  178.0270  147.0930 C   0  0  0  0  0  3  0  0  0  0  0  0
  185.5810  178.8330  146.1440 C   0  0  0  0  0  3  0  0  0  0  0  0
  187.0640  176.9870  146.7760 C   0  0  0  0  0  3  0  0  0  0  0  0
  187.6000  176.8790  145.5570 C   0  0  0  0  0  0  0  0  0  0  0  0
  194.8030  176.3540  143.7710 C   0  0  0  0  0  2  0  0  0  0  0  0
  194.3990  175.6790  142.4610 C   0  0  0  0  0  2  0  0  0  0  0  0
  195.3520  174.5350  142.1710 C   0  0  0  0  0  2  0  0  0  0  0  0
  193.8410  173.9520  138.6930 C   0  0  1  0  0  3  0  0  0  0  0  0
  196.2240  175.1910  139.8930 C   0  0  1  0  0  3  0  0  0  0  0  0
  194.6750  174.9820  137.9350 C   0  0  0  0  0  2  0  0  0  0  0  0
  196.1250  174.9150  138.3940 C   0  0  0  0  0  2  0  0  0  0  0  0
  193.9150  174.2370  140.1910 C   0  0  0  0  0  2  0  0  0  0  0  0
  195.3610  174.1940  140.6880 C   0  0  2  0  0  3  0  0  0  0  0  0
  197.5620  175.0960  140.2760 O   0  0  0  0  0  1  0  0  0  0  0  0
  192.3930  174.0350  138.2450 C   0  0  0  0  0  2  0  0  0  0  0  0
  191.6050  173.0180  138.9170 N   0  0  0  0  0  2  0  0  0  0  0  0
  190.2120  173.4130  138.7850 C   0  0  0  0  0  2  0  0  0  0  0  0
  188.5520  174.4900  140.2860 C   0  0  0  0  0  2  0  0  0  0  0  0
  188.6560  175.0080  141.6460 N   0  0  0  0  0  0  0  0  0  0  0  0
  189.7110  174.2520  142.3120 C   0  0  0  0  0  2  0  0  0  0  0  0
  187.4120  174.6820  142.3220 C   0  0  0  0  0  1  0  0  0  0  0  0
  190.5120  173.5400  141.2500 C   0  0  0  0  0  2  0  0  0  0  0  0
  189.5260  173.3430  140.1350 C   0  0  2  0  0  3  0  0  0  0  0  0
  195.3200  175.2300  145.8100 C   0  0  0  0  0  2  0  0  0  0  0  0
  195.5290  169.5070  145.7830 C   0  0  0  0  0  1  0  0  0  0  0  0
  196.6140  173.1570  145.9040 C   0  0  0  0  0  3  0  0  0  0  0  0
  196.8000  171.6710  145.7510 C   0  0  0  0  0  2  0  0  0  0  0  0
  195.4320  173.7460  145.7110 C   0  0  0  0  0  0  0  0  0  0  0  0
  194.2930  171.6200  145.3910 C   0  0  0  0  0  3  0  0  0  0  0  0
  195.5220  170.9540  145.7070 N   0  0  0  0  0  0  0  0  0  0  0  0
  194.2360  172.9500  145.3850 C   0  0  0  0  0  3  0  0  0  0  0  0
  1 37  1  0  0  0  0
  2  9  2  0  0  0  0
  2  8  1  0  0  0  0
  4  3  2  0  0  0  0
  5  1  1  6  0  0  0
  5  4  1  0  0  0  0
  7  3  1  0  0  0  0
  7  6  1  0  0  0  0
  8  7  2  0  0  0  0
  9  5  1  0  0  0  0
  9  4  1  0  0  0  0
 10 17  1  0  0  0  0
 10  8  1  0  0  0  0
 11 15  1  0  0  0  0
 12 13  2  0  0  0  0
 13 11  1  0  0  0  0
 13 17  1  0  0  0  0
 15 14  2  0  0  0  0
 16 14  1  0  0  0  0
 17 16  2  0  0  0  0
 18  1  1  0  0  0  0
 19 18  1  0  0  0  0
 20 19  1  0  0  0  0
 21 28  1  6  0  0  0
 21 25  1  0  0  0  0
 22 27  1  1  0  0  0
 22 26  1  0  0  0  0
 23 24  1  0  0  0  0
 23 21  1  0  0  0  0
 24 22  1  0  0  0  0
 25 26  1  0  0  0  0
 26 20  1  1  0  0  0
 28 29  1  0  0  0  0
 30 29  1  0  0  0  0
 31 32  1  0  0  0  0
 32 33  1  0  0  0  0
 32 34  1  0  0  0  0
 35 33  1  0  0  0  0
 36 30  1  6  0  0  0
 36 31  1  0  0  0  0
 36 35  1  0  0  0  0
 40 39  1  0  0  0  0
 41 37  1  0  0  0  0
 41 39  2  0  0  0  0
 42 43  1  0  0  0  0
 43 40  1  0  0  0  0
 43 38  1  0  0  0  0
 44 42  2  0  0  0  0
 44 41  1  0  0  0  0
M  END
>  <MODEL>
9

>  <REMARK>
 VINA RESULT:      -6.8      2.296      3.581
  Name = 
  13 active torsions:
  status: ('A' for Active; 'I' for Inactive)
    1  A    between atoms: C_6  and  C_9
    2  A    between atoms: O_7  and  C_38
    3  A    between atoms: O_7  and  C_39
    4  A    between atoms: N_8  and  C_9
    5  A    between atoms: N_8  and  C_27
    6  A    between atoms: C_15  and  C_33
    7  A    between atoms: C_16  and  C_30
    8  A    between atoms: C_16  and  N_41
    9  A    between atoms: C_21  and  N_41
   10  A    between atoms: C_24  and  C_30
   11  A    between atoms: C_24  and  C_37
   12  A    between atoms: C_27  and  C_43
   13  A    between atoms: C_33  and  N_41
                            x       y       z     vdW  Elec       q    Type
                         _______ _______ _______ _____ _____    ______ ____

>  <TORSDO>
F 13

$$$$
