=
 OpenBabel11042413443D

 30 33  0  0  1  0  0  0  0  0999 V2000
  185.0860  178.4540  146.9830 N   0  0  0  0  0  0  0  0  0  0  0  0
  188.4380  175.5550  147.3770 C   0  0  0  0  0  3  0  0  0  0  0  0
  187.8940  176.4740  146.4870 C   0  0  0  0  0  0  0  0  0  0  0  0
  184.6830  179.2920  144.6530 C   0  0  0  0  0  1  0  0  0  0  0  0
  185.5290  178.7080  145.7300 C   0  0  2  0  0  3  0  0  0  0  0  0
  186.7580  178.2060  145.5470 N   0  0  0  0  0  0  0  0  0  0  0  0
  188.9600  175.4370  144.5780 C   0  0  0  0  0  0  0  0  0  0  0  0
  187.0250  177.6040  146.7000 C   0  0  0  0  0  0  0  0  0  0  0  0
  189.4920  174.4480  145.4580 C   0  0  0  0  0  0  0  0  0  0  0  0
  186.0190  177.7240  147.5890 N   0  0  0  0  0  0  0  0  0  0  0  0
  188.1260  176.4160  145.1250 C   0  0  0  0  0  0  0  0  0  0  0  0
  187.3800  177.5220  144.4160 C   0  0  0  0  0  3  0  0  0  0  0  0
  189.2450  174.5370  146.8450 C   0  0  0  0  0  3  0  0  0  0  0  0
  189.2520  175.4910  143.2100 O   0  0  0  0  0  0  0  0  0  0  0  0
  191.3850  174.9040  142.2070 C   0  0  0  0  0  2  0  0  0  0  0  0
  191.1210  176.9020  143.7610 C   0  0  0  0  0  2  0  0  0  0  0  0
  192.5190  177.3350  143.3080 C   0  0  0  0  0  2  0  0  0  0  0  0
  190.4640  176.0320  142.6940 C   0  0  2  0  0  3  0  0  0  0  0  0
  193.3730  176.2200  142.8340 N   0  0  0  0  0  0  0  0  0  0  0  0
  192.7310  174.9030  142.9340 C   0  0  0  0  0  2  0  0  0  0  0  0
  194.6290  176.1700  143.5950 C   0  0  2  0  0  3  0  0  0  0  0  0
  195.7290  175.9210  142.7560 O   0  0  0  0  0  0  0  0  0  0  0  0
  196.7760  176.6850  143.2870 C   0  0  0  0  0  1  0  0  0  0  0  0
  194.5390  175.1140  144.6940 C   0  0  0  0  0  2  0  0  0  0  0  0
  194.4860  175.7760  146.0600 C   0  0  0  0  0  2  0  0  0  0  0  0
  194.7350  177.1430  145.9270 O   0  0  0  0  0  1  0  0  0  0  0  0
  190.2340  173.3530  145.0050 O   0  0  0  0  0  0  0  0  0  0  0  0
  189.6310  172.0990  144.7120 C   0  0  0  0  0  2  0  0  0  0  0  0
  189.6830  171.8410  143.2190 C   0  0  0  0  0  2  0  0  0  0  0  0
  188.5030  172.2810  142.6220 O   0  0  0  0  0  1  0  0  0  0  0  0
  1 10  2  0  0  0  0
  3  8  2  0  0  0  0
  3  2  1  0  0  0  0
  5  4  1  6  0  0  0
  5  1  1  0  0  0  0
  6  5  1  0  0  0  0
  6  8  1  0  0  0  0
  7 11  1  0  0  0  0
  7  9  2  0  0  0  0
  8 10  1  0  0  0  0
  9 13  1  0  0  0  0
 11  3  1  0  0  0  0
 12 11  2  0  0  0  0
 12  6  1  0  0  0  0
 13  2  2  0  0  0  0
 14  7  1  0  0  0  0
 15 18  1  0  0  0  0
 15 20  1  0  0  0  0
 17 16  1  0  0  0  0
 18 14  1  1  0  0  0
 18 16  1  0  0  0  0
 19 20  1  0  0  0  0
 19 17  1  0  0  0  0
 19 21  1  0  0  0  0
 21 24  1  1  0  0  0
 22 23  1  0  0  0  0
 22 21  1  0  0  0  0
 24 25  1  0  0  0  0
 26 25  1  0  0  0  0
 27  9  1  0  0  0  0
 28 27  1  0  0  0  0
 29 28  1  0  0  0  0
 30 29  1  0  0  0  0
M  END
>  <MODEL>
1

>  <REMARK>
 VINA RESULT:      -6.4      0.000      0.000
  Name = 
  9 active torsions:
  status: ('A' for Active; 'I' for Inactive)
    1  A    between atoms: C_1  and  C_6
    2  A    between atoms: C_1  and  O_9
    3  A    between atoms: C_1  and  N_19
    4  A    between atoms: C_5  and  C_6
    5  A    between atoms: C_7  and  C_29
    6  A    between atoms: O_16  and  C_17
    7  A    between atoms: O_16  and  C_20
    8  A    between atoms: C_23  and  O_27
    9  A    between atoms: O_27  and  C_29
                            x       y       z     vdW  Elec       q    Type
                         _______ _______ _______ _____ _____    ______ ____

>  <TORSDO>
F 9

$$$$
=
 OpenBabel11042413443D

 30 33  0  0  1  0  0  0  0  0999 V2000
  196.7070  176.7190  142.1370 N   0  0  0  0  0  0  0  0  0  0  0  0
  194.5610  176.5570  146.0320 C   0  0  0  0  0  3  0  0  0  0  0  0
  194.4900  176.0740  144.7300 C   0  0  0  0  0  0  0  0  0  0  0  0
  195.4030  175.8510  140.1770 C   0  0  0  0  0  1  0  0  0  0  0  0
  195.7230  175.9420  141.6280 C   0  0  2  0  0  3  0  0  0  0  0  0
  194.9750  175.4140  142.6080 N   0  0  0  0  0  0  0  0  0  0  0  0
  192.1210  175.6140  144.9030 C   0  0  0  0  0  0  0  0  0  0  0  0
  195.5020  175.9280  143.7130 C   0  0  0  0  0  0  0  0  0  0  0  0
  192.1490  176.1520  146.2240 C   0  0  0  0  0  0  0  0  0  0  0  0
  196.5470  176.7400  143.4580 N   0  0  0  0  0  0  0  0  0  0  0  0
  193.3080  175.6300  144.1650 C   0  0  0  0  0  0  0  0  0  0  0  0
  193.5370  175.1970  142.7370 C   0  0  0  0  0  3  0  0  0  0  0  0
  193.3720  176.5900  146.7760 C   0  0  0  0  0  3  0  0  0  0  0  0
  190.9780  175.0510  144.3220 O   0  0  0  0  0  0  0  0  0  0  0  0
  190.1140  177.2570  143.7870 C   0  0  0  0  0  2  0  0  0  0  0  0
  188.7340  175.1440  143.4580 C   0  0  0  0  0  2  0  0  0  0  0  0
  187.7510  176.0090  142.6630 C   0  0  0  0  0  2  0  0  0  0  0  0
  190.1280  175.7640  143.4300 C   0  0  2  0  0  3  0  0  0  0  0  0
  187.7770  177.4460  143.0280 N   0  0  0  0  0  0  0  0  0  0  0  0
  188.7090  177.7590  144.1200 C   0  0  0  0  0  2  0  0  0  0  0  0
  186.4390  177.9020  143.4310 C   0  0  2  0  0  3  0  0  0  0  0  0
  185.9550  178.9010  142.5690 O   0  0  0  0  0  0  0  0  0  0  0  0
  184.9310  178.2890  141.8360 C   0  0  0  0  0  1  0  0  0  0  0  0
  186.4630  178.4000  144.8740 C   0  0  0  0  0  2  0  0  0  0  0  0
  185.2200  177.9380  145.6140 C   0  0  0  0  0  2  0  0  0  0  0  0
  185.3330  176.5790  145.9130 O   0  0  0  0  0  1  0  0  0  0  0  0
  190.9990  176.3010  147.0030 O   0  0  0  0  0  0  0  0  0  0  0  0
  190.5090  175.2600  147.8390 C   0  0  0  0  0  2  0  0  0  0  0  0
  189.2060  174.7230  147.2780 C   0  0  0  0  0  2  0  0  0  0  0  0
  188.3480  175.7820  146.9820 O   0  0  0  0  0  1  0  0  0  0  0  0
  1 10  2  0  0  0  0
  2 13  2  0  0  0  0
  3  2  1  0  0  0  0
  5  4  1  6  0  0  0
  5  1  1  0  0  0  0
  5  6  1  0  0  0  0
  6 12  1  0  0  0  0
  6  8  1  0  0  0  0
  7  9  2  0  0  0  0
  8  3  2  0  0  0  0
  9 13  1  0  0  0  0
  9 27  1  0  0  0  0
 10  8  1  0  0  0  0
 11  3  1  0  0  0  0
 11  7  1  0  0  0  0
 12 11  2  0  0  0  0
 14  7  1  0  0  0  0
 15 20  1  0  0  0  0
 17 19  1  0  0  0  0
 17 16  1  0  0  0  0
 18 16  1  0  0  0  0
 18 15  1  0  0  0  0
 18 14  1  1  0  0  0
 19 21  1  0  0  0  0
 19 20  1  0  0  0  0
 21 24  1  1  0  0  0
 22 21  1  0  0  0  0
 23 22  1  0  0  0  0
 24 25  1  0  0  0  0
 25 26  1  0  0  0  0
 27 28  1  0  0  0  0
 29 28  1  0  0  0  0
 30 29  1  0  0  0  0
M  END
>  <MODEL>
2

>  <REMARK>
 VINA RESULT:      -6.3      2.513      7.548
  Name = 
  9 active torsions:
  status: ('A' for Active; 'I' for Inactive)
    1  A    between atoms: C_1  and  C_6
    2  A    between atoms: C_1  and  O_9
    3  A    between atoms: C_1  and  N_19
    4  A    between atoms: C_5  and  C_6
    5  A    between atoms: C_7  and  C_29
    6  A    between atoms: O_16  and  C_17
    7  A    between atoms: O_16  and  C_20
    8  A    between atoms: C_23  and  O_27
    9  A    between atoms: O_27  and  C_29
                            x       y       z     vdW  Elec       q    Type
                         _______ _______ _______ _____ _____    ______ ____

>  <TORSDO>
F 9

$$$$
=
 OpenBabel11042413443D

 30 33  0  0  1  0  0  0  0  0999 V2000
  188.6510  173.2830  140.0490 N   0  0  0  0  0  0  0  0  0  0  0  0
  187.2530  177.3570  141.1670 C   0  0  0  0  0  3  0  0  0  0  0  0
  187.8990  176.2450  141.6970 C   0  0  0  0  0  0  0  0  0  0  0  0
  189.2850  171.8170  141.9840 C   0  0  0  0  0  1  0  0  0  0  0  0
  189.0620  173.1360  141.3300 C   0  0  2  0  0  3  0  0  0  0  0  0
  189.0700  174.3150  141.9680 N   0  0  0  0  0  0  0  0  0  0  0  0
  187.3620  176.8680  143.9720 C   0  0  0  0  0  0  0  0  0  0  0  0
  188.6090  175.1650  141.0590 C   0  0  0  0  0  0  0  0  0  0  0  0
  186.6460  177.9900  143.4590 C   0  0  0  0  0  0  0  0  0  0  0  0
  188.3290  174.5640  139.8860 N   0  0  0  0  0  0  0  0  0  0  0  0
  187.9430  175.9880  143.0550 C   0  0  0  0  0  0  0  0  0  0  0  0
  188.6840  174.7000  143.3230 C   0  0  0  0  0  3  0  0  0  0  0  0
  186.6250  178.2310  142.0680 C   0  0  0  0  0  3  0  0  0  0  0  0
  187.5320  176.6200  145.3400 O   0  0  0  0  0  0  0  0  0  0  0  0
  189.6990  177.6950  145.1240 C   0  0  0  0  0  2  0  0  0  0  0  0
  189.3270  175.6870  146.6430 C   0  0  0  0  0  2  0  0  0  0  0  0
  190.7060  175.9850  147.2390 C   0  0  0  0  0  2  0  0  0  0  0  0
  188.7210  176.9540  146.0480 C   0  0  2  0  0  3  0  0  0  0  0  0
  191.6170  176.7110  146.3210 N   0  0  0  0  0  0  0  0  0  0  0  0
  191.0370  176.9660  144.9960 C   0  0  0  0  0  2  0  0  0  0  0  0
  192.8670  175.9630  146.1320 C   0  0  2  0  0  3  0  0  0  0  0  0
  192.7820  174.6720  146.6840 O   0  0  0  0  0  0  0  0  0  0  0  0
  193.1750  173.8070  145.6550 C   0  0  0  0  0  1  0  0  0  0  0  0
  194.0400  176.7310  146.7370 C   0  0  0  0  0  2  0  0  0  0  0  0
  194.7630  177.5240  145.6620 C   0  0  0  0  0  2  0  0  0  0  0  0
  195.0140  176.7000  144.5630 O   0  0  0  0  0  1  0  0  0  0  0  0
  185.9220  178.8630  144.2760 O   0  0  0  0  0  0  0  0  0  0  0  0
  184.5500  178.6490  144.5830 C   0  0  0  0  0  2  0  0  0  0  0  0
  184.3970  178.3440  146.0610 C   0  0  0  0  0  2  0  0  0  0  0  0
  185.4190  178.9640  146.7790 O   0  0  0  0  0  1  0  0  0  0  0  0
  1  5  1  0  0  0  0
  2  3  1  0  0  0  0
  2 13  2  0  0  0  0
  3 11  1  0  0  0  0
  5  6  1  0  0  0  0
  5  4  1  1  0  0  0
  6 12  1  0  0  0  0
  7 14  1  0  0  0  0
  8  3  2  0  0  0  0
  8  6  1  0  0  0  0
  9  7  2  0  0  0  0
  9 27  1  0  0  0  0
 10  1  2  0  0  0  0
 10  8  1  0  0  0  0
 11 12  2  0  0  0  0
 11  7  1  0  0  0  0
 13  9  1  0  0  0  0
 15 18  1  0  0  0  0
 16 17  1  0  0  0  0
 18 14  1  6  0  0  0
 18 16  1  0  0  0  0
 19 17  1  0  0  0  0
 20 15  1  0  0  0  0
 20 19  1  0  0  0  0
 21 19  1  0  0  0  0
 21 22  1  0  0  0  0
 21 24  1  1  0  0  0
 23 22  1  0  0  0  0
 25 24  1  0  0  0  0
 26 25  1  0  0  0  0
 27 28  1  0  0  0  0
 28 29  1  0  0  0  0
 29 30  1  0  0  0  0
M  END
>  <MODEL>
3

>  <REMARK>
 VINA RESULT:      -6.3      3.011      5.725
  Name = 
  9 active torsions:
  status: ('A' for Active; 'I' for Inactive)
    1  A    between atoms: C_1  and  C_6
    2  A    between atoms: C_1  and  O_9
    3  A    between atoms: C_1  and  N_19
    4  A    between atoms: C_5  and  C_6
    5  A    between atoms: C_7  and  C_29
    6  A    between atoms: O_16  and  C_17
    7  A    between atoms: O_16  and  C_20
    8  A    between atoms: C_23  and  O_27
    9  A    between atoms: O_27  and  C_29
                            x       y       z     vdW  Elec       q    Type
                         _______ _______ _______ _____ _____    ______ ____

>  <TORSDO>
F 9

$$$$
=
 OpenBabel11042413443D

 30 33  0  0  1  0  0  0  0  0999 V2000
  185.4130  179.0740  147.0600 N   0  0  0  0  0  0  0  0  0  0  0  0
  185.9960  176.4770  143.4940 C   0  0  0  0  0  3  0  0  0  0  0  0
  186.5360  176.7410  144.7480 C   0  0  0  0  0  0  0  0  0  0  0  0
  187.3420  179.1130  148.6640 C   0  0  0  0  0  1  0  0  0  0  0  0
  186.5170  178.4970  147.5890 C   0  0  2  0  0  3  0  0  0  0  0  0
  186.8570  177.3970  146.9020 N   0  0  0  0  0  0  0  0  0  0  0  0
  188.6810  175.7910  144.1550 C   0  0  0  0  0  0  0  0  0  0  0  0
  185.9640  177.3540  145.9200 C   0  0  0  0  0  0  0  0  0  0  0  0
  188.1740  175.5540  142.8430 C   0  0  0  0  0  0  0  0  0  0  0  0
  185.0820  178.3720  145.9800 N   0  0  0  0  0  0  0  0  0  0  0  0
  187.8430  176.4280  145.0740 C   0  0  0  0  0  0  0  0  0  0  0  0
  188.1510  176.8590  146.4880 C   0  0  0  0  0  3  0  0  0  0  0  0
  186.8320  175.8770  142.5410 C   0  0  0  0  0  3  0  0  0  0  0  0
  189.9580  175.3950  144.5720 O   0  0  0  0  0  0  0  0  0  0  0  0
  191.9790  175.4800  143.2260 C   0  0  0  0  0  2  0  0  0  0  0  0
  191.9020  176.3580  145.6140 C   0  0  0  0  0  2  0  0  0  0  0  0
  193.2630  177.0010  145.3340 C   0  0  0  0  0  2  0  0  0  0  0  0
  191.1310  176.1590  144.3120 C   0  0  2  0  0  3  0  0  0  0  0  0
  194.0450  176.3250  144.2720 N   0  0  0  0  0  0  0  0  0  0  0  0
  193.3830  175.1340  143.7210 C   0  0  0  0  0  2  0  0  0  0  0  0
  195.3620  175.9170  144.7780 C   0  0  2  0  0  3  0  0  0  0  0  0
  196.2200  175.5340  143.7320 O   0  0  0  0  0  0  0  0  0  0  0  0
  196.7510  176.7300  143.2360 C   0  0  0  0  0  1  0  0  0  0  0  0
  195.2110  174.7860  145.7930 C   0  0  0  0  0  2  0  0  0  0  0  0
  196.1980  173.6710  145.4930 C   0  0  0  0  0  2  0  0  0  0  0  0
  197.1210  173.5720  146.5360 O   0  0  0  0  0  1  0  0  0  0  0  0
  188.9610  175.0390  141.8090 O   0  0  0  0  0  0  0  0  0  0  0  0
  188.7860  173.7200  141.3090 C   0  0  0  0  0  2  0  0  0  0  0  0
  189.6630  172.7570  142.0870 C   0  0  0  0  0  2  0  0  0  0  0  0
  188.8820  172.0210  142.9760 O   0  0  0  0  0  1  0  0  0  0  0  0
  1  5  1  0  0  0  0
  2  3  1  0  0  0  0
  3 11  1  0  0  0  0
  3  8  2  0  0  0  0
  5  4  1  6  0  0  0
  6  5  1  0  0  0  0
  7 14  1  0  0  0  0
  7 11  1  0  0  0  0
  8 10  1  0  0  0  0
  8  6  1  0  0  0  0
  9  7  2  0  0  0  0
 10  1  2  0  0  0  0
 11 12  2  0  0  0  0
 12  6  1  0  0  0  0
 13  9  1  0  0  0  0
 13  2  2  0  0  0  0
 15 20  1  0  0  0  0
 15 18  1  0  0  0  0
 17 16  1  0  0  0  0
 18 14  1  1  0  0  0
 18 16  1  0  0  0  0
 19 21  1  0  0  0  0
 19 17  1  0  0  0  0
 20 19  1  0  0  0  0
 21 24  1  1  0  0  0
 22 21  1  0  0  0  0
 23 22  1  0  0  0  0
 25 24  1  0  0  0  0
 25 26  1  0  0  0  0
 27  9  1  0  0  0  0
 28 27  1  0  0  0  0
 28 29  1  0  0  0  0
 29 30  1  0  0  0  0
M  END
>  <MODEL>
4

>  <REMARK>
 VINA RESULT:      -6.3      1.691      2.507
  Name = 
  9 active torsions:
  status: ('A' for Active; 'I' for Inactive)
    1  A    between atoms: C_1  and  C_6
    2  A    between atoms: C_1  and  O_9
    3  A    between atoms: C_1  and  N_19
    4  A    between atoms: C_5  and  C_6
    5  A    between atoms: C_7  and  C_29
    6  A    between atoms: O_16  and  C_17
    7  A    between atoms: O_16  and  C_20
    8  A    between atoms: C_23  and  O_27
    9  A    between atoms: O_27  and  C_29
                            x       y       z     vdW  Elec       q    Type
                         _______ _______ _______ _____ _____    ______ ____

>  <TORSDO>
F 9

$$$$
=
 OpenBabel11042413443D

 30 33  0  0  1  0  0  0  0  0999 V2000
  184.0360  178.4760  143.1390 N   0  0  0  0  0  0  0  0  0  0  0  0
  186.5670  177.1900  146.5650 C   0  0  0  0  0  3  0  0  0  0  0  0
  186.6460  177.5120  145.2140 C   0  0  0  0  0  0  0  0  0  0  0  0
  185.1280  178.2840  140.8890 C   0  0  0  0  0  1  0  0  0  0  0  0
  185.1480  178.4210  142.3710 C   0  0  2  0  0  3  0  0  0  0  0  0
  186.2500  178.3310  143.1300 N   0  0  0  0  0  0  0  0  0  0  0  0
  188.7270  176.3100  144.9280 C   0  0  0  0  0  0  0  0  0  0  0  0
  185.7720  178.2850  144.3680 C   0  0  0  0  0  0  0  0  0  0  0  0
  188.6490  175.9200  146.2980 C   0  0  0  0  0  0  0  0  0  0  0  0
  184.4260  178.3540  144.4050 N   0  0  0  0  0  0  0  0  0  0  0  0
  187.6800  177.0750  144.4060 C   0  0  0  0  0  0  0  0  0  0  0  0
  187.4790  177.5550  142.9880 C   0  0  0  0  0  3  0  0  0  0  0  0
  187.5860  176.3870  147.1000 C   0  0  0  0  0  3  0  0  0  0  0  0
  189.8050  175.9900  144.0930 O   0  0  0  0  0  0  0  0  0  0  0  0
  191.4260  174.6300  142.9010 C   0  0  0  0  0  2  0  0  0  0  0  0
  188.9440  174.0650  142.9340 C   0  0  0  0  0  2  0  0  0  0  0  0
  189.3290  172.7080  142.3360 C   0  0  0  0  0  2  0  0  0  0  0  0
  190.1190  174.6560  143.7070 C   0  0  2  0  0  3  0  0  0  0  0  0
  190.6020  172.7210  141.5760 N   0  0  0  0  0  0  0  0  0  0  0  0
  191.2300  174.0470  141.5010 C   0  0  0  0  0  2  0  0  0  0  0  0
  190.3910  172.2420  140.2040 C   0  0  2  0  0  3  0  0  0  0  0  0
  191.3920  171.3350  139.8150 O   0  0  0  0  0  0  0  0  0  0  0  0
  190.8730  170.0680  140.1060 C   0  0  0  0  0  1  0  0  0  0  0  0
  190.3260  173.4210  139.2360 C   0  0  0  0  0  2  0  0  0  0  0  0
  188.9110  173.6030  138.7170 C   0  0  0  0  0  2  0  0  0  0  0  0
  188.1530  172.4710  139.0220 O   0  0  0  0  0  1  0  0  0  0  0  0
  189.5720  175.0540  146.8910 O   0  0  0  0  0  0  0  0  0  0  0  0
  190.6870  175.5280  147.6350 C   0  0  0  0  0  2  0  0  0  0  0  0
  191.9670  175.2660  146.8650 C   0  0  0  0  0  2  0  0  0  0  0  0
  192.3490  176.4170  146.1780 O   0  0  0  0  0  1  0  0  0  0  0  0
  1 10  2  0  0  0  0
  2 13  2  0  0  0  0
  3  2  1  0  0  0  0
  5  4  1  6  0  0  0
  5  6  1  0  0  0  0
  5  1  1  0  0  0  0
  6  8  1  0  0  0  0
  7  9  2  0  0  0  0
  8 10  1  0  0  0  0
  8  3  2  0  0  0  0
  9 27  1  0  0  0  0
  9 13  1  0  0  0  0
 11  7  1  0  0  0  0
 11  3  1  0  0  0  0
 12  6  1  0  0  0  0
 12 11  2  0  0  0  0
 14  7  1  0  0  0  0
 15 18  1  0  0  0  0
 16 18  1  0  0  0  0
 17 16  1  0  0  0  0
 18 14  1  6  0  0  0
 19 17  1  0  0  0  0
 20 19  1  0  0  0  0
 20 15  1  0  0  0  0
 21 24  1  6  0  0  0
 21 19  1  0  0  0  0
 22 23  1  0  0  0  0
 22 21  1  0  0  0  0
 25 26  1  0  0  0  0
 25 24  1  0  0  0  0
 27 28  1  0  0  0  0
 29 28  1  0  0  0  0
 30 29  1  0  0  0  0
M  END
>  <MODEL>
5

>  <REMARK>
 VINA RESULT:      -6.1      2.617      4.865
  Name = 
  9 active torsions:
  status: ('A' for Active; 'I' for Inactive)
    1  A    between atoms: C_1  and  C_6
    2  A    between atoms: C_1  and  O_9
    3  A    between atoms: C_1  and  N_19
    4  A    between atoms: C_5  and  C_6
    5  A    between atoms: C_7  and  C_29
    6  A    between atoms: O_16  and  C_17
    7  A    between atoms: O_16  and  C_20
    8  A    between atoms: C_23  and  O_27
    9  A    between atoms: O_27  and  C_29
                            x       y       z     vdW  Elec       q    Type
                         _______ _______ _______ _____ _____    ______ ____

>  <TORSDO>
F 9

$$$$
=
 OpenBabel11042413443D

 30 33  0  0  1  0  0  0  0  0999 V2000
  183.7050  179.0570  143.5960 N   0  0  0  0  0  0  0  0  0  0  0  0
  186.8280  177.6280  146.4250 C   0  0  0  0  0  3  0  0  0  0  0  0
  186.5590  177.7340  145.0650 C   0  0  0  0  0  0  0  0  0  0  0  0
  183.9960  178.2890  141.2260 C   0  0  0  0  0  1  0  0  0  0  0  0
  184.4940  178.6130  142.5910 C   0  0  2  0  0  3  0  0  0  0  0  0
  185.7290  178.3430  143.0360 N   0  0  0  0  0  0  0  0  0  0  0  0
  188.1540  176.0070  144.4920 C   0  0  0  0  0  0  0  0  0  0  0  0
  185.6510  178.5880  144.3390 C   0  0  0  0  0  0  0  0  0  0  0  0
  188.4160  175.8370  145.8840 C   0  0  0  0  0  0  0  0  0  0  0  0
  184.4260  179.0080  144.7130 N   0  0  0  0  0  0  0  0  0  0  0  0
  187.1830  176.9410  144.1200 C   0  0  0  0  0  0  0  0  0  0  0  0
  186.6660  177.2620  142.7380 C   0  0  0  0  0  3  0  0  0  0  0  0
  187.7690  176.6670  146.8260 C   0  0  0  0  0  3  0  0  0  0  0  0
  188.8360  175.3100  143.4870 O   0  0  0  0  0  0  0  0  0  0  0  0
  191.0910  174.4720  143.1500 C   0  0  0  0  0  2  0  0  0  0  0  0
  190.6260  176.8810  143.8270 C   0  0  0  0  0  2  0  0  0  0  0  0
  192.0960  177.1690  143.5050 C   0  0  0  0  0  2  0  0  0  0  0  0
  190.1370  175.6710  143.0370 C   0  0  2  0  0  3  0  0  0  0  0  0
  192.9810  175.9840  143.6130 N   0  0  0  0  0  0  0  0  0  0  0  0
  192.2860  174.7680  144.0560 C   0  0  0  0  0  2  0  0  0  0  0  0
  194.0810  176.2440  144.5520 C   0  0  2  0  0  3  0  0  0  0  0  0
  193.8220  177.3740  145.3480 O   0  0  0  0  0  0  0  0  0  0  0  0
  194.5710  177.1810  146.5150 C   0  0  0  0  0  1  0  0  0  0  0  0
  195.3960  176.4090  143.7940 C   0  0  0  0  0  2  0  0  0  0  0  0
  196.0210  175.0530  143.5180 C   0  0  0  0  0  2  0  0  0  0  0  0
  197.3590  175.0650  143.9170 O   0  0  0  0  0  1  0  0  0  0  0  0
  189.2720  174.8490  146.3770 O   0  0  0  0  0  0  0  0  0  0  0  0
  190.0010  175.0120  147.5870 C   0  0  0  0  0  2  0  0  0  0  0  0
  191.2300  175.8640  147.3340 C   0  0  0  0  0  2  0  0  0  0  0  0
  191.1000  177.0870  147.9910 O   0  0  0  0  0  1  0  0  0  0  0  0
  1 10  2  0  0  0  0
  2 13  2  0  0  0  0
  3  2  1  0  0  0  0
  5  4  1  1  0  0  0
  5  6  1  0  0  0  0
  5  1  1  0  0  0  0
  6  8  1  0  0  0  0
  7  9  2  0  0  0  0
  8 10  1  0  0  0  0
  8  3  2  0  0  0  0
  9 27  1  0  0  0  0
  9 13  1  0  0  0  0
 11  7  1  0  0  0  0
 11  3  1  0  0  0  0
 12  6  1  0  0  0  0
 12 11  2  0  0  0  0
 14  7  1  0  0  0  0
 15 20  1  0  0  0  0
 17 19  1  0  0  0  0
 17 16  1  0  0  0  0
 18 15  1  0  0  0  0
 18 14  1  1  0  0  0
 18 16  1  0  0  0  0
 19 20  1  0  0  0  0
 19 21  1  0  0  0  0
 21 24  1  6  0  0  0
 21 22  1  0  0  0  0
 22 23  1  0  0  0  0
 25 24  1  0  0  0  0
 25 26  1  0  0  0  0
 27 28  1  0  0  0  0
 29 28  1  0  0  0  0
 29 30  1  0  0  0  0
M  END
>  <MODEL>
6

>  <REMARK>
 VINA RESULT:      -6.0      1.835      3.020
  Name = 
  9 active torsions:
  status: ('A' for Active; 'I' for Inactive)
    1  A    between atoms: C_1  and  C_6
    2  A    between atoms: C_1  and  O_9
    3  A    between atoms: C_1  and  N_19
    4  A    between atoms: C_5  and  C_6
    5  A    between atoms: C_7  and  C_29
    6  A    between atoms: O_16  and  C_17
    7  A    between atoms: O_16  and  C_20
    8  A    between atoms: C_23  and  O_27
    9  A    between atoms: O_27  and  C_29
                            x       y       z     vdW  Elec       q    Type
                         _______ _______ _______ _____ _____    ______ ____

>  <TORSDO>
F 9

$$$$
=
 OpenBabel11042413443D

 30 33  0  0  1  0  0  0  0  0999 V2000
  195.7160  175.6660  144.9500 N   0  0  0  0  0  0  0  0  0  0  0  0
  191.9110  175.5410  147.2540 C   0  0  0  0  0  3  0  0  0  0  0  0
  192.4660  175.1300  146.0470 C   0  0  0  0  0  0  0  0  0  0  0  0
  195.5070  175.0310  142.5320 C   0  0  0  0  0  1  0  0  0  0  0  0
  195.0670  175.0200  143.9540 C   0  0  2  0  0  3  0  0  0  0  0  0
  193.8980  174.5260  144.3870 N   0  0  0  0  0  0  0  0  0  0  0  0
  190.3010  174.9110  144.9900 C   0  0  0  0  0  0  0  0  0  0  0  0
  193.8370  174.9300  145.6500 C   0  0  0  0  0  0  0  0  0  0  0  0
  189.7030  175.3790  146.1970 C   0  0  0  0  0  0  0  0  0  0  0  0
  194.9220  175.6400  146.0170 N   0  0  0  0  0  0  0  0  0  0  0  0
  191.6950  174.8390  144.9360 C   0  0  0  0  0  0  0  0  0  0  0  0
  192.5750  174.4530  143.7710 C   0  0  0  0  0  3  0  0  0  0  0  0
  190.5150  175.6610  147.3180 C   0  0  0  0  0  3  0  0  0  0  0  0
  189.5640  174.4970  143.8730 O   0  0  0  0  0  0  0  0  0  0  0  0
  189.4880  176.8380  143.2310 C   0  0  0  0  0  2  0  0  0  0  0  0
  187.5400  175.2530  142.8140 C   0  0  0  0  0  2  0  0  0  0  0  0
  186.9470  176.3490  141.9220 C   0  0  0  0  0  2  0  0  0  0  0  0
  189.0560  175.4020  142.8980 C   0  0  2  0  0  3  0  0  0  0  0  0
  187.3970  177.7190  142.2660 N   0  0  0  0  0  0  0  0  0  0  0  0
  188.2910  177.7690  143.4300 C   0  0  0  0  0  2  0  0  0  0  0  0
  186.2450  178.5880  142.5420 C   0  0  2  0  0  3  0  0  0  0  0  0
  186.1580  178.9090  143.9080 O   0  0  0  0  0  0  0  0  0  0  0  0
  185.1930  179.9200  143.9880 C   0  0  0  0  0  1  0  0  0  0  0  0
  184.9560  177.9260  142.0610 C   0  0  0  0  0  2  0  0  0  0  0  0
  184.6340  178.3640  140.6430 C   0  0  0  0  0  2  0  0  0  0  0  0
  183.2690  178.6370  140.5370 O   0  0  0  0  0  1  0  0  0  0  0  0
  188.3300  175.6090  146.3220 O   0  0  0  0  0  0  0  0  0  0  0  0
  187.8110  176.8040  146.8920 C   0  0  0  0  0  2  0  0  0  0  0  0
  186.2970  176.7980  146.8070 C   0  0  0  0  0  2  0  0  0  0  0  0
  185.7790  177.8740  147.5270 O   0  0  0  0  0  1  0  0  0  0  0  0
  1 10  2  0  0  0  0
  2 13  2  0  0  0  0
  3  2  1  0  0  0  0
  5  4  1  6  0  0  0
  5  6  1  0  0  0  0
  5  1  1  0  0  0  0
  6  8  1  0  0  0  0
  7  9  2  0  0  0  0
  8 10  1  0  0  0  0
  8  3  2  0  0  0  0
  9 27  1  0  0  0  0
  9 13  1  0  0  0  0
 11  7  1  0  0  0  0
 11  3  1  0  0  0  0
 12  6  1  0  0  0  0
 12 11  2  0  0  0  0
 14  7  1  0  0  0  0
 15 20  1  0  0  0  0
 16 18  1  0  0  0  0
 17 19  1  0  0  0  0
 17 16  1  0  0  0  0
 18 15  1  0  0  0  0
 18 14  1  1  0  0  0
 19 21  1  0  0  0  0
 19 20  1  0  0  0  0
 21 24  1  1  0  0  0
 21 22  1  0  0  0  0
 22 23  1  0  0  0  0
 25 24  1  0  0  0  0
 26 25  1  0  0  0  0
 27 28  1  0  0  0  0
 29 28  1  0  0  0  0
 29 30  1  0  0  0  0
M  END
>  <MODEL>
7

>  <REMARK>
 VINA RESULT:      -6.0      2.862      7.486
  Name = 
  9 active torsions:
  status: ('A' for Active; 'I' for Inactive)
    1  A    between atoms: C_1  and  C_6
    2  A    between atoms: C_1  and  O_9
    3  A    between atoms: C_1  and  N_19
    4  A    between atoms: C_5  and  C_6
    5  A    between atoms: C_7  and  C_29
    6  A    between atoms: O_16  and  C_17
    7  A    between atoms: O_16  and  C_20
    8  A    between atoms: C_23  and  O_27
    9  A    between atoms: O_27  and  C_29
                            x       y       z     vdW  Elec       q    Type
                         _______ _______ _______ _____ _____    ______ ____

>  <TORSDO>
F 9

$$$$
=
 OpenBabel11042413443D

 30 33  0  0  1  0  0  0  0  0999 V2000
  184.9970  178.5670  147.5250 N   0  0  0  0  0  0  0  0  0  0  0  0
  185.8790  176.2940  143.8040 C   0  0  0  0  0  3  0  0  0  0  0  0
  186.4950  176.7920  144.9460 C   0  0  0  0  0  0  0  0  0  0  0  0
  187.0170  179.4210  148.7440 C   0  0  0  0  0  1  0  0  0  0  0  0
  186.3160  178.4920  147.8150 C   0  0  2  0  0  3  0  0  0  0  0  0
  186.9280  177.5950  147.0290 N   0  0  0  0  0  0  0  0  0  0  0  0
  188.6880  176.7510  143.9240 C   0  0  0  0  0  0  0  0  0  0  0  0
  185.9580  177.1680  146.2300 C   0  0  0  0  0  0  0  0  0  0  0  0
  188.0800  176.2870  142.7200 C   0  0  0  0  0  0  0  0  0  0  0  0
  184.7740  177.7540  146.4960 N   0  0  0  0  0  0  0  0  0  0  0  0
  187.8560  177.0350  145.0090 C   0  0  0  0  0  0  0  0  0  0  0  0
  188.2270  177.6000  146.3600 C   0  0  0  0  0  3  0  0  0  0  0  0
  186.6900  176.0410  142.6870 C   0  0  0  0  0  3  0  0  0  0  0  0
  190.0710  176.9080  144.0790 O   0  0  0  0  0  0  0  0  0  0  0  0
  191.6060  175.9380  145.6930 C   0  0  0  0  0  2  0  0  0  0  0  0
  191.9880  175.7620  143.1820 C   0  0  0  0  0  2  0  0  0  0  0  0
  193.0700  174.7260  143.5020 C   0  0  0  0  0  2  0  0  0  0  0  0
  190.9570  175.8170  144.3060 C   0  0  2  0  0  3  0  0  0  0  0  0
  193.6620  174.8680  144.8540 N   0  0  0  0  0  0  0  0  0  0  0  0
  193.1310  176.0090  145.6130 C   0  0  0  0  0  2  0  0  0  0  0  0
  195.1210  175.0230  144.7660 C   0  0  2  0  0  3  0  0  0  0  0  0
  195.7390  174.7930  146.0080 O   0  0  0  0  0  0  0  0  0  0  0  0
  196.6640  173.7690  145.7730 C   0  0  0  0  0  1  0  0  0  0  0  0
  195.4740  176.4120  144.2370 C   0  0  0  0  0  2  0  0  0  0  0  0
  196.2450  176.3010  142.9340 C   0  0  0  0  0  2  0  0  0  0  0  0
  197.5710  176.6860  143.1410 O   0  0  0  0  0  1  0  0  0  0  0  0
  188.7970  176.0920  141.5360 O   0  0  0  0  0  0  0  0  0  0  0  0
  188.7090  174.8870  140.7870 C   0  0  0  0  0  2  0  0  0  0  0  0
  189.2730  173.7360  141.5970 C   0  0  0  0  0  2  0  0  0  0  0  0
  188.4990  172.5940  141.3990 O   0  0  0  0  0  1  0  0  0  0  0  0
  1  5  1  0  0  0  0
  2  3  1  0  0  0  0
  3 11  1  0  0  0  0
  3  8  2  0  0  0  0
  5  4  1  6  0  0  0
  6  5  1  0  0  0  0
  7 14  1  0  0  0  0
  7 11  1  0  0  0  0
  8 10  1  0  0  0  0
  8  6  1  0  0  0  0
  9  7  2  0  0  0  0
 10  1  2  0  0  0  0
 11 12  2  0  0  0  0
 12  6  1  0  0  0  0
 13  9  1  0  0  0  0
 13  2  2  0  0  0  0
 16 17  1  0  0  0  0
 16 18  1  0  0  0  0
 17 19  1  0  0  0  0
 18 14  1  6  0  0  0
 18 15  1  0  0  0  0
 19 20  1  0  0  0  0
 20 15  1  0  0  0  0
 21 24  1  1  0  0  0
 21 19  1  0  0  0  0
 21 22  1  0  0  0  0
 23 22  1  0  0  0  0
 25 26  1  0  0  0  0
 25 24  1  0  0  0  0
 27  9  1  0  0  0  0
 28 27  1  0  0  0  0
 28 29  1  0  0  0  0
 30 29  1  0  0  0  0
M  END
>  <MODEL>
8

>  <REMARK>
 VINA RESULT:      -6.0      1.907      2.964
  Name = 
  9 active torsions:
  status: ('A' for Active; 'I' for Inactive)
    1  A    between atoms: C_1  and  C_6
    2  A    between atoms: C_1  and  O_9
    3  A    between atoms: C_1  and  N_19
    4  A    between atoms: C_5  and  C_6
    5  A    between atoms: C_7  and  C_29
    6  A    between atoms: O_16  and  C_17
    7  A    between atoms: O_16  and  C_20
    8  A    between atoms: C_23  and  O_27
    9  A    between atoms: O_27  and  C_29
                            x       y       z     vdW  Elec       q    Type
                         _______ _______ _______ _____ _____    ______ ____

>  <TORSDO>
F 9

$$$$
=
 OpenBabel11042413443D

 30 33  0  0  1  0  0  0  0  0999 V2000
  185.3820  178.5650  142.0290 N   0  0  0  0  0  0  0  0  0  0  0  0
  187.8410  174.8580  141.9440 C   0  0  0  0  0  3  0  0  0  0  0  0
  187.3860  175.8420  142.8150 C   0  0  0  0  0  0  0  0  0  0  0  0
  185.6120  179.9360  144.1170 C   0  0  0  0  0  1  0  0  0  0  0  0
  185.6840  178.6660  143.3440 C   0  0  2  0  0  3  0  0  0  0  0  0
  186.2170  177.5240  143.8020 N   0  0  0  0  0  0  0  0  0  0  0  0
  189.1350  175.3920  144.4250 C   0  0  0  0  0  0  0  0  0  0  0  0
  186.2720  176.7520  142.7230 C   0  0  0  0  0  0  0  0  0  0  0  0
  189.6580  174.4110  143.5310 C   0  0  0  0  0  0  0  0  0  0  0  0
  185.7860  177.3640  141.6250 N   0  0  0  0  0  0  0  0  0  0  0  0
  188.0170  176.1220  144.0130 C   0  0  0  0  0  0  0  0  0  0  0  0
  187.3160  177.2550  144.7250 C   0  0  0  0  0  3  0  0  0  0  0  0
  188.9880  174.1410  142.3180 C   0  0  0  0  0  3  0  0  0  0  0  0
  189.6680  175.6400  145.6970 O   0  0  0  0  0  0  0  0  0  0  0  0
  191.3650  176.9670  144.5750 C   0  0  0  0  0  2  0  0  0  0  0  0
  191.8830  175.5600  146.6320 C   0  0  0  0  0  2  0  0  0  0  0  0
  193.2250  176.2980  146.6960 C   0  0  0  0  0  2  0  0  0  0  0  0
  190.8440  176.4130  145.9090 C   0  0  2  0  0  3  0  0  0  0  0  0
  193.6870  176.8290  145.3910 N   0  0  0  0  0  0  0  0  0  0  0  0
  192.7900  176.5040  144.2730 C   0  0  0  0  0  2  0  0  0  0  0  0
  195.0220  176.3110  145.0650 C   0  0  2  0  0  3  0  0  0  0  0  0
  195.7490  177.2220  144.2790 O   0  0  0  0  0  0  0  0  0  0  0  0
  196.3530  176.4470  143.2820 C   0  0  0  0  0  1  0  0  0  0  0  0
  194.9090  174.9620  144.3600 C   0  0  0  0  0  2  0  0  0  0  0  0
  195.2320  173.8330  145.3240 C   0  0  0  0  0  2  0  0  0  0  0  0
  196.3000  174.2080  146.1400 O   0  0  0  0  0  1  0  0  0  0  0  0
  190.8410  173.7120  143.7830 O   0  0  0  0  0  0  0  0  0  0  0  0
  190.8450  172.3430  144.1690 C   0  0  0  0  0  2  0  0  0  0  0  0
  192.2740  171.8500  144.2950 C   0  0  0  0  0  2  0  0  0  0  0  0
  192.3000  170.4570  144.2320 O   0  0  0  0  0  1  0  0  0  0  0  0
  1  5  1  0  0  0  0
  2 13  2  0  0  0  0
  2  3  1  0  0  0  0
  3 11  1  0  0  0  0
  5  6  1  0  0  0  0
  5  4  1  6  0  0  0
  6 12  1  0  0  0  0
  7 14  1  0  0  0  0
  8  3  2  0  0  0  0
  8  6  1  0  0  0  0
  9 27  1  0  0  0  0
  9  7  2  0  0  0  0
 10  1  2  0  0  0  0
 10  8  1  0  0  0  0
 11  7  1  0  0  0  0
 11 12  2  0  0  0  0
 13  9  1  0  0  0  0
 15 18  1  0  0  0  0
 16 17  1  0  0  0  0
 18 14  1  6  0  0  0
 18 16  1  0  0  0  0
 19 17  1  0  0  0  0
 20 15  1  0  0  0  0
 20 19  1  0  0  0  0
 21 24  1  6  0  0  0
 21 19  1  0  0  0  0
 22 21  1  0  0  0  0
 23 22  1  0  0  0  0
 24 25  1  0  0  0  0
 25 26  1  0  0  0  0
 27 28  1  0  0  0  0
 28 29  1  0  0  0  0
 30 29  1  0  0  0  0
M  END
>  <MODEL>
9

>  <REMARK>
 VINA RESULT:      -5.8      2.177      3.033
  Name = 
  9 active torsions:
  status: ('A' for Active; 'I' for Inactive)
    1  A    between atoms: C_1  and  C_6
    2  A    between atoms: C_1  and  O_9
    3  A    between atoms: C_1  and  N_19
    4  A    between atoms: C_5  and  C_6
    5  A    between atoms: C_7  and  C_29
    6  A    between atoms: O_16  and  C_17
    7  A    between atoms: O_16  and  C_20
    8  A    between atoms: C_23  and  O_27
    9  A    between atoms: O_27  and  C_29
                            x       y       z     vdW  Elec       q    Type
                         _______ _______ _______ _____ _____    ______ ____

>  <TORSDO>
F 9

$$$$
