=
 OpenBabel11042418263D

 28 31  0  0  1  0  0  0  0  0999 V2000
  192.7450  174.8780  143.4110 C   0  0  0  0  0  2  0  0  0  0  0  0
  193.2470  176.0160  145.5820 C   0  0  0  0  0  0  0  0  0  0  0  0
  191.8390  176.4160  145.7250 C   0  0  0  0  0  3  0  0  0  0  0  0
  188.8850  177.2130  145.9400 C   0  0  0  0  0  0  0  0  0  0  0  0
  187.4770  177.3380  145.5990 C   0  0  0  0  0  0  0  0  0  0  0  0
  193.6620  175.3120  144.5240 C   0  0  0  0  0  3  0  0  0  0  0  0
  187.2170  176.6420  144.2880 C   0  0  0  0  0  2  0  0  0  0  0  0
  189.4360  177.6810  146.9710 O   0  0  0  0  0  0  0  0  0  0  0  0
  188.5930  176.1350  143.9530 C   0  0  0  0  0  0  0  0  0  0  0  0
  187.9740  175.0990  141.9210 O   0  0  0  0  0  1  0  0  0  0  0  0
  189.5590  176.4800  144.9330 N   0  0  0  0  0  0  0  0  0  0  0  0
  188.9370  175.4310  142.8700 C   0  0  0  0  0  0  0  0  0  0  0  0
  191.3080  175.3130  143.6000 C   0  0  0  0  0  0  0  0  0  0  0  0
  190.9300  176.0920  144.8050 C   0  0  0  0  0  0  0  0  0  0  0  0
  190.3560  175.0010  142.6850 C   0  0  0  0  0  0  0  0  0  0  0  0
  186.6090  177.9640  146.3410 N   0  0  0  0  0  0  0  0  0  0  0  0
  194.1830  176.3840  146.5880 N   0  0  0  0  0  1  0  0  0  0  0  0
  185.2060  178.1400  146.0910 C   0  0  0  0  0  0  0  0  0  0  0  0
  184.3900  177.3450  146.6250 O   0  0  0  0  0  0  0  0  0  0  0  0
  184.6680  179.2280  145.2230 C   0  0  0  0  0  1  0  0  0  0  0  0
  190.7050  174.2330  141.4460 C   0  0  0  0  0  2  0  0  0  0  0  0
  189.9630  172.0050  140.3940 C   0  0  2  0  0  3  0  0  0  0  0  0
  190.3660  172.7560  141.6260 C   0  0  1  0  0  3  0  0  0  0  0  0
  191.2780  171.9680  140.8980 O   0  0  0  0  0  0  0  0  0  0  0  0
  189.5810  171.9940  137.6940 O   0  0  0  0  0  0  0  0  0  0  0  0
  191.4550  173.6210  138.5070 O   0  0  0  0  0  1  0  0  0  0  0  0
  189.9370  172.9380  138.8180 P   0  0  0  0  0  0  0  0  0  0  0  0
  188.7760  174.1640  138.9030 O   0  0  0  0  0  1  0  0  0  0  0  0
  1 13  1  0  0  0  0
  1  6  1  0  0  0  0
  2  3  1  0  0  0  0
  2 17  1  0  0  0  0
  4  8  2  0  0  0  0
  5  4  1  0  0  0  0
  5 16  2  0  0  0  0
  6  2  2  0  0  0  0
  7  5  1  0  0  0  0
  9  7  1  0  0  0  0
  9 11  1  0  0  0  0
 10 12  1  0  0  0  0
 11  4  1  0  0  0  0
 12  9  2  0  0  0  0
 13 14  1  0  0  0  0
 14 11  1  0  0  0  0
 14  3  2  0  0  0  0
 15 12  1  0  0  0  0
 15 13  2  0  0  0  0
 18 16  1  0  0  0  0
 18 19  2  0  0  0  0
 20 18  1  0  0  0  0
 21 15  1  0  0  0  0
 22 27  1  6  0  0  0
 22 24  1  0  0  0  0
 22 23  1  0  0  0  0
 23 21  1  6  0  0  0
 24 23  1  0  0  0  0
 25 27  2  0  0  0  0
 26 27  1  0  0  0  0
 27 28  1  0  0  0  0
M  END
>  <MODEL>
1

>  <REMARK>
 VINA RESULT:      -6.4      0.000      0.000
  Name = 
  4 active torsions:
  status: ('A' for Active; 'I' for Inactive)
    1  A    between atoms: C_3  and  P_13
    2  A    between atoms: C_8  and  N_26
    3  A    between atoms: C_9  and  C_27
    4  A    between atoms: C_22  and  C_27
                            x       y       z     vdW  Elec       q    Type
                         _______ _______ _______ _____ _____    ______ ____

>  <TORSDO>
F 4

$$$$
=
 OpenBabel11042418263D

 28 31  0  0  1  0  0  0  0  0999 V2000
  191.3500  174.0990  141.6600 C   0  0  0  0  0  2  0  0  0  0  0  0
  189.3060  173.9190  140.2270 C   0  0  0  0  0  0  0  0  0  0  0  0
  188.5460  174.7600  141.1650 C   0  0  0  0  0  3  0  0  0  0  0  0
  187.0370  176.5170  143.1760 C   0  0  0  0  0  0  0  0  0  0  0  0
  186.7790  177.3300  144.3540 C   0  0  0  0  0  0  0  0  0  0  0  0
  190.5880  173.6170  140.4530 C   0  0  0  0  0  3  0  0  0  0  0  0
  188.0320  177.4120  145.1870 C   0  0  0  0  0  2  0  0  0  0  0  0
  186.2030  176.2480  142.2720 O   0  0  0  0  0  0  0  0  0  0  0  0
  188.9790  176.5820  144.3660 C   0  0  0  0  0  0  0  0  0  0  0  0
  190.8310  176.8410  145.8120 O   0  0  0  0  0  1  0  0  0  0  0  0
  188.3790  176.0640  143.1900 N   0  0  0  0  0  0  0  0  0  0  0  0
  190.2580  176.3200  144.6550 C   0  0  0  0  0  0  0  0  0  0  0  0
  190.5290  174.9590  142.5950 C   0  0  0  0  0  0  0  0  0  0  0  0
  189.1100  175.2490  142.2710 C   0  0  0  0  0  0  0  0  0  0  0  0
  191.0690  175.4730  143.7290 C   0  0  0  0  0  0  0  0  0  0  0  0
  185.6280  177.8820  144.6100 N   0  0  0  0  0  0  0  0  0  0  0  0
  188.6650  173.4200  139.0610 N   0  0  0  0  0  1  0  0  0  0  0  0
  185.2770  178.6970  145.7390 C   0  0  0  0  0  0  0  0  0  0  0  0
  185.6600  179.8950  145.7640 O   0  0  0  0  0  0  0  0  0  0  0  0
  184.4770  178.1860  146.8890 C   0  0  0  0  0  1  0  0  0  0  0  0
  192.4930  175.1850  144.1000 C   0  0  0  0  0  2  0  0  0  0  0  0
  193.9020  173.6270  145.5860 C   0  0  2  0  0  3  0  0  0  0  0  0
  192.5680  173.9420  144.9830 C   0  0  1  0  0  3  0  0  0  0  0  0
  192.9010  174.3160  146.2990 O   0  0  0  0  0  0  0  0  0  0  0  0
  196.5300  174.2830  145.9020 O   0  0  0  0  0  1  0  0  0  0  0  0
  194.9210  176.3350  145.7500 O   0  0  0  0  0  1  0  0  0  0  0  0
  195.2810  174.7720  145.2070 P   0  0  0  0  0  0  0  0  0  0  0  0
  195.5500  174.8040  143.5380 O   0  0  0  0  0  0  0  0  0  0  0  0
  1 13  1  0  0  0  0
  2  6  2  0  0  0  0
  2  3  1  0  0  0  0
  3 14  2  0  0  0  0
  4 11  1  0  0  0  0
  4  5  1  0  0  0  0
  5 16  2  0  0  0  0
  5  7  1  0  0  0  0
  6  1  1  0  0  0  0
  8  4  2  0  0  0  0
  9 12  2  0  0  0  0
  9  7  1  0  0  0  0
 11  9  1  0  0  0  0
 12 10  1  0  0  0  0
 13 15  2  0  0  0  0
 14 13  1  0  0  0  0
 14 11  1  0  0  0  0
 15 21  1  0  0  0  0
 15 12  1  0  0  0  0
 16 18  1  0  0  0  0
 17  2  1  0  0  0  0
 18 19  2  0  0  0  0
 18 20  1  0  0  0  0
 22 27  1  6  0  0  0
 22 24  1  0  0  0  0
 23 21  1  6  0  0  0
 23 22  1  0  0  0  0
 23 24  1  0  0  0  0
 27 26  1  0  0  0  0
 27 25  1  0  0  0  0
 28 27  2  0  0  0  0
M  END
>  <MODEL>
2

>  <REMARK>
 VINA RESULT:      -6.4      3.350      5.265
  Name = 
  4 active torsions:
  status: ('A' for Active; 'I' for Inactive)
    1  A    between atoms: C_3  and  P_13
    2  A    between atoms: C_8  and  N_26
    3  A    between atoms: C_9  and  C_27
    4  A    between atoms: C_22  and  C_27
                            x       y       z     vdW  Elec       q    Type
                         _______ _______ _______ _____ _____    ______ ____

>  <TORSDO>
F 4

$$$$
=
 OpenBabel11042418263D

 28 31  0  0  1  0  0  0  0  0999 V2000
  186.4260  176.0080  142.7710 C   0  0  0  0  0  2  0  0  0  0  0  0
  186.0570  177.0300  145.0250 C   0  0  0  0  0  0  0  0  0  0  0  0
  187.4980  176.9730  145.3130 C   0  0  0  0  0  3  0  0  0  0  0  0
  190.5170  176.8100  145.8300 C   0  0  0  0  0  0  0  0  0  0  0  0
  191.9270  176.5330  145.6070 C   0  0  0  0  0  0  0  0  0  0  0  0
  185.5660  176.5890  143.8630 C   0  0  0  0  0  3  0  0  0  0  0  0
  192.1050  175.9190  144.2420 C   0  0  0  0  0  2  0  0  0  0  0  0
  190.0250  177.3230  146.8690 O   0  0  0  0  0  0  0  0  0  0  0  0
  190.6830  175.8890  143.7520 C   0  0  0  0  0  0  0  0  0  0  0  0
  191.1790  174.9220  141.6530 O   0  0  0  0  0  1  0  0  0  0  0  0
  189.7650  176.4150  144.6960 N   0  0  0  0  0  0  0  0  0  0  0  0
  190.2620  175.4320  142.5680 C   0  0  0  0  0  0  0  0  0  0  0  0
  187.8990  175.9680  143.1100 C   0  0  0  0  0  0  0  0  0  0  0  0
  188.3630  176.4790  144.4250 C   0  0  0  0  0  0  0  0  0  0  0  0
  188.8080  175.4730  142.2330 C   0  0  0  0  0  0  0  0  0  0  0  0
  192.8590  176.7900  146.4800 N   0  0  0  0  0  0  0  0  0  0  0  0
  185.1710  177.5640  146.0000 N   0  0  0  0  0  1  0  0  0  0  0  0
  194.2700  176.5540  146.3520 C   0  0  0  0  0  0  0  0  0  0  0  0
  195.0260  177.5260  146.0990 O   0  0  0  0  0  0  0  0  0  0  0  0
  194.8810  175.2030  146.5080 C   0  0  0  0  0  1  0  0  0  0  0  0
  188.3730  174.9300  140.9050 C   0  0  0  0  0  2  0  0  0  0  0  0
  188.1900  172.6090  139.8100 C   0  0  2  0  0  3  0  0  0  0  0  0
  188.0050  173.4540  141.0320 C   0  0  1  0  0  3  0  0  0  0  0  0
  189.1520  172.6620  140.8370 O   0  0  0  0  0  0  0  0  0  0  0  0
  188.9000  172.4360  137.1820 O   0  0  0  0  0  0  0  0  0  0  0  0
  190.4060  174.0310  138.6000 O   0  0  0  0  0  1  0  0  0  0  0  0
  188.8470  173.4360  138.3130 P   0  0  0  0  0  0  0  0  0  0  0  0
  187.8280  174.7140  137.8780 O   0  0  0  0  0  1  0  0  0  0  0  0
  1 13  1  0  0  0  0
  1  6  1  0  0  0  0
  2  3  1  0  0  0  0
  2 17  1  0  0  0  0
  4  8  2  0  0  0  0
  5  4  1  0  0  0  0
  5 16  2  0  0  0  0
  6  2  2  0  0  0  0
  7  5  1  0  0  0  0
  9  7  1  0  0  0  0
  9 11  1  0  0  0  0
 10 12  1  0  0  0  0
 11  4  1  0  0  0  0
 12  9  2  0  0  0  0
 13 14  1  0  0  0  0
 14 11  1  0  0  0  0
 14  3  2  0  0  0  0
 15 12  1  0  0  0  0
 15 13  2  0  0  0  0
 18 16  1  0  0  0  0
 18 20  1  0  0  0  0
 19 18  2  0  0  0  0
 21 15  1  0  0  0  0
 22 27  1  6  0  0  0
 22 24  1  0  0  0  0
 22 23  1  0  0  0  0
 23 21  1  6  0  0  0
 24 23  1  0  0  0  0
 25 27  2  0  0  0  0
 27 26  1  0  0  0  0
 28 27  1  0  0  0  0
M  END
>  <MODEL>
3

>  <REMARK>
 VINA RESULT:      -6.4      1.824      5.141
  Name = 
  4 active torsions:
  status: ('A' for Active; 'I' for Inactive)
    1  A    between atoms: C_3  and  P_13
    2  A    between atoms: C_8  and  N_26
    3  A    between atoms: C_9  and  C_27
    4  A    between atoms: C_22  and  C_27
                            x       y       z     vdW  Elec       q    Type
                         _______ _______ _______ _____ _____    ______ ____

>  <TORSDO>
F 4

$$$$
=
 OpenBabel11042418263D

 28 31  0  0  1  0  0  0  0  0999 V2000
  190.0770  177.0910  145.9290 C   0  0  0  0  0  3  0  0  0  0  0  0
  192.2470  175.8510  145.8150 C   0  0  0  0  0  0  0  0  0  0  0  0
  191.8580  175.2410  144.5340 C   0  0  0  0  0  3  0  0  0  0  0  0
  190.9630  174.0100  141.8710 C   0  0  0  0  0  0  0  0  0  0  0  0
  190.1320  173.7140  140.7160 C   0  0  0  0  0  0  0  0  0  0  0  0
  191.4330  176.6980  146.4530 C   0  0  0  0  0  3  0  0  0  0  0  0
  188.8370  174.4780  140.8240 C   0  0  0  0  0  2  0  0  0  0  0  0
  192.1090  173.5380  142.0920 O   0  0  0  0  0  0  0  0  0  0  0  0
  189.0400  175.2060  142.1240 C   0  0  0  0  0  0  0  0  0  0  0  0
  186.9530  176.3160  142.0990 O   0  0  0  0  0  1  0  0  0  0  0  0
  190.2920  174.9190  142.7250 N   0  0  0  0  0  0  0  0  0  0  0  0
  188.1760  176.0440  142.7060 C   0  0  0  0  0  0  0  0  0  0  0  0
  189.7190  176.4390  144.6120 C   0  0  0  0  0  0  0  0  0  0  0  0
  190.6810  175.5100  143.9680 C   0  0  1  0  0  3  0  0  0  0  0  0
  188.5310  176.6890  144.0060 C   0  0  0  0  0  0  0  0  0  0  0  0
  190.4890  172.9060  139.7580 N   0  0  0  0  0  0  0  0  0  0  0  0
  193.5120  175.5350  146.3820 N   0  0  0  0  0  1  0  0  0  0  0  0
  189.7420  172.5530  138.5840 C   0  0  0  0  0  0  0  0  0  0  0  0
  189.0810  171.4830  138.5860 O   0  0  0  0  0  0  0  0  0  0  0  0
  189.7150  173.4000  137.3570 C   0  0  0  0  0  1  0  0  0  0  0  0
  187.5260  177.6060  144.6380 C   0  0  0  0  0  2  0  0  0  0  0  0
  185.4100  177.3180  146.0730 C   0  0  2  0  0  3  0  0  0  0  0  0
  186.8210  176.9010  145.7940 C   0  0  1  0  0  3  0  0  0  0  0  0
  185.7170  176.1780  145.3040 O   0  0  0  0  0  0  0  0  0  0  0  0
  183.3710  179.0580  145.5730 O   0  0  0  0  0  1  0  0  0  0  0  0
  184.4330  178.0030  143.4330 O   0  0  0  0  0  0  0  0  0  0  0  0
  184.6920  178.6100  144.9920 P   0  0  0  0  0  0  0  0  0  0  0  0
  185.7420  179.9340  144.9140 O   0  0  0  0  0  1  0  0  0  0  0  0
  1  6  2  0  0  0  0
  2 17  1  0  0  0  0
  2  6  1  0  0  0  0
  3  2  2  0  0  0  0
  4  8  2  0  0  0  0
  4 11  1  0  0  0  0
  5  7  1  0  0  0  0
  5  4  1  0  0  0  0
  7  9  1  0  0  0  0
  9 12  2  0  0  0  0
  9 11  1  0  0  0  0
 10 12  1  0  0  0  0
 11 14  1  0  0  0  0
 12 15  1  0  0  0  0
 13  1  1  0  0  0  0
 14  3  1  1  0  0  0
 14 13  1  0  0  0  0
 15 13  2  0  0  0  0
 15 21  1  0  0  0  0
 16  5  2  0  0  0  0
 18 19  2  0  0  0  0
 18 16  1  0  0  0  0
 20 18  1  0  0  0  0
 22 27  1  6  0  0  0
 23 21  1  6  0  0  0
 23 22  1  0  0  0  0
 24 23  1  0  0  0  0
 24 22  1  0  0  0  0
 26 27  2  0  0  0  0
 27 25  1  0  0  0  0
 28 27  1  0  0  0  0
M  END
>  <MODEL>
4

>  <REMARK>
 VINA RESULT:      -6.3      2.792      6.784
  Name = 
  4 active torsions:
  status: ('A' for Active; 'I' for Inactive)
    1  A    between atoms: C_3  and  P_13
    2  A    between atoms: C_8  and  N_26
    3  A    between atoms: C_9  and  C_27
    4  A    between atoms: C_22  and  C_27
                            x       y       z     vdW  Elec       q    Type
                         _______ _______ _______ _____ _____    ______ ____

>  <TORSDO>
F 4

$$$$
=
 OpenBabel11042418263D

 28 31  0  0  1  0  0  0  0  0999 V2000
  188.0050  176.8970  143.4370 C   0  0  0  0  0  3  0  0  0  0  0  0
  186.6770  177.4740  141.3960 C   0  0  0  0  0  0  0  0  0  0  0  0
  187.2820  176.3560  140.6570 C   0  0  0  0  0  3  0  0  0  0  0  0
  188.5970  174.0040  139.1910 C   0  0  0  0  0  0  0  0  0  0  0  0
  189.4460  172.8480  138.9510 C   0  0  0  0  0  0  0  0  0  0  0  0
  187.0070  177.7220  142.6670 C   0  0  0  0  0  3  0  0  0  0  0  0
  190.2270  172.5350  140.2020 C   0  0  0  0  0  2  0  0  0  0  0  0
  187.8160  174.5280  138.3540 O   0  0  0  0  0  0  0  0  0  0  0  0
  189.7310  173.6110  141.1280 C   0  0  0  0  0  0  0  0  0  0  0  0
  191.0430  172.9490  142.9800 O   0  0  0  0  0  1  0  0  0  0  0  0
  188.7760  174.4640  140.5190 N   0  0  0  0  0  0  0  0  0  0  0  0
  190.1070  173.7990  142.3970 C   0  0  0  0  0  0  0  0  0  0  0  0
  188.6010  175.7590  142.6380 C   0  0  0  0  0  0  0  0  0  0  0  0
  188.1790  175.5520  141.2290 C   0  0  1  0  0  3  0  0  0  0  0  0
  189.5160  174.9210  143.1870 C   0  0  0  0  0  0  0  0  0  0  0  0
  189.4930  172.2120  137.8160 N   0  0  0  0  0  0  0  0  0  0  0  0
  185.7240  178.3060  140.7460 N   0  0  0  0  0  1  0  0  0  0  0  0
  190.2940  171.0670  137.4850 C   0  0  0  0  0  0  0  0  0  0  0  0
  191.4150  171.2470  136.9440 O   0  0  0  0  0  0  0  0  0  0  0  0
  189.8550  169.6670  137.7530 C   0  0  0  0  0  1  0  0  0  0  0  0
  189.9810  175.1130  144.5990 C   0  0  0  0  0  2  0  0  0  0  0  0
  191.7990  176.4160  145.8700 C   0  0  2  0  0  3  0  0  0  0  0  0
  191.3870  175.7080  144.6170 C   0  0  1  0  0  3  0  0  0  0  0  0
  192.1540  175.0770  145.6150 O   0  0  0  0  0  0  0  0  0  0  0  0
  191.2280  177.1090  148.4460 O   0  0  0  0  0  1  0  0  0  0  0  0
  190.0620  174.9160  147.6380 O   0  0  0  0  0  1  0  0  0  0  0  0
  190.5800  176.4760  147.2360 P   0  0  0  0  0  0  0  0  0  0  0  0
  189.2490  177.4090  146.7680 O   0  0  0  0  0  0  0  0  0  0  0  0
  2  6  1  0  0  0  0
  3  2  2  0  0  0  0
  4 11  1  0  0  0  0
  5  4  1  0  0  0  0
  5  7  1  0  0  0  0
  6  1  2  0  0  0  0
  7  9  1  0  0  0  0
  8  4  2  0  0  0  0
  9 12  2  0  0  0  0
 11  9  1  0  0  0  0
 11 14  1  0  0  0  0
 12 10  1  0  0  0  0
 12 15  1  0  0  0  0
 13 15  2  0  0  0  0
 13  1  1  0  0  0  0
 14  3  1  6  0  0  0
 14 13  1  0  0  0  0
 15 21  1  0  0  0  0
 16  5  2  0  0  0  0
 17  2  1  0  0  0  0
 18 20  1  0  0  0  0
 18 16  1  0  0  0  0
 19 18  2  0  0  0  0
 22 27  1  1  0  0  0
 23 21  1  1  0  0  0
 23 24  1  0  0  0  0
 23 22  1  0  0  0  0
 24 22  1  0  0  0  0
 27 26  1  0  0  0  0
 27 25  1  0  0  0  0
 28 27  2  0  0  0  0
M  END
>  <MODEL>
5

>  <REMARK>
 VINA RESULT:      -6.2      3.423      7.936
  Name = 
  4 active torsions:
  status: ('A' for Active; 'I' for Inactive)
    1  A    between atoms: C_3  and  P_13
    2  A    between atoms: C_8  and  N_26
    3  A    between atoms: C_9  and  C_27
    4  A    between atoms: C_22  and  C_27
                            x       y       z     vdW  Elec       q    Type
                         _______ _______ _______ _____ _____    ______ ____

>  <TORSDO>
F 4

$$$$
=
 OpenBabel11042418263D

 28 31  0  0  1  0  0  0  0  0999 V2000
  187.5610  176.5170  143.3050 C   0  0  0  0  0  3  0  0  0  0  0  0
  188.4000  175.2620  141.3100 C   0  0  0  0  0  0  0  0  0  0  0  0
  189.6730  174.9820  141.9910 C   0  0  0  0  0  3  0  0  0  0  0  0
  192.2990  174.4510  143.4860 C   0  0  0  0  0  0  0  0  0  0  0  0
  193.2920  174.4670  144.5470 C   0  0  0  0  0  0  0  0  0  0  0  0
  187.4340  175.9630  141.9100 C   0  0  0  0  0  3  0  0  0  0  0  0
  192.7490  175.2310  145.7270 C   0  0  0  0  0  2  0  0  0  0  0  0
  192.4320  173.8970  142.3630 O   0  0  0  0  0  0  0  0  0  0  0  0
  191.3890  175.6220  145.2160 C   0  0  0  0  0  0  0  0  0  0  0  0
  190.7260  176.7740  147.1710 O   0  0  0  0  0  1  0  0  0  0  0  0
  191.1420  175.1560  143.9000 N   0  0  0  0  0  0  0  0  0  0  0  0
  190.4670  176.3290  145.8780 C   0  0  0  0  0  0  0  0  0  0  0  0
  188.8850  176.2060  143.9670 C   0  0  0  0  0  0  0  0  0  0  0  0
  189.9070  175.4190  143.2300 C   0  0  1  0  0  3  0  0  0  0  0  0
  189.1580  176.6340  145.2250 C   0  0  0  0  0  0  0  0  0  0  0  0
  194.4590  173.8980  144.4510 N   0  0  0  0  0  0  0  0  0  0  0  0
  188.1950  174.7770  139.9890 N   0  0  0  0  0  1  0  0  0  0  0  0
  195.5010  173.8600  145.4380 C   0  0  0  0  0  0  0  0  0  0  0  0
  195.7890  174.9170  146.0570 O   0  0  0  0  0  0  0  0  0  0  0  0
  196.2620  172.6190  145.7650 C   0  0  0  0  0  1  0  0  0  0  0  0
  188.1590  177.4480  145.9910 C   0  0  0  0  0  2  0  0  0  0  0  0
  185.9930  177.0930  147.3330 C   0  0  2  0  0  3  0  0  0  0  0  0
  187.3100  176.5440  146.8810 C   0  0  1  0  0  3  0  0  0  0  0  0
  186.1050  176.2310  146.2250 O   0  0  0  0  0  0  0  0  0  0  0  0
  184.0500  178.9500  146.8660 O   0  0  0  0  0  1  0  0  0  0  0  0
  186.0150  178.9930  145.1460 O   0  0  0  0  0  0  0  0  0  0  0  0
  185.5470  178.7740  146.7580 P   0  0  0  0  0  0  0  0  0  0  0  0
  186.3130  179.9280  147.7290 O   0  0  0  0  0  1  0  0  0  0  0  0
  1 13  1  0  0  0  0
  2  6  1  0  0  0  0
  2  3  2  0  0  0  0
  4 11  1  0  0  0  0
  4  5  1  0  0  0  0
  5  7  1  0  0  0  0
  6  1  2  0  0  0  0
  8  4  2  0  0  0  0
  9  7  1  0  0  0  0
  9 12  2  0  0  0  0
 11  9  1  0  0  0  0
 12 10  1  0  0  0  0
 13 15  2  0  0  0  0
 14  3  1  6  0  0  0
 14 11  1  0  0  0  0
 14 13  1  0  0  0  0
 15 12  1  0  0  0  0
 15 21  1  0  0  0  0
 16  5  2  0  0  0  0
 16 18  1  0  0  0  0
 17  2  1  0  0  0  0
 18 20  1  0  0  0  0
 18 19  2  0  0  0  0
 22 27  1  6  0  0  0
 23 21  1  6  0  0  0
 23 22  1  0  0  0  0
 24 23  1  0  0  0  0
 24 22  1  0  0  0  0
 26 27  2  0  0  0  0
 27 25  1  0  0  0  0
 27 28  1  0  0  0  0
M  END
>  <MODEL>
6

>  <REMARK>
 VINA RESULT:      -6.1      3.373      7.853
  Name = 
  4 active torsions:
  status: ('A' for Active; 'I' for Inactive)
    1  A    between atoms: C_3  and  P_13
    2  A    between atoms: C_8  and  N_26
    3  A    between atoms: C_9  and  C_27
    4  A    between atoms: C_22  and  C_27
                            x       y       z     vdW  Elec       q    Type
                         _______ _______ _______ _____ _____    ______ ____

>  <TORSDO>
F 4

$$$$
=
 OpenBabel11042418263D

 28 31  0  0  1  0  0  0  0  0999 V2000
  191.2710  174.9170  145.4680 C   0  0  0  0  0  3  0  0  0  0  0  0
  190.5640  176.7060  147.0690 C   0  0  0  0  0  0  0  0  0  0  0  0
  189.3990  177.0290  146.2310 C   0  0  0  0  0  3  0  0  0  0  0  0
  186.9990  177.6370  144.4210 C   0  0  0  0  0  0  0  0  0  0  0  0
  186.0780  177.5480  143.2990 C   0  0  0  0  0  0  0  0  0  0  0  0
  191.4200  175.7410  146.7210 C   0  0  0  0  0  3  0  0  0  0  0  0
  186.5390  176.4620  142.3610 C   0  0  0  0  0  2  0  0  0  0  0  0
  186.9050  178.4410  145.3860 O   0  0  0  0  0  0  0  0  0  0  0  0
  187.7760  175.9770  143.0670 C   0  0  0  0  0  0  0  0  0  0  0  0
  188.3210  174.3190  141.4730 O   0  0  0  0  0  1  0  0  0  0  0  0
  188.0300  176.6780  144.2730 N   0  0  0  0  0  0  0  0  0  0  0  0
  188.5900  174.9980  142.6580 C   0  0  0  0  0  0  0  0  0  0  0  0
  190.0610  175.2840  144.6380 C   0  0  0  0  0  0  0  0  0  0  0  0
  189.1580  176.3700  145.0970 C   0  0  1  0  0  3  0  0  0  0  0  0
  189.7830  174.6350  143.4790 C   0  0  0  0  0  0  0  0  0  0  0  0
  185.0300  178.3090  143.1650 N   0  0  0  0  0  0  0  0  0  0  0  0
  190.7830  177.4350  148.2700 N   0  0  0  0  0  1  0  0  0  0  0  0
  184.0680  178.2960  142.0990 C   0  0  0  0  0  0  0  0  0  0  0  0
  182.8440  178.2910  142.3880 O   0  0  0  0  0  0  0  0  0  0  0  0
  184.4550  178.2910  140.6590 C   0  0  0  0  0  1  0  0  0  0  0  0
  190.6840  173.5480  142.9750 C   0  0  0  0  0  2  0  0  0  0  0  0
  190.3730  171.0620  142.3890 C   0  0  2  0  0  3  0  0  0  0  0  0
  190.1240  172.1790  143.3540 C   0  0  1  0  0  3  0  0  0  0  0  0
  191.1810  171.2660  143.5240 O   0  0  0  0  0  0  0  0  0  0  0  0
  191.6060  170.1830  140.1200 O   0  0  0  0  0  1  0  0  0  0  0  0
  192.8000  172.1950  141.2820 O   0  0  0  0  0  1  0  0  0  0  0  0
  191.3290  171.4610  140.8780 P   0  0  0  0  0  0  0  0  0  0  0  0
  190.4300  172.5040  139.8960 O   0  0  0  0  0  0  0  0  0  0  0  0
  1  6  2  0  0  0  0
  2 17  1  0  0  0  0
  3  2  2  0  0  0  0
  4  8  2  0  0  0  0
  5  4  1  0  0  0  0
  6  2  1  0  0  0  0
  7  9  1  0  0  0  0
  7  5  1  0  0  0  0
  9 11  1  0  0  0  0
 10 12  1  0  0  0  0
 11  4  1  0  0  0  0
 11 14  1  0  0  0  0
 12  9  2  0  0  0  0
 12 15  1  0  0  0  0
 13 14  1  0  0  0  0
 13  1  1  0  0  0  0
 14  3  1  6  0  0  0
 15 13  2  0  0  0  0
 16  5  2  0  0  0  0
 18 19  2  0  0  0  0
 18 16  1  0  0  0  0
 20 18  1  0  0  0  0
 21 15  1  0  0  0  0
 22 27  1  6  0  0  0
 22 23  1  0  0  0  0
 22 24  1  0  0  0  0
 23 21  1  6  0  0  0
 23 24  1  0  0  0  0
 25 27  1  0  0  0  0
 27 26  1  0  0  0  0
 28 27  2  0  0  0  0
M  END
>  <MODEL>
7

>  <REMARK>
 VINA RESULT:      -5.9      2.299      2.798
  Name = 
  4 active torsions:
  status: ('A' for Active; 'I' for Inactive)
    1  A    between atoms: C_3  and  P_13
    2  A    between atoms: C_8  and  N_26
    3  A    between atoms: C_9  and  C_27
    4  A    between atoms: C_22  and  C_27
                            x       y       z     vdW  Elec       q    Type
                         _______ _______ _______ _____ _____    ______ ____

>  <TORSDO>
F 4

$$$$
=
 OpenBabel11042418263D

 28 31  0  0  1  0  0  0  0  0999 V2000
  192.5980  174.1610  143.7110 C   0  0  0  0  0  2  0  0  0  0  0  0
  193.2070  175.6810  145.6030 C   0  0  0  0  0  0  0  0  0  0  0  0
  191.8330  176.2020  145.6590 C   0  0  0  0  0  3  0  0  0  0  0  0
  188.9440  177.2340  145.7010 C   0  0  0  0  0  0  0  0  0  0  0  0
  187.5440  177.3860  145.3400 C   0  0  0  0  0  0  0  0  0  0  0  0
  193.5580  174.7480  144.7130 C   0  0  0  0  0  3  0  0  0  0  0  0
  187.2190  176.4560  144.2000 C   0  0  0  0  0  2  0  0  0  0  0  0
  189.5400  177.8630  146.6140 O   0  0  0  0  0  0  0  0  0  0  0  0
  188.5520  175.7950  143.9780 C   0  0  0  0  0  0  0  0  0  0  0  0
  187.8350  174.4110  142.2010 O   0  0  0  0  0  1  0  0  0  0  0  0
  189.5530  176.2630  144.8680 N   0  0  0  0  0  0  0  0  0  0  0  0
  188.8310  174.8610  143.0630 C   0  0  0  0  0  0  0  0  0  0  0  0
  191.1980  174.7260  143.8050 C   0  0  0  0  0  0  0  0  0  0  0  0
  190.8910  175.7610  144.8240 C   0  0  0  0  0  0  0  0  0  0  0  0
  190.2130  174.3020  142.9730 C   0  0  0  0  0  0  0  0  0  0  0  0
  186.7320  178.2110  145.9360 N   0  0  0  0  0  0  0  0  0  0  0  0
  194.1800  176.1800  146.5130 N   0  0  0  0  0  1  0  0  0  0  0  0
  185.3410  178.4310  145.6530 C   0  0  0  0  0  0  0  0  0  0  0  0
  184.4810  177.7680  146.2870 O   0  0  0  0  0  0  0  0  0  0  0  0
  184.8680  179.4160  144.6380 C   0  0  0  0  0  1  0  0  0  0  0  0
  190.4920  173.2730  141.9180 C   0  0  0  0  0  2  0  0  0  0  0  0
  191.3970  173.1210  139.5140 C   0  0  2  0  0  3  0  0  0  0  0  0
  190.7350  173.9490  140.5710 C   0  0  1  0  0  3  0  0  0  0  0  0
  189.9990  173.2870  139.5700 O   0  0  0  0  0  0  0  0  0  0  0  0
  192.4420  170.7210  138.7490 O   0  0  0  0  0  0  0  0  0  0  0  0
  190.4410  170.5390  140.4180 O   0  0  0  0  0  1  0  0  0  0  0  0
  191.8260  171.3950  139.9530 P   0  0  0  0  0  0  0  0  0  0  0  0
  192.9430  171.3920  141.2230 O   0  0  0  0  0  1  0  0  0  0  0  0
  1 13  1  0  0  0  0
  1  6  1  0  0  0  0
  2  3  1  0  0  0  0
  2 17  1  0  0  0  0
  4  8  2  0  0  0  0
  5  4  1  0  0  0  0
  5 16  2  0  0  0  0
  6  2  2  0  0  0  0
  7  5  1  0  0  0  0
  9  7  1  0  0  0  0
  9 11  1  0  0  0  0
 10 12  1  0  0  0  0
 11  4  1  0  0  0  0
 12  9  2  0  0  0  0
 13 14  1  0  0  0  0
 14 11  1  0  0  0  0
 14  3  2  0  0  0  0
 15 12  1  0  0  0  0
 15 13  2  0  0  0  0
 18 16  1  0  0  0  0
 18 19  2  0  0  0  0
 20 18  1  0  0  0  0
 21 15  1  0  0  0  0
 22 24  1  0  0  0  0
 22 27  1  1  0  0  0
 22 23  1  0  0  0  0
 23 21  1  1  0  0  0
 24 23  1  0  0  0  0
 25 27  2  0  0  0  0
 27 26  1  0  0  0  0
 27 28  1  0  0  0  0
M  END
>  <MODEL>
8

>  <REMARK>
 VINA RESULT:      -5.9      1.101      1.699
  Name = 
  4 active torsions:
  status: ('A' for Active; 'I' for Inactive)
    1  A    between atoms: C_3  and  P_13
    2  A    between atoms: C_8  and  N_26
    3  A    between atoms: C_9  and  C_27
    4  A    between atoms: C_22  and  C_27
                            x       y       z     vdW  Elec       q    Type
                         _______ _______ _______ _____ _____    ______ ____

>  <TORSDO>
F 4

$$$$
=
 OpenBabel11042418263D

 28 31  0  0  1  0  0  0  0  0999 V2000
  188.0350  174.0650  141.9700 C   0  0  0  0  0  3  0  0  0  0  0  0
  189.2900  172.6660  140.3180 C   0  0  0  0  0  0  0  0  0  0  0  0
  190.5740  173.1310  140.8630 C   0  0  0  0  0  3  0  0  0  0  0  0
  193.2040  174.1590  142.0600 C   0  0  0  0  0  0  0  0  0  0  0  0
  194.1170  174.8940  142.9210 C   0  0  0  0  0  0  0  0  0  0  0  0
  188.1280  173.0920  140.8230 C   0  0  0  0  0  3  0  0  0  0  0  0
  193.3230  175.7220  143.8980 C   0  0  0  0  0  2  0  0  0  0  0  0
  193.5390  173.3730  141.1350 O   0  0  0  0  0  0  0  0  0  0  0  0
  191.9160  175.3740  143.4950 C   0  0  0  0  0  0  0  0  0  0  0  0
  190.8630  176.7390  145.1120 O   0  0  0  0  0  1  0  0  0  0  0  0
  191.8650  174.4550  142.4150 N   0  0  0  0  0  0  0  0  0  0  0  0
  190.7930  175.8410  144.0500 C   0  0  0  0  0  0  0  0  0  0  0  0
  189.3780  174.5160  142.4980 C   0  0  0  0  0  0  0  0  0  0  0  0
  190.6230  173.9940  141.8790 C   0  0  1  0  0  3  0  0  0  0  0  0
  189.4670  175.3930  143.5300 C   0  0  0  0  0  0  0  0  0  0  0  0
  195.4140  174.8200  142.8270 N   0  0  0  0  0  0  0  0  0  0  0  0
  189.2850  171.7450  139.2340 N   0  0  0  0  0  1  0  0  0  0  0  0
  196.3920  175.5030  143.6260 C   0  0  0  0  0  0  0  0  0  0  0  0
  196.8310  174.9380  144.6600 O   0  0  0  0  0  0  0  0  0  0  0  0
  196.9130  176.8580  143.2840 C   0  0  0  0  0  1  0  0  0  0  0  0
  188.2310  175.9570  144.1640 C   0  0  0  0  0  2  0  0  0  0  0  0
  186.8900  178.1520  144.1320 C   0  0  2  0  0  3  0  0  0  0  0  0
  187.7460  177.1770  143.3850 C   0  0  1  0  0  3  0  0  0  0  0  0
  188.2740  178.3470  143.9620 O   0  0  0  0  0  0  0  0  0  0  0  0
  185.8380  178.9650  146.5130 O   0  0  0  0  0  1  0  0  0  0  0  0
  187.9710  177.4740  146.7330 O   0  0  0  0  0  1  0  0  0  0  0  0
  186.5360  177.7790  145.8890 P   0  0  0  0  0  0  0  0  0  0  0  0
  185.5260  176.4250  145.9900 O   0  0  0  0  0  0  0  0  0  0  0  0
  1 13  1  0  0  0  0
  2  6  1  0  0  0  0
  2  3  2  0  0  0  0
  4 11  1  0  0  0  0
  4  5  1  0  0  0  0
  5  7  1  0  0  0  0
  6  1  2  0  0  0  0
  8  4  2  0  0  0  0
  9  7  1  0  0  0  0
  9 12  2  0  0  0  0
 11  9  1  0  0  0  0
 12 10  1  0  0  0  0
 13 15  2  0  0  0  0
 14  3  1  6  0  0  0
 14 11  1  0  0  0  0
 14 13  1  0  0  0  0
 15 12  1  0  0  0  0
 15 21  1  0  0  0  0
 16  5  2  0  0  0  0
 16 18  1  0  0  0  0
 17  2  1  0  0  0  0
 18 19  2  0  0  0  0
 20 18  1  0  0  0  0
 22 27  1  1  0  0  0
 23 24  1  0  0  0  0
 23 22  1  0  0  0  0
 23 21  1  1  0  0  0
 24 22  1  0  0  0  0
 27 28  2  0  0  0  0
 27 25  1  0  0  0  0
 27 26  1  0  0  0  0
M  END
>  <MODEL>
9

>  <REMARK>
 VINA RESULT:      -5.8      3.314      7.701
  Name = 
  4 active torsions:
  status: ('A' for Active; 'I' for Inactive)
    1  A    between atoms: C_3  and  P_13
    2  A    between atoms: C_8  and  N_26
    3  A    between atoms: C_9  and  C_27
    4  A    between atoms: C_22  and  C_27
                            x       y       z     vdW  Elec       q    Type
                         _______ _______ _______ _____ _____    ______ ____

>  <TORSDO>
F 4

$$$$
