=
 OpenBabel11042416103D

 26 29  0  0  1  0  0  0  0  0999 V2000
  193.4080  176.1800  145.3900 C   0  0  0  0  0  0  0  0  0  0  0  0
  187.8200  178.2050  142.2400 C   0  0  0  0  0  2  0  0  0  0  0  0
  186.0680  178.3010  143.8720 C   0  0  1  0  0  0  0  0  0  0  0  0
  194.7600  175.9640  144.8030 C   0  0  0  0  0  1  0  0  0  0  0  0
  190.7150  177.3740  142.8170 C   0  0  0  0  0  2  0  0  0  0  0  0
  193.0350  176.8750  142.4740 O   0  0  0  0  0  0  0  0  0  0  0  0
  188.8790  177.1370  146.2090 C   0  0  0  0  0  3  0  0  0  0  0  0
  188.3450  177.8240  143.5680 C   0  0  0  0  0  0  0  0  0  0  0  0
  186.4380  178.6570  142.4690 N   0  0  0  0  0  0  0  0  0  0  0  0
  192.2820  176.6010  144.7060 C   0  0  0  0  0  0  0  0  0  0  0  0
  187.5880  177.5350  145.8370 C   0  0  0  0  0  3  0  0  0  0  0  0
  189.9090  177.0810  145.2520 C   0  0  0  0  0  0  0  0  0  0  0  0
  185.0760  177.1300  143.9790 C   0  0  0  0  0  1  0  0  0  0  0  0
  187.3500  177.8810  144.5030 C   0  0  0  0  0  0  0  0  0  0  0  0
  191.8190  176.2810  146.8250 C   0  0  0  0  0  0  0  0  0  0  0  0
  191.2700  176.6660  145.6180 C   0  0  0  0  0  0  0  0  0  0  0  0
  193.1290  175.9820  146.6970 N   0  0  0  0  0  2  0  0  0  0  0  0
  189.6450  177.4250  143.8980 C   0  0  0  0  0  0  0  0  0  0  0  0
  191.1200  176.2020  148.0630 N   0  0  0  0  0  1  0  0  0  0  0  0
  192.0810  176.9420  143.2930 C   0  0  0  0  0  0  0  0  0  0  0  0
  184.1070  179.4280  144.6600 F   0  0  0  0  0  0  0  0  0  0  0  0
  185.4840  179.5440  144.5680 C   0  0  0  0  0  0  0  0  0  0  0  0
  185.7830  180.6840  143.8400 F   0  0  0  0  0  0  0  0  0  0  0  0
  186.0020  179.6820  145.8450 F   0  0  0  0  0  0  0  0  0  0  0  0
  185.5870  178.0570  141.4420 C   0  0  0  0  0  2  0  0  0  0  0  0
  186.4480  177.4820  140.3350 C   0  0  0  0  0  1  0  0  0  0  0  0
  1 17  1  0  0  0  0
  2  9  1  0  0  0  0
  2  8  1  0  0  0  0
  3 13  1  1  0  0  0
  3 14  1  0  0  0  0
  3 22  1  0  0  0  0
  4  1  1  0  0  0  0
  5 20  1  0  0  0  0
  5 18  1  0  0  0  0
  6 20  2  0  0  0  0
  8 18  2  0  0  0  0
  8 14  1  0  0  0  0
  9  3  1  0  0  0  0
 10  1  2  0  0  0  0
 10 16  1  0  0  0  0
 11  7  1  0  0  0  0
 12 16  1  0  0  0  0
 12  7  2  0  0  0  0
 14 11  2  0  0  0  0
 15 19  1  0  0  0  0
 16 15  2  0  0  0  0
 17 15  1  0  0  0  0
 18 12  1  0  0  0  0
 20 10  1  0  0  0  0
 22 21  1  0  0  0  0
 22 24  1  0  0  0  0
 23 22  1  0  0  0  0
 25  9  1  0  0  0  0
 26 25  1  0  0  0  0
M  END
>  <MODEL>
1

>  <REMARK>
 VINA RESULT:      -8.7      0.000      0.000
  Name = 
  2 active torsions:
  status: ('A' for Active; 'I' for Inactive)
    1  A    between atoms: C_3  and  C_5
    2  A    between atoms: C_8  and  N_12
                            x       y       z     vdW  Elec       q    Type
                         _______ _______ _______ _____ _____    ______ ____

>  <TORSDO>
F 2

$$$$
=
 OpenBabel11042416103D

 26 29  0  0  1  0  0  0  0  0999 V2000
  192.9020  175.9040  145.5460 C   0  0  0  0  0  0  0  0  0  0  0  0
  186.3400  177.3010  146.0370 C   0  0  0  0  0  2  0  0  0  0  0  0
  185.6880  178.4130  144.0180 C   0  0  1  0  0  0  0  0  0  0  0  0
  193.7690  175.2230  146.5480 C   0  0  0  0  0  1  0  0  0  0  0  0
  189.1740  176.3050  146.6580 C   0  0  0  0  0  2  0  0  0  0  0  0
  191.0120  175.3000  147.8230 O   0  0  0  0  0  0  0  0  0  0  0  0
  189.3860  177.8960  143.1430 C   0  0  0  0  0  3  0  0  0  0  0  0
  187.4990  177.4180  145.1280 C   0  0  0  0  0  0  0  0  0  0  0  0
  185.1790  177.7780  145.2720 N   0  0  0  0  0  0  0  0  0  0  0  0
  191.5520  176.1710  145.6850 C   0  0  1  0  0  3  0  0  0  0  0  0
  188.0600  178.3070  142.9600 C   0  0  0  0  0  3  0  0  0  0  0  0
  189.7710  177.2420  144.3280 C   0  0  0  0  0  0  0  0  0  0  0  0
  185.5810  179.9470  144.0060 C   0  0  0  0  0  1  0  0  0  0  0  0
  187.1310  178.0480  143.9730 C   0  0  0  0  0  0  0  0  0  0  0  0
  192.2840  176.8980  143.7500 C   0  0  0  0  0  0  0  0  0  0  0  0
  191.1570  176.8030  144.5420 C   0  0  0  0  0  0  0  0  0  0  0  0
  193.3590  176.3500  144.3540 N   0  0  0  0  0  0  0  0  0  0  0  0
  188.8150  176.9980  145.3510 C   0  0  0  0  0  0  0  0  0  0  0  0
  192.3360  177.4900  142.4560 N   0  0  0  0  0  1  0  0  0  0  0  0
  190.6200  175.8860  146.7810 C   0  0  0  0  0  0  0  0  0  0  0  0
  183.5620  177.9180  143.0330 F   0  0  0  0  0  0  0  0  0  0  0  0
  184.9260  177.8280  142.8140 C   0  0  0  0  0  0  0  0  0  0  0  0
  185.2580  176.4940  142.6400 F   0  0  0  0  0  0  0  0  0  0  0  0
  185.2330  178.5190  141.6540 F   0  0  0  0  0  0  0  0  0  0  0  0
  184.4000  178.6670  146.1330 C   0  0  0  0  0  2  0  0  0  0  0  0
  184.8110  178.4710  147.5780 C   0  0  0  0  0  1  0  0  0  0  0  0
  1 10  1  0  0  0  0
  1  4  1  0  0  0  0
  3 13  1  1  0  0  0
  3  9  1  0  0  0  0
  5 20  1  0  0  0  0
  7 12  1  0  0  0  0
  8 18  1  0  0  0  0
  8  2  1  0  0  0  0
  9  2  1  0  0  0  0
  9 25  1  0  0  0  0
 10 16  1  6  0  0  0
 10 20  1  0  0  0  0
 11  7  2  0  0  0  0
 11 14  1  0  0  0  0
 12 16  1  0  0  0  0
 12 18  2  0  0  0  0
 14  3  1  0  0  0  0
 14  8  2  0  0  0  0
 15 17  1  0  0  0  0
 15 16  2  0  0  0  0
 17  1  2  0  0  0  0
 18  5  1  0  0  0  0
 19 15  1  0  0  0  0
 20  6  2  0  0  0  0
 22 21  1  0  0  0  0
 22  3  1  0  0  0  0
 23 22  1  0  0  0  0
 24 22  1  0  0  0  0
 25 26  1  0  0  0  0
M  END
>  <MODEL>
2

>  <REMARK>
 VINA RESULT:      -8.5      2.241      3.509
  Name = 
  2 active torsions:
  status: ('A' for Active; 'I' for Inactive)
    1  A    between atoms: C_3  and  C_5
    2  A    between atoms: C_8  and  N_12
                            x       y       z     vdW  Elec       q    Type
                         _______ _______ _______ _____ _____    ______ ____

>  <TORSDO>
F 2

$$$$
=
 OpenBabel11042416103D

 26 29  0  0  1  0  0  0  0  0999 V2000
  183.4090  178.5180  142.2040 C   0  0  0  0  0  0  0  0  0  0  0  0
  188.8410  177.3460  145.9950 C   0  0  0  0  0  2  0  0  0  0  0  0
  190.6130  176.6760  144.5270 C   0  0  1  0  0  0  0  0  0  0  0  0
  182.0580  178.9540  142.6550 C   0  0  0  0  0  1  0  0  0  0  0  0
  186.0000  178.0750  145.1010 C   0  0  0  0  0  2  0  0  0  0  0  0
  183.7020  178.7530  145.2010 O   0  0  0  0  0  0  0  0  0  0  0  0
  187.9050  177.1880  141.8580 C   0  0  0  0  0  3  0  0  0  0  0  0
  188.3680  177.3550  144.5950 C   0  0  0  0  0  0  0  0  0  0  0  0
  190.2860  177.0780  145.9290 N   0  0  0  0  0  0  0  0  0  0  0  0
  184.5050  178.2900  143.0180 C   0  0  2  0  0  3  0  0  0  0  0  0
  189.1700  176.8790  142.3730 C   0  0  0  0  0  3  0  0  0  0  0  0
  186.8640  177.5820  142.7190 C   0  0  0  0  0  0  0  0  0  0  0  0
  190.9270  175.1800  144.3610 C   0  0  0  0  0  1  0  0  0  0  0  0
  189.3760  176.9780  143.7530 C   0  0  0  0  0  0  0  0  0  0  0  0
  185.0170  177.9200  140.9190 C   0  0  0  0  0  0  0  0  0  0  0  0
  185.5280  177.9100  142.2020 C   0  0  0  0  0  0  0  0  0  0  0  0
  183.7200  178.2930  140.9090 N   0  0  0  0  0  0  0  0  0  0  0  0
  187.0890  177.6660  144.1200 C   0  0  0  0  0  0  0  0  0  0  0  0
  185.7410  177.5890  139.7380 N   0  0  0  0  0  1  0  0  0  0  0  0
  184.6650  178.3980  144.4720 C   0  0  0  0  0  0  0  0  0  0  0  0
  192.8360  177.4600  144.9480 F   0  0  0  0  0  0  0  0  0  0  0  0
  191.8030  177.5170  144.0280 C   0  0  0  0  0  0  0  0  0  0  0  0
  191.4230  178.8400  143.8730 F   0  0  0  0  0  0  0  0  0  0  0  0
  192.2670  177.0410  142.8130 F   0  0  0  0  0  0  0  0  0  0  0  0
  190.6100  176.0740  146.9420 C   0  0  0  0  0  2  0  0  0  0  0  0
  191.5520  176.6690  147.9700 C   0  0  0  0  0  1  0  0  0  0  0  0
  1  4  1  0  0  0  0
  1 10  1  0  0  0  0
  3 13  1  6  0  0  0
  3  9  1  0  0  0  0
  7 11  2  0  0  0  0
  7 12  1  0  0  0  0
  8  2  1  0  0  0  0
  9  2  1  0  0  0  0
  9 25  1  0  0  0  0
 10 16  1  1  0  0  0
 10 20  1  0  0  0  0
 11 14  1  0  0  0  0
 12 18  2  0  0  0  0
 14  3  1  0  0  0  0
 14  8  2  0  0  0  0
 15 16  2  0  0  0  0
 16 12  1  0  0  0  0
 17 15  1  0  0  0  0
 17  1  2  0  0  0  0
 18  8  1  0  0  0  0
 18  5  1  0  0  0  0
 19 15  1  0  0  0  0
 20  5  1  0  0  0  0
 20  6  2  0  0  0  0
 22  3  1  0  0  0  0
 22 21  1  0  0  0  0
 23 22  1  0  0  0  0
 24 22  1  0  0  0  0
 25 26  1  0  0  0  0
M  END
>  <MODEL>
3

>  <REMARK>
 VINA RESULT:      -8.2      3.445      7.415
  Name = 
  2 active torsions:
  status: ('A' for Active; 'I' for Inactive)
    1  A    between atoms: C_3  and  C_5
    2  A    between atoms: C_8  and  N_12
                            x       y       z     vdW  Elec       q    Type
                         _______ _______ _______ _____ _____    ______ ____

>  <TORSDO>
F 2

$$$$
=
 OpenBabel11042416103D

 26 29  0  0  1  0  0  0  0  0999 V2000
  183.9990  178.3610  141.8240 C   0  0  0  0  0  0  0  0  0  0  0  0
  189.9050  175.7800  143.7500 C   0  0  0  0  0  2  0  0  0  0  0  0
  190.0070  175.9210  146.1400 C   0  0  1  0  0  0  0  0  0  0  0  0
  183.4720  178.5000  140.4370 C   0  0  0  0  0  1  0  0  0  0  0  0
  187.5500  176.7330  142.0330 C   0  0  0  0  0  2  0  0  0  0  0  0
  186.2000  177.2050  140.1080 O   0  0  0  0  0  0  0  0  0  0  0  0
  186.5330  177.4820  145.6850 C   0  0  0  0  0  3  0  0  0  0  0  0
  188.6590  176.3760  144.2750 C   0  0  0  0  0  0  0  0  0  0  0  0
  190.6730  175.3510  144.9290 N   0  0  0  0  0  0  0  0  0  0  0  0
  185.2220  177.8200  142.1790 C   0  0  0  0  0  0  0  0  0  0  0  0
  187.6590  177.0120  146.3730 C   0  0  0  0  0  3  0  0  0  0  0  0
  186.4710  177.3990  144.2820 C   0  0  0  0  0  0  0  0  0  0  0  0
  190.7800  177.0790  146.7920 C   0  0  0  0  0  1  0  0  0  0  0  0
  188.7100  176.4540  145.6380 C   0  0  0  0  0  0  0  0  0  0  0  0
  184.1210  178.4680  143.9610 C   0  0  0  0  0  0  0  0  0  0  0  0
  185.3010  177.8870  143.5390 C   0  0  0  0  0  0  0  0  0  0  0  0
  183.3160  178.7610  142.9190 N   0  0  0  0  0  2  0  0  0  0  0  0
  187.5540  176.8400  143.5510 C   0  0  0  0  0  0  0  0  0  0  0  0
  183.7700  178.7330  145.3150 N   0  0  0  0  0  1  0  0  0  0  0  0
  186.3020  177.2560  141.3620 C   0  0  0  0  0  0  0  0  0  0  0  0
  189.8320  173.5650  146.5360 F   0  0  0  0  0  0  0  0  0  0  0  0
  189.7880  174.7960  147.1690 C   0  0  0  0  0  0  0  0  0  0  0  0
  188.5510  174.9360  147.7750 F   0  0  0  0  0  0  0  0  0  0  0  0
  190.7690  174.8260  148.1460 F   0  0  0  0  0  0  0  0  0  0  0  0
  192.0620  175.7670  144.7450 C   0  0  0  0  0  2  0  0  0  0  0  0
  192.2080  176.4910  143.4210 C   0  0  0  0  0  1  0  0  0  0  0  0
  1 10  2  0  0  0  0
  1 17  1  0  0  0  0
  2  8  1  0  0  0  0
  2  9  1  0  0  0  0
  3 13  1  1  0  0  0
  3 22  1  0  0  0  0
  4  1  1  0  0  0  0
  5 18  1  0  0  0  0
  6 20  2  0  0  0  0
  7 11  1  0  0  0  0
  8 14  1  0  0  0  0
  9  3  1  0  0  0  0
 10 16  1  0  0  0  0
 12  7  2  0  0  0  0
 14  3  1  0  0  0  0
 14 11  2  0  0  0  0
 15 19  1  0  0  0  0
 16 15  2  0  0  0  0
 16 12  1  0  0  0  0
 17 15  1  0  0  0  0
 18  8  2  0  0  0  0
 18 12  1  0  0  0  0
 20  5  1  0  0  0  0
 20 10  1  0  0  0  0
 21 22  1  0  0  0  0
 22 23  1  0  0  0  0
 22 24  1  0  0  0  0
 25  9  1  0  0  0  0
 26 25  1  0  0  0  0
M  END
>  <MODEL>
4

>  <REMARK>
 VINA RESULT:      -8.2      3.172      6.770
  Name = 
  2 active torsions:
  status: ('A' for Active; 'I' for Inactive)
    1  A    between atoms: C_3  and  C_5
    2  A    between atoms: C_8  and  N_12
                            x       y       z     vdW  Elec       q    Type
                         _______ _______ _______ _____ _____    ______ ____

>  <TORSDO>
F 2

$$$$
=
 OpenBabel11042416103D

 26 29  0  0  1  0  0  0  0  0999 V2000
  184.8440  178.7120  144.8430 C   0  0  0  0  0  0  0  0  0  0  0  0
  190.7810  176.2550  142.8530 C   0  0  0  0  0  2  0  0  0  0  0  0
  192.1010  175.8820  144.8180 C   0  0  1  0  0  0  0  0  0  0  0  0
  183.6870  179.1060  143.9920 C   0  0  0  0  0  1  0  0  0  0  0  0
  187.9230  177.3670  142.8410 C   0  0  0  0  0  2  0  0  0  0  0  0
  185.8000  178.1350  142.0360 O   0  0  0  0  0  0  0  0  0  0  0  0
  188.9580  177.2220  146.5610 C   0  0  0  0  0  3  0  0  0  0  0  0
  190.0080  176.6220  144.0580 C   0  0  0  0  0  0  0  0  0  0  0  0
  192.0250  175.6430  143.3440 N   0  0  0  0  0  0  0  0  0  0  0  0
  186.0510  178.2070  144.3930 C   0  0  0  0  0  0  0  0  0  0  0  0
  190.2560  176.7060  146.4530 C   0  0  0  0  0  3  0  0  0  0  0  0
  188.1820  177.4410  145.4090 C   0  0  0  0  0  0  0  0  0  0  0  0
  193.1490  176.9300  145.2280 C   0  0  0  0  0  1  0  0  0  0  0  0
  190.7550  176.4070  145.1810 C   0  0  0  0  0  0  0  0  0  0  0  0
  186.0500  178.3630  146.5800 C   0  0  0  0  0  0  0  0  0  0  0  0
  186.8190  177.9830  145.4980 C   0  0  0  0  0  0  0  0  0  0  0  0
  184.8380  178.8100  146.1910 N   0  0  0  0  0  2  0  0  0  0  0  0
  188.7110  177.1420  144.1240 C   0  0  0  0  0  0  0  0  0  0  0  0
  186.4550  178.3000  147.9440 N   0  0  0  0  0  1  0  0  0  0  0  0
  186.5320  177.9210  143.0370 C   0  0  0  0  0  0  0  0  0  0  0  0
  193.4190  173.8840  144.8790 F   0  0  0  0  0  0  0  0  0  0  0  0
  192.3920  174.5470  145.5280 C   0  0  0  0  0  0  0  0  0  0  0  0
  191.2650  173.7410  145.5120 F   0  0  0  0  0  0  0  0  0  0  0  0
  192.7670  174.7620  146.8440 F   0  0  0  0  0  0  0  0  0  0  0  0
  193.1400  176.1990  142.5780 C   0  0  0  0  0  2  0  0  0  0  0  0
  193.7640  175.1150  141.7220 C   0  0  0  0  0  1  0  0  0  0  0  0
  1 17  1  0  0  0  0
  2  9  1  0  0  0  0
  2  8  1  0  0  0  0
  3 14  1  0  0  0  0
  3 13  1  1  0  0  0
  3 22  1  0  0  0  0
  4  1  1  0  0  0  0
  5 20  1  0  0  0  0
  5 18  1  0  0  0  0
  6 20  2  0  0  0  0
  8 18  2  0  0  0  0
  8 14  1  0  0  0  0
  9  3  1  0  0  0  0
 10  1  2  0  0  0  0
 10 16  1  0  0  0  0
 11  7  1  0  0  0  0
 12 16  1  0  0  0  0
 12  7  2  0  0  0  0
 14 11  2  0  0  0  0
 15 19  1  0  0  0  0
 16 15  2  0  0  0  0
 17 15  1  0  0  0  0
 18 12  1  0  0  0  0
 20 10  1  0  0  0  0
 21 22  1  0  0  0  0
 22 24  1  0  0  0  0
 23 22  1  0  0  0  0
 25  9  1  0  0  0  0
 26 25  1  0  0  0  0
M  END
>  <MODEL>
5

>  <REMARK>
 VINA RESULT:      -8.0      3.758      6.714
  Name = 
  2 active torsions:
  status: ('A' for Active; 'I' for Inactive)
    1  A    between atoms: C_3  and  C_5
    2  A    between atoms: C_8  and  N_12
                            x       y       z     vdW  Elec       q    Type
                         _______ _______ _______ _____ _____    ______ ____

>  <TORSDO>
F 2

$$$$
=
 OpenBabel11042416103D

 26 29  0  0  1  0  0  0  0  0999 V2000
  185.1100  178.2530  145.5590 C   0  0  0  0  0  0  0  0  0  0  0  0
  190.9170  174.8640  145.7710 C   0  0  0  0  0  2  0  0  0  0  0  0
  192.0380  175.2260  143.6850 C   0  0  1  0  0  0  0  0  0  0  0  0
  184.0620  178.3370  146.6150 C   0  0  0  0  0  1  0  0  0  0  0  0
  188.1910  176.0460  146.5290 C   0  0  0  0  0  2  0  0  0  0  0  0
  186.2210  176.5570  147.7970 O   0  0  0  0  0  0  0  0  0  0  0  0
  188.9240  177.3450  142.9640 C   0  0  0  0  0  3  0  0  0  0  0  0
  190.1110  175.7560  144.9130 C   0  0  0  0  0  0  0  0  0  0  0  0
  192.1920  174.6680  145.0630 N   0  0  0  0  0  0  0  0  0  0  0  0
  186.2960  177.5450  145.6430 C   0  0  1  0  0  3  0  0  0  0  0  0
  190.1720  176.7580  142.7220 C   0  0  0  0  0  3  0  0  0  0  0  0
  188.2640  177.1340  144.1890 C   0  0  0  0  0  0  0  0  0  0  0  0
  191.9420  174.1550  142.5850 C   0  0  0  0  0  1  0  0  0  0  0  0
  190.7480  175.9680  143.7230 C   0  0  0  0  0  0  0  0  0  0  0  0
  186.1430  178.5600  143.7050 C   0  0  0  0  0  0  0  0  0  0  0  0
  186.9540  177.7390  144.4650 C   0  0  0  0  0  0  0  0  0  0  0  0
  185.0110  178.8810  144.3670 N   0  0  0  0  0  0  0  0  0  0  0  0
  188.8600  176.3200  145.1890 C   0  0  0  0  0  0  0  0  0  0  0  0
  186.4360  179.0250  142.3920 N   0  0  0  0  0  1  0  0  0  0  0  0
  186.8510  176.7170  146.7190 C   0  0  0  0  0  0  0  0  0  0  0  0
  193.1410  177.2860  144.2070 F   0  0  0  0  0  0  0  0  0  0  0  0
  193.2190  176.1700  143.3920 C   0  0  0  0  0  0  0  0  0  0  0  0
  193.1830  176.5840  142.0710 F   0  0  0  0  0  0  0  0  0  0  0  0
  194.4270  175.5340  143.6270 F   0  0  0  0  0  0  0  0  0  0  0  0
  192.5260  173.2450  145.1120 C   0  0  0  0  0  2  0  0  0  0  0  0
  193.9300  173.0670  145.6570 C   0  0  0  0  0  1  0  0  0  0  0  0
  1 10  1  0  0  0  0
  1  4  1  0  0  0  0
  3 13  1  6  0  0  0
  3 14  1  0  0  0  0
  3  9  1  0  0  0  0
  5 20  1  0  0  0  0
  7 12  1  0  0  0  0
  8 18  1  0  0  0  0
  8  2  1  0  0  0  0
  9 25  1  0  0  0  0
  9  2  1  0  0  0  0
 10 16  1  1  0  0  0
 10 20  1  0  0  0  0
 11  7  2  0  0  0  0
 11 14  1  0  0  0  0
 12 16  1  0  0  0  0
 12 18  2  0  0  0  0
 14  8  2  0  0  0  0
 15 17  1  0  0  0  0
 15 16  2  0  0  0  0
 17  1  2  0  0  0  0
 18  5  1  0  0  0  0
 19 15  1  0  0  0  0
 20  6  2  0  0  0  0
 22 24  1  0  0  0  0
 22  3  1  0  0  0  0
 22 21  1  0  0  0  0
 23 22  1  0  0  0  0
 25 26  1  0  0  0  0
M  END
>  <MODEL>
6

>  <REMARK>
 VINA RESULT:      -7.8      3.793      7.199
  Name = 
  2 active torsions:
  status: ('A' for Active; 'I' for Inactive)
    1  A    between atoms: C_3  and  C_5
    2  A    between atoms: C_8  and  N_12
                            x       y       z     vdW  Elec       q    Type
                         _______ _______ _______ _____ _____    ______ ____

>  <TORSDO>
F 2

$$$$
=
 OpenBabel11042416103D

 26 29  0  0  1  0  0  0  0  0999 V2000
  193.4710  175.9500  144.7340 C   0  0  0  0  0  0  0  0  0  0  0  0
  187.1950  178.2520  143.9830 C   0  0  0  0  0  2  0  0  0  0  0  0
  185.9960  177.7430  145.9940 C   0  0  1  0  0  0  0  0  0  0  0  0
  194.5940  176.0220  143.7570 C   0  0  0  0  0  1  0  0  0  0  0  0
  190.1370  177.5550  143.4660 C   0  0  0  0  0  2  0  0  0  0  0  0
  192.2580  177.3760  142.3630 O   0  0  0  0  0  0  0  0  0  0  0  0
  189.3740  176.2410  147.0200 C   0  0  0  0  0  3  0  0  0  0  0  0
  188.0870  177.5710  144.9440 C   0  0  0  0  0  0  0  0  0  0  0  0
  185.9390  178.4990  144.7060 N   0  0  0  0  0  0  0  0  0  0  0  0
  192.1910  176.4390  144.5410 C   0  0  0  0  0  0  0  0  0  0  0  0
  188.0290  176.6090  147.1530 C   0  0  0  0  0  3  0  0  0  0  0  0
  190.0790  176.5400  145.8400 C   0  0  0  0  0  0  0  0  0  0  0  0
  185.0860  176.5040  146.0330 C   0  0  0  0  0  1  0  0  0  0  0  0
  187.4090  177.2820  146.0940 C   0  0  0  0  0  0  0  0  0  0  0  0
  192.3710  175.5140  146.5210 C   0  0  0  0  0  0  0  0  0  0  0  0
  191.4900  176.1630  145.6770 C   0  0  0  0  0  0  0  0  0  0  0  0
  193.5870  175.3790  145.9530 N   0  0  0  0  0  2  0  0  0  0  0  0
  189.4300  177.2150  144.7710 C   0  0  0  0  0  0  0  0  0  0  0  0
  192.0640  175.0390  147.8280 N   0  0  0  0  0  1  0  0  0  0  0  0
  191.5850  177.1320  143.3990 C   0  0  0  0  0  0  0  0  0  0  0  0
  184.3000  178.5360  147.4870 F   0  0  0  0  0  0  0  0  0  0  0  0
  185.6340  178.6930  147.1500 C   0  0  0  0  0  0  0  0  0  0  0  0
  185.8420  180.0090  146.7710 F   0  0  0  0  0  0  0  0  0  0  0  0
  186.4060  178.4240  148.2680 F   0  0  0  0  0  0  0  0  0  0  0  0
  184.8280  178.1290  143.8300 C   0  0  0  0  0  2  0  0  0  0  0  0
  183.7110  179.1460  143.9600 C   0  0  0  0  0  1  0  0  0  0  0  0
  1 17  1  0  0  0  0
  2  9  1  0  0  0  0
  2  8  1  0  0  0  0
  3 13  1  6  0  0  0
  3 14  1  0  0  0  0
  3 22  1  0  0  0  0
  4  1  1  0  0  0  0
  5 18  1  0  0  0  0
  6 20  2  0  0  0  0
  7 11  1  0  0  0  0
  8 14  1  0  0  0  0
  9  3  1  0  0  0  0
 10  1  2  0  0  0  0
 10 16  1  0  0  0  0
 12  7  2  0  0  0  0
 14 11  2  0  0  0  0
 15 19  1  0  0  0  0
 16 12  1  0  0  0  0
 16 15  2  0  0  0  0
 17 15  1  0  0  0  0
 18  8  2  0  0  0  0
 18 12  1  0  0  0  0
 20  5  1  0  0  0  0
 20 10  1  0  0  0  0
 22 21  1  0  0  0  0
 22 24  1  0  0  0  0
 23 22  1  0  0  0  0
 25 26  1  0  0  0  0
 25  9  1  0  0  0  0
M  END
>  <MODEL>
7

>  <REMARK>
 VINA RESULT:      -7.8      1.592      1.961
  Name = 
  2 active torsions:
  status: ('A' for Active; 'I' for Inactive)
    1  A    between atoms: C_3  and  C_5
    2  A    between atoms: C_8  and  N_12
                            x       y       z     vdW  Elec       q    Type
                         _______ _______ _______ _____ _____    ______ ____

>  <TORSDO>
F 2

$$$$
=
 OpenBabel11042416103D

 26 29  0  0  1  0  0  0  0  0999 V2000
  184.8850  177.8980  145.2970 C   0  0  0  0  0  0  0  0  0  0  0  0
  190.7540  174.6100  145.3060 C   0  0  0  0  0  2  0  0  0  0  0  0
  191.3700  174.2330  143.0210 C   0  0  1  0  0  0  0  0  0  0  0  0
  184.0920  178.3540  146.4730 C   0  0  0  0  0  1  0  0  0  0  0  0
  188.2060  176.0510  146.2230 C   0  0  0  0  0  2  0  0  0  0  0  0
  186.5420  177.0050  147.6600 O   0  0  0  0  0  0  0  0  0  0  0  0
  188.0750  176.0800  142.3610 C   0  0  0  0  0  3  0  0  0  0  0  0
  189.7360  175.1910  144.4050 C   0  0  0  0  0  0  0  0  0  0  0  0
  191.8500  174.1570  144.4350 N   0  0  0  0  0  0  0  0  0  0  0  0
  186.0930  177.2250  145.3420 C   0  0  2  0  0  3  0  0  0  0  0  0
  189.2660  175.4120  142.0520 C   0  0  0  0  0  3  0  0  0  0  0  0
  187.7110  176.3030  143.7020 C   0  0  0  0  0  0  0  0  0  0  0  0
  191.0870  172.8620  142.3830 C   0  0  0  0  0  1  0  0  0  0  0  0
  190.0850  174.9810  143.1010 C   0  0  0  0  0  0  0  0  0  0  0  0
  185.4690  177.5470  143.2650 C   0  0  0  0  0  0  0  0  0  0  0  0
  186.4660  177.0010  144.0490 C   0  0  0  0  0  0  0  0  0  0  0  0
  184.4960  178.0990  144.0190 N   0  0  0  0  0  0  0  0  0  0  0  0
  188.5510  175.8480  144.7540 C   0  0  0  0  0  0  0  0  0  0  0  0
  185.4430  177.5450  141.8410 N   0  0  0  0  0  1  0  0  0  0  0  0
  186.9100  176.7830  146.4770 C   0  0  0  0  0  0  0  0  0  0  0  0
  192.2740  176.3570  142.3830 F   0  0  0  0  0  0  0  0  0  0  0  0
  192.4100  174.9940  142.1790 C   0  0  0  0  0  0  0  0  0  0  0  0
  192.2230  174.7290  140.8330 F   0  0  0  0  0  0  0  0  0  0  0  0
  193.6970  174.6220  142.5320 F   0  0  0  0  0  0  0  0  0  0  0  0
  192.2550  172.8210  144.8710 C   0  0  0  0  0  2  0  0  0  0  0  0
  193.7070  172.8440  145.3090 C   0  0  0  0  0  1  0  0  0  0  0  0
  1 10  1  0  0  0  0
  1  4  1  0  0  0  0
  3 13  1  6  0  0  0
  3 14  1  0  0  0  0
  3  9  1  0  0  0  0
  5 20  1  0  0  0  0
  7 12  1  0  0  0  0
  8 18  1  0  0  0  0
  8  2  1  0  0  0  0
  9 25  1  0  0  0  0
  9  2  1  0  0  0  0
 10 16  1  1  0  0  0
 10 20  1  0  0  0  0
 11  7  2  0  0  0  0
 11 14  1  0  0  0  0
 12 16  1  0  0  0  0
 12 18  2  0  0  0  0
 14  8  2  0  0  0  0
 15 17  1  0  0  0  0
 15 16  2  0  0  0  0
 17  1  2  0  0  0  0
 18  5  1  0  0  0  0
 19 15  1  0  0  0  0
 20  6  2  0  0  0  0
 22 21  1  0  0  0  0
 22 24  1  0  0  0  0
 22  3  1  0  0  0  0
 23 22  1  0  0  0  0
 25 26  1  0  0  0  0
M  END
>  <MODEL>
8

>  <REMARK>
 VINA RESULT:      -7.6      4.105      7.302
  Name = 
  2 active torsions:
  status: ('A' for Active; 'I' for Inactive)
    1  A    between atoms: C_3  and  C_5
    2  A    between atoms: C_8  and  N_12
                            x       y       z     vdW  Elec       q    Type
                         _______ _______ _______ _____ _____    ______ ____

>  <TORSDO>
F 2

$$$$
=
 OpenBabel11042416103D

 26 29  0  0  1  0  0  0  0  0999 V2000
  187.1570  176.9400  145.1940 C   0  0  0  0  0  0  0  0  0  0  0  0
  193.3760  174.4850  145.9290 C   0  0  0  0  0  2  0  0  0  0  0  0
  194.6450  175.1510  144.0080 C   0  0  1  0  0  0  0  0  0  0  0  0
  186.0010  176.7910  146.1220 C   0  0  0  0  0  1  0  0  0  0  0  0
  190.4290  175.1790  146.4150 C   0  0  0  0  0  2  0  0  0  0  0  0
  188.2770  175.2940  147.4660 O   0  0  0  0  0  0  0  0  0  0  0  0
  191.3260  176.8050  143.0260 C   0  0  0  0  0  3  0  0  0  0  0  0
  192.5350  175.2950  145.0240 C   0  0  0  0  0  0  0  0  0  0  0  0
  194.7350  174.5360  145.3670 N   0  0  0  0  0  0  0  0  0  0  0  0
  188.4250  176.4200  145.3840 C   0  0  1  0  0  3  0  0  0  0  0  0
  192.6710  176.4350  142.9050 C   0  0  0  0  0  3  0  0  0  0  0  0
  190.5800  176.4150  144.1540 C   0  0  0  0  0  0  0  0  0  0  0  0
  194.8430  174.1530  142.8550 C   0  0  0  0  0  1  0  0  0  0  0  0
  193.2550  175.6810  143.9290 C   0  0  0  0  0  0  0  0  0  0  0  0
  188.3210  177.5220  143.4910 C   0  0  0  0  0  0  0  0  0  0  0  0
  189.1670  176.7900  144.3010 C   0  0  0  0  0  0  0  0  0  0  0  0
  187.0880  177.6210  144.0290 N   0  0  0  0  0  0  0  0  0  0  0  0
  191.1870  175.6390  145.1780 C   0  0  0  0  0  0  0  0  0  0  0  0
  188.6770  178.1120  142.2450 N   0  0  0  0  0  1  0  0  0  0  0  0
  188.9860  175.6200  146.4780 C   0  0  0  0  0  0  0  0  0  0  0  0
  195.3480  177.3110  144.7670 F   0  0  0  0  0  0  0  0  0  0  0  0
  195.6820  176.2840  143.9000 C   0  0  0  0  0  0  0  0  0  0  0  0
  195.7090  176.7870  142.6100 F   0  0  0  0  0  0  0  0  0  0  0  0
  196.9480  175.8250  144.2270 F   0  0  0  0  0  0  0  0  0  0  0  0
  195.2880  173.1820  145.3880 C   0  0  0  0  0  2  0  0  0  0  0  0
  196.6530  173.1960  146.0480 C   0  0  0  0  0  1  0  0  0  0  0  0
  1 10  1  0  0  0  0
  1  4  1  0  0  0  0
  3 13  1  6  0  0  0
  3  9  1  0  0  0  0
  5 20  1  0  0  0  0
  7 12  1  0  0  0  0
  8 18  1  0  0  0  0
  8  2  1  0  0  0  0
  9 25  1  0  0  0  0
  9  2  1  0  0  0  0
 10 16  1  1  0  0  0
 10 20  1  0  0  0  0
 11  7  2  0  0  0  0
 11 14  1  0  0  0  0
 12 16  1  0  0  0  0
 12 18  2  0  0  0  0
 14  3  1  0  0  0  0
 14  8  2  0  0  0  0
 15 17  1  0  0  0  0
 15 16  2  0  0  0  0
 17  1  2  0  0  0  0
 18  5  1  0  0  0  0
 19 15  1  0  0  0  0
 20  6  2  0  0  0  0
 22  3  1  0  0  0  0
 22 24  1  0  0  0  0
 22 21  1  0  0  0  0
 23 22  1  0  0  0  0
 25 26  1  0  0  0  0
M  END
>  <MODEL>
9

>  <REMARK>
 VINA RESULT:      -7.5      4.285      7.845
  Name = 
  2 active torsions:
  status: ('A' for Active; 'I' for Inactive)
    1  A    between atoms: C_3  and  C_5
    2  A    between atoms: C_8  and  N_12
                            x       y       z     vdW  Elec       q    Type
                         _______ _______ _______ _____ _____    ______ ____

>  <TORSDO>
F 2

$$$$
