=
 OpenBabel11042417143D

 49 53  0  0  1  0  0  0  0  0999 V2000
  191.6340  170.8500  142.3770 C   0  0  0  0  0  0  0  0  0  0  0  0
  192.1220  170.2140  143.5290 C   0  0  0  0  0  3  0  0  0  0  0  0
  194.3350  170.1100  142.5680 C   0  0  0  0  0  3  0  0  0  0  0  0
  193.8630  170.7460  141.4180 C   0  0  0  0  0  3  0  0  0  0  0  0
  193.4640  169.8450  143.6260 C   0  0  0  0  0  0  0  0  0  0  0  0
  192.5160  171.1240  141.3060 C   0  0  0  0  0  0  0  0  0  0  0  0
  192.6070  170.2650  138.2540 C   0  0  0  0  0  1  0  0  0  0  0  0
  191.4950  170.9830  138.9990 C   0  0  2  0  0  3  0  0  0  0  0  0
  190.1780  174.0110  136.9840 C   0  0  0  0  0  1  0  0  0  0  0  0
  189.7520  171.1400  137.1150 C   0  0  0  0  0  1  0  0  0  0  0  0
  190.8910  173.1630  137.9890 C   0  0  0  0  0  0  0  0  0  0  0  0
  190.6990  171.8310  138.0440 C   0  0  0  0  0  0  0  0  0  0  0  0
  191.7690  173.8100  138.9210 N   0  0  0  0  0  0  0  0  0  0  0  0
  192.0580  171.7700  140.1020 N   0  0  0  0  0  0  0  0  0  0  0  0
  192.3100  173.1740  139.9120 C   0  0  0  0  0  3  0  0  0  0  0  0
  193.9700  169.1990  144.8690 C   0  0  0  0  0  2  0  0  0  0  0  0
  195.4310  169.5320  145.1000 C   0  0  2  0  0  3  0  0  0  0  0  0
  195.8150  169.1490  146.4680 N   0  0  0  0  0  2  0  0  0  0  0  0
  195.5140  170.5520  146.1390 C   0  0  1  0  0  3  0  0  0  0  0  0
  196.8100  171.3340  146.0010 C   0  0  0  0  0  2  0  0  0  0  0  0
  197.1740  173.6610  146.3970 O   0  0  0  0  0  0  0  0  0  0  0  0
  195.5060  173.1600  144.8480 N   0  0  0  0  0  2  0  0  0  0  0  0
  196.5190  172.7820  145.7790 C   0  0  0  0  0  0  0  0  0  0  0  0
  195.1460  174.5510  144.6080 C   0  0  0  0  0  2  0  0  0  0  0  0
  193.6270  174.7620  144.5840 C   0  0  2  0  0  0  0  0  0  0  0  0
  192.9980  173.6780  145.1760 F   0  0  0  0  0  0  0  0  0  0  0  0
  193.2160  174.7910  143.1180 C   0  0  0  0  0  1  0  0  0  0  0  0
  192.2390  176.7310  144.5790 O   0  0  0  0  0  1  0  0  0  0  0  0
  192.6280  175.7620  146.7020 C   0  0  0  0  0  1  0  0  0  0  0  0
  193.2170  176.0650  145.3260 C   0  0  1  0  0  0  0  0  0  0  0  0
  194.3960  177.0320  145.4800 C   0  0  0  0  0  2  0  0  0  0  0  0
  194.5520  177.4560  146.8020 O   0  0  0  0  0  1  0  0  0  0  0  0
  190.2740  171.3060  142.3370 N   0  0  0  0  0  2  0  0  0  0  0  0
  188.6300  173.1660  140.7340 C   0  0  0  0  0  1  0  0  0  0  0  0
  189.8080  174.1000  144.7530 C   0  0  0  0  0  3  0  0  0  0  0  0
  190.2160  172.8910  144.1850 C   0  0  0  0  0  3  0  0  0  0  0  0
  188.6310  174.6600  142.7150 C   0  0  0  0  0  3  0  0  0  0  0  0
  189.0150  174.9900  144.0180 C   0  0  0  0  0  0  0  0  0  0  0  0
  189.0240  173.4460  142.1440 C   0  0  0  0  0  0  0  0  0  0  0  0
  189.8180  172.5460  142.8900 C   0  0  0  0  0  0  0  0  0  0  0  0
  186.6410  177.9050  144.7430 C   0  0  0  0  0  3  0  0  0  0  0  0
  187.1400  176.6280  144.1450 C   0  0  0  0  0  2  0  0  0  0  0  0
  186.5670  176.9250  146.9540 N   0  0  0  0  0  0  0  0  0  0  0  0
  188.5670  176.2930  144.5980 C   0  0  1  0  0  3  0  0  0  0  0  0
  185.7810  179.2210  146.5210 N   0  0  0  0  0  1  0  0  0  0  0  0
  186.3780  178.0210  146.0460 C   0  0  0  0  0  0  0  0  0  0  0  0
  187.6090  176.1430  146.9790 C   0  0  0  0  0  3  0  0  0  0  0  0
  188.8240  176.3550  146.1130 C   0  0  2  0  0  3  0  0  0  0  0  0
  189.4470  177.5600  146.4410 O   0  0  0  0  0  1  0  0  0  0  0  0
  1  2  1  0  0  0  0
  2  5  2  0  0  0  0
  3  5  1  0  0  0  0
  4  3  2  0  0  0  0
  5 16  1  0  0  0  0
  6  4  1  0  0  0  0
  6  1  2  0  0  0  0
  8  7  1  6  0  0  0
  8 14  1  0  0  0  0
  9 11  1  0  0  0  0
 10 12  1  0  0  0  0
 11 12  2  0  0  0  0
 11 13  1  0  0  0  0
 12  8  1  0  0  0  0
 13 15  2  0  0  0  0
 14  6  1  0  0  0  0
 15 14  1  0  0  0  0
 17 16  1  1  0  0  0
 17 19  1  0  0  0  0
 17 18  1  0  0  0  0
 19 20  1  6  0  0  0
 19 18  1  0  0  0  0
 22 23  1  0  0  0  0
 23 20  1  0  0  0  0
 23 21  2  0  0  0  0
 24 22  1  0  0  0  0
 25 27  1  6  0  0  0
 25 24  1  0  0  0  0
 25 26  1  0  0  0  0
 25 30  1  0  0  0  0
 28 30  1  0  0  0  0
 30 31  1  0  0  0  0
 30 29  1  1  0  0  0
 31 32  1  0  0  0  0
 33  1  1  0  0  0  0
 33 40  1  0  0  0  0
 34 39  1  0  0  0  0
 36 35  1  0  0  0  0
 37 38  1  0  0  0  0
 38 35  2  0  0  0  0
 39 37  2  0  0  0  0
 39 40  1  0  0  0  0
 40 36  2  0  0  0  0
 41 46  2  0  0  0  0
 42 44  1  0  0  0  0
 42 41  1  0  0  0  0
 43 47  2  0  0  0  0
 44 38  1  1  0  0  0
 44 48  1  0  0  0  0
 46 45  1  0  0  0  0
 46 43  1  0  0  0  0
 48 49  1  6  0  0  0
 48 47  1  0  0  0  0
M  END
>  <MODEL>
1

>  <REMARK>
 VINA RESULT:      -7.1      0.000      0.000
  Name = 
  12 active torsions:
  status: ('A' for Active; 'I' for Inactive)
    1  A    between atoms: C_2  and  C_8
    2  A    between atoms: N_3  and  C_38
    3  A    between atoms: C_8  and  C_41
    4  A    between atoms: C_9  and  C_38
    5  A    between atoms: C_9  and  C_49
    6  A    between atoms: C_15  and  N_27
    7  A    between atoms: C_18  and  C_33
    8  A    between atoms: N_27  and  C_40
    9  A    between atoms: C_28  and  C_49
   10  A    between atoms: C_36  and  C_47
   11  A    between atoms: C_39  and  C_47
   12  A    between atoms: C_43  and  N_44
                            x       y       z     vdW  Elec       q    Type
                         _______ _______ _______ _____ _____    ______ ____

>  <TORSDO>
F 12

$$$$
=
 OpenBabel11042417143D

 49 53  0  0  1  0  0  0  0  0999 V2000
  191.7250  171.0540  141.9640 C   0  0  0  0  0  0  0  0  0  0  0  0
  192.1830  170.4190  143.1290 C   0  0  0  0  0  3  0  0  0  0  0  0
  194.4290  170.3480  142.2400 C   0  0  0  0  0  3  0  0  0  0  0  0
  193.9860  170.9820  141.0780 C   0  0  0  0  0  3  0  0  0  0  0  0
  193.5260  170.0670  143.2680 C   0  0  0  0  0  0  0  0  0  0  0  0
  192.6380  171.3440  140.9240 C   0  0  0  0  0  0  0  0  0  0  0  0
  192.3200  170.2960  137.9470 C   0  0  0  0  0  1  0  0  0  0  0  0
  191.4250  171.2580  138.7090 C   0  0  2  0  0  3  0  0  0  0  0  0
  190.5330  174.3500  136.5640 C   0  0  0  0  0  1  0  0  0  0  0  0
  189.5950  171.6270  136.9410 C   0  0  0  0  0  1  0  0  0  0  0  0
  191.1550  173.4460  137.5800 C   0  0  0  0  0  0  0  0  0  0  0  0
  190.7250  172.1810  137.7480 C   0  0  0  0  0  0  0  0  0  0  0  0
  192.2110  173.9710  138.3970 N   0  0  0  0  0  0  0  0  0  0  0  0
  192.2120  171.9900  139.7080 N   0  0  0  0  0  0  0  0  0  0  0  0
  192.7040  173.3060  139.3950 C   0  0  0  0  0  3  0  0  0  0  0  0
  193.9990  169.4220  144.5250 C   0  0  0  0  0  2  0  0  0  0  0  0
  195.3620  169.9520  144.9290 C   0  0  2  0  0  3  0  0  0  0  0  0
  195.5660  169.7390  146.3700 N   0  0  0  0  0  2  0  0  0  0  0  0
  195.1700  171.0600  145.8570 C   0  0  1  0  0  3  0  0  0  0  0  0
  196.3780  171.9810  145.8270 C   0  0  0  0  0  2  0  0  0  0  0  0
  196.3010  174.3600  146.0250 O   0  0  0  0  0  0  0  0  0  0  0  0
  195.2510  173.4790  144.1400 N   0  0  0  0  0  2  0  0  0  0  0  0
  195.9800  173.3420  145.3580 C   0  0  0  0  0  0  0  0  0  0  0  0
  194.8000  174.7720  143.6410 C   0  0  0  0  0  2  0  0  0  0  0  0
  193.2830  174.9510  143.7800 C   0  0  2  0  0  0  0  0  0  0  0  0
  192.6770  173.7110  143.8960 F   0  0  0  0  0  0  0  0  0  0  0  0
  192.8000  175.5820  142.4800 C   0  0  0  0  0  1  0  0  0  0  0  0
  191.7710  176.5700  144.7280 O   0  0  0  0  0  1  0  0  0  0  0  0
  192.6180  174.9570  146.2380 C   0  0  0  0  0  1  0  0  0  0  0  0
  192.9180  175.8210  145.0160 C   0  0  1  0  0  0  0  0  0  0  0  0
  194.0290  176.8200  145.3600 C   0  0  0  0  0  2  0  0  0  0  0  0
  194.1840  176.9700  146.7410 O   0  0  0  0  0  1  0  0  0  0  0  0
  190.3620  171.4930  141.8810 N   0  0  0  0  0  2  0  0  0  0  0  0
  189.7980  172.1130  144.7160 C   0  0  0  0  0  1  0  0  0  0  0  0
  189.2030  175.0220  141.6160 C   0  0  0  0  0  3  0  0  0  0  0  0
  189.6690  173.7480  141.2780 C   0  0  0  0  0  3  0  0  0  0  0  0
  189.1570  174.3840  143.9500 C   0  0  0  0  0  3  0  0  0  0  0  0
  188.9430  175.3430  142.9550 C   0  0  0  0  0  0  0  0  0  0  0  0
  189.6360  173.1130  143.6210 C   0  0  0  0  0  0  0  0  0  0  0  0
  189.9040  172.7930  142.2710 C   0  0  0  0  0  0  0  0  0  0  0  0
  186.8770  178.5540  142.6950 C   0  0  0  0  0  3  0  0  0  0  0  0
  187.4360  177.2210  142.3120 C   0  0  0  0  0  2  0  0  0  0  0  0
  185.6710  177.5950  144.5600 N   0  0  0  0  0  0  0  0  0  0  0  0
  188.4400  176.6950  143.3460 C   0  0  1  0  0  3  0  0  0  0  0  0
  185.4590  179.9770  143.9620 N   0  0  0  0  0  1  0  0  0  0  0  0
  186.0570  178.7060  143.7380 C   0  0  0  0  0  0  0  0  0  0  0  0
  186.4800  176.6780  145.0100 C   0  0  0  0  0  3  0  0  0  0  0  0
  187.9730  176.7210  144.8110 C   0  0  2  0  0  3  0  0  0  0  0  0
  188.5160  177.8300  145.4630 O   0  0  0  0  0  1  0  0  0  0  0  0
  1  2  1  0  0  0  0
  2  5  2  0  0  0  0
  3  5  1  0  0  0  0
  4  3  2  0  0  0  0
  5 16  1  0  0  0  0
  6  4  1  0  0  0  0
  6  1  2  0  0  0  0
  8  7  1  6  0  0  0
  8 14  1  0  0  0  0
  9 11  1  0  0  0  0
 10 12  1  0  0  0  0
 11 12  2  0  0  0  0
 11 13  1  0  0  0  0
 12  8  1  0  0  0  0
 13 15  2  0  0  0  0
 14  6  1  0  0  0  0
 15 14  1  0  0  0  0
 17 16  1  1  0  0  0
 17 19  1  0  0  0  0
 17 18  1  0  0  0  0
 19 20  1  6  0  0  0
 19 18  1  0  0  0  0
 22 23  1  0  0  0  0
 23 20  1  0  0  0  0
 23 21  2  0  0  0  0
 24 25  1  0  0  0  0
 24 22  1  0  0  0  0
 25 27  1  6  0  0  0
 25 26  1  0  0  0  0
 25 30  1  0  0  0  0
 28 30  1  0  0  0  0
 30 31  1  0  0  0  0
 30 29  1  1  0  0  0
 31 32  1  0  0  0  0
 33  1  1  0  0  0  0
 33 40  1  0  0  0  0
 35 38  1  0  0  0  0
 36 35  2  0  0  0  0
 36 40  1  0  0  0  0
 38 37  2  0  0  0  0
 39 37  1  0  0  0  0
 39 34  1  0  0  0  0
 40 39  2  0  0  0  0
 41 46  2  0  0  0  0
 42 41  1  0  0  0  0
 42 44  1  0  0  0  0
 43 47  2  0  0  0  0
 44 38  1  6  0  0  0
 44 48  1  0  0  0  0
 46 45  1  0  0  0  0
 46 43  1  0  0  0  0
 48 47  1  0  0  0  0
 48 49  1  6  0  0  0
M  END
>  <MODEL>
2

>  <REMARK>
 VINA RESULT:      -7.1      1.021      1.436
  Name = 
  12 active torsions:
  status: ('A' for Active; 'I' for Inactive)
    1  A    between atoms: C_2  and  C_8
    2  A    between atoms: N_3  and  C_38
    3  A    between atoms: C_8  and  C_41
    4  A    between atoms: C_9  and  C_38
    5  A    between atoms: C_9  and  C_49
    6  A    between atoms: C_15  and  N_27
    7  A    between atoms: C_18  and  C_33
    8  A    between atoms: N_27  and  C_40
    9  A    between atoms: C_28  and  C_49
   10  A    between atoms: C_36  and  C_47
   11  A    between atoms: C_39  and  C_47
   12  A    between atoms: C_43  and  N_44
                            x       y       z     vdW  Elec       q    Type
                         _______ _______ _______ _____ _____    ______ ____

>  <TORSDO>
F 12

$$$$
=
 OpenBabel11042417143D

 49 53  0  0  1  0  0  0  0  0999 V2000
  192.7310  171.8800  141.5660 C   0  0  0  0  0  0  0  0  0  0  0  0
  193.4840  172.1020  142.7300 C   0  0  0  0  0  3  0  0  0  0  0  0
  195.4450  172.5820  141.4030 C   0  0  0  0  0  3  0  0  0  0  0  0
  194.7070  172.3670  140.2380 C   0  0  0  0  0  3  0  0  0  0  0  0
  194.8330  172.4510  142.6510 C   0  0  0  0  0  0  0  0  0  0  0  0
  193.3480  172.0170  140.3010 C   0  0  0  0  0  0  0  0  0  0  0  0
  193.2180  169.5520  138.3090 C   0  0  0  0  0  1  0  0  0  0  0  0
  192.0890  170.4630  138.7570 C   0  0  2  0  0  3  0  0  0  0  0  0
  189.9300  171.6080  135.7590 C   0  0  0  0  0  1  0  0  0  0  0  0
  190.1230  169.3290  137.5490 C   0  0  0  0  0  1  0  0  0  0  0  0
  190.9250  171.5770  136.8750 C   0  0  0  0  0  0  0  0  0  0  0  0
  191.0200  170.5160  137.6990 C   0  0  0  0  0  0  0  0  0  0  0  0
  191.7650  172.7240  137.0670 N   0  0  0  0  0  0  0  0  0  0  0  0
  192.6160  171.7940  139.0790 N   0  0  0  0  0  0  0  0  0  0  0  0
  192.5490  172.8390  138.0930 C   0  0  0  0  0  3  0  0  0  0  0  0
  195.6070  172.7130  143.8960 C   0  0  0  0  0  2  0  0  0  0  0  0
  195.6560  174.1980  144.2040 C   0  0  2  0  0  3  0  0  0  0  0  0
  196.7760  174.4760  145.1170 N   0  0  0  0  0  2  0  0  0  0  0  0
  195.3980  174.3830  145.6270 C   0  0  1  0  0  3  0  0  0  0  0  0
  194.8510  175.7790  145.8810 C   0  0  0  0  0  2  0  0  0  0  0  0
  193.1560  176.5090  144.3650 O   0  0  0  0  0  0  0  0  0  0  0  0
  192.4070  175.2210  146.1580 N   0  0  0  0  0  2  0  0  0  0  0  0
  193.4350  175.8730  145.4150 C   0  0  0  0  0  0  0  0  0  0  0  0
  191.0020  175.3000  145.7810 C   0  0  0  0  0  2  0  0  0  0  0  0
  190.1090  175.7160  146.9560 C   0  0  2  0  0  0  0  0  0  0  0  0
  190.8890  175.9310  148.0810 F   0  0  0  0  0  0  0  0  0  0  0  0
  189.1950  174.5320  147.2480 C   0  0  0  0  0  1  0  0  0  0  0  0
  189.6560  178.0090  147.5430 O   0  0  0  0  0  1  0  0  0  0  0  0
  189.6020  177.5170  145.2290 C   0  0  0  0  0  1  0  0  0  0  0  0
  189.3000  177.0050  146.6360 C   0  0  1  0  0  0  0  0  0  0  0  0
  187.7900  176.7840  146.7830 C   0  0  0  0  0  2  0  0  0  0  0  0
  187.0760  177.9800  146.6710 O   0  0  0  0  0  1  0  0  0  0  0  0
  191.3250  171.6170  141.6670 N   0  0  0  0  0  2  0  0  0  0  0  0
  190.0210  172.2570  144.2410 C   0  0  0  0  0  1  0  0  0  0  0  0
  188.9140  174.2470  140.6030 C   0  0  0  0  0  3  0  0  0  0  0  0
  189.9110  173.2690  140.5710 C   0  0  0  0  0  3  0  0  0  0  0  0
  188.6780  173.9270  142.9900 C   0  0  0  0  0  3  0  0  0  0  0  0
  188.2930  174.5780  141.8140 C   0  0  0  0  0  0  0  0  0  0  0  0
  189.6840  172.9560  142.9680 C   0  0  0  0  0  0  0  0  0  0  0  0
  190.3140  172.6290  141.7460 C   0  0  0  0  0  0  0  0  0  0  0  0
  185.7880  176.9730  143.4410 C   0  0  0  0  0  3  0  0  0  0  0  0
  186.8290  175.9040  143.3350 C   0  0  0  0  0  2  0  0  0  0  0  0
  187.3460  178.6640  142.6880 N   0  0  0  0  0  0  0  0  0  0  0  0
  187.2210  175.6180  141.8790 C   0  0  1  0  0  3  0  0  0  0  0  0
  185.0530  179.2300  143.3910 N   0  0  0  0  0  1  0  0  0  0  0  0
  186.0490  178.2480  143.1400 C   0  0  0  0  0  0  0  0  0  0  0  0
  188.0640  178.0450  141.7930 C   0  0  0  0  0  3  0  0  0  0  0  0
  187.5730  176.8460  141.0240 C   0  0  2  0  0  3  0  0  0  0  0  0
  186.4840  177.1970  140.2250 O   0  0  0  0  0  1  0  0  0  0  0  0
  1 33  1  0  0  0  0
  1  2  1  0  0  0  0
  3  5  1  0  0  0  0
  4  6  1  0  0  0  0
  4  3  2  0  0  0  0
  5  2  2  0  0  0  0
  5 16  1  0  0  0  0
  6  1  2  0  0  0  0
  8  7  1  6  0  0  0
  8 14  1  0  0  0  0
  9 11  1  0  0  0  0
 10 12  1  0  0  0  0
 11 13  1  0  0  0  0
 11 12  2  0  0  0  0
 12  8  1  0  0  0  0
 13 15  2  0  0  0  0
 14  6  1  0  0  0  0
 15 14  1  0  0  0  0
 17 16  1  1  0  0  0
 17 18  1  0  0  0  0
 17 19  1  0  0  0  0
 18 19  1  0  0  0  0
 19 20  1  6  0  0  0
 21 23  2  0  0  0  0
 23 20  1  0  0  0  0
 23 22  1  0  0  0  0
 24 22  1  0  0  0  0
 24 25  1  0  0  0  0
 25 27  1  1  0  0  0
 25 26  1  0  0  0  0
 30 29  1  6  0  0  0
 30 31  1  0  0  0  0
 30 25  1  0  0  0  0
 30 28  1  0  0  0  0
 32 31  1  0  0  0  0
 33 40  1  0  0  0  0
 35 38  1  0  0  0  0
 36 35  2  0  0  0  0
 36 40  1  0  0  0  0
 38 37  2  0  0  0  0
 39 37  1  0  0  0  0
 39 34  1  0  0  0  0
 40 39  2  0  0  0  0
 42 41  1  0  0  0  0
 43 46  1  0  0  0  0
 44 38  1  1  0  0  0
 44 42  1  0  0  0  0
 46 45  1  0  0  0  0
 46 41  2  0  0  0  0
 47 43  2  0  0  0  0
 48 49  1  1  0  0  0
 48 47  1  0  0  0  0
 48 44  1  0  0  0  0
M  END
>  <MODEL>
3

>  <REMARK>
 VINA RESULT:      -7.1      2.265      3.758
  Name = 
  12 active torsions:
  status: ('A' for Active; 'I' for Inactive)
    1  A    between atoms: C_2  and  C_8
    2  A    between atoms: N_3  and  C_38
    3  A    between atoms: C_8  and  C_41
    4  A    between atoms: C_9  and  C_38
    5  A    between atoms: C_9  and  C_49
    6  A    between atoms: C_15  and  N_27
    7  A    between atoms: C_18  and  C_33
    8  A    between atoms: N_27  and  C_40
    9  A    between atoms: C_28  and  C_49
   10  A    between atoms: C_36  and  C_47
   11  A    between atoms: C_39  and  C_47
   12  A    between atoms: C_43  and  N_44
                            x       y       z     vdW  Elec       q    Type
                         _______ _______ _______ _____ _____    ______ ____

>  <TORSDO>
F 12

$$$$
=
 OpenBabel11042417143D

 49 53  0  0  1  0  0  0  0  0999 V2000
  191.5250  170.9590  142.4070 C   0  0  0  0  0  0  0  0  0  0  0  0
  192.2100  170.7500  143.6140 C   0  0  0  0  0  3  0  0  0  0  0  0
  194.2600  170.3260  142.4100 C   0  0  0  0  0  3  0  0  0  0  0  0
  193.5910  170.5350  141.2020 C   0  0  0  0  0  3  0  0  0  0  0  0
  193.5690  170.4350  143.6180 C   0  0  0  0  0  0  0  0  0  0  0  0
  192.2240  170.8530  141.1820 C   0  0  0  0  0  0  0  0  0  0  0  0
  191.4700  173.4710  139.5560 C   0  0  0  0  0  1  0  0  0  0  0  0
  191.9720  172.1410  139.0220 C   0  0  2  0  0  3  0  0  0  0  0  0
  189.8840  170.9640  135.9870 C   0  0  0  0  0  1  0  0  0  0  0  0
  192.1350  172.7200  136.5230 C   0  0  0  0  0  1  0  0  0  0  0  0
  190.4440  171.1120  137.3660 C   0  0  0  0  0  0  0  0  0  0  0  0
  191.4830  171.9330  137.6150 C   0  0  0  0  0  0  0  0  0  0  0  0
  189.8640  170.3330  138.4210 N   0  0  0  0  0  0  0  0  0  0  0  0
  191.5610  171.0540  139.9180 N   0  0  0  0  0  0  0  0  0  0  0  0
  190.3800  170.2910  139.6090 C   0  0  0  0  0  3  0  0  0  0  0  0
  194.2860  170.2480  144.9100 C   0  0  0  0  0  2  0  0  0  0  0  0
  195.7440  170.6490  144.7870 C   0  0  2  0  0  3  0  0  0  0  0  0
  196.4990  170.1210  145.9340 N   0  0  0  0  0  2  0  0  0  0  0  0
  196.0760  171.5300  145.9010 C   0  0  1  0  0  3  0  0  0  0  0  0
  197.2590  172.4110  145.5340 C   0  0  0  0  0  2  0  0  0  0  0  0
  197.3530  174.4650  144.3180 O   0  0  0  0  0  0  0  0  0  0  0  0
  195.7070  174.3530  145.9640 N   0  0  0  0  0  2  0  0  0  0  0  0
  196.7960  173.7980  145.2290 C   0  0  0  0  0  0  0  0  0  0  0  0
  195.2270  175.7110  145.7430 C   0  0  0  0  0  2  0  0  0  0  0  0
  193.7660  175.7410  145.2770 C   0  0  2  0  0  0  0  0  0  0  0  0
  193.1590  176.9030  145.7240 F   0  0  0  0  0  0  0  0  0  0  0  0
  193.0700  174.5670  145.9540 C   0  0  0  0  0  1  0  0  0  0  0  0
  194.8010  176.2270  143.1570 O   0  0  0  0  0  1  0  0  0  0  0  0
  193.5550  174.2180  143.2480 C   0  0  0  0  0  1  0  0  0  0  0  0
  193.6550  175.6630  143.7290 C   0  0  1  0  0  0  0  0  0  0  0  0
  192.4550  176.4580  143.2010 C   0  0  0  0  0  2  0  0  0  0  0  0
  191.7280  175.7340  142.2520 O   0  0  0  0  0  1  0  0  0  0  0  0
  190.1520  171.3740  142.4300 N   0  0  0  0  0  2  0  0  0  0  0  0
  188.3120  173.1070  140.8980 C   0  0  0  0  0  1  0  0  0  0  0  0
  189.7610  174.2390  144.7760 C   0  0  0  0  0  3  0  0  0  0  0  0
  190.1730  173.0250  144.2200 C   0  0  0  0  0  3  0  0  0  0  0  0
  188.4070  174.6750  142.8190 C   0  0  0  0  0  3  0  0  0  0  0  0
  188.8770  175.0700  144.0750 C   0  0  0  0  0  0  0  0  0  0  0  0
  188.8030  173.4560  142.2620 C   0  0  0  0  0  0  0  0  0  0  0  0
  189.6900  172.6160  142.9730 C   0  0  0  0  0  0  0  0  0  0  0  0
  186.4880  177.9780  144.7720 C   0  0  0  0  0  3  0  0  0  0  0  0
  186.9940  176.6980  144.1860 C   0  0  0  0  0  2  0  0  0  0  0  0
  186.4190  177.0200  146.9920 N   0  0  0  0  0  0  0  0  0  0  0  0
  188.4230  176.3760  144.6420 C   0  0  1  0  0  3  0  0  0  0  0  0
  185.6210  179.3070  146.5380 N   0  0  0  0  0  1  0  0  0  0  0  0
  186.2240  178.1060  146.0740 C   0  0  0  0  0  0  0  0  0  0  0  0
  187.4660  176.2430  147.0240 C   0  0  0  0  0  3  0  0  0  0  0  0
  188.6790  176.4530  146.1560 C   0  0  2  0  0  3  0  0  0  0  0  0
  189.2960  177.6640  146.4730 O   0  0  0  0  0  1  0  0  0  0  0  0
  1 33  1  0  0  0  0
  1  2  1  0  0  0  0
  2  5  2  0  0  0  0
  3  5  1  0  0  0  0
  4  3  2  0  0  0  0
  5 16  1  0  0  0  0
  6  4  1  0  0  0  0
  6  1  2  0  0  0  0
  8  7  1  1  0  0  0
  8 14  1  0  0  0  0
  9 11  1  0  0  0  0
 10 12  1  0  0  0  0
 11 12  2  0  0  0  0
 11 13  1  0  0  0  0
 12  8  1  0  0  0  0
 13 15  2  0  0  0  0
 14  6  1  0  0  0  0
 15 14  1  0  0  0  0
 17 16  1  1  0  0  0
 17 19  1  0  0  0  0
 17 18  1  0  0  0  0
 19 20  1  6  0  0  0
 19 18  1  0  0  0  0
 21 23  2  0  0  0  0
 23 20  1  0  0  0  0
 23 22  1  0  0  0  0
 24 22  1  0  0  0  0
 25 26  1  0  0  0  0
 25 24  1  0  0  0  0
 25 27  1  1  0  0  0
 28 30  1  0  0  0  0
 30 29  1  6  0  0  0
 30 25  1  0  0  0  0
 31 30  1  0  0  0  0
 32 31  1  0  0  0  0
 33 40  1  0  0  0  0
 34 39  1  0  0  0  0
 36 35  1  0  0  0  0
 37 38  1  0  0  0  0
 38 35  2  0  0  0  0
 39 37  2  0  0  0  0
 39 40  1  0  0  0  0
 40 36  2  0  0  0  0
 41 46  2  0  0  0  0
 42 44  1  0  0  0  0
 42 41  1  0  0  0  0
 43 47  2  0  0  0  0
 44 38  1  1  0  0  0
 44 48  1  0  0  0  0
 46 45  1  0  0  0  0
 46 43  1  0  0  0  0
 48 49  1  6  0  0  0
 48 47  1  0  0  0  0
M  END
>  <MODEL>
4

>  <REMARK>
 VINA RESULT:      -6.9      1.305      1.901
  Name = 
  12 active torsions:
  status: ('A' for Active; 'I' for Inactive)
    1  A    between atoms: C_2  and  C_8
    2  A    between atoms: N_3  and  C_38
    3  A    between atoms: C_8  and  C_41
    4  A    between atoms: C_9  and  C_38
    5  A    between atoms: C_9  and  C_49
    6  A    between atoms: C_15  and  N_27
    7  A    between atoms: C_18  and  C_33
    8  A    between atoms: N_27  and  C_40
    9  A    between atoms: C_28  and  C_49
   10  A    between atoms: C_36  and  C_47
   11  A    between atoms: C_39  and  C_47
   12  A    between atoms: C_43  and  N_44
                            x       y       z     vdW  Elec       q    Type
                         _______ _______ _______ _____ _____    ______ ____

>  <TORSDO>
F 12

$$$$
=
 OpenBabel11042417143D

 49 53  0  0  1  0  0  0  0  0999 V2000
  191.6210  173.5570  141.7420 C   0  0  0  0  0  0  0  0  0  0  0  0
  191.7380  172.8700  140.5240 C   0  0  0  0  0  3  0  0  0  0  0  0
  192.2130  170.8130  141.6990 C   0  0  0  0  0  3  0  0  0  0  0  0
  192.0960  171.4850  142.9170 C   0  0  0  0  0  3  0  0  0  0  0  0
  192.0330  171.5060  140.5000 C   0  0  0  0  0  0  0  0  0  0  0  0
  191.7990  172.8570  142.9570 C   0  0  0  0  0  0  0  0  0  0  0  0
  193.7930  173.1000  145.4120 C   0  0  0  0  0  1  0  0  0  0  0  0
  192.8660  174.1590  144.8410 C   0  0  2  0  0  3  0  0  0  0  0  0
  190.9170  175.9800  147.6420 C   0  0  0  0  0  1  0  0  0  0  0  0
  193.5110  176.1430  146.3440 C   0  0  0  0  0  1  0  0  0  0  0  0
  191.2790  175.0720  146.5100 C   0  0  0  0  0  0  0  0  0  0  0  0
  192.4860  175.1420  145.9150 C   0  0  0  0  0  0  0  0  0  0  0  0
  190.2950  174.1350  146.0510 N   0  0  0  0  0  0  0  0  0  0  0  0
  191.6930  173.5220  144.2320 N   0  0  0  0  0  0  0  0  0  0  0  0
  190.4730  173.4160  144.9880 C   0  0  0  0  0  3  0  0  0  0  0  0
  192.1220  170.7870  139.1990 C   0  0  0  0  0  2  0  0  0  0  0  0
  192.2420  171.7640  138.0440 C   0  0  2  0  0  3  0  0  0  0  0  0
  192.7540  171.0640  136.8570 N   0  0  0  0  0  2  0  0  0  0  0  0
  193.6500  171.8860  137.6860 C   0  0  1  0  0  3  0  0  0  0  0  0
  193.9020  173.2190  137.0020 C   0  0  0  0  0  2  0  0  0  0  0  0
  196.0600  174.2320  136.8600 O   0  0  0  0  0  0  0  0  0  0  0  0
  195.1340  174.1480  138.9970 N   0  0  0  0  0  2  0  0  0  0  0  0
  195.0980  173.8880  137.5950 C   0  0  0  0  0  0  0  0  0  0  0  0
  196.2820  174.7650  139.6480 C   0  0  0  0  0  2  0  0  0  0  0  0
  196.2800  174.5400  141.1650 C   0  0  2  0  0  0  0  0  0  0  0  0
  197.5240  174.0860  141.5700 F   0  0  0  0  0  0  0  0  0  0  0  0
  195.2720  173.4310  141.4380 C   0  0  0  0  0  1  0  0  0  0  0  0
  196.3400  176.9490  141.1850 O   0  0  0  0  0  1  0  0  0  0  0  0
  194.4260  175.9670  142.1690 C   0  0  0  0  0  1  0  0  0  0  0  0
  195.9290  175.8430  141.9380 C   0  0  1  0  0  0  0  0  0  0  0  0
  196.6590  175.9230  143.2840 C   0  0  0  0  0  2  0  0  0  0  0  0
  196.4700  177.1600  143.9050 O   0  0  0  0  0  1  0  0  0  0  0  0
  191.2250  174.9360  141.7470 N   0  0  0  0  0  2  0  0  0  0  0  0
  191.1200  177.3230  143.4860 C   0  0  0  0  0  1  0  0  0  0  0  0
  187.5760  175.1310  142.4630 C   0  0  0  0  0  3  0  0  0  0  0  0
  188.8110  174.7030  141.9680 C   0  0  0  0  0  3  0  0  0  0  0  0
  188.6660  176.9760  143.5860 C   0  0  0  0  0  3  0  0  0  0  0  0
  187.5000  176.2690  143.2760 C   0  0  0  0  0  0  0  0  0  0  0  0
  189.9030  176.5630  143.0830 C   0  0  0  0  0  0  0  0  0  0  0  0
  189.9760  175.4180  142.2570 C   0  0  0  0  0  0  0  0  0  0  0  0
  184.9550  177.3080  145.9390 C   0  0  0  0  0  3  0  0  0  0  0  0
  186.2320  176.7910  145.3570 C   0  0  0  0  0  2  0  0  0  0  0  0
  185.3730  179.5270  145.0690 N   0  0  0  0  0  0  0  0  0  0  0  0
  186.1940  176.7470  143.8240 C   0  0  1  0  0  3  0  0  0  0  0  0
  183.4200  179.0340  146.4900 N   0  0  0  0  0  1  0  0  0  0  0  0
  184.5760  178.5810  145.7980 C   0  0  0  0  0  0  0  0  0  0  0  0
  185.9320  179.3030  143.9130 C   0  0  0  0  0  3  0  0  0  0  0  0
  185.7270  178.0350  143.1260 C   0  0  2  0  0  3  0  0  0  0  0  0
  184.3890  177.9120  142.7470 O   0  0  0  0  0  1  0  0  0  0  0  0
  1 33  1  0  0  0  0
  1  6  1  0  0  0  0
  2  1  2  0  0  0  0
  3  4  1  0  0  0  0
  4  6  2  0  0  0  0
  5  2  1  0  0  0  0
  5  3  2  0  0  0  0
  6 14  1  0  0  0  0
  8  7  1  1  0  0  0
  8 12  1  0  0  0  0
 11  9  1  0  0  0  0
 12 10  1  0  0  0  0
 12 11  2  0  0  0  0
 13 11  1  0  0  0  0
 14  8  1  0  0  0  0
 14 15  1  0  0  0  0
 15 13  2  0  0  0  0
 16  5  1  0  0  0  0
 17 16  1  1  0  0  0
 18 19  1  0  0  0  0
 18 17  1  0  0  0  0
 19 20  1  6  0  0  0
 19 17  1  0  0  0  0
 20 23  1  0  0  0  0
 21 23  2  0  0  0  0
 22 24  1  0  0  0  0
 23 22  1  0  0  0  0
 24 25  1  0  0  0  0
 25 27  1  1  0  0  0
 25 26  1  0  0  0  0
 25 30  1  0  0  0  0
 28 30  1  0  0  0  0
 30 29  1  1  0  0  0
 30 31  1  0  0  0  0
 31 32  1  0  0  0  0
 33 40  1  0  0  0  0
 35 38  1  0  0  0  0
 36 40  1  0  0  0  0
 36 35  2  0  0  0  0
 38 37  2  0  0  0  0
 39 34  1  0  0  0  0
 39 37  1  0  0  0  0
 40 39  2  0  0  0  0
 42 41  1  0  0  0  0
 43 46  1  0  0  0  0
 44 38  1  6  0  0  0
 44 42  1  0  0  0  0
 46 41  2  0  0  0  0
 46 45  1  0  0  0  0
 47 43  2  0  0  0  0
 48 49  1  1  0  0  0
 48 44  1  0  0  0  0
 48 47  1  0  0  0  0
M  END
>  <MODEL>
5

>  <REMARK>
 VINA RESULT:      -6.6      2.917      5.774
  Name = 
  12 active torsions:
  status: ('A' for Active; 'I' for Inactive)
    1  A    between atoms: C_2  and  C_8
    2  A    between atoms: N_3  and  C_38
    3  A    between atoms: C_8  and  C_41
    4  A    between atoms: C_9  and  C_38
    5  A    between atoms: C_9  and  C_49
    6  A    between atoms: C_15  and  N_27
    7  A    between atoms: C_18  and  C_33
    8  A    between atoms: N_27  and  C_40
    9  A    between atoms: C_28  and  C_49
   10  A    between atoms: C_36  and  C_47
   11  A    between atoms: C_39  and  C_47
   12  A    between atoms: C_43  and  N_44
                            x       y       z     vdW  Elec       q    Type
                         _______ _______ _______ _____ _____    ______ ____

>  <TORSDO>
F 12

$$$$
=
 OpenBabel11042417143D

 49 53  0  0  1  0  0  0  0  0999 V2000
  190.3440  174.5200  141.5230 C   0  0  0  0  0  0  0  0  0  0  0  0
  189.6690  175.7350  141.7150 C   0  0  0  0  0  3  0  0  0  0  0  0
  187.5500  174.5780  141.7970 C   0  0  0  0  0  3  0  0  0  0  0  0
  188.2100  173.3610  141.6100 C   0  0  0  0  0  3  0  0  0  0  0  0
  188.2800  175.7660  141.8510 C   0  0  0  0  0  0  0  0  0  0  0  0
  189.6060  173.3140  141.4720 C   0  0  0  0  0  0  0  0  0  0  0  0
  189.6490  171.3010  139.0210 C   0  0  0  0  0  1  0  0  0  0  0  0
  190.7880  171.6760  139.9540 C   0  0  2  0  0  3  0  0  0  0  0  0
  192.7080  168.5430  141.1610 C   0  0  0  0  0  1  0  0  0  0  0  0
  192.6880  170.3260  138.8680 C   0  0  0  0  0  1  0  0  0  0  0  0
  191.7940  169.7250  141.1030 C   0  0  0  0  0  0  0  0  0  0  0  0
  191.7790  170.5470  140.0350 C   0  0  0  0  0  0  0  0  0  0  0  0
  190.9450  169.9830  142.2300 N   0  0  0  0  0  0  0  0  0  0  0  0
  190.2560  172.0430  141.2710 N   0  0  0  0  0  0  0  0  0  0  0  0
  190.2330  171.0610  142.3230 C   0  0  0  0  0  3  0  0  0  0  0  0
  187.5850  177.0620  142.0860 C   0  0  0  0  0  2  0  0  0  0  0  0
  186.2360  176.8450  142.7440 C   0  0  2  0  0  3  0  0  0  0  0  0
  185.2000  177.5760  141.9980 N   0  0  0  0  0  2  0  0  0  0  0  0
  185.7540  178.1270  143.2440 C   0  0  1  0  0  3  0  0  0  0  0  0
  184.7720  177.9080  144.3830 C   0  0  0  0  0  2  0  0  0  0  0  0
  185.0020  178.2750  146.7320 O   0  0  0  0  0  0  0  0  0  0  0  0
  186.7570  177.1190  145.7240 N   0  0  0  0  0  2  0  0  0  0  0  0
  185.5010  177.7940  145.6810 C   0  0  0  0  0  0  0  0  0  0  0  0
  187.5380  177.0000  146.9480 C   0  0  0  0  0  2  0  0  0  0  0  0
  189.0450  176.9370  146.6700 C   0  0  2  0  0  0  0  0  0  0  0  0
  189.7260  177.6670  147.6310 F   0  0  0  0  0  0  0  0  0  0  0  0
  189.2690  177.6210  145.3270 C   0  0  0  0  0  1  0  0  0  0  0  0
  188.8770  174.7360  147.6340 O   0  0  0  0  0  1  0  0  0  0  0  0
  189.3390  174.8020  145.3150 C   0  0  0  0  0  1  0  0  0  0  0  0
  189.5680  175.4730  146.6670 C   0  0  1  0  0  0  0  0  0  0  0  0
  191.0570  175.3970  147.0260 C   0  0  0  0  0  2  0  0  0  0  0  0
  191.2540  175.2860  148.4040 O   0  0  0  0  0  1  0  0  0  0  0  0
  191.7770  174.4990  141.4810 N   0  0  0  0  0  2  0  0  0  0  0  0
  194.2660  173.1160  140.6880 C   0  0  0  0  0  1  0  0  0  0  0  0
  192.9630  173.2330  144.7760 C   0  0  0  0  0  3  0  0  0  0  0  0
  192.1900  173.8580  143.7940 C   0  0  0  0  0  3  0  0  0  0  0  0
  194.5670  172.5710  143.0900 C   0  0  0  0  0  3  0  0  0  0  0  0
  194.1540  172.5850  144.4250 C   0  0  0  0  0  0  0  0  0  0  0  0
  193.8060  173.2050  142.1040 C   0  0  0  0  0  0  0  0  0  0  0  0
  192.6080  173.8650  142.4600 C   0  0  0  0  0  0  0  0  0  0  0  0
  195.5250  169.6850  146.5140 C   0  0  0  0  0  3  0  0  0  0  0  0
  194.6660  170.4080  145.5270 C   0  0  0  0  0  2  0  0  0  0  0  0
  197.4920  169.9960  145.1400 N   0  0  0  0  0  0  0  0  0  0  0  0
  194.9990  171.9040  145.4530 C   0  0  1  0  0  3  0  0  0  0  0  0
  197.5590  168.6900  147.2300 N   0  0  0  0  0  1  0  0  0  0  0  0
  196.8320  169.5000  146.3150 C   0  0  0  0  0  0  0  0  0  0  0  0
  197.3270  171.1840  144.6320 C   0  0  0  0  0  3  0  0  0  0  0  0
  196.4870  172.2530  145.2820 C   0  0  2  0  0  3  0  0  0  0  0  0
  197.0350  172.6170  146.5130 O   0  0  0  0  0  1  0  0  0  0  0  0
  1  2  1  0  0  0  0
  2  5  2  0  0  0  0
  3  5  1  0  0  0  0
  4  3  2  0  0  0  0
  5 16  1  0  0  0  0
  6  1  2  0  0  0  0
  6  4  1  0  0  0  0
  8  7  1  6  0  0  0
  8 12  1  0  0  0  0
  8 14  1  0  0  0  0
 10 12  1  0  0  0  0
 11  9  1  0  0  0  0
 11 13  1  0  0  0  0
 12 11  2  0  0  0  0
 13 15  2  0  0  0  0
 14  6  1  0  0  0  0
 14 15  1  0  0  0  0
 17 16  1  6  0  0  0
 17 19  1  0  0  0  0
 18 17  1  0  0  0  0
 18 19  1  0  0  0  0
 19 20  1  1  0  0  0
 20 23  1  0  0  0  0
 22 24  1  0  0  0  0
 23 22  1  0  0  0  0
 23 21  2  0  0  0  0
 25 27  1  6  0  0  0
 25 24  1  0  0  0  0
 25 26  1  0  0  0  0
 30 29  1  6  0  0  0
 30 25  1  0  0  0  0
 30 31  1  0  0  0  0
 30 28  1  0  0  0  0
 31 32  1  0  0  0  0
 33  1  1  0  0  0  0
 33 40  1  0  0  0  0
 34 39  1  0  0  0  0
 36 35  2  0  0  0  0
 37 38  2  0  0  0  0
 38 35  1  0  0  0  0
 39 40  2  0  0  0  0
 39 37  1  0  0  0  0
 40 36  1  0  0  0  0
 42 41  1  0  0  0  0
 43 46  1  0  0  0  0
 44 38  1  6  0  0  0
 44 42  1  0  0  0  0
 46 41  2  0  0  0  0
 46 45  1  0  0  0  0
 47 43  2  0  0  0  0
 47 48  1  0  0  0  0
 48 44  1  0  0  0  0
 48 49  1  1  0  0  0
M  END
>  <MODEL>
6

>  <REMARK>
 VINA RESULT:      -6.6      2.228      8.105
  Name = 
  12 active torsions:
  status: ('A' for Active; 'I' for Inactive)
    1  A    between atoms: C_2  and  C_8
    2  A    between atoms: N_3  and  C_38
    3  A    between atoms: C_8  and  C_41
    4  A    between atoms: C_9  and  C_38
    5  A    between atoms: C_9  and  C_49
    6  A    between atoms: C_15  and  N_27
    7  A    between atoms: C_18  and  C_33
    8  A    between atoms: N_27  and  C_40
    9  A    between atoms: C_28  and  C_49
   10  A    between atoms: C_36  and  C_47
   11  A    between atoms: C_39  and  C_47
   12  A    between atoms: C_43  and  N_44
                            x       y       z     vdW  Elec       q    Type
                         _______ _______ _______ _____ _____    ______ ____

>  <TORSDO>
F 12

$$$$
=
 OpenBabel11042417143D

 49 53  0  0  1  0  0  0  0  0999 V2000
  191.9280  172.6780  141.4770 C   0  0  0  0  0  0  0  0  0  0  0  0
  192.2150  172.2060  142.7670 C   0  0  0  0  0  3  0  0  0  0  0  0
  192.6980  170.0090  141.8870 C   0  0  0  0  0  3  0  0  0  0  0  0
  192.4190  170.4660  140.5980 C   0  0  0  0  0  3  0  0  0  0  0  0
  192.5970  170.8800  142.9730 C   0  0  0  0  0  0  0  0  0  0  0  0
  192.0340  171.7980  140.3740 C   0  0  0  0  0  0  0  0  0  0  0  0
  189.7250  171.0460  138.3330 C   0  0  0  0  0  1  0  0  0  0  0  0
  190.3570  172.4040  138.5840 C   0  0  2  0  0  3  0  0  0  0  0  0
  191.2260  174.1870  135.2630 C   0  0  0  0  0  1  0  0  0  0  0  0
  188.9250  173.8380  137.0010 C   0  0  0  0  0  1  0  0  0  0  0  0
  191.3280  173.4230  136.5450 C   0  0  0  0  0  0  0  0  0  0  0  0
  190.2580  173.2540  137.3460 C   0  0  0  0  0  0  0  0  0  0  0  0
  192.6080  172.8930  136.9190 N   0  0  0  0  0  0  0  0  0  0  0  0
  191.7440  172.2360  139.0320 N   0  0  0  0  0  0  0  0  0  0  0  0
  192.8150  172.3470  138.0760 C   0  0  0  0  0  3  0  0  0  0  0  0
  192.9280  170.4070  144.3460 C   0  0  0  0  0  2  0  0  0  0  0  0
  194.3010  169.7620  144.3840 C   0  0  2  0  0  3  0  0  0  0  0  0
  194.2440  168.5260  145.1790 N   0  0  0  0  0  2  0  0  0  0  0  0
  194.7760  169.7680  145.7630 C   0  0  1  0  0  3  0  0  0  0  0  0
  196.2950  169.7100  145.7920 C   0  0  0  0  0  2  0  0  0  0  0  0
  197.9400  171.2200  144.9450 O   0  0  0  0  0  0  0  0  0  0  0  0
  196.1830  172.2090  146.1150 N   0  0  0  0  0  2  0  0  0  0  0  0
  196.8680  171.0740  145.5890 C   0  0  0  0  0  0  0  0  0  0  0  0
  196.7030  173.5640  145.9850 C   0  0  0  0  0  2  0  0  0  0  0  0
  195.6860  174.5170  145.3460 C   0  0  2  0  0  0  0  0  0  0  0  0
  195.5790  175.6660  146.1120 F   0  0  0  0  0  0  0  0  0  0  0  0
  194.3390  173.8070  145.3890 C   0  0  0  0  0  1  0  0  0  0  0  0
  197.4760  174.7630  143.7520 O   0  0  0  0  0  1  0  0  0  0  0  0
  195.4220  173.9880  142.8690 C   0  0  0  0  0  1  0  0  0  0  0  0
  196.0900  174.9000  143.8950 C   0  0  1  0  0  0  0  0  0  0  0  0
  195.7510  176.3600  143.5730 C   0  0  0  0  0  2  0  0  0  0  0  0
  196.8940  177.1620  143.5240 O   0  0  0  0  0  1  0  0  0  0  0  0
  191.6300  174.0660  141.2750 N   0  0  0  0  0  2  0  0  0  0  0  0
  188.6800  174.2170  141.1570 C   0  0  0  0  0  1  0  0  0  0  0  0
  190.9340  176.4750  144.0280 C   0  0  0  0  0  3  0  0  0  0  0  0
  191.6100  175.6530  143.1220 C   0  0  0  0  0  3  0  0  0  0  0  0
  188.8210  175.7960  143.0660 C   0  0  0  0  0  3  0  0  0  0  0  0
  189.5360  176.5510  144.0010 C   0  0  0  0  0  0  0  0  0  0  0  0
  189.4880  174.9600  142.1660 C   0  0  0  0  0  0  0  0  0  0  0  0
  190.8990  174.8800  142.1990 C   0  0  0  0  0  0  0  0  0  0  0  0
  186.5770  178.5490  145.3810 C   0  0  0  0  0  3  0  0  0  0  0  0
  187.3730  177.7130  144.4300 C   0  0  0  0  0  2  0  0  0  0  0  0
  186.4770  176.7490  146.9940 N   0  0  0  0  0  0  0  0  0  0  0  0
  188.7860  177.4250  144.9540 C   0  0  1  0  0  3  0  0  0  0  0  0
  185.3040  178.8860  147.3560 N   0  0  0  0  0  1  0  0  0  0  0  0
  186.1680  178.0820  146.5630 C   0  0  0  0  0  0  0  0  0  0  0  0
  187.6450  176.1790  146.8920 C   0  0  0  0  0  3  0  0  0  0  0  0
  188.8740  176.8940  146.3950 C   0  0  2  0  0  3  0  0  0  0  0  0
  189.2140  177.9330  147.2630 O   0  0  0  0  0  1  0  0  0  0  0  0
  1  2  1  0  0  0  0
  2  5  2  0  0  0  0
  3  5  1  0  0  0  0
  4  3  2  0  0  0  0
  5 16  1  0  0  0  0
  6  4  1  0  0  0  0
  6  1  2  0  0  0  0
  8  7  1  6  0  0  0
  8 14  1  0  0  0  0
  9 11  1  0  0  0  0
 10 12  1  0  0  0  0
 11 13  1  0  0  0  0
 11 12  2  0  0  0  0
 12  8  1  0  0  0  0
 13 15  2  0  0  0  0
 14  6  1  0  0  0  0
 15 14  1  0  0  0  0
 17 16  1  1  0  0  0
 17 18  1  0  0  0  0
 17 19  1  0  0  0  0
 18 19  1  0  0  0  0
 19 20  1  6  0  0  0
 21 23  2  0  0  0  0
 23 20  1  0  0  0  0
 23 22  1  0  0  0  0
 24 22  1  0  0  0  0
 25 27  1  6  0  0  0
 25 24  1  0  0  0  0
 25 26  1  0  0  0  0
 28 30  1  0  0  0  0
 30 29  1  6  0  0  0
 30 25  1  0  0  0  0
 31 30  1  0  0  0  0
 32 31  1  0  0  0  0
 33  1  1  0  0  0  0
 33 40  1  0  0  0  0
 34 39  1  0  0  0  0
 36 35  2  0  0  0  0
 37 38  2  0  0  0  0
 38 35  1  0  0  0  0
 39 40  2  0  0  0  0
 39 37  1  0  0  0  0
 40 36  1  0  0  0  0
 41 46  2  0  0  0  0
 42 44  1  0  0  0  0
 42 41  1  0  0  0  0
 44 38  1  6  0  0  0
 44 48  1  0  0  0  0
 46 43  1  0  0  0  0
 46 45  1  0  0  0  0
 47 43  2  0  0  0  0
 48 47  1  0  0  0  0
 48 49  1  1  0  0  0
M  END
>  <MODEL>
7

>  <REMARK>
 VINA RESULT:      -6.5      1.808      2.295
  Name = 
  12 active torsions:
  status: ('A' for Active; 'I' for Inactive)
    1  A    between atoms: C_2  and  C_8
    2  A    between atoms: N_3  and  C_38
    3  A    between atoms: C_8  and  C_41
    4  A    between atoms: C_9  and  C_38
    5  A    between atoms: C_9  and  C_49
    6  A    between atoms: C_15  and  N_27
    7  A    between atoms: C_18  and  C_33
    8  A    between atoms: N_27  and  C_40
    9  A    between atoms: C_28  and  C_49
   10  A    between atoms: C_36  and  C_47
   11  A    between atoms: C_39  and  C_47
   12  A    between atoms: C_43  and  N_44
                            x       y       z     vdW  Elec       q    Type
                         _______ _______ _______ _____ _____    ______ ____

>  <TORSDO>
F 12

$$$$
=
 OpenBabel11042417143D

 49 53  0  0  1  0  0  0  0  0999 V2000
  192.4830  173.5080  141.6650 C   0  0  0  0  0  0  0  0  0  0  0  0
  192.4930  172.7920  142.8720 C   0  0  0  0  0  3  0  0  0  0  0  0
  193.7440  171.0050  141.8330 C   0  0  0  0  0  3  0  0  0  0  0  0
  193.7440  171.7100  140.6270 C   0  0  0  0  0  3  0  0  0  0  0  0
  193.1190  171.5470  142.9570 C   0  0  0  0  0  0  0  0  0  0  0  0
  193.1200  172.9630  140.5260 C   0  0  0  0  0  0  0  0  0  0  0  0
  192.4040  172.0490  137.5740 C   0  0  0  0  0  1  0  0  0  0  0  0
  192.1110  173.3790  138.2460 C   0  0  2  0  0  3  0  0  0  0  0  0
  193.0180  176.3510  135.9440 C   0  0  0  0  0  1  0  0  0  0  0  0
  190.7950  174.5280  136.3600 C   0  0  0  0  0  1  0  0  0  0  0  0
  193.0500  175.3200  137.0270 C   0  0  0  0  0  0  0  0  0  0  0  0
  192.0220  174.4690  137.2130 C   0  0  0  0  0  0  0  0  0  0  0  0
  194.1970  175.2740  137.8870 N   0  0  0  0  0  0  0  0  0  0  0  0
  193.1300  173.6600  139.2640 N   0  0  0  0  0  0  0  0  0  0  0  0
  194.2410  174.5130  138.9350 C   0  0  0  0  0  3  0  0  0  0  0  0
  193.1470  170.8170  144.2550 C   0  0  0  0  0  2  0  0  0  0  0  0
  194.5700  170.5000  144.6710 C   0  0  2  0  0  3  0  0  0  0  0  0
  194.5730  169.9330  146.0280 N   0  0  0  0  0  2  0  0  0  0  0  0
  194.9180  171.3460  145.8070 C   0  0  1  0  0  3  0  0  0  0  0  0
  196.4260  171.5230  145.8840 C   0  0  0  0  0  2  0  0  0  0  0  0
  196.6510  173.8870  146.1400 O   0  0  0  0  0  0  0  0  0  0  0  0
  197.3830  173.0280  144.1010 N   0  0  0  0  0  2  0  0  0  0  0  0
  196.8130  172.8820  145.4000 C   0  0  0  0  0  0  0  0  0  0  0  0
  197.7510  174.3260  143.5510 C   0  0  0  0  0  2  0  0  0  0  0  0
  196.8220  174.7590  142.4110 C   0  0  2  0  0  0  0  0  0  0  0  0
  195.9310  173.7370  142.1240 F   0  0  0  0  0  0  0  0  0  0  0  0
  197.7030  174.9620  141.1850 C   0  0  0  0  0  1  0  0  0  0  0  0
  196.8610  176.9110  143.4940 O   0  0  0  0  0  1  0  0  0  0  0  0
  195.5610  176.7840  141.5210 C   0  0  0  0  0  1  0  0  0  0  0  0
  196.0290  176.0470  142.7730 C   0  0  1  0  0  0  0  0  0  0  0  0
  194.8200  175.7420  143.6650 C   0  0  0  0  0  2  0  0  0  0  0  0
  194.6180  176.7380  144.6240 O   0  0  0  0  0  1  0  0  0  0  0  0
  191.9180  174.8260  141.6230 N   0  0  0  0  0  2  0  0  0  0  0  0
  189.3880  173.8590  140.4390 C   0  0  0  0  0  1  0  0  0  0  0  0
  189.4240  176.4420  143.8670 C   0  0  0  0  0  3  0  0  0  0  0  0
  190.6360  176.0520  143.2920 C   0  0  0  0  0  3  0  0  0  0  0  0
  188.2250  175.1310  142.2230 C   0  0  0  0  0  3  0  0  0  0  0  0
  188.2130  175.9830  143.3320 C   0  0  0  0  0  0  0  0  0  0  0  0
  189.4340  174.7260  141.6510 C   0  0  0  0  0  0  0  0  0  0  0  0
  190.6550  175.1850  142.1960 C   0  0  0  0  0  0  0  0  0  0  0  0
  185.7480  177.0720  146.0510 C   0  0  0  0  0  3  0  0  0  0  0  0
  187.0340  176.6230  145.4330 C   0  0  0  0  0  2  0  0  0  0  0  0
  185.8510  179.1970  144.8990 N   0  0  0  0  0  0  0  0  0  0  0  0
  186.9000  176.3860  143.9230 C   0  0  1  0  0  3  0  0  0  0  0  0
  184.0660  178.6810  146.5180 N   0  0  0  0  0  1  0  0  0  0  0  0
  185.2190  178.2700  145.7940 C   0  0  0  0  0  0  0  0  0  0  0  0
  186.3550  178.8920  143.7360 C   0  0  0  0  0  3  0  0  0  0  0  0
  186.2440  177.5220  143.1200 C   0  0  2  0  0  3  0  0  0  0  0  0
  184.9070  177.2130  142.8650 O   0  0  0  0  0  1  0  0  0  0  0  0
  1  2  1  0  0  0  0
  2  5  2  0  0  0  0
  3  5  1  0  0  0  0
  4  3  2  0  0  0  0
  5 16  1  0  0  0  0
  6  4  1  0  0  0  0
  6  1  2  0  0  0  0
  8  7  1  6  0  0  0
  8 14  1  0  0  0  0
  9 11  1  0  0  0  0
 10 12  1  0  0  0  0
 11 12  2  0  0  0  0
 11 13  1  0  0  0  0
 12  8  1  0  0  0  0
 13 15  2  0  0  0  0
 14  6  1  0  0  0  0
 15 14  1  0  0  0  0
 17 16  1  1  0  0  0
 17 19  1  0  0  0  0
 17 18  1  0  0  0  0
 19 20  1  6  0  0  0
 19 18  1  0  0  0  0
 22 23  1  0  0  0  0
 23 20  1  0  0  0  0
 23 21  2  0  0  0  0
 24 22  1  0  0  0  0
 25 27  1  6  0  0  0
 25 30  1  0  0  0  0
 25 24  1  0  0  0  0
 26 25  1  0  0  0  0
 30 29  1  6  0  0  0
 30 28  1  0  0  0  0
 30 31  1  0  0  0  0
 31 32  1  0  0  0  0
 33  1  1  0  0  0  0
 33 40  1  0  0  0  0
 34 39  1  0  0  0  0
 36 35  2  0  0  0  0
 37 38  2  0  0  0  0
 38 35  1  0  0  0  0
 39 40  2  0  0  0  0
 39 37  1  0  0  0  0
 40 36  1  0  0  0  0
 42 41  1  0  0  0  0
 43 46  1  0  0  0  0
 44 38  1  6  0  0  0
 44 42  1  0  0  0  0
 46 41  2  0  0  0  0
 46 45  1  0  0  0  0
 47 43  2  0  0  0  0
 48 49  1  1  0  0  0
 48 47  1  0  0  0  0
 48 44  1  0  0  0  0
M  END
>  <MODEL>
8

>  <REMARK>
 VINA RESULT:      -6.5      2.233      2.885
  Name = 
  12 active torsions:
  status: ('A' for Active; 'I' for Inactive)
    1  A    between atoms: C_2  and  C_8
    2  A    between atoms: N_3  and  C_38
    3  A    between atoms: C_8  and  C_41
    4  A    between atoms: C_9  and  C_38
    5  A    between atoms: C_9  and  C_49
    6  A    between atoms: C_15  and  N_27
    7  A    between atoms: C_18  and  C_33
    8  A    between atoms: N_27  and  C_40
    9  A    between atoms: C_28  and  C_49
   10  A    between atoms: C_36  and  C_47
   11  A    between atoms: C_39  and  C_47
   12  A    between atoms: C_43  and  N_44
                            x       y       z     vdW  Elec       q    Type
                         _______ _______ _______ _____ _____    ______ ____

>  <TORSDO>
F 12

$$$$
=
 OpenBabel11042417143D

 49 53  0  0  1  0  0  0  0  0999 V2000
  192.3290  174.5960  145.2930 C   0  0  0  0  0  0  0  0  0  0  0  0
  193.6130  174.0290  145.3240 C   0  0  0  0  0  3  0  0  0  0  0  0
  194.5500  176.1250  146.0760 C   0  0  0  0  0  3  0  0  0  0  0  0
  193.2780  176.6990  146.0520 C   0  0  0  0  0  3  0  0  0  0  0  0
  194.7180  174.7870  145.7130 C   0  0  0  0  0  0  0  0  0  0  0  0
  192.1560  175.9490  145.6650 C   0  0  0  0  0  0  0  0  0  0  0  0
  190.9620  178.3320  143.9440 C   0  0  0  0  0  1  0  0  0  0  0  0
  190.2780  177.0480  144.3800 C   0  0  2  0  0  3  0  0  0  0  0  0
  186.7500  177.7480  145.8030 C   0  0  0  0  0  1  0  0  0  0  0  0
  188.0080  177.3590  143.2140 C   0  0  0  0  0  1  0  0  0  0  0  0
  188.2090  177.4380  145.6850 C   0  0  0  0  0  0  0  0  0  0  0  0
  188.7930  177.2660  144.4840 C   0  0  0  0  0  0  0  0  0  0  0  0
  188.9720  177.2980  146.8920 N   0  0  0  0  0  0  0  0  0  0  0  0
  190.8580  176.5750  145.6420 N   0  0  0  0  0  0  0  0  0  0  0  0
  190.2020  176.8900  146.8840 C   0  0  0  0  0  3  0  0  0  0  0  0
  196.0680  174.1590  145.7700 C   0  0  0  0  0  2  0  0  0  0  0  0
  196.0270  172.7330  145.2540 C   0  0  2  0  0  3  0  0  0  0  0  0
  196.8230  171.8660  146.1360 N   0  0  0  0  0  2  0  0  0  0  0  0
  197.3760  172.3460  144.8600 C   0  0  1  0  0  3  0  0  0  0  0  0
  197.3190  171.2330  143.8260 C   0  0  0  0  0  2  0  0  0  0  0  0
  197.1870  171.0480  141.4490 O   0  0  0  0  0  0  0  0  0  0  0  0
  197.0980  173.2200  142.2890 N   0  0  0  0  0  2  0  0  0  0  0  0
  197.2050  171.8080  142.4520 C   0  0  0  0  0  0  0  0  0  0  0  0
  197.0180  173.8510  140.9780 C   0  0  0  0  0  2  0  0  0  0  0  0
  195.7110  174.6300  140.7880 C   0  0  2  0  0  0  0  0  0  0  0  0
  195.9180  175.6780  139.9050 F   0  0  0  0  0  0  0  0  0  0  0  0
  195.3610  175.2300  142.1430 C   0  0  0  0  0  1  0  0  0  0  0  0
  194.0380  172.9750  141.3060 O   0  0  0  0  0  1  0  0  0  0  0  0
  193.4410  174.5420  139.6370 C   0  0  0  0  0  1  0  0  0  0  0  0
  194.5720  173.7190  140.2480 C   0  0  1  0  0  0  0  0  0  0  0  0
  195.0870  172.7140  139.2110 C   0  0  0  0  0  2  0  0  0  0  0  0
  195.1070  173.2580  137.9240 O   0  0  0  0  0  1  0  0  0  0  0  0
  191.1950  173.7740  144.9830 N   0  0  0  0  0  2  0  0  0  0  0  0
  191.9400  171.0970  143.9750 C   0  0  0  0  0  1  0  0  0  0  0  0
  189.8130  173.9090  141.5280 C   0  0  0  0  0  3  0  0  0  0  0  0
  190.1680  174.2680  142.8310 C   0  0  0  0  0  3  0  0  0  0  0  0
  190.8230  171.7350  141.8530 C   0  0  0  0  0  3  0  0  0  0  0  0
  190.1420  172.6400  141.0340 C   0  0  0  0  0  0  0  0  0  0  0  0
  191.1690  172.0820  143.1620 C   0  0  0  0  0  0  0  0  0  0  0  0
  190.8310  173.3600  143.6610 C   0  0  0  0  0  0  0  0  0  0  0  0
  189.3470  173.0780  137.3160 C   0  0  0  0  0  3  0  0  0  0  0  0
  189.6650  173.4550  138.7280 C   0  0  0  0  0  2  0  0  0  0  0  0
  191.5220  172.0610  137.0200 N   0  0  0  0  0  0  0  0  0  0  0  0
  189.7790  172.2300  139.6440 C   0  0  1  0  0  3  0  0  0  0  0  0
  189.9030  172.2280  135.1690 N   0  0  0  0  0  1  0  0  0  0  0  0
  190.2230  172.4350  136.5390 C   0  0  0  0  0  0  0  0  0  0  0  0
  191.7640  171.5120  138.1770 C   0  0  0  0  0  3  0  0  0  0  0  0
  190.6820  171.0920  139.1370 C   0  0  2  0  0  3  0  0  0  0  0  0
  189.9020  170.0810  138.5750 O   0  0  0  0  0  1  0  0  0  0  0  0
  1  2  2  0  0  0  0
  1  6  1  0  0  0  0
  2  5  1  0  0  0  0
  4  3  1  0  0  0  0
  5 16  1  0  0  0  0
  5  3  2  0  0  0  0
  6  4  2  0  0  0  0
  8  7  1  1  0  0  0
  8 12  1  0  0  0  0
  8 14  1  0  0  0  0
 10 12  1  0  0  0  0
 11  9  1  0  0  0  0
 11 13  1  0  0  0  0
 12 11  2  0  0  0  0
 14  6  1  0  0  0  0
 14 15  1  0  0  0  0
 15 13  2  0  0  0  0
 17 16  1  1  0  0  0
 17 18  1  0  0  0  0
 19 20  1  6  0  0  0
 19 17  1  0  0  0  0
 19 18  1  0  0  0  0
 21 23  2  0  0  0  0
 22 23  1  0  0  0  0
 23 20  1  0  0  0  0
 24 22  1  0  0  0  0
 25 24  1  0  0  0  0
 25 27  1  1  0  0  0
 26 25  1  0  0  0  0
 30 29  1  6  0  0  0
 30 25  1  0  0  0  0
 30 28  1  0  0  0  0
 31 30  1  0  0  0  0
 32 31  1  0  0  0  0
 33  1  1  0  0  0  0
 35 36  1  0  0  0  0
 36 40  2  0  0  0  0
 37 39  2  0  0  0  0
 38 35  2  0  0  0  0
 38 37  1  0  0  0  0
 39 40  1  0  0  0  0
 39 34  1  0  0  0  0
 40 33  1  0  0  0  0
 41 42  1  0  0  0  0
 42 44  1  0  0  0  0
 43 47  2  0  0  0  0
 44 38  1  1  0  0  0
 45 46  1  0  0  0  0
 46 43  1  0  0  0  0
 46 41  2  0  0  0  0
 47 48  1  0  0  0  0
 48 49  1  6  0  0  0
 48 44  1  0  0  0  0
M  END
>  <MODEL>
9

>  <REMARK>
 VINA RESULT:      -6.4      3.052      7.088
  Name = 
  12 active torsions:
  status: ('A' for Active; 'I' for Inactive)
    1  A    between atoms: C_2  and  C_8
    2  A    between atoms: N_3  and  C_38
    3  A    between atoms: C_8  and  C_41
    4  A    between atoms: C_9  and  C_38
    5  A    between atoms: C_9  and  C_49
    6  A    between atoms: C_15  and  N_27
    7  A    between atoms: C_18  and  C_33
    8  A    between atoms: N_27  and  C_40
    9  A    between atoms: C_28  and  C_49
   10  A    between atoms: C_36  and  C_47
   11  A    between atoms: C_39  and  C_47
   12  A    between atoms: C_43  and  N_44
                            x       y       z     vdW  Elec       q    Type
                         _______ _______ _______ _____ _____    ______ ____

>  <TORSDO>
F 12

$$$$
