=
 OpenBabel11042418023D

 35 40  0  0  1  0  0  0  0  0999 V2000
  192.3740  174.8340  142.3360 S   0  0  0  0  0  0  0  0  0  0  0  0
  191.1010  176.1070  144.3310 C   0  0  1  0  0  3  0  0  0  0  0  0
  192.9970  174.6910  144.0380 C   0  0  2  0  0  3  0  0  0  0  0  0
  192.4250  175.7670  144.8480 N   0  0  0  0  0  2  0  0  0  0  0  0
  190.7990  175.3220  143.0630 C   0  0  1  0  0  3  0  0  0  0  0  0
  188.0100  176.6070  146.5340 C   0  0  0  0  0  0  0  0  0  0  0  0
  188.1410  175.4790  147.3520 C   0  0  0  0  0  3  0  0  0  0  0  0
  188.8820  177.9480  144.6960 O   0  0  0  0  0  1  0  0  0  0  0  0
  190.0400  175.9250  145.3760 C   0  0  0  0  0  0  0  0  0  0  0  0
  189.2120  174.6060  147.1710 C   0  0  0  0  0  3  0  0  0  0  0  0
  190.1280  174.8460  146.1970 N   0  0  0  0  0  0  0  0  0  0  0  0
  188.9740  176.8350  145.5290 C   0  0  0  0  0  0  0  0  0  0  0  0
  186.8420  178.4720  147.7020 N   0  0  0  0  0  0  0  0  0  0  0  0
  185.6280  179.0340  147.5340 C   0  0  0  0  0  3  0  0  0  0  0  0
  186.8610  177.5130  146.7550 C   0  0  0  0  0  0  0  0  0  0  0  0
  184.9490  178.4410  146.5330 N   0  0  0  0  0  0  0  0  0  0  0  0
  185.7220  177.4870  146.0420 N   0  0  0  0  0  2  0  0  0  0  0  0
  194.5290  174.7390  144.0710 C   0  0  1  0  0  3  0  0  0  0  0  0
  196.2950  176.3500  143.6970 N   0  0  0  0  0  2  0  0  0  0  0  0
  195.0390  176.0930  143.6750 C   0  0  0  0  0  3  0  0  0  0  0  0
  195.0310  174.4230  145.4760 C   0  0  0  0  0  2  0  0  0  0  0  0
  194.7120  170.6580  145.7700 C   0  0  0  0  0  3  0  0  0  0  0  0
  197.0650  171.2360  145.7400 C   0  0  0  0  0  3  0  0  0  0  0  0
  196.7320  172.5900  145.6360 C   0  0  0  0  0  3  0  0  0  0  0  0
  195.3880  172.9800  145.6030 C   0  0  0  0  0  0  0  0  0  0  0  0
  194.3790  172.0120  145.6670 C   0  0  0  0  0  3  0  0  0  0  0  0
  196.0560  170.2700  145.8060 C   0  0  0  0  0  3  0  0  0  0  0  0
  189.9570  176.0710  142.1240 N   0  0  0  0  0  2  0  0  0  0  0  0
  187.6770  176.7410  141.6540 C   0  0  2  0  0  3  0  0  0  0  0  0
  187.9850  175.5080  140.8290 C   0  0  0  0  0  2  0  0  0  0  0  0
  188.5630  175.6500  142.2210 C   0  0  1  0  0  3  0  0  0  0  0  0
  186.3500  176.6150  142.2280 N   0  0  0  0  0  2  0  0  0  0  0  0
  184.3850  177.9580  142.4990 C   0  0  0  0  0  2  0  0  0  0  0  0
  185.8620  177.9630  142.4570 C   0  0  2  0  0  3  0  0  0  0  0  0
  185.0890  178.3660  141.3530 O   0  0  0  0  0  0  0  0  0  0  0  0
  1  5  1  0  0  0  0
  1  3  1  0  0  0  0
  2  4  1  0  0  0  0
  2  9  1  1  0  0  0
  3 18  1  6  0  0  0
  3  4  1  0  0  0  0
  5 28  1  6  0  0  0
  5  2  1  0  0  0  0
  6 15  1  0  0  0  0
  6  7  1  0  0  0  0
  8 12  1  0  0  0  0
  9 12  1  0  0  0  0
  9 11  2  0  0  0  0
 10  7  2  0  0  0  0
 11 10  1  0  0  0  0
 12  6  2  0  0  0  0
 14 13  1  0  0  0  0
 15 13  2  0  0  0  0
 16 14  2  0  0  0  0
 17 16  1  0  0  0  0
 17 15  1  0  0  0  0
 18 20  1  1  0  0  0
 18 21  1  0  0  0  0
 20 19  2  0  0  0  0
 21 25  1  0  0  0  0
 22 27  1  0  0  0  0
 23 27  2  0  0  0  0
 24 23  1  0  0  0  0
 25 24  2  0  0  0  0
 25 26  1  0  0  0  0
 26 22  2  0  0  0  0
 29 31  1  0  0  0  0
 29 32  1  1  0  0  0
 30 29  1  0  0  0  0
 30 31  1  0  0  0  0
 31 28  1  6  0  0  0
 34 32  1  6  0  0  0
 34 33  1  0  0  0  0
 35 34  1  0  0  0  0
 35 33  1  0  0  0  0
M  END
>  <MODEL>
1

>  <REMARK>
 VINA RESULT:      -7.1      0.000      0.000
  Name = 
  10 active torsions:
  status: ('A' for Active; 'I' for Inactive)
    1  A    between atoms: C_6  and  N_18
    2  A    between atoms: C_7  and  C_22
    3  A    between atoms: C_10  and  C_12
    4  A    between atoms: C_10  and  C_16
    5  A    between atoms: C_13  and  C_16
    6  A    between atoms: C_16  and  C_21
    7  A    between atoms: C_17  and  C_19
    8  A    between atoms: N_18  and  C_20
    9  A    between atoms: C_25  and  N_26
   10  A    between atoms: N_26  and  C_34
                            x       y       z     vdW  Elec       q    Type
                         _______ _______ _______ _____ _____    ______ ____

>  <TORSDO>
F 10

$$$$
=
 OpenBabel11042418023D

 35 40  0  0  1  0  0  0  0  0999 V2000
  192.2080  173.2860  144.5400 S   0  0  0  0  0  0  0  0  0  0  0  0
  190.2820  175.1510  144.3490 C   0  0  1  0  0  3  0  0  0  0  0  0
  192.4800  174.9370  145.2500 C   0  0  2  0  0  3  0  0  0  0  0  0
  191.5120  175.8700  144.6730 N   0  0  0  0  0  2  0  0  0  0  0  0
  190.4460  173.6600  144.6060 C   0  0  1  0  0  3  0  0  0  0  0  0
  187.0770  177.0710  145.1810 C   0  0  0  0  0  0  0  0  0  0  0  0
  186.9620  176.7280  146.5330 C   0  0  0  0  0  3  0  0  0  0  0  0
  188.3170  176.8830  143.0920 O   0  0  0  0  0  1  0  0  0  0  0  0
  189.1030  175.7250  145.0760 C   0  0  0  0  0  0  0  0  0  0  0  0
  187.9130  175.9000  147.1260 C   0  0  0  0  0  3  0  0  0  0  0  0
  188.9520  175.4230  146.3920 N   0  0  0  0  0  0  0  0  0  0  0  0
  188.1640  176.5620  144.4390 C   0  0  0  0  0  0  0  0  0  0  0  0
  185.0810  177.5110  143.7560 N   0  0  0  0  0  0  0  0  0  0  0  0
  184.3940  178.6370  143.4740 C   0  0  0  0  0  3  0  0  0  0  0  0
  186.0490  177.9520  144.5840 C   0  0  0  0  0  0  0  0  0  0  0  0
  184.9220  179.7030  144.1040 N   0  0  0  0  0  0  0  0  0  0  0  0
  185.9610  179.2750  144.8020 N   0  0  0  0  0  2  0  0  0  0  0  0
  193.9150  175.4150  145.0020 C   0  0  1  0  0  3  0  0  0  0  0  0
  194.7490  177.5280  145.8350 N   0  0  0  0  0  2  0  0  0  0  0  0
  193.9960  176.9130  145.0000 C   0  0  0  0  0  3  0  0  0  0  0  0
  194.8390  174.8800  146.0910 C   0  0  0  0  0  2  0  0  0  0  0  0
  196.9900  171.8820  145.2280 C   0  0  0  0  0  3  0  0  0  0  0  0
  197.8810  173.8280  144.0910 C   0  0  0  0  0  3  0  0  0  0  0  0
  196.8730  174.6180  144.6530 C   0  0  0  0  0  3  0  0  0  0  0  0
  195.9240  174.0410  145.5040 C   0  0  0  0  0  0  0  0  0  0  0  0
  195.9820  172.6720  145.7900 C   0  0  0  0  0  3  0  0  0  0  0  0
  197.9400  172.4600  144.3780 C   0  0  0  0  0  3  0  0  0  0  0  0
  189.6640  172.8380  143.6770 N   0  0  0  0  0  2  0  0  0  0  0  0
  189.1160  172.4960  141.3410 C   0  0  2  0  0  3  0  0  0  0  0  0
  188.0490  173.3830  141.9500 C   0  0  0  0  0  2  0  0  0  0  0  0
  189.4890  173.5180  142.3970 C   0  0  1  0  0  3  0  0  0  0  0  0
  189.4820  173.0130  140.0360 N   0  0  0  0  0  2  0  0  0  0  0  0
  188.6820  173.1080  137.7800 C   0  0  0  0  0  2  0  0  0  0  0  0
  188.3050  172.8990  139.1940 C   0  0  2  0  0  3  0  0  0  0  0  0
  188.0860  174.1270  138.5430 O   0  0  0  0  0  0  0  0  0  0  0  0
  1  5  1  0  0  0  0
  1  3  1  0  0  0  0
  2  5  1  0  0  0  0
  2  4  1  0  0  0  0
  2  9  1  1  0  0  0
  3 18  1  6  0  0  0
  4  3  1  0  0  0  0
  5 28  1  6  0  0  0
  6  7  1  0  0  0  0
  7 10  2  0  0  0  0
  8 12  1  0  0  0  0
  9 11  2  0  0  0  0
 11 10  1  0  0  0  0
 12  9  1  0  0  0  0
 12  6  2  0  0  0  0
 13 15  2  0  0  0  0
 14 13  1  0  0  0  0
 14 16  2  0  0  0  0
 15 17  1  0  0  0  0
 15  6  1  0  0  0  0
 16 17  1  0  0  0  0
 18 20  1  1  0  0  0
 18 21  1  0  0  0  0
 20 19  2  0  0  0  0
 22 26  1  0  0  0  0
 23 27  1  0  0  0  0
 23 24  2  0  0  0  0
 24 25  1  0  0  0  0
 25 26  2  0  0  0  0
 25 21  1  0  0  0  0
 27 22  2  0  0  0  0
 29 32  1  6  0  0  0
 29 30  1  0  0  0  0
 29 31  1  0  0  0  0
 30 31  1  0  0  0  0
 31 28  1  1  0  0  0
 33 35  1  0  0  0  0
 33 34  1  0  0  0  0
 34 32  1  1  0  0  0
 35 34  1  0  0  0  0
M  END
>  <MODEL>
2

>  <REMARK>
 VINA RESULT:      -7.0      2.310      3.187
  Name = 
  10 active torsions:
  status: ('A' for Active; 'I' for Inactive)
    1  A    between atoms: C_6  and  N_18
    2  A    between atoms: C_7  and  C_22
    3  A    between atoms: C_10  and  C_12
    4  A    between atoms: C_10  and  C_16
    5  A    between atoms: C_13  and  C_16
    6  A    between atoms: C_16  and  C_21
    7  A    between atoms: C_17  and  C_19
    8  A    between atoms: N_18  and  C_20
    9  A    between atoms: C_25  and  N_26
   10  A    between atoms: N_26  and  C_34
                            x       y       z     vdW  Elec       q    Type
                         _______ _______ _______ _____ _____    ______ ____

>  <TORSDO>
F 10

$$$$
=
 OpenBabel11042418023D

 35 40  0  0  1  0  0  0  0  0999 V2000
  188.6870  177.5440  144.1530 S   0  0  0  0  0  0  0  0  0  0  0  0
  188.9660  175.3850  142.5780 C   0  0  1  0  0  3  0  0  0  0  0  0
  189.2890  175.9820  144.8640 C   0  0  2  0  0  3  0  0  0  0  0  0
  188.9630  174.8850  143.9510 N   0  0  0  0  0  2  0  0  0  0  0  0
  189.1890  176.8890  142.5510 C   0  0  1  0  0  3  0  0  0  0  0  0
  190.5490  173.0710  139.9700 C   0  0  0  0  0  0  0  0  0  0  0  0
  191.8970  173.3480  140.2240 C   0  0  0  0  0  3  0  0  0  0  0  0
  188.2100  173.4810  140.5170 O   0  0  0  0  0  1  0  0  0  0  0  0
  189.9590  174.6490  141.7280 C   0  0  0  0  0  0  0  0  0  0  0  0
  192.2480  174.2590  141.2170 C   0  0  0  0  0  3  0  0  0  0  0  0
  191.2810  174.8830  141.9400 N   0  0  0  0  0  0  0  0  0  0  0  0
  189.5630  173.7310  140.7340 C   0  0  0  0  0  0  0  0  0  0  0  0
  190.1550  170.7660  139.1110 N   0  0  0  0  0  0  0  0  0  0  0  0
  189.8170  170.2930  137.8940 C   0  0  0  0  0  3  0  0  0  0  0  0
  190.2130  172.0980  138.9080 C   0  0  0  0  0  0  0  0  0  0  0  0
  189.6790  171.2930  137.0020 N   0  0  0  0  0  0  0  0  0  0  0  0
  189.9260  172.4260  137.6370 N   0  0  0  0  0  2  0  0  0  0  0  0
  188.6840  175.7360  146.2510 C   0  0  1  0  0  3  0  0  0  0  0  0
  190.6990  175.2430  147.4960 N   0  0  0  0  0  2  0  0  0  0  0  0
  189.5590  174.8370  147.0730 C   0  0  0  0  0  3  0  0  0  0  0  0
  188.5160  177.0600  146.9890 C   0  0  0  0  0  2  0  0  0  0  0  0
  184.7680  177.0710  146.4330 C   0  0  0  0  0  3  0  0  0  0  0  0
  185.3900  179.1250  147.5580 C   0  0  0  0  0  3  0  0  0  0  0  0
  186.7290  178.7240  147.5510 C   0  0  0  0  0  3  0  0  0  0  0  0
  187.0900  177.4970  146.9820 C   0  0  0  0  0  0  0  0  0  0  0  0
  186.1080  176.6700  146.4250 C   0  0  0  0  0  3  0  0  0  0  0  0
  184.4090  178.2990  146.9990 C   0  0  0  0  0  3  0  0  0  0  0  0
  188.4940  177.5430  141.4370 N   0  0  0  0  0  2  0  0  0  0  0  0
  186.1860  178.1650  141.0440 C   0  0  2  0  0  3  0  0  0  0  0  0
  186.6480  177.3100  139.8810 C   0  0  0  0  0  2  0  0  0  0  0  0
  187.1430  177.0140  141.2800 C   0  0  1  0  0  3  0  0  0  0  0  0
  184.8510  177.7560  141.4400 N   0  0  0  0  0  2  0  0  0  0  0  0
  182.5350  178.2180  141.0390 C   0  0  0  0  0  2  0  0  0  0  0  0
  183.9200  178.4970  140.6070 C   0  0  2  0  0  3  0  0  0  0  0  0
  183.0980  177.5880  139.9160 O   0  0  0  0  0  0  0  0  0  0  0  0
  1  3  1  0  0  0  0
  2  9  1  6  0  0  0
  2  4  1  0  0  0  0
  3 18  1  1  0  0  0
  4  3  1  0  0  0  0
  5 28  1  6  0  0  0
  5  2  1  0  0  0  0
  5  1  1  0  0  0  0
  6  7  2  0  0  0  0
  6 12  1  0  0  0  0
  7 10  1  0  0  0  0
  8 12  1  0  0  0  0
  9 11  1  0  0  0  0
 10 11  2  0  0  0  0
 12  9  2  0  0  0  0
 14 13  1  0  0  0  0
 15 13  2  0  0  0  0
 15  6  1  0  0  0  0
 16 17  1  0  0  0  0
 16 14  2  0  0  0  0
 17 15  1  0  0  0  0
 18 21  1  1  0  0  0
 18 20  1  0  0  0  0
 20 19  2  0  0  0  0
 22 27  1  0  0  0  0
 24 23  1  0  0  0  0
 25 21  1  0  0  0  0
 25 24  2  0  0  0  0
 26 22  2  0  0  0  0
 26 25  1  0  0  0  0
 27 23  2  0  0  0  0
 29 31  1  0  0  0  0
 29 32  1  1  0  0  0
 30 29  1  0  0  0  0
 30 31  1  0  0  0  0
 31 28  1  6  0  0  0
 34 33  1  0  0  0  0
 34 32  1  1  0  0  0
 35 34  1  0  0  0  0
 35 33  1  0  0  0  0
M  END
>  <MODEL>
3

>  <REMARK>
 VINA RESULT:      -7.0      3.876      7.843
  Name = 
  10 active torsions:
  status: ('A' for Active; 'I' for Inactive)
    1  A    between atoms: C_6  and  N_18
    2  A    between atoms: C_7  and  C_22
    3  A    between atoms: C_10  and  C_12
    4  A    between atoms: C_10  and  C_16
    5  A    between atoms: C_13  and  C_16
    6  A    between atoms: C_16  and  C_21
    7  A    between atoms: C_17  and  C_19
    8  A    between atoms: N_18  and  C_20
    9  A    between atoms: C_25  and  N_26
   10  A    between atoms: N_26  and  C_34
                            x       y       z     vdW  Elec       q    Type
                         _______ _______ _______ _____ _____    ______ ____

>  <TORSDO>
F 10

$$$$
=
 OpenBabel11042418023D

 35 40  0  0  1  0  0  0  0  0999 V2000
  188.8570  177.2490  146.7630 S   0  0  0  0  0  0  0  0  0  0  0  0
  189.4050  175.8160  144.5570 C   0  0  1  0  0  3  0  0  0  0  0  0
  187.5000  176.4840  145.8260 C   0  0  2  0  0  3  0  0  0  0  0  0
  187.9800  176.1350  144.4890 N   0  0  0  0  0  2  0  0  0  0  0  0
  189.9470  176.0600  145.9570 C   0  0  1  0  0  3  0  0  0  0  0  0
  190.0910  172.7790  142.3290 C   0  0  0  0  0  0  0  0  0  0  0  0
  190.1800  171.7970  143.3210 C   0  0  0  0  0  3  0  0  0  0  0  0
  189.7360  175.1200  141.7550 O   0  0  0  0  0  1  0  0  0  0  0  0
  189.6790  174.4210  144.0790 C   0  0  0  0  0  0  0  0  0  0  0  0
  190.0150  172.1410  144.6610 C   0  0  0  0  0  3  0  0  0  0  0  0
  189.7700  173.4320  145.0060 N   0  0  0  0  0  0  0  0  0  0  0  0
  189.8360  174.1130  142.7120 C   0  0  0  0  0  0  0  0  0  0  0  0
  191.4600  172.0230  140.3900 N   0  0  0  0  0  0  0  0  0  0  0  0
  191.1470  171.7410  139.1090 C   0  0  0  0  0  3  0  0  0  0  0  0
  190.2710  172.3770  140.9160 C   0  0  0  0  0  0  0  0  0  0  0  0
  189.8330  171.9170  138.8760 N   0  0  0  0  0  0  0  0  0  0  0  0
  189.2810  172.3160  140.0090 N   0  0  0  0  0  2  0  0  0  0  0  0
  186.2890  177.4200  145.7440 C   0  0  1  0  0  3  0  0  0  0  0  0
  184.7950  178.5020  147.3100 N   0  0  0  0  0  2  0  0  0  0  0  0
  185.9480  177.9860  147.0910 C   0  0  0  0  0  3  0  0  0  0  0  0
  186.5850  178.5740  144.7920 C   0  0  0  0  0  2  0  0  0  0  0  0
  183.6460  178.2380  142.4230 C   0  0  0  0  0  3  0  0  0  0  0  0
  185.6850  178.3490  141.1180 C   0  0  0  0  0  3  0  0  0  0  0  0
  186.4330  178.4530  142.2940 C   0  0  0  0  0  3  0  0  0  0  0  0
  185.7890  178.4470  143.5370 C   0  0  0  0  0  0  0  0  0  0  0  0
  184.3950  178.3410  143.6000 C   0  0  0  0  0  3  0  0  0  0  0  0
  184.2920  178.2410  141.1820 C   0  0  0  0  0  3  0  0  0  0  0  0
  191.3460  176.4980  145.9520 N   0  0  0  0  0  2  0  0  0  0  0  0
  193.1420  174.9560  145.4340 C   0  0  2  0  0  3  0  0  0  0  0  0
  193.6530  175.9480  146.4600 C   0  0  0  0  0  2  0  0  0  0  0  0
  192.2170  175.4730  146.5180 C   0  0  1  0  0  3  0  0  0  0  0  0
  193.5880  173.6230  145.7920 N   0  0  0  0  0  2  0  0  0  0  0  0
  193.7830  171.4210  144.8680 C   0  0  0  0  0  2  0  0  0  0  0  0
  193.6710  172.8620  144.5580 C   0  0  2  0  0  3  0  0  0  0  0  0
  194.9070  172.1900  144.5160 O   0  0  0  0  0  0  0  0  0  0  0  0
  2  9  1  1  0  0  0
  2  5  1  0  0  0  0
  3 18  1  6  0  0  0
  3  1  1  0  0  0  0
  4  2  1  0  0  0  0
  4  3  1  0  0  0  0
  5 28  1  6  0  0  0
  5  1  1  0  0  0  0
  6 12  2  0  0  0  0
  6  7  1  0  0  0  0
  7 10  2  0  0  0  0
  8 12  1  0  0  0  0
  9 11  2  0  0  0  0
 10 11  1  0  0  0  0
 12  9  1  0  0  0  0
 13 15  2  0  0  0  0
 14 13  1  0  0  0  0
 15  6  1  0  0  0  0
 16 14  2  0  0  0  0
 16 17  1  0  0  0  0
 17 15  1  0  0  0  0
 18 21  1  6  0  0  0
 18 20  1  0  0  0  0
 20 19  2  0  0  0  0
 22 26  1  0  0  0  0
 23 27  1  0  0  0  0
 23 24  2  0  0  0  0
 24 25  1  0  0  0  0
 25 26  2  0  0  0  0
 25 21  1  0  0  0  0
 27 22  2  0  0  0  0
 29 32  1  1  0  0  0
 29 30  1  0  0  0  0
 29 31  1  0  0  0  0
 30 31  1  0  0  0  0
 31 28  1  6  0  0  0
 34 33  1  0  0  0  0
 34 32  1  1  0  0  0
 35 34  1  0  0  0  0
 35 33  1  0  0  0  0
M  END
>  <MODEL>
4

>  <REMARK>
 VINA RESULT:      -6.9      3.069      9.000
  Name = 
  10 active torsions:
  status: ('A' for Active; 'I' for Inactive)
    1  A    between atoms: C_6  and  N_18
    2  A    between atoms: C_7  and  C_22
    3  A    between atoms: C_10  and  C_12
    4  A    between atoms: C_10  and  C_16
    5  A    between atoms: C_13  and  C_16
    6  A    between atoms: C_16  and  C_21
    7  A    between atoms: C_17  and  C_19
    8  A    between atoms: N_18  and  C_20
    9  A    between atoms: C_25  and  N_26
   10  A    between atoms: N_26  and  C_34
                            x       y       z     vdW  Elec       q    Type
                         _______ _______ _______ _____ _____    ______ ____

>  <TORSDO>
F 10

$$$$
=
 OpenBabel11042418023D

 35 40  0  0  1  0  0  0  0  0999 V2000
  189.6450  177.2820  144.9950 S   0  0  0  0  0  0  0  0  0  0  0  0
  191.1960  176.4610  142.9600 C   0  0  1  0  0  3  0  0  0  0  0  0
  188.8760  176.6950  143.4560 C   0  0  2  0  0  3  0  0  0  0  0  0
  189.8750  176.7090  142.3870 N   0  0  0  0  0  2  0  0  0  0  0  0
  191.1210  176.3870  144.4780 C   0  0  1  0  0  3  0  0  0  0  0  0
  193.7020  174.0630  141.3410 C   0  0  0  0  0  0  0  0  0  0  0  0
  192.8980  172.9190  141.2770 C   0  0  0  0  0  3  0  0  0  0  0  0
  193.9280  176.4050  141.9700 O   0  0  0  0  0  1  0  0  0  0  0  0
  191.8340  175.2420  142.3640 C   0  0  0  0  0  0  0  0  0  0  0  0
  191.5880  172.9590  141.7510 C   0  0  0  0  0  3  0  0  0  0  0  0
  191.0910  174.1070  142.2770 N   0  0  0  0  0  0  0  0  0  0  0  0
  193.1630  175.2440  141.8920 C   0  0  0  0  0  0  0  0  0  0  0  0
  196.1160  173.4780  141.5380 N   0  0  0  0  0  0  0  0  0  0  0  0
  197.1560  173.6050  140.6900 C   0  0  0  0  0  3  0  0  0  0  0  0
  195.0880  173.9840  140.8280 C   0  0  0  0  0  0  0  0  0  0  0  0
  196.7720  174.1600  139.5250 N   0  0  0  0  0  0  0  0  0  0  0  0
  195.4740  174.3980  139.6100 N   0  0  0  0  0  2  0  0  0  0  0  0
  187.6630  177.5560  143.0820 C   0  0  1  0  0  3  0  0  0  0  0  0
  186.7030  177.6290  140.8620 N   0  0  0  0  0  2  0  0  0  0  0  0
  187.6880  177.9250  141.6280 C   0  0  0  0  0  3  0  0  0  0  0  0
  186.3740  176.7940  143.3680 C   0  0  0  0  0  2  0  0  0  0  0  0
  184.1010  178.8240  145.6210 C   0  0  0  0  0  3  0  0  0  0  0  0
  185.3750  177.2850  146.9910 C   0  0  0  0  0  3  0  0  0  0  0  0
  186.0160  176.7970  145.8480 C   0  0  0  0  0  3  0  0  0  0  0  0
  185.7020  177.3240  144.5900 C   0  0  0  0  0  0  0  0  0  0  0  0
  184.7420  178.3370  144.4770 C   0  0  0  0  0  3  0  0  0  0  0  0
  184.4170  178.2970  146.8780 C   0  0  0  0  0  3  0  0  0  0  0  0
  192.3370  176.8890  145.1280 N   0  0  0  0  0  2  0  0  0  0  0  0
  194.4590  175.7290  145.2730 C   0  0  2  0  0  3  0  0  0  0  0  0
  194.1940  176.3960  146.6070 C   0  0  0  0  0  2  0  0  0  0  0  0
  193.0450  175.8130  145.8130 C   0  0  1  0  0  3  0  0  0  0  0  0
  194.9710  174.3900  145.4990 N   0  0  0  0  0  2  0  0  0  0  0  0
  196.9780  173.1080  145.2410 C   0  0  0  0  0  2  0  0  0  0  0  0
  196.4160  174.4680  145.3800 C   0  0  2  0  0  3  0  0  0  0  0  0
  197.0020  173.7940  146.4680 O   0  0  0  0  0  0  0  0  0  0  0  0
  2  9  1  6  0  0  0
  2  5  1  0  0  0  0
  3 18  1  6  0  0  0
  3  1  1  0  0  0  0
  4  2  1  0  0  0  0
  4  3  1  0  0  0  0
  5  1  1  0  0  0  0
  5 28  1  1  0  0  0
  6 12  1  0  0  0  0
  7  6  2  0  0  0  0
  7 10  1  0  0  0  0
 10 11  2  0  0  0  0
 11  9  1  0  0  0  0
 12  8  1  0  0  0  0
 12  9  2  0  0  0  0
 14 13  1  0  0  0  0
 15  6  1  0  0  0  0
 15 13  2  0  0  0  0
 16 17  1  0  0  0  0
 16 14  2  0  0  0  0
 17 15  1  0  0  0  0
 18 20  1  6  0  0  0
 18 21  1  0  0  0  0
 19 20  2  0  0  0  0
 21 25  1  0  0  0  0
 22 27  1  0  0  0  0
 24 23  1  0  0  0  0
 25 24  2  0  0  0  0
 26 25  1  0  0  0  0
 26 22  2  0  0  0  0
 27 23  2  0  0  0  0
 29 32  1  1  0  0  0
 29 31  1  0  0  0  0
 29 30  1  0  0  0  0
 31 28  1  6  0  0  0
 31 30  1  0  0  0  0
 33 34  1  0  0  0  0
 33 35  1  0  0  0  0
 34 32  1  1  0  0  0
 34 35  1  0  0  0  0
M  END
>  <MODEL>
5

>  <REMARK>
 VINA RESULT:      -6.8      3.249      9.528
  Name = 
  10 active torsions:
  status: ('A' for Active; 'I' for Inactive)
    1  A    between atoms: C_6  and  N_18
    2  A    between atoms: C_7  and  C_22
    3  A    between atoms: C_10  and  C_12
    4  A    between atoms: C_10  and  C_16
    5  A    between atoms: C_13  and  C_16
    6  A    between atoms: C_16  and  C_21
    7  A    between atoms: C_17  and  C_19
    8  A    between atoms: N_18  and  C_20
    9  A    between atoms: C_25  and  N_26
   10  A    between atoms: N_26  and  C_34
                            x       y       z     vdW  Elec       q    Type
                         _______ _______ _______ _____ _____    ______ ____

>  <TORSDO>
F 10

$$$$
=
 OpenBabel11042418023D

 35 40  0  0  1  0  0  0  0  0999 V2000
  189.3390  177.4430  146.2040 S   0  0  0  0  0  0  0  0  0  0  0  0
  189.5570  175.7870  144.0990 C   0  0  1  0  0  3  0  0  0  0  0  0
  187.9300  176.3960  145.7320 C   0  0  2  0  0  3  0  0  0  0  0  0
  188.1260  175.9200  144.3620 N   0  0  0  0  0  2  0  0  0  0  0  0
  190.3720  176.2910  145.2800 C   0  0  1  0  0  3  0  0  0  0  0  0
  190.3620  172.6310  142.0880 C   0  0  0  0  0  0  0  0  0  0  0  0
  190.5890  171.7480  143.1500 C   0  0  0  0  0  3  0  0  0  0  0  0
  189.7810  174.8780  141.3480 O   0  0  0  0  0  1  0  0  0  0  0  0
  189.9180  174.3820  143.7200 C   0  0  0  0  0  0  0  0  0  0  0  0
  190.4740  172.1940  144.4650 C   0  0  0  0  0  3  0  0  0  0  0  0
  190.1440  173.4870  144.7180 N   0  0  0  0  0  0  0  0  0  0  0  0
  190.0200  173.9690  142.3760 C   0  0  0  0  0  0  0  0  0  0  0  0
  189.4410  171.9050  139.8900 N   0  0  0  0  0  0  0  0  0  0  0  0
  190.0250  171.4600  138.7590 C   0  0  0  0  0  3  0  0  0  0  0  0
  190.4920  172.1230  140.7040 C   0  0  0  0  0  0  0  0  0  0  0  0
  191.3650  171.4130  138.8880 N   0  0  0  0  0  0  0  0  0  0  0  0
  191.6600  171.8290  140.1070 N   0  0  0  0  0  2  0  0  0  0  0  0
  186.6060  177.1590  145.8610 C   0  0  1  0  0  3  0  0  0  0  0  0
  185.9010  178.6440  147.6360 N   0  0  0  0  0  2  0  0  0  0  0  0
  186.2980  177.4740  147.2950 C   0  0  0  0  0  3  0  0  0  0  0  0
  186.6800  178.4670  145.0800 C   0  0  0  0  0  2  0  0  0  0  0  0
  183.6910  178.2920  142.7580 C   0  0  0  0  0  3  0  0  0  0  0  0
  185.7100  178.3370  141.4200 C   0  0  0  0  0  3  0  0  0  0  0  0
  186.4820  178.3920  142.5840 C   0  0  0  0  0  3  0  0  0  0  0  0
  185.8590  178.3930  143.8380 C   0  0  0  0  0  0  0  0  0  0  0  0
  184.4630  178.3450  143.9230 C   0  0  0  0  0  3  0  0  0  0  0  0
  184.3150  178.2880  141.5060 C   0  0  0  0  0  3  0  0  0  0  0  0
  191.6480  176.8890  144.8710 N   0  0  0  0  0  2  0  0  0  0  0  0
  194.0640  176.7770  145.0140 C   0  0  2  0  0  3  0  0  0  0  0  0
  193.5010  176.5950  146.4090 C   0  0  0  0  0  2  0  0  0  0  0  0
  192.7670  176.0190  145.2170 C   0  0  1  0  0  3  0  0  0  0  0  0
  195.1390  175.8250  144.8020 N   0  0  0  0  0  2  0  0  0  0  0  0
  197.0670  175.6630  143.3900 C   0  0  0  0  0  2  0  0  0  0  0  0
  195.6430  176.0530  143.4600 C   0  0  2  0  0  3  0  0  0  0  0  0
  196.6760  177.0070  143.5140 O   0  0  0  0  0  0  0  0  0  0  0  0
  2  9  1  1  0  0  0
  2  4  1  0  0  0  0
  2  5  1  0  0  0  0
  3 18  1  6  0  0  0
  3  1  1  0  0  0  0
  4  3  1  0  0  0  0
  5 28  1  6  0  0  0
  5  1  1  0  0  0  0
  6 12  2  0  0  0  0
  6  7  1  0  0  0  0
  7 10  2  0  0  0  0
  8 12  1  0  0  0  0
  9 11  2  0  0  0  0
 10 11  1  0  0  0  0
 12  9  1  0  0  0  0
 13 15  2  0  0  0  0
 14 16  2  0  0  0  0
 14 13  1  0  0  0  0
 15  6  1  0  0  0  0
 16 17  1  0  0  0  0
 17 15  1  0  0  0  0
 18 21  1  6  0  0  0
 18 20  1  0  0  0  0
 20 19  2  0  0  0  0
 22 26  1  0  0  0  0
 23 27  1  0  0  0  0
 23 24  2  0  0  0  0
 24 25  1  0  0  0  0
 25 26  2  0  0  0  0
 25 21  1  0  0  0  0
 27 22  2  0  0  0  0
 29 32  1  1  0  0  0
 29 31  1  0  0  0  0
 29 30  1  0  0  0  0
 31 28  1  6  0  0  0
 31 30  1  0  0  0  0
 33 34  1  0  0  0  0
 33 35  1  0  0  0  0
 34 35  1  0  0  0  0
 34 32  1  1  0  0  0
M  END
>  <MODEL>
6

>  <REMARK>
 VINA RESULT:      -6.7      3.066      9.058
  Name = 
  10 active torsions:
  status: ('A' for Active; 'I' for Inactive)
    1  A    between atoms: C_6  and  N_18
    2  A    between atoms: C_7  and  C_22
    3  A    between atoms: C_10  and  C_12
    4  A    between atoms: C_10  and  C_16
    5  A    between atoms: C_13  and  C_16
    6  A    between atoms: C_16  and  C_21
    7  A    between atoms: C_17  and  C_19
    8  A    between atoms: N_18  and  C_20
    9  A    between atoms: C_25  and  N_26
   10  A    between atoms: N_26  and  C_34
                            x       y       z     vdW  Elec       q    Type
                         _______ _______ _______ _____ _____    ______ ____

>  <TORSDO>
F 10

$$$$
=
 OpenBabel11042418023D

 35 40  0  0  1  0  0  0  0  0999 V2000
  190.0450  177.0180  144.2110 S   0  0  0  0  0  0  0  0  0  0  0  0
  190.3850  175.0950  142.3650 C   0  0  1  0  0  3  0  0  0  0  0  0
  188.5990  176.3260  143.3540 C   0  0  2  0  0  3  0  0  0  0  0  0
  189.0460  175.6360  142.1440 N   0  0  0  0  0  2  0  0  0  0  0  0
  190.9220  175.5200  143.7230 C   0  0  1  0  0  3  0  0  0  0  0  0
  190.5430  171.5980  140.8160 C   0  0  0  0  0  0  0  0  0  0  0  0
  190.4500  170.8370  141.9860 C   0  0  0  0  0  3  0  0  0  0  0  0
  190.6100  173.7990  139.7730 O   0  0  0  0  0  1  0  0  0  0  0  0
  190.4130  173.6060  142.1850 C   0  0  0  0  0  0  0  0  0  0  0  0
  190.3390  171.4690  143.2230 C   0  0  0  0  0  3  0  0  0  0  0  0
  190.3220  172.8250  143.2940 N   0  0  0  0  0  0  0  0  0  0  0  0
  190.5240  173.0050  140.9150 C   0  0  0  0  0  0  0  0  0  0  0  0
  189.6320  170.7400  138.6610 N   0  0  0  0  0  0  0  0  0  0  0  0
  190.1930  170.0570  137.6420 C   0  0  0  0  0  3  0  0  0  0  0  0
  190.6600  170.8930  139.5200 C   0  0  0  0  0  0  0  0  0  0  0  0
  191.4960  169.8130  137.8770 N   0  0  0  0  0  0  0  0  0  0  0  0
  191.7910  170.3370  139.0540 N   0  0  0  0  0  2  0  0  0  0  0  0
  187.5820  177.4220  143.0130 C   0  0  1  0  0  3  0  0  0  0  0  0
  186.7260  177.9170  140.8050 N   0  0  0  0  0  2  0  0  0  0  0  0
  187.7360  177.8830  141.5940 C   0  0  0  0  0  3  0  0  0  0  0  0
  186.1640  176.8960  143.2040 C   0  0  0  0  0  2  0  0  0  0  0  0
  184.0680  178.8650  145.6710 C   0  0  0  0  0  3  0  0  0  0  0  0
  185.4100  177.2650  146.8990 C   0  0  0  0  0  3  0  0  0  0  0  0
  185.9690  176.8130  145.7000 C   0  0  0  0  0  3  0  0  0  0  0  0
  185.5800  177.3880  144.4850 C   0  0  0  0  0  0  0  0  0  0  0  0
  184.6270  178.4130  144.4710 C   0  0  0  0  0  3  0  0  0  0  0  0
  184.4590  178.2910  146.8850 C   0  0  0  0  0  3  0  0  0  0  0  0
  192.3780  175.6990  143.7240 N   0  0  0  0  0  2  0  0  0  0  0  0
  194.4810  175.2060  144.8220 C   0  0  2  0  0  3  0  0  0  0  0  0
  193.7490  176.2430  145.6490 C   0  0  0  0  0  2  0  0  0  0  0  0
  192.9700  175.1550  144.9420 C   0  0  1  0  0  3  0  0  0  0  0  0
  195.0570  174.2080  145.7040 N   0  0  0  0  0  2  0  0  0  0  0  0
  196.9430  172.7340  145.6130 C   0  0  0  0  0  2  0  0  0  0  0  0
  196.4650  174.1100  145.3640 C   0  0  2  0  0  3  0  0  0  0  0  0
  197.1940  173.7770  146.5210 O   0  0  0  0  0  0  0  0  0  0  0  0
  2  9  1  1  0  0  0
  2  5  1  0  0  0  0
  3 18  1  6  0  0  0
  3  1  1  0  0  0  0
  4  2  1  0  0  0  0
  4  3  1  0  0  0  0
  5 28  1  6  0  0  0
  5  1  1  0  0  0  0
  6 12  2  0  0  0  0
  6  7  1  0  0  0  0
  7 10  2  0  0  0  0
  8 12  1  0  0  0  0
  9 11  2  0  0  0  0
 10 11  1  0  0  0  0
 12  9  1  0  0  0  0
 13 15  2  0  0  0  0
 14 16  2  0  0  0  0
 14 13  1  0  0  0  0
 15  6  1  0  0  0  0
 16 17  1  0  0  0  0
 17 15  1  0  0  0  0
 18 20  1  6  0  0  0
 18 21  1  0  0  0  0
 19 20  2  0  0  0  0
 21 25  1  0  0  0  0
 22 27  1  0  0  0  0
 24 23  1  0  0  0  0
 25 24  2  0  0  0  0
 26 25  1  0  0  0  0
 26 22  2  0  0  0  0
 27 23  2  0  0  0  0
 29 31  1  0  0  0  0
 29 30  1  0  0  0  0
 29 32  1  1  0  0  0
 31 28  1  6  0  0  0
 31 30  1  0  0  0  0
 33 35  1  0  0  0  0
 34 33  1  0  0  0  0
 34 32  1  1  0  0  0
 34 35  1  0  0  0  0
M  END
>  <MODEL>
7

>  <REMARK>
 VINA RESULT:      -6.6      3.799      9.454
  Name = 
  10 active torsions:
  status: ('A' for Active; 'I' for Inactive)
    1  A    between atoms: C_6  and  N_18
    2  A    between atoms: C_7  and  C_22
    3  A    between atoms: C_10  and  C_12
    4  A    between atoms: C_10  and  C_16
    5  A    between atoms: C_13  and  C_16
    6  A    between atoms: C_16  and  C_21
    7  A    between atoms: C_17  and  C_19
    8  A    between atoms: N_18  and  C_20
    9  A    between atoms: C_25  and  N_26
   10  A    between atoms: N_26  and  C_34
                            x       y       z     vdW  Elec       q    Type
                         _______ _______ _______ _____ _____    ______ ____

>  <TORSDO>
F 10

$$$$
=
 OpenBabel11042418023D

 35 40  0  0  1  0  0  0  0  0999 V2000
  189.5920  177.9100  144.6660 S   0  0  0  0  0  0  0  0  0  0  0  0
  189.6240  175.7080  143.1260 C   0  0  1  0  0  3  0  0  0  0  0  0
  190.2990  176.3670  145.3160 C   0  0  2  0  0  3  0  0  0  0  0  0
  189.8360  175.2470  144.4960 N   0  0  0  0  0  2  0  0  0  0  0  0
  189.8380  177.2110  143.0230 C   0  0  1  0  0  3  0  0  0  0  0  0
  190.7710  173.4140  140.2840 C   0  0  0  0  0  0  0  0  0  0  0  0
  192.1540  173.5890  140.4090 C   0  0  0  0  0  3  0  0  0  0  0  0
  188.5330  173.9540  141.0820 O   0  0  0  0  0  1  0  0  0  0  0  0
  190.4730  174.9470  142.1520 C   0  0  0  0  0  0  0  0  0  0  0  0
  192.6660  174.4290  141.3960 C   0  0  0  0  0  3  0  0  0  0  0  0
  191.8220  175.0820  142.2360 N   0  0  0  0  0  0  0  0  0  0  0  0
  189.9150  174.1040  141.1690 C   0  0  0  0  0  0  0  0  0  0  0  0
  190.2120  171.1730  139.3500 N   0  0  0  0  0  0  0  0  0  0  0  0
  189.6890  170.7830  138.1710 C   0  0  0  0  0  3  0  0  0  0  0  0
  190.2630  172.5140  139.2250 C   0  0  0  0  0  0  0  0  0  0  0  0
  189.4360  171.8390  137.3750 N   0  0  0  0  0  0  0  0  0  0  0  0
  189.7950  172.9260  138.0350 N   0  0  0  0  0  2  0  0  0  0  0  0
  189.9190  176.1610  146.7870 C   0  0  1  0  0  3  0  0  0  0  0  0
  187.5090  176.1920  147.0010 N   0  0  0  0  0  2  0  0  0  0  0  0
  188.5800  175.4940  146.9130 C   0  0  0  0  0  3  0  0  0  0  0  0
  190.9630  175.2910  147.4790 C   0  0  0  0  0  2  0  0  0  0  0  0
  194.2580  176.8930  146.5140 C   0  0  0  0  0  3  0  0  0  0  0  0
  194.1820  174.6570  145.5830 C   0  0  0  0  0  3  0  0  0  0  0  0
  192.9110  174.4700  146.1360 C   0  0  0  0  0  3  0  0  0  0  0  0
  192.3110  175.4950  146.8760 C   0  0  0  0  0  0  0  0  0  0  0  0
  192.9870  176.7060  147.0660 C   0  0  0  0  0  3  0  0  0  0  0  0
  194.8560  175.8670  145.7720 C   0  0  0  0  0  3  0  0  0  0  0  0
  188.9760  177.8360  142.0140 N   0  0  0  0  0  2  0  0  0  0  0  0
  186.6950  178.6280  142.2110 C   0  0  2  0  0  3  0  0  0  0  0  0
  186.8010  177.8060  140.9430 C   0  0  0  0  0  2  0  0  0  0  0  0
  187.5910  177.4060  142.1700 C   0  0  1  0  0  3  0  0  0  0  0  0
  185.4650  178.2870  142.9030 N   0  0  0  0  0  2  0  0  0  0  0  0
  184.6670  178.4100  145.1580 C   0  0  0  0  0  2  0  0  0  0  0  0
  185.4090  179.1160  144.0930 C   0  0  2  0  0  3  0  0  0  0  0  0
  184.0650  179.4150  144.3810 O   0  0  0  0  0  0  0  0  0  0  0  0
  1  3  1  0  0  0  0
  2  9  1  6  0  0  0
  2  4  1  0  0  0  0
  3 18  1  1  0  0  0
  4  3  1  0  0  0  0
  5 28  1  6  0  0  0
  5  2  1  0  0  0  0
  5  1  1  0  0  0  0
  6  7  2  0  0  0  0
  6 12  1  0  0  0  0
  7 10  1  0  0  0  0
  8 12  1  0  0  0  0
  9 11  1  0  0  0  0
 10 11  2  0  0  0  0
 12  9  2  0  0  0  0
 14 13  1  0  0  0  0
 15 13  2  0  0  0  0
 15  6  1  0  0  0  0
 16 17  1  0  0  0  0
 16 14  2  0  0  0  0
 17 15  1  0  0  0  0
 18 20  1  6  0  0  0
 18 21  1  0  0  0  0
 20 19  2  0  0  0  0
 22 26  1  0  0  0  0
 23 27  1  0  0  0  0
 23 24  2  0  0  0  0
 24 25  1  0  0  0  0
 25 26  2  0  0  0  0
 25 21  1  0  0  0  0
 27 22  2  0  0  0  0
 29 32  1  1  0  0  0
 30 31  1  0  0  0  0
 30 29  1  0  0  0  0
 31 28  1  6  0  0  0
 31 29  1  0  0  0  0
 34 32  1  6  0  0  0
 34 35  1  0  0  0  0
 34 33  1  0  0  0  0
 35 33  1  0  0  0  0
M  END
>  <MODEL>
8

>  <REMARK>
 VINA RESULT:      -6.6      3.078      6.208
  Name = 
  10 active torsions:
  status: ('A' for Active; 'I' for Inactive)
    1  A    between atoms: C_6  and  N_18
    2  A    between atoms: C_7  and  C_22
    3  A    between atoms: C_10  and  C_12
    4  A    between atoms: C_10  and  C_16
    5  A    between atoms: C_13  and  C_16
    6  A    between atoms: C_16  and  C_21
    7  A    between atoms: C_17  and  C_19
    8  A    between atoms: N_18  and  C_20
    9  A    between atoms: C_25  and  N_26
   10  A    between atoms: N_26  and  C_34
                            x       y       z     vdW  Elec       q    Type
                         _______ _______ _______ _____ _____    ______ ____

>  <TORSDO>
F 10

$$$$
=
 OpenBabel11042418023D

 35 40  0  0  1  0  0  0  0  0999 V2000
  188.2420  174.8230  142.2280 S   0  0  0  0  0  0  0  0  0  0  0  0
  189.5460  175.0030  144.5710 C   0  0  1  0  0  3  0  0  0  0  0  0
  188.6090  176.4590  142.9320 C   0  0  2  0  0  3  0  0  0  0  0  0
  188.9250  176.3080  144.3520 N   0  0  0  0  0  2  0  0  0  0  0  0
  189.5550  174.1870  143.2870 C   0  0  1  0  0  3  0  0  0  0  0  0
  193.3190  175.4880  144.9950 C   0  0  0  0  0  0  0  0  0  0  0  0
  193.4000  175.3680  146.3870 C   0  0  0  0  0  3  0  0  0  0  0  0
  191.9360  175.4810  142.9890 O   0  0  0  0  0  1  0  0  0  0  0  0
  190.9160  175.1390  145.1650 C   0  0  0  0  0  0  0  0  0  0  0  0
  192.2470  175.1340  147.1350 C   0  0  0  0  0  3  0  0  0  0  0  0
  191.0440  175.0260  146.5140 N   0  0  0  0  0  0  0  0  0  0  0  0
  192.0580  175.3720  144.3720 C   0  0  0  0  0  0  0  0  0  0  0  0
  195.0600  174.8760  143.3210 N   0  0  0  0  0  0  0  0  0  0  0  0
  196.1730  175.5050  142.8920 C   0  0  0  0  0  3  0  0  0  0  0  0
  194.5630  175.7350  144.2320 C   0  0  0  0  0  0  0  0  0  0  0  0
  196.3370  176.6870  143.5150 N   0  0  0  0  0  0  0  0  0  0  0  0
  195.3270  176.8340  144.3560 N   0  0  0  0  0  2  0  0  0  0  0  0
  187.4320  177.4220  142.7340 C   0  0  1  0  0  3  0  0  0  0  0  0
  186.3430  177.7160  140.5940 N   0  0  0  0  0  2  0  0  0  0  0  0
  187.3750  177.9280  141.3230 C   0  0  0  0  0  3  0  0  0  0  0  0
  186.1190  176.7130  143.0500 C   0  0  0  0  0  2  0  0  0  0  0  0
  184.0140  178.9240  145.2940 C   0  0  0  0  0  3  0  0  0  0  0  0
  185.1110  177.2520  146.6630 C   0  0  0  0  0  3  0  0  0  0  0  0
  185.7210  176.7190  145.5230 C   0  0  0  0  0  3  0  0  0  0  0  0
  185.4810  177.2900  144.2680 C   0  0  0  0  0  0  0  0  0  0  0  0
  184.6250  178.3920  144.1550 C   0  0  0  0  0  3  0  0  0  0  0  0
  184.2570  178.3540  146.5490 C   0  0  0  0  0  3  0  0  0  0  0  0
  189.4270  172.7470  143.5330 N   0  0  0  0  0  2  0  0  0  0  0  0
  190.3320  170.9520  142.1790 C   0  0  2  0  0  3  0  0  0  0  0  0
  190.9470  172.2540  141.7080 C   0  0  0  0  0  2  0  0  0  0  0  0
  190.6560  172.0450  143.1790 C   0  0  1  0  0  3  0  0  0  0  0  0
  191.3610  169.9310  142.2470 N   0  0  0  0  0  2  0  0  0  0  0  0
  192.2540  168.1670  140.8950 C   0  0  0  0  0  2  0  0  0  0  0  0
  191.0440  168.9480  141.2270 C   0  0  2  0  0  3  0  0  0  0  0  0
  191.8070  169.2180  140.0760 O   0  0  0  0  0  0  0  0  0  0  0  0
  1  3  1  0  0  0  0
  1  5  1  0  0  0  0
  2  9  1  6  0  0  0
  3 18  1  1  0  0  0
  3  4  1  0  0  0  0
  4  2  1  0  0  0  0
  5 28  1  1  0  0  0
  5  2  1  0  0  0  0
  6  7  1  0  0  0  0
  7 10  2  0  0  0  0
  8 12  1  0  0  0  0
  9 11  2  0  0  0  0
 11 10  1  0  0  0  0
 12  6  2  0  0  0  0
 12  9  1  0  0  0  0
 13 15  2  0  0  0  0
 14 13  1  0  0  0  0
 14 16  2  0  0  0  0
 15 17  1  0  0  0  0
 15  6  1  0  0  0  0
 16 17  1  0  0  0  0
 18 20  1  6  0  0  0
 18 21  1  0  0  0  0
 19 20  2  0  0  0  0
 21 25  1  0  0  0  0
 22 27  1  0  0  0  0
 24 23  1  0  0  0  0
 25 24  2  0  0  0  0
 26 25  1  0  0  0  0
 26 22  2  0  0  0  0
 27 23  2  0  0  0  0
 29 32  1  1  0  0  0
 29 31  1  0  0  0  0
 30 29  1  0  0  0  0
 30 31  1  0  0  0  0
 31 28  1  6  0  0  0
 33 34  1  0  0  0  0
 34 32  1  1  0  0  0
 35 33  1  0  0  0  0
 35 34  1  0  0  0  0
M  END
>  <MODEL>
9

>  <REMARK>
 VINA RESULT:      -6.6      3.298      8.567
  Name = 
  10 active torsions:
  status: ('A' for Active; 'I' for Inactive)
    1  A    between atoms: C_6  and  N_18
    2  A    between atoms: C_7  and  C_22
    3  A    between atoms: C_10  and  C_12
    4  A    between atoms: C_10  and  C_16
    5  A    between atoms: C_13  and  C_16
    6  A    between atoms: C_16  and  C_21
    7  A    between atoms: C_17  and  C_19
    8  A    between atoms: N_18  and  C_20
    9  A    between atoms: C_25  and  N_26
   10  A    between atoms: N_26  and  C_34
                            x       y       z     vdW  Elec       q    Type
                         _______ _______ _______ _____ _____    ______ ____

>  <TORSDO>
F 10

$$$$
