=
 OpenBabel11042419243D

 40 44  0  0  1  0  0  0  0  0999 V2000
  194.4810  173.4920  141.6930 N   0  0  0  0  0  2  0  0  0  0  0  0
  194.4360  173.4990  140.4020 C   0  0  0  0  0  2  0  0  0  0  0  0
  195.4420  176.7970  144.6370 C   0  0  0  0  0  3  0  0  0  0  0  0
  196.4690  176.9500  143.8520 N   0  0  0  0  0  0  0  0  0  0  0  0
  190.7220  172.2680  138.7190 C   0  0  0  0  0  0  0  0  0  0  0  0
  193.2410  172.8880  139.8100 C   0  0  0  0  0  0  0  0  0  0  0  0
  195.1230  174.4450  142.5230 C   0  0  0  0  0  0  0  0  0  0  0  0
  189.6640  172.7880  140.9790 C   0  0  0  0  0  2  0  0  0  0  0  0
  196.1880  175.3120  141.9960 C   0  0  0  0  0  3  0  0  0  0  0  0
  189.7670  174.3730  143.6810 S   0  0  0  0  0  0  0  0  0  0  0  0
  192.0860  172.9050  140.5980 C   0  0  0  0  0  3  0  0  0  0  0  0
  196.7700  176.3660  142.5740 C   0  0  0  0  0  3  0  0  0  0  0  0
  191.8820  172.2500  137.9120 C   0  0  0  0  0  3  0  0  0  0  0  0
  189.2660  174.1930  141.0080 N   0  0  0  0  0  0  0  0  0  0  0  0
  190.8970  175.7900  143.8930 C   0  0  2  0  0  3  0  0  0  0  0  0
  189.2260  174.9530  142.0660 C   0  0  0  0  0  0  0  0  0  0  0  0
  194.3640  174.7240  143.5660 C   0  0  0  0  0  3  0  0  0  0  0  0
  192.0200  175.3890  144.7400 N   0  0  0  0  0  2  0  0  0  0  0  0
  190.7200  177.6440  145.3890 O   0  0  0  0  0  0  0  0  0  0  0  0
  190.1590  176.9600  144.4940 C   0  0  0  0  0  0  0  0  0  0  0  0
  190.8400  172.6060  140.0770 C   0  0  0  0  0  0  0  0  0  0  0  0
  188.8490  177.3710  144.0690 N   0  0  0  0  0  0  0  0  0  0  0  0
  188.1720  177.0860  142.9940 C   0  0  0  0  0  0  0  0  0  0  0  0
  194.3030  175.9070  144.4060 C   0  0  0  0  0  0  0  0  0  0  0  0
  193.1360  172.5800  138.4500 C   0  0  0  0  0  3  0  0  0  0  0  0
  193.1510  176.2120  144.9260 N   0  0  0  0  0  0  0  0  0  0  0  0
  188.6620  176.2570  141.9330 N   0  0  0  0  0  2  0  0  0  0  0  0
  189.4600  171.9810  138.1850 O   0  0  0  0  0  0  0  0  0  0  0  0
  188.9350  172.6610  137.0520 C   0  0  0  0  0  2  0  0  0  0  0  0
  188.9040  174.1620  137.3030 C   0  0  2  0  0  3  0  0  0  0  0  0
  187.7360  174.5060  137.9860 O   0  0  0  0  0  1  0  0  0  0  0  0
  189.7040  174.0340  135.2450 C   0  0  0  0  0  1  0  0  0  0  0  0
  188.9680  174.8610  136.0950 O   0  0  0  0  0  0  0  0  0  0  0  0
  186.8290  177.7080  142.8240 C   0  0  0  0  0  2  0  0  0  0  0  0
  185.2120  179.3130  145.8560 C   0  0  0  0  0  3  0  0  0  0  0  0
  186.1620  177.8760  144.1510 C   0  0  0  0  0  0  0  0  0  0  0  0
  184.8930  178.1890  146.6240 C   0  0  0  0  0  3  0  0  0  0  0  0
  185.2000  176.9080  146.1540 C   0  0  0  0  0  3  0  0  0  0  0  0
  185.8450  179.1580  144.6190 C   0  0  0  0  0  3  0  0  0  0  0  0
  185.8320  176.7520  144.9160 C   0  0  0  0  0  3  0  0  0  0  0  0
  1  7  1  0  0  0  0
  2  1  1  0  0  0  0
  4  3  2  0  0  0  0
  5 21  1  0  0  0  0
  6  2  1  0  0  0  0
  6 11  1  0  0  0  0
  7 17  2  0  0  0  0
  8 14  1  0  0  0  0
  9  7  1  0  0  0  0
  9 12  2  0  0  0  0
 12  4  1  0  0  0  0
 13 25  1  0  0  0  0
 13  5  2  0  0  0  0
 14 16  2  0  0  0  0
 15 10  1  1  0  0  0
 15 20  1  0  0  0  0
 15 18  1  0  0  0  0
 16 10  1  0  0  0  0
 17 24  1  0  0  0  0
 18 26  1  0  0  0  0
 20 19  2  0  0  0  0
 21 11  2  0  0  0  0
 21  8  1  0  0  0  0
 22 20  1  0  0  0  0
 23 22  2  0  0  0  0
 24  3  1  0  0  0  0
 24 26  2  0  0  0  0
 25  6  2  0  0  0  0
 27 16  1  0  0  0  0
 27 23  1  0  0  0  0
 28  5  1  0  0  0  0
 29 30  1  0  0  0  0
 29 28  1  0  0  0  0
 30 31  1  6  0  0  0
 32 33  1  0  0  0  0
 33 30  1  0  0  0  0
 34 23  1  0  0  0  0
 34 36  1  0  0  0  0
 35 37  1  0  0  0  0
 36 39  1  0  0  0  0
 36 40  2  0  0  0  0
 38 37  2  0  0  0  0
 39 35  2  0  0  0  0
 40 38  1  0  0  0  0
M  END
>  <MODEL>
1

>  <REMARK>
 VINA RESULT:      -7.8      0.000      0.000
  Name = 
  6 active torsions:
  status: ('A' for Active; 'I' for Inactive)
    1  A    between atoms: C_4  and  C_22
    2  A    between atoms: C_7  and  O_13
    3  A    between atoms: C_10  and  O_13
    4  A    between atoms: C_10  and  C_28
    5  A    between atoms: C_22  and  C_35
    6  A    between atoms: C_28  and  O_30
                            x       y       z     vdW  Elec       q    Type
                         _______ _______ _______ _____ _____    ______ ____

>  <TORSDO>
F 6

$$$$
=
 OpenBabel11042419243D

 40 44  0  0  1  0  0  0  0  0999 V2000
  186.6670  175.9820  138.9080 N   0  0  0  0  0  2  0  0  0  0  0  0
  186.5250  177.1750  139.3800 C   0  0  0  0  0  2  0  0  0  0  0  0
  189.2540  174.4230  135.5330 C   0  0  0  0  0  3  0  0  0  0  0  0
  188.7090  175.4190  134.8970 N   0  0  0  0  0  0  0  0  0  0  0  0
  187.3330  177.5820  143.5420 C   0  0  0  0  0  0  0  0  0  0  0  0
  186.6010  177.2900  140.8400 C   0  0  0  0  0  0  0  0  0  0  0  0
  187.2090  175.6280  137.6470 C   0  0  0  0  0  0  0  0  0  0  0  0
  188.6470  175.4040  143.3750 C   0  0  0  0  0  2  0  0  0  0  0  0
  187.2660  176.6030  136.5480 C   0  0  0  0  0  3  0  0  0  0  0  0
  190.2590  173.3790  141.6070 S   0  0  0  0  0  0  0  0  0  0  0  0
  187.3570  176.3130  141.4960 C   0  0  0  0  0  3  0  0  0  0  0  0
  187.8900  176.5010  135.3710 C   0  0  0  0  0  3  0  0  0  0  0  0
  186.5700  178.5770  142.8900 C   0  0  0  0  0  3  0  0  0  0  0  0
  190.0280  175.7070  143.0060 N   0  0  0  0  0  0  0  0  0  0  0  0
  190.8310  173.8430  139.9370 C   0  0  2  0  0  3  0  0  0  0  0  0
  190.8180  174.9380  142.3100 C   0  0  0  0  0  0  0  0  0  0  0  0
  187.9980  174.5770  137.7700 C   0  0  0  0  0  3  0  0  0  0  0  0
  189.9950  173.1770  138.9380 N   0  0  0  0  0  2  0  0  0  0  0  0
  192.6560  172.9600  138.6740 O   0  0  0  0  0  0  0  0  0  0  0  0
  192.2820  173.4710  139.7620 C   0  0  0  0  0  0  0  0  0  0  0  0
  187.7280  176.4420  142.8210 C   0  0  0  0  0  0  0  0  0  0  0  0
  193.2850  173.7070  140.7630 N   0  0  0  0  0  0  0  0  0  0  0  0
  193.2800  174.4780  141.8110 C   0  0  0  0  0  0  0  0  0  0  0  0
  189.1180  174.1310  136.9610 C   0  0  0  0  0  0  0  0  0  0  0  0
  186.2220  178.4430  141.5350 C   0  0  0  0  0  3  0  0  0  0  0  0
  190.0740  173.4900  137.5650 N   0  0  0  0  0  0  0  0  0  0  0  0
  192.1850  175.3260  142.1780 N   0  0  0  0  0  2  0  0  0  0  0  0
  187.7210  177.7230  144.8790 O   0  0  0  0  0  0  0  0  0  0  0  0
  186.9920  177.1420  145.9540 C   0  0  0  0  0  2  0  0  0  0  0  0
  186.0840  178.1800  146.5980 C   0  0  2  0  0  3  0  0  0  0  0  0
  186.4350  178.3520  147.9390 O   0  0  0  0  0  1  0  0  0  0  0  0
  184.1370  178.7750  145.7360 C   0  0  0  0  0  1  0  0  0  0  0  0
  184.7480  177.7850  146.5070 O   0  0  0  0  0  0  0  0  0  0  0  0
  194.5090  174.5320  142.6500 C   0  0  0  0  0  2  0  0  0  0  0  0
  193.2020  174.8200  146.1990 C   0  0  0  0  0  3  0  0  0  0  0  0
  194.1930  175.0830  144.0020 C   0  0  0  0  0  0  0  0  0  0  0  0
  193.6210  176.1080  146.5420 C   0  0  0  0  0  3  0  0  0  0  0  0
  194.3330  176.8830  145.6200 C   0  0  0  0  0  3  0  0  0  0  0  0
  193.4890  174.3060  144.9300 C   0  0  0  0  0  3  0  0  0  0  0  0
  194.6220  176.3690  144.3510 C   0  0  0  0  0  3  0  0  0  0  0  0
  1  2  1  0  0  0  0
  2  6  1  0  0  0  0
  3 24  1  0  0  0  0
  4 12  1  0  0  0  0
  4  3  2  0  0  0  0
  5 28  1  0  0  0  0
  6 11  2  0  0  0  0
  6 25  1  0  0  0  0
  7 17  2  0  0  0  0
  7  1  1  0  0  0  0
  9  7  1  0  0  0  0
 10 16  1  0  0  0  0
 11 21  1  0  0  0  0
 12  9  2  0  0  0  0
 13  5  1  0  0  0  0
 14  8  1  0  0  0  0
 15 18  1  6  0  0  0
 15 10  1  0  0  0  0
 16 14  2  0  0  0  0
 19 20  2  0  0  0  0
 20 15  1  0  0  0  0
 20 22  1  0  0  0  0
 21  8  1  0  0  0  0
 21  5  2  0  0  0  0
 22 23  2  0  0  0  0
 23 27  1  0  0  0  0
 23 34  1  0  0  0  0
 24 26  2  0  0  0  0
 24 17  1  0  0  0  0
 25 13  2  0  0  0  0
 26 18  1  0  0  0  0
 27 16  1  0  0  0  0
 28 29  1  0  0  0  0
 29 30  1  0  0  0  0
 30 31  1  1  0  0  0
 32 33  1  0  0  0  0
 33 30  1  0  0  0  0
 34 36  1  0  0  0  0
 35 37  1  0  0  0  0
 36 40  2  0  0  0  0
 36 39  1  0  0  0  0
 38 37  2  0  0  0  0
 39 35  2  0  0  0  0
 40 38  1  0  0  0  0
M  END
>  <MODEL>
2

>  <REMARK>
 VINA RESULT:      -7.7      2.529      8.531
  Name = 
  6 active torsions:
  status: ('A' for Active; 'I' for Inactive)
    1  A    between atoms: C_4  and  C_22
    2  A    between atoms: C_7  and  O_13
    3  A    between atoms: C_10  and  O_13
    4  A    between atoms: C_10  and  C_28
    5  A    between atoms: C_22  and  C_35
    6  A    between atoms: C_28  and  O_30
                            x       y       z     vdW  Elec       q    Type
                         _______ _______ _______ _____ _____    ______ ____

>  <TORSDO>
F 6

$$$$
=
 OpenBabel11042419243D

 40 44  0  0  1  0  0  0  0  0999 V2000
  187.6160  174.8400  139.1210 N   0  0  0  0  0  2  0  0  0  0  0  0
  187.1800  176.0550  139.1000 C   0  0  0  0  0  2  0  0  0  0  0  0
  191.1650  172.9340  137.0510 C   0  0  0  0  0  3  0  0  0  0  0  0
  190.6480  173.5270  136.0140 N   0  0  0  0  0  0  0  0  0  0  0  0
  186.8600  177.9250  142.9140 C   0  0  0  0  0  0  0  0  0  0  0  0
  186.8740  176.6380  140.4110 C   0  0  0  0  0  0  0  0  0  0  0  0
  188.5010  174.2410  138.1900 C   0  0  0  0  0  0  0  0  0  0  0  0
  188.4930  176.1680  143.7770 C   0  0  0  0  0  2  0  0  0  0  0  0
  188.6780  174.8060  136.8430 C   0  0  0  0  0  3  0  0  0  0  0  0
  190.7820  174.1150  143.1710 S   0  0  0  0  0  0  0  0  0  0  0  0
  187.5850  176.1180  141.4970 C   0  0  0  0  0  3  0  0  0  0  0  0
  189.5820  174.4850  135.9140 C   0  0  0  0  0  3  0  0  0  0  0  0
  186.1400  178.4610  141.8230 C   0  0  0  0  0  3  0  0  0  0  0  0
  189.8590  176.6460  143.5780 N   0  0  0  0  0  0  0  0  0  0  0  0
  191.6720  174.1470  141.5780 C   0  0  2  0  0  3  0  0  0  0  0  0
  190.9040  175.9000  143.3580 C   0  0  0  0  0  0  0  0  0  0  0  0
  189.3860  173.4920  138.8200 C   0  0  0  0  0  3  0  0  0  0  0  0
  191.2220  173.0280  140.7510 N   0  0  0  0  0  2  0  0  0  0  0  0
  193.8660  173.3540  141.0650 O   0  0  0  0  0  0  0  0  0  0  0  0
  193.1610  174.0820  141.8110 C   0  0  0  0  0  0  0  0  0  0  0  0
  187.5910  176.7390  142.7330 C   0  0  0  0  0  0  0  0  0  0  0  0
  193.8360  174.8440  142.8250 N   0  0  0  0  0  0  0  0  0  0  0  0
  193.4540  175.8830  143.5090 C   0  0  0  0  0  0  0  0  0  0  0  0
  190.7270  173.0830  138.4400 C   0  0  0  0  0  0  0  0  0  0  0  0
  186.1630  177.8320  140.5680 C   0  0  0  0  0  3  0  0  0  0  0  0
  191.5900  172.9020  139.3950 N   0  0  0  0  0  0  0  0  0  0  0  0
  192.1850  176.5290  143.3440 N   0  0  0  0  0  2  0  0  0  0  0  0
  186.8790  178.5650  144.1590 O   0  0  0  0  0  0  0  0  0  0  0  0
  185.7980  179.3620  144.6260 C   0  0  0  0  0  2  0  0  0  0  0  0
  185.1560  178.7180  145.8470 C   0  0  2  0  0  3  0  0  0  0  0  0
  183.7730  178.9080  145.8130 O   0  0  0  0  0  1  0  0  0  0  0  0
  186.1810  178.1710  147.7280 C   0  0  0  0  0  1  0  0  0  0  0  0
  185.6790  179.2640  147.0210 O   0  0  0  0  0  0  0  0  0  0  0  0
  194.4140  176.4780  144.4800 C   0  0  0  0  0  2  0  0  0  0  0  0
  196.6480  173.8150  145.9970 C   0  0  0  0  0  3  0  0  0  0  0  0
  195.5690  175.5560  144.7010 C   0  0  0  0  0  0  0  0  0  0  0  0
  197.7210  173.8150  145.1020 C   0  0  0  0  0  3  0  0  0  0  0  0
  197.7180  174.6790  144.0020 C   0  0  0  0  0  3  0  0  0  0  0  0
  195.5700  174.6840  145.7960 C   0  0  0  0  0  3  0  0  0  0  0  0
  196.6400  175.5480  143.8000 C   0  0  0  0  0  3  0  0  0  0  0  0
  2  1  1  0  0  0  0
  2  6  1  0  0  0  0
  3 24  1  0  0  0  0
  4  3  2  0  0  0  0
  5 28  1  0  0  0  0
  6 25  2  0  0  0  0
  6 11  1  0  0  0  0
  7 17  2  0  0  0  0
  7  1  1  0  0  0  0
  9  7  1  0  0  0  0
 10 16  1  0  0  0  0
 11 21  2  0  0  0  0
 12  4  1  0  0  0  0
 12  9  2  0  0  0  0
 13  5  2  0  0  0  0
 14  8  1  0  0  0  0
 15 18  1  6  0  0  0
 15 20  1  0  0  0  0
 15 10  1  0  0  0  0
 16 14  2  0  0  0  0
 19 20  2  0  0  0  0
 20 22  1  0  0  0  0
 21  5  1  0  0  0  0
 21  8  1  0  0  0  0
 22 23  2  0  0  0  0
 23 34  1  0  0  0  0
 24 17  1  0  0  0  0
 24 26  2  0  0  0  0
 25 13  1  0  0  0  0
 26 18  1  0  0  0  0
 27 16  1  0  0  0  0
 27 23  1  0  0  0  0
 28 29  1  0  0  0  0
 29 30  1  0  0  0  0
 30 31  1  6  0  0  0
 30 33  1  0  0  0  0
 33 32  1  0  0  0  0
 34 36  1  0  0  0  0
 36 39  2  0  0  0  0
 37 35  2  0  0  0  0
 38 37  1  0  0  0  0
 39 35  1  0  0  0  0
 40 38  2  0  0  0  0
 40 36  1  0  0  0  0
M  END
>  <MODEL>
3

>  <REMARK>
 VINA RESULT:      -7.3      2.629      8.548
  Name = 
  6 active torsions:
  status: ('A' for Active; 'I' for Inactive)
    1  A    between atoms: C_4  and  C_22
    2  A    between atoms: C_7  and  O_13
    3  A    between atoms: C_10  and  O_13
    4  A    between atoms: C_10  and  C_28
    5  A    between atoms: C_22  and  C_35
    6  A    between atoms: C_28  and  O_30
                            x       y       z     vdW  Elec       q    Type
                         _______ _______ _______ _____ _____    ______ ____

>  <TORSDO>
F 6

$$$$
=
 OpenBabel11042419243D

 40 44  0  0  1  0  0  0  0  0999 V2000
  190.1750  175.7320  145.2480 N   0  0  0  0  0  2  0  0  0  0  0  0
  191.2000  176.4840  145.4750 C   0  0  0  0  0  2  0  0  0  0  0  0
  186.5000  176.4280  142.6950 C   0  0  0  0  0  3  0  0  0  0  0  0
  186.4750  177.5480  143.3570 N   0  0  0  0  0  2  0  0  0  0  0  0
  194.9670  174.7470  144.5110 C   0  0  0  0  0  0  0  0  0  0  0  0
  192.5050  175.8300  145.3410 C   0  0  0  0  0  0  0  0  0  0  0  0
  188.9190  176.1420  144.7370 C   0  0  0  0  0  0  0  0  0  0  0  0
  193.6970  173.1200  143.0150 C   0  0  0  0  0  2  0  0  0  0  0  0
  188.4900  177.5470  144.8210 C   0  0  0  0  0  3  0  0  0  0  0  0
  191.1420  172.4860  141.3130 S   0  0  0  0  0  0  0  0  0  0  0  0
  192.5600  174.7370  144.4690 C   0  0  0  0  0  3  0  0  0  0  0  0
  187.4380  178.1350  144.2460 C   0  0  0  0  0  3  0  0  0  0  0  0
  194.9250  175.8520  145.3900 C   0  0  0  0  0  3  0  0  0  0  0  0
  193.5490  173.7090  141.6860 N   0  0  0  0  0  0  0  0  0  0  0  0
  189.9640  173.8060  140.8650 C   0  0  2  0  0  3  0  0  0  0  0  0
  192.5600  173.4990  140.8640 C   0  0  0  0  0  0  0  0  0  0  0  0
  188.4790  175.2670  143.8520 C   0  0  0  0  0  3  0  0  0  0  0  0
  188.7590  173.6750  141.6840 N   0  0  0  0  0  2  0  0  0  0  0  0
  188.4380  173.8990  139.0300 O   0  0  0  0  0  0  0  0  0  0  0  0
  189.6300  173.7290  139.3970 C   0  0  0  0  0  0  0  0  0  0  0  0
  193.7600  174.1950  144.0490 C   0  0  0  0  0  0  0  0  0  0  0  0
  190.6140  173.5110  138.3720 N   0  0  0  0  0  0  0  0  0  0  0  0
  191.9100  173.6180  138.3970 C   0  0  0  0  0  0  0  0  0  0  0  0
  187.5640  175.4240  142.7360 C   0  0  0  0  0  0  0  0  0  0  0  0
  193.6980  176.4070  145.7890 C   0  0  0  0  0  3  0  0  0  0  0  0
  187.7520  174.6630  141.6980 N   0  0  0  0  0  2  0  0  0  0  0  0
  192.6590  174.0360  139.5460 N   0  0  0  0  0  2  0  0  0  0  0  0
  196.1840  174.2100  144.0740 O   0  0  0  0  0  0  0  0  0  0  0  0
  197.4030  174.9420  144.1170 C   0  0  0  0  0  2  0  0  0  0  0  0
  197.5540  175.7890  142.8610 C   0  0  2  0  0  3  0  0  0  0  0  0
  197.2000  177.1110  143.1330 O   0  0  0  0  0  1  0  0  0  0  0  0
  196.1640  176.4170  141.2600 C   0  0  0  0  0  1  0  0  0  0  0  0
  196.7510  175.2880  141.8340 O   0  0  0  0  0  0  0  0  0  0  0  0
  192.6620  173.3530  137.1390 C   0  0  0  0  0  2  0  0  0  0  0  0
  195.0260  176.0430  135.8900 C   0  0  0  0  0  3  0  0  0  0  0  0
  193.1720  174.6310  136.5570 C   0  0  0  0  0  0  0  0  0  0  0  0
  194.1240  177.0160  135.4470 C   0  0  0  0  0  3  0  0  0  0  0  0
  192.7470  176.7950  135.5510 C   0  0  0  0  0  3  0  0  0  0  0  0
  194.5500  174.8500  136.4430 C   0  0  0  0  0  3  0  0  0  0  0  0
  192.2710  175.6010  136.1040 C   0  0  0  0  0  3  0  0  0  0  0  0
  1  2  1  0  0  0  0
  3 24  2  0  0  0  0
  3  4  1  0  0  0  0
  4 12  1  0  0  0  0
  5 13  1  0  0  0  0
  6  2  1  0  0  0  0
  6 25  1  0  0  0  0
  7  9  1  0  0  0  0
  7  1  1  0  0  0  0
  8 21  1  0  0  0  0
 11  6  2  0  0  0  0
 12  9  2  0  0  0  0
 13 25  2  0  0  0  0
 14  8  1  0  0  0  0
 15 20  1  6  0  0  0
 15 10  1  0  0  0  0
 15 18  1  0  0  0  0
 16 10  1  0  0  0  0
 16 14  2  0  0  0  0
 17  7  2  0  0  0  0
 18 26  1  0  0  0  0
 19 20  2  0  0  0  0
 21 11  1  0  0  0  0
 21  5  2  0  0  0  0
 22 23  2  0  0  0  0
 22 20  1  0  0  0  0
 23 27  1  0  0  0  0
 24 17  1  0  0  0  0
 26 24  1  0  0  0  0
 27 16  1  0  0  0  0
 28 29  1  0  0  0  0
 28  5  1  0  0  0  0
 30 31  1  1  0  0  0
 30 29  1  0  0  0  0
 32 33  1  0  0  0  0
 33 30  1  0  0  0  0
 34 23  1  0  0  0  0
 35 39  1  0  0  0  0
 36 34  1  0  0  0  0
 37 38  1  0  0  0  0
 37 35  2  0  0  0  0
 38 40  2  0  0  0  0
 39 36  2  0  0  0  0
 40 36  1  0  0  0  0
M  END
>  <MODEL>
4

>  <REMARK>
 VINA RESULT:      -7.1      2.915      8.525
  Name = 
  6 active torsions:
  status: ('A' for Active; 'I' for Inactive)
    1  A    between atoms: C_4  and  C_22
    2  A    between atoms: C_7  and  O_13
    3  A    between atoms: C_10  and  O_13
    4  A    between atoms: C_10  and  C_28
    5  A    between atoms: C_22  and  C_35
    6  A    between atoms: C_28  and  O_30
                            x       y       z     vdW  Elec       q    Type
                         _______ _______ _______ _____ _____    ______ ____

>  <TORSDO>
F 6

$$$$
=
 OpenBabel11042419243D

 40 44  0  0  1  0  0  0  0  0999 V2000
  189.3000  175.9980  145.7600 N   0  0  0  0  0  2  0  0  0  0  0  0
  190.3470  176.6800  146.0860 C   0  0  0  0  0  2  0  0  0  0  0  0
  186.0400  176.8510  142.7340 C   0  0  0  0  0  3  0  0  0  0  0  0
  186.0260  178.0010  143.3430 N   0  0  0  0  0  2  0  0  0  0  0  0
  194.0480  174.6090  145.6780 C   0  0  0  0  0  0  0  0  0  0  0  0
  191.6010  175.9200  146.1440 C   0  0  0  0  0  0  0  0  0  0  0  0
  188.1550  176.4800  145.0780 C   0  0  0  0  0  0  0  0  0  0  0  0
  192.8410  173.0150  144.0980 C   0  0  0  0  0  2  0  0  0  0  0  0
  187.8380  177.9160  145.0510 C   0  0  0  0  0  3  0  0  0  0  0  0
  190.4730  172.4970  142.1100 S   0  0  0  0  0  0  0  0  0  0  0  0
  191.6710  174.7850  145.3310 C   0  0  0  0  0  3  0  0  0  0  0  0
  186.9170  178.5550  144.3240 C   0  0  0  0  0  3  0  0  0  0  0  0
  193.9890  175.7570  146.5010 C   0  0  0  0  0  3  0  0  0  0  0  0
  192.9080  173.5470  142.7390 N   0  0  0  0  0  0  0  0  0  0  0  0
  189.4730  173.8810  141.4640 C   0  0  2  0  0  3  0  0  0  0  0  0
  192.0140  173.3740  141.8060 C   0  0  0  0  0  0  0  0  0  0  0  0
  187.7570  175.5990  144.1790 C   0  0  0  0  0  3  0  0  0  0  0  0
  188.1690  173.8850  142.1280 N   0  0  0  0  0  2  0  0  0  0  0  0
  188.1990  174.0010  139.4480 O   0  0  0  0  0  0  0  0  0  0  0  0
  189.3180  173.7580  139.9700 C   0  0  0  0  0  0  0  0  0  0  0  0
  192.8650  174.1310  145.0890 C   0  0  0  0  0  0  0  0  0  0  0  0
  190.3990  173.4130  139.0880 N   0  0  0  0  0  0  0  0  0  0  0  0
  191.6870  173.4210  139.2740 C   0  0  0  0  0  0  0  0  0  0  0  0
  187.0030  175.7700  142.9490 C   0  0  0  0  0  0  0  0  0  0  0  0
  192.7730  176.4250  146.7170 C   0  0  0  0  0  3  0  0  0  0  0  0
  187.2540  174.9470  141.9750 N   0  0  0  0  0  2  0  0  0  0  0  0
  192.3200  173.8360  140.4910 N   0  0  0  0  0  2  0  0  0  0  0  0
  195.2600  173.9590  145.4210 O   0  0  0  0  0  0  0  0  0  0  0  0
  196.3960  174.6360  144.8970 C   0  0  0  0  0  2  0  0  0  0  0  0
  196.3520  174.6410  143.3760 C   0  0  2  0  0  3  0  0  0  0  0  0
  197.6380  174.4660  142.8620 O   0  0  0  0  0  1  0  0  0  0  0  0
  196.8160  176.7910  143.1380 C   0  0  0  0  0  1  0  0  0  0  0  0
  195.8170  175.8430  142.9070 O   0  0  0  0  0  0  0  0  0  0  0  0
  192.5640  173.0360  138.1330 C   0  0  0  0  0  2  0  0  0  0  0  0
  191.7690  169.3570  137.6660 C   0  0  0  0  0  3  0  0  0  0  0  0
  192.0940  171.7550  137.5240 C   0  0  0  0  0  0  0  0  0  0  0  0
  191.1930  169.3610  136.3920 C   0  0  0  0  0  3  0  0  0  0  0  0
  191.0590  170.5610  135.6860 C   0  0  0  0  0  3  0  0  0  0  0  0
  192.2180  170.5540  138.2330 C   0  0  0  0  0  3  0  0  0  0  0  0
  191.5070  171.7580  136.2540 C   0  0  0  0  0  3  0  0  0  0  0  0
  1  2  1  0  0  0  0
  2  6  1  0  0  0  0
  3 24  2  0  0  0  0
  3  4  1  0  0  0  0
  4 12  1  0  0  0  0
  5 13  1  0  0  0  0
  6 25  1  0  0  0  0
  7  1  1  0  0  0  0
  8 21  1  0  0  0  0
  9  7  1  0  0  0  0
 11  6  2  0  0  0  0
 12  9  2  0  0  0  0
 13 25  2  0  0  0  0
 14  8  1  0  0  0  0
 15 20  1  6  0  0  0
 15 10  1  0  0  0  0
 15 18  1  0  0  0  0
 16 10  1  0  0  0  0
 16 14  2  0  0  0  0
 17  7  2  0  0  0  0
 19 20  2  0  0  0  0
 21 11  1  0  0  0  0
 21  5  2  0  0  0  0
 22 23  2  0  0  0  0
 22 20  1  0  0  0  0
 23 27  1  0  0  0  0
 24 17  1  0  0  0  0
 26 18  1  0  0  0  0
 26 24  1  0  0  0  0
 27 16  1  0  0  0  0
 28  5  1  0  0  0  0
 29 28  1  0  0  0  0
 30 31  1  6  0  0  0
 30 29  1  0  0  0  0
 33 32  1  0  0  0  0
 33 30  1  0  0  0  0
 34 23  1  0  0  0  0
 35 39  1  0  0  0  0
 36 34  1  0  0  0  0
 36 39  2  0  0  0  0
 37 35  2  0  0  0  0
 38 40  2  0  0  0  0
 38 37  1  0  0  0  0
 40 36  1  0  0  0  0
M  END
>  <MODEL>
5

>  <REMARK>
 VINA RESULT:      -7.0      2.670      8.762
  Name = 
  6 active torsions:
  status: ('A' for Active; 'I' for Inactive)
    1  A    between atoms: C_4  and  C_22
    2  A    between atoms: C_7  and  O_13
    3  A    between atoms: C_10  and  O_13
    4  A    between atoms: C_10  and  C_28
    5  A    between atoms: C_22  and  C_35
    6  A    between atoms: C_28  and  O_30
                            x       y       z     vdW  Elec       q    Type
                         _______ _______ _______ _____ _____    ______ ____

>  <TORSDO>
F 6

$$$$
=
 OpenBabel11042419243D

 40 44  0  0  1  0  0  0  0  0999 V2000
  187.4480  174.7400  139.1670 N   0  0  0  0  0  2  0  0  0  0  0  0
  187.4410  176.0260  139.2760 C   0  0  0  0  0  2  0  0  0  0  0  0
  190.3990  171.9570  137.1530 C   0  0  0  0  0  3  0  0  0  0  0  0
  190.2360  172.7910  136.1680 N   0  0  0  0  0  0  0  0  0  0  0  0
  187.2900  177.5010  143.2700 C   0  0  0  0  0  0  0  0  0  0  0  0
  187.1860  176.5440  140.6250 C   0  0  0  0  0  0  0  0  0  0  0  0
  188.1940  173.9720  138.2380 C   0  0  0  0  0  0  0  0  0  0  0  0
  188.1370  175.2160  144.0160 C   0  0  0  0  0  2  0  0  0  0  0  0
  188.7100  174.5750  137.0000 C   0  0  0  0  0  3  0  0  0  0  0  0
  189.6820  172.5770  143.3250 S   0  0  0  0  0  0  0  0  0  0  0  0
  187.5480  175.7070  141.6850 C   0  0  0  0  0  3  0  0  0  0  0  0
  189.5640  174.0600  136.1120 C   0  0  0  0  0  3  0  0  0  0  0  0
  186.9240  178.3570  142.2060 C   0  0  0  0  0  3  0  0  0  0  0  0
  189.5980  175.2170  143.9960 N   0  0  0  0  0  0  0  0  0  0  0  0
  190.7200  172.4640  141.8290 C   0  0  2  0  0  3  0  0  0  0  0  0
  190.3590  174.1850  143.7620 C   0  0  0  0  0  0  0  0  0  0  0  0
  188.7000  172.9070  138.8310 C   0  0  0  0  0  3  0  0  0  0  0  0
  190.0320  171.6540  140.8240 N   0  0  0  0  0  2  0  0  0  0  0  0
  192.5770  171.0270  141.3930 O   0  0  0  0  0  0  0  0  0  0  0  0
  192.0640  171.8730  142.1710 C   0  0  0  0  0  0  0  0  0  0  0  0
  187.6070  176.1610  142.9890 C   0  0  0  0  0  0  0  0  0  0  0  0
  192.8240  172.2530  143.3300 N   0  0  0  0  0  0  0  0  0  0  0  0
  192.7230  173.2860  144.1150 C   0  0  0  0  0  0  0  0  0  0  0  0
  189.8680  172.1060  138.5090 C   0  0  0  0  0  0  0  0  0  0  0  0
  186.8920  177.8870  140.8830 C   0  0  0  0  0  3  0  0  0  0  0  0
  190.5010  171.5470  139.4980 N   0  0  0  0  0  0  0  0  0  0  0  0
  191.7670  174.3390  143.9370 N   0  0  0  0  0  2  0  0  0  0  0  0
  187.3650  177.9680  144.5870 O   0  0  0  0  0  0  0  0  0  0  0  0
  186.3010  178.6760  145.2110 C   0  0  0  0  0  2  0  0  0  0  0  0
  186.0210  178.0990  146.5920 C   0  0  2  0  0  3  0  0  0  0  0  0
  186.6180  176.8430  146.7130 O   0  0  0  0  0  1  0  0  0  0  0  0
  184.0640  178.6690  145.7340 C   0  0  0  0  0  1  0  0  0  0  0  0
  184.6450  177.9890  146.8060 O   0  0  0  0  0  0  0  0  0  0  0  0
  193.6990  173.4180  145.2320 C   0  0  0  0  0  2  0  0  0  0  0  0
  193.9750  176.9140  146.6760 C   0  0  0  0  0  3  0  0  0  0  0  0
  194.0930  174.8480  145.4140 C   0  0  0  0  0  0  0  0  0  0  0  0
  194.8470  177.5190  145.7650 C   0  0  0  0  0  3  0  0  0  0  0  0
  195.3490  176.7880  144.6830 C   0  0  0  0  0  3  0  0  0  0  0  0
  193.5990  175.5790  146.5020 C   0  0  0  0  0  3  0  0  0  0  0  0
  194.9740  175.4510  144.5100 C   0  0  0  0  0  3  0  0  0  0  0  0
  1  2  1  0  0  0  0
  2  6  1  0  0  0  0
  3 24  1  0  0  0  0
  4  3  2  0  0  0  0
  5 28  1  0  0  0  0
  6 25  2  0  0  0  0
  6 11  1  0  0  0  0
  7 17  2  0  0  0  0
  7  1  1  0  0  0  0
  9  7  1  0  0  0  0
 10 16  1  0  0  0  0
 11 21  2  0  0  0  0
 12  4  1  0  0  0  0
 12  9  2  0  0  0  0
 13  5  2  0  0  0  0
 14  8  1  0  0  0  0
 15 18  1  6  0  0  0
 15 20  1  0  0  0  0
 15 10  1  0  0  0  0
 16 27  1  0  0  0  0
 16 14  2  0  0  0  0
 19 20  2  0  0  0  0
 20 22  1  0  0  0  0
 21  5  1  0  0  0  0
 21  8  1  0  0  0  0
 22 23  2  0  0  0  0
 23 34  1  0  0  0  0
 24 17  1  0  0  0  0
 24 26  2  0  0  0  0
 25 13  1  0  0  0  0
 26 18  1  0  0  0  0
 27 23  1  0  0  0  0
 28 29  1  0  0  0  0
 29 30  1  0  0  0  0
 30 31  1  6  0  0  0
 30 33  1  0  0  0  0
 32 33  1  0  0  0  0
 34 36  1  0  0  0  0
 36 39  2  0  0  0  0
 37 35  2  0  0  0  0
 38 37  1  0  0  0  0
 39 35  1  0  0  0  0
 40 38  2  0  0  0  0
 40 36  1  0  0  0  0
M  END
>  <MODEL>
6

>  <REMARK>
 VINA RESULT:      -7.0      2.719      8.148
  Name = 
  6 active torsions:
  status: ('A' for Active; 'I' for Inactive)
    1  A    between atoms: C_4  and  C_22
    2  A    between atoms: C_7  and  O_13
    3  A    between atoms: C_10  and  O_13
    4  A    between atoms: C_10  and  C_28
    5  A    between atoms: C_22  and  C_35
    6  A    between atoms: C_28  and  O_30
                            x       y       z     vdW  Elec       q    Type
                         _______ _______ _______ _____ _____    ______ ____

>  <TORSDO>
F 6

$$$$
=
 OpenBabel11042419243D

 40 44  0  0  1  0  0  0  0  0999 V2000
  193.1560  171.4240  140.6270 N   0  0  0  0  0  2  0  0  0  0  0  0
  193.0860  172.0380  139.4930 C   0  0  0  0  0  2  0  0  0  0  0  0
  195.9480  172.0180  144.1430 C   0  0  0  0  0  3  0  0  0  0  0  0
  196.8490  171.9640  143.2050 N   0  0  0  0  0  0  0  0  0  0  0  0
  189.3030  173.7900  138.6190 C   0  0  0  0  0  0  0  0  0  0  0  0
  191.7420  172.4670  139.0910 C   0  0  0  0  0  0  0  0  0  0  0  0
  194.2570  171.4180  141.5200 C   0  0  0  0  0  0  0  0  0  0  0  0
  188.8130  173.6830  141.1180 C   0  0  0  0  0  2  0  0  0  0  0  0
  195.6120  171.7500  141.0530 C   0  0  0  0  0  3  0  0  0  0  0  0
  189.8990  173.5650  144.0560 S   0  0  0  0  0  0  0  0  0  0  0  0
  190.8360  172.7090  140.1290 C   0  0  0  0  0  3  0  0  0  0  0  0
  196.7150  171.9630  141.7740 C   0  0  0  0  0  3  0  0  0  0  0  0
  190.2110  173.5520  137.5630 C   0  0  0  0  0  3  0  0  0  0  0  0
  189.3090  174.9000  141.7550 N   0  0  0  0  0  0  0  0  0  0  0  0
  191.6490  173.9310  144.4230 C   0  0  2  0  0  3  0  0  0  0  0  0
  189.7500  174.9970  142.9780 C   0  0  0  0  0  0  0  0  0  0  0  0
  193.8340  171.5360  142.7640 C   0  0  0  0  0  3  0  0  0  0  0  0
  192.3520  172.6820  144.7150 N   0  0  0  0  0  2  0  0  0  0  0  0
  192.6290  174.6980  146.4620 O   0  0  0  0  0  0  0  0  0  0  0  0
  191.7490  174.8900  145.5830 C   0  0  0  0  0  0  0  0  0  0  0  0
  189.6350  173.3600  139.9150 C   0  0  0  0  0  0  0  0  0  0  0  0
  190.9120  176.0490  145.7240 N   0  0  0  0  0  0  0  0  0  0  0  0
  190.1640  176.6730  144.8600 C   0  0  0  0  0  0  0  0  0  0  0  0
  194.4980  172.0510  143.9480 C   0  0  0  0  0  0  0  0  0  0  0  0
  191.4380  172.9120  137.8000 C   0  0  0  0  0  3  0  0  0  0  0  0
  193.7550  172.6250  144.8480 N   0  0  0  0  0  0  0  0  0  0  0  0
  190.0480  176.2990  143.4810 N   0  0  0  0  0  2  0  0  0  0  0  0
  188.0950  174.4640  138.4040 O   0  0  0  0  0  0  0  0  0  0  0  0
  187.7420  175.0180  137.1420 C   0  0  0  0  0  2  0  0  0  0  0  0
  186.6050  176.0170  137.3040 C   0  0  2  0  0  3  0  0  0  0  0  0
  186.1100  176.3830  136.0510 O   0  0  0  0  0  1  0  0  0  0  0  0
  186.3210  177.1570  139.1780 C   0  0  0  0  0  1  0  0  0  0  0  0
  187.0470  177.1540  137.9860 O   0  0  0  0  0  0  0  0  0  0  0  0
  189.4310  177.8880  145.3120 C   0  0  0  0  0  2  0  0  0  0  0  0
  185.7060  177.3230  144.8720 C   0  0  0  0  0  3  0  0  0  0  0  0
  188.0050  177.5550  145.6080 C   0  0  0  0  0  0  0  0  0  0  0  0
  185.3390  176.9110  146.1570 C   0  0  0  0  0  3  0  0  0  0  0  0
  186.3020  176.8120  147.1650 C   0  0  0  0  0  3  0  0  0  0  0  0
  187.0400  177.6440  144.5970 C   0  0  0  0  0  3  0  0  0  0  0  0
  187.6360  177.1320  146.8890 C   0  0  0  0  0  3  0  0  0  0  0  0
  1  7  1  0  0  0  0
  2  1  1  0  0  0  0
  4  3  2  0  0  0  0
  5 21  1  0  0  0  0
  6  2  1  0  0  0  0
  6 11  1  0  0  0  0
  7 17  2  0  0  0  0
  8 14  1  0  0  0  0
  9  7  1  0  0  0  0
  9 12  2  0  0  0  0
 12  4  1  0  0  0  0
 13 25  1  0  0  0  0
 13  5  2  0  0  0  0
 14 16  2  0  0  0  0
 15 10  1  1  0  0  0
 15 18  1  0  0  0  0
 15 20  1  0  0  0  0
 16 27  1  0  0  0  0
 16 10  1  0  0  0  0
 17 24  1  0  0  0  0
 18 26  1  0  0  0  0
 20 22  1  0  0  0  0
 20 19  2  0  0  0  0
 21 11  2  0  0  0  0
 21  8  1  0  0  0  0
 23 34  1  0  0  0  0
 23 22  2  0  0  0  0
 24  3  1  0  0  0  0
 24 26  2  0  0  0  0
 25  6  2  0  0  0  0
 27 23  1  0  0  0  0
 28  5  1  0  0  0  0
 29 30  1  0  0  0  0
 29 28  1  0  0  0  0
 30 31  1  6  0  0  0
 30 33  1  0  0  0  0
 33 32  1  0  0  0  0
 34 36  1  0  0  0  0
 35 37  1  0  0  0  0
 36 40  2  0  0  0  0
 37 38  2  0  0  0  0
 39 35  2  0  0  0  0
 39 36  1  0  0  0  0
 40 38  1  0  0  0  0
M  END
>  <MODEL>
7

>  <REMARK>
 VINA RESULT:      -7.0      2.213      2.935
  Name = 
  6 active torsions:
  status: ('A' for Active; 'I' for Inactive)
    1  A    between atoms: C_4  and  C_22
    2  A    between atoms: C_7  and  O_13
    3  A    between atoms: C_10  and  O_13
    4  A    between atoms: C_10  and  C_28
    5  A    between atoms: C_22  and  C_35
    6  A    between atoms: C_28  and  O_30
                            x       y       z     vdW  Elec       q    Type
                         _______ _______ _______ _____ _____    ______ ____

>  <TORSDO>
F 6

$$$$
=
 OpenBabel11042419243D

 40 44  0  0  1  0  0  0  0  0999 V2000
  188.9790  175.9130  142.4980 N   0  0  0  0  0  2  0  0  0  0  0  0
  188.2860  174.9090  142.0760 C   0  0  0  0  0  2  0  0  0  0  0  0
  190.0660  177.1970  146.7030 C   0  0  0  0  0  3  0  0  0  0  0  0
  188.7880  177.0390  146.8880 N   0  0  0  0  0  2  0  0  0  0  0  0
  190.3060  172.3420  139.3420 C   0  0  0  0  0  0  0  0  0  0  0  0
  188.8930  174.1370  140.9860 C   0  0  0  0  0  0  0  0  0  0  0  0
  188.9820  176.4480  143.8110 C   0  0  0  0  0  0  0  0  0  0  0  0
  192.4880  173.3160  140.2290 C   0  0  0  0  0  2  0  0  0  0  0  0
  187.8640  176.1970  144.7330 C   0  0  0  0  0  3  0  0  0  0  0  0
  194.0350  174.7350  142.5570 S   0  0  0  0  0  0  0  0  0  0  0  0
  190.2900  174.1620  140.9180 C   0  0  0  0  0  3  0  0  0  0  0  0
  187.7800  176.4680  146.0380 C   0  0  0  0  0  3  0  0  0  0  0  0
  188.8950  172.3060  139.4040 C   0  0  0  0  0  3  0  0  0  0  0  0
  192.9220  172.5390  141.3880 N   0  0  0  0  0  0  0  0  0  0  0  0
  193.3160  174.8400  144.2310 C   0  0  2  0  0  3  0  0  0  0  0  0
  193.6020  172.9960  142.4020 C   0  0  0  0  0  0  0  0  0  0  0  0
  190.2140  176.7480  144.1770 C   0  0  0  0  0  3  0  0  0  0  0  0
  192.8470  176.2060  144.4700 N   0  0  0  0  0  2  0  0  0  0  0  0
  194.4270  175.0930  146.3310 O   0  0  0  0  0  0  0  0  0  0  0  0
  194.3370  174.4320  145.2630 C   0  0  0  0  0  0  0  0  0  0  0  0
  191.0000  173.2860  140.1180 C   0  0  0  0  0  0  0  0  0  0  0  0
  195.1990  173.2920  145.1150 N   0  0  0  0  0  0  0  0  0  0  0  0
  195.1290  172.2680  144.3150 C   0  0  0  0  0  0  0  0  0  0  0  0
  190.8150  176.8470  145.4950 C   0  0  0  0  0  0  0  0  0  0  0  0
  188.1890  173.1860  140.2400 C   0  0  0  0  0  3  0  0  0  0  0  0
  192.0760  176.5460  145.6010 N   0  0  0  0  0  2  0  0  0  0  0  0
  194.0730  172.0580  143.3690 N   0  0  0  0  0  2  0  0  0  0  0  0
  191.0230  171.4430  138.5440 O   0  0  0  0  0  0  0  0  0  0  0  0
  190.8490  170.0340  138.6310 C   0  0  0  0  0  2  0  0  0  0  0  0
  191.6490  169.4750  139.7990 C   0  0  2  0  0  3  0  0  0  0  0  0
  192.5930  168.5580  139.3330 O   0  0  0  0  0  1  0  0  0  0  0  0
  190.8180  169.6880  141.8370 C   0  0  0  0  0  1  0  0  0  0  0  0
  190.8010  168.8520  140.7190 O   0  0  0  0  0  0  0  0  0  0  0  0
  196.1760  171.2140  144.4290 C   0  0  0  0  0  2  0  0  0  0  0  0
  194.3020  168.7810  146.6550 C   0  0  0  0  0  3  0  0  0  0  0  0
  195.8540  170.2800  145.5500 C   0  0  0  0  0  0  0  0  0  0  0  0
  195.2610  168.5140  147.6370 C   0  0  0  0  0  3  0  0  0  0  0  0
  196.5200  169.1210  147.5720 C   0  0  0  0  0  3  0  0  0  0  0  0
  194.5980  169.6630  145.6110 C   0  0  0  0  0  3  0  0  0  0  0  0
  196.8170  170.0030  146.5270 C   0  0  0  0  0  3  0  0  0  0  0  0
  1  7  1  0  0  0  0
  2  1  1  0  0  0  0
  3  4  1  0  0  0  0
  5 13  2  0  0  0  0
  5 21  1  0  0  0  0
  6  2  1  0  0  0  0
  7 17  2  0  0  0  0
  7  9  1  0  0  0  0
  8 14  1  0  0  0  0
  9 12  2  0  0  0  0
 11  6  1  0  0  0  0
 12  4  1  0  0  0  0
 13 25  1  0  0  0  0
 14 16  2  0  0  0  0
 15 10  1  6  0  0  0
 15 18  1  0  0  0  0
 15 20  1  0  0  0  0
 16 10  1  0  0  0  0
 16 27  1  0  0  0  0
 17 24  1  0  0  0  0
 18 26  1  0  0  0  0
 20 19  2  0  0  0  0
 21  8  1  0  0  0  0
 21 11  2  0  0  0  0
 22 20  1  0  0  0  0
 23 34  1  0  0  0  0
 23 22  2  0  0  0  0
 24 26  1  0  0  0  0
 24  3  2  0  0  0  0
 25  6  2  0  0  0  0
 27 23  1  0  0  0  0
 28 29  1  0  0  0  0
 28  5  1  0  0  0  0
 29 30  1  0  0  0  0
 30 31  1  6  0  0  0
 30 33  1  0  0  0  0
 33 32  1  0  0  0  0
 34 36  1  0  0  0  0
 35 37  1  0  0  0  0
 36 39  1  0  0  0  0
 36 40  2  0  0  0  0
 38 37  2  0  0  0  0
 39 35  2  0  0  0  0
 40 38  1  0  0  0  0
M  END
>  <MODEL>
8

>  <REMARK>
 VINA RESULT:      -6.9      3.352      7.496
  Name = 
  6 active torsions:
  status: ('A' for Active; 'I' for Inactive)
    1  A    between atoms: C_4  and  C_22
    2  A    between atoms: C_7  and  O_13
    3  A    between atoms: C_10  and  O_13
    4  A    between atoms: C_10  and  C_28
    5  A    between atoms: C_22  and  C_35
    6  A    between atoms: C_28  and  O_30
                            x       y       z     vdW  Elec       q    Type
                         _______ _______ _______ _____ _____    ______ ____

>  <TORSDO>
F 6

$$$$
=
 OpenBabel11042419243D

 40 44  0  0  1  0  0  0  0  0999 V2000
  194.2960  175.6890  145.5270 N   0  0  0  0  0  2  0  0  0  0  0  0
  193.4900  175.4590  146.5100 C   0  0  0  0  0  2  0  0  0  0  0  0
  197.4850  173.0820  143.6450 C   0  0  0  0  0  3  0  0  0  0  0  0
  197.8420  172.9350  144.8870 N   0  0  0  0  0  2  0  0  0  0  0  0
  189.3530  175.8900  145.5940 C   0  0  0  0  0  0  0  0  0  0  0  0
  192.0850  175.7990  146.2660 C   0  0  0  0  0  0  0  0  0  0  0  0
  195.4870  174.9820  145.2250 C   0  0  0  0  0  0  0  0  0  0  0  0
  189.9940  175.6240  143.1410 C   0  0  0  0  0  2  0  0  0  0  0  0
  196.1760  174.1860  146.2520 C   0  0  0  0  0  3  0  0  0  0  0  0
  192.0170  174.5430  141.0050 S   0  0  0  0  0  0  0  0  0  0  0  0
  191.6650  175.7640  144.9330 C   0  0  0  0  0  3  0  0  0  0  0  0
  197.1900  173.3300  146.1050 C   0  0  0  0  0  3  0  0  0  0  0  0
  189.7650  175.9250  146.9450 C   0  0  0  0  0  3  0  0  0  0  0  0
  189.9940  174.2030  142.7990 N   0  0  0  0  0  0  0  0  0  0  0  0
  193.3130  173.3420  141.4660 C   0  0  2  0  0  3  0  0  0  0  0  0
  190.7530  173.6330  141.9060 C   0  0  0  0  0  0  0  0  0  0  0  0
  195.5810  174.7850  143.9240 C   0  0  0  0  0  3  0  0  0  0  0  0
  194.6060  174.0240  141.5180 N   0  0  0  0  0  2  0  0  0  0  0  0
  194.4540  171.7600  140.0880 O   0  0  0  0  0  0  0  0  0  0  0  0
  193.3430  172.2030  140.4780 C   0  0  0  0  0  0  0  0  0  0  0  0
  190.3270  175.8050  144.5850 C   0  0  0  0  0  0  0  0  0  0  0  0
  192.1590  171.5580  139.9790 N   0  0  0  0  0  0  0  0  0  0  0  0
  190.9340  171.5670  140.4160 C   0  0  0  0  0  0  0  0  0  0  0  0
  196.2810  173.7620  143.1660 C   0  0  0  0  0  0  0  0  0  0  0  0
  191.1260  175.8580  147.2830 C   0  0  0  0  0  3  0  0  0  0  0  0
  195.7630  173.4000  142.0300 N   0  0  0  0  0  2  0  0  0  0  0  0
  190.5070  172.2630  141.5940 N   0  0  0  0  0  2  0  0  0  0  0  0
  187.9980  175.9150  145.2450 O   0  0  0  0  0  0  0  0  0  0  0  0
  187.2050  177.0930  145.3340 C   0  0  0  0  0  2  0  0  0  0  0  0
  185.9110  176.8030  146.0820 C   0  0  2  0  0  3  0  0  0  0  0  0
  184.9090  177.6750  145.6540 O   0  0  0  0  0  1  0  0  0  0  0  0
  186.4270  178.2870  147.6380 C   0  0  0  0  0  1  0  0  0  0  0  0
  186.1010  176.9410  147.4590 O   0  0  0  0  0  0  0  0  0  0  0  0
  189.9210  170.7540  139.6860 C   0  0  0  0  0  2  0  0  0  0  0  0
  190.0240  170.7270  135.8950 C   0  0  0  0  0  3  0  0  0  0  0  0
  189.8230  171.2010  138.2640 C   0  0  0  0  0  0  0  0  0  0  0  0
  189.6170  172.0320  135.6010 C   0  0  0  0  0  3  0  0  0  0  0  0
  189.3030  172.9200  136.6350 C   0  0  0  0  0  3  0  0  0  0  0  0
  190.1260  170.3110  137.2260 C   0  0  0  0  0  3  0  0  0  0  0  0
  189.4040  172.5030  137.9670 C   0  0  0  0  0  3  0  0  0  0  0  0
  1  2  1  0  0  0  0
  3  4  1  0  0  0  0
  4 12  1  0  0  0  0
  5 13  1  0  0  0  0
  6  2  1  0  0  0  0
  6 25  1  0  0  0  0
  7  1  1  0  0  0  0
  7  9  1  0  0  0  0
  8 21  1  0  0  0  0
 10 15  1  0  0  0  0
 10 16  1  0  0  0  0
 11  6  2  0  0  0  0
 12  9  2  0  0  0  0
 13 25  2  0  0  0  0
 14  8  1  0  0  0  0
 15 20  1  6  0  0  0
 15 18  1  0  0  0  0
 16 14  2  0  0  0  0
 17  7  2  0  0  0  0
 18 26  1  0  0  0  0
 19 20  2  0  0  0  0
 21 11  1  0  0  0  0
 21  5  2  0  0  0  0
 22 23  2  0  0  0  0
 22 20  1  0  0  0  0
 23 27  1  0  0  0  0
 24  3  2  0  0  0  0
 24 17  1  0  0  0  0
 26 24  1  0  0  0  0
 27 16  1  0  0  0  0
 28 29  1  0  0  0  0
 28  5  1  0  0  0  0
 29 30  1  0  0  0  0
 30 31  1  6  0  0  0
 30 33  1  0  0  0  0
 33 32  1  0  0  0  0
 34 23  1  0  0  0  0
 35 39  1  0  0  0  0
 36 34  1  0  0  0  0
 37 35  2  0  0  0  0
 37 38  1  0  0  0  0
 38 40  2  0  0  0  0
 39 36  2  0  0  0  0
 40 36  1  0  0  0  0
M  END
>  <MODEL>
9

>  <REMARK>
 VINA RESULT:      -6.8      2.677      7.767
  Name = 
  6 active torsions:
  status: ('A' for Active; 'I' for Inactive)
    1  A    between atoms: C_4  and  C_22
    2  A    between atoms: C_7  and  O_13
    3  A    between atoms: C_10  and  O_13
    4  A    between atoms: C_10  and  C_28
    5  A    between atoms: C_22  and  C_35
    6  A    between atoms: C_28  and  O_30
                            x       y       z     vdW  Elec       q    Type
                         _______ _______ _______ _____ _____    ______ ____

>  <TORSDO>
F 6

$$$$
