=
 OpenBabel11042416563D

 35 39  0  0  1  0  0  0  0  0999 V2000
  189.7450  174.2400  141.9240 N   0  0  0  0  0  0  0  0  0  0  0  0
  189.7160  175.2100  144.1690 C   0  0  0  0  0  2  0  0  0  0  0  0
  187.9410  176.5940  146.7210 C   0  0  0  0  0  0  0  0  0  0  0  0
  188.5580  177.6270  145.9450 N   0  0  0  0  0  2  0  0  0  0  0  0
  190.3790  178.5380  144.7210 N   0  0  0  0  0  0  0  0  0  0  0  0
  190.4980  176.2130  144.9530 C   0  0  2  0  0  3  0  0  0  0  0  0
  189.7840  177.5000  145.2140 C   0  0  0  0  0  0  0  0  0  0  0  0
  191.5980  178.1600  144.0160 C   0  0  0  0  0  2  0  0  0  0  0  0
  190.2520  175.0960  142.9610 C   0  0  0  0  0  0  0  0  0  0  0  0
  191.4730  176.6860  143.9420 C   0  0  2  0  0  3  0  0  0  0  0  0
  191.3150  176.0760  142.7780 C   0  0  0  0  0  3  0  0  0  0  0  0
  188.5680  175.5380  147.0080 O   0  0  0  0  0  0  0  0  0  0  0  0
  184.4980  177.8020  146.3590 C   0  0  0  0  0  2  0  0  0  0  0  0
  186.5610  176.8010  147.2550 C   0  0  1  0  0  3  0  0  0  0  0  0
  185.9590  178.0660  146.6650 C   0  0  1  0  0  3  0  0  0  0  0  0
  185.5400  176.7250  146.1320 C   0  0  2  0  0  3  0  0  0  0  0  0
  190.6410  173.3630  141.1690 C   0  0  0  0  0  2  0  0  0  0  0  0
  191.4740  172.5210  142.1190 C   0  0  0  0  0  2  0  0  0  0  0  0
  190.6880  171.4950  142.6430 O   0  0  0  0  0  0  0  0  0  0  0  0
  190.9270  171.5330  144.0170 C   0  0  0  0  0  3  0  0  0  0  0  0
  189.7790  171.9690  144.6770 O   0  0  0  0  0  1  0  0  0  0  0  0
  191.9760  172.4110  144.2840 O   0  0  0  0  0  1  0  0  0  0  0  0
  188.3350  174.3380  141.5460 C   0  0  2  0  0  3  0  0  0  0  0  0
  187.8030  172.5930  139.8440 O   0  0  0  0  0  0  0  0  0  0  0  0
  187.2640  172.2490  142.0440 O   0  0  0  0  0  1  0  0  0  0  0  0
  187.7780  172.9990  141.1720 C   0  0  0  0  0  0  0  0  0  0  0  0
  188.1290  175.3860  140.4530 C   0  0  0  0  0  2  0  0  0  0  0  0
  187.3770  176.8090  142.2670 C   0  0  0  0  0  3  0  0  0  0  0  0
  184.6970  178.0630  141.4600 C   0  0  0  0  0  0  0  0  0  0  0  0
  183.2200  178.2050  141.3810 C   0  0  0  0  0  1  0  0  0  0  0  0
  186.6020  177.3670  139.9780 C   0  0  0  0  0  3  0  0  0  0  0  0
  185.2610  178.0230  142.6680 C   0  0  0  0  0  3  0  0  0  0  0  0
  186.7370  178.0060  142.8880 C   0  0  0  0  0  2  0  0  0  0  0  0
  187.3350  176.5420  140.9610 C   0  0  0  0  0  0  0  0  0  0  0  0
  185.4560  178.0270  140.1950 C   0  0  0  0  0  3  0  0  0  0  0  0
  1  9  1  0  0  0  0
  3 12  2  0  0  0  0
  4  3  1  0  0  0  0
  5  7  2  0  0  0  0
  6  2  1  6  0  0  0
  6  7  1  0  0  0  0
  7  4  1  0  0  0  0
  8  5  1  0  0  0  0
  9  2  1  0  0  0  0
 10 11  1  6  0  0  0
 10  8  1  0  0  0  0
 10  6  1  0  0  0  0
 11  9  2  0  0  0  0
 14  3  1  6  0  0  0
 15 13  1  1  0  0  0
 15 14  1  0  0  0  0
 16 13  1  1  0  0  0
 16 15  1  0  0  0  0
 16 14  1  0  0  0  0
 17  1  1  0  0  0  0
 17 18  1  0  0  0  0
 18 19  1  0  0  0  0
 19 20  1  0  0  0  0
 20 22  1  0  0  0  0
 20 21  1  0  0  0  0
 23 27  1  6  0  0  0
 23  1  1  0  0  0  0
 24 26  2  0  0  0  0
 26 23  1  0  0  0  0
 26 25  1  0  0  0  0
 27 34  1  0  0  0  0
 28 33  1  0  0  0  0
 29 32  2  0  0  0  0
 30 29  1  0  0  0  0
 31 35  2  0  0  0  0
 31 34  1  0  0  0  0
 32 33  1  0  0  0  0
 34 28  2  0  0  0  0
 35 29  1  0  0  0  0
M  END
>  <MODEL>
1

>  <REMARK>
 VINA RESULT:      -6.7      0.000      0.000
  Name = 
  10 active torsions:
  status: ('A' for Active; 'I' for Inactive)
    1  A    between atoms: C_2  and  O_19
    2  A    between atoms: C_7  and  C_17
    3  A    between atoms: C_7  and  N_29
    4  A    between atoms: C_8  and  C_15
    5  A    between atoms: C_11  and  C_18
    6  A    between atoms: C_11  and  C_22
    7  A    between atoms: C_11  and  N_29
    8  A    between atoms: C_17  and  O_19
    9  A    between atoms: C_18  and  C_33
   10  A    between atoms: C_26  and  N_29
                            x       y       z     vdW  Elec       q    Type
                         _______ _______ _______ _____ _____    ______ ____

>  <TORSDO>
F 10

$$$$
=
 OpenBabel11042416563D

 35 39  0  0  1  0  0  0  0  0999 V2000
  188.5080  176.8030  145.8480 N   0  0  0  0  0  0  0  0  0  0  0  0
  187.7180  175.6550  143.8370 C   0  0  0  0  0  2  0  0  0  0  0  0
  188.4050  173.6910  141.1460 C   0  0  0  0  0  0  0  0  0  0  0  0
  188.3810  175.0660  140.7470 N   0  0  0  0  0  2  0  0  0  0  0  0
  187.4720  177.2600  140.8060 N   0  0  0  0  0  0  0  0  0  0  0  0
  186.8590  175.9600  142.6520 C   0  0  2  0  0  3  0  0  0  0  0  0
  187.5990  176.0970  141.3610 C   0  0  0  0  0  0  0  0  0  0  0  0
  186.6400  178.1410  141.6160 C   0  0  0  0  0  2  0  0  0  0  0  0
  187.7550  176.7220  144.6260 C   0  0  0  0  0  0  0  0  0  0  0  0
  186.5260  177.3850  142.8860 C   0  0  2  0  0  3  0  0  0  0  0  0
  187.0690  177.8460  144.0010 C   0  0  0  0  0  3  0  0  0  0  0  0
  187.5420  173.2340  141.9440 O   0  0  0  0  0  0  0  0  0  0  0  0
  191.8750  172.5980  140.6910 C   0  0  0  0  0  2  0  0  0  0  0  0
  189.4230  172.7720  140.5540 C   0  0  1  0  0  3  0  0  0  0  0  0
  190.7270  173.5180  140.3250 C   0  0  1  0  0  3  0  0  0  0  0  0
  190.5960  172.5950  141.5040 C   0  0  2  0  0  3  0  0  0  0  0  0
  188.0880  177.6940  146.9310 C   0  0  0  0  0  2  0  0  0  0  0  0
  186.6700  177.3620  147.3620 C   0  0  0  0  0  2  0  0  0  0  0  0
  185.9130  178.5330  147.4100 O   0  0  0  0  0  0  0  0  0  0  0  0
  184.6590  178.1630  146.9220 C   0  0  0  0  0  3  0  0  0  0  0  0
  184.7160  176.8560  146.4390 O   0  0  0  0  0  1  0  0  0  0  0  0
  184.2880  179.0230  145.8890 O   0  0  0  0  0  1  0  0  0  0  0  0
  189.7710  176.0730  145.9550 C   0  0  2  0  0  3  0  0  0  0  0  0
  188.8790  174.3750  147.5510 O   0  0  0  0  0  0  0  0  0  0  0  0
  190.7820  175.5430  148.0670 O   0  0  0  0  0  1  0  0  0  0  0  0
  189.8530  175.3160  147.2450 C   0  0  0  0  0  0  0  0  0  0  0  0
  190.9650  177.0020  145.7430 C   0  0  0  0  0  2  0  0  0  0  0  0
  191.9070  175.7690  143.8780 C   0  0  0  0  0  3  0  0  0  0  0  0
  194.1860  174.0120  144.9390 C   0  0  0  0  0  0  0  0  0  0  0  0
  194.8410  172.7820  145.4560 C   0  0  0  0  0  1  0  0  0  0  0  0
  193.3900  176.2290  145.8130 C   0  0  0  0  0  3  0  0  0  0  0  0
  193.5770  173.9490  143.7550 C   0  0  0  0  0  3  0  0  0  0  0  0
  192.9890  175.1360  143.0670 C   0  0  0  0  0  2  0  0  0  0  0  0
  192.0980  176.2790  145.0960 C   0  0  0  0  0  0  0  0  0  0  0  0
  194.2960  175.2440  145.7450 C   0  0  0  0  0  3  0  0  0  0  0  0
  1 23  1  0  0  0  0
  1 17  1  0  0  0  0
  2  9  1  0  0  0  0
  3 12  2  0  0  0  0
  4  3  1  0  0  0  0
  4  7  1  0  0  0  0
  5  7  2  0  0  0  0
  5  8  1  0  0  0  0
  6 10  1  0  0  0  0
  6  2  1  1  0  0  0
  7  6  1  0  0  0  0
  9  1  1  0  0  0  0
 10  8  1  6  0  0  0
 10 11  1  0  0  0  0
 11  9  2  0  0  0  0
 14  3  1  1  0  0  0
 14 16  1  0  0  0  0
 15 14  1  0  0  0  0
 15 13  1  6  0  0  0
 15 16  1  0  0  0  0
 16 13  1  6  0  0  0
 17 18  1  0  0  0  0
 18 19  1  0  0  0  0
 20 19  1  0  0  0  0
 21 20  1  0  0  0  0
 22 20  1  0  0  0  0
 23 27  1  1  0  0  0
 23 26  1  0  0  0  0
 26 24  2  0  0  0  0
 26 25  1  0  0  0  0
 28 34  2  0  0  0  0
 29 30  1  0  0  0  0
 29 35  1  0  0  0  0
 32 29  2  0  0  0  0
 33 32  1  0  0  0  0
 33 28  1  0  0  0  0
 34 27  1  0  0  0  0
 34 31  1  0  0  0  0
 35 31  2  0  0  0  0
M  END
>  <MODEL>
2

>  <REMARK>
 VINA RESULT:      -6.7      2.362      7.609
  Name = 
  10 active torsions:
  status: ('A' for Active; 'I' for Inactive)
    1  A    between atoms: C_2  and  O_19
    2  A    between atoms: C_7  and  C_17
    3  A    between atoms: C_7  and  N_29
    4  A    between atoms: C_8  and  C_15
    5  A    between atoms: C_11  and  C_18
    6  A    between atoms: C_11  and  C_22
    7  A    between atoms: C_11  and  N_29
    8  A    between atoms: C_17  and  O_19
    9  A    between atoms: C_18  and  C_33
   10  A    between atoms: C_26  and  N_29
                            x       y       z     vdW  Elec       q    Type
                         _______ _______ _______ _____ _____    ______ ____

>  <TORSDO>
F 10

$$$$
=
 OpenBabel11042416563D

 35 39  0  0  1  0  0  0  0  0999 V2000
  188.0460  176.8870  143.4950 N   0  0  0  0  0  0  0  0  0  0  0  0
  188.7410  174.5690  143.1370 C   0  0  0  0  0  2  0  0  0  0  0  0
  191.1080  172.1510  143.4930 C   0  0  0  0  0  0  0  0  0  0  0  0
  191.1740  172.7010  142.1720 N   0  0  0  0  0  2  0  0  0  0  0  0
  190.1700  173.5340  140.1860 N   0  0  0  0  0  0  0  0  0  0  0  0
  188.7290  173.5670  142.0290 C   0  0  2  0  0  3  0  0  0  0  0  0
  190.0710  173.2590  141.4470 C   0  0  0  0  0  0  0  0  0  0  0  0
  188.9280  174.0970  139.6710 C   0  0  0  0  0  2  0  0  0  0  0  0
  188.1830  175.6930  142.7060 C   0  0  0  0  0  0  0  0  0  0  0  0
  188.1660  174.3640  140.9140 C   0  0  2  0  0  3  0  0  0  0  0  0
  187.8830  175.6030  141.2820 C   0  0  0  0  0  3  0  0  0  0  0  0
  189.9970  171.9050  144.0370 O   0  0  0  0  0  0  0  0  0  0  0  0
  194.3380  173.0750  144.9610 C   0  0  0  0  0  2  0  0  0  0  0  0
  192.3730  171.8000  144.2050 C   0  0  1  0  0  3  0  0  0  0  0  0
  193.4980  172.7150  143.7510 C   0  0  1  0  0  3  0  0  0  0  0  0
  192.8320  172.9570  145.0770 C   0  0  2  0  0  3  0  0  0  0  0  0
  187.7930  178.1810  142.8600 C   0  0  0  0  0  2  0  0  0  0  0  0
  186.3010  178.3830  142.6550 C   0  0  0  0  0  2  0  0  0  0  0  0
  185.8500  179.4030  143.4920 O   0  0  0  0  0  0  0  0  0  0  0  0
  184.4880  179.1500  143.6560 C   0  0  0  0  0  3  0  0  0  0  0  0
  184.1790  179.1320  145.0150 O   0  0  0  0  0  1  0  0  0  0  0  0
  184.1720  177.9150  143.0930 O   0  0  0  0  0  1  0  0  0  0  0  0
  188.2790  176.8180  144.9370 C   0  0  2  0  0  3  0  0  0  0  0  0
  185.8900  176.3120  145.4450 O   0  0  0  0  0  0  0  0  0  0  0  0
  186.9660  177.9960  146.5650 O   0  0  0  0  0  1  0  0  0  0  0  0
  187.0190  177.0760  145.7050 C   0  0  0  0  0  0  0  0  0  0  0  0
  189.4220  177.7420  145.3560 C   0  0  0  0  0  2  0  0  0  0  0  0
  190.9750  176.5620  146.7970 C   0  0  0  0  0  3  0  0  0  0  0  0
  193.7530  176.6530  145.4990 C   0  0  0  0  0  0  0  0  0  0  0  0
  195.1270  177.1530  145.2390 C   0  0  0  0  0  1  0  0  0  0  0  0
  191.5060  176.6550  144.3750 C   0  0  0  0  0  3  0  0  0  0  0  0
  193.4340  176.3090  146.7480 C   0  0  0  0  0  3  0  0  0  0  0  0
  192.1340  175.6790  147.1220 C   0  0  0  0  0  2  0  0  0  0  0  0
  190.6840  176.9740  145.5620 C   0  0  0  0  0  0  0  0  0  0  0  0
  192.8380  176.5160  144.3480 C   0  0  0  0  0  3  0  0  0  0  0  0
  1 23  1  0  0  0  0
  3 12  2  0  0  0  0
  4  3  1  0  0  0  0
  5  7  2  0  0  0  0
  6  2  1  1  0  0  0
  7  6  1  0  0  0  0
  7  4  1  0  0  0  0
  8  5  1  0  0  0  0
  9  2  1  0  0  0  0
  9  1  1  0  0  0  0
 10  8  1  6  0  0  0
 10 11  1  0  0  0  0
 10  6  1  0  0  0  0
 11  9  2  0  0  0  0
 14  3  1  6  0  0  0
 14 16  1  0  0  0  0
 15 14  1  0  0  0  0
 15 13  1  1  0  0  0
 15 16  1  0  0  0  0
 16 13  1  1  0  0  0
 17  1  1  0  0  0  0
 18 17  1  0  0  0  0
 18 19  1  0  0  0  0
 19 20  1  0  0  0  0
 20 21  1  0  0  0  0
 22 20  1  0  0  0  0
 23 27  1  1  0  0  0
 23 26  1  0  0  0  0
 24 26  2  0  0  0  0
 26 25  1  0  0  0  0
 27 34  1  0  0  0  0
 28 33  1  0  0  0  0
 29 32  2  0  0  0  0
 30 29  1  0  0  0  0
 31 34  1  0  0  0  0
 32 33  1  0  0  0  0
 34 28  2  0  0  0  0
 35 31  2  0  0  0  0
 35 29  1  0  0  0  0
M  END
>  <MODEL>
3

>  <REMARK>
 VINA RESULT:      -6.7      2.649      7.342
  Name = 
  10 active torsions:
  status: ('A' for Active; 'I' for Inactive)
    1  A    between atoms: C_2  and  O_19
    2  A    between atoms: C_7  and  C_17
    3  A    between atoms: C_7  and  N_29
    4  A    between atoms: C_8  and  C_15
    5  A    between atoms: C_11  and  C_18
    6  A    between atoms: C_11  and  C_22
    7  A    between atoms: C_11  and  N_29
    8  A    between atoms: C_17  and  O_19
    9  A    between atoms: C_18  and  C_33
   10  A    between atoms: C_26  and  N_29
                            x       y       z     vdW  Elec       q    Type
                         _______ _______ _______ _____ _____    ______ ____

>  <TORSDO>
F 10

$$$$
=
 OpenBabel11042416563D

 35 39  0  0  1  0  0  0  0  0999 V2000
  188.5680  176.1630  144.1420 N   0  0  0  0  0  0  0  0  0  0  0  0
  189.3740  173.9310  143.5490 C   0  0  0  0  0  2  0  0  0  0  0  0
  191.8770  171.6270  143.6120 C   0  0  0  0  0  0  0  0  0  0  0  0
  191.8710  172.3000  142.3470 N   0  0  0  0  0  2  0  0  0  0  0  0
  190.7620  173.2560  140.4760 N   0  0  0  0  0  0  0  0  0  0  0  0
  189.3810  173.0370  142.3520 C   0  0  2  0  0  3  0  0  0  0  0  0
  190.7180  172.8600  141.7080 C   0  0  0  0  0  0  0  0  0  0  0  0
  189.4760  173.7940  140.0500 C   0  0  0  0  0  2  0  0  0  0  0  0
  188.7430  175.0570  143.2410 C   0  0  0  0  0  0  0  0  0  0  0  0
  188.7410  173.9010  141.3320 C   0  0  2  0  0  3  0  0  0  0  0  0
  188.4040  175.0830  141.8240 C   0  0  0  0  0  3  0  0  0  0  0  0
  190.7990  171.2700  144.1590 O   0  0  0  0  0  0  0  0  0  0  0  0
  195.1360  172.5840  144.9930 C   0  0  0  0  0  2  0  0  0  0  0  0
  193.1820  171.2830  144.2530 C   0  0  1  0  0  3  0  0  0  0  0  0
  194.2580  172.2560  143.8010 C   0  0  1  0  0  3  0  0  0  0  0  0
  193.6400  172.4100  145.1640 C   0  0  2  0  0  3  0  0  0  0  0  0
  187.6050  177.2250  143.8480 C   0  0  0  0  0  2  0  0  0  0  0  0
  186.1870  176.7150  144.0340 C   0  0  0  0  0  2  0  0  0  0  0  0
  185.3150  177.7970  144.1570 O   0  0  0  0  0  0  0  0  0  0  0  0
  185.2470  178.0430  145.5280 C   0  0  0  0  0  3  0  0  0  0  0  0
  184.8720  176.8750  146.1910 O   0  0  0  0  0  1  0  0  0  0  0  0
  184.3060  179.0400  145.7780 O   0  0  0  0  0  1  0  0  0  0  0  0
  189.4480  176.2800  145.3040 C   0  0  2  0  0  3  0  0  0  0  0  0
  187.8300  175.6850  147.1070 O   0  0  0  0  0  1  0  0  0  0  0  0
  188.7640  177.7760  147.0530 O   0  0  0  0  0  0  0  0  0  0  0  0
  188.6750  176.6290  146.5390 C   0  0  0  0  0  0  0  0  0  0  0  0
  190.5920  177.2570  145.0330 C   0  0  0  0  0  2  0  0  0  0  0  0
  192.5260  176.4880  146.2800 C   0  0  0  0  0  3  0  0  0  0  0  0
  194.8850  176.2320  144.3370 C   0  0  0  0  0  0  0  0  0  0  0  0
  196.1180  176.6450  143.6170 C   0  0  0  0  0  1  0  0  0  0  0  0
  192.4350  175.9480  143.8600 C   0  0  0  0  0  3  0  0  0  0  0  0
  194.9070  176.2260  145.6700 C   0  0  0  0  0  3  0  0  0  0  0  0
  193.7840  175.7180  146.5100 C   0  0  0  0  0  2  0  0  0  0  0  0
  191.9130  176.5660  145.0980 C   0  0  0  0  0  0  0  0  0  0  0  0
  193.7250  175.8030  143.5300 C   0  0  0  0  0  3  0  0  0  0  0  0
  1 23  1  0  0  0  0
  3 12  2  0  0  0  0
  4  3  1  0  0  0  0
  5  7  2  0  0  0  0
  6  2  1  1  0  0  0
  7  4  1  0  0  0  0
  7  6  1  0  0  0  0
  8  5  1  0  0  0  0
  9  2  1  0  0  0  0
  9  1  1  0  0  0  0
 10  8  1  6  0  0  0
 10 11  1  0  0  0  0
 10  6  1  0  0  0  0
 11  9  2  0  0  0  0
 14  3  1  6  0  0  0
 14 16  1  0  0  0  0
 15 14  1  0  0  0  0
 15 13  1  1  0  0  0
 15 16  1  0  0  0  0
 16 13  1  1  0  0  0
 17 18  1  0  0  0  0
 17  1  1  0  0  0  0
 18 19  1  0  0  0  0
 19 20  1  0  0  0  0
 20 22  1  0  0  0  0
 20 21  1  0  0  0  0
 23 27  1  6  0  0  0
 23 26  1  0  0  0  0
 26 25  2  0  0  0  0
 26 24  1  0  0  0  0
 27 34  1  0  0  0  0
 28 33  1  0  0  0  0
 29 32  2  0  0  0  0
 30 29  1  0  0  0  0
 31 34  1  0  0  0  0
 32 33  1  0  0  0  0
 34 28  2  0  0  0  0
 35 31  2  0  0  0  0
 35 29  1  0  0  0  0
M  END
>  <MODEL>
4

>  <REMARK>
 VINA RESULT:      -6.5      2.623      7.588
  Name = 
  10 active torsions:
  status: ('A' for Active; 'I' for Inactive)
    1  A    between atoms: C_2  and  O_19
    2  A    between atoms: C_7  and  C_17
    3  A    between atoms: C_7  and  N_29
    4  A    between atoms: C_8  and  C_15
    5  A    between atoms: C_11  and  C_18
    6  A    between atoms: C_11  and  C_22
    7  A    between atoms: C_11  and  N_29
    8  A    between atoms: C_17  and  O_19
    9  A    between atoms: C_18  and  C_33
   10  A    between atoms: C_26  and  N_29
                            x       y       z     vdW  Elec       q    Type
                         _______ _______ _______ _____ _____    ______ ____

>  <TORSDO>
F 10

$$$$
=
 OpenBabel11042416563D

 35 39  0  0  1  0  0  0  0  0999 V2000
  189.8290  176.7690  144.9690 N   0  0  0  0  0  0  0  0  0  0  0  0
  189.9710  174.4410  144.2310 C   0  0  0  0  0  2  0  0  0  0  0  0
  191.8880  171.7170  143.5400 C   0  0  0  0  0  0  0  0  0  0  0  0
  191.5750  172.4090  142.3250 N   0  0  0  0  0  2  0  0  0  0  0  0
  190.0900  173.5950  140.9000 N   0  0  0  0  0  0  0  0  0  0  0  0
  189.4100  173.5890  143.1390 C   0  0  2  0  0  3  0  0  0  0  0  0
  190.3950  173.1850  142.0900 C   0  0  0  0  0  0  0  0  0  0  0  0
  188.8550  174.3690  140.9110 C   0  0  0  0  0  2  0  0  0  0  0  0
  189.4860  175.6710  144.1080 C   0  0  0  0  0  0  0  0  0  0  0  0
  188.6290  174.5800  142.3600 C   0  0  2  0  0  3  0  0  0  0  0  0
  188.6980  175.7910  142.8880 C   0  0  0  0  0  3  0  0  0  0  0  0
  191.0140  171.5510  144.4330 O   0  0  0  0  0  0  0  0  0  0  0  0
  195.3840  171.9510  144.6210 C   0  0  0  0  0  2  0  0  0  0  0  0
  193.2480  171.1250  143.7180 C   0  0  1  0  0  3  0  0  0  0  0  0
  194.3080  172.2040  143.5820 C   0  0  1  0  0  3  0  0  0  0  0  0
  193.9240  171.7070  144.9480 C   0  0  2  0  0  3  0  0  0  0  0  0
  190.8210  177.7640  144.5600 C   0  0  0  0  0  2  0  0  0  0  0  0
  192.0990  177.0760  144.1100 C   0  0  0  0  0  2  0  0  0  0  0  0
  192.9800  176.9810  145.1870 O   0  0  0  0  0  0  0  0  0  0  0  0
  193.5990  175.7410  145.0290 C   0  0  0  0  0  3  0  0  0  0  0  0
  193.0750  174.8400  145.9560 O   0  0  0  0  0  1  0  0  0  0  0  0
  194.9710  175.8740  145.2370 O   0  0  0  0  0  1  0  0  0  0  0  0
  189.2610  176.8210  146.3160 C   0  0  2  0  0  3  0  0  0  0  0  0
  191.1570  176.9220  147.9350 O   0  0  0  0  0  1  0  0  0  0  0  0
  190.0630  174.9420  147.5770 O   0  0  0  0  0  0  0  0  0  0  0  0
  190.1690  176.1700  147.3140 C   0  0  0  0  0  0  0  0  0  0  0  0
  187.8480  176.2390  146.3420 C   0  0  0  0  0  2  0  0  0  0  0  0
  185.8850  177.4000  147.1670 C   0  0  0  0  0  3  0  0  0  0  0  0
  184.5020  178.7620  144.7920 C   0  0  0  0  0  0  0  0  0  0  0  0
  183.5310  178.9180  143.6780 C   0  0  0  0  0  1  0  0  0  0  0  0
  186.9470  178.2720  145.1010 C   0  0  0  0  0  3  0  0  0  0  0  0
  184.0230  178.5530  146.0190 C   0  0  0  0  0  3  0  0  0  0  0  0
  184.8800  178.5020  147.2390 C   0  0  0  0  0  2  0  0  0  0  0  0
  186.8230  177.3160  146.2230 C   0  0  0  0  0  0  0  0  0  0  0  0
  185.9390  178.8990  144.4800 C   0  0  0  0  0  3  0  0  0  0  0  0
  1 23  1  0  0  0  0
  3 12  2  0  0  0  0
  4  3  1  0  0  0  0
  5  8  1  0  0  0  0
  5  7  2  0  0  0  0
  6  2  1  1  0  0  0
  7  4  1  0  0  0  0
  7  6  1  0  0  0  0
  9  2  1  0  0  0  0
  9  1  1  0  0  0  0
 10  8  1  6  0  0  0
 10 11  1  0  0  0  0
 10  6  1  0  0  0  0
 11  9  2  0  0  0  0
 14  3  1  1  0  0  0
 14 16  1  0  0  0  0
 15 14  1  0  0  0  0
 15 13  1  6  0  0  0
 15 16  1  0  0  0  0
 16 13  1  6  0  0  0
 17  1  1  0  0  0  0
 18 17  1  0  0  0  0
 18 19  1  0  0  0  0
 20 19  1  0  0  0  0
 20 22  1  0  0  0  0
 20 21  1  0  0  0  0
 23 27  1  6  0  0  0
 23 26  1  0  0  0  0
 26 25  2  0  0  0  0
 26 24  1  0  0  0  0
 28 33  1  0  0  0  0
 29 32  2  0  0  0  0
 30 29  1  0  0  0  0
 31 34  1  0  0  0  0
 32 33  1  0  0  0  0
 34 27  1  0  0  0  0
 34 28  2  0  0  0  0
 35 29  1  0  0  0  0
 35 31  2  0  0  0  0
M  END
>  <MODEL>
5

>  <REMARK>
 VINA RESULT:      -6.5      2.223      6.131
  Name = 
  10 active torsions:
  status: ('A' for Active; 'I' for Inactive)
    1  A    between atoms: C_2  and  O_19
    2  A    between atoms: C_7  and  C_17
    3  A    between atoms: C_7  and  N_29
    4  A    between atoms: C_8  and  C_15
    5  A    between atoms: C_11  and  C_18
    6  A    between atoms: C_11  and  C_22
    7  A    between atoms: C_11  and  N_29
    8  A    between atoms: C_17  and  O_19
    9  A    between atoms: C_18  and  C_33
   10  A    between atoms: C_26  and  N_29
                            x       y       z     vdW  Elec       q    Type
                         _______ _______ _______ _____ _____    ______ ____

>  <TORSDO>
F 10

$$$$
=
 OpenBabel11042416563D

 35 39  0  0  1  0  0  0  0  0999 V2000
  191.0160  175.8810  145.1950 N   0  0  0  0  0  0  0  0  0  0  0  0
  189.7870  176.2160  143.1060 C   0  0  0  0  0  2  0  0  0  0  0  0
  187.0670  177.4770  141.4980 C   0  0  0  0  0  0  0  0  0  0  0  0
  186.8760  176.0800  141.7490 N   0  0  0  0  0  2  0  0  0  0  0  0
  187.6450  173.8350  141.8550 N   0  0  0  0  0  0  0  0  0  0  0  0
  189.3780  175.4060  141.9190 C   0  0  2  0  0  3  0  0  0  0  0  0
  187.9170  175.1010  141.8410 C   0  0  0  0  0  0  0  0  0  0  0  0
  188.8610  173.0380  141.9620 C   0  0  0  0  0  2  0  0  0  0  0  0
  190.4830  175.4460  143.9330 C   0  0  0  0  0  0  0  0  0  0  0  0
  189.8800  174.0620  142.2890 C   0  0  2  0  0  3  0  0  0  0  0  0
  190.4850  174.0650  143.4660 C   0  0  0  0  0  3  0  0  0  0  0  0
  188.1810  177.9170  141.1030 O   0  0  0  0  0  0  0  0  0  0  0  0
  183.5450  178.3440  140.9660 C   0  0  0  0  0  2  0  0  0  0  0  0
  185.9110  178.4130  141.6390 C   0  0  1  0  0  3  0  0  0  0  0  0
  184.9700  178.2600  140.4560 C   0  0  1  0  0  3  0  0  0  0  0  0
  184.6120  177.6370  141.7770 C   0  0  2  0  0  3  0  0  0  0  0  0
  192.4350  175.7090  145.5100 C   0  0  0  0  0  2  0  0  0  0  0  0
  193.2810  176.6120  144.6290 C   0  0  0  0  0  2  0  0  0  0  0  0
  194.5490  176.7560  145.1920 O   0  0  0  0  0  0  0  0  0  0  0  0
  195.3960  176.0410  144.3440 C   0  0  0  0  0  3  0  0  0  0  0  0
  196.0580  175.0550  145.0730 O   0  0  0  0  0  1  0  0  0  0  0  0
  196.3320  176.9070  143.7800 O   0  0  0  0  0  1  0  0  0  0  0  0
  190.1020  176.3930  146.2150 C   0  0  2  0  0  3  0  0  0  0  0  0
  191.1640  177.1800  148.3310 O   0  0  0  0  0  1  0  0  0  0  0  0
  190.6060  174.9720  148.0830 O   0  0  0  0  0  0  0  0  0  0  0  0
  190.6250  176.1330  147.5940 C   0  0  0  0  0  0  0  0  0  0  0  0
  188.6880  175.8490  146.0120 C   0  0  0  0  0  2  0  0  0  0  0  0
  186.9770  176.8190  147.4310 C   0  0  0  0  0  3  0  0  0  0  0  0
  185.0720  178.4500  145.6650 C   0  0  0  0  0  0  0  0  0  0  0  0
  183.8650  178.7260  144.8440 C   0  0  0  0  0  1  0  0  0  0  0  0
  187.5200  178.0030  145.3190 C   0  0  0  0  0  3  0  0  0  0  0  0
  184.8980  178.0590  146.9280 C   0  0  0  0  0  3  0  0  0  0  0  0
  186.0200  177.8680  147.8930 C   0  0  0  0  0  2  0  0  0  0  0  0
  187.6650  176.8980  146.2910 C   0  0  0  0  0  0  0  0  0  0  0  0
  186.3940  178.6760  145.0470 C   0  0  0  0  0  3  0  0  0  0  0  0
  1 17  1  0  0  0  0
  1 23  1  0  0  0  0
  2  9  1  0  0  0  0
  3  4  1  0  0  0  0
  4  7  1  0  0  0  0
  5  8  1  0  0  0  0
  6 10  1  0  0  0  0
  6  2  1  1  0  0  0
  7  5  2  0  0  0  0
  7  6  1  0  0  0  0
  9  1  1  0  0  0  0
 10  8  1  1  0  0  0
 10 11  1  0  0  0  0
 11  9  2  0  0  0  0
 12  3  2  0  0  0  0
 14  3  1  6  0  0  0
 14 16  1  0  0  0  0
 15 13  1  1  0  0  0
 15 14  1  0  0  0  0
 15 16  1  0  0  0  0
 16 13  1  1  0  0  0
 18 19  1  0  0  0  0
 18 17  1  0  0  0  0
 20 21  1  0  0  0  0
 20 19  1  0  0  0  0
 22 20  1  0  0  0  0
 23 27  1  1  0  0  0
 23 26  1  0  0  0  0
 26 25  2  0  0  0  0
 26 24  1  0  0  0  0
 27 34  1  0  0  0  0
 28 33  1  0  0  0  0
 29 32  2  0  0  0  0
 30 29  1  0  0  0  0
 31 34  1  0  0  0  0
 32 33  1  0  0  0  0
 34 28  2  0  0  0  0
 35 31  2  0  0  0  0
 35 29  1  0  0  0  0
M  END
>  <MODEL>
6

>  <REMARK>
 VINA RESULT:      -6.4      2.548      5.493
  Name = 
  10 active torsions:
  status: ('A' for Active; 'I' for Inactive)
    1  A    between atoms: C_2  and  O_19
    2  A    between atoms: C_7  and  C_17
    3  A    between atoms: C_7  and  N_29
    4  A    between atoms: C_8  and  C_15
    5  A    between atoms: C_11  and  C_18
    6  A    between atoms: C_11  and  C_22
    7  A    between atoms: C_11  and  N_29
    8  A    between atoms: C_17  and  O_19
    9  A    between atoms: C_18  and  C_33
   10  A    between atoms: C_26  and  N_29
                            x       y       z     vdW  Elec       q    Type
                         _______ _______ _______ _____ _____    ______ ____

>  <TORSDO>
F 10

$$$$
=
 OpenBabel11042416563D

 35 39  0  0  1  0  0  0  0  0999 V2000
  189.6630  174.1580  141.8410 N   0  0  0  0  0  0  0  0  0  0  0  0
  189.6580  175.0680  144.1120 C   0  0  0  0  0  2  0  0  0  0  0  0
  187.9200  176.4350  146.6970 C   0  0  0  0  0  0  0  0  0  0  0  0
  188.5690  177.4700  145.9500 N   0  0  0  0  0  2  0  0  0  0  0  0
  190.4190  178.3590  144.7530 N   0  0  0  0  0  0  0  0  0  0  0  0
  190.4680  176.0260  144.9230 C   0  0  2  0  0  3  0  0  0  0  0  0
  189.7920  177.3260  145.2170 C   0  0  0  0  0  0  0  0  0  0  0  0
  191.6270  177.9640  144.0400 C   0  0  0  0  0  2  0  0  0  0  0  0
  190.1940  174.9710  142.9010 C   0  0  0  0  0  0  0  0  0  0  0  0
  191.4590  176.4970  143.9260 C   0  0  2  0  0  3  0  0  0  0  0  0
  191.2860  175.9230  142.7460 C   0  0  0  0  0  3  0  0  0  0  0  0
  188.5150  175.3540  146.9560 O   0  0  0  0  0  0  0  0  0  0  0  0
  184.5690  177.9010  146.4360 C   0  0  0  0  0  2  0  0  0  0  0  0
  186.5460  176.6700  147.2340 C   0  0  1  0  0  3  0  0  0  0  0  0
  186.0380  178.0310  146.7900 C   0  0  1  0  0  3  0  0  0  0  0  0
  185.5440  176.7910  146.0980 C   0  0  2  0  0  3  0  0  0  0  0  0
  188.2350  174.1760  141.5230 C   0  0  0  0  0  2  0  0  0  0  0  0
  187.8190  175.5620  141.0610 C   0  0  0  0  0  2  0  0  0  0  0  0
  186.9790  176.1380  142.0150 O   0  0  0  0  0  0  0  0  0  0  0  0
  187.1930  177.5110  141.8920 C   0  0  0  0  0  3  0  0  0  0  0  0
  188.5430  177.7500  141.6420 O   0  0  0  0  0  1  0  0  0  0  0  0
  186.8210  178.1490  143.0750 O   0  0  0  0  0  1  0  0  0  0  0  0
  190.5490  173.2170  141.1550 C   0  0  2  0  0  3  0  0  0  0  0  0
  189.9480  173.7160  138.7860 O   0  0  0  0  0  0  0  0  0  0  0  0
  189.5140  171.6450  139.6650 O   0  0  0  0  0  1  0  0  0  0  0  0
  189.9820  172.8030  139.8320 C   0  0  0  0  0  0  0  0  0  0  0  0
  190.8840  172.0240  142.0490 C   0  0  0  0  0  2  0  0  0  0  0  0
  192.1290  171.9450  144.1290 C   0  0  0  0  0  3  0  0  0  0  0  0
  194.3030  174.1070  144.0330 C   0  0  0  0  0  0  0  0  0  0  0  0
  194.9260  175.4350  144.2720 C   0  0  0  0  0  1  0  0  0  0  0  0
  193.3040  172.8150  142.1240 C   0  0  0  0  0  3  0  0  0  0  0  0
  193.8700  173.4160  145.0880 C   0  0  0  0  0  3  0  0  0  0  0  0
  193.3390  172.0240  144.9990 C   0  0  0  0  0  2  0  0  0  0  0  0
  192.1250  172.2760  142.8360 C   0  0  0  0  0  0  0  0  0  0  0  0
  194.2490  173.6100  142.6430 C   0  0  0  0  0  3  0  0  0  0  0  0
  1  9  1  0  0  0  0
  3 12  2  0  0  0  0
  4  3  1  0  0  0  0
  5  7  2  0  0  0  0
  6  2  1  6  0  0  0
  6  7  1  0  0  0  0
  7  4  1  0  0  0  0
  8  5  1  0  0  0  0
  9  2  1  0  0  0  0
 10 11  1  6  0  0  0
 10  8  1  0  0  0  0
 10  6  1  0  0  0  0
 11  9  2  0  0  0  0
 14  3  1  6  0  0  0
 15 13  1  1  0  0  0
 15 14  1  0  0  0  0
 16 13  1  1  0  0  0
 16 15  1  0  0  0  0
 16 14  1  0  0  0  0
 17  1  1  0  0  0  0
 18 17  1  0  0  0  0
 18 19  1  0  0  0  0
 20 19  1  0  0  0  0
 20 22  1  0  0  0  0
 21 20  1  0  0  0  0
 23  1  1  0  0  0  0
 23 27  1  1  0  0  0
 24 26  2  0  0  0  0
 25 26  1  0  0  0  0
 26 23  1  0  0  0  0
 27 34  1  0  0  0  0
 28 33  1  0  0  0  0
 29 30  1  0  0  0  0
 29 32  2  0  0  0  0
 31 35  2  0  0  0  0
 31 34  1  0  0  0  0
 33 32  1  0  0  0  0
 34 28  2  0  0  0  0
 35 29  1  0  0  0  0
M  END
>  <MODEL>
7

>  <REMARK>
 VINA RESULT:      -6.4      2.070      5.341
  Name = 
  10 active torsions:
  status: ('A' for Active; 'I' for Inactive)
    1  A    between atoms: C_2  and  O_19
    2  A    between atoms: C_7  and  C_17
    3  A    between atoms: C_7  and  N_29
    4  A    between atoms: C_8  and  C_15
    5  A    between atoms: C_11  and  C_18
    6  A    between atoms: C_11  and  C_22
    7  A    between atoms: C_11  and  N_29
    8  A    between atoms: C_17  and  O_19
    9  A    between atoms: C_18  and  C_33
   10  A    between atoms: C_26  and  N_29
                            x       y       z     vdW  Elec       q    Type
                         _______ _______ _______ _____ _____    ______ ____

>  <TORSDO>
F 10

$$$$
=
 OpenBabel11042416563D

 35 39  0  0  1  0  0  0  0  0999 V2000
  190.0580  175.2780  142.9560 N   0  0  0  0  0  0  0  0  0  0  0  0
  191.9940  176.1340  144.1840 C   0  0  0  0  0  2  0  0  0  0  0  0
  195.1970  175.6960  145.2420 C   0  0  0  0  0  0  0  0  0  0  0  0
  194.2890  175.3530  146.2950 N   0  0  0  0  0  2  0  0  0  0  0  0
  192.3240  175.7120  147.5800 N   0  0  0  0  0  0  0  0  0  0  0  0
  192.2720  176.7830  145.5010 C   0  0  2  0  0  3  0  0  0  0  0  0
  192.9870  175.9180  146.4880 C   0  0  0  0  0  0  0  0  0  0  0  0
  191.0280  176.3790  147.5420 C   0  0  0  0  0  2  0  0  0  0  0  0
  190.6890  175.9140  144.0810 C   0  0  0  0  0  0  0  0  0  0  0  0
  190.9260  176.7860  146.1210 C   0  0  2  0  0  3  0  0  0  0  0  0
  190.0120  176.2520  145.3270 C   0  0  0  0  0  3  0  0  0  0  0  0
  194.9990  176.7120  144.5220 O   0  0  0  0  0  0  0  0  0  0  0  0
  197.0220  172.5220  145.4440 C   0  0  0  0  0  2  0  0  0  0  0  0
  196.4310  174.8770  145.0410 C   0  0  1  0  0  3  0  0  0  0  0  0
  196.5130  173.7900  146.1000 C   0  0  1  0  0  3  0  0  0  0  0  0
  196.0670  173.4400  144.7080 C   0  0  2  0  0  3  0  0  0  0  0  0
  190.8370  174.4750  142.0140 C   0  0  0  0  0  2  0  0  0  0  0  0
  191.0290  173.0690  142.5560 C   0  0  0  0  0  2  0  0  0  0  0  0
  192.3890  172.8260  142.7490 O   0  0  0  0  0  0  0  0  0  0  0  0
  192.4430  171.9770  143.8540 C   0  0  0  0  0  3  0  0  0  0  0  0
  192.5980  172.7350  145.0140 O   0  0  0  0  0  1  0  0  0  0  0  0
  193.5250  171.1070  143.7220 O   0  0  0  0  0  1  0  0  0  0  0  0
  188.6430  175.5390  142.6940 C   0  0  2  0  0  3  0  0  0  0  0  0
  187.5650  173.4050  141.9810 O   0  0  0  0  0  1  0  0  0  0  0  0
  188.1800  174.9560  140.4110 O   0  0  0  0  0  0  0  0  0  0  0  0
  188.1120  174.6310  141.6270 C   0  0  0  0  0  0  0  0  0  0  0  0
  188.4030  177.0150  142.3810 C   0  0  0  0  0  2  0  0  0  0  0  0
  186.6660  178.6740  142.7160 C   0  0  0  0  0  3  0  0  0  0  0  0
  185.8400  178.6200  145.6700 C   0  0  0  0  0  0  0  0  0  0  0  0
  185.8350  179.0300  147.0980 C   0  0  0  0  0  1  0  0  0  0  0  0
  186.7070  176.7310  144.2590 C   0  0  0  0  0  3  0  0  0  0  0  0
  185.5600  179.5440  144.7500 C   0  0  0  0  0  3  0  0  0  0  0  0
  185.4110  179.2390  143.2960 C   0  0  0  0  0  2  0  0  0  0  0  0
  187.2260  177.5380  143.1340 C   0  0  0  0  0  0  0  0  0  0  0  0
  186.1050  177.2020  145.3590 C   0  0  0  0  0  3  0  0  0  0  0  0
  1  9  1  0  0  0  0
  3  4  1  0  0  0  0
  4  7  1  0  0  0  0
  6  2  1  6  0  0  0
  6 10  1  0  0  0  0
  6  7  1  0  0  0  0
  7  5  2  0  0  0  0
  8  5  1  0  0  0  0
  9  2  1  0  0  0  0
  9 11  2  0  0  0  0
 10 11  1  6  0  0  0
 10  8  1  0  0  0  0
 12  3  2  0  0  0  0
 14  3  1  1  0  0  0
 14 15  1  0  0  0  0
 15 13  1  6  0  0  0
 16 14  1  0  0  0  0
 16 13  1  6  0  0  0
 16 15  1  0  0  0  0
 17 18  1  0  0  0  0
 17  1  1  0  0  0  0
 18 19  1  0  0  0  0
 19 20  1  0  0  0  0
 20 21  1  0  0  0  0
 22 20  1  0  0  0  0
 23 27  1  6  0  0  0
 23  1  1  0  0  0  0
 25 26  2  0  0  0  0
 26 24  1  0  0  0  0
 26 23  1  0  0  0  0
 27 34  1  0  0  0  0
 28 34  2  0  0  0  0
 28 33  1  0  0  0  0
 29 30  1  0  0  0  0
 31 35  2  0  0  0  0
 32 29  2  0  0  0  0
 33 32  1  0  0  0  0
 34 31  1  0  0  0  0
 35 29  1  0  0  0  0
M  END
>  <MODEL>
8

>  <REMARK>
 VINA RESULT:      -6.2      2.897      5.191
  Name = 
  10 active torsions:
  status: ('A' for Active; 'I' for Inactive)
    1  A    between atoms: C_2  and  O_19
    2  A    between atoms: C_7  and  C_17
    3  A    between atoms: C_7  and  N_29
    4  A    between atoms: C_8  and  C_15
    5  A    between atoms: C_11  and  C_18
    6  A    between atoms: C_11  and  C_22
    7  A    between atoms: C_11  and  N_29
    8  A    between atoms: C_17  and  O_19
    9  A    between atoms: C_18  and  C_33
   10  A    between atoms: C_26  and  N_29
                            x       y       z     vdW  Elec       q    Type
                         _______ _______ _______ _____ _____    ______ ____

>  <TORSDO>
F 10

$$$$
=
 OpenBabel11042416563D

 35 39  0  0  1  0  0  0  0  0999 V2000
  190.0160  174.8330  144.5770 N   0  0  0  0  0  0  0  0  0  0  0  0
  192.3370  174.4080  143.9310 C   0  0  0  0  0  2  0  0  0  0  0  0
  195.0900  172.4160  144.1040 C   0  0  0  0  0  0  0  0  0  0  0  0
  195.2190  173.5020  145.0300 N   0  0  0  0  0  2  0  0  0  0  0  0
  194.9810  175.7840  145.6450 N   0  0  0  0  0  0  0  0  0  0  0  0
  193.6200  175.1700  143.8440 C   0  0  2  0  0  3  0  0  0  0  0  0
  194.6380  174.8020  144.8740 C   0  0  0  0  0  0  0  0  0  0  0  0
  194.2540  177.0000  145.3030 C   0  0  0  0  0  2  0  0  0  0  0  0
  191.3800  175.2260  144.3490 C   0  0  0  0  0  0  0  0  0  0  0  0
  193.2160  176.4930  144.3740 C   0  0  2  0  0  3  0  0  0  0  0  0
  191.9350  176.5260  144.7050 C   0  0  0  0  0  3  0  0  0  0  0  0
  194.6310  172.6060  142.9450 O   0  0  0  0  0  0  0  0  0  0  0  0
  195.2950  169.6380  146.4880 C   0  0  0  0  0  2  0  0  0  0  0  0
  195.5710  171.0570  144.4950 C   0  0  1  0  0  3  0  0  0  0  0  0
  195.7770  170.9900  145.9990 C   0  0  1  0  0  3  0  0  0  0  0  0
  194.5510  170.3690  145.3880 C   0  0  2  0  0  3  0  0  0  0  0  0
  189.6370  174.1030  145.7870 C   0  0  0  0  0  2  0  0  0  0  0  0
  189.5720  175.0500  146.9720 C   0  0  0  0  0  2  0  0  0  0  0  0
  188.3750  175.7660  146.9320 O   0  0  0  0  0  0  0  0  0  0  0  0
  188.7640  177.0970  146.7790 C   0  0  0  0  0  3  0  0  0  0  0  0
  189.9530  177.3160  147.4740 O   0  0  0  0  0  1  0  0  0  0  0  0
  187.7710  177.9340  147.2850 O   0  0  0  0  0  1  0  0  0  0  0  0
  189.0250  175.0650  143.5270 C   0  0  2  0  0  3  0  0  0  0  0  0
  189.3410  174.5580  141.1040 O   0  0  0  0  0  0  0  0  0  0  0  0
  189.1550  172.8470  142.6170 O   0  0  0  0  0  1  0  0  0  0  0  0
  189.1850  174.0890  142.4020 C   0  0  0  0  0  0  0  0  0  0  0  0
  189.0540  176.5170  143.0520 C   0  0  0  0  0  2  0  0  0  0  0  0
  187.4840  178.2750  142.4780 C   0  0  0  0  0  3  0  0  0  0  0  0
  185.3590  178.4260  144.6850 C   0  0  0  0  0  0  0  0  0  0  0  0
  184.7070  178.9140  145.9280 C   0  0  0  0  0  1  0  0  0  0  0  0
  186.6560  176.4210  143.9040 C   0  0  0  0  0  3  0  0  0  0  0  0
  185.6120  179.3090  143.7190 C   0  0  0  0  0  3  0  0  0  0  0  0
  186.1470  178.9320  142.3780 C   0  0  0  0  0  2  0  0  0  0  0  0
  187.7010  177.1380  143.1420 C   0  0  0  0  0  0  0  0  0  0  0  0
  185.6400  176.9810  144.5750 C   0  0  0  0  0  3  0  0  0  0  0  0
  1 17  1  0  0  0  0
  2  9  1  0  0  0  0
  3  4  1  0  0  0  0
  6  2  1  1  0  0  0
  6 10  1  0  0  0  0
  6  7  1  0  0  0  0
  7  4  1  0  0  0  0
  7  5  2  0  0  0  0
  8  5  1  0  0  0  0
  9  1  1  0  0  0  0
  9 11  2  0  0  0  0
 10 11  1  1  0  0  0
 10  8  1  0  0  0  0
 12  3  2  0  0  0  0
 14  3  1  1  0  0  0
 14 16  1  0  0  0  0
 14 15  1  0  0  0  0
 15 13  1  6  0  0  0
 16 15  1  0  0  0  0
 16 13  1  6  0  0  0
 17 18  1  0  0  0  0
 19 18  1  0  0  0  0
 20 19  1  0  0  0  0
 20 22  1  0  0  0  0
 20 21  1  0  0  0  0
 23 27  1  6  0  0  0
 23  1  1  0  0  0  0
 24 26  2  0  0  0  0
 26 25  1  0  0  0  0
 26 23  1  0  0  0  0
 27 34  1  0  0  0  0
 28 34  2  0  0  0  0
 29 30  1  0  0  0  0
 31 35  2  0  0  0  0
 32 29  2  0  0  0  0
 33 28  1  0  0  0  0
 33 32  1  0  0  0  0
 34 31  1  0  0  0  0
 35 29  1  0  0  0  0
M  END
>  <MODEL>
9

>  <REMARK>
 VINA RESULT:      -6.1      2.915      5.930
  Name = 
  10 active torsions:
  status: ('A' for Active; 'I' for Inactive)
    1  A    between atoms: C_2  and  O_19
    2  A    between atoms: C_7  and  C_17
    3  A    between atoms: C_7  and  N_29
    4  A    between atoms: C_8  and  C_15
    5  A    between atoms: C_11  and  C_18
    6  A    between atoms: C_11  and  C_22
    7  A    between atoms: C_11  and  N_29
    8  A    between atoms: C_17  and  O_19
    9  A    between atoms: C_18  and  C_33
   10  A    between atoms: C_26  and  N_29
                            x       y       z     vdW  Elec       q    Type
                         _______ _______ _______ _____ _____    ______ ____

>  <TORSDO>
F 10

$$$$
