=
 OpenBabel11042419183D

 43 49  0  0  1  0  0  0  0  0999 V2000
  192.7410  174.3370  141.1330 C   0  0  0  0  0  0  0  0  0  0  0  0
  191.5310  175.8120  147.0200 C   0  0  0  0  0  0  0  0  0  0  0  0
  191.3750  176.7730  148.1500 C   0  0  0  0  0  1  0  0  0  0  0  0
  194.6910  174.3540  144.5670 C   0  0  0  0  0  0  0  0  0  0  0  0
  194.2490  174.4530  141.2740 C   0  0  1  0  0  3  0  0  0  0  0  0
  191.8710  174.1350  142.0920 C   0  0  0  0  0  0  0  0  0  0  0  0
  195.1480  175.1700  145.6220 O   0  0  0  0  0  0  0  0  0  0  0  0
  190.6920  172.8940  145.6890 F   0  0  0  0  0  0  0  0  0  0  0  0
  195.4130  174.1800  143.4650 C   0  0  0  0  0  3  0  0  0  0  0  0
  190.5150  175.1310  146.4660 C   0  0  0  0  0  3  0  0  0  0  0  0
  191.4020  172.8760  139.6750 N   0  0  0  0  0  2  0  0  0  0  0  0
  194.8160  173.5840  142.3040 N   0  0  0  0  0  2  0  0  0  0  0  0
  190.9800  174.2060  145.3570 C   0  0  2  0  0  0  0  0  0  0  0  0
  190.3670  174.5940  143.9940 C   0  0  0  0  0  2  0  0  0  0  0  0
  193.5920  173.6580  139.0750 N   0  0  0  0  0  0  0  0  0  0  0  0
  193.3270  173.8520  144.5860 C   0  0  0  0  0  3  0  0  0  0  0  0
  192.4480  174.4390  145.3670 C   0  0  0  0  0  0  0  0  0  0  0  0
  193.7240  173.4070  137.6490 C   0  0  0  0  0  1  0  0  0  0  0  0
  195.8820  173.8980  139.5740 O   0  0  0  0  0  0  0  0  0  0  0  0
  192.3400  174.0020  139.7190 C   0  0  2  0  0  3  0  0  0  0  0  0
  193.3300  176.7540  145.6670 C   0  0  0  0  0  2  0  0  0  0  0  0
  190.0660  173.4530  139.8300 C   0  0  0  0  0  2  0  0  0  0  0  0
  190.8680  173.7480  142.8410 C   0  0  0  0  0  0  0  0  0  0  0  0
  190.0870  172.5760  142.2970 C   0  0  2  0  0  3  0  0  0  0  0  0
  192.7960  175.4890  146.3240 C   0  0  1  0  0  0  0  0  0  0  0  0
  194.6780  173.9800  139.9330 C   0  0  0  0  0  0  0  0  0  0  0  0
  194.2620  175.8950  146.5090 C   0  0  1  0  0  3  0  0  0  0  0  0
  189.2710  172.8490  141.0090 C   0  0  1  0  0  3  0  0  0  0  0  0
  189.2700  171.8420  143.3490 C   0  0  0  0  0  1  0  0  0  0  0  0
  188.1540  175.0060  141.3200 C   0  0  0  0  0  0  0  0  0  0  0  0
  188.0760  173.7020  141.3030 C   0  0  0  0  0  3  0  0  0  0  0  0
  188.2360  176.3080  141.3420 C   0  0  0  0  0  3  0  0  0  0  0  0
  185.0520  179.0640  143.9110 C   0  0  0  0  0  2  0  0  0  0  0  0
  187.4160  177.4350  144.0890 C   0  0  0  0  0  2  0  0  0  0  0  0
  186.2180  177.2940  140.6770 O   0  0  0  0  0  0  0  0  0  0  0  0
  187.1070  178.3690  145.1760 N   0  0  0  0  0  2  0  0  0  0  0  0
  186.0940  179.1470  142.8010 C   0  0  0  0  0  2  0  0  0  0  0  0
  185.6610  178.6160  145.2520 C   0  0  2  0  0  3  0  0  0  0  0  0
  186.9130  177.9380  142.8080 N   0  0  0  0  0  0  0  0  0  0  0  0
  187.0820  177.1920  141.5880 C   0  0  0  0  0  0  0  0  0  0  0  0
  184.9730  177.4340  145.7510 N   0  0  0  0  0  2  0  0  0  0  0  0
  184.7550  178.4960  147.5650 O   0  0  0  0  0  1  0  0  0  0  0  0
  184.0540  177.8580  146.6510 O   0  0  0  0  0  0  0  0  0  0  0  0
  1  5  1  0  0  0  0
  1  6  2  0  0  0  0
  2  3  1  0  0  0  0
  4 16  1  0  0  0  0
  4  7  1  0  0  0  0
  5 26  1  6  0  0  0
  5 12  1  0  0  0  0
  6 23  2  0  0  0  0
  7 27  1  0  0  0  0
  9  4  2  0  0  0  0
 10  2  2  0  0  0  0
 11 22  1  0  0  0  0
 12  9  1  0  0  0  0
 13 17  1  0  0  0  0
 13  8  1  1  0  0  0
 13 10  1  0  0  0  0
 14 13  1  0  0  0  0
 15 20  1  0  0  0  0
 15 26  1  0  0  0  0
 16 17  2  0  0  0  0
 17 25  1  0  0  0  0
 18 15  1  0  0  0  0
 19 26  2  0  0  0  0
 20 11  1  1  0  0  0
 20  1  1  0  0  0  0
 22 28  1  0  0  0  0
 23 14  1  0  0  0  0
 24 23  1  0  0  0  0
 24 29  1  1  0  0  0
 25 21  1  6  0  0  0
 25 27  1  0  0  0  0
 25  2  1  0  0  0  0
 27 21  1  6  0  0  0
 28 31  1  1  0  0  0
 28 24  1  0  0  0  0
 30 32  2  0  0  0  0
 31 30  2  0  0  0  0
 32 40  1  0  0  0  0
 33 38  1  0  0  0  0
 34 36  1  0  0  0  0
 35 40  2  0  0  0  0
 36 38  1  0  0  0  0
 37 39  1  0  0  0  0
 37 33  1  0  0  0  0
 38 41  1  6  0  0  0
 39 34  1  0  0  0  0
 40 39  1  0  0  0  0
 41 43  1  0  0  0  0
 43 42  1  0  0  0  0
M  END
>  <MODEL>
1

>  <REMARK>
 VINA RESULT:      -9.1      0.000      0.000
  Name = 
  4 active torsions:
  status: ('A' for Active; 'I' for Inactive)
    1  A    between atoms: N_22  and  C_40
    2  A    between atoms: N_22  and  O_41
    3  A    between atoms: C_27  and  C_38
    4  A    between atoms: C_28  and  C_43
                            x       y       z     vdW  Elec       q    Type
                         _______ _______ _______ _____ _____    ______ ____

>  <TORSDO>
F 4

$$$$
=
 OpenBabel11042419183D

 43 49  0  0  1  0  0  0  0  0999 V2000
  192.2700  173.8710  140.3310 C   0  0  0  0  0  0  0  0  0  0  0  0
  192.7940  175.7540  146.2030 C   0  0  0  0  0  0  0  0  0  0  0  0
  193.0170  176.7830  147.2590 C   0  0  0  0  0  1  0  0  0  0  0  0
  195.0640  173.8900  143.1210 C   0  0  0  0  0  0  0  0  0  0  0  0
  193.7640  173.8570  140.0620 C   0  0  1  0  0  3  0  0  0  0  0  0
  191.6750  173.8000  141.4970 C   0  0  0  0  0  0  0  0  0  0  0  0
  195.8460  174.7140  143.9550 O   0  0  0  0  0  0  0  0  0  0  0  0
  191.4160  172.8590  145.3590 F   0  0  0  0  0  0  0  0  0  0  0  0
  195.4490  173.5940  141.8840 C   0  0  0  0  0  3  0  0  0  0  0  0
  191.6180  175.1410  145.9870 C   0  0  0  0  0  3  0  0  0  0  0  0
  190.4850  172.4650  139.3890 N   0  0  0  0  0  2  0  0  0  0  0  0
  194.5210  172.9950  140.9680 N   0  0  0  0  0  2  0  0  0  0  0  0
  191.7000  174.1210  144.8670 C   0  0  2  0  0  0  0  0  0  0  0  0
  190.7750  174.4910  143.6880 C   0  0  0  0  0  2  0  0  0  0  0  0
  192.4860  173.0120  138.1780 N   0  0  0  0  0  0  0  0  0  0  0  0
  193.7210  173.5150  143.5350 C   0  0  0  0  0  3  0  0  0  0  0  0
  193.1300  174.2200  144.4730 C   0  0  0  0  0  0  0  0  0  0  0  0
  192.2110  172.6770  136.7900 C   0  0  0  0  0  1  0  0  0  0  0  0
  194.8370  173.0690  138.0390 O   0  0  0  0  0  0  0  0  0  0  0  0
  191.4810  173.5020  139.1010 C   0  0  2  0  0  3  0  0  0  0  0  0
  194.2290  176.4570  144.3590 C   0  0  0  0  0  2  0  0  0  0  0  0
  189.2860  173.1690  139.8450 C   0  0  0  0  0  2  0  0  0  0  0  0
  190.8850  173.5450  142.5100 C   0  0  0  0  0  0  0  0  0  0  0  0
  189.9020  172.4220  142.2780 C   0  0  2  0  0  3  0  0  0  0  0  0
  193.7980  175.2820  145.2250 C   0  0  1  0  0  0  0  0  0  0  0  0
  193.7830  173.2790  138.6940 C   0  0  0  0  0  0  0  0  0  0  0  0
  195.2860  175.5620  144.9870 C   0  0  1  0  0  3  0  0  0  0  0  0
  188.7930  172.7010  141.2330 C   0  0  1  0  0  3  0  0  0  0  0  0
  189.3440  171.8210  143.5600 C   0  0  0  0  0  1  0  0  0  0  0  0
  187.8280  174.9400  141.4530 C   0  0  0  0  0  0  0  0  0  0  0  0
  187.7870  173.6740  141.7670 C   0  0  0  0  0  3  0  0  0  0  0  0
  187.8740  176.2070  141.1420 C   0  0  0  0  0  3  0  0  0  0  0  0
  185.4010  179.0470  144.3280 C   0  0  0  0  0  2  0  0  0  0  0  0
  187.5260  177.1280  144.0610 C   0  0  0  0  0  2  0  0  0  0  0  0
  185.9460  177.5010  140.8270 O   0  0  0  0  0  0  0  0  0  0  0  0
  187.4720  177.9730  145.2580 N   0  0  0  0  0  2  0  0  0  0  0  0
  186.3150  179.1180  143.1090 C   0  0  0  0  0  2  0  0  0  0  0  0
  186.0900  178.3870  145.5370 C   0  0  2  0  0  3  0  0  0  0  0  0
  186.9570  177.8240  142.9040 N   0  0  0  0  0  0  0  0  0  0  0  0
  186.8850  177.1960  141.6100 C   0  0  0  0  0  0  0  0  0  0  0  0
  185.3080  177.2540  146.0080 N   0  0  0  0  0  2  0  0  0  0  0  0
  184.6060  178.4110  147.6310 O   0  0  0  0  0  1  0  0  0  0  0  0
  184.1830  177.7530  146.5730 O   0  0  0  0  0  0  0  0  0  0  0  0
  1  6  2  0  0  0  0
  2  3  1  0  0  0  0
  4 16  1  0  0  0  0
  4  7  1  0  0  0  0
  5 26  1  6  0  0  0
  5  1  1  0  0  0  0
  5 12  1  0  0  0  0
  6 23  2  0  0  0  0
  7 27  1  0  0  0  0
  9  4  2  0  0  0  0
 10  2  2  0  0  0  0
 11 22  1  0  0  0  0
 12  9  1  0  0  0  0
 13  8  1  1  0  0  0
 13 10  1  0  0  0  0
 14 13  1  0  0  0  0
 15 26  1  0  0  0  0
 15 20  1  0  0  0  0
 16 17  2  0  0  0  0
 17 13  1  0  0  0  0
 17 25  1  0  0  0  0
 18 15  1  0  0  0  0
 19 26  2  0  0  0  0
 20 11  1  1  0  0  0
 20  1  1  0  0  0  0
 22 28  1  0  0  0  0
 23 14  1  0  0  0  0
 24 23  1  0  0  0  0
 24 29  1  1  0  0  0
 25 21  1  6  0  0  0
 25  2  1  0  0  0  0
 27 21  1  6  0  0  0
 27 25  1  0  0  0  0
 28 31  1  1  0  0  0
 28 24  1  0  0  0  0
 30 31  2  0  0  0  0
 32 30  2  0  0  0  0
 32 40  1  0  0  0  0
 33 38  1  0  0  0  0
 34 36  1  0  0  0  0
 35 40  2  0  0  0  0
 36 38  1  0  0  0  0
 37 33  1  0  0  0  0
 38 41  1  6  0  0  0
 39 37  1  0  0  0  0
 39 34  1  0  0  0  0
 40 39  1  0  0  0  0
 41 43  1  0  0  0  0
 43 42  1  0  0  0  0
M  END
>  <MODEL>
2

>  <REMARK>
 VINA RESULT:      -8.4      0.984      1.115
  Name = 
  4 active torsions:
  status: ('A' for Active; 'I' for Inactive)
    1  A    between atoms: N_22  and  C_40
    2  A    between atoms: N_22  and  O_41
    3  A    between atoms: C_27  and  C_38
    4  A    between atoms: C_28  and  C_43
                            x       y       z     vdW  Elec       q    Type
                         _______ _______ _______ _____ _____    ______ ____

>  <TORSDO>
F 4

$$$$
=
 OpenBabel11042419183D

 43 49  0  0  1  0  0  0  0  0999 V2000
  191.2510  173.6580  140.1980 C   0  0  0  0  0  0  0  0  0  0  0  0
  196.2530  175.9030  143.0690 C   0  0  0  0  0  0  0  0  0  0  0  0
  197.1770  177.0000  143.4770 C   0  0  0  0  0  1  0  0  0  0  0  0
  195.1210  173.9470  139.4610 C   0  0  0  0  0  0  0  0  0  0  0  0
  191.8710  173.6840  138.8120 C   0  0  1  0  0  3  0  0  0  0  0  0
  191.8840  173.6330  141.3460 C   0  0  0  0  0  0  0  0  0  0  0  0
  196.1900  174.8480  139.2830 O   0  0  0  0  0  0  0  0  0  0  0  0
  194.9860  172.9130  143.7380 F   0  0  0  0  0  0  0  0  0  0  0  0
  194.3380  173.5930  138.4460 C   0  0  0  0  0  3  0  0  0  0  0  0
  195.4580  175.2340  143.9200 C   0  0  0  0  0  3  0  0  0  0  0  0
  189.5700  172.1320  141.1450 N   0  0  0  0  0  2  0  0  0  0  0  0
  193.1040  172.9070  138.6990 N   0  0  0  0  0  2  0  0  0  0  0  0
  194.6520  174.1530  143.2230 C   0  0  2  0  0  0  0  0  0  0  0  0
  193.1340  174.4180  143.3230 C   0  0  0  0  0  2  0  0  0  0  0  0
  189.6590  172.6810  138.8080 N   0  0  0  0  0  0  0  0  0  0  0  0
  194.7330  173.5470  140.8040 C   0  0  0  0  0  3  0  0  0  0  0  0
  195.1240  174.2830  141.8200 C   0  0  0  0  0  0  0  0  0  0  0  0
  188.3850  172.2540  138.2540 C   0  0  0  0  0  1  0  0  0  0  0  0
  190.8620  172.8190  136.7870 O   0  0  0  0  0  0  0  0  0  0  0  0
  189.8200  173.1860  140.1570 C   0  0  2  0  0  3  0  0  0  0  0  0
  195.4910  176.5500  140.8430 C   0  0  0  0  0  2  0  0  0  0  0  0
  189.2230  172.8150  142.3910 C   0  0  0  0  0  2  0  0  0  0  0  0
  192.2910  173.4090  142.5700 C   0  0  0  0  0  0  0  0  0  0  0  0
  191.6270  172.2380  143.2540 C   0  0  2  0  0  3  0  0  0  0  0  0
  196.0450  175.4120  141.6890 C   0  0  1  0  0  0  0  0  0  0  0  0
  190.7950  173.0270  138.0270 C   0  0  0  0  0  0  0  0  0  0  0  0
  196.6660  175.7330  140.3250 C   0  0  1  0  0  3  0  0  0  0  0  0
  190.1230  172.4120  143.5810 C   0  0  1  0  0  3  0  0  0  0  0  0
  192.4120  171.6930  144.4380 C   0  0  0  0  0  1  0  0  0  0  0  0
  189.5110  174.5950  144.5040 C   0  0  0  0  0  0  0  0  0  0  0  0
  189.9290  173.3760  144.7110 C   0  0  0  0  0  3  0  0  0  0  0  0
  189.0990  175.8160  144.2950 C   0  0  0  0  0  3  0  0  0  0  0  0
  186.5210  178.6260  147.4260 C   0  0  0  0  0  2  0  0  0  0  0  0
  186.3250  176.6640  145.3310 C   0  0  0  0  0  2  0  0  0  0  0  0
  189.8170  177.5210  145.7320 O   0  0  0  0  0  0  0  0  0  0  0  0
  185.1750  176.8860  146.2140 N   0  0  0  0  0  2  0  0  0  0  0  0
  187.5300  177.4830  147.3840 C   0  0  0  0  0  2  0  0  0  0  0  0
  185.1890  178.2540  146.7490 C   0  0  2  0  0  3  0  0  0  0  0  0
  187.5820  176.9270  146.0350 N   0  0  0  0  0  0  0  0  0  0  0  0
  188.8560  176.7890  145.3760 C   0  0  0  0  0  0  0  0  0  0  0  0
  184.8720  179.2100  145.6980 N   0  0  0  0  0  2  0  0  0  0  0  0
  183.7140  179.0020  143.9420 O   0  0  0  0  0  1  0  0  0  0  0  0
  183.6270  178.9140  145.2530 O   0  0  0  0  0  0  0  0  0  0  0  0
  1  6  2  0  0  0  0
  2  3  1  0  0  0  0
  2 10  2  0  0  0  0
  4 16  1  0  0  0  0
  5 26  1  6  0  0  0
  5  1  1  0  0  0  0
  6 23  2  0  0  0  0
  7  4  1  0  0  0  0
  7 27  1  0  0  0  0
  9 12  1  0  0  0  0
  9  4  2  0  0  0  0
 11 22  1  0  0  0  0
 12  5  1  0  0  0  0
 13 14  1  0  0  0  0
 13  8  1  1  0  0  0
 13 10  1  0  0  0  0
 15 20  1  0  0  0  0
 16 17  2  0  0  0  0
 17 13  1  0  0  0  0
 18 15  1  0  0  0  0
 19 26  2  0  0  0  0
 20  1  1  6  0  0  0
 20 11  1  0  0  0  0
 22 28  1  0  0  0  0
 23 24  1  0  0  0  0
 23 14  1  0  0  0  0
 24 28  1  0  0  0  0
 24 29  1  1  0  0  0
 25 21  1  6  0  0  0
 25 17  1  0  0  0  0
 25  2  1  0  0  0  0
 26 15  1  0  0  0  0
 27 21  1  6  0  0  0
 27 25  1  0  0  0  0
 28 31  1  1  0  0  0
 30 31  2  0  0  0  0
 32 30  2  0  0  0  0
 32 40  1  0  0  0  0
 34 39  1  0  0  0  0
 34 36  1  0  0  0  0
 36 38  1  0  0  0  0
 37 33  1  0  0  0  0
 38 41  1  6  0  0  0
 38 33  1  0  0  0  0
 39 37  1  0  0  0  0
 40 35  2  0  0  0  0
 40 39  1  0  0  0  0
 42 43  1  0  0  0  0
 43 41  1  0  0  0  0
M  END
>  <MODEL>
3

>  <REMARK>
 VINA RESULT:      -7.6      2.491      4.220
  Name = 
  4 active torsions:
  status: ('A' for Active; 'I' for Inactive)
    1  A    between atoms: N_22  and  C_40
    2  A    between atoms: N_22  and  O_41
    3  A    between atoms: C_27  and  C_38
    4  A    between atoms: C_28  and  C_43
                            x       y       z     vdW  Elec       q    Type
                         _______ _______ _______ _____ _____    ______ ____

>  <TORSDO>
F 4

$$$$
=
 OpenBabel11042419183D

 43 49  0  0  1  0  0  0  0  0999 V2000
  192.5500  175.3790  143.9460 C   0  0  0  0  0  0  0  0  0  0  0  0
  187.3170  176.5590  140.8590 C   0  0  0  0  0  0  0  0  0  0  0  0
  186.4580  177.3720  139.9520 C   0  0  0  0  0  1  0  0  0  0  0  0
  189.0160  176.9500  144.7440 C   0  0  0  0  0  0  0  0  0  0  0  0
  192.2740  176.3730  145.0590 C   0  0  1  0  0  3  0  0  0  0  0  0
  191.6720  174.8220  143.1480 C   0  0  0  0  0  0  0  0  0  0  0  0
  188.1290  177.9990  144.4250 O   0  0  0  0  0  0  0  0  0  0  0  0
  188.0390  173.5690  142.0990 F   0  0  0  0  0  0  0  0  0  0  0  0
  189.9650  177.1020  145.6620 C   0  0  0  0  0  3  0  0  0  0  0  0
  187.8120  175.3500  140.5440 C   0  0  0  0  0  3  0  0  0  0  0  0
  193.7780  173.2470  144.0020 N   0  0  0  0  0  2  0  0  0  0  0  0
  191.0190  176.1350  145.7700 N   0  0  0  0  0  2  0  0  0  0  0  0
  188.6250  174.7490  141.6750 C   0  0  2  0  0  0  0  0  0  0  0  0
  190.0990  174.5350  141.2680 C   0  0  0  0  0  2  0  0  0  0  0  0
  194.2950  175.0870  145.4590 N   0  0  0  0  0  0  0  0  0  0  0  0
  189.0340  175.7500  143.9230 C   0  0  0  0  0  3  0  0  0  0  0  0
  188.5070  175.7990  142.7210 C   0  0  0  0  0  0  0  0  0  0  0  0
  195.6050  174.7910  146.0170 C   0  0  0  0  0  1  0  0  0  0  0  0
  193.6160  176.6830  147.0520 O   0  0  0  0  0  0  0  0  0  0  0  0
  193.8870  174.7050  144.1210 C   0  0  2  0  0  3  0  0  0  0  0  0
  188.6430  178.2060  142.0780 C   0  0  0  0  0  2  0  0  0  0  0  0
  193.9050  172.9440  142.5770 C   0  0  0  0  0  2  0  0  0  0  0  0
  190.9690  174.0140  142.3930 C   0  0  0  0  0  0  0  0  0  0  0  0
  191.3170  172.5520  142.5370 C   0  0  2  0  0  3  0  0  0  0  0  0
  187.7800  176.9580  142.2060 C   0  0  1  0  0  0  0  0  0  0  0  0
  193.4190  176.0850  145.9620 C   0  0  0  0  0  0  0  0  0  0  0  0
  187.5320  178.1660  143.1170 C   0  0  1  0  0  3  0  0  0  0  0  0
  192.7140  172.1360  142.0140 C   0  0  1  0  0  3  0  0  0  0  0  0
  190.2220  171.6100  142.0560 C   0  0  0  0  0  1  0  0  0  0  0  0
  193.1310  173.2140  139.8560 C   0  0  0  0  0  0  0  0  0  0  0  0
  192.7530  172.1530  140.5170 C   0  0  0  0  0  3  0  0  0  0  0  0
  193.5030  174.2770  139.1970 C   0  0  0  0  0  3  0  0  0  0  0  0
  195.5720  174.9140  134.7640 C   0  0  0  0  0  2  0  0  0  0  0  0
  196.0550  174.9270  137.5990 C   0  0  0  0  0  2  0  0  0  0  0  0
  192.5190  174.3740  137.0730 O   0  0  0  0  0  0  0  0  0  0  0  0
  197.1920  174.8090  136.6800 N   0  0  0  0  0  2  0  0  0  0  0  0
  194.8920  173.8640  135.6360 C   0  0  0  0  0  2  0  0  0  0  0  0
  196.8800  175.4340  135.3880 C   0  0  2  0  0  3  0  0  0  0  0  0
  194.8500  174.3310  137.0190 N   0  0  0  0  0  0  0  0  0  0  0  0
  193.5950  174.3320  137.7260 C   0  0  0  0  0  0  0  0  0  0  0  0
  196.8340  176.8820  135.5260 N   0  0  0  0  0  2  0  0  0  0  0  0
  195.8530  178.5940  134.7680 O   0  0  0  0  0  1  0  0  0  0  0  0
  195.6840  177.3010  134.9450 O   0  0  0  0  0  0  0  0  0  0  0  0
  2 25  1  0  0  0  0
  3  2  1  0  0  0  0
  4  9  2  0  0  0  0
  5  1  1  6  0  0  0
  5 12  1  0  0  0  0
  5 26  1  0  0  0  0
  6  1  2  0  0  0  0
  7  4  1  0  0  0  0
  9 12  1  0  0  0  0
 10  2  2  0  0  0  0
 10 13  1  0  0  0  0
 11 20  1  0  0  0  0
 13  8  1  1  0  0  0
 13 17  1  0  0  0  0
 14 13  1  0  0  0  0
 14 23  1  0  0  0  0
 15 26  1  0  0  0  0
 15 18  1  0  0  0  0
 16  4  1  0  0  0  0
 17 16  2  0  0  0  0
 20  1  1  1  0  0  0
 20 15  1  0  0  0  0
 22 11  1  0  0  0  0
 23 24  1  0  0  0  0
 23  6  2  0  0  0  0
 24 29  1  6  0  0  0
 25 21  1  6  0  0  0
 25 17  1  0  0  0  0
 25 27  1  0  0  0  0
 26 19  2  0  0  0  0
 27 21  1  6  0  0  0
 27  7  1  0  0  0  0
 28 31  1  6  0  0  0
 28 24  1  0  0  0  0
 28 22  1  0  0  0  0
 30 31  2  0  0  0  0
 32 30  2  0  0  0  0
 33 38  1  0  0  0  0
 33 37  1  0  0  0  0
 35 40  2  0  0  0  0
 36 34  1  0  0  0  0
 37 39  1  0  0  0  0
 38 41  1  1  0  0  0
 38 36  1  0  0  0  0
 39 34  1  0  0  0  0
 39 40  1  0  0  0  0
 40 32  1  0  0  0  0
 42 43  1  0  0  0  0
 43 41  1  0  0  0  0
M  END
>  <MODEL>
4

>  <REMARK>
 VINA RESULT:      -7.6      2.826      8.346
  Name = 
  4 active torsions:
  status: ('A' for Active; 'I' for Inactive)
    1  A    between atoms: N_22  and  C_40
    2  A    between atoms: N_22  and  O_41
    3  A    between atoms: C_27  and  C_38
    4  A    between atoms: C_28  and  C_43
                            x       y       z     vdW  Elec       q    Type
                         _______ _______ _______ _____ _____    ______ ____

>  <TORSDO>
F 4

$$$$
=
 OpenBabel11042419183D

 43 49  0  0  1  0  0  0  0  0999 V2000
  188.8570  176.1680  142.3670 C   0  0  0  0  0  0  0  0  0  0  0  0
  192.4230  171.8160  139.7900 C   0  0  0  0  0  0  0  0  0  0  0  0
  193.5690  171.3510  138.9570 C   0  0  0  0  0  1  0  0  0  0  0  0
  188.7290  173.8420  139.1780 C   0  0  0  0  0  0  0  0  0  0  0  0
  188.0900  176.4820  141.0940 C   0  0  1  0  0  3  0  0  0  0  0  0
  189.5070  175.0650  142.6460 C   0  0  0  0  0  0  0  0  0  0  0  0
  189.3800  173.5140  137.9720 O   0  0  0  0  0  0  0  0  0  0  0  0
  190.3440  171.1860  142.2950 F   0  0  0  0  0  0  0  0  0  0  0  0
  187.8430  174.8320  139.2390 C   0  0  0  0  0  3  0  0  0  0  0  0
  192.3530  171.6670  141.1230 C   0  0  0  0  0  3  0  0  0  0  0  0
  188.1280  176.2760  144.7140 N   0  0  0  0  0  2  0  0  0  0  0  0
  187.4080  175.3270  140.5130 N   0  0  0  0  0  2  0  0  0  0  0  0
  191.0560  172.2090  141.6940 C   0  0  2  0  0  0  0  0  0  0  0  0
  191.3070  173.3770  142.6740 C   0  0  0  0  0  2  0  0  0  0  0  0
  187.2330  177.7090  143.0070 N   0  0  0  0  0  0  0  0  0  0  0  0
  189.1690  173.2320  140.4220 C   0  0  0  0  0  3  0  0  0  0  0  0
  190.3620  172.6820  140.4680 C   0  0  0  0  0  0  0  0  0  0  0  0
  186.5460  178.7790  143.7110 C   0  0  0  0  0  1  0  0  0  0  0  0
  186.2010  177.9870  140.9080 O   0  0  0  0  0  0  0  0  0  0  0  0
  188.4260  177.0540  143.5080 C   0  0  2  0  0  3  0  0  0  0  0  0
  191.6580  173.8530  138.6870 C   0  0  0  0  0  2  0  0  0  0  0  0
  189.3990  176.1210  145.4230 C   0  0  0  0  0  2  0  0  0  0  0  0
  190.0350  174.0050  143.2060 C   0  0  0  0  0  0  0  0  0  0  0  0
  189.4610  173.6510  144.5570 C   0  0  2  0  0  3  0  0  0  0  0  0
  191.2240  172.5280  139.2970 C   0  0  1  0  0  0  0  0  0  0  0  0
  187.0840  177.4400  141.6200 C   0  0  0  0  0  0  0  0  0  0  0  0
  190.7110  172.9470  137.9140 C   0  0  1  0  0  3  0  0  0  0  0  0
  189.7690  174.6470  145.7020 C   0  0  1  0  0  3  0  0  0  0  0  0
  189.7090  172.2080  144.9700 C   0  0  0  0  0  1  0  0  0  0  0  0
  192.1520  175.1410  145.4400 C   0  0  0  0  0  0  0  0  0  0  0  0
  191.2040  174.5560  146.1210 C   0  0  0  0  0  3  0  0  0  0  0  0
  193.0990  175.7220  144.7540 C   0  0  0  0  0  3  0  0  0  0  0  0
  197.6380  173.8910  145.3720 C   0  0  0  0  0  2  0  0  0  0  0  0
  195.0020  173.3310  144.3670 C   0  0  0  0  0  2  0  0  0  0  0  0
  194.9320  176.5980  145.9200 O   0  0  0  0  0  0  0  0  0  0  0  0
  196.1280  172.5040  143.9200 N   0  0  0  0  0  2  0  0  0  0  0  0
  196.8720  174.9920  144.6470 C   0  0  0  0  0  2  0  0  0  0  0  0
  197.1890  172.4830  144.9360 C   0  0  2  0  0  3  0  0  0  0  0  0
  195.4430  174.6930  144.6750 N   0  0  0  0  0  0  0  0  0  0  0  0
  194.5200  175.6940  145.1450 C   0  0  0  0  0  0  0  0  0  0  0  0
  196.7660  171.7070  146.0920 N   0  0  0  0  0  2  0  0  0  0  0  0
  196.6430  169.7470  146.8730 O   0  0  0  0  0  1  0  0  0  0  0  0
  197.2000  170.4390  145.9010 O   0  0  0  0  0  0  0  0  0  0  0  0
  1  6  2  0  0  0  0
  2 10  2  0  0  0  0
  3  2  1  0  0  0  0
  4  9  2  0  0  0  0
  4 16  1  0  0  0  0
  5 12  1  1  0  0  0
  5 26  1  0  0  0  0
  5  1  1  0  0  0  0
  6 23  2  0  0  0  0
  7  4  1  0  0  0  0
  9 12  1  0  0  0  0
 10 13  1  0  0  0  0
 11 22  1  0  0  0  0
 13  8  1  1  0  0  0
 13 14  1  0  0  0  0
 14 23  1  0  0  0  0
 15 20  1  0  0  0  0
 15 18  1  0  0  0  0
 16 17  2  0  0  0  0
 17 13  1  0  0  0  0
 19 26  2  0  0  0  0
 20  1  1  6  0  0  0
 20 11  1  0  0  0  0
 22 28  1  0  0  0  0
 23 24  1  0  0  0  0
 24 29  1  1  0  0  0
 24 28  1  0  0  0  0
 25 21  1  1  0  0  0
 25  2  1  0  0  0  0
 25 17  1  0  0  0  0
 26 15  1  0  0  0  0
 27  7  1  0  0  0  0
 27 21  1  1  0  0  0
 27 25  1  0  0  0  0
 28 31  1  6  0  0  0
 30 31  2  0  0  0  0
 32 40  1  0  0  0  0
 32 30  2  0  0  0  0
 34 39  1  0  0  0  0
 36 34  1  0  0  0  0
 36 38  1  0  0  0  0
 37 39  1  0  0  0  0
 37 33  1  0  0  0  0
 38 33  1  0  0  0  0
 38 41  1  1  0  0  0
 39 40  1  0  0  0  0
 40 35  2  0  0  0  0
 43 41  1  0  0  0  0
 43 42  1  0  0  0  0
M  END
>  <MODEL>
5

>  <REMARK>
 VINA RESULT:      -7.4      2.655      8.517
  Name = 
  4 active torsions:
  status: ('A' for Active; 'I' for Inactive)
    1  A    between atoms: N_22  and  C_40
    2  A    between atoms: N_22  and  O_41
    3  A    between atoms: C_27  and  C_38
    4  A    between atoms: C_28  and  C_43
                            x       y       z     vdW  Elec       q    Type
                         _______ _______ _______ _____ _____    ______ ____

>  <TORSDO>
F 4

$$$$
=
 OpenBabel11042419183D

 43 49  0  0  1  0  0  0  0  0999 V2000
  192.8300  175.1170  143.9070 C   0  0  0  0  0  0  0  0  0  0  0  0
  187.4590  176.4280  141.1260 C   0  0  0  0  0  0  0  0  0  0  0  0
  186.5760  177.2500  140.2490 C   0  0  0  0  0  1  0  0  0  0  0  0
  189.4230  176.8630  144.8780 C   0  0  0  0  0  0  0  0  0  0  0  0
  192.6690  176.1560  145.0020 C   0  0  1  0  0  3  0  0  0  0  0  0
  191.8790  174.5750  143.1850 C   0  0  0  0  0  0  0  0  0  0  0  0
  188.5620  177.9390  144.5830 O   0  0  0  0  0  0  0  0  0  0  0  0
  188.1360  173.4490  142.4140 F   0  0  0  0  0  0  0  0  0  0  0  0
  190.4360  177.0010  145.7280 C   0  0  0  0  0  3  0  0  0  0  0  0
  187.8810  175.1900  140.8190 C   0  0  0  0  0  3  0  0  0  0  0  0
  193.9700  172.9380  143.9550 N   0  0  0  0  0  2  0  0  0  0  0  0
  191.4550  175.9930  145.7990 N   0  0  0  0  0  2  0  0  0  0  0  0
  188.7410  174.5890  141.9150 C   0  0  2  0  0  0  0  0  0  0  0  0
  190.1760  174.3000  141.4210 C   0  0  0  0  0  2  0  0  0  0  0  0
  194.6570  174.7960  145.3130 N   0  0  0  0  0  0  0  0  0  0  0  0
  189.3380  175.6390  144.0980 C   0  0  0  0  0  3  0  0  0  0  0  0
  188.7360  175.6740  142.9310 C   0  0  0  0  0  0  0  0  0  0  0  0
  195.9870  174.4610  145.7950 C   0  0  0  0  0  1  0  0  0  0  0  0
  194.1500  176.4680  146.8930 O   0  0  0  0  0  0  0  0  0  0  0  0
  194.1460  174.3920  144.0180 C   0  0  2  0  0  3  0  0  0  0  0  0
  188.9280  178.0520  142.2020 C   0  0  0  0  0  2  0  0  0  0  0  0
  193.9910  172.5860  142.5340 C   0  0  0  0  0  2  0  0  0  0  0  0
  191.0960  173.7750  142.5050 C   0  0  0  0  0  0  0  0  0  0  0  0
  191.3920  172.3050  142.6740 C   0  0  2  0  0  3  0  0  0  0  0  0
  188.0250  176.8480  142.4260 C   0  0  1  0  0  0  0  0  0  0  0  0
  193.8570  175.8460  145.8380 C   0  0  0  0  0  0  0  0  0  0  0  0
  187.8870  178.0920  143.3110 C   0  0  1  0  0  3  0  0  0  0  0  0
  192.7340  171.8140  142.0770 C   0  0  1  0  0  3  0  0  0  0  0  0
  190.2290  171.3970  142.2960 C   0  0  0  0  0  1  0  0  0  0  0  0
  192.9140  172.8500  139.8660 C   0  0  0  0  0  0  0  0  0  0  0  0
  192.6750  171.7840  140.5810 C   0  0  0  0  0  3  0  0  0  0  0  0
  193.1490  173.9190  139.1540 C   0  0  0  0  0  3  0  0  0  0  0  0
  191.2780  173.8930  134.5900 C   0  0  0  0  0  2  0  0  0  0  0  0
  190.6230  173.8980  137.3900 C   0  0  0  0  0  2  0  0  0  0  0  0
  194.2220  173.6740  137.0860 O   0  0  0  0  0  0  0  0  0  0  0  0
  189.6010  174.2930  136.4160 N   0  0  0  0  0  2  0  0  0  0  0  0
  192.1130  174.7400  135.5440 C   0  0  0  0  0  2  0  0  0  0  0  0
  189.8500  173.6550  135.1160 C   0  0  2  0  0  3  0  0  0  0  0  0
  191.9650  174.2310  136.9050 N   0  0  0  0  0  0  0  0  0  0  0  0
  193.1410  173.9320  137.6800 C   0  0  0  0  0  0  0  0  0  0  0  0
  189.5710  172.2290  135.1920 N   0  0  0  0  0  2  0  0  0  0  0  0
  190.7850  170.5320  135.5300 O   0  0  0  0  0  1  0  0  0  0  0  0
  190.6740  171.5820  134.7450 O   0  0  0  0  0  0  0  0  0  0  0  0
  2 25  1  0  0  0  0
  3  2  1  0  0  0  0
  4  9  2  0  0  0  0
  5  1  1  6  0  0  0
  5 12  1  0  0  0  0
  5 26  1  0  0  0  0
  6  1  2  0  0  0  0
  7  4  1  0  0  0  0
  9 12  1  0  0  0  0
 10  2  2  0  0  0  0
 10 13  1  0  0  0  0
 11 20  1  0  0  0  0
 13  8  1  1  0  0  0
 13 17  1  0  0  0  0
 14 13  1  0  0  0  0
 14 23  1  0  0  0  0
 15 18  1  0  0  0  0
 15 26  1  0  0  0  0
 16  4  1  0  0  0  0
 17 16  2  0  0  0  0
 20  1  1  1  0  0  0
 20 15  1  0  0  0  0
 22 11  1  0  0  0  0
 23 24  1  0  0  0  0
 23  6  2  0  0  0  0
 24 29  1  6  0  0  0
 25 21  1  6  0  0  0
 25 17  1  0  0  0  0
 25 27  1  0  0  0  0
 26 19  2  0  0  0  0
 27 21  1  6  0  0  0
 27  7  1  0  0  0  0
 28 31  1  6  0  0  0
 28 22  1  0  0  0  0
 28 24  1  0  0  0  0
 30 31  2  0  0  0  0
 32 30  2  0  0  0  0
 33 38  1  0  0  0  0
 33 37  1  0  0  0  0
 35 40  2  0  0  0  0
 36 34  1  0  0  0  0
 37 39  1  0  0  0  0
 38 41  1  1  0  0  0
 38 36  1  0  0  0  0
 39 34  1  0  0  0  0
 39 40  1  0  0  0  0
 40 32  1  0  0  0  0
 43 41  1  0  0  0  0
 43 42  1  0  0  0  0
M  END
>  <MODEL>
6

>  <REMARK>
 VINA RESULT:      -7.4      2.901      7.459
  Name = 
  4 active torsions:
  status: ('A' for Active; 'I' for Inactive)
    1  A    between atoms: N_22  and  C_40
    2  A    between atoms: N_22  and  O_41
    3  A    between atoms: C_27  and  C_38
    4  A    between atoms: C_28  and  C_43
                            x       y       z     vdW  Elec       q    Type
                         _______ _______ _______ _____ _____    ______ ____

>  <TORSDO>
F 4

$$$$
=
 OpenBabel11042419183D

 43 49  0  0  1  0  0  0  0  0999 V2000
  192.1770  174.1680  138.1220 C   0  0  0  0  0  0  0  0  0  0  0  0
  195.2650  175.4300  143.3350 C   0  0  0  0  0  0  0  0  0  0  0  0
  195.8040  176.3510  144.3770 C   0  0  0  0  0  1  0  0  0  0  0  0
  195.9460  174.6350  139.2080 C   0  0  0  0  0  0  0  0  0  0  0  0
  193.3000  174.5990  137.1950 C   0  0  1  0  0  3  0  0  0  0  0  0
  192.2840  173.8010  139.3760 C   0  0  0  0  0  0  0  0  0  0  0  0
  196.8780  175.5420  139.7520 O   0  0  0  0  0  0  0  0  0  0  0  0
  194.2030  172.3850  142.5660 F   0  0  0  0  0  0  0  0  0  0  0  0
  195.6930  174.6020  137.9030 C   0  0  0  0  0  3  0  0  0  0  0  0
  194.2780  174.5450  143.5510 C   0  0  0  0  0  3  0  0  0  0  0  0
  190.4520  172.4420  137.8130 N   0  0  0  0  0  2  0  0  0  0  0  0
  194.5550  173.8810  137.4110 N   0  0  0  0  0  2  0  0  0  0  0  0
  193.9620  173.7240  142.3140 C   0  0  2  0  0  0  0  0  0  0  0  0
  192.5160  173.9580  141.8270 C   0  0  0  0  0  2  0  0  0  0  0  0
  191.4190  173.6570  135.9810 N   0  0  0  0  0  0  0  0  0  0  0  0
  195.0940  173.8590  140.0950 C   0  0  0  0  0  3  0  0  0  0  0  0
  194.9470  174.2600  141.3380 C   0  0  0  0  0  0  0  0  0  0  0  0
  190.5430  173.4220  134.8450 C   0  0  0  0  0  1  0  0  0  0  0  0
  193.3160  174.3780  134.7830 O   0  0  0  0  0  0  0  0  0  0  0  0
  190.9550  173.7400  137.3510 C   0  0  2  0  0  3  0  0  0  0  0  0
  195.4060  176.7110  141.2630 C   0  0  0  0  0  2  0  0  0  0  0  0
  189.5480  172.7290  138.9270 C   0  0  0  0  0  2  0  0  0  0  0  0
  192.1810  173.2220  140.5460 C   0  0  0  0  0  0  0  0  0  0  0  0
  191.4400  171.9060  140.5380 C   0  0  2  0  0  3  0  0  0  0  0  0
  195.6980  175.3700  141.9220 C   0  0  1  0  0  0  0  0  0  0  0  0
  192.7250  174.2100  135.8820 C   0  0  0  0  0  0  0  0  0  0  0  0
  196.7780  176.0760  141.0940 C   0  0  1  0  0  3  0  0  0  0  0  0
  189.9250  171.9870  140.2280 C   0  0  1  0  0  3  0  0  0  0  0  0
  191.7330  171.0300  141.7470 C   0  0  0  0  0  1  0  0  0  0  0  0
  188.9160  173.8530  141.4500 C   0  0  0  0  0  0  0  0  0  0  0  0
  189.1730  172.5750  141.3830 C   0  0  0  0  0  3  0  0  0  0  0  0
  188.6640  175.1320  141.5190 C   0  0  0  0  0  3  0  0  0  0  0  0
  187.8580  177.5440  145.7460 C   0  0  0  0  0  2  0  0  0  0  0  0
  189.8850  176.5880  143.9430 C   0  0  0  0  0  2  0  0  0  0  0  0
  186.6760  175.4560  142.7140 O   0  0  0  0  0  0  0  0  0  0  0  0
  190.2260  177.6320  144.9150 N   0  0  0  0  0  2  0  0  0  0  0  0
  187.6150  177.6330  144.2430 C   0  0  0  0  0  2  0  0  0  0  0  0
  189.3580  177.5430  146.0960 C   0  0  2  0  0  3  0  0  0  0  0  0
  188.4770  176.6780  143.5510 N   0  0  0  0  0  0  0  0  0  0  0  0
  187.8960  175.7530  142.6130 C   0  0  0  0  0  0  0  0  0  0  0  0
  189.6930  176.3660  146.8830 N   0  0  0  0  0  2  0  0  0  0  0  0
  188.9420  174.5400  147.6370 O   0  0  0  0  0  1  0  0  0  0  0  0
  188.5750  175.6030  146.9540 O   0  0  0  0  0  0  0  0  0  0  0  0
  1  6  2  0  0  0  0
  2 10  2  0  0  0  0
  2  3  1  0  0  0  0
  4  7  1  0  0  0  0
  4 16  1  0  0  0  0
  5 26  1  6  0  0  0
  5 12  1  0  0  0  0
  5  1  1  0  0  0  0
  6 23  2  0  0  0  0
  7 27  1  0  0  0  0
  9  4  2  0  0  0  0
 11 22  1  0  0  0  0
 12  9  1  0  0  0  0
 13  8  1  1  0  0  0
 13 10  1  0  0  0  0
 14 13  1  0  0  0  0
 15 20  1  0  0  0  0
 16 17  2  0  0  0  0
 17 25  1  0  0  0  0
 17 13  1  0  0  0  0
 18 15  1  0  0  0  0
 19 26  2  0  0  0  0
 20 11  1  1  0  0  0
 20  1  1  0  0  0  0
 22 28  1  0  0  0  0
 23 14  1  0  0  0  0
 24 23  1  0  0  0  0
 24 29  1  1  0  0  0
 25 21  1  6  0  0  0
 25  2  1  0  0  0  0
 26 15  1  0  0  0  0
 27 21  1  6  0  0  0
 27 25  1  0  0  0  0
 28 24  1  0  0  0  0
 28 31  1  1  0  0  0
 30 32  2  0  0  0  0
 31 30  2  0  0  0  0
 32 40  1  0  0  0  0
 33 38  1  0  0  0  0
 34 36  1  0  0  0  0
 36 38  1  0  0  0  0
 37 33  1  0  0  0  0
 38 41  1  6  0  0  0
 39 34  1  0  0  0  0
 39 37  1  0  0  0  0
 40 35  2  0  0  0  0
 40 39  1  0  0  0  0
 41 43  1  0  0  0  0
 43 42  1  0  0  0  0
M  END
>  <MODEL>
7

>  <REMARK>
 VINA RESULT:      -7.3      2.647      4.047
  Name = 
  4 active torsions:
  status: ('A' for Active; 'I' for Inactive)
    1  A    between atoms: N_22  and  C_40
    2  A    between atoms: N_22  and  O_41
    3  A    between atoms: C_27  and  C_38
    4  A    between atoms: C_28  and  C_43
                            x       y       z     vdW  Elec       q    Type
                         _______ _______ _______ _____ _____    ______ ____

>  <TORSDO>
F 4

$$$$
=
 OpenBabel11042419183D

 43 49  0  0  1  0  0  0  0  0999 V2000
  190.0360  176.6950  145.3980 C   0  0  0  0  0  0  0  0  0  0  0  0
  187.0860  176.2380  139.9770 C   0  0  0  0  0  0  0  0  0  0  0  0
  186.7340  176.7070  138.6060 C   0  0  0  0  0  1  0  0  0  0  0  0
  186.4430  177.5260  143.9840 C   0  0  0  0  0  0  0  0  0  0  0  0
  189.0990  177.7440  145.9710 C   0  0  1  0  0  3  0  0  0  0  0  0
  189.7800  175.8520  144.4280 C   0  0  0  0  0  0  0  0  0  0  0  0
  185.7320  178.2950  143.0410 O   0  0  0  0  0  0  0  0  0  0  0  0
  187.4160  173.6850  142.0660 F   0  0  0  0  0  0  0  0  0  0  0  0
  186.7460  178.0100  145.1850 C   0  0  0  0  0  3  0  0  0  0  0  0
  187.8160  175.1400  140.2330 C   0  0  0  0  0  3  0  0  0  0  0  0
  191.3050  174.9230  146.5390 N   0  0  0  0  0  2  0  0  0  0  0  0
  187.6990  177.3280  146.0130 N   0  0  0  0  0  2  0  0  0  0  0  0
  187.9860  174.8970  141.7210 C   0  0  2  0  0  0  0  0  0  0  0  0
  189.4690  174.9670  142.1460 C   0  0  0  0  0  2  0  0  0  0  0  0
  190.7550  177.0110  147.5900 N   0  0  0  0  0  0  0  0  0  0  0  0
  187.0350  176.2600  143.5810 C   0  0  0  0  0  3  0  0  0  0  0  0
  187.2120  176.0250  142.3000 C   0  0  0  0  0  0  0  0  0  0  0  0
  191.6050  177.0970  148.7660 C   0  0  0  0  0  1  0  0  0  0  0  0
  189.1530  178.6160  148.2300 O   0  0  0  0  0  0  0  0  0  0  0  0
  191.1560  176.3700  146.3530 C   0  0  2  0  0  3  0  0  0  0  0  0
  187.3660  178.2910  141.2670 C   0  0  0  0  0  2  0  0  0  0  0  0
  192.1940  174.4650  145.4700 C   0  0  0  0  0  2  0  0  0  0  0  0
  189.6800  174.8120  143.6380 C   0  0  0  0  0  0  0  0  0  0  0  0
  190.0790  173.4990  144.2680 C   0  0  2  0  0  3  0  0  0  0  0  0
  186.7240  176.9110  141.2440 C   0  0  1  0  0  0  0  0  0  0  0  0
  189.6300  177.8460  147.3550 C   0  0  0  0  0  0  0  0  0  0  0  0
  185.8900  178.1440  141.6100 C   0  0  1  0  0  3  0  0  0  0  0  0
  191.5820  173.3410  144.6050 C   0  0  1  0  0  3  0  0  0  0  0  0
  189.5210  172.2790  143.5480 C   0  0  0  0  0  1  0  0  0  0  0  0
  192.9620  174.1770  142.7630 C   0  0  0  0  0  0  0  0  0  0  0  0
  192.3950  173.1630  143.3590 C   0  0  0  0  0  3  0  0  0  0  0  0
  193.5240  175.1920  142.1650 C   0  0  0  0  0  3  0  0  0  0  0  0
  194.6860  174.1170  137.4930 C   0  0  0  0  0  2  0  0  0  0  0  0
  192.5570  174.1640  139.4270 C   0  0  0  0  0  2  0  0  0  0  0  0
  195.6130  175.1280  141.1080 O   0  0  0  0  0  0  0  0  0  0  0  0
  192.2260  174.1020  138.0000 N   0  0  0  0  0  2  0  0  0  0  0  0
  194.6040  175.2790  138.4770 C   0  0  0  0  0  2  0  0  0  0  0  0
  193.3130  173.4660  137.2430 C   0  0  2  0  0  3  0  0  0  0  0  0
  193.8180  174.8800  139.6400 N   0  0  0  0  0  0  0  0  0  0  0  0
  194.3640  175.0640  140.9600 C   0  0  0  0  0  0  0  0  0  0  0  0
  193.3680  172.0420  137.5390 N   0  0  0  0  0  2  0  0  0  0  0  0
  191.8820  170.6220  138.0320 O   0  0  0  0  0  1  0  0  0  0  0  0
  192.2040  171.5000  137.1060 O   0  0  0  0  0  0  0  0  0  0  0  0
  2 10  2  0  0  0  0
  2 25  1  0  0  0  0
  3  2  1  0  0  0  0
  4  9  2  0  0  0  0
  5  1  1  6  0  0  0
  5 12  1  0  0  0  0
  5 26  1  0  0  0  0
  6  1  2  0  0  0  0
  7  4  1  0  0  0  0
  9 12  1  0  0  0  0
 10 13  1  0  0  0  0
 13  8  1  1  0  0  0
 13 14  1  0  0  0  0
 13 17  1  0  0  0  0
 14 23  1  0  0  0  0
 15 18  1  0  0  0  0
 16  4  1  0  0  0  0
 17 16  2  0  0  0  0
 20  1  1  6  0  0  0
 20 11  1  0  0  0  0
 20 15  1  0  0  0  0
 22 11  1  0  0  0  0
 23 24  1  0  0  0  0
 23  6  2  0  0  0  0
 24 29  1  6  0  0  0
 24 28  1  0  0  0  0
 25 21  1  1  0  0  0
 25 27  1  0  0  0  0
 25 17  1  0  0  0  0
 26 15  1  0  0  0  0
 26 19  2  0  0  0  0
 27 21  1  1  0  0  0
 27  7  1  0  0  0  0
 28 31  1  6  0  0  0
 28 22  1  0  0  0  0
 30 31  2  0  0  0  0
 32 30  2  0  0  0  0
 33 37  1  0  0  0  0
 34 39  1  0  0  0  0
 36 34  1  0  0  0  0
 37 39  1  0  0  0  0
 38 33  1  0  0  0  0
 38 41  1  1  0  0  0
 38 36  1  0  0  0  0
 39 40  1  0  0  0  0
 40 35  2  0  0  0  0
 40 32  1  0  0  0  0
 43 41  1  0  0  0  0
 43 42  1  0  0  0  0
M  END
>  <MODEL>
8

>  <REMARK>
 VINA RESULT:      -7.2      2.343      8.514
  Name = 
  4 active torsions:
  status: ('A' for Active; 'I' for Inactive)
    1  A    between atoms: N_22  and  C_40
    2  A    between atoms: N_22  and  O_41
    3  A    between atoms: C_27  and  C_38
    4  A    between atoms: C_28  and  C_43
                            x       y       z     vdW  Elec       q    Type
                         _______ _______ _______ _____ _____    ______ ____

>  <TORSDO>
F 4

$$$$
=
 OpenBabel11042419183D

 43 49  0  0  1  0  0  0  0  0999 V2000
  190.1720  176.6000  145.4550 C   0  0  0  0  0  0  0  0  0  0  0  0
  187.4440  175.8190  139.9560 C   0  0  0  0  0  0  0  0  0  0  0  0
  187.1440  176.2080  138.5480 C   0  0  0  0  0  1  0  0  0  0  0  0
  186.6330  177.3190  143.8570 C   0  0  0  0  0  0  0  0  0  0  0  0
  189.2060  177.6710  145.9320 C   0  0  1  0  0  3  0  0  0  0  0  0
  189.9610  175.7030  144.5240 C   0  0  0  0  0  0  0  0  0  0  0  0
  185.9550  178.0290  142.8450 O   0  0  0  0  0  0  0  0  0  0  0  0
  187.7080  173.3870  142.1940 F   0  0  0  0  0  0  0  0  0  0  0  0
  186.8840  177.8710  145.0400 C   0  0  0  0  0  3  0  0  0  0  0  0
  188.1720  174.7430  140.3000 C   0  0  0  0  0  3  0  0  0  0  0  0
  191.4070  174.9050  146.7410 N   0  0  0  0  0  2  0  0  0  0  0  0
  187.8080  177.2450  145.9420 N   0  0  0  0  0  2  0  0  0  0  0  0
  188.2830  174.5840  141.8050 C   0  0  2  0  0  0  0  0  0  0  0  0
  189.7480  174.6910  142.2830 C   0  0  0  0  0  2  0  0  0  0  0  0
  190.8010  177.0430  147.6530 N   0  0  0  0  0  0  0  0  0  0  0  0
  187.2490  176.0380  143.5480 C   0  0  0  0  0  3  0  0  0  0  0  0
  187.4790  175.7350  142.2900 C   0  0  0  0  0  0  0  0  0  0  0  0
  191.6020  177.2000  148.8550 C   0  0  0  0  0  1  0  0  0  0  0  0
  189.1640  178.6650  148.1400 O   0  0  0  0  0  0  0  0  0  0  0  0
  191.2550  176.3380  146.4710 C   0  0  2  0  0  3  0  0  0  0  0  0
  187.6580  177.9420  141.1390 C   0  0  0  0  0  2  0  0  0  0  0  0
  192.3410  174.3970  145.7360 C   0  0  0  0  0  2  0  0  0  0  0  0
  189.9000  174.6200  143.7890 C   0  0  0  0  0  0  0  0  0  0  0  0
  190.2820  173.3470  144.5060 C   0  0  2  0  0  3  0  0  0  0  0  0
  187.0270  176.5570  141.1680 C   0  0  1  0  0  0  0  0  0  0  0  0
  189.6800  177.8540  147.3280 C   0  0  0  0  0  0  0  0  0  0  0  0
  186.1710  177.8010  141.4320 C   0  0  1  0  0  3  0  0  0  0  0  0
  191.7720  173.2220  144.9100 C   0  0  1  0  0  3  0  0  0  0  0  0
  189.7620  172.0850  143.8330 C   0  0  0  0  0  1  0  0  0  0  0  0
  193.9370  173.0380  143.7830 C   0  0  0  0  0  0  0  0  0  0  0  0
  192.6340  172.9830  143.7100 C   0  0  0  0  0  3  0  0  0  0  0  0
  195.2390  173.1000  143.8560 C   0  0  0  0  0  3  0  0  0  0  0  0
  197.7490  174.0060  139.7070 C   0  0  0  0  0  2  0  0  0  0  0  0
  196.0020  175.1480  141.6860 C   0  0  0  0  0  2  0  0  0  0  0  0
  196.4020  171.6340  142.4480 O   0  0  0  0  0  0  0  0  0  0  0  0
  196.7860  176.0390  140.8240 N   0  0  0  0  0  2  0  0  0  0  0  0
  197.9390  173.6260  141.1720 C   0  0  0  0  0  2  0  0  0  0  0  0
  197.0870  175.3860  139.5430 C   0  0  2  0  0  3  0  0  0  0  0  0
  196.7050  173.8820  141.9070 N   0  0  0  0  0  0  0  0  0  0  0  0
  196.1320  172.8350  142.7140 C   0  0  0  0  0  0  0  0  0  0  0  0
  195.8800  175.2760  138.7370 N   0  0  0  0  0  2  0  0  0  0  0  0
  196.0570  175.6890  136.6720 O   0  0  0  0  0  1  0  0  0  0  0  0
  196.2410  174.7280  137.5520 O   0  0  0  0  0  0  0  0  0  0  0  0
  2 10  2  0  0  0  0
  2 25  1  0  0  0  0
  3  2  1  0  0  0  0
  4  9  2  0  0  0  0
  5  1  1  1  0  0  0
  5 12  1  0  0  0  0
  5 26  1  0  0  0  0
  6  1  2  0  0  0  0
  7  4  1  0  0  0  0
  9 12  1  0  0  0  0
 10 13  1  0  0  0  0
 13  8  1  1  0  0  0
 13 14  1  0  0  0  0
 13 17  1  0  0  0  0
 14 23  1  0  0  0  0
 15 18  1  0  0  0  0
 16  4  1  0  0  0  0
 17 16  2  0  0  0  0
 20  1  1  6  0  0  0
 20 11  1  0  0  0  0
 20 15  1  0  0  0  0
 22 11  1  0  0  0  0
 23 24  1  0  0  0  0
 23  6  2  0  0  0  0
 24 29  1  6  0  0  0
 24 28  1  0  0  0  0
 25 21  1  1  0  0  0
 25 27  1  0  0  0  0
 25 17  1  0  0  0  0
 26 15  1  0  0  0  0
 26 19  2  0  0  0  0
 27 21  1  1  0  0  0
 27  7  1  0  0  0  0
 28 31  1  6  0  0  0
 28 22  1  0  0  0  0
 30 32  2  0  0  0  0
 31 30  2  0  0  0  0
 33 37  1  0  0  0  0
 34 39  1  0  0  0  0
 35 40  2  0  0  0  0
 36 34  1  0  0  0  0
 37 39  1  0  0  0  0
 38 41  1  1  0  0  0
 38 33  1  0  0  0  0
 38 36  1  0  0  0  0
 39 40  1  0  0  0  0
 40 32  1  0  0  0  0
 42 43  1  0  0  0  0
 43 41  1  0  0  0  0
M  END
>  <MODEL>
9

>  <REMARK>
 VINA RESULT:      -7.1      2.483      9.095
  Name = 
  4 active torsions:
  status: ('A' for Active; 'I' for Inactive)
    1  A    between atoms: N_22  and  C_40
    2  A    between atoms: N_22  and  O_41
    3  A    between atoms: C_27  and  C_38
    4  A    between atoms: C_28  and  C_43
                            x       y       z     vdW  Elec       q    Type
                         _______ _______ _______ _____ _____    ______ ____

>  <TORSDO>
F 4

$$$$
