=
 OpenBabel11042416143D

 33 35  0  0  1  0  0  0  0  0999 V2000
  189.0810  175.3180  142.7410 N   0  0  0  0  0  0  0  0  0  0  0  0
  188.5670  174.3660  140.6240 C   0  0  0  0  0  3  0  0  0  0  0  0
  190.4340  176.4670  146.6030 C   0  0  1  0  0  3  0  0  0  0  0  0
  187.8240  175.6160  140.7810 N   0  0  0  0  0  0  0  0  0  0  0  0
  189.4140  177.4080  145.9520 C   0  0  0  0  0  2  0  0  0  0  0  0
  189.4690  174.2190  141.8730 C   0  0  1  0  0  3  0  0  0  0  0  0
  189.0510  176.9650  144.5670 C   0  0  0  0  0  0  0  0  0  0  0  0
  188.1730  177.6480  143.8860 N   0  0  0  0  0  0  0  0  0  0  0  0
  190.0250  174.9930  146.4550 C   0  0  0  0  0  2  0  0  0  0  0  0
  189.6170  174.5800  145.0260 C   0  0  0  0  0  2  0  0  0  0  0  0
  189.7040  175.7150  144.0030 C   0  0  1  0  0  3  0  0  0  0  0  0
  188.1650  176.1280  142.0500 C   0  0  0  0  0  0  0  0  0  0  0  0
  187.7240  177.2700  142.5740 C   0  0  0  0  0  0  0  0  0  0  0  0
  186.7520  178.1440  141.8480 C   0  0  0  0  0  2  0  0  0  0  0  0
  185.9410  178.9970  142.8140 C   0  0  0  0  0  2  0  0  0  0  0  0
  184.6910  178.2640  143.2710 C   0  0  0  0  0  2  0  0  0  0  0  0
  185.4710  176.7680  145.5760 O   0  0  0  0  0  0  0  0  0  0  0  0
  184.5320  178.2890  147.1420 C   0  0  0  0  0  1  0  0  0  0  0  0
  184.8360  177.8400  145.7580 C   0  0  0  0  0  0  0  0  0  0  0  0
  184.3880  178.6210  144.6480 N   0  0  0  0  0  2  0  0  0  0  0  0
  190.9270  174.3700  141.4660 C   0  0  0  0  0  2  0  0  0  0  0  0
  191.7210  173.3030  142.0500 N   0  0  0  0  0  2  0  0  0  0  0  0
  193.0520  173.8430  142.2550 C   0  0  0  0  0  2  0  0  0  0  0  0
  193.4590  174.6540  141.0430 C   0  0  0  0  0  1  0  0  0  0  0  0
  191.7040  176.6720  146.0550 O   0  0  0  0  0  0  0  0  0  0  0  0
  192.5800  175.9960  146.9090 C   0  0  0  0  0  2  0  0  0  0  0  0
  193.9840  176.5600  146.7690 C   0  0  0  0  0  2  0  0  0  0  0  0
  194.6840  175.8640  145.7260 N   0  0  0  0  0  0  0  0  0  0  0  0
  195.1850  176.5170  144.7430 C   0  0  0  0  0  3  0  0  0  0  0  0
  195.9150  175.8090  143.6490 C   0  0  0  0  0  2  0  0  0  0  0  0
  196.7300  176.7830  142.8120 C   0  0  0  0  0  2  0  0  0  0  0  0
  196.5960  176.4790  141.4560 O   0  0  0  0  0  0  0  0  0  0  0  0
  197.2290  175.2460  141.3100 C   0  0  0  0  0  1  0  0  0  0  0  0
  1 11  1  0  0  0  0
  2  4  2  0  0  0  0
  2  6  1  0  0  0  0
  3 25  1  6  0  0  0
  4 12  1  0  0  0  0
  5  3  1  0  0  0  0
  6 21  1  6  0  0  0
  6  1  1  0  0  0  0
  7  5  1  0  0  0  0
  8  7  2  0  0  0  0
  9  3  1  0  0  0  0
 10  9  1  0  0  0  0
 11  7  1  0  0  0  0
 11 10  1  1  0  0  0
 12 13  2  0  0  0  0
 12  1  1  0  0  0  0
 13  8  1  0  0  0  0
 14 13  1  0  0  0  0
 14 15  1  0  0  0  0
 15 16  1  0  0  0  0
 16 20  1  0  0  0  0
 17 19  2  0  0  0  0
 19 18  1  0  0  0  0
 20 19  1  0  0  0  0
 21 22  1  0  0  0  0
 22 23  1  0  0  0  0
 24 23  1  0  0  0  0
 25 26  1  0  0  0  0
 27 26  1  0  0  0  0
 28 27  1  0  0  0  0
 29 28  2  0  0  0  0
 30 29  1  0  0  0  0
 31 30  1  0  0  0  0
 32 31  1  0  0  0  0
 33 32  1  0  0  0  0
M  END
>  <MODEL>
1

>  <REMARK>
 VINA RESULT:      -5.9      0.000      0.000
  Name = 
  14 active torsions:
  status: ('A' for Active; 'I' for Inactive)
    1  A    between atoms: C_1  and  N_23
    2  A    between atoms: C_4  and  O_27
    3  A    between atoms: C_8  and  C_13
    4  A    between atoms: C_8  and  C_31
    5  A    between atoms: C_10  and  C_14
    6  A    between atoms: C_10  and  C_33
    7  A    between atoms: C_12  and  C_15
    8  A    between atoms: C_12  and  N_23
    9  A    between atoms: C_13  and  O_20
   10  A    between atoms: C_14  and  C_17
   11  A    between atoms: N_16  and  C_17
   12  A    between atoms: C_21  and  C_26
   13  A    between atoms: C_21  and  N_30
   14  A    between atoms: C_26  and  O_27
                            x       y       z     vdW  Elec       q    Type
                         _______ _______ _______ _____ _____    ______ ____

>  <TORSDO>
F 14

$$$$
=
 OpenBabel11042416143D

 33 35  0  0  1  0  0  0  0  0999 V2000
  190.5120  174.7960  145.8090 N   0  0  0  0  0  0  0  0  0  0  0  0
  190.7010  175.8520  147.9310 C   0  0  0  0  0  3  0  0  0  0  0  0
  189.5840  172.6180  142.2780 C   0  0  1  0  0  3  0  0  0  0  0  0
  191.8070  176.2860  147.0780 N   0  0  0  0  0  0  0  0  0  0  0  0
  190.8570  173.4700  142.2150 C   0  0  0  0  0  2  0  0  0  0  0  0
  189.7940  174.9460  147.0640 C   0  0  1  0  0  3  0  0  0  0  0  0
  191.0630  174.2570  143.4730 C   0  0  0  0  0  0  0  0  0  0  0  0
  192.1180  175.0160  143.5870 N   0  0  0  0  0  0  0  0  0  0  0  0
  189.4950  171.8230  143.5910 C   0  0  0  0  0  2  0  0  0  0  0  0
  189.7550  172.6540  144.8640 C   0  0  0  0  0  2  0  0  0  0  0  0
  190.0450  174.1310  144.5930 C   0  0  1  0  0  3  0  0  0  0  0  0
  191.6430  175.6260  145.8420 C   0  0  0  0  0  0  0  0  0  0  0  0
  192.4270  175.7650  144.7740 C   0  0  0  0  0  0  0  0  0  0  0  0
  193.6330  176.6500  144.7950 C   0  0  0  0  0  2  0  0  0  0  0  0
  194.7480  176.0500  145.6400 C   0  0  0  0  0  2  0  0  0  0  0  0
  195.7270  175.2710  144.7770 C   0  0  0  0  0  2  0  0  0  0  0  0
  197.4320  176.9600  143.2280 O   0  0  0  0  0  0  0  0  0  0  0  0
  196.2000  176.7090  141.2110 C   0  0  0  0  0  1  0  0  0  0  0  0
  196.4380  176.4410  142.6530 C   0  0  0  0  0  0  0  0  0  0  0  0
  195.5270  175.6120  143.3770 N   0  0  0  0  0  2  0  0  0  0  0  0
  188.4650  175.6440  146.8200 C   0  0  0  0  0  2  0  0  0  0  0  0
  188.6740  177.0710  146.6450 N   0  0  0  0  0  2  0  0  0  0  0  0
  187.4510  177.7240  147.0710 C   0  0  0  0  0  2  0  0  0  0  0  0
  186.3190  176.7190  147.0770 C   0  0  0  0  0  1  0  0  0  0  0  0
  188.4510  173.4230  142.1260 O   0  0  0  0  0  0  0  0  0  0  0  0
  188.5360  173.9240  140.8230 C   0  0  0  0  0  2  0  0  0  0  0  0
  188.1120  175.3820  140.7970 C   0  0  0  0  0  2  0  0  0  0  0  0
  187.5320  175.7420  142.0610 N   0  0  0  0  0  0  0  0  0  0  0  0
  186.5740  176.5930  142.1080 C   0  0  0  0  0  3  0  0  0  0  0  0
  185.9610  176.9800  143.4140 C   0  0  0  0  0  2  0  0  0  0  0  0
  184.7680  177.9000  143.2100 C   0  0  0  0  0  2  0  0  0  0  0  0
  184.4640  178.5630  144.4010 O   0  0  0  0  0  0  0  0  0  0  0  0
  185.3800  179.6120  144.4600 C   0  0  0  0  0  1  0  0  0  0  0  0
  1 12  1  0  0  0  0
  1  6  1  0  0  0  0
  3 25  1  1  0  0  0
  3  9  1  0  0  0  0
  4  2  2  0  0  0  0
  5  3  1  0  0  0  0
  5  7  1  0  0  0  0
  6 21  1  6  0  0  0
  6  2  1  0  0  0  0
  7  8  2  0  0  0  0
  7 11  1  0  0  0  0
  8 13  1  0  0  0  0
  9 10  1  0  0  0  0
 11 10  1  1  0  0  0
 11  1  1  0  0  0  0
 12  4  1  0  0  0  0
 13 14  1  0  0  0  0
 13 12  2  0  0  0  0
 14 15  1  0  0  0  0
 16 15  1  0  0  0  0
 18 19  1  0  0  0  0
 19 17  2  0  0  0  0
 19 20  1  0  0  0  0
 20 16  1  0  0  0  0
 22 21  1  0  0  0  0
 22 23  1  0  0  0  0
 23 24  1  0  0  0  0
 26 25  1  0  0  0  0
 27 26  1  0  0  0  0
 27 28  1  0  0  0  0
 28 29  2  0  0  0  0
 29 30  1  0  0  0  0
 31 30  1  0  0  0  0
 31 32  1  0  0  0  0
 32 33  1  0  0  0  0
M  END
>  <MODEL>
2

>  <REMARK>
 VINA RESULT:      -5.7      2.216      8.447
  Name = 
  14 active torsions:
  status: ('A' for Active; 'I' for Inactive)
    1  A    between atoms: C_1  and  N_23
    2  A    between atoms: C_4  and  O_27
    3  A    between atoms: C_8  and  C_13
    4  A    between atoms: C_8  and  C_31
    5  A    between atoms: C_10  and  C_14
    6  A    between atoms: C_10  and  C_33
    7  A    between atoms: C_12  and  C_15
    8  A    between atoms: C_12  and  N_23
    9  A    between atoms: C_13  and  O_20
   10  A    between atoms: C_14  and  C_17
   11  A    between atoms: N_16  and  C_17
   12  A    between atoms: C_21  and  C_26
   13  A    between atoms: C_21  and  N_30
   14  A    between atoms: C_26  and  O_27
                            x       y       z     vdW  Elec       q    Type
                         _______ _______ _______ _____ _____    ______ ____

>  <TORSDO>
F 14

$$$$
=
 OpenBabel11042416143D

 33 35  0  0  1  0  0  0  0  0999 V2000
  188.8300  175.4780  143.4270 N   0  0  0  0  0  0  0  0  0  0  0  0
  188.1860  174.6350  141.2980 C   0  0  0  0  0  3  0  0  0  0  0  0
  190.4300  176.4370  147.2460 C   0  0  1  0  0  3  0  0  0  0  0  0
  187.4330  175.8570  141.5790 N   0  0  0  0  0  0  0  0  0  0  0  0
  189.3490  177.3900  146.7220 C   0  0  0  0  0  2  0  0  0  0  0  0
  189.1760  174.4380  142.4710 C   0  0  1  0  0  3  0  0  0  0  0  0
  188.8980  177.0170  145.3430 C   0  0  0  0  0  0  0  0  0  0  0  0
  187.9610  177.7170  144.7650 N   0  0  0  0  0  0  0  0  0  0  0  0
  190.0400  174.9650  147.0410 C   0  0  0  0  0  2  0  0  0  0  0  0
  189.5400  174.6240  145.6220 C   0  0  0  0  0  2  0  0  0  0  0  0
  189.5330  175.8160  144.6640 C   0  0  1  0  0  3  0  0  0  0  0  0
  187.8530  176.3040  142.8490 C   0  0  0  0  0  0  0  0  0  0  0  0
  187.4290  177.4040  143.4680 C   0  0  0  0  0  0  0  0  0  0  0  0
  186.3920  178.2950  142.8620 C   0  0  0  0  0  2  0  0  0  0  0  0
  184.9850  177.8120  143.1870 C   0  0  0  0  0  2  0  0  0  0  0  0
  184.2000  178.8800  143.9300 C   0  0  0  0  0  2  0  0  0  0  0  0
  184.1560  177.7330  146.5460 O   0  0  0  0  0  0  0  0  0  0  0  0
  185.7740  179.2190  147.4540 C   0  0  0  0  0  1  0  0  0  0  0  0
  184.9230  178.7120  146.3460 C   0  0  0  0  0  0  0  0  0  0  0  0
  184.9700  179.3530  145.0700 N   0  0  0  0  0  2  0  0  0  0  0  0
  190.5990  174.6450  141.9740 C   0  0  0  0  0  2  0  0  0  0  0  0
  191.3030  173.3750  141.9300 N   0  0  0  0  0  2  0  0  0  0  0  0
  191.5630  173.0930  140.5310 C   0  0  0  0  0  2  0  0  0  0  0  0
  190.6700  171.9600  140.0700 C   0  0  0  0  0  1  0  0  0  0  0  0
  191.6550  176.7020  146.6240 O   0  0  0  0  0  0  0  0  0  0  0  0
  192.5390  175.7560  147.1500 C   0  0  0  0  0  2  0  0  0  0  0  0
  193.8820  175.8490  146.4450 C   0  0  0  0  0  2  0  0  0  0  0  0
  194.1050  174.6630  145.6670 N   0  0  0  0  0  0  0  0  0  0  0  0
  193.2200  173.7350  145.6440 C   0  0  0  0  0  3  0  0  0  0  0  0
  193.4370  172.4940  144.8410 C   0  0  0  0  0  2  0  0  0  0  0  0
  194.3720  171.5320  145.5590 C   0  0  0  0  0  2  0  0  0  0  0  0
  194.5090  170.3560  144.8200 O   0  0  0  0  0  0  0  0  0  0  0  0
  193.2260  170.0920  144.3430 C   0  0  0  0  0  1  0  0  0  0  0  0
  1 11  1  0  0  0  0
  2  4  2  0  0  0  0
  2  6  1  0  0  0  0
  3 25  1  6  0  0  0
  4 12  1  0  0  0  0
  5  3  1  0  0  0  0
  6 21  1  6  0  0  0
  6  1  1  0  0  0  0
  7  5  1  0  0  0  0
  8  7  2  0  0  0  0
  9  3  1  0  0  0  0
 10  9  1  0  0  0  0
 11  7  1  0  0  0  0
 11 10  1  1  0  0  0
 12  1  1  0  0  0  0
 12 13  2  0  0  0  0
 13  8  1  0  0  0  0
 14 15  1  0  0  0  0
 14 13  1  0  0  0  0
 15 16  1  0  0  0  0
 16 20  1  0  0  0  0
 19 17  2  0  0  0  0
 19 18  1  0  0  0  0
 20 19  1  0  0  0  0
 22 21  1  0  0  0  0
 23 22  1  0  0  0  0
 24 23  1  0  0  0  0
 25 26  1  0  0  0  0
 27 26  1  0  0  0  0
 28 27  1  0  0  0  0
 29 28  2  0  0  0  0
 30 31  1  0  0  0  0
 30 29  1  0  0  0  0
 32 31  1  0  0  0  0
 33 32  1  0  0  0  0
M  END
>  <MODEL>
3

>  <REMARK>
 VINA RESULT:      -5.7      2.182      2.598
  Name = 
  14 active torsions:
  status: ('A' for Active; 'I' for Inactive)
    1  A    between atoms: C_1  and  N_23
    2  A    between atoms: C_4  and  O_27
    3  A    between atoms: C_8  and  C_13
    4  A    between atoms: C_8  and  C_31
    5  A    between atoms: C_10  and  C_14
    6  A    between atoms: C_10  and  C_33
    7  A    between atoms: C_12  and  C_15
    8  A    between atoms: C_12  and  N_23
    9  A    between atoms: C_13  and  O_20
   10  A    between atoms: C_14  and  C_17
   11  A    between atoms: N_16  and  C_17
   12  A    between atoms: C_21  and  C_26
   13  A    between atoms: C_21  and  N_30
   14  A    between atoms: C_26  and  O_27
                            x       y       z     vdW  Elec       q    Type
                         _______ _______ _______ _____ _____    ______ ____

>  <TORSDO>
F 14

$$$$
=
 OpenBabel11042416143D

 33 35  0  0  1  0  0  0  0  0999 V2000
  189.1300  175.2980  142.6970 N   0  0  0  0  0  0  0  0  0  0  0  0
  188.6310  174.2870  140.6030 C   0  0  0  0  0  3  0  0  0  0  0  0
  190.4530  176.5530  146.5370 C   0  0  1  0  0  3  0  0  0  0  0  0
  187.8930  175.5450  140.7180 N   0  0  0  0  0  0  0  0  0  0  0  0
  189.4430  177.4790  145.8480 C   0  0  0  0  0  2  0  0  0  0  0  0
  189.5200  174.1720  141.8640 C   0  0  1  0  0  3  0  0  0  0  0  0
  189.0910  176.9970  144.4740 C   0  0  0  0  0  0  0  0  0  0  0  0
  188.2220  177.6650  143.7650 N   0  0  0  0  0  0  0  0  0  0  0  0
  190.0380  175.0770  146.4270 C   0  0  0  0  0  2  0  0  0  0  0  0
  189.6410  174.6250  145.0070 C   0  0  0  0  0  2  0  0  0  0  0  0
  189.7430  175.7290  143.9530 C   0  0  1  0  0  3  0  0  0  0  0  0
  188.2250  176.0920  141.9740 C   0  0  0  0  0  0  0  0  0  0  0  0
  187.7840  177.2510  142.4610 C   0  0  0  0  0  0  0  0  0  0  0  0
  186.8230  178.1080  141.7000 C   0  0  0  0  0  2  0  0  0  0  0  0
  185.9210  178.8980  142.6370 C   0  0  0  0  0  2  0  0  0  0  0  0
  184.7460  178.0550  143.1040 C   0  0  0  0  0  2  0  0  0  0  0  0
  185.5870  176.7750  145.5140 O   0  0  0  0  0  0  0  0  0  0  0  0
  184.4420  178.2750  146.9590 C   0  0  0  0  0  1  0  0  0  0  0  0
  184.8400  177.7850  145.6140 C   0  0  0  0  0  0  0  0  0  0  0  0
  184.3580  178.4530  144.4470 N   0  0  0  0  0  2  0  0  0  0  0  0
  190.9830  174.3040  141.4670 C   0  0  0  0  0  2  0  0  0  0  0  0
  191.7230  173.1270  141.8880 N   0  0  0  0  0  2  0  0  0  0  0  0
  191.8710  172.2900  140.7120 C   0  0  0  0  0  2  0  0  0  0  0  0
  192.2610  173.1480  139.5280 C   0  0  0  0  0  1  0  0  0  0  0  0
  191.7290  176.7360  145.9950 O   0  0  0  0  0  0  0  0  0  0  0  0
  192.5970  176.1190  146.8990 C   0  0  0  0  0  2  0  0  0  0  0  0
  194.0020  176.6740  146.7350 C   0  0  0  0  0  2  0  0  0  0  0  0
  194.9040  175.6130  146.3830 N   0  0  0  0  0  0  0  0  0  0  0  0
  195.2030  175.4070  145.1530 C   0  0  0  0  0  3  0  0  0  0  0  0
  196.1380  174.3070  144.7690 C   0  0  0  0  0  2  0  0  0  0  0  0
  195.3920  172.9970  144.5680 C   0  0  0  0  0  2  0  0  0  0  0  0
  195.5240  172.1920  145.7010 O   0  0  0  0  0  0  0  0  0  0  0  0
  196.8980  171.9930  145.8310 C   0  0  0  0  0  1  0  0  0  0  0  0
  1 11  1  0  0  0  0
  2  4  2  0  0  0  0
  2  6  1  0  0  0  0
  3 25  1  6  0  0  0
  4 12  1  0  0  0  0
  5  3  1  0  0  0  0
  6 21  1  6  0  0  0
  6  1  1  0  0  0  0
  7  5  1  0  0  0  0
  8  7  2  0  0  0  0
  9  3  1  0  0  0  0
 10  9  1  0  0  0  0
 11  7  1  0  0  0  0
 11 10  1  1  0  0  0
 12 13  2  0  0  0  0
 12  1  1  0  0  0  0
 13  8  1  0  0  0  0
 14 13  1  0  0  0  0
 14 15  1  0  0  0  0
 15 16  1  0  0  0  0
 16 20  1  0  0  0  0
 17 19  2  0  0  0  0
 19 18  1  0  0  0  0
 20 19  1  0  0  0  0
 21 22  1  0  0  0  0
 23 22  1  0  0  0  0
 24 23  1  0  0  0  0
 25 26  1  0  0  0  0
 27 26  1  0  0  0  0
 28 27  1  0  0  0  0
 29 28  2  0  0  0  0
 30 29  1  0  0  0  0
 31 30  1  0  0  0  0
 31 32  1  0  0  0  0
 32 33  1  0  0  0  0
M  END
>  <MODEL>
4

>  <REMARK>
 VINA RESULT:      -5.7      1.576      1.793
  Name = 
  14 active torsions:
  status: ('A' for Active; 'I' for Inactive)
    1  A    between atoms: C_1  and  N_23
    2  A    between atoms: C_4  and  O_27
    3  A    between atoms: C_8  and  C_13
    4  A    between atoms: C_8  and  C_31
    5  A    between atoms: C_10  and  C_14
    6  A    between atoms: C_10  and  C_33
    7  A    between atoms: C_12  and  C_15
    8  A    between atoms: C_12  and  N_23
    9  A    between atoms: C_13  and  O_20
   10  A    between atoms: C_14  and  C_17
   11  A    between atoms: N_16  and  C_17
   12  A    between atoms: C_21  and  C_26
   13  A    between atoms: C_21  and  N_30
   14  A    between atoms: C_26  and  O_27
                            x       y       z     vdW  Elec       q    Type
                         _______ _______ _______ _____ _____    ______ ____

>  <TORSDO>
F 14

$$$$
=
 OpenBabel11042416143D

 33 35  0  0  1  0  0  0  0  0999 V2000
  190.4640  174.9770  145.5990 N   0  0  0  0  0  0  0  0  0  0  0  0
  190.6620  176.1170  147.6760 C   0  0  0  0  0  3  0  0  0  0  0  0
  189.5030  172.6860  142.1490 C   0  0  1  0  0  3  0  0  0  0  0  0
  191.8000  176.4660  146.8260 N   0  0  0  0  0  0  0  0  0  0  0  0
  190.8120  173.4790  142.0740 C   0  0  0  0  0  2  0  0  0  0  0  0
  189.7320  175.2130  146.8320 C   0  0  1  0  0  3  0  0  0  0  0  0
  191.0310  174.3120  143.3000 C   0  0  0  0  0  0  0  0  0  0  0  0
  192.1160  175.0300  143.4010 N   0  0  0  0  0  0  0  0  0  0  0  0
  189.3570  171.9540  143.4940 C   0  0  0  0  0  2  0  0  0  0  0  0
  189.6310  172.8290  144.7340 C   0  0  0  0  0  2  0  0  0  0  0  0
  189.9890  174.2800  144.4040 C   0  0  1  0  0  3  0  0  0  0  0  0
  191.6290  175.7590  145.6170 C   0  0  0  0  0  0  0  0  0  0  0  0
  192.4370  175.8170  144.5590 C   0  0  0  0  0  0  0  0  0  0  0  0
  193.6790  176.6500  144.5640 C   0  0  0  0  0  2  0  0  0  0  0  0
  194.9290  175.7830  144.5010 C   0  0  0  0  0  2  0  0  0  0  0  0
  195.2940  175.2510  145.8770 C   0  0  0  0  0  2  0  0  0  0  0  0
  197.8330  173.9980  145.5020 O   0  0  0  0  0  0  0  0  0  0  0  0
  196.9930  171.7780  145.6290 C   0  0  0  0  0  1  0  0  0  0  0  0
  196.8250  173.2550  145.6450 C   0  0  0  0  0  0  0  0  0  0  0  0
  195.5220  173.8160  145.8050 N   0  0  0  0  0  2  0  0  0  0  0  0
  188.4380  175.9560  146.5320 C   0  0  0  0  0  2  0  0  0  0  0  0
  188.5690  177.3550  146.8990 N   0  0  0  0  0  2  0  0  0  0  0  0
  187.2240  177.8550  147.1120 C   0  0  0  0  0  2  0  0  0  0  0  0
  186.2450  176.7000  147.0720 C   0  0  0  0  0  1  0  0  0  0  0  0
  188.4080  173.5310  141.9410 O   0  0  0  0  0  0  0  0  0  0  0  0
  188.5830  174.0360  140.6490 C   0  0  0  0  0  2  0  0  0  0  0  0
  187.9040  175.3890  140.5210 C   0  0  0  0  0  2  0  0  0  0  0  0
  187.4880  175.8460  141.8180 N   0  0  0  0  0  0  0  0  0  0  0  0
  187.4040  177.1030  142.0580 C   0  0  0  0  0  3  0  0  0  0  0  0
  186.9750  177.5960  143.4010 C   0  0  0  0  0  2  0  0  0  0  0  0
  185.4590  177.6000  143.5260 C   0  0  0  0  0  2  0  0  0  0  0  0
  184.9620  178.8810  143.2750 O   0  0  0  0  0  0  0  0  0  0  0  0
  185.5150  179.6740  144.2790 C   0  0  0  0  0  1  0  0  0  0  0  0
  1 12  1  0  0  0  0
  1  6  1  0  0  0  0
  3 25  1  1  0  0  0
  3  9  1  0  0  0  0
  4  2  2  0  0  0  0
  5  3  1  0  0  0  0
  5  7  1  0  0  0  0
  6 21  1  6  0  0  0
  6  2  1  0  0  0  0
  7  8  2  0  0  0  0
  7 11  1  0  0  0  0
  8 13  1  0  0  0  0
  9 10  1  0  0  0  0
 11 10  1  1  0  0  0
 11  1  1  0  0  0  0
 12  4  1  0  0  0  0
 13 14  1  0  0  0  0
 13 12  2  0  0  0  0
 15 14  1  0  0  0  0
 15 16  1  0  0  0  0
 17 19  2  0  0  0  0
 18 19  1  0  0  0  0
 19 20  1  0  0  0  0
 20 16  1  0  0  0  0
 21 22  1  0  0  0  0
 22 23  1  0  0  0  0
 24 23  1  0  0  0  0
 26 25  1  0  0  0  0
 27 26  1  0  0  0  0
 27 28  1  0  0  0  0
 28 29  2  0  0  0  0
 29 30  1  0  0  0  0
 30 31  1  0  0  0  0
 32 31  1  0  0  0  0
 32 33  1  0  0  0  0
M  END
>  <MODEL>
5

>  <REMARK>
 VINA RESULT:      -5.7      2.461      8.457
  Name = 
  14 active torsions:
  status: ('A' for Active; 'I' for Inactive)
    1  A    between atoms: C_1  and  N_23
    2  A    between atoms: C_4  and  O_27
    3  A    between atoms: C_8  and  C_13
    4  A    between atoms: C_8  and  C_31
    5  A    between atoms: C_10  and  C_14
    6  A    between atoms: C_10  and  C_33
    7  A    between atoms: C_12  and  C_15
    8  A    between atoms: C_12  and  N_23
    9  A    between atoms: C_13  and  O_20
   10  A    between atoms: C_14  and  C_17
   11  A    between atoms: N_16  and  C_17
   12  A    between atoms: C_21  and  C_26
   13  A    between atoms: C_21  and  N_30
   14  A    between atoms: C_26  and  O_27
                            x       y       z     vdW  Elec       q    Type
                         _______ _______ _______ _____ _____    ______ ____

>  <TORSDO>
F 14

$$$$
=
 OpenBabel11042416143D

 33 35  0  0  1  0  0  0  0  0999 V2000
  188.4990  177.1160  145.0590 N   0  0  0  0  0  0  0  0  0  0  0  0
  189.4180  176.7370  147.2190 C   0  0  0  0  0  3  0  0  0  0  0  0
  186.2350  177.6380  141.4990 C   0  0  1  0  0  3  0  0  0  0  0  0
  190.4880  177.1400  146.3060 N   0  0  0  0  0  0  0  0  0  0  0  0
  187.7430  177.8850  141.3680 C   0  0  0  0  0  2  0  0  0  0  0  0
  188.0940  176.8150  146.4220 C   0  0  1  0  0  3  0  0  0  0  0  0
  188.4460  177.7510  142.6840 C   0  0  0  0  0  0  0  0  0  0  0  0
  189.7400  177.9080  142.7360 N   0  0  0  0  0  0  0  0  0  0  0  0
  185.9360  176.3570  142.2950 C   0  0  0  0  0  2  0  0  0  0  0  0
  186.7080  176.2300  143.6230 C   0  0  0  0  0  2  0  0  0  0  0  0
  187.6320  177.4140  143.9200 C   0  0  1  0  0  3  0  0  0  0  0  0
  189.8840  177.3450  145.0470 C   0  0  0  0  0  0  0  0  0  0  0  0
  190.5070  177.7470  143.9410 C   0  0  0  0  0  0  0  0  0  0  0  0
  191.9810  177.9980  143.9160 C   0  0  0  0  0  2  0  0  0  0  0  0
  192.7660  176.7260  144.2030 C   0  0  0  0  0  2  0  0  0  0  0  0
  192.3570  175.6070  143.2600 C   0  0  0  0  0  2  0  0  0  0  0  0
  189.7540  174.4460  143.0620 O   0  0  0  0  0  0  0  0  0  0  0  0
  190.1750  172.7170  144.6380 C   0  0  0  0  0  1  0  0  0  0  0  0
  190.5770  173.9160  143.8560 C   0  0  0  0  0  0  0  0  0  0  0  0
  191.8840  174.4650  144.0270 N   0  0  0  0  0  2  0  0  0  0  0  0
  187.2390  177.9480  146.9700 C   0  0  0  0  0  2  0  0  0  0  0  0
  186.0690  177.4100  147.6420 N   0  0  0  0  0  2  0  0  0  0  0  0
  184.9750  178.3220  147.3630 C   0  0  0  0  0  2  0  0  0  0  0  0
  184.6930  178.3310  145.8760 C   0  0  0  0  0  1  0  0  0  0  0  0
  185.6130  178.7350  142.1020 O   0  0  0  0  0  0  0  0  0  0  0  0
  184.2440  178.4590  142.0310 C   0  0  0  0  0  2  0  0  0  0  0  0
  183.8130  178.3280  140.5800 C   0  0  0  0  0  2  0  0  0  0  0  0
  182.3820  178.2350  140.5060 N   0  0  0  0  0  0  0  0  0  0  0  0
  181.6730  178.4010  141.5610 C   0  0  0  0  0  3  0  0  0  0  0  0
  180.1830  178.3060  141.5020 C   0  0  0  0  0  2  0  0  0  0  0  0
  179.5730  179.5790  140.9380 C   0  0  0  0  0  2  0  0  0  0  0  0
  178.2400  179.6910  141.3390 O   0  0  0  0  0  0  0  0  0  0  0  0
  177.8940  178.4090  141.7630 C   0  0  0  0  0  1  0  0  0  0  0  0
  1  6  1  0  0  0  0
  3 25  1  1  0  0  0
  3  9  1  0  0  0  0
  4  2  2  0  0  0  0
  5  3  1  0  0  0  0
  5  7  1  0  0  0  0
  6 21  1  1  0  0  0
  6  2  1  0  0  0  0
  7  8  2  0  0  0  0
  7 11  1  0  0  0  0
  8 13  1  0  0  0  0
  9 10  1  0  0  0  0
 11 10  1  6  0  0  0
 11  1  1  0  0  0  0
 12  1  1  0  0  0  0
 12  4  1  0  0  0  0
 13 12  2  0  0  0  0
 14 13  1  0  0  0  0
 14 15  1  0  0  0  0
 16 20  1  0  0  0  0
 16 15  1  0  0  0  0
 17 19  2  0  0  0  0
 19 20  1  0  0  0  0
 19 18  1  0  0  0  0
 21 22  1  0  0  0  0
 23 22  1  0  0  0  0
 24 23  1  0  0  0  0
 26 25  1  0  0  0  0
 27 26  1  0  0  0  0
 28 27  1  0  0  0  0
 28 29  2  0  0  0  0
 30 29  1  0  0  0  0
 31 32  1  0  0  0  0
 31 30  1  0  0  0  0
 32 33  1  0  0  0  0
M  END
>  <MODEL>
6

>  <REMARK>
 VINA RESULT:      -5.6      3.259      9.535
  Name = 
  14 active torsions:
  status: ('A' for Active; 'I' for Inactive)
    1  A    between atoms: C_1  and  N_23
    2  A    between atoms: C_4  and  O_27
    3  A    between atoms: C_8  and  C_13
    4  A    between atoms: C_8  and  C_31
    5  A    between atoms: C_10  and  C_14
    6  A    between atoms: C_10  and  C_33
    7  A    between atoms: C_12  and  C_15
    8  A    between atoms: C_12  and  N_23
    9  A    between atoms: C_13  and  O_20
   10  A    between atoms: C_14  and  C_17
   11  A    between atoms: N_16  and  C_17
   12  A    between atoms: C_21  and  C_26
   13  A    between atoms: C_21  and  N_30
   14  A    between atoms: C_26  and  O_27
                            x       y       z     vdW  Elec       q    Type
                         _______ _______ _______ _____ _____    ______ ____

>  <TORSDO>
F 14

$$$$
=
 OpenBabel11042416143D

 33 35  0  0  1  0  0  0  0  0999 V2000
  189.5520  174.9450  141.6500 N   0  0  0  0  0  0  0  0  0  0  0  0
  190.8070  172.9960  141.1220 C   0  0  0  0  0  3  0  0  0  0  0  0
  186.7580  178.0780  142.3210 C   0  0  1  0  0  3  0  0  0  0  0  0
  191.6830  173.9700  141.7730 N   0  0  0  0  0  0  0  0  0  0  0  0
  188.1940  178.3620  142.7750 C   0  0  0  0  0  2  0  0  0  0  0  0
  189.3820  173.5990  141.1290 C   0  0  1  0  0  3  0  0  0  0  0  0
  189.0890  177.1790  142.5680 C   0  0  0  0  0  0  0  0  0  0  0  0
  190.3520  177.2700  142.8830 N   0  0  0  0  0  0  0  0  0  0  0  0
  186.7190  177.4420  140.9220 C   0  0  0  0  0  2  0  0  0  0  0  0
  187.6830  176.2540  140.7290 C   0  0  0  0  0  2  0  0  0  0  0  0
  188.5030  175.9100  141.9740 C   0  0  1  0  0  3  0  0  0  0  0  0
  190.8870  175.0990  142.0550 C   0  0  0  0  0  0  0  0  0  0  0  0
  191.2960  176.2070  142.6720 C   0  0  0  0  0  0  0  0  0  0  0  0
  192.7140  176.3820  143.1130 C   0  0  0  0  0  2  0  0  0  0  0  0
  192.7920  176.8790  144.5500 C   0  0  0  0  0  2  0  0  0  0  0  0
  192.6120  175.7340  145.5330 C   0  0  0  0  0  2  0  0  0  0  0  0
  195.3180  175.1760  146.2570 O   0  0  0  0  0  0  0  0  0  0  0  0
  195.4350  173.1220  145.0660 C   0  0  0  0  0  1  0  0  0  0  0  0
  194.7240  174.3470  145.5170 C   0  0  0  0  0  0  0  0  0  0  0  0
  193.3810  174.5810  145.0910 N   0  0  0  0  0  2  0  0  0  0  0  0
  188.4940  172.7900  142.0620 C   0  0  0  0  0  2  0  0  0  0  0  0
  189.2800  171.7810  142.7500 N   0  0  0  0  0  2  0  0  0  0  0  0
  189.2240  172.1050  144.1640 C   0  0  0  0  0  2  0  0  0  0  0  0
  190.6310  172.2800  144.6960 C   0  0  0  0  0  1  0  0  0  0  0  0
  186.1100  177.2500  143.2430 O   0  0  0  0  0  0  0  0  0  0  0  0
  184.7670  177.6370  143.1950 C   0  0  0  0  0  2  0  0  0  0  0  0
  184.6080  179.0380  143.7590 C   0  0  0  0  0  2  0  0  0  0  0  0
  185.0420  179.0620  145.1280 N   0  0  0  0  0  0  0  0  0  0  0  0
  184.3940  178.4050  146.0180 C   0  0  0  0  0  3  0  0  0  0  0  0
  184.8300  178.4210  147.4470 C   0  0  0  0  0  2  0  0  0  0  0  0
  186.2810  177.9860  147.5830 C   0  0  0  0  0  2  0  0  0  0  0  0
  186.4510  176.7110  147.0390 O   0  0  0  0  0  0  0  0  0  0  0  0
  187.7160  176.7460  146.4540 C   0  0  0  0  0  1  0  0  0  0  0  0
  1 11  1  0  0  0  0
  1 12  1  0  0  0  0
  2  6  1  0  0  0  0
  2  4  2  0  0  0  0
  3  5  1  0  0  0  0
  3 25  1  1  0  0  0
  4 12  1  0  0  0  0
  6  1  1  0  0  0  0
  6 21  1  1  0  0  0
  7  5  1  0  0  0  0
  7  8  2  0  0  0  0
  9  3  1  0  0  0  0
 10  9  1  0  0  0  0
 11 10  1  6  0  0  0
 11  7  1  0  0  0  0
 12 13  2  0  0  0  0
 13  8  1  0  0  0  0
 13 14  1  0  0  0  0
 14 15  1  0  0  0  0
 15 16  1  0  0  0  0
 18 19  1  0  0  0  0
 19 17  2  0  0  0  0
 20 19  1  0  0  0  0
 20 16  1  0  0  0  0
 21 22  1  0  0  0  0
 22 23  1  0  0  0  0
 23 24  1  0  0  0  0
 26 25  1  0  0  0  0
 26 27  1  0  0  0  0
 27 28  1  0  0  0  0
 28 29  2  0  0  0  0
 29 30  1  0  0  0  0
 30 31  1  0  0  0  0
 32 31  1  0  0  0  0
 33 32  1  0  0  0  0
M  END
>  <MODEL>
7

>  <REMARK>
 VINA RESULT:      -5.6      2.295      7.495
  Name = 
  14 active torsions:
  status: ('A' for Active; 'I' for Inactive)
    1  A    between atoms: C_1  and  N_23
    2  A    between atoms: C_4  and  O_27
    3  A    between atoms: C_8  and  C_13
    4  A    between atoms: C_8  and  C_31
    5  A    between atoms: C_10  and  C_14
    6  A    between atoms: C_10  and  C_33
    7  A    between atoms: C_12  and  C_15
    8  A    between atoms: C_12  and  N_23
    9  A    between atoms: C_13  and  O_20
   10  A    between atoms: C_14  and  C_17
   11  A    between atoms: N_16  and  C_17
   12  A    between atoms: C_21  and  C_26
   13  A    between atoms: C_21  and  N_30
   14  A    between atoms: C_26  and  O_27
                            x       y       z     vdW  Elec       q    Type
                         _______ _______ _______ _____ _____    ______ ____

>  <TORSDO>
F 14

$$$$
=
 OpenBabel11042416143D

 33 35  0  0  1  0  0  0  0  0999 V2000
  191.4790  174.2440  143.3680 N   0  0  0  0  0  0  0  0  0  0  0  0
  192.0870  172.5970  141.7640 C   0  0  0  0  0  3  0  0  0  0  0  0
  189.9460  177.4240  145.7360 C   0  0  1  0  0  3  0  0  0  0  0  0
  192.8380  172.3660  142.9980 N   0  0  0  0  0  0  0  0  0  0  0  0
  191.0110  176.5500  146.4090 C   0  0  0  0  0  2  0  0  0  0  0  0
  191.1210  173.7740  142.0390 C   0  0  1  0  0  3  0  0  0  0  0  0
  191.4370  175.4140  145.5300 C   0  0  0  0  0  0  0  0  0  0  0  0
  192.3580  174.5910  145.9500 N   0  0  0  0  0  0  0  0  0  0  0  0
  190.3430  177.7980  144.2990 C   0  0  0  0  0  2  0  0  0  0  0  0
  190.8170  176.6130  143.4340 C   0  0  0  0  0  2  0  0  0  0  0  0
  190.7980  175.2670  144.1610 C   0  0  1  0  0  3  0  0  0  0  0  0
  192.4390  173.3720  143.9040 C   0  0  0  0  0  0  0  0  0  0  0  0
  192.8680  173.5060  145.1580 C   0  0  0  0  0  0  0  0  0  0  0  0
  193.8870  172.5810  145.7430 C   0  0  0  0  0  2  0  0  0  0  0  0
  195.2850  172.8970  145.2290 C   0  0  0  0  0  2  0  0  0  0  0  0
  195.7860  174.2180  145.7880 C   0  0  0  0  0  2  0  0  0  0  0  0
  194.7550  176.3780  144.2300 O   0  0  0  0  0  0  0  0  0  0  0  0
  196.7750  176.7590  143.0360 C   0  0  0  0  0  1  0  0  0  0  0  0
  195.9520  176.0330  144.0390 C   0  0  0  0  0  0  0  0  0  0  0  0
  196.5200  174.9400  144.7620 N   0  0  0  0  0  2  0  0  0  0  0  0
  189.6880  173.2650  142.0380 C   0  0  0  0  0  2  0  0  0  0  0  0
  188.8740  174.0630  141.1380 N   0  0  0  0  0  2  0  0  0  0  0  0
  187.9400  174.8000  141.9690 C   0  0  0  0  0  2  0  0  0  0  0  0
  187.6530  176.1440  141.3330 C   0  0  0  0  0  1  0  0  0  0  0  0
  188.7080  176.7730  145.7400 O   0  0  0  0  0  0  0  0  0  0  0  0
  187.9320  177.4780  146.6640 C   0  0  0  0  0  2  0  0  0  0  0  0
  186.8540  176.5740  147.2370 C   0  0  0  0  0  2  0  0  0  0  0  0
  185.5640  177.0070  146.7790 N   0  0  0  0  0  0  0  0  0  0  0  0
  185.4000  178.2110  146.3690 C   0  0  0  0  0  3  0  0  0  0  0  0
  184.0640  178.6790  145.8920 C   0  0  0  0  0  2  0  0  0  0  0  0
  184.0900  178.9870  144.4030 C   0  0  0  0  0  2  0  0  0  0  0  0
  185.0780  178.2280  143.7740 O   0  0  0  0  0  0  0  0  0  0  0  0
  184.5440  177.9260  142.5220 C   0  0  0  0  0  1  0  0  0  0  0  0
  1 12  1  0  0  0  0
  1 11  1  0  0  0  0
  2  6  1  0  0  0  0
  2  4  2  0  0  0  0
  3 25  1  6  0  0  0
  3  5  1  0  0  0  0
  4 12  1  0  0  0  0
  6 21  1  1  0  0  0
  6  1  1  0  0  0  0
  7  8  2  0  0  0  0
  7  5  1  0  0  0  0
  9  3  1  0  0  0  0
 10  9  1  0  0  0  0
 11 10  1  6  0  0  0
 11  7  1  0  0  0  0
 12 13  2  0  0  0  0
 13 14  1  0  0  0  0
 13  8  1  0  0  0  0
 15 14  1  0  0  0  0
 15 16  1  0  0  0  0
 18 19  1  0  0  0  0
 19 17  2  0  0  0  0
 19 20  1  0  0  0  0
 20 16  1  0  0  0  0
 22 23  1  0  0  0  0
 22 21  1  0  0  0  0
 24 23  1  0  0  0  0
 25 26  1  0  0  0  0
 26 27  1  0  0  0  0
 28 27  1  0  0  0  0
 29 28  2  0  0  0  0
 30 29  1  0  0  0  0
 31 30  1  0  0  0  0
 32 31  1  0  0  0  0
 33 32  1  0  0  0  0
M  END
>  <MODEL>
8

>  <REMARK>
 VINA RESULT:      -5.5      2.008      7.998
  Name = 
  14 active torsions:
  status: ('A' for Active; 'I' for Inactive)
    1  A    between atoms: C_1  and  N_23
    2  A    between atoms: C_4  and  O_27
    3  A    between atoms: C_8  and  C_13
    4  A    between atoms: C_8  and  C_31
    5  A    between atoms: C_10  and  C_14
    6  A    between atoms: C_10  and  C_33
    7  A    between atoms: C_12  and  C_15
    8  A    between atoms: C_12  and  N_23
    9  A    between atoms: C_13  and  O_20
   10  A    between atoms: C_14  and  C_17
   11  A    between atoms: N_16  and  C_17
   12  A    between atoms: C_21  and  C_26
   13  A    between atoms: C_21  and  N_30
   14  A    between atoms: C_26  and  O_27
                            x       y       z     vdW  Elec       q    Type
                         _______ _______ _______ _____ _____    ______ ____

>  <TORSDO>
F 14

$$$$
=
 OpenBabel11042416143D

 33 35  0  0  1  0  0  0  0  0999 V2000
  188.7740  176.7750  142.0970 N   0  0  0  0  0  0  0  0  0  0  0  0
  187.0920  177.4140  140.5420 C   0  0  0  0  0  3  0  0  0  0  0  0
  191.7590  176.3080  145.0870 C   0  0  1  0  0  3  0  0  0  0  0  0
  187.3620  175.9830  140.3980 N   0  0  0  0  0  0  0  0  0  0  0  0
  191.4090  175.0420  144.2980 C   0  0  0  0  0  2  0  0  0  0  0  0
  187.9520  177.9150  141.7270 C   0  0  1  0  0  3  0  0  0  0  0  0
  190.2990  175.2830  143.3210 C   0  0  0  0  0  0  0  0  0  0  0  0
  189.8990  174.3070  142.5530 N   0  0  0  0  0  0  0  0  0  0  0  0
  191.9290  177.5260  144.1640 C   0  0  0  0  0  2  0  0  0  0  0  0
  190.7900  177.7210  143.1420 C   0  0  0  0  0  2  0  0  0  0  0  0
  189.6830  176.6690  143.2380 C   0  0  1  0  0  3  0  0  0  0  0  0
  188.3640  175.6670  141.3390 C   0  0  0  0  0  0  0  0  0  0  0  0
  188.8790  174.4580  141.5520 C   0  0  0  0  0  0  0  0  0  0  0  0
  188.4490  173.2690  140.7530 C   0  0  0  0  0  2  0  0  0  0  0  0
  189.5580  172.7900  139.8270 C   0  0  0  0  0  2  0  0  0  0  0  0
  189.5830  173.5990  138.5410 C   0  0  0  0  0  2  0  0  0  0  0  0
  191.1160  172.8520  136.2500 O   0  0  0  0  0  0  0  0  0  0  0  0
  189.3950  171.5430  135.2630 C   0  0  0  0  0  1  0  0  0  0  0  0
  189.9350  172.4210  136.3340 C   0  0  0  0  0  0  0  0  0  0  0  0
  189.1030  172.7820  137.4370 N   0  0  0  0  0  2  0  0  0  0  0  0
  187.0440  178.2980  142.8860 C   0  0  0  0  0  2  0  0  0  0  0  0
  185.8140  177.5280  142.8320 N   0  0  0  0  0  2  0  0  0  0  0  0
  184.7290  178.4650  143.0570 C   0  0  0  0  0  2  0  0  0  0  0  0
  183.6770  178.2850  141.9840 C   0  0  0  0  0  1  0  0  0  0  0  0
  190.7800  176.5680  146.0510 O   0  0  0  0  0  0  0  0  0  0  0  0
  190.8740  175.5070  146.9570 C   0  0  0  0  0  2  0  0  0  0  0  0
  189.4920  174.9490  147.2510 C   0  0  0  0  0  2  0  0  0  0  0  0
  188.5000  175.7120  146.5450 N   0  0  0  0  0  0  0  0  0  0  0  0
  187.4990  176.2030  147.1770 C   0  0  0  0  0  3  0  0  0  0  0  0
  186.4580  176.9970  146.4570 C   0  0  0  0  0  2  0  0  0  0  0  0
  186.2130  178.3320  147.1430 C   0  0  0  0  0  2  0  0  0  0  0  0
  185.2430  179.0570  146.4480 O   0  0  0  0  0  0  0  0  0  0  0  0
  184.0930  178.2740  146.5340 C   0  0  0  0  0  1  0  0  0  0  0  0
  1 11  1  0  0  0  0
  2  6  1  0  0  0  0
  3 25  1  1  0  0  0
  4  2  2  0  0  0  0
  4 12  1  0  0  0  0
  5  3  1  0  0  0  0
  6  1  1  0  0  0  0
  6 21  1  1  0  0  0
  7  5  1  0  0  0  0
  8  7  2  0  0  0  0
  9  3  1  0  0  0  0
 10  9  1  0  0  0  0
 11 10  1  6  0  0  0
 11  7  1  0  0  0  0
 12 13  2  0  0  0  0
 12  1  1  0  0  0  0
 13  8  1  0  0  0  0
 14 13  1  0  0  0  0
 15 14  1  0  0  0  0
 16 15  1  0  0  0  0
 17 19  2  0  0  0  0
 18 19  1  0  0  0  0
 19 20  1  0  0  0  0
 20 16  1  0  0  0  0
 22 21  1  0  0  0  0
 22 23  1  0  0  0  0
 24 23  1  0  0  0  0
 25 26  1  0  0  0  0
 26 27  1  0  0  0  0
 28 29  2  0  0  0  0
 28 27  1  0  0  0  0
 30 31  1  0  0  0  0
 30 29  1  0  0  0  0
 32 33  1  0  0  0  0
 32 31  1  0  0  0  0
M  END
>  <MODEL>
9

>  <REMARK>
 VINA RESULT:      -5.5      2.889      7.553
  Name = 
  14 active torsions:
  status: ('A' for Active; 'I' for Inactive)
    1  A    between atoms: C_1  and  N_23
    2  A    between atoms: C_4  and  O_27
    3  A    between atoms: C_8  and  C_13
    4  A    between atoms: C_8  and  C_31
    5  A    between atoms: C_10  and  C_14
    6  A    between atoms: C_10  and  C_33
    7  A    between atoms: C_12  and  C_15
    8  A    between atoms: C_12  and  N_23
    9  A    between atoms: C_13  and  O_20
   10  A    between atoms: C_14  and  C_17
   11  A    between atoms: N_16  and  C_17
   12  A    between atoms: C_21  and  C_26
   13  A    between atoms: C_21  and  N_30
   14  A    between atoms: C_26  and  O_27
                            x       y       z     vdW  Elec       q    Type
                         _______ _______ _______ _____ _____    ______ ____

>  <TORSDO>
F 14

$$$$
