=
 OpenBabel11042415483D

 54 62  0  0  1  0  0  0  0  0999 V2000
  192.0840  173.4320  145.1260 C   0  0  0  0  0  3  0  0  0  0  0  0
  193.4110  169.5140  141.4950 N   0  0  0  0  0  0  0  0  0  0  0  0
  191.3750  171.7620  143.5530 N   0  0  0  0  0  0  0  0  0  0  0  0
  195.4270  170.8870  142.7310 C   0  0  0  0  0  3  0  0  0  0  0  0
  190.4260  175.0100  146.2360 C   0  0  2  0  0  3  0  0  0  0  0  0
  195.7050  169.9100  141.8350 N   0  0  0  0  0  0  0  0  0  0  0  0
  189.9520  171.9660  143.8600 C   0  0  0  0  0  2  0  0  0  0  0  0
  193.8200  172.1790  143.9440 C   0  0  0  0  0  0  0  0  0  0  0  0
  189.7050  173.1770  144.7230 C   0  0  0  0  0  3  0  0  0  0  0  0
  190.7610  170.0060  141.9160 N   0  0  0  0  0  1  0  0  0  0  0  0
  194.7090  169.2240  141.2230 C   0  0  0  0  0  3  0  0  0  0  0  0
  194.4890  175.7440  146.1090 C   0  0  2  0  0  3  0  0  0  0  0  0
  194.5150  177.2430  146.2880 C   0  0  0  0  0  2  0  0  0  0  0  0
  194.9050  174.4160  144.0010 C   0  0  2  0  0  3  0  0  0  0  0  0
  195.4840  175.3990  145.0100 C   0  0  0  0  0  2  0  0  0  0  0  0
  193.0700  170.4850  142.3850 C   0  0  0  0  0  0  0  0  0  0  0  0
  191.7660  170.7440  142.6130 C   0  0  0  0  0  0  0  0  0  0  0  0
  193.3410  176.5950  145.5770 C   0  0  2  0  0  3  0  0  0  0  0  0
  194.1000  171.2090  143.0470 C   0  0  0  0  0  0  0  0  0  0  0  0
  192.4060  172.4780  144.2520 C   0  0  0  0  0  0  0  0  0  0  0  0
  192.2650  176.5360  146.4660 O   0  0  0  0  0  0  0  0  0  0  0  0
  191.1270  176.2720  145.6980 C   0  0  2  0  0  3  0  0  0  0  0  0
  194.9120  173.0040  144.5760 C   0  0  0  0  0  2  0  0  0  0  0  0
  190.6910  173.8210  145.3560 C   0  0  0  0  0  0  0  0  0  0  0  0
  188.7050  175.1880  146.7290 Cl  0  0  0  0  0  0  0  0  0  0  0  0
  190.2350  177.5140  145.5860 C   0  0  0  0  0  2  0  0  0  0  0  0
  190.1620  178.0430  144.1600 C   0  0  0  0  0  2  0  0  0  0  0  0
  190.5130  176.9300  143.1920 C   0  0  0  0  0  2  0  0  0  0  0  0
  189.2360  176.3510  142.6080 C   0  0  0  0  0  2  0  0  0  0  0  0
  188.1580  177.4190  142.4960 C   0  0  1  0  0  3  0  0  0  0  0  0
  188.1790  177.9700  141.2120 O   0  0  0  0  0  0  0  0  0  0  0  0
  186.9680  177.5880  140.6350 C   0  0  0  0  0  1  0  0  0  0  0  0
  186.7860  176.8110  142.7620 C   0  0  0  0  0  2  0  0  0  0  0  0
  186.5720  176.6090  144.2440 C   0  0  0  0  0  2  0  0  0  0  0  0
  184.5970  177.9800  143.8070 O   0  0  0  0  0  0  0  0  0  0  0  0
  184.1440  178.6130  146.0960 C   0  0  0  0  0  2  0  0  0  0  0  0
  184.1130  179.0360  144.6290 C   0  0  0  0  0  2  0  0  0  0  0  0
  185.5310  176.8510  146.9650 O   0  0  0  0  0  0  0  0  0  0  0  0
  185.3030  177.1780  144.6480 N   0  0  0  0  0  0  0  0  0  0  0  0
  185.0290  177.4680  145.9930 C   0  0  0  0  0  0  0  0  0  0  0  0
  195.6720  174.4350  142.6850 C   0  0  0  0  0  2  0  0  0  0  0  0
  194.8810  175.1250  141.5820 C   0  0  0  0  0  2  0  0  0  0  0  0
  194.9710  174.3350  140.3650 N   0  0  0  0  0  2  0  0  0  0  0  0
  191.4030  173.2720  139.9660 C   0  0  1  0  0  3  0  0  0  0  0  0
  191.9900  173.1210  137.4740 C   0  0  1  0  0  0  0  0  0  0  0  0
  190.2750  173.4980  140.7560 O   0  0  0  0  0  1  0  0  0  0  0  0
  191.9010  171.6580  137.1470 C   0  0  0  0  0  2  0  0  0  0  0  0
  189.6060  172.3590  137.1160 C   0  0  0  0  0  1  0  0  0  0  0  0
  193.4790  173.2670  137.8970 C   0  0  0  0  0  2  0  0  0  0  0  0
  191.0830  173.5800  138.5650 N   0  0  1  0  0  0  0  0  0  0  0  0
  193.8710  173.3810  140.3760 C   0  0  2  0  0  3  0  0  0  0  0  0
  193.9480  172.4990  139.1300 C   0  0  0  0  0  2  0  0  0  0  0  0
  190.8380  172.2530  137.9940 C   0  0  2  0  0  0  0  0  0  0  0  0
  192.5480  174.1360  140.4730 C   0  0  0  0  0  2  0  0  0  0  0  0
  1 24  1  0  0  0  0
  2 16  1  0  0  0  0
  3  7  1  0  0  0  0
  3 20  1  0  0  0  0
  4 19  1  0  0  0  0
  5 25  1  6  0  0  0
  6  4  2  0  0  0  0
  7  9  1  0  0  0  0
  8 20  1  0  0  0  0
  8 23  1  0  0  0  0
  9 24  2  0  0  0  0
 10 17  1  0  0  0  0
 11  2  2  0  0  0  0
 11  6  1  0  0  0  0
 12 15  1  6  0  0  0
 12 13  1  0  0  0  0
 14 41  1  6  0  0  0
 14 23  1  0  0  0  0
 14 15  1  0  0  0  0
 16 17  2  0  0  0  0
 16 19  1  0  0  0  0
 17  3  1  0  0  0  0
 18 12  1  0  0  0  0
 18 13  1  1  0  0  0
 18 21  1  0  0  0  0
 19  8  2  0  0  0  0
 20  1  2  0  0  0  0
 22 26  1  1  0  0  0
 22  5  1  0  0  0  0
 22 21  1  0  0  0  0
 24  5  1  0  0  0  0
 27 26  1  0  0  0  0
 28 27  1  0  0  0  0
 29 28  1  0  0  0  0
 30 29  1  6  0  0  0
 30 33  1  0  0  0  0
 31 30  1  0  0  0  0
 32 31  1  0  0  0  0
 33 34  1  0  0  0  0
 34 39  1  0  0  0  0
 35 37  1  0  0  0  0
 35 39  1  0  0  0  0
 37 36  1  0  0  0  0
 39 40  1  0  0  0  0
 40 36  1  0  0  0  0
 40 38  2  0  0  0  0
 42 41  1  0  0  0  0
 43 51  1  0  0  0  0
 43 42  1  0  0  0  0
 44 54  1  0  0  0  0
 44 46  1  1  0  0  0
 45 47  1  6  0  0  0
 45 49  1  0  0  0  0
 45 53  1  0  0  0  0
 45 50  1  0  0  0  0
 47 53  1  0  0  0  0
 48 53  1  0  0  0  0
 49 52  1  0  0  0  0
 50 44  1  0  0  0  0
 51 54  1  0  0  0  0
 52 51  1  0  0  0  0
 53 50  1  0  0  0  0
M  END
>  <MODEL>
1

>  <REMARK>
 VINA RESULT:      -7.7      0.000      0.000
  Name = 
  13 active torsions:
  status: ('A' for Active; 'I' for Inactive)
    1  A    between atoms: O_4  and  C_12
    2  A    between atoms: C_8  and  C_23
    3  A    between atoms: C_8  and  N_43
    4  A    between atoms: C_10  and  C_16
    5  A    between atoms: C_10  and  C_29
    6  A    between atoms: C_12  and  C_17
    7  A    between atoms: C_12  and  C_23
    8  A    between atoms: C_16  and  C_17
    9  A    between atoms: N_28  and  C_34
   10  A    between atoms: N_28  and  C_42
   11  A    between atoms: C_29  and  C_46
   12  A    between atoms: C_32  and  C_52
   13  A    between atoms: C_34  and  C_52
                            x       y       z     vdW  Elec       q    Type
                         _______ _______ _______ _____ _____    ______ ____

>  <TORSDO>
F 13

$$$$
=
 OpenBabel11042415483D

 54 62  0  0  1  0  0  0  0  0999 V2000
  191.7250  172.8280  144.0690 C   0  0  0  0  0  3  0  0  0  0  0  0
  196.8860  171.1680  143.1220 N   0  0  0  0  0  0  0  0  0  0  0  0
  193.3280  171.8520  142.5720 N   0  0  0  0  0  0  0  0  0  0  0  0
  196.3030  172.3090  145.5370 C   0  0  0  0  0  3  0  0  0  0  0  0
  189.3630  173.3980  143.3110 C   0  0  2  0  0  3  0  0  0  0  0  0
  197.5580  171.8800  145.2620 N   0  0  0  0  0  0  0  0  0  0  0  0
  192.3170  171.5930  141.5350 C   0  0  0  0  0  2  0  0  0  0  0  0
  194.0240  172.5940  144.8660 C   0  0  0  0  0  0  0  0  0  0  0  0
  190.9930  172.2500  141.8300 C   0  0  0  0  0  3  0  0  0  0  0  0
  195.0640  170.8470  141.1170 N   0  0  0  0  0  1  0  0  0  0  0  0
  197.8500  171.3090  144.0670 C   0  0  0  0  0  3  0  0  0  0  0  0
  191.0770  174.9890  146.7160 C   0  0  2  0  0  3  0  0  0  0  0  0
  190.2560  176.2440  146.8900 C   0  0  0  0  0  2  0  0  0  0  0  0
  193.4600  174.7830  145.9020 C   0  0  2  0  0  3  0  0  0  0  0  0
  192.5330  175.3590  146.9650 C   0  0  0  0  0  2  0  0  0  0  0  0
  195.6080  171.5810  143.3410 C   0  0  0  0  0  0  0  0  0  0  0  0
  194.6890  171.4290  142.3660 C   0  0  0  0  0  0  0  0  0  0  0  0
  190.5180  175.7100  145.4940 C   0  0  2  0  0  3  0  0  0  0  0  0
  195.2770  172.1710  144.5920 C   0  0  0  0  0  0  0  0  0  0  0  0
  192.9730  172.4200  143.8430 C   0  0  0  0  0  0  0  0  0  0  0  0
  189.3670  175.0530  145.0500 O   0  0  0  0  0  0  0  0  0  0  0  0
  189.5110  174.8890  143.6690 C   0  0  2  0  0  3  0  0  0  0  0  0
  193.6980  173.2990  146.1590 C   0  0  0  0  0  2  0  0  0  0  0  0
  190.6990  172.7720  143.0250 C   0  0  0  0  0  0  0  0  0  0  0  0
  188.0840  172.9730  142.1200 Cl  0  0  0  0  0  0  0  0  0  0  0  0
  188.5810  175.8360  142.9020 C   0  0  0  0  0  2  0  0  0  0  0  0
  189.2870  177.1180  142.4810 C   0  0  0  0  0  2  0  0  0  0  0  0
  188.3100  178.0100  141.7390 C   0  0  0  0  0  2  0  0  0  0  0  0
  186.9220  177.3970  141.8020 C   0  0  0  0  0  2  0  0  0  0  0  0
  185.8520  178.4540  141.5710 C   0  0  1  0  0  3  0  0  0  0  0  0
  185.2440  178.2380  140.3320 O   0  0  0  0  0  0  0  0  0  0  0  0
  183.8820  178.4440  140.5570 C   0  0  0  0  0  1  0  0  0  0  0  0
  184.7990  178.3840  142.6700 C   0  0  0  0  0  2  0  0  0  0  0  0
  185.2170  177.4120  143.7480 C   0  0  0  0  0  2  0  0  0  0  0  0
  187.0240  177.9420  145.3050 O   0  0  0  0  0  0  0  0  0  0  0  0
  185.6410  178.5250  147.2000 C   0  0  0  0  0  2  0  0  0  0  0  0
  186.9470  177.8910  146.7250 C   0  0  0  0  0  2  0  0  0  0  0  0
  183.6880  178.7900  145.8230 O   0  0  0  0  0  0  0  0  0  0  0  0
  185.7430  178.1280  144.8910 N   0  0  0  0  0  0  0  0  0  0  0  0
  184.9100  178.5270  145.9470 C   0  0  0  0  0  0  0  0  0  0  0  0
  194.7950  175.5140  145.8570 C   0  0  0  0  0  2  0  0  0  0  0  0
  194.7200  176.7710  145.0010 C   0  0  0  0  0  2  0  0  0  0  0  0
  195.7660  176.7230  143.9910 N   0  0  0  0  0  2  0  0  0  0  0  0
  194.8510  174.8110  140.9040 C   0  0  1  0  0  3  0  0  0  0  0  0
  197.2610  175.3130  140.1850 C   0  0  1  0  0  0  0  0  0  0  0  0
  193.6170  174.5590  140.3020 O   0  0  0  0  0  1  0  0  0  0  0  0
  197.9410  173.9740  140.1630 C   0  0  0  0  0  2  0  0  0  0  0  0
  196.7430  174.0050  138.0840 C   0  0  0  0  0  1  0  0  0  0  0  0
  197.5160  175.7800  141.6450 C   0  0  0  0  0  2  0  0  0  0  0  0
  195.8000  175.2830  139.8870 N   0  0  1  0  0  0  0  0  0  0  0  0
  195.5600  175.5180  143.2000 C   0  0  2  0  0  3  0  0  0  0  0  0
  196.9140  174.9490  142.7750 C   0  0  0  0  0  2  0  0  0  0  0  0
  196.5770  174.0760  139.5900 C   0  0  2  0  0  0  0  0  0  0  0  0
  194.6660  175.8440  142.0060 C   0  0  0  0  0  2  0  0  0  0  0  0
  2 16  1  0  0  0  0
  2 11  2  0  0  0  0
  3 20  1  0  0  0  0
  5 25  1  6  0  0  0
  5 22  1  0  0  0  0
  6  4  2  0  0  0  0
  7  9  1  0  0  0  0
  7  3  1  0  0  0  0
  8 23  1  0  0  0  0
  9 24  2  0  0  0  0
 10 17  1  0  0  0  0
 11  6  1  0  0  0  0
 12 13  1  1  0  0  0
 12 15  1  0  0  0  0
 14 41  1  1  0  0  0
 14 23  1  0  0  0  0
 14 15  1  0  0  0  0
 16 19  1  0  0  0  0
 17  3  1  0  0  0  0
 17 16  2  0  0  0  0
 18 12  1  0  0  0  0
 18 13  1  1  0  0  0
 19  8  2  0  0  0  0
 19  4  1  0  0  0  0
 20  1  2  0  0  0  0
 20  8  1  0  0  0  0
 21 18  1  0  0  0  0
 22 26  1  6  0  0  0
 22 21  1  0  0  0  0
 24  5  1  0  0  0  0
 24  1  1  0  0  0  0
 27 26  1  0  0  0  0
 28 29  1  0  0  0  0
 28 27  1  0  0  0  0
 30 29  1  1  0  0  0
 30 33  1  0  0  0  0
 31 32  1  0  0  0  0
 31 30  1  0  0  0  0
 33 34  1  0  0  0  0
 34 39  1  0  0  0  0
 35 37  1  0  0  0  0
 37 36  1  0  0  0  0
 38 40  2  0  0  0  0
 39 35  1  0  0  0  0
 39 40  1  0  0  0  0
 40 36  1  0  0  0  0
 42 41  1  0  0  0  0
 43 42  1  0  0  0  0
 44 46  1  6  0  0  0
 44 54  1  0  0  0  0
 45 47  1  6  0  0  0
 45 49  1  0  0  0  0
 48 53  1  0  0  0  0
 49 52  1  0  0  0  0
 50 45  1  0  0  0  0
 50 44  1  0  0  0  0
 51 43  1  0  0  0  0
 52 51  1  0  0  0  0
 53 50  1  0  0  0  0
 53 47  1  0  0  0  0
 53 45  1  0  0  0  0
 54 51  1  0  0  0  0
M  END
>  <MODEL>
2

>  <REMARK>
 VINA RESULT:      -7.4      2.315      3.729
  Name = 
  13 active torsions:
  status: ('A' for Active; 'I' for Inactive)
    1  A    between atoms: O_4  and  C_12
    2  A    between atoms: C_8  and  C_23
    3  A    between atoms: C_8  and  N_43
    4  A    between atoms: C_10  and  C_16
    5  A    between atoms: C_10  and  C_29
    6  A    between atoms: C_12  and  C_17
    7  A    between atoms: C_12  and  C_23
    8  A    between atoms: C_16  and  C_17
    9  A    between atoms: N_28  and  C_34
   10  A    between atoms: N_28  and  C_42
   11  A    between atoms: C_29  and  C_46
   12  A    between atoms: C_32  and  C_52
   13  A    between atoms: C_34  and  C_52
                            x       y       z     vdW  Elec       q    Type
                         _______ _______ _______ _____ _____    ______ ____

>  <TORSDO>
F 13

$$$$
=
 OpenBabel11042415483D

 54 62  0  0  1  0  0  0  0  0999 V2000
  193.8370  175.2160  142.0950 C   0  0  0  0  0  3  0  0  0  0  0  0
  189.4470  172.7460  139.8780 N   0  0  0  0  0  0  0  0  0  0  0  0
  192.9380  173.6810  140.4830 N   0  0  0  0  0  0  0  0  0  0  0  0
  189.0610  174.4710  141.9640 C   0  0  0  0  0  3  0  0  0  0  0  0
  196.3450  175.4800  142.4360 C   0  0  2  0  0  3  0  0  0  0  0  0
  188.0090  173.8450  141.3830 N   0  0  0  0  0  0  0  0  0  0  0  0
  194.2530  173.4310  139.8730 C   0  0  0  0  0  2  0  0  0  0  0  0
  191.4150  174.8790  142.0790 C   0  0  0  0  0  0  0  0  0  0  0  0
  195.3910  174.0140  140.6730 C   0  0  0  0  0  3  0  0  0  0  0  0
  191.8990  172.1290  138.8540 N   0  0  0  0  0  1  0  0  0  0  0  0
  188.1960  172.9920  140.3450 C   0  0  0  0  0  3  0  0  0  0  0  0
  193.5540  176.7460  145.2060 C   0  0  2  0  0  3  0  0  0  0  0  0
  194.3870  176.7620  146.4650 C   0  0  0  0  0  2  0  0  0  0  0  0
  191.7770  175.0840  144.5310 C   0  0  2  0  0  3  0  0  0  0  0  0
  192.2110  176.1230  145.5560 C   0  0  0  0  0  2  0  0  0  0  0  0
  190.5410  173.3440  140.4220 C   0  0  0  0  0  0  0  0  0  0  0  0
  191.7630  173.0590  139.9300 C   0  0  0  0  0  0  0  0  0  0  0  0
  194.6950  175.7490  145.3770 C   0  0  2  0  0  3  0  0  0  0  0  0
  190.3660  174.2520  141.5040 C   0  0  0  0  0  0  0  0  0  0  0  0
  192.7730  174.6240  141.5550 C   0  0  0  0  0  0  0  0  0  0  0  0
  195.8140  176.1930  144.6660 O   0  0  0  0  0  0  0  0  0  0  0  0
  196.2740  175.0990  143.9270 C   0  0  2  0  0  3  0  0  0  0  0  0
  191.2350  175.7710  143.2810 C   0  0  0  0  0  2  0  0  0  0  0  0
  195.1980  174.8870  141.6670 C   0  0  0  0  0  0  0  0  0  0  0  0
  197.9410  175.2980  141.6270 Cl  0  0  0  0  0  0  0  0  0  0  0  0
  197.5750  174.5420  144.5170 C   0  0  0  0  0  2  0  0  0  0  0  0
  197.5570  173.0230  144.6180 C   0  0  0  0  0  2  0  0  0  0  0  0
  196.1270  172.5460  144.7840 C   0  0  0  0  0  2  0  0  0  0  0  0
  196.0250  171.0970  144.3440 C   0  0  0  0  0  2  0  0  0  0  0  0
  194.7720  170.4450  144.9090 C   0  0  1  0  0  3  0  0  0  0  0  0
  194.9260  170.2560  146.2850 O   0  0  0  0  0  0  0  0  0  0  0  0
  195.4850  168.9840  146.4160 C   0  0  0  0  0  1  0  0  0  0  0  0
  193.5580  171.3290  144.6530 C   0  0  0  0  0  2  0  0  0  0  0  0
  193.3110  171.4770  143.1700 C   0  0  0  0  0  2  0  0  0  0  0  0
  193.1480  169.4110  141.8750 O   0  0  0  0  0  0  0  0  0  0  0  0
  190.7940  169.5630  141.3410 C   0  0  0  0  0  2  0  0  0  0  0  0
  192.1800  169.1270  140.8700 C   0  0  0  0  0  2  0  0  0  0  0  0
  190.4030  171.1900  143.0680 O   0  0  0  0  0  0  0  0  0  0  0  0
  192.5600  170.3420  142.6730 N   0  0  0  0  0  0  0  0  0  0  0  0
  191.1790  170.4260  142.4410 C   0  0  0  0  0  0  0  0  0  0  0  0
  190.7220  174.1390  145.0910 C   0  0  0  0  0  2  0  0  0  0  0  0
  189.3340  174.7630  145.0620 C   0  0  0  0  0  2  0  0  0  0  0  0
  189.1050  175.4770  146.3080 N   0  0  0  0  0  2  0  0  0  0  0  0
  186.8950  177.9260  144.5360 C   0  0  1  0  0  3  0  0  0  0  0  0
  185.2220  177.3820  146.4030 C   0  0  1  0  0  0  0  0  0  0  0  0
  186.8680  178.3590  143.2100 O   0  0  0  0  0  1  0  0  0  0  0  0
  185.0970  178.6550  147.1890 C   0  0  0  0  0  2  0  0  0  0  0  0
  183.6780  179.0490  145.2940 C   0  0  0  0  0  1  0  0  0  0  0  0
  186.3920  176.6650  147.1340 C   0  0  0  0  0  2  0  0  0  0  0  0
  185.5350  177.5610  144.9560 N   0  0  1  0  0  0  0  0  0  0  0  0
  188.6150  176.8060  145.9720 C   0  0  2  0  0  3  0  0  0  0  0  0
  187.7610  177.3410  147.1220 C   0  0  0  0  0  2  0  0  0  0  0  0
  185.1050  178.7440  145.7080 C   0  0  2  0  0  0  0  0  0  0  0  0
  187.8440  176.7420  144.6550 C   0  0  0  0  0  2  0  0  0  0  0  0
  2 11  2  0  0  0  0
  2 16  1  0  0  0  0
  3 20  1  0  0  0  0
  5 25  1  6  0  0  0
  5 22  1  0  0  0  0
  6  4  2  0  0  0  0
  7  3  1  0  0  0  0
  7  9  1  0  0  0  0
  8 23  1  0  0  0  0
  9 24  2  0  0  0  0
 10 17  1  0  0  0  0
 11  6  1  0  0  0  0
 12 18  1  0  0  0  0
 12 15  1  1  0  0  0
 12 13  1  0  0  0  0
 14 41  1  1  0  0  0
 14 15  1  0  0  0  0
 16 19  1  0  0  0  0
 17 16  2  0  0  0  0
 17  3  1  0  0  0  0
 18 13  1  1  0  0  0
 19  4  1  0  0  0  0
 19  8  2  0  0  0  0
 20  8  1  0  0  0  0
 20  1  2  0  0  0  0
 21 18  1  0  0  0  0
 22 26  1  1  0  0  0
 22 21  1  0  0  0  0
 23 14  1  0  0  0  0
 24  1  1  0  0  0  0
 24  5  1  0  0  0  0
 26 27  1  0  0  0  0
 27 28  1  0  0  0  0
 29 28  1  0  0  0  0
 30 29  1  1  0  0  0
 30 31  1  0  0  0  0
 31 32  1  0  0  0  0
 33 30  1  0  0  0  0
 34 33  1  0  0  0  0
 35 39  1  0  0  0  0
 36 40  1  0  0  0  0
 37 36  1  0  0  0  0
 37 35  1  0  0  0  0
 39 34  1  0  0  0  0
 40 39  1  0  0  0  0
 40 38  2  0  0  0  0
 42 41  1  0  0  0  0
 42 43  1  0  0  0  0
 44 46  1  6  0  0  0
 44 54  1  0  0  0  0
 44 50  1  0  0  0  0
 45 49  1  1  0  0  0
 45 47  1  0  0  0  0
 48 53  1  0  0  0  0
 50 53  1  0  0  0  0
 50 45  1  0  0  0  0
 51 43  1  0  0  0  0
 51 52  1  0  0  0  0
 52 49  1  0  0  0  0
 53 45  1  0  0  0  0
 53 47  1  0  0  0  0
 54 51  1  0  0  0  0
M  END
>  <MODEL>
3

>  <REMARK>
 VINA RESULT:      -7.2      2.677      8.231
  Name = 
  13 active torsions:
  status: ('A' for Active; 'I' for Inactive)
    1  A    between atoms: O_4  and  C_12
    2  A    between atoms: C_8  and  C_23
    3  A    between atoms: C_8  and  N_43
    4  A    between atoms: C_10  and  C_16
    5  A    between atoms: C_10  and  C_29
    6  A    between atoms: C_12  and  C_17
    7  A    between atoms: C_12  and  C_23
    8  A    between atoms: C_16  and  C_17
    9  A    between atoms: N_28  and  C_34
   10  A    between atoms: N_28  and  C_42
   11  A    between atoms: C_29  and  C_46
   12  A    between atoms: C_32  and  C_52
   13  A    between atoms: C_34  and  C_52
                            x       y       z     vdW  Elec       q    Type
                         _______ _______ _______ _____ _____    ______ ____

>  <TORSDO>
F 13

$$$$
=
 OpenBabel11042415483D

 54 62  0  0  1  0  0  0  0  0999 V2000
  191.4030  170.7560  141.1290 C   0  0  0  0  0  3  0  0  0  0  0  0
  196.1920  170.3140  143.8060 N   0  0  0  0  0  0  0  0  0  0  0  0
  193.7200  170.1270  141.1060 N   0  0  0  0  0  0  0  0  0  0  0  0
  194.0470  171.3730  145.1310 C   0  0  0  0  0  3  0  0  0  0  0  0
  189.9910  170.7310  139.0120 C   0  0  2  0  0  3  0  0  0  0  0  0
  195.2440  171.2390  145.7510 N   0  0  0  0  0  0  0  0  0  0  0  0
  193.6440  169.6020  139.7350 C   0  0  0  0  0  2  0  0  0  0  0  0
  192.6890  171.0940  143.1810 C   0  0  0  0  0  0  0  0  0  0  0  0
  192.3460  169.9420  139.0470 C   0  0  0  0  0  3  0  0  0  0  0  0
  196.1170  169.5040  141.2020 N   0  0  0  0  0  1  0  0  0  0  0  0
  196.3090  170.7100  145.0990 C   0  0  0  0  0  3  0  0  0  0  0  0
  188.9020  172.8000  142.4170 C   0  0  2  0  0  3  0  0  0  0  0  0
  187.9670  173.8340  141.8370 C   0  0  0  0  0  2  0  0  0  0  0  0
  191.2590  173.1260  143.2630 C   0  0  2  0  0  3  0  0  0  0  0  0
  189.7930  173.5080  143.4270 C   0  0  0  0  0  2  0  0  0  0  0  0
  195.0160  170.4240  143.1310 C   0  0  0  0  0  0  0  0  0  0  0  0
  194.9530  170.0270  141.8440 C   0  0  0  0  0  0  0  0  0  0  0  0
  189.1290  173.3250  141.0040 C   0  0  2  0  0  3  0  0  0  0  0  0
  193.8830  170.9650  143.8000 C   0  0  0  0  0  0  0  0  0  0  0  0
  192.5600  170.6430  141.7800 C   0  0  0  0  0  0  0  0  0  0  0  0
  188.6370  172.4020  140.0770 O   0  0  0  0  0  0  0  0  0  0  0  0
  189.6400  172.2270  139.1200 C   0  0  2  0  0  3  0  0  0  0  0  0
  191.5160  171.7490  143.8650 C   0  0  0  0  0  2  0  0  0  0  0  0
  191.2880  170.4240  139.7070 C   0  0  0  0  0  0  0  0  0  0  0  0
  189.8350  169.9760  137.3870 Cl  0  0  0  0  0  0  0  0  0  0  0  0
  189.2640  172.9020  137.7960 C   0  0  0  0  0  2  0  0  0  0  0  0
  190.4330  173.6660  137.1870 C   0  0  0  0  0  2  0  0  0  0  0  0
  191.5450  173.7840  138.2120 C   0  0  0  0  0  2  0  0  0  0  0  0
  192.8380  173.2600  137.6140 C   0  0  0  0  0  2  0  0  0  0  0  0
  193.9810  173.3700  138.6120 C   0  0  1  0  0  3  0  0  0  0  0  0
  194.9430  174.2570  138.1230 O   0  0  0  0  0  0  0  0  0  0  0  0
  195.9810  173.4470  137.6610 C   0  0  0  0  0  1  0  0  0  0  0  0
  193.4610  173.8760  139.9520 C   0  0  0  0  0  2  0  0  0  0  0  0
  194.4980  173.6800  141.0340 C   0  0  0  0  0  2  0  0  0  0  0  0
  194.9310  176.0790  140.8690 O   0  0  0  0  0  0  0  0  0  0  0  0
  196.4590  176.2500  142.7350 C   0  0  0  0  0  2  0  0  0  0  0  0
  196.0910  176.7560  141.3410 C   0  0  0  0  0  2  0  0  0  0  0  0
  195.7590  174.1310  143.6320 O   0  0  0  0  0  0  0  0  0  0  0  0
  194.8480  174.9540  141.6270 N   0  0  0  0  0  0  0  0  0  0  0  0
  195.6750  175.0290  142.7580 C   0  0  0  0  0  0  0  0  0  0  0  0
  192.1870  174.1470  143.9080 C   0  0  0  0  0  2  0  0  0  0  0  0
  191.8550  175.5670  143.4700 C   0  0  0  0  0  2  0  0  0  0  0  0
  191.6820  176.4010  144.6490 N   0  0  0  0  0  2  0  0  0  0  0  0
  188.7370  177.8460  142.8440 C   0  0  1  0  0  3  0  0  0  0  0  0
  187.3640  176.6610  144.6580 C   0  0  1  0  0  0  0  0  0  0  0  0
  188.5730  178.2620  141.5220 O   0  0  0  0  0  1  0  0  0  0  0  0
  186.7410  177.7720  145.4540 C   0  0  0  0  0  2  0  0  0  0  0  0
  185.3200  177.6270  143.5250 C   0  0  0  0  0  1  0  0  0  0  0  0
  188.7040  176.4360  145.4130 C   0  0  0  0  0  2  0  0  0  0  0  0
  187.6140  176.9770  143.2220 N   0  0  1  0  0  0  0  0  0  0  0  0
  190.7240  177.4450  144.3140 C   0  0  2  0  0  3  0  0  0  0  0  0
  189.7060  177.5860  145.4460 C   0  0  0  0  0  2  0  0  0  0  0  0
  186.7450  177.8870  143.9750 C   0  0  2  0  0  0  0  0  0  0  0  0
  190.0660  177.1170  142.9760 C   0  0  0  0  0  2  0  0  0  0  0  0
  1 20  2  0  0  0  0
  2 11  2  0  0  0  0
  3 20  1  0  0  0  0
  3 17  1  0  0  0  0
  4  6  2  0  0  0  0
  5 25  1  6  0  0  0
  5 22  1  0  0  0  0
  5 24  1  0  0  0  0
  7  3  1  0  0  0  0
  8 19  2  0  0  0  0
  8 23  1  0  0  0  0
  9 24  2  0  0  0  0
  9  7  1  0  0  0  0
 10 17  1  0  0  0  0
 11  6  1  0  0  0  0
 12 13  1  1  0  0  0
 12 15  1  0  0  0  0
 14 15  1  0  0  0  0
 14 23  1  0  0  0  0
 14 41  1  1  0  0  0
 16 19  1  0  0  0  0
 16  2  1  0  0  0  0
 17 16  2  0  0  0  0
 18 13  1  1  0  0  0
 18 12  1  0  0  0  0
 19  4  1  0  0  0  0
 20  8  1  0  0  0  0
 21 18  1  0  0  0  0
 22 26  1  6  0  0  0
 22 21  1  0  0  0  0
 24  1  1  0  0  0  0
 27 26  1  0  0  0  0
 27 28  1  0  0  0  0
 29 28  1  0  0  0  0
 30 29  1  6  0  0  0
 30 33  1  0  0  0  0
 31 30  1  0  0  0  0
 32 31  1  0  0  0  0
 33 34  1  0  0  0  0
 34 39  1  0  0  0  0
 35 37  1  0  0  0  0
 35 39  1  0  0  0  0
 36 40  1  0  0  0  0
 37 36  1  0  0  0  0
 39 40  1  0  0  0  0
 40 38  2  0  0  0  0
 42 41  1  0  0  0  0
 42 43  1  0  0  0  0
 44 46  1  6  0  0  0
 44 54  1  0  0  0  0
 44 50  1  0  0  0  0
 45 49  1  1  0  0  0
 45 47  1  0  0  0  0
 48 53  1  0  0  0  0
 49 52  1  0  0  0  0
 50 53  1  0  0  0  0
 50 45  1  0  0  0  0
 51 43  1  0  0  0  0
 51 52  1  0  0  0  0
 53 45  1  0  0  0  0
 53 47  1  0  0  0  0
 54 51  1  0  0  0  0
M  END
>  <MODEL>
4

>  <REMARK>
 VINA RESULT:      -6.9      2.695      7.535
  Name = 
  13 active torsions:
  status: ('A' for Active; 'I' for Inactive)
    1  A    between atoms: O_4  and  C_12
    2  A    between atoms: C_8  and  C_23
    3  A    between atoms: C_8  and  N_43
    4  A    between atoms: C_10  and  C_16
    5  A    between atoms: C_10  and  C_29
    6  A    between atoms: C_12  and  C_17
    7  A    between atoms: C_12  and  C_23
    8  A    between atoms: C_16  and  C_17
    9  A    between atoms: N_28  and  C_34
   10  A    between atoms: N_28  and  C_42
   11  A    between atoms: C_29  and  C_46
   12  A    between atoms: C_32  and  C_52
   13  A    between atoms: C_34  and  C_52
                            x       y       z     vdW  Elec       q    Type
                         _______ _______ _______ _____ _____    ______ ____

>  <TORSDO>
F 13

$$$$
=
 OpenBabel11042415483D

 54 62  0  0  1  0  0  0  0  0999 V2000
  192.2270  174.8610  141.9560 C   0  0  0  0  0  3  0  0  0  0  0  0
  196.7610  172.3020  140.1710 N   0  0  0  0  0  0  0  0  0  0  0  0
  194.5840  174.4590  142.1800 N   0  0  0  0  0  0  0  0  0  0  0  0
  194.3910  171.7910  138.9090 C   0  0  0  0  0  3  0  0  0  0  0  0
  190.9380  176.2380  143.6630 C   0  0  2  0  0  3  0  0  0  0  0  0
  195.5340  171.1900  138.5000 N   0  0  0  0  0  0  0  0  0  0  0  0
  194.7250  175.4380  143.2680 C   0  0  0  0  0  2  0  0  0  0  0  0
  193.2640  173.2970  140.3880 C   0  0  0  0  0  0  0  0  0  0  0  0
  193.4000  175.9330  143.7880 C   0  0  0  0  0  3  0  0  0  0  0  0
  197.0110  173.9760  142.3110 N   0  0  0  0  0  1  0  0  0  0  0  0
  196.7120  171.4440  139.1200 C   0  0  0  0  0  3  0  0  0  0  0  0
  189.1010  173.6840  140.9860 C   0  0  2  0  0  3  0  0  0  0  0  0
  187.7970  173.4130  141.6980 C   0  0  0  0  0  2  0  0  0  0  0  0
  191.0870  172.1450  140.7240 C   0  0  2  0  0  3  0  0  0  0  0  0
  189.6050  172.3570  140.4370 C   0  0  0  0  0  2  0  0  0  0  0  0
  195.6470  172.9350  140.6260 C   0  0  0  0  0  0  0  0  0  0  0  0
  195.7450  173.7710  141.6800 C   0  0  0  0  0  0  0  0  0  0  0  0
  189.0520  173.6780  142.5100 C   0  0  2  0  0  3  0  0  0  0  0  0
  194.4020  172.6920  139.9820 C   0  0  0  0  0  0  0  0  0  0  0  0
  193.3260  174.2460  141.5180 C   0  0  0  0  0  0  0  0  0  0  0  0
  189.0020  174.9920  142.9820 O   0  0  0  0  0  0  0  0  0  0  0  0
  189.9660  175.0890  143.9900 C   0  0  2  0  0  3  0  0  0  0  0  0
  191.9330  172.9690  139.7600 C   0  0  0  0  0  2  0  0  0  0  0  0
  192.2480  175.7130  143.1460 C   0  0  0  0  0  0  0  0  0  0  0  0
  191.1050  177.5360  144.8980 Cl  0  0  0  0  0  0  0  0  0  0  0  0
  189.3090  175.1680  145.3740 C   0  0  0  0  0  2  0  0  0  0  0  0
  188.0380  176.0060  145.3600 C   0  0  0  0  0  2  0  0  0  0  0  0
  187.9400  176.7930  146.6530 C   0  0  0  0  0  2  0  0  0  0  0  0
  186.8720  177.8620  146.5110 C   0  0  0  0  0  2  0  0  0  0  0  0
  185.8920  177.5050  145.4030 C   0  0  1  0  0  3  0  0  0  0  0  0
  184.5860  177.5690  145.8970 O   0  0  0  0  0  0  0  0  0  0  0  0
  184.6680  178.3770  147.0320 C   0  0  0  0  0  1  0  0  0  0  0  0
  186.0390  178.4760  144.2380 C   0  0  0  0  0  2  0  0  0  0  0  0
  184.9090  178.2980  143.2510 C   0  0  0  0  0  2  0  0  0  0  0  0
  186.5090  176.8170  142.1490 O   0  0  0  0  0  0  0  0  0  0  0  0
  186.1560  177.6010  139.8890 C   0  0  0  0  0  2  0  0  0  0  0  0
  187.1600  177.0620  140.9060 C   0  0  0  0  0  2  0  0  0  0  0  0
  184.0730  178.6540  140.4720 O   0  0  0  0  0  0  0  0  0  0  0  0
  185.3670  177.5520  142.0970 N   0  0  0  0  0  0  0  0  0  0  0  0
  185.0860  177.9820  140.7920 C   0  0  0  0  0  0  0  0  0  0  0  0
  191.4800  170.6780  140.6220 C   0  0  0  0  0  2  0  0  0  0  0  0
  191.6040  170.0310  141.9950 C   0  0  0  0  0  2  0  0  0  0  0  0
  191.9140  171.0560  142.9790 N   0  0  0  0  0  2  0  0  0  0  0  0
  195.0280  171.4620  145.0190 C   0  0  1  0  0  3  0  0  0  0  0  0
  194.4700  169.1090  145.8760 C   0  0  1  0  0  0  0  0  0  0  0  0
  195.6990  172.6000  145.4690 O   0  0  0  0  0  1  0  0  0  0  0  0
  195.5730  168.2380  145.3480 C   0  0  0  0  0  2  0  0  0  0  0  0
  196.5780  169.2810  147.2610 C   0  0  0  0  0  1  0  0  0  0  0  0
  193.4200  169.0280  144.7320 C   0  0  0  0  0  2  0  0  0  0  0  0
  194.8560  170.5260  146.1390 N   0  0  1  0  0  0  0  0  0  0  0  0
  193.3510  171.0250  143.2110 C   0  0  2  0  0  3  0  0  0  0  0  0
  193.8130  169.5760  143.3630 C   0  0  0  0  0  2  0  0  0  0  0  0
  195.9360  169.5590  145.9150 C   0  0  2  0  0  0  0  0  0  0  0  0
  193.6840  171.8740  144.4350 C   0  0  0  0  0  2  0  0  0  0  0  0
  1 24  1  0  0  0  0
  2 16  1  0  0  0  0
  3  7  1  0  0  0  0
  4 19  1  0  0  0  0
  5 22  1  0  0  0  0
  5 25  1  1  0  0  0
  6  4  2  0  0  0  0
  6 11  1  0  0  0  0
  7  9  1  0  0  0  0
  8 20  1  0  0  0  0
 11  2  2  0  0  0  0
 12 15  1  1  0  0  0
 12 13  1  0  0  0  0
 12 18  1  0  0  0  0
 14 41  1  6  0  0  0
 15 14  1  0  0  0  0
 16 17  2  0  0  0  0
 17  3  1  0  0  0  0
 17 10  1  0  0  0  0
 18 13  1  6  0  0  0
 18 21  1  0  0  0  0
 19  8  2  0  0  0  0
 19 16  1  0  0  0  0
 20  1  2  0  0  0  0
 20  3  1  0  0  0  0
 21 22  1  0  0  0  0
 22 26  1  1  0  0  0
 23  8  1  0  0  0  0
 23 14  1  0  0  0  0
 24  5  1  0  0  0  0
 24  9  2  0  0  0  0
 27 26  1  0  0  0  0
 27 28  1  0  0  0  0
 29 28  1  0  0  0  0
 30 33  1  6  0  0  0
 30 31  1  0  0  0  0
 30 29  1  0  0  0  0
 31 32  1  0  0  0  0
 34 33  1  0  0  0  0
 36 40  1  0  0  0  0
 36 37  1  0  0  0  0
 37 35  1  0  0  0  0
 38 40  2  0  0  0  0
 39 35  1  0  0  0  0
 39 34  1  0  0  0  0
 40 39  1  0  0  0  0
 41 42  1  0  0  0  0
 42 43  1  0  0  0  0
 43 51  1  0  0  0  0
 44 46  1  1  0  0  0
 44 50  1  0  0  0  0
 45 49  1  6  0  0  0
 45 53  1  0  0  0  0
 45 50  1  0  0  0  0
 47 45  1  0  0  0  0
 47 53  1  0  0  0  0
 51 52  1  0  0  0  0
 51 54  1  0  0  0  0
 52 49  1  0  0  0  0
 53 50  1  0  0  0  0
 53 48  1  0  0  0  0
 54 44  1  0  0  0  0
M  END
>  <MODEL>
5

>  <REMARK>
 VINA RESULT:      -6.7      2.385      5.814
  Name = 
  13 active torsions:
  status: ('A' for Active; 'I' for Inactive)
    1  A    between atoms: O_4  and  C_12
    2  A    between atoms: C_8  and  C_23
    3  A    between atoms: C_8  and  N_43
    4  A    between atoms: C_10  and  C_16
    5  A    between atoms: C_10  and  C_29
    6  A    between atoms: C_12  and  C_17
    7  A    between atoms: C_12  and  C_23
    8  A    between atoms: C_16  and  C_17
    9  A    between atoms: N_28  and  C_34
   10  A    between atoms: N_28  and  C_42
   11  A    between atoms: C_29  and  C_46
   12  A    between atoms: C_32  and  C_52
   13  A    between atoms: C_34  and  C_52
                            x       y       z     vdW  Elec       q    Type
                         _______ _______ _______ _____ _____    ______ ____

>  <TORSDO>
F 13

$$$$
=
 OpenBabel11042415483D

 54 62  0  0  1  0  0  0  0  0999 V2000
  191.9620  171.8680  141.1300 C   0  0  0  0  0  3  0  0  0  0  0  0
  192.0920  174.1420  146.1400 N   0  0  0  0  0  0  0  0  0  0  0  0
  193.2420  172.5680  143.0370 N   0  0  0  0  0  0  0  0  0  0  0  0
  189.6870  173.9470  144.8560 C   0  0  0  0  0  3  0  0  0  0  0  0
  193.0810  171.0170  139.0090 C   0  0  2  0  0  3  0  0  0  0  0  0
  189.7660  174.4930  146.0940 N   0  0  0  0  0  0  0  0  0  0  0  0
  194.4970  172.0320  142.4880 C   0  0  0  0  0  2  0  0  0  0  0  0
  190.7560  172.9150  142.9820 C   0  0  0  0  0  0  0  0  0  0  0  0
  194.3720  171.6030  141.0490 C   0  0  0  0  0  3  0  0  0  0  0  0
  194.4590  173.3190  145.0610 N   0  0  0  0  0  1  0  0  0  0  0  0
  190.9560  174.5870  146.7360 C   0  0  0  0  0  3  0  0  0  0  0  0
  189.1610  172.3150  139.1170 C   0  0  2  0  0  3  0  0  0  0  0  0
  188.9380  172.6710  137.6670 C   0  0  0  0  0  2  0  0  0  0  0  0
  189.4820  173.8770  141.0760 C   0  0  2  0  0  3  0  0  0  0  0  0
  188.5500  173.4260  139.9580 C   0  0  0  0  0  2  0  0  0  0  0  0
  192.0750  173.5840  144.9000 C   0  0  0  0  0  0  0  0  0  0  0  0
  193.2310  173.1660  144.3460 C   0  0  0  0  0  0  0  0  0  0  0  0
  190.3210  172.8280  138.2700 C   0  0  2  0  0  3  0  0  0  0  0  0
  190.8350  173.4650  144.2130 C   0  0  0  0  0  0  0  0  0  0  0  0
  191.9920  172.4120  142.3460 C   0  0  0  0  0  0  0  0  0  0  0  0
  191.1090  171.7500  137.8550 O   0  0  0  0  0  0  0  0  0  0  0  0
  192.4350  172.0990  138.1250 C   0  0  2  0  0  3  0  0  0  0  0  0
  189.4550  172.8710  142.2220 C   0  0  0  0  0  2  0  0  0  0  0  0
  193.1900  171.4720  140.4370 C   0  0  0  0  0  0  0  0  0  0  0  0
  194.5710  170.2330  138.3740 Cl  0  0  0  0  0  0  0  0  0  0  0  0
  193.1950  172.4210  136.8320 C   0  0  0  0  0  2  0  0  0  0  0  0
  193.5370  173.9010  136.7200 C   0  0  0  0  0  2  0  0  0  0  0  0
  193.7470  174.4750  138.1080 C   0  0  0  0  0  2  0  0  0  0  0  0
  195.2300  174.7090  138.3370 C   0  0  0  0  0  2  0  0  0  0  0  0
  195.5430  174.7890  139.8230 C   0  0  1  0  0  3  0  0  0  0  0  0
  196.6030  175.6760  140.0290 O   0  0  0  0  0  0  0  0  0  0  0  0
  197.5820  175.2900  139.1130 C   0  0  0  0  0  1  0  0  0  0  0  0
  194.3210  175.2740  140.5930 C   0  0  0  0  0  2  0  0  0  0  0  0
  194.7320  176.1870  141.7240 C   0  0  0  0  0  2  0  0  0  0  0  0
  192.4220  176.1520  142.5200 O   0  0  0  0  0  0  0  0  0  0  0  0
  192.8210  177.1620  144.6800 C   0  0  0  0  0  2  0  0  0  0  0  0
  191.8610  177.0180  143.5010 C   0  0  0  0  0  2  0  0  0  0  0  0
  195.1820  176.7240  144.5620 O   0  0  0  0  0  0  0  0  0  0  0  0
  193.7540  176.1320  142.7910 N   0  0  0  0  0  0  0  0  0  0  0  0
  194.0320  176.6560  144.0620 C   0  0  0  0  0  0  0  0  0  0  0  0
  189.1120  175.2580  141.6010 C   0  0  0  0  0  2  0  0  0  0  0  0
  187.8860  175.8200  140.8930 C   0  0  0  0  0  2  0  0  0  0  0  0
  187.3410  176.9150  141.6800 N   0  0  0  0  0  2  0  0  0  0  0  0
  187.9840  177.5400  145.3160 C   0  0  1  0  0  3  0  0  0  0  0  0
  185.5650  178.3940  145.3370 C   0  0  1  0  0  0  0  0  0  0  0  0
  189.1670  177.7520  146.0250 O   0  0  0  0  0  1  0  0  0  0  0  0
  184.8180  177.4090  146.1890 C   0  0  0  0  0  2  0  0  0  0  0  0
  185.8970  178.8140  147.8080 C   0  0  0  0  0  1  0  0  0  0  0  0
  185.4170  177.7720  143.9190 C   0  0  0  0  0  2  0  0  0  0  0  0
  187.0040  178.5700  145.6890 N   0  0  1  0  0  0  0  0  0  0  0  0
  187.4410  176.5420  143.0840 C   0  0  2  0  0  3  0  0  0  0  0  0
  186.0380  176.3990  143.6750 C   0  0  0  0  0  2  0  0  0  0  0  0
  186.1510  177.8650  146.6520 C   0  0  2  0  0  0  0  0  0  0  0  0
  188.2820  177.5780  143.8240 C   0  0  0  0  0  2  0  0  0  0  0  0
  1 20  2  0  0  0  0
  2 11  2  0  0  0  0
  3 17  1  0  0  0  0
  4  6  2  0  0  0  0
  5 25  1  6  0  0  0
  5 24  1  0  0  0  0
  6 11  1  0  0  0  0
  7  3  1  0  0  0  0
  8 19  2  0  0  0  0
  9  7  1  0  0  0  0
 12 13  1  6  0  0  0
 12 15  1  0  0  0  0
 14 41  1  1  0  0  0
 14 23  1  0  0  0  0
 15 14  1  0  0  0  0
 16  2  1  0  0  0  0
 17 16  2  0  0  0  0
 17 10  1  0  0  0  0
 18 13  1  6  0  0  0
 18 12  1  0  0  0  0
 19  4  1  0  0  0  0
 19 16  1  0  0  0  0
 20  8  1  0  0  0  0
 20  3  1  0  0  0  0
 21 22  1  0  0  0  0
 21 18  1  0  0  0  0
 22 26  1  6  0  0  0
 22  5  1  0  0  0  0
 23  8  1  0  0  0  0
 24  9  2  0  0  0  0
 24  1  1  0  0  0  0
 27 26  1  0  0  0  0
 27 28  1  0  0  0  0
 28 29  1  0  0  0  0
 30 29  1  6  0  0  0
 30 31  1  0  0  0  0
 30 33  1  0  0  0  0
 32 31  1  0  0  0  0
 33 34  1  0  0  0  0
 34 39  1  0  0  0  0
 35 39  1  0  0  0  0
 35 37  1  0  0  0  0
 37 36  1  0  0  0  0
 39 40  1  0  0  0  0
 40 38  2  0  0  0  0
 40 36  1  0  0  0  0
 42 41  1  0  0  0  0
 42 43  1  0  0  0  0
 43 51  1  0  0  0  0
 44 50  1  0  0  0  0
 44 46  1  1  0  0  0
 45 49  1  6  0  0  0
 45 50  1  0  0  0  0
 45 47  1  0  0  0  0
 45 53  1  0  0  0  0
 47 53  1  0  0  0  0
 50 53  1  0  0  0  0
 51 52  1  0  0  0  0
 51 54  1  0  0  0  0
 52 49  1  0  0  0  0
 53 48  1  0  0  0  0
 54 44  1  0  0  0  0
M  END
>  <MODEL>
6

>  <REMARK>
 VINA RESULT:      -6.7      2.762      8.297
  Name = 
  13 active torsions:
  status: ('A' for Active; 'I' for Inactive)
    1  A    between atoms: O_4  and  C_12
    2  A    between atoms: C_8  and  C_23
    3  A    between atoms: C_8  and  N_43
    4  A    between atoms: C_10  and  C_16
    5  A    between atoms: C_10  and  C_29
    6  A    between atoms: C_12  and  C_17
    7  A    between atoms: C_12  and  C_23
    8  A    between atoms: C_16  and  C_17
    9  A    between atoms: N_28  and  C_34
   10  A    between atoms: N_28  and  C_42
   11  A    between atoms: C_29  and  C_46
   12  A    between atoms: C_32  and  C_52
   13  A    between atoms: C_34  and  C_52
                            x       y       z     vdW  Elec       q    Type
                         _______ _______ _______ _____ _____    ______ ____

>  <TORSDO>
F 13

$$$$
=
 OpenBabel11042415483D

 54 62  0  0  1  0  0  0  0  0999 V2000
  193.5780  172.9360  143.4350 C   0  0  0  0  0  3  0  0  0  0  0  0
  191.6940  176.7300  146.9490 N   0  0  0  0  0  0  0  0  0  0  0  0
  193.9260  174.9980  144.6140 N   0  0  0  0  0  0  0  0  0  0  0  0
  190.0820  174.6120  146.3250 C   0  0  0  0  0  3  0  0  0  0  0  0
  195.2280  172.1020  141.6870 C   0  0  2  0  0  3  0  0  0  0  0  0
  189.6630  175.5670  147.1900 N   0  0  0  0  0  0  0  0  0  0  0  0
  195.3020  175.1420  144.1140 C   0  0  0  0  0  2  0  0  0  0  0  0
  191.7730  173.7340  144.8790 C   0  0  0  0  0  0  0  0  0  0  0  0
  195.6380  174.1510  143.0280 C   0  0  0  0  0  3  0  0  0  0  0  0
  194.1790  177.1090  145.8880 N   0  0  0  0  0  1  0  0  0  0  0  0
  190.4610  176.6160  147.5050 C   0  0  0  0  0  3  0  0  0  0  0  0
  191.3520  170.7020  141.9690 C   0  0  2  0  0  3  0  0  0  0  0  0
  191.1340  170.1790  140.5690 C   0  0  0  0  0  2  0  0  0  0  0  0
  190.4160  172.8010  143.0160 C   0  0  2  0  0  3  0  0  0  0  0  0
  190.0950  171.4570  142.3750 C   0  0  0  0  0  2  0  0  0  0  0  0
  192.1690  175.8030  146.0740 C   0  0  0  0  0  0  0  0  0  0  0  0
  193.3960  175.9660  145.5390 C   0  0  0  0  0  0  0  0  0  0  0  0
  192.0500  171.3690  140.7890 C   0  0  2  0  0  3  0  0  0  0  0  0
  191.3520  174.6880  145.7380 C   0  0  0  0  0  0  0  0  0  0  0  0
  193.1240  173.8500  144.2910 C   0  0  0  0  0  0  0  0  0  0  0  0
  193.3730  170.9260  140.7170 O   0  0  0  0  0  0  0  0  0  0  0  0
  194.1670  172.0680  140.5700 C   0  0  2  0  0  3  0  0  0  0  0  0
  190.8720  172.6020  144.4580 C   0  0  0  0  0  2  0  0  0  0  0  0
  194.8650  173.0960  142.7540 C   0  0  0  0  0  0  0  0  0  0  0  0
  196.9490  172.1800  141.1680 Cl  0  0  0  0  0  0  0  0  0  0  0  0
  194.7210  172.1750  139.1450 C   0  0  0  0  0  2  0  0  0  0  0  0
  193.9840  173.2210  138.3190 C   0  0  0  0  0  2  0  0  0  0  0  0
  193.4700  172.5840  137.0420 C   0  0  0  0  0  2  0  0  0  0  0  0
  193.0930  173.6730  136.0530 C   0  0  0  0  0  2  0  0  0  0  0  0
  192.3220  174.7880  136.7430 C   0  0  1  0  0  3  0  0  0  0  0  0
  193.0920  175.9540  136.7480 O   0  0  0  0  0  0  0  0  0  0  0  0
  192.6640  176.6760  135.6340 C   0  0  0  0  0  1  0  0  0  0  0  0
  191.0120  175.0520  136.0100 C   0  0  0  0  0  2  0  0  0  0  0  0
  190.3150  173.7530  135.6820 C   0  0  0  0  0  2  0  0  0  0  0  0
  188.5130  174.4260  137.1880 O   0  0  0  0  0  0  0  0  0  0  0  0
  188.8610  172.7250  138.8710 C   0  0  0  0  0  2  0  0  0  0  0  0
  188.4510  174.1690  138.5870 C   0  0  0  0  0  2  0  0  0  0  0  0
  190.1820  171.3770  137.3810 O   0  0  0  0  0  0  0  0  0  0  0  0
  189.3180  173.4520  136.6880 N   0  0  0  0  0  0  0  0  0  0  0  0
  189.5040  172.4100  137.6090 C   0  0  0  0  0  0  0  0  0  0  0  0
  189.2220  173.7450  142.9850 C   0  0  0  0  0  2  0  0  0  0  0  0
  189.4570  174.9200  142.0450 C   0  0  0  0  0  2  0  0  0  0  0  0
  190.0020  176.0350  142.8030 N   0  0  0  0  0  2  0  0  0  0  0  0
  186.8790  177.8100  141.7430 C   0  0  1  0  0  3  0  0  0  0  0  0
  186.1470  177.4420  144.1730 C   0  0  1  0  0  0  0  0  0  0  0  0
  186.2840  177.9710  140.4910 O   0  0  0  0  0  1  0  0  0  0  0  0
  186.0860  178.8190  144.7680 C   0  0  0  0  0  2  0  0  0  0  0  0
  184.0210  178.6640  143.5550 C   0  0  0  0  0  1  0  0  0  0  0  0
  187.6150  177.0270  144.4700 C   0  0  0  0  0  2  0  0  0  0  0  0
  185.8640  177.3730  142.7100 N   0  0  1  0  0  0  0  0  0  0  0  0
  189.1840  177.2050  142.5160 C   0  0  2  0  0  3  0  0  0  0  0  0
  188.7310  177.8470  143.8280 C   0  0  0  0  0  2  0  0  0  0  0  0
  185.5300  178.6190  143.4080 C   0  0  2  0  0  0  0  0  0  0  0  0
  188.0080  176.7950  141.6320 C   0  0  0  0  0  2  0  0  0  0  0  0
  1 20  2  0  0  0  0
  2 11  2  0  0  0  0
  3 17  1  0  0  0  0
  4  6  2  0  0  0  0
  5 25  1  6  0  0  0
  5 24  1  0  0  0  0
  6 11  1  0  0  0  0
  7  3  1  0  0  0  0
  8 19  2  0  0  0  0
  9  7  1  0  0  0  0
 12 13  1  6  0  0  0
 12 15  1  0  0  0  0
 14 41  1  1  0  0  0
 14 23  1  0  0  0  0
 15 14  1  0  0  0  0
 16  2  1  0  0  0  0
 17 10  1  0  0  0  0
 17 16  2  0  0  0  0
 18 13  1  6  0  0  0
 18 12  1  0  0  0  0
 19 16  1  0  0  0  0
 19  4  1  0  0  0  0
 20  3  1  0  0  0  0
 20  8  1  0  0  0  0
 21 18  1  0  0  0  0
 22 26  1  6  0  0  0
 22 21  1  0  0  0  0
 22  5  1  0  0  0  0
 23  8  1  0  0  0  0
 24  9  2  0  0  0  0
 24  1  1  0  0  0  0
 27 26  1  0  0  0  0
 28 27  1  0  0  0  0
 29 30  1  0  0  0  0
 29 28  1  0  0  0  0
 30 33  1  6  0  0  0
 30 31  1  0  0  0  0
 32 31  1  0  0  0  0
 34 33  1  0  0  0  0
 34 39  1  0  0  0  0
 35 37  1  0  0  0  0
 37 36  1  0  0  0  0
 38 40  2  0  0  0  0
 39 35  1  0  0  0  0
 39 40  1  0  0  0  0
 40 36  1  0  0  0  0
 42 43  1  0  0  0  0
 42 41  1  0  0  0  0
 44 46  1  6  0  0  0
 44 50  1  0  0  0  0
 45 49  1  6  0  0  0
 45 47  1  0  0  0  0
 50 53  1  0  0  0  0
 50 45  1  0  0  0  0
 51 43  1  0  0  0  0
 51 52  1  0  0  0  0
 52 49  1  0  0  0  0
 53 48  1  0  0  0  0
 53 45  1  0  0  0  0
 53 47  1  0  0  0  0
 54 44  1  0  0  0  0
 54 51  1  0  0  0  0
M  END
>  <MODEL>
7

>  <REMARK>
 VINA RESULT:      -6.6      3.061      7.943
  Name = 
  13 active torsions:
  status: ('A' for Active; 'I' for Inactive)
    1  A    between atoms: O_4  and  C_12
    2  A    between atoms: C_8  and  C_23
    3  A    between atoms: C_8  and  N_43
    4  A    between atoms: C_10  and  C_16
    5  A    between atoms: C_10  and  C_29
    6  A    between atoms: C_12  and  C_17
    7  A    between atoms: C_12  and  C_23
    8  A    between atoms: C_16  and  C_17
    9  A    between atoms: N_28  and  C_34
   10  A    between atoms: N_28  and  C_42
   11  A    between atoms: C_29  and  C_46
   12  A    between atoms: C_32  and  C_52
   13  A    between atoms: C_34  and  C_52
                            x       y       z     vdW  Elec       q    Type
                         _______ _______ _______ _____ _____    ______ ____

>  <TORSDO>
F 13

$$$$
=
 OpenBabel11042415483D

 54 62  0  0  1  0  0  0  0  0999 V2000
  194.1260  173.2550  143.6590 C   0  0  0  0  0  3  0  0  0  0  0  0
  191.8310  176.7390  147.2490 N   0  0  0  0  0  0  0  0  0  0  0  0
  194.2950  175.2530  144.9810 N   0  0  0  0  0  0  0  0  0  0  0  0
  190.3650  174.5980  146.3870 C   0  0  0  0  0  3  0  0  0  0  0  0
  195.9280  172.6030  141.9860 C   0  0  2  0  0  3  0  0  0  0  0  0
  189.8440  175.4780  147.2750 N   0  0  0  0  0  0  0  0  0  0  0  0
  195.6940  175.4850  144.5890 C   0  0  0  0  0  2  0  0  0  0  0  0
  192.1910  173.8840  145.0160 C   0  0  0  0  0  0  0  0  0  0  0  0
  196.1490  174.5800  143.4730 C   0  0  0  0  0  3  0  0  0  0  0  0
  194.3620  177.2880  146.3930 N   0  0  0  0  0  1  0  0  0  0  0  0
  190.5690  176.5380  147.7090 C   0  0  0  0  0  3  0  0  0  0  0  0
  192.1120  171.0250  141.9080 C   0  0  2  0  0  3  0  0  0  0  0  0
  192.0140  170.5830  140.4680 C   0  0  0  0  0  2  0  0  0  0  0  0
  191.0090  173.0130  143.0090 C   0  0  2  0  0  3  0  0  0  0  0  0
  190.7960  171.6990  142.2680 C   0  0  0  0  0  2  0  0  0  0  0  0
  192.4060  175.8890  146.3560 C   0  0  0  0  0  0  0  0  0  0  0  0
  193.6590  176.1370  145.9210 C   0  0  0  0  0  0  0  0  0  0  0  0
  192.8570  171.7940  140.8230 C   0  0  2  0  0  3  0  0  0  0  0  0
  191.6680  174.7640  145.8980 C   0  0  0  0  0  0  0  0  0  0  0  0
  193.5720  174.0940  144.5340 C   0  0  0  0  0  0  0  0  0  0  0  0
  194.2010  171.4130  140.8180 O   0  0  0  0  0  0  0  0  0  0  0  0
  194.9500  172.5940  140.7970 C   0  0  2  0  0  3  0  0  0  0  0  0
  191.3740  172.7430  144.4650 C   0  0  0  0  0  2  0  0  0  0  0  0
  195.4470  173.5120  143.0820 C   0  0  0  0  0  0  0  0  0  0  0  0
  197.6750  172.7860  141.5970 Cl  0  0  0  0  0  0  0  0  0  0  0  0
  195.5940  172.8140  139.4230 C   0  0  0  0  0  2  0  0  0  0  0  0
  195.6140  174.2840  139.0270 C   0  0  0  0  0  2  0  0  0  0  0  0
  194.1920  174.7730  138.8350 C   0  0  0  0  0  2  0  0  0  0  0  0
  193.8600  174.7840  137.3530 C   0  0  0  0  0  2  0  0  0  0  0  0
  192.3550  174.7150  137.1340 C   0  0  1  0  0  3  0  0  0  0  0  0
  192.0770  174.8330  135.7700 O   0  0  0  0  0  0  0  0  0  0  0  0
  192.0820  176.2060  135.5170 C   0  0  0  0  0  1  0  0  0  0  0  0
  191.8090  173.3890  137.6490 C   0  0  0  0  0  2  0  0  0  0  0  0
  190.7080  172.8810  136.7480 C   0  0  0  0  0  2  0  0  0  0  0  0
  188.8400  174.1880  137.6260 O   0  0  0  0  0  0  0  0  0  0  0  0
  188.1900  172.6610  139.3840 C   0  0  0  0  0  2  0  0  0  0  0  0
  188.3180  174.1200  138.9490 C   0  0  0  0  0  2  0  0  0  0  0  0
  189.4160  170.8430  138.3960 O   0  0  0  0  0  0  0  0  0  0  0  0
  189.4280  172.9810  137.4180 N   0  0  0  0  0  0  0  0  0  0  0  0
  189.0350  172.0400  138.3820 C   0  0  0  0  0  0  0  0  0  0  0  0
  189.7770  173.9060  142.9480 C   0  0  0  0  0  2  0  0  0  0  0  0
  189.9890  175.0950  142.0210 C   0  0  0  0  0  2  0  0  0  0  0  0
  189.7680  176.3250  142.7650 N   0  0  0  0  0  2  0  0  0  0  0  0
  187.0360  177.4520  145.0650 C   0  0  1  0  0  3  0  0  0  0  0  0
  186.1190  178.6380  142.9840 C   0  0  1  0  0  0  0  0  0  0  0  0
  186.9970  177.6060  146.4520 O   0  0  0  0  0  1  0  0  0  0  0  0
  184.8320  177.9290  142.6740 C   0  0  0  0  0  2  0  0  0  0  0  0
  184.2150  179.4140  144.4550 C   0  0  0  0  0  1  0  0  0  0  0  0
  187.1480  177.8150  142.1580 C   0  0  0  0  0  2  0  0  0  0  0  0
  186.4960  178.6600  144.4270 N   0  0  1  0  0  0  0  0  0  0  0  0
  188.5140  176.1820  143.4910 C   0  0  2  0  0  3  0  0  0  0  0  0
  187.3420  176.3460  142.5230 C   0  0  0  0  0  2  0  0  0  0  0  0
  185.1270  178.2590  144.0910 C   0  0  2  0  0  0  0  0  0  0  0  0
  188.4730  177.1960  144.6320 C   0  0  0  0  0  2  0  0  0  0  0  0
  1 20  2  0  0  0  0
  2 11  2  0  0  0  0
  3 17  1  0  0  0  0
  4  6  2  0  0  0  0
  5 25  1  6  0  0  0
  5 24  1  0  0  0  0
  6 11  1  0  0  0  0
  7  3  1  0  0  0  0
  8 19  2  0  0  0  0
  9  7  1  0  0  0  0
 12 13  1  6  0  0  0
 12 15  1  0  0  0  0
 14 41  1  1  0  0  0
 14 23  1  0  0  0  0
 15 14  1  0  0  0  0
 16  2  1  0  0  0  0
 17 16  2  0  0  0  0
 17 10  1  0  0  0  0
 18 13  1  6  0  0  0
 18 12  1  0  0  0  0
 19 16  1  0  0  0  0
 19  4  1  0  0  0  0
 20  3  1  0  0  0  0
 20  8  1  0  0  0  0
 21 18  1  0  0  0  0
 22 26  1  6  0  0  0
 22 21  1  0  0  0  0
 22  5  1  0  0  0  0
 23  8  1  0  0  0  0
 24  9  2  0  0  0  0
 24  1  1  0  0  0  0
 27 26  1  0  0  0  0
 28 27  1  0  0  0  0
 29 28  1  0  0  0  0
 30 29  1  6  0  0  0
 30 33  1  0  0  0  0
 31 30  1  0  0  0  0
 32 31  1  0  0  0  0
 34 39  1  0  0  0  0
 34 33  1  0  0  0  0
 35 37  1  0  0  0  0
 37 36  1  0  0  0  0
 39 35  1  0  0  0  0
 39 40  1  0  0  0  0
 40 38  2  0  0  0  0
 40 36  1  0  0  0  0
 42 43  1  0  0  0  0
 42 41  1  0  0  0  0
 43 51  1  0  0  0  0
 44 46  1  1  0  0  0
 45 49  1  1  0  0  0
 45 53  1  0  0  0  0
 45 50  1  0  0  0  0
 47 45  1  0  0  0  0
 47 53  1  0  0  0  0
 49 52  1  0  0  0  0
 50 44  1  0  0  0  0
 51 54  1  0  0  0  0
 52 51  1  0  0  0  0
 53 50  1  0  0  0  0
 53 48  1  0  0  0  0
 54 44  1  0  0  0  0
M  END
>  <MODEL>
8

>  <REMARK>
 VINA RESULT:      -6.6      2.954      7.874
  Name = 
  13 active torsions:
  status: ('A' for Active; 'I' for Inactive)
    1  A    between atoms: O_4  and  C_12
    2  A    between atoms: C_8  and  C_23
    3  A    between atoms: C_8  and  N_43
    4  A    between atoms: C_10  and  C_16
    5  A    between atoms: C_10  and  C_29
    6  A    between atoms: C_12  and  C_17
    7  A    between atoms: C_12  and  C_23
    8  A    between atoms: C_16  and  C_17
    9  A    between atoms: N_28  and  C_34
   10  A    between atoms: N_28  and  C_42
   11  A    between atoms: C_29  and  C_46
   12  A    between atoms: C_32  and  C_52
   13  A    between atoms: C_34  and  C_52
                            x       y       z     vdW  Elec       q    Type
                         _______ _______ _______ _____ _____    ______ ____

>  <TORSDO>
F 13

$$$$
=
 OpenBabel11042415483D

 54 62  0  0  1  0  0  0  0  0999 V2000
  192.8640  174.9350  141.3680 C   0  0  0  0  0  3  0  0  0  0  0  0
  196.2380  172.4710  137.7850 N   0  0  0  0  0  0  0  0  0  0  0  0
  195.0870  174.2410  140.7800 N   0  0  0  0  0  0  0  0  0  0  0  0
  193.5670  172.5630  137.2120 C   0  0  0  0  0  3  0  0  0  0  0  0
  192.3370  175.9430  143.6440 C   0  0  2  0  0  3  0  0  0  0  0  0
  194.4360  171.9730  136.3570 N   0  0  0  0  0  0  0  0  0  0  0  0
  195.6820  174.8780  141.9640 C   0  0  0  0  0  2  0  0  0  0  0  0
  193.1560  173.7370  139.2550 C   0  0  0  0  0  0  0  0  0  0  0  0
  194.6500  175.3570  142.9540 C   0  0  0  0  0  3  0  0  0  0  0  0
  197.3370  173.4870  140.0660 N   0  0  0  0  0  1  0  0  0  0  0  0
  195.7620  171.9290  136.6350 C   0  0  0  0  0  3  0  0  0  0  0  0
  189.4360  174.3930  141.1450 C   0  0  2  0  0  3  0  0  0  0  0  0
  188.3400  174.0830  142.1370 C   0  0  0  0  0  2  0  0  0  0  0  0
  190.9770  172.7750  139.9660 C   0  0  2  0  0  3  0  0  0  0  0  0
  189.5340  173.2110  140.1910 C   0  0  0  0  0  2  0  0  0  0  0  0
  195.4140  173.0760  138.6820 C   0  0  0  0  0  0  0  0  0  0  0  0
  195.9340  173.5900  139.8150 C   0  0  0  0  0  0  0  0  0  0  0  0
  189.7910  173.9910  142.5730 C   0  0  2  0  0  3  0  0  0  0  0  0
  194.0210  173.1440  138.4040 C   0  0  0  0  0  0  0  0  0  0  0  0
  193.6810  174.3440  140.4960 C   0  0  0  0  0  0  0  0  0  0  0  0
  190.1020  175.1320  143.3160 O   0  0  0  0  0  0  0  0  0  0  0  0
  191.2990  174.8580  143.9850 C   0  0  2  0  0  3  0  0  0  0  0  0
  191.6710  173.7300  139.0000 C   0  0  0  0  0  2  0  0  0  0  0  0
  193.3500  175.4370  142.6550 C   0  0  0  0  0  0  0  0  0  0  0  0
  193.0520  176.8450  145.0260 Cl  0  0  0  0  0  0  0  0  0  0  0  0
  191.0560  174.6390  145.4830 C   0  0  0  0  0  2  0  0  0  0  0  0
  189.6930  174.0180  145.7590 C   0  0  0  0  0  2  0  0  0  0  0  0
  189.0540  174.7140  146.9450 C   0  0  0  0  0  2  0  0  0  0  0  0
  189.2010  176.2170  146.7850 C   0  0  0  0  0  2  0  0  0  0  0  0
  187.8730  176.8530  146.4020 C   0  0  1  0  0  3  0  0  0  0  0  0
  187.6010  177.9190  147.2640 O   0  0  0  0  0  0  0  0  0  0  0  0
  186.2520  177.7830  147.5940 C   0  0  0  0  0  1  0  0  0  0  0  0
  187.9280  177.3640  144.9680 C   0  0  0  0  0  2  0  0  0  0  0  0
  186.8570  176.7090  144.1270 C   0  0  0  0  0  2  0  0  0  0  0  0
  184.9070  178.1130  143.6890 O   0  0  0  0  0  0  0  0  0  0  0  0
  185.1810  178.2890  141.2930 C   0  0  0  0  0  2  0  0  0  0  0  0
  184.1970  178.2000  142.4580 C   0  0  0  0  0  2  0  0  0  0  0  0
  187.4710  177.5630  141.4000 O   0  0  0  0  0  0  0  0  0  0  0  0
  186.1570  177.7050  143.3440 N   0  0  0  0  0  0  0  0  0  0  0  0
  186.3860  177.8440  141.9670 C   0  0  0  0  0  0  0  0  0  0  0  0
  191.0630  171.3530  139.4280 C   0  0  0  0  0  2  0  0  0  0  0  0
  192.1140  170.5350  140.1660 C   0  0  0  0  0  2  0  0  0  0  0  0
  191.8710  170.6230  141.5960 N   0  0  0  0  0  2  0  0  0  0  0  0
  195.3990  170.7770  142.8420 C   0  0  1  0  0  3  0  0  0  0  0  0
  194.3820  172.0770  144.8060 C   0  0  1  0  0  0  0  0  0  0  0  0
  196.6220  170.6900  142.1760 O   0  0  0  0  0  1  0  0  0  0  0  0
  194.5680  171.1810  145.9960 C   0  0  0  0  0  2  0  0  0  0  0  0
  196.7270  172.1960  145.7410 C   0  0  0  0  0  1  0  0  0  0  0  0
  192.9890  171.6280  144.2790 C   0  0  0  0  0  2  0  0  0  0  0  0
  195.4190  171.9380  143.7430 N   0  0  1  0  0  0  0  0  0  0  0  0
  193.0510  170.1110  142.2780 C   0  0  2  0  0  3  0  0  0  0  0  0
  192.8430  170.1890  143.7900 C   0  0  0  0  0  2  0  0  0  0  0  0
  195.6980  171.3270  145.0460 C   0  0  2  0  0  0  0  0  0  0  0  0
  194.2790  170.8930  141.8180 C   0  0  0  0  0  2  0  0  0  0  0  0
  1 24  1  0  0  0  0
  2 16  1  0  0  0  0
  3  7  1  0  0  0  0
  4 19  1  0  0  0  0
  5 22  1  0  0  0  0
  5 25  1  1  0  0  0
  6 11  1  0  0  0  0
  6  4  2  0  0  0  0
  7  9  1  0  0  0  0
  8 20  1  0  0  0  0
 11  2  2  0  0  0  0
 12 15  1  6  0  0  0
 12 13  1  0  0  0  0
 12 18  1  0  0  0  0
 14 41  1  6  0  0  0
 14 15  1  0  0  0  0
 16 17  2  0  0  0  0
 17 10  1  0  0  0  0
 17  3  1  0  0  0  0
 18 13  1  1  0  0  0
 18 21  1  0  0  0  0
 19 16  1  0  0  0  0
 19  8  2  0  0  0  0
 20  3  1  0  0  0  0
 20  1  2  0  0  0  0
 21 22  1  0  0  0  0
 22 26  1  1  0  0  0
 23  8  1  0  0  0  0
 23 14  1  0  0  0  0
 24  9  2  0  0  0  0
 24  5  1  0  0  0  0
 26 27  1  0  0  0  0
 27 28  1  0  0  0  0
 29 28  1  0  0  0  0
 30 33  1  6  0  0  0
 30 29  1  0  0  0  0
 30 31  1  0  0  0  0
 31 32  1  0  0  0  0
 34 33  1  0  0  0  0
 36 40  1  0  0  0  0
 36 37  1  0  0  0  0
 37 35  1  0  0  0  0
 38 40  2  0  0  0  0
 39 35  1  0  0  0  0
 39 34  1  0  0  0  0
 40 39  1  0  0  0  0
 41 42  1  0  0  0  0
 42 43  1  0  0  0  0
 43 51  1  0  0  0  0
 44 46  1  6  0  0  0
 44 50  1  0  0  0  0
 45 49  1  6  0  0  0
 45 53  1  0  0  0  0
 45 47  1  0  0  0  0
 50 45  1  0  0  0  0
 50 53  1  0  0  0  0
 51 52  1  0  0  0  0
 52 49  1  0  0  0  0
 53 48  1  0  0  0  0
 53 47  1  0  0  0  0
 54 51  1  0  0  0  0
 54 44  1  0  0  0  0
M  END
>  <MODEL>
9

>  <REMARK>
 VINA RESULT:      -6.5      2.195      5.670
  Name = 
  13 active torsions:
  status: ('A' for Active; 'I' for Inactive)
    1  A    between atoms: O_4  and  C_12
    2  A    between atoms: C_8  and  C_23
    3  A    between atoms: C_8  and  N_43
    4  A    between atoms: C_10  and  C_16
    5  A    between atoms: C_10  and  C_29
    6  A    between atoms: C_12  and  C_17
    7  A    between atoms: C_12  and  C_23
    8  A    between atoms: C_16  and  C_17
    9  A    between atoms: N_28  and  C_34
   10  A    between atoms: N_28  and  C_42
   11  A    between atoms: C_29  and  C_46
   12  A    between atoms: C_32  and  C_52
   13  A    between atoms: C_34  and  C_52
                            x       y       z     vdW  Elec       q    Type
                         _______ _______ _______ _____ _____    ______ ____

>  <TORSDO>
F 13

$$$$
