=
 OpenBabel11042417103D

 38 40  0  0  1  0  0  0  0  0999 V2000
  188.6800  177.2610  142.8570 C   0  0  0  0  0  0  0  0  0  0  0  0
  186.9360  175.8790  142.8630 C   0  0  0  0  0  3  0  0  0  0  0  0
  187.5430  177.9750  143.1790 C   0  0  0  0  0  3  0  0  0  0  0  0
  188.3000  175.9520  142.6660 C   0  0  0  0  0  0  0  0  0  0  0  0
  186.5020  177.1180  143.1660 N   0  0  0  0  0  0  0  0  0  0  0  0
  190.0650  177.8030  142.7870 C   0  0  0  0  0  2  0  0  0  0  0  0
  190.6610  177.8740  144.1800 C   0  0  0  0  0  2  0  0  0  0  0  0
  194.4800  175.5400  146.1970 C   0  0  0  0  0  3  0  0  0  0  0  0
  194.8990  174.8280  143.4820 C   0  0  0  0  0  3  0  0  0  0  0  0
  195.7770  174.3770  144.4810 C   0  0  0  0  0  3  0  0  0  0  0  0
  192.5320  176.7680  145.4180 N   0  0  0  0  0  0  0  0  0  0  0  0
  192.6270  176.3050  142.9180 S   0  0  0  0  0  0  0  0  0  0  0  0
  195.5690  174.7290  145.8300 C   0  0  0  0  0  3  0  0  0  0  0  0
  193.6140  175.9820  145.1970 C   0  0  0  0  0  0  0  0  0  0  0  0
  193.8270  175.6250  143.8720 C   0  0  0  0  0  0  0  0  0  0  0  0
  191.8850  177.0320  144.2560 C   0  0  0  0  0  0  0  0  0  0  0  0
  189.1610  174.9020  142.3350 O   0  0  0  0  0  0  0  0  0  0  0  0
  188.7500  173.5390  142.3470 C   0  0  0  0  0  2  0  0  0  0  0  0
  189.1080  172.8870  141.0970 N   0  0  0  0  0  2  0  0  0  0  0  0
  190.3650  172.1880  141.3090 C   0  0  0  0  0  2  0  0  0  0  0  0
  190.1850  171.1300  142.3810 C   0  0  0  0  0  2  0  0  0  0  0  0
  190.9310  169.9370  142.0220 N   0  0  0  0  0  2  0  0  0  0  0  0
  192.3390  170.2450  142.2040 C   0  0  0  0  0  2  0  0  0  0  0  0
  192.6250  170.4810  143.6780 C   0  0  1  0  0  3  0  0  0  0  0  0
  193.3990  169.3350  144.2410 C   0  0  0  0  0  0  0  0  0  0  0  0
  192.7320  168.1810  144.6320 O   0  0  0  0  0  1  0  0  0  0  0  0
  194.6530  169.4010  144.3550 O   0  0  0  0  0  0  0  0  0  0  0  0
  193.3460  171.6670  143.8430 O   0  0  0  0  0  0  0  0  0  0  0  0
  192.7740  172.2670  144.8680 O   0  0  0  0  0  1  0  0  0  0  0  0
  185.1210  177.4680  143.4550 C   0  0  0  0  0  2  0  0  0  0  0  0
  184.9720  178.9730  143.6530 C   0  0  0  0  0  2  0  0  0  0  0  0
  184.4920  179.3100  145.0570 C   0  0  0  0  0  2  0  0  0  0  0  0
  184.4200  178.0560  145.9140 C   0  0  0  0  0  2  0  0  0  0  0  0
  185.1010  178.2940  147.2530 C   0  0  0  0  0  2  0  0  0  0  0  0
  186.5570  177.9600  147.1870 C   0  0  0  0  0  3  0  0  0  0  0  0
  186.9760  176.8050  146.6890 C   0  0  0  0  0  3  0  0  0  0  0  0
  188.8240  175.2610  146.6350 C   0  0  0  0  0  2  0  0  0  0  0  0
  188.4030  176.5160  146.6230 C   0  0  0  0  0  3  0  0  0  0  0  0
  1  3  2  0  0  0  0
  2  5  1  0  0  0  0
  4  1  1  0  0  0  0
  4  2  2  0  0  0  0
  5  3  1  0  0  0  0
  5 30  1  0  0  0  0
  6  1  1  0  0  0  0
  6  7  1  0  0  0  0
  7 16  1  0  0  0  0
  9 15  2  0  0  0  0
  9 10  1  0  0  0  0
 10 13  2  0  0  0  0
 12 15  1  0  0  0  0
 12 16  1  0  0  0  0
 13  8  1  0  0  0  0
 14 11  1  0  0  0  0
 14  8  2  0  0  0  0
 15 14  1  0  0  0  0
 16 11  2  0  0  0  0
 17 18  1  0  0  0  0
 17  4  1  0  0  0  0
 19 20  1  0  0  0  0
 19 18  1  0  0  0  0
 20 21  1  0  0  0  0
 22 23  1  0  0  0  0
 22 21  1  0  0  0  0
 24 23  1  6  0  0  0
 24 28  1  0  0  0  0
 24 25  1  0  0  0  0
 25 27  2  0  0  0  0
 25 26  1  0  0  0  0
 28 29  1  0  0  0  0
 30 31  1  0  0  0  0
 31 32  1  0  0  0  0
 32 33  1  0  0  0  0
 33 34  1  0  0  0  0
 35 34  1  0  0  0  0
 36 35  2  0  0  0  0
 38 37  2  0  0  0  0
 38 36  1  0  0  0  0
M  END
>  <MODEL>
1

>  <REMARK>
 VINA RESULT:      -5.7      0.000      0.000
  Name = 
  20 active torsions:
  status: ('A' for Active; 'I' for Inactive)
    1  A    between atoms: C_2  and  C_20
    2  A    between atoms: C_4  and  C_32
    3  A    between atoms: C_4  and  C_36
    4  A    between atoms: C_5  and  C_32
    5  A    between atoms: C_7  and  C_13
    6  A    between atoms: N_8  and  C_24
    7  A    between atoms: N_8  and  C_37
    8  A    between atoms: C_10  and  C_11
    9  A    between atoms: C_10  and  N_38
   10  A    between atoms: C_11  and  C_33
   11  A    between atoms: C_13  and  C_19
   12  A    between atoms: C_14  and  C_35
   13  A    between atoms: N_15  and  C_16
   14  A    between atoms: N_15  and  C_18
   15  A    between atoms: C_16  and  C_24
   16  A    between atoms: C_18  and  O_30
   17  A    between atoms: C_19  and  C_33
   18  A    between atoms: C_20  and  O_21
   19  A    between atoms: C_20  and  C_37
   20  A    between atoms: C_28  and  O_30
                            x       y       z     vdW  Elec       q    Type
                         _______ _______ _______ _____ _____    ______ ____

>  <TORSDO>
F 20

$$$$
=
 OpenBabel11042417103D

 38 40  0  0  1  0  0  0  0  0999 V2000
  189.1980  177.5260  144.4560 C   0  0  0  0  0  0  0  0  0  0  0  0
  189.0430  177.7410  142.2460 C   0  0  0  0  0  3  0  0  0  0  0  0
  187.8750  177.4020  144.0850 C   0  0  0  0  0  3  0  0  0  0  0  0
  189.9270  177.7310  143.3060 C   0  0  0  0  0  0  0  0  0  0  0  0
  187.8080  177.5460  142.7460 N   0  0  0  0  0  0  0  0  0  0  0  0
  189.7370  177.4020  145.8380 C   0  0  0  0  0  2  0  0  0  0  0  0
  189.8760  175.9380  146.2080 C   0  0  0  0  0  2  0  0  0  0  0  0
  193.7270  173.0030  145.3960 C   0  0  0  0  0  3  0  0  0  0  0  0
  195.1100  175.3600  146.1620 C   0  0  0  0  0  3  0  0  0  0  0  0
  195.8190  174.1970  145.8220 C   0  0  0  0  0  3  0  0  0  0  0  0
  191.6810  174.2720  145.7360 N   0  0  0  0  0  0  0  0  0  0  0  0
  192.6170  176.5280  146.4520 S   0  0  0  0  0  0  0  0  0  0  0  0
  195.1330  173.0260  145.4400 C   0  0  0  0  0  3  0  0  0  0  0  0
  193.0330  174.1640  145.7360 C   0  0  0  0  0  0  0  0  0  0  0  0
  193.7210  175.3130  146.1060 C   0  0  0  0  0  0  0  0  0  0  0  0
  191.3010  175.5190  146.1090 C   0  0  0  0  0  0  0  0  0  0  0  0
  191.3140  177.8960  143.2480 O   0  0  0  0  0  0  0  0  0  0  0  0
  192.1890  176.8770  142.7760 C   0  0  0  0  0  2  0  0  0  0  0  0
  191.4470  175.6560  142.5010 N   0  0  0  0  0  2  0  0  0  0  0  0
  192.4100  174.6220  142.1610 C   0  0  0  0  0  2  0  0  0  0  0  0
  192.0600  174.0210  140.8140 C   0  0  0  0  0  2  0  0  0  0  0  0
  191.7560  172.6100  140.9700 N   0  0  0  0  0  2  0  0  0  0  0  0
  191.8980  172.2980  142.3820 C   0  0  0  0  0  2  0  0  0  0  0  0
  190.7630  171.3880  142.8220 C   0  0  1  0  0  3  0  0  0  0  0  0
  189.7070  172.1840  143.5160 C   0  0  0  0  0  0  0  0  0  0  0  0
  189.4610  171.9720  144.8650 O   0  0  0  0  0  1  0  0  0  0  0  0
  189.0440  173.0550  142.8880 O   0  0  0  0  0  0  0  0  0  0  0  0
  190.2150  170.7340  141.7160 O   0  0  0  0  0  0  0  0  0  0  0  0
  190.6410  169.4910  141.8170 O   0  0  0  0  0  1  0  0  0  0  0  0
  186.5910  177.4800  141.9530 C   0  0  0  0  0  2  0  0  0  0  0  0
  185.6730  178.6570  142.2680 C   0  0  0  0  0  2  0  0  0  0  0  0
  184.2220  178.2170  142.4020 C   0  0  0  0  0  2  0  0  0  0  0  0
  183.5910  178.8260  143.6440 C   0  0  0  0  0  2  0  0  0  0  0  0
  184.6580  179.4760  144.5120 C   0  0  0  0  0  2  0  0  0  0  0  0
  185.0520  178.5840  145.6450 C   0  0  0  0  0  3  0  0  0  0  0  0
  185.7230  179.0530  146.6870 C   0  0  0  0  0  3  0  0  0  0  0  0
  186.3050  176.8800  147.5480 C   0  0  0  0  0  2  0  0  0  0  0  0
  186.0790  178.1610  147.7850 C   0  0  0  0  0  3  0  0  0  0  0  0
  1  6  1  0  0  0  0
  2  5  1  0  0  0  0
  2  4  2  0  0  0  0
  3  1  2  0  0  0  0
  4  1  1  0  0  0  0
  5  3  1  0  0  0  0
  6  7  1  0  0  0  0
  8 13  2  0  0  0  0
  8 14  1  0  0  0  0
 10  9  2  0  0  0  0
 11 16  2  0  0  0  0
 13 10  1  0  0  0  0
 14 11  1  0  0  0  0
 14 15  2  0  0  0  0
 15  9  1  0  0  0  0
 15 12  1  0  0  0  0
 16  7  1  0  0  0  0
 16 12  1  0  0  0  0
 17  4  1  0  0  0  0
 18 17  1  0  0  0  0
 19 18  1  0  0  0  0
 20 19  1  0  0  0  0
 21 22  1  0  0  0  0
 21 20  1  0  0  0  0
 22 23  1  0  0  0  0
 24 23  1  6  0  0  0
 24 25  1  0  0  0  0
 25 26  1  0  0  0  0
 27 25  2  0  0  0  0
 28 29  1  0  0  0  0
 28 24  1  0  0  0  0
 30 31  1  0  0  0  0
 30  5  1  0  0  0  0
 31 32  1  0  0  0  0
 32 33  1  0  0  0  0
 33 34  1  0  0  0  0
 34 35  1  0  0  0  0
 35 36  2  0  0  0  0
 36 38  1  0  0  0  0
 37 38  2  0  0  0  0
M  END
>  <MODEL>
2

>  <REMARK>
 VINA RESULT:      -5.6      2.150      3.174
  Name = 
  20 active torsions:
  status: ('A' for Active; 'I' for Inactive)
    1  A    between atoms: C_2  and  C_20
    2  A    between atoms: C_4  and  C_32
    3  A    between atoms: C_4  and  C_36
    4  A    between atoms: C_5  and  C_32
    5  A    between atoms: C_7  and  C_13
    6  A    between atoms: N_8  and  C_24
    7  A    between atoms: N_8  and  C_37
    8  A    between atoms: C_10  and  C_11
    9  A    between atoms: C_10  and  N_38
   10  A    between atoms: C_11  and  C_33
   11  A    between atoms: C_13  and  C_19
   12  A    between atoms: C_14  and  C_35
   13  A    between atoms: N_15  and  C_16
   14  A    between atoms: N_15  and  C_18
   15  A    between atoms: C_16  and  C_24
   16  A    between atoms: C_18  and  O_30
   17  A    between atoms: C_19  and  C_33
   18  A    between atoms: C_20  and  O_21
   19  A    between atoms: C_20  and  C_37
   20  A    between atoms: C_28  and  O_30
                            x       y       z     vdW  Elec       q    Type
                         _______ _______ _______ _____ _____    ______ ____

>  <TORSDO>
F 20

$$$$
=
 OpenBabel11042417103D

 38 40  0  0  1  0  0  0  0  0999 V2000
  190.8160  175.4170  142.9370 C   0  0  0  0  0  0  0  0  0  0  0  0
  192.4450  173.9120  143.1120 C   0  0  0  0  0  3  0  0  0  0  0  0
  192.0230  176.0290  142.6660 C   0  0  0  0  0  3  0  0  0  0  0  0
  191.0810  174.0940  143.2080 C   0  0  0  0  0  0  0  0  0  0  0  0
  192.9920  175.1000  142.7890 N   0  0  0  0  0  0  0  0  0  0  0  0
  189.4750  176.0620  142.8850 C   0  0  0  0  0  2  0  0  0  0  0  0
  189.5130  177.3900  143.6160 C   0  0  0  0  0  2  0  0  0  0  0  0
  185.9790  178.0120  146.9660 C   0  0  0  0  0  3  0  0  0  0  0  0
  184.5080  178.6730  144.6310 C   0  0  0  0  0  3  0  0  0  0  0  0
  183.8940  178.7050  145.8940 C   0  0  0  0  0  3  0  0  0  0  0  0
  187.8740  177.6460  145.4870 N   0  0  0  0  0  0  0  0  0  0  0  0
  186.8410  178.1840  143.2250 S   0  0  0  0  0  0  0  0  0  0  0  0
  184.6250  178.3790  147.0540 C   0  0  0  0  0  3  0  0  0  0  0  0
  186.5790  177.9830  145.7070 C   0  0  0  0  0  0  0  0  0  0  0  0
  185.8500  178.3120  144.5720 C   0  0  0  0  0  0  0  0  0  0  0  0
  188.1680  177.7100  144.1650 C   0  0  0  0  0  0  0  0  0  0  0  0
  190.1210  173.1260  143.5210 O   0  0  0  0  0  0  0  0  0  0  0  0
  189.4370  172.3740  142.5250 C   0  0  0  0  0  2  0  0  0  0  0  0
  190.2410  171.2390  142.1010 N   0  0  0  0  0  2  0  0  0  0  0  0
  190.2470  171.2200  140.6480 C   0  0  0  0  0  2  0  0  0  0  0  0
  191.4710  171.9530  140.1340 C   0  0  0  0  0  2  0  0  0  0  0  0
  191.1740  172.5620  138.8490 N   0  0  0  0  0  2  0  0  0  0  0  0
  189.7750  172.2930  138.5640 C   0  0  0  0  0  2  0  0  0  0  0  0
  189.2210  173.3730  137.6500 C   0  0  1  0  0  3  0  0  0  0  0  0
  188.3100  174.2760  138.4140 C   0  0  0  0  0  0  0  0  0  0  0  0
  188.3890  174.3200  139.8000 O   0  0  0  0  0  1  0  0  0  0  0  0
  187.4770  175.0070  137.8120 O   0  0  0  0  0  0  0  0  0  0  0  0
  190.2670  174.1140  137.0930 O   0  0  0  0  0  0  0  0  0  0  0  0
  190.1600  173.9230  135.7930 O   0  0  0  0  0  1  0  0  0  0  0  0
  194.4120  175.3330  142.5850 C   0  0  0  0  0  2  0  0  0  0  0  0
  195.0160  176.0780  143.7710 C   0  0  0  0  0  2  0  0  0  0  0  0
  195.5830  175.1190  144.8080 C   0  0  0  0  0  2  0  0  0  0  0  0
  194.9970  175.4070  146.1810 C   0  0  0  0  0  2  0  0  0  0  0  0
  193.7720  176.2990  146.0530 C   0  0  0  0  0  2  0  0  0  0  0  0
  192.6460  175.7980  146.8990 C   0  0  0  0  0  3  0  0  0  0  0  0
  191.4050  175.7510  146.4340 C   0  0  0  0  0  3  0  0  0  0  0  0
  189.2940  174.6300  146.7290 C   0  0  0  0  0  2  0  0  0  0  0  0
  190.3310  175.2410  147.2780 C   0  0  0  0  0  3  0  0  0  0  0  0
  1  4  1  0  0  0  0
  2  4  2  0  0  0  0
  3  5  1  0  0  0  0
  3  1  2  0  0  0  0
  4 17  1  0  0  0  0
  5  2  1  0  0  0  0
  6  1  1  0  0  0  0
  6  7  1  0  0  0  0
  7 16  1  0  0  0  0
  8 13  1  0  0  0  0
  9 10  1  0  0  0  0
 10 13  2  0  0  0  0
 11 14  1  0  0  0  0
 12 16  1  0  0  0  0
 12 15  1  0  0  0  0
 14  8  2  0  0  0  0
 15  9  2  0  0  0  0
 15 14  1  0  0  0  0
 16 11  2  0  0  0  0
 18 17  1  0  0  0  0
 19 18  1  0  0  0  0
 20 19  1  0  0  0  0
 21 20  1  0  0  0  0
 22 21  1  0  0  0  0
 23 22  1  0  0  0  0
 24 25  1  0  0  0  0
 24 23  1  1  0  0  0
 25 26  1  0  0  0  0
 27 25  2  0  0  0  0
 28 24  1  0  0  0  0
 29 28  1  0  0  0  0
 30  5  1  0  0  0  0
 30 31  1  0  0  0  0
 31 32  1  0  0  0  0
 32 33  1  0  0  0  0
 34 33  1  0  0  0  0
 34 35  1  0  0  0  0
 36 35  2  0  0  0  0
 36 38  1  0  0  0  0
 37 38  2  0  0  0  0
M  END
>  <MODEL>
3

>  <REMARK>
 VINA RESULT:      -5.5      2.676      7.254
  Name = 
  20 active torsions:
  status: ('A' for Active; 'I' for Inactive)
    1  A    between atoms: C_2  and  C_20
    2  A    between atoms: C_4  and  C_32
    3  A    between atoms: C_4  and  C_36
    4  A    between atoms: C_5  and  C_32
    5  A    between atoms: C_7  and  C_13
    6  A    between atoms: N_8  and  C_24
    7  A    between atoms: N_8  and  C_37
    8  A    between atoms: C_10  and  C_11
    9  A    between atoms: C_10  and  N_38
   10  A    between atoms: C_11  and  C_33
   11  A    between atoms: C_13  and  C_19
   12  A    between atoms: C_14  and  C_35
   13  A    between atoms: N_15  and  C_16
   14  A    between atoms: N_15  and  C_18
   15  A    between atoms: C_16  and  C_24
   16  A    between atoms: C_18  and  O_30
   17  A    between atoms: C_19  and  C_33
   18  A    between atoms: C_20  and  O_21
   19  A    between atoms: C_20  and  C_37
   20  A    between atoms: C_28  and  O_30
                            x       y       z     vdW  Elec       q    Type
                         _______ _______ _______ _____ _____    ______ ____

>  <TORSDO>
F 20

$$$$
=
 OpenBabel11042417103D

 38 40  0  0  1  0  0  0  0  0999 V2000
  188.6910  176.8320  143.8520 C   0  0  0  0  0  0  0  0  0  0  0  0
  188.9760  177.5250  145.9470 C   0  0  0  0  0  3  0  0  0  0  0  0
  187.5870  176.4710  144.5980 C   0  0  0  0  0  3  0  0  0  0  0  0
  189.5540  177.4950  144.6940 C   0  0  0  0  0  0  0  0  0  0  0  0
  187.7900  176.8930  145.8630 N   0  0  0  0  0  0  0  0  0  0  0  0
  188.8790  176.5950  142.3940 C   0  0  0  0  0  2  0  0  0  0  0  0
  187.8690  175.5760  141.9030 C   0  0  0  0  0  2  0  0  0  0  0  0
  190.2100  171.2980  142.4690 C   0  0  0  0  0  3  0  0  0  0  0  0
  190.1760  171.4220  139.6340 C   0  0  0  0  0  3  0  0  0  0  0  0
  190.7690  170.3330  140.2920 C   0  0  0  0  0  3  0  0  0  0  0  0
  189.0390  173.4290  142.4260 N   0  0  0  0  0  0  0  0  0  0  0  0
  188.8420  173.8300  139.9220 S   0  0  0  0  0  0  0  0  0  0  0  0
  190.7840  170.2700  141.7010 C   0  0  0  0  0  3  0  0  0  0  0  0
  189.6240  172.3750  141.8040 C   0  0  0  0  0  0  0  0  0  0  0  0
  189.6100  172.4240  140.4160 C   0  0  0  0  0  0  0  0  0  0  0  0
  188.5600  174.3150  141.5190 C   0  0  0  0  0  0  0  0  0  0  0  0
  190.7890  178.0350  144.3220 O   0  0  0  0  0  0  0  0  0  0  0  0
  191.9940  177.2780  144.3400 C   0  0  0  0  0  2  0  0  0  0  0  0
  191.7750  175.9860  144.9730 N   0  0  0  0  0  2  0  0  0  0  0  0
  192.8460  175.7790  145.9340 C   0  0  0  0  0  2  0  0  0  0  0  0
  193.6790  174.5820  145.5190 C   0  0  0  0  0  2  0  0  0  0  0  0
  192.9090  173.7360  144.6240 N   0  0  0  0  0  2  0  0  0  0  0  0
  193.3680  172.3730  144.8270 C   0  0  0  0  0  2  0  0  0  0  0  0
  194.8870  172.3360  144.8140 C   0  0  1  0  0  3  0  0  0  0  0  0
  195.3820  171.2530  145.7140 C   0  0  0  0  0  0  0  0  0  0  0  0
  196.7040  171.2630  146.1400 O   0  0  0  0  0  1  0  0  0  0  0  0
  194.6080  170.3350  146.1000 O   0  0  0  0  0  0  0  0  0  0  0  0
  195.3510  172.1220  143.5130 O   0  0  0  0  0  0  0  0  0  0  0  0
  196.1700  173.1270  143.2790 O   0  0  0  0  0  1  0  0  0  0  0  0
  186.8630  176.7140  146.9680 C   0  0  0  0  0  2  0  0  0  0  0  0
  185.9250  177.9110  147.0900 C   0  0  0  0  0  2  0  0  0  0  0  0
  184.5710  177.6300  146.4550 C   0  0  0  0  0  2  0  0  0  0  0  0
  184.1970  178.7360  145.4810 C   0  0  0  0  0  2  0  0  0  0  0  0
  185.4470  179.4480  144.9870 C   0  0  0  0  0  2  0  0  0  0  0  0
  185.5820  179.3400  143.5020 C   0  0  0  0  0  3  0  0  0  0  0  0
  185.0860  178.3040  142.8400 C   0  0  0  0  0  3  0  0  0  0  0  0
  184.1500  178.3670  140.6220 C   0  0  0  0  0  2  0  0  0  0  0  0
  185.2190  178.2350  141.3900 C   0  0  0  0  0  3  0  0  0  0  0  0
  1  3  2  0  0  0  0
  1  4  1  0  0  0  0
  3  5  1  0  0  0  0
  4  2  2  0  0  0  0
  5  2  1  0  0  0  0
  5 30  1  0  0  0  0
  6  1  1  0  0  0  0
  7  6  1  0  0  0  0
  9 10  2  0  0  0  0
  9 15  1  0  0  0  0
 10 13  1  0  0  0  0
 12 15  1  0  0  0  0
 12 16  1  0  0  0  0
 13  8  2  0  0  0  0
 14 11  1  0  0  0  0
 14  8  1  0  0  0  0
 15 14  2  0  0  0  0
 16  7  1  0  0  0  0
 16 11  2  0  0  0  0
 17 18  1  0  0  0  0
 17  4  1  0  0  0  0
 18 19  1  0  0  0  0
 19 20  1  0  0  0  0
 21 20  1  0  0  0  0
 22 23  1  0  0  0  0
 22 21  1  0  0  0  0
 24 23  1  6  0  0  0
 24 25  1  0  0  0  0
 25 27  2  0  0  0  0
 25 26  1  0  0  0  0
 28 24  1  0  0  0  0
 29 28  1  0  0  0  0
 30 31  1  0  0  0  0
 32 31  1  0  0  0  0
 33 32  1  0  0  0  0
 34 33  1  0  0  0  0
 35 34  1  0  0  0  0
 36 35  2  0  0  0  0
 37 38  2  0  0  0  0
 38 36  1  0  0  0  0
M  END
>  <MODEL>
4

>  <REMARK>
 VINA RESULT:      -5.3      2.086      4.844
  Name = 
  20 active torsions:
  status: ('A' for Active; 'I' for Inactive)
    1  A    between atoms: C_2  and  C_20
    2  A    between atoms: C_4  and  C_32
    3  A    between atoms: C_4  and  C_36
    4  A    between atoms: C_5  and  C_32
    5  A    between atoms: C_7  and  C_13
    6  A    between atoms: N_8  and  C_24
    7  A    between atoms: N_8  and  C_37
    8  A    between atoms: C_10  and  C_11
    9  A    between atoms: C_10  and  N_38
   10  A    between atoms: C_11  and  C_33
   11  A    between atoms: C_13  and  C_19
   12  A    between atoms: C_14  and  C_35
   13  A    between atoms: N_15  and  C_16
   14  A    between atoms: N_15  and  C_18
   15  A    between atoms: C_16  and  C_24
   16  A    between atoms: C_18  and  O_30
   17  A    between atoms: C_19  and  C_33
   18  A    between atoms: C_20  and  O_21
   19  A    between atoms: C_20  and  C_37
   20  A    between atoms: C_28  and  O_30
                            x       y       z     vdW  Elec       q    Type
                         _______ _______ _______ _____ _____    ______ ____

>  <TORSDO>
F 20

$$$$
=
 OpenBabel11042417103D

 38 40  0  0  1  0  0  0  0  0999 V2000
  191.9960  174.8080  143.7070 C   0  0  0  0  0  0  0  0  0  0  0  0
  193.1590  175.7910  145.3290 C   0  0  0  0  0  3  0  0  0  0  0  0
  191.4110  174.5110  144.9210 C   0  0  0  0  0  3  0  0  0  0  0  0
  193.0840  175.6120  143.9620 C   0  0  0  0  0  0  0  0  0  0  0  0
  192.1390  175.1100  145.8850 N   0  0  0  0  0  0  0  0  0  0  0  0
  191.5030  174.3800  142.3680 C   0  0  0  0  0  2  0  0  0  0  0  0
  190.0950  173.8290  142.4900 C   0  0  0  0  0  2  0  0  0  0  0  0
  187.2850  177.7760  143.2790 C   0  0  0  0  0  3  0  0  0  0  0  0
  186.4920  177.1830  140.6190 C   0  0  0  0  0  3  0  0  0  0  0  0
  185.9330  178.2750  141.3030 C   0  0  0  0  0  3  0  0  0  0  0  0
  188.7600  175.8510  143.1090 N   0  0  0  0  0  0  0  0  0  0  0  0
  188.2700  175.0650  140.7400 S   0  0  0  0  0  0  0  0  0  0  0  0
  186.3280  178.5720  142.6230 C   0  0  0  0  0  3  0  0  0  0  0  0
  187.8330  176.6940  142.5910 C   0  0  0  0  0  0  0  0  0  0  0  0
  187.4400  176.4150  141.2880 C   0  0  0  0  0  0  0  0  0  0  0  0
  189.1010  174.8990  142.2060 C   0  0  0  0  0  0  0  0  0  0  0  0
  193.9410  176.1420  142.9940 O   0  0  0  0  0  0  0  0  0  0  0  0
  195.3440  176.2700  143.1990 C   0  0  0  0  0  2  0  0  0  0  0  0
  196.0360  176.3860  141.9240 N   0  0  0  0  0  2  0  0  0  0  0  0
  197.2930  175.6640  142.0370 C   0  0  0  0  0  2  0  0  0  0  0  0
  197.1400  174.5270  143.0290 C   0  0  0  0  0  2  0  0  0  0  0  0
  196.8250  173.2990  142.3200 N   0  0  0  0  0  2  0  0  0  0  0  0
  196.7750  172.2370  143.3110 C   0  0  0  0  0  2  0  0  0  0  0  0
  196.1390  172.7580  144.5890 C   0  0  1  0  0  3  0  0  0  0  0  0
  194.7110  172.3270  144.6630 C   0  0  0  0  0  0  0  0  0  0  0  0
  194.0650  171.8850  143.5170 O   0  0  0  0  0  0  0  0  0  0  0  0
  194.0900  172.3520  145.7610 O   0  0  0  0  0  1  0  0  0  0  0  0
  196.8370  172.2820  145.7020 O   0  0  0  0  0  0  0  0  0  0  0  0
  197.5570  171.2780  145.2430 O   0  0  0  0  0  1  0  0  0  0  0  0
  191.8590  175.0490  147.3100 C   0  0  0  0  0  2  0  0  0  0  0  0
  190.4500  175.5490  147.6090 C   0  0  0  0  0  2  0  0  0  0  0  0
  190.3210  177.0460  147.3630 C   0  0  0  0  0  2  0  0  0  0  0  0
  189.1040  177.3430  146.5000 C   0  0  0  0  0  2  0  0  0  0  0  0
  188.0780  176.2300  146.6370 C   0  0  0  0  0  2  0  0  0  0  0  0
  186.7190  176.7790  146.9310 C   0  0  0  0  0  3  0  0  0  0  0  0
  186.4640  178.0750  146.8260 C   0  0  0  0  0  3  0  0  0  0  0  0
  184.1860  178.5080  146.1720 C   0  0  0  0  0  2  0  0  0  0  0  0
  185.1230  178.5780  147.1030 C   0  0  0  0  0  3  0  0  0  0  0  0
  1  4  1  0  0  0  0
  1  3  2  0  0  0  0
  2  5  1  0  0  0  0
  3  5  1  0  0  0  0
  4  2  2  0  0  0  0
  5 30  1  0  0  0  0
  6  7  1  0  0  0  0
  6  1  1  0  0  0  0
  9 15  2  0  0  0  0
  9 10  1  0  0  0  0
 10 13  2  0  0  0  0
 12 15  1  0  0  0  0
 12 16  1  0  0  0  0
 13  8  1  0  0  0  0
 14 11  1  0  0  0  0
 14  8  2  0  0  0  0
 15 14  1  0  0  0  0
 16  7  1  0  0  0  0
 16 11  2  0  0  0  0
 17 18  1  0  0  0  0
 17  4  1  0  0  0  0
 19 20  1  0  0  0  0
 19 18  1  0  0  0  0
 20 21  1  0  0  0  0
 22 21  1  0  0  0  0
 22 23  1  0  0  0  0
 24 23  1  6  0  0  0
 24 25  1  0  0  0  0
 24 28  1  0  0  0  0
 25 27  1  0  0  0  0
 26 25  2  0  0  0  0
 29 28  1  0  0  0  0
 30 31  1  0  0  0  0
 32 31  1  0  0  0  0
 33 34  1  0  0  0  0
 33 32  1  0  0  0  0
 34 35  1  0  0  0  0
 36 35  2  0  0  0  0
 36 38  1  0  0  0  0
 37 38  2  0  0  0  0
M  END
>  <MODEL>
5

>  <REMARK>
 VINA RESULT:      -5.3      2.517      6.089
  Name = 
  20 active torsions:
  status: ('A' for Active; 'I' for Inactive)
    1  A    between atoms: C_2  and  C_20
    2  A    between atoms: C_4  and  C_32
    3  A    between atoms: C_4  and  C_36
    4  A    between atoms: C_5  and  C_32
    5  A    between atoms: C_7  and  C_13
    6  A    between atoms: N_8  and  C_24
    7  A    between atoms: N_8  and  C_37
    8  A    between atoms: C_10  and  C_11
    9  A    between atoms: C_10  and  N_38
   10  A    between atoms: C_11  and  C_33
   11  A    between atoms: C_13  and  C_19
   12  A    between atoms: C_14  and  C_35
   13  A    between atoms: N_15  and  C_16
   14  A    between atoms: N_15  and  C_18
   15  A    between atoms: C_16  and  C_24
   16  A    between atoms: C_18  and  O_30
   17  A    between atoms: C_19  and  C_33
   18  A    between atoms: C_20  and  O_21
   19  A    between atoms: C_20  and  C_37
   20  A    between atoms: C_28  and  O_30
                            x       y       z     vdW  Elec       q    Type
                         _______ _______ _______ _____ _____    ______ ____

>  <TORSDO>
F 20

$$$$
=
 OpenBabel11042417103D

 38 40  0  0  1  0  0  0  0  0999 V2000
  188.8850  176.4300  144.8090 C   0  0  0  0  0  0  0  0  0  0  0  0
  188.7810  177.1770  146.9020 C   0  0  0  0  0  3  0  0  0  0  0  0
  187.5610  176.5140  145.1900 C   0  0  0  0  0  3  0  0  0  0  0  0
  189.6450  176.8500  145.8770 C   0  0  0  0  0  0  0  0  0  0  0  0
  187.5270  176.9580  146.4630 N   0  0  0  0  0  0  0  0  0  0  0  0
  189.3870  176.0150  143.4700 C   0  0  0  0  0  2  0  0  0  0  0  0
  189.1880  174.5230  143.2840 C   0  0  0  0  0  2  0  0  0  0  0  0
  188.2930  174.1630  138.4710 C   0  0  0  0  0  3  0  0  0  0  0  0
  190.7780  172.7950  138.5710 C   0  0  0  0  0  3  0  0  0  0  0  0
  190.1000  172.9530  137.3510 C   0  0  0  0  0  3  0  0  0  0  0  0
  188.5310  174.4610  140.8720 N   0  0  0  0  0  0  0  0  0  0  0  0
  190.7560  173.3020  141.2920 S   0  0  0  0  0  0  0  0  0  0  0  0
  188.8660  173.6340  137.3010 C   0  0  0  0  0  3  0  0  0  0  0  0
  188.9750  174.0000  139.6760 C   0  0  0  0  0  0  0  0  0  0  0  0
  190.1920  173.3320  139.7130 C   0  0  0  0  0  0  0  0  0  0  0  0
  189.4070  174.1520  141.8600 C   0  0  0  0  0  0  0  0  0  0  0  0
  191.0410  176.9260  145.8940 O   0  0  0  0  0  0  0  0  0  0  0  0
  191.8520  175.9850  146.5890 C   0  0  0  0  0  2  0  0  0  0  0  0
  191.9500  174.7440  145.8370 N   0  0  0  0  0  2  0  0  0  0  0  0
  192.9380  174.9410  144.7880 C   0  0  0  0  0  2  0  0  0  0  0  0
  194.3310  174.7550  145.3590 C   0  0  0  0  0  2  0  0  0  0  0  0
  195.2770  175.5710  144.6180 N   0  0  0  0  0  2  0  0  0  0  0  0
  194.5960  176.0270  143.4180 C   0  0  0  0  0  2  0  0  0  0  0  0
  195.3800  175.5980  142.1890 C   0  0  1  0  0  3  0  0  0  0  0  0
  194.5920  174.6070  141.3970 C   0  0  0  0  0  0  0  0  0  0  0  0
  193.7400  175.0500  140.3940 O   0  0  0  0  0  0  0  0  0  0  0  0
  194.7000  173.3720  141.6250 O   0  0  0  0  0  1  0  0  0  0  0  0
  195.6790  176.7100  141.3970 O   0  0  0  0  0  0  0  0  0  0  0  0
  196.7300  176.3460  140.6910 O   0  0  0  0  0  1  0  0  0  0  0  0
  186.3210  177.1890  147.2410 C   0  0  0  0  0  2  0  0  0  0  0  0
  185.0760  177.0290  146.3750 C   0  0  0  0  0  2  0  0  0  0  0  0
  184.4180  178.3700  146.0840 C   0  0  0  0  0  2  0  0  0  0  0  0
  185.4560  179.3910  145.6440 C   0  0  0  0  0  2  0  0  0  0  0  0
  185.1940  179.8210  144.2090 C   0  0  0  0  0  2  0  0  0  0  0  0
  185.3100  178.6660  143.2670 C   0  0  0  0  0  3  0  0  0  0  0  0
  186.3410  178.5540  142.4400 C   0  0  0  0  0  3  0  0  0  0  0  0
  186.7570  177.5860  140.2750 C   0  0  0  0  0  2  0  0  0  0  0  0
  186.4350  177.4070  141.5450 C   0  0  0  0  0  3  0  0  0  0  0  0
  1  3  2  0  0  0  0
  1  4  1  0  0  0  0
  3  5  1  0  0  0  0
  4 17  1  0  0  0  0
  4  2  2  0  0  0  0
  5  2  1  0  0  0  0
  5 30  1  0  0  0  0
  6  1  1  0  0  0  0
  7  6  1  0  0  0  0
  8 14  1  0  0  0  0
  9 15  1  0  0  0  0
 10  9  2  0  0  0  0
 11 16  2  0  0  0  0
 12 16  1  0  0  0  0
 13 10  1  0  0  0  0
 13  8  2  0  0  0  0
 14 15  2  0  0  0  0
 14 11  1  0  0  0  0
 15 12  1  0  0  0  0
 16  7  1  0  0  0  0
 17 18  1  0  0  0  0
 19 18  1  0  0  0  0
 20 21  1  0  0  0  0
 20 19  1  0  0  0  0
 22 21  1  0  0  0  0
 23 22  1  0  0  0  0
 24 23  1  1  0  0  0
 25 27  1  0  0  0  0
 25 24  1  0  0  0  0
 26 25  2  0  0  0  0
 28 24  1  0  0  0  0
 29 28  1  0  0  0  0
 31 30  1  0  0  0  0
 32 31  1  0  0  0  0
 33 32  1  0  0  0  0
 34 33  1  0  0  0  0
 35 34  1  0  0  0  0
 36 35  2  0  0  0  0
 37 38  2  0  0  0  0
 38 36  1  0  0  0  0
M  END
>  <MODEL>
6

>  <REMARK>
 VINA RESULT:      -5.3      2.836      5.750
  Name = 
  20 active torsions:
  status: ('A' for Active; 'I' for Inactive)
    1  A    between atoms: C_2  and  C_20
    2  A    between atoms: C_4  and  C_32
    3  A    between atoms: C_4  and  C_36
    4  A    between atoms: C_5  and  C_32
    5  A    between atoms: C_7  and  C_13
    6  A    between atoms: N_8  and  C_24
    7  A    between atoms: N_8  and  C_37
    8  A    between atoms: C_10  and  C_11
    9  A    between atoms: C_10  and  N_38
   10  A    between atoms: C_11  and  C_33
   11  A    between atoms: C_13  and  C_19
   12  A    between atoms: C_14  and  C_35
   13  A    between atoms: N_15  and  C_16
   14  A    between atoms: N_15  and  C_18
   15  A    between atoms: C_16  and  C_24
   16  A    between atoms: C_18  and  O_30
   17  A    between atoms: C_19  and  C_33
   18  A    between atoms: C_20  and  O_21
   19  A    between atoms: C_20  and  C_37
   20  A    between atoms: C_28  and  O_30
                            x       y       z     vdW  Elec       q    Type
                         _______ _______ _______ _____ _____    ______ ____

>  <TORSDO>
F 20

$$$$
=
 OpenBabel11042417103D

 38 40  0  0  1  0  0  0  0  0999 V2000
  187.6950  175.8550  142.7750 C   0  0  0  0  0  0  0  0  0  0  0  0
  187.9440  178.0400  143.1080 C   0  0  0  0  0  3  0  0  0  0  0  0
  186.4510  176.4520  142.7780 C   0  0  0  0  0  3  0  0  0  0  0  0
  188.6260  176.8490  142.9750 C   0  0  0  0  0  0  0  0  0  0  0  0
  186.6290  177.7720  142.9910 N   0  0  0  0  0  0  0  0  0  0  0  0
  187.9740  174.4110  142.5420 C   0  0  0  0  0  2  0  0  0  0  0  0
  188.5180  174.2110  141.1400 C   0  0  0  0  0  2  0  0  0  0  0  0
  191.0520  170.5160  139.1330 C   0  0  0  0  0  3  0  0  0  0  0  0
  191.0920  169.6710  141.8420 C   0  0  0  0  0  3  0  0  0  0  0  0
  191.7150  168.9020  140.8460 C   0  0  0  0  0  3  0  0  0  0  0  0
  189.7810  172.4390  139.9080 N   0  0  0  0  0  0  0  0  0  0  0  0
  189.6450  171.9640  142.4040 S   0  0  0  0  0  0  0  0  0  0  0  0
  191.6970  169.3220  139.5010 C   0  0  0  0  0  3  0  0  0  0  0  0
  190.4360  171.2720  140.1300 C   0  0  0  0  0  0  0  0  0  0  0  0
  190.4650  170.8510  141.4530 C   0  0  0  0  0  0  0  0  0  0  0  0
  189.2890  172.9410  141.0680 C   0  0  0  0  0  0  0  0  0  0  0  0
  190.0100  176.6590  143.0280 O   0  0  0  0  0  0  0  0  0  0  0  0
  190.9300  177.7410  143.1290 C   0  0  0  0  0  2  0  0  0  0  0  0
  191.8990  177.4880  144.1840 N   0  0  0  0  0  2  0  0  0  0  0  0
  192.6620  176.3090  143.8080 C   0  0  0  0  0  2  0  0  0  0  0  0
  193.3020  175.7010  145.0410 C   0  0  0  0  0  2  0  0  0  0  0  0
  194.5520  176.3810  145.3310 N   0  0  0  0  0  2  0  0  0  0  0  0
  195.5200  175.9290  144.3460 C   0  0  0  0  0  2  0  0  0  0  0  0
  195.8700  174.4730  144.6020 C   0  0  1  0  0  3  0  0  0  0  0  0
  195.8750  173.7120  143.3170 C   0  0  0  0  0  0  0  0  0  0  0  0
  195.0530  174.1180  142.2740 O   0  0  0  0  0  0  0  0  0  0  0  0
  196.6260  172.7100  143.1670 O   0  0  0  0  0  1  0  0  0  0  0  0
  197.1240  174.3800  145.2130 O   0  0  0  0  0  0  0  0  0  0  0  0
  196.8990  173.7430  146.3450 O   0  0  0  0  0  1  0  0  0  0  0  0
  185.5680  178.7620  143.0630 C   0  0  0  0  0  2  0  0  0  0  0  0
  185.4490  179.3290  144.4740 C   0  0  0  0  0  2  0  0  0  0  0  0
  184.3330  178.6530  145.2590 C   0  0  0  0  0  2  0  0  0  0  0  0
  184.8900  177.5280  146.1180 C   0  0  0  0  0  2  0  0  0  0  0  0
  186.2690  177.8990  146.6410 C   0  0  0  0  0  2  0  0  0  0  0  0
  187.1970  176.7280  146.5990 C   0  0  0  0  0  3  0  0  0  0  0  0
  188.5110  176.8940  146.5540 C   0  0  0  0  0  3  0  0  0  0  0  0
  189.0810  174.6530  147.2310 C   0  0  0  0  0  2  0  0  0  0  0  0
  189.3910  175.7310  146.5310 C   0  0  0  0  0  3  0  0  0  0  0  0
  1  3  2  0  0  0  0
  1  4  1  0  0  0  0
  3  5  1  0  0  0  0
  4 17  1  0  0  0  0
  4  2  2  0  0  0  0
  5 30  1  0  0  0  0
  5  2  1  0  0  0  0
  6  1  1  0  0  0  0
  7  6  1  0  0  0  0
  8 13  2  0  0  0  0
  8 14  1  0  0  0  0
 10  9  2  0  0  0  0
 11 14  1  0  0  0  0
 11 16  2  0  0  0  0
 13 10  1  0  0  0  0
 14 15  2  0  0  0  0
 15  9  1  0  0  0  0
 15 12  1  0  0  0  0
 16  7  1  0  0  0  0
 16 12  1  0  0  0  0
 17 18  1  0  0  0  0
 18 19  1  0  0  0  0
 20 19  1  0  0  0  0
 20 21  1  0  0  0  0
 21 22  1  0  0  0  0
 23 22  1  0  0  0  0
 24 23  1  6  0  0  0
 24 28  1  0  0  0  0
 25 24  1  0  0  0  0
 26 25  2  0  0  0  0
 27 25  1  0  0  0  0
 28 29  1  0  0  0  0
 30 31  1  0  0  0  0
 31 32  1  0  0  0  0
 32 33  1  0  0  0  0
 33 34  1  0  0  0  0
 35 34  1  0  0  0  0
 36 35  2  0  0  0  0
 38 36  1  0  0  0  0
 38 37  2  0  0  0  0
M  END
>  <MODEL>
7

>  <REMARK>
 VINA RESULT:      -5.3      2.140      5.043
  Name = 
  20 active torsions:
  status: ('A' for Active; 'I' for Inactive)
    1  A    between atoms: C_2  and  C_20
    2  A    between atoms: C_4  and  C_32
    3  A    between atoms: C_4  and  C_36
    4  A    between atoms: C_5  and  C_32
    5  A    between atoms: C_7  and  C_13
    6  A    between atoms: N_8  and  C_24
    7  A    between atoms: N_8  and  C_37
    8  A    between atoms: C_10  and  C_11
    9  A    between atoms: C_10  and  N_38
   10  A    between atoms: C_11  and  C_33
   11  A    between atoms: C_13  and  C_19
   12  A    between atoms: C_14  and  C_35
   13  A    between atoms: N_15  and  C_16
   14  A    between atoms: N_15  and  C_18
   15  A    between atoms: C_16  and  C_24
   16  A    between atoms: C_18  and  O_30
   17  A    between atoms: C_19  and  C_33
   18  A    between atoms: C_20  and  O_21
   19  A    between atoms: C_20  and  C_37
   20  A    between atoms: C_28  and  O_30
                            x       y       z     vdW  Elec       q    Type
                         _______ _______ _______ _____ _____    ______ ____

>  <TORSDO>
F 20

$$$$
=
 OpenBabel11042417103D

 38 40  0  0  1  0  0  0  0  0999 V2000
  189.0080  177.0090  143.5740 C   0  0  0  0  0  0  0  0  0  0  0  0
  187.7340  175.6550  142.3510 C   0  0  0  0  0  3  0  0  0  0  0  0
  188.2350  177.7700  142.7200 C   0  0  0  0  0  3  0  0  0  0  0  0
  188.6890  175.6890  143.3460 C   0  0  0  0  0  0  0  0  0  0  0  0
  187.4820  176.9270  141.9850 N   0  0  0  0  0  0  0  0  0  0  0  0
  189.9640  177.5290  144.5890 C   0  0  0  0  0  2  0  0  0  0  0  0
  191.2210  178.0320  143.9050 C   0  0  0  0  0  2  0  0  0  0  0  0
  194.8620  175.5690  146.0880 C   0  0  0  0  0  3  0  0  0  0  0  0
  194.9220  174.3030  143.5490 C   0  0  0  0  0  3  0  0  0  0  0  0
  195.8210  173.9210  144.5570 C   0  0  0  0  0  3  0  0  0  0  0  0
  193.0330  176.9090  145.2110 N   0  0  0  0  0  0  0  0  0  0  0  0
  192.8270  175.9740  142.8540 S   0  0  0  0  0  0  0  0  0  0  0  0
  195.7910  174.5480  145.8190 C   0  0  0  0  0  3  0  0  0  0  0  0
  193.9740  175.9410  145.0800 C   0  0  0  0  0  0  0  0  0  0  0  0
  194.0090  175.3120  143.8420 C   0  0  0  0  0  0  0  0  0  0  0  0
  192.3210  177.0430  144.0650 C   0  0  0  0  0  0  0  0  0  0  0  0
  189.2450  174.5970  144.0180 O   0  0  0  0  0  0  0  0  0  0  0  0
  189.8670  173.5120  143.3370 C   0  0  0  0  0  2  0  0  0  0  0  0
  190.8740  172.8900  144.1830 N   0  0  0  0  0  2  0  0  0  0  0  0
  191.2980  171.6620  143.5320 C   0  0  0  0  0  2  0  0  0  0  0  0
  190.4360  171.4080  142.3110 C   0  0  0  0  0  2  0  0  0  0  0  0
  191.2810  171.1120  141.1670 N   0  0  0  0  0  2  0  0  0  0  0  0
  190.4840  170.3260  140.2420 C   0  0  0  0  0  2  0  0  0  0  0  0
  190.1560  171.1570  139.0130 C   0  0  1  0  0  3  0  0  0  0  0  0
  189.9580  170.2680  137.8290 C   0  0  0  0  0  0  0  0  0  0  0  0
  189.6780  170.8260  136.5890 O   0  0  0  0  0  0  0  0  0  0  0  0
  190.0530  169.0160  137.9450 O   0  0  0  0  0  1  0  0  0  0  0  0
  189.0020  171.9130  139.2380 O   0  0  0  0  0  0  0  0  0  0  0  0
  189.3890  173.1650  139.1040 O   0  0  0  0  0  1  0  0  0  0  0  0
  186.5260  177.3250  140.9650 C   0  0  0  0  0  2  0  0  0  0  0  0
  185.6900  178.5110  141.4370 C   0  0  0  0  0  2  0  0  0  0  0  0
  184.2950  178.0790  141.8660 C   0  0  0  0  0  2  0  0  0  0  0  0
  184.0230  178.5010  143.3020 C   0  0  0  0  0  2  0  0  0  0  0  0
  185.1850  179.3220  143.8380 C   0  0  0  0  0  2  0  0  0  0  0  0
  185.7820  178.6880  145.0530 C   0  0  0  0  0  3  0  0  0  0  0  0
  185.6090  177.3990  145.3110 C   0  0  0  0  0  3  0  0  0  0  0  0
  186.9050  177.5620  147.3350 C   0  0  0  0  0  2  0  0  0  0  0  0
  186.2180  176.8050  146.4950 C   0  0  0  0  0  3  0  0  0  0  0  0
  1  6  1  0  0  0  0
  2  4  2  0  0  0  0
  3  1  2  0  0  0  0
  4  1  1  0  0  0  0
  4 17  1  0  0  0  0
  5  2  1  0  0  0  0
  5  3  1  0  0  0  0
  7 16  1  0  0  0  0
  7  6  1  0  0  0  0
  9 15  2  0  0  0  0
  9 10  1  0  0  0  0
 10 13  2  0  0  0  0
 12 15  1  0  0  0  0
 12 16  1  0  0  0  0
 13  8  1  0  0  0  0
 14 11  1  0  0  0  0
 14  8  2  0  0  0  0
 15 14  1  0  0  0  0
 16 11  2  0  0  0  0
 18 17  1  0  0  0  0
 18 19  1  0  0  0  0
 20 19  1  0  0  0  0
 21 20  1  0  0  0  0
 22 21  1  0  0  0  0
 23 22  1  0  0  0  0
 24 28  1  0  0  0  0
 24 23  1  1  0  0  0
 25 27  1  0  0  0  0
 25 24  1  0  0  0  0
 26 25  2  0  0  0  0
 29 28  1  0  0  0  0
 30 31  1  0  0  0  0
 30  5  1  0  0  0  0
 31 32  1  0  0  0  0
 32 33  1  0  0  0  0
 33 34  1  0  0  0  0
 34 35  1  0  0  0  0
 35 36  2  0  0  0  0
 36 38  1  0  0  0  0
 38 37  2  0  0  0  0
M  END
>  <MODEL>
8

>  <REMARK>
 VINA RESULT:      -5.2      2.419      3.345
  Name = 
  20 active torsions:
  status: ('A' for Active; 'I' for Inactive)
    1  A    between atoms: C_2  and  C_20
    2  A    between atoms: C_4  and  C_32
    3  A    between atoms: C_4  and  C_36
    4  A    between atoms: C_5  and  C_32
    5  A    between atoms: C_7  and  C_13
    6  A    between atoms: N_8  and  C_24
    7  A    between atoms: N_8  and  C_37
    8  A    between atoms: C_10  and  C_11
    9  A    between atoms: C_10  and  N_38
   10  A    between atoms: C_11  and  C_33
   11  A    between atoms: C_13  and  C_19
   12  A    between atoms: C_14  and  C_35
   13  A    between atoms: N_15  and  C_16
   14  A    between atoms: N_15  and  C_18
   15  A    between atoms: C_16  and  C_24
   16  A    between atoms: C_18  and  O_30
   17  A    between atoms: C_19  and  C_33
   18  A    between atoms: C_20  and  O_21
   19  A    between atoms: C_20  and  C_37
   20  A    between atoms: C_28  and  O_30
                            x       y       z     vdW  Elec       q    Type
                         _______ _______ _______ _____ _____    ______ ____

>  <TORSDO>
F 20

$$$$
=
 OpenBabel11042417103D

 38 40  0  0  1  0  0  0  0  0999 V2000
  189.6040  173.3670  143.8340 C   0  0  0  0  0  0  0  0  0  0  0  0
  188.8690  175.2900  144.6790 C   0  0  0  0  0  3  0  0  0  0  0  0
  189.8550  173.3850  145.1910 C   0  0  0  0  0  3  0  0  0  0  0  0
  188.9830  174.5540  143.5170 C   0  0  0  0  0  0  0  0  0  0  0  0
  189.4100  174.5630  145.6760 N   0  0  0  0  0  0  0  0  0  0  0  0
  189.9010  172.2440  142.9030 C   0  0  0  0  0  2  0  0  0  0  0  0
  191.0020  172.6490  141.9410 C   0  0  0  0  0  2  0  0  0  0  0  0
  194.4180  171.9170  145.3900 C   0  0  0  0  0  3  0  0  0  0  0  0
  195.7400  173.9100  143.8630 C   0  0  0  0  0  3  0  0  0  0  0  0
  196.3500  173.3650  145.0040 C   0  0  0  0  0  3  0  0  0  0  0  0
  192.5960  172.1130  143.7920 N   0  0  0  0  0  0  0  0  0  0  0  0
  193.5110  173.8930  142.2210 S   0  0  0  0  0  0  0  0  0  0  0  0
  195.6950  172.3740  145.7620 C   0  0  0  0  0  3  0  0  0  0  0  0
  193.8210  172.4650  144.2550 C   0  0  0  0  0  0  0  0  0  0  0  0
  194.4790  173.4380  143.5130 C   0  0  0  0  0  0  0  0  0  0  0  0
  192.2860  172.8150  142.6740 C   0  0  0  0  0  0  0  0  0  0  0  0
  188.5520  174.9230  142.2400 O   0  0  0  0  0  0  0  0  0  0  0  0
  188.6030  176.2660  141.7710 C   0  0  0  0  0  2  0  0  0  0  0  0
  187.4130  176.5810  140.9960 N   0  0  0  0  0  2  0  0  0  0  0  0
  186.8730  177.8320  141.5040 C   0  0  0  0  0  2  0  0  0  0  0  0
  185.4870  177.5960  142.0710 C   0  0  0  0  0  2  0  0  0  0  0  0
  185.4350  178.0620  143.4460 N   0  0  0  0  0  2  0  0  0  0  0  0
  185.7400  176.9210  144.2930 C   0  0  0  0  0  2  0  0  0  0  0  0
  185.2370  177.1820  145.7030 C   0  0  1  0  0  3  0  0  0  0  0  0
  186.3740  177.1380  146.6700 C   0  0  0  0  0  0  0  0  0  0  0  0
  187.4980  177.9210  146.4470 O   0  0  0  0  0  0  0  0  0  0  0  0
  186.3180  176.4020  147.6930 O   0  0  0  0  0  1  0  0  0  0  0  0
  184.6070  178.4280  145.7670 O   0  0  0  0  0  0  0  0  0  0  0  0
  184.3080  178.5880  147.0400 O   0  0  0  0  0  1  0  0  0  0  0  0
  189.4820  174.9810  147.0660 C   0  0  0  0  0  2  0  0  0  0  0  0
  190.4870  176.1140  147.2420 C   0  0  0  0  0  2  0  0  0  0  0  0
  191.7990  175.6150  147.8310 C   0  0  0  0  0  2  0  0  0  0  0  0
  192.6580  174.9710  146.7550 C   0  0  0  0  0  2  0  0  0  0  0  0
  193.7600  175.9250  146.3200 C   0  0  0  0  0  2  0  0  0  0  0  0
  193.3060  176.8010  145.1970 C   0  0  0  0  0  3  0  0  0  0  0  0
  192.3830  176.3940  144.3370 C   0  0  0  0  0  3  0  0  0  0  0  0
  191.1810  178.3200  143.5330 C   0  0  0  0  0  2  0  0  0  0  0  0
  191.9490  177.2770  143.2620 C   0  0  0  0  0  3  0  0  0  0  0  0
  1  3  2  0  0  0  0
  2  5  1  0  0  0  0
  3  5  1  0  0  0  0
  4  1  1  0  0  0  0
  4  2  2  0  0  0  0
  5 30  1  0  0  0  0
  6  1  1  0  0  0  0
  7 16  1  0  0  0  0
  7  6  1  0  0  0  0
  8 13  1  0  0  0  0
  9 10  1  0  0  0  0
 10 13  2  0  0  0  0
 11 14  1  0  0  0  0
 12 16  1  0  0  0  0
 12 15  1  0  0  0  0
 14  8  2  0  0  0  0
 15  9  2  0  0  0  0
 15 14  1  0  0  0  0
 16 11  2  0  0  0  0
 17  4  1  0  0  0  0
 18 17  1  0  0  0  0
 19 20  1  0  0  0  0
 19 18  1  0  0  0  0
 20 21  1  0  0  0  0
 21 22  1  0  0  0  0
 22 23  1  0  0  0  0
 24 23  1  6  0  0  0
 24 28  1  0  0  0  0
 24 25  1  0  0  0  0
 25 27  1  0  0  0  0
 26 25  2  0  0  0  0
 28 29  1  0  0  0  0
 30 31  1  0  0  0  0
 31 32  1  0  0  0  0
 33 32  1  0  0  0  0
 34 33  1  0  0  0  0
 35 34  1  0  0  0  0
 36 35  2  0  0  0  0
 38 37  2  0  0  0  0
 38 36  1  0  0  0  0
M  END
>  <MODEL>
9

>  <REMARK>
 VINA RESULT:      -5.2      2.960      6.757
  Name = 
  20 active torsions:
  status: ('A' for Active; 'I' for Inactive)
    1  A    between atoms: C_2  and  C_20
    2  A    between atoms: C_4  and  C_32
    3  A    between atoms: C_4  and  C_36
    4  A    between atoms: C_5  and  C_32
    5  A    between atoms: C_7  and  C_13
    6  A    between atoms: N_8  and  C_24
    7  A    between atoms: N_8  and  C_37
    8  A    between atoms: C_10  and  C_11
    9  A    between atoms: C_10  and  N_38
   10  A    between atoms: C_11  and  C_33
   11  A    between atoms: C_13  and  C_19
   12  A    between atoms: C_14  and  C_35
   13  A    between atoms: N_15  and  C_16
   14  A    between atoms: N_15  and  C_18
   15  A    between atoms: C_16  and  C_24
   16  A    between atoms: C_18  and  O_30
   17  A    between atoms: C_19  and  C_33
   18  A    between atoms: C_20  and  O_21
   19  A    between atoms: C_20  and  C_37
   20  A    between atoms: C_28  and  O_30
                            x       y       z     vdW  Elec       q    Type
                         _______ _______ _______ _____ _____    ______ ____

>  <TORSDO>
F 20

$$$$
