=
 OpenBabel11042419373D

 56 60  0  0  1  0  0  0  0  0999 V2000
  192.1740  173.4800  141.6500 C   0  0  1  0  0  3  0  0  0  0  0  0
  193.6300  173.4220  141.7130 N   0  0  0  0  0  2  0  0  0  0  0  0
  194.3400  172.6070  142.6490 C   0  0  0  0  0  0  0  0  0  0  0  0
  193.7240  171.9620  143.5430 O   0  0  0  0  0  0  0  0  0  0  0  0
  195.8270  172.5450  142.5860 C   0  0  0  0  0  2  0  0  0  0  0  0
  196.3380  173.6190  141.7530 N   0  0  0  0  0  2  0  0  0  0  0  0
  196.1640  175.9990  143.8030 C   0  0  0  0  0  0  0  0  0  0  0  0
  196.9450  174.4450  144.2310 S   0  0  0  0  0  0  0  0  0  0  0  0
  196.6480  176.6130  142.5400 C   0  0  0  0  0  2  0  0  0  0  0  0
  197.6840  175.6710  141.9640 C   0  0  1  0  0  3  0  0  0  0  0  0
  197.4210  174.2620  142.4900 C   0  0  2  0  0  3  0  0  0  0  0  0
  197.6560  175.7090  140.5700 O   0  0  0  0  0  1  0  0  0  0  0  0
  195.1080  176.5390  144.4240 C   0  0  0  0  0  3  0  0  0  0  0  0
  194.4720  176.0450  145.6130 N   0  0  0  0  0  2  0  0  0  0  0  0
  194.0120  174.6840  145.8430 C   0  0  0  0  0  2  0  0  0  0  0  0
  192.6280  174.6980  146.4610 C   0  0  0  0  0  2  0  0  0  0  0  0
  189.5720  174.1130  145.8650 C   0  0  0  0  0  1  0  0  0  0  0  0
  192.0930  176.1200  146.5270 C   0  0  1  0  0  3  0  0  0  0  0  0
  189.9140  177.3580  146.5210 O   0  0  0  0  0  0  0  0  0  0  0  0
  188.3870  175.6880  147.3240 C   0  0  0  0  0  2  0  0  0  0  0  0
  190.5950  176.1700  146.8180 C   0  0  1  0  0  0  0  0  0  0  0  0
  189.6950  174.9900  147.1000 C   0  0  2  0  0  3  0  0  0  0  0  0
  188.5470  177.0380  146.6330 C   0  0  0  0  0  2  0  0  0  0  0  0
  191.5920  176.3960  147.9350 C   0  0  0  0  0  2  0  0  0  0  0  0
  191.6020  172.0970  141.3550 C   0  0  0  0  0  2  0  0  0  0  0  0
  190.5500  172.1700  140.2890 C   0  0  0  0  0  0  0  0  0  0  0  0
  189.8920  171.1830  139.9990 O   0  0  0  0  0  0  0  0  0  0  0  0
  190.3150  173.4640  139.5780 C   0  0  0  0  0  2  0  0  0  0  0  0
  190.0590  173.2520  138.0890 C   0  0  0  0  0  2  0  0  0  0  0  0
  192.9680  171.2860  137.3350 C   0  0  0  0  0  3  0  0  0  0  0  0
  191.3560  173.1970  137.2860 C   0  0  1  0  0  3  0  0  0  0  0  0
  192.4320  174.0240  138.0110 C   0  0  0  0  0  2  0  0  0  0  0  0
  193.8390  173.5800  137.6340 C   0  0  0  0  0  2  0  0  0  0  0  0
  191.7480  171.7500  137.0220 C   0  0  0  0  0  0  0  0  0  0  0  0
  193.9920  172.1200  138.0380 C   0  0  0  0  0  2  0  0  0  0  0  0
  189.9130  170.2470  136.8830 O   0  0  0  0  0  1  0  0  0  0  0  0
  190.9640  170.7020  134.9050 O   0  0  0  0  0  0  0  0  0  0  0  0
  190.8330  170.8630  136.2810 C   0  0  0  0  0  0  0  0  0  0  0  0
  191.6350  173.9620  142.9830 C   0  0  0  0  0  2  0  0  0  0  0  0
  191.3740  175.4540  142.9470 C   0  0  0  0  0  2  0  0  0  0  0  0
  189.9250  175.7170  142.5730 C   0  0  0  0  0  2  0  0  0  0  0  0
  189.4930  177.1320  142.9310 C   0  0  0  0  0  2  0  0  0  0  0  0
  188.0310  177.1730  143.3420 C   0  0  0  0  0  2  0  0  0  0  0  0
  187.3530  178.3930  142.7460 C   0  0  0  0  0  2  0  0  0  0  0  0
  185.9540  178.4550  143.1720 N   0  0  0  0  0  0  0  0  0  0  0  0
  185.0920  177.7200  142.2330 C   0  0  2  0  0  3  0  0  0  0  0  0
  184.4320  177.8760  140.0310 O   0  0  0  0  0  0  0  0  0  0  0  0
  185.5760  177.7570  140.8070 C   0  0  0  0  0  2  0  0  0  0  0  0
  183.7980  178.2400  142.2350 O   0  0  0  0  0  0  0  0  0  0  0  0
  182.1080  177.9520  140.5690 C   0  0  0  0  0  1  0  0  0  0  0  0
  183.4940  178.4790  140.8830 C   0  0  2  0  0  3  0  0  0  0  0  0
  185.8630  177.8490  144.3840 O   0  0  0  0  0  0  0  0  0  0  0  0
  184.0930  177.9390  145.9920 C   0  0  0  0  0  1  0  0  0  0  0  0
  185.1040  178.7210  145.1710 C   0  0  1  0  0  3  0  0  0  0  0  0
  186.0080  179.5620  146.0660 C   0  0  0  0  0  2  0  0  0  0  0  0
  185.7850  179.2780  147.5430 C   0  0  0  0  0  1  0  0  0  0  0  0
  1 25  1  1  0  0  0
  1  2  1  0  0  0  0
  1 39  1  0  0  0  0
  2  3  1  0  0  0  0
  3  4  2  0  0  0  0
  5  3  1  0  0  0  0
  6  5  1  0  0  0  0
  7  8  1  0  0  0  0
  7 13  2  0  0  0  0
  9  7  1  0  0  0  0
 10 12  1  6  0  0  0
 10 11  1  0  0  0  0
 10  9  1  0  0  0  0
 11  6  1  6  0  0  0
 11  8  1  0  0  0  0
 13 14  1  0  0  0  0
 14 15  1  0  0  0  0
 15 16  1  0  0  0  0
 18 16  1  1  0  0  0
 18 21  1  0  0  0  0
 18 24  1  0  0  0  0
 19 23  1  0  0  0  0
 19 21  1  0  0  0  0
 21 22  1  0  0  0  0
 21 24  1  1  0  0  0
 22 17  1  6  0  0  0
 22 20  1  0  0  0  0
 23 20  1  0  0  0  0
 26 25  1  0  0  0  0
 27 26  2  0  0  0  0
 28 26  1  0  0  0  0
 29 28  1  0  0  0  0
 30 35  1  0  0  0  0
 31 32  1  0  0  0  0
 31 29  1  1  0  0  0
 33 32  1  0  0  0  0
 33 35  1  0  0  0  0
 34 31  1  0  0  0  0
 34 30  2  0  0  0  0
 37 38  2  0  0  0  0
 38 36  1  0  0  0  0
 38 34  1  0  0  0  0
 40 39  1  0  0  0  0
 41 42  1  0  0  0  0
 41 40  1  0  0  0  0
 42 43  1  0  0  0  0
 44 45  1  0  0  0  0
 44 43  1  0  0  0  0
 45 52  1  0  0  0  0
 46 49  1  0  0  0  0
 46 45  1  1  0  0  0
 47 48  1  0  0  0  0
 47 51  1  0  0  0  0
 48 46  1  0  0  0  0
 51 50  1  6  0  0  0
 51 49  1  0  0  0  0
 52 54  1  0  0  0  0
 54 53  1  1  0  0  0
 54 55  1  0  0  0  0
 55 56  1  0  0  0  0
M  END
>  <MODEL>
1

>  <REMARK>
 VINA RESULT:      -5.9      0.000      0.000
  Name = 
  25 active torsions:
  status: ('A' for Active; 'I' for Inactive)
    1  A    between atoms: C_1  and  C_32
    2  A    between atoms: C_3  and  C_9
    3  A    between atoms: C_3  and  C_25
    4  A    between atoms: C_4  and  C_35
    5  A    between atoms: C_5  and  C_25
    6  A    between atoms: C_5  and  C_35
    7  A    between atoms: C_7  and  N_13
    8  A    between atoms: C_9  and  N_11
    9  A    between atoms: C_9  and  C_15
   10  A    between atoms: C_12  and  C_21
   11  A    between atoms: C_12  and  C_55
   12  A    between atoms: N_13  and  O_51
   13  A    between atoms: N_13  and  C_53
   14  A    between atoms: C_14  and  N_54
   15  A    between atoms: C_14  and  C_56
   16  A    between atoms: C_15  and  C_21
   17  A    between atoms: C_27  and  N_46
   18  A    between atoms: C_28  and  C_44
   19  A    between atoms: C_29  and  C_53
   20  A    between atoms: C_29  and  C_55
   21  A    between atoms: C_32  and  O_51
   22  A    between atoms: C_33  and  C_56
   23  A    between atoms: C_36  and  N_54
   24  A    between atoms: C_42  and  C_47
   25  A    between atoms: N_46  and  C_47
                            x       y       z     vdW  Elec       q    Type
                         _______ _______ _______ _____ _____    ______ ____

>  <TORSDO>
F 25

$$$$
=
 OpenBabel11042419373D

 56 60  0  0  1  0  0  0  0  0999 V2000
  189.9200  172.4860  141.1160 C   0  0  1  0  0  3  0  0  0  0  0  0
  190.6340  171.9730  139.9520 N   0  0  0  0  0  2  0  0  0  0  0  0
  190.9340  170.5870  139.7670 C   0  0  0  0  0  0  0  0  0  0  0  0
  190.6710  169.7420  140.6690 O   0  0  0  0  0  0  0  0  0  0  0  0
  191.5920  170.1410  138.5070 C   0  0  0  0  0  2  0  0  0  0  0  0
  192.5950  171.1080  138.0970 N   0  0  0  0  0  2  0  0  0  0  0  0
  195.0680  172.1260  136.4410 C   0  0  0  0  0  0  0  0  0  0  0  0
  194.7000  170.3800  136.6050 S   0  0  0  0  0  0  0  0  0  0  0  0
  193.9300  172.9630  135.9860 C   0  0  0  0  0  2  0  0  0  0  0  0
  192.7430  172.0370  135.8210 C   0  0  1  0  0  3  0  0  0  0  0  0
  192.9420  170.8130  136.7110 C   0  0  2  0  0  3  0  0  0  0  0  0
  191.5570  172.7040  136.1280 O   0  0  0  0  0  1  0  0  0  0  0  0
  196.1980  172.7260  136.8390 C   0  0  0  0  0  3  0  0  0  0  0  0
  197.3680  172.0800  137.3640 N   0  0  0  0  0  2  0  0  0  0  0  0
  197.6450  171.8010  138.7640 C   0  0  0  0  0  2  0  0  0  0  0  0
  196.6590  172.5350  139.6490 C   0  0  0  0  0  2  0  0  0  0  0  0
  194.8540  175.0960  139.1790 C   0  0  0  0  0  1  0  0  0  0  0  0
  197.3890  173.5150  140.5550 C   0  0  1  0  0  3  0  0  0  0  0  0
  197.1390  175.8280  141.4850 O   0  0  0  0  0  0  0  0  0  0  0  0
  194.7620  176.1530  141.3890 C   0  0  0  0  0  2  0  0  0  0  0  0
  196.5050  174.6810  140.9920 C   0  0  1  0  0  0  0  0  0  0  0  0
  195.0410  174.8680  140.6690 C   0  0  2  0  0  3  0  0  0  0  0  0
  196.1290  176.8080  141.5540 C   0  0  0  0  0  2  0  0  0  0  0  0
  196.7300  173.5090  141.9240 C   0  0  0  0  0  2  0  0  0  0  0  0
  190.8680  173.2800  142.0100 C   0  0  0  0  0  2  0  0  0  0  0  0
  191.6190  172.3690  142.9340 C   0  0  0  0  0  0  0  0  0  0  0  0
  191.0240  171.5510  143.6160 O   0  0  0  0  0  0  0  0  0  0  0  0
  193.1080  172.4740  143.0180 C   0  0  0  0  0  2  0  0  0  0  0  0
  193.5440  173.6840  143.8380 C   0  0  0  0  0  2  0  0  0  0  0  0
  196.5740  174.0390  145.7320 C   0  0  0  0  0  3  0  0  0  0  0  0
  194.2720  173.2800  145.1170 C   0  0  1  0  0  3  0  0  0  0  0  0
  194.8690  171.8740  144.9330 C   0  0  0  0  0  2  0  0  0  0  0  0
  196.0440  171.6290  145.8680 C   0  0  0  0  0  2  0  0  0  0  0  0
  195.2880  174.3470  145.5020 C   0  0  0  0  0  0  0  0  0  0  0  0
  197.1190  172.6590  145.5460 C   0  0  0  0  0  2  0  0  0  0  0  0
  194.0990  175.9790  146.7540 O   0  0  0  0  0  1  0  0  0  0  0  0
  195.2420  176.7710  144.9400 O   0  0  0  0  0  0  0  0  0  0  0  0
  194.8410  175.7270  145.7680 C   0  0  0  0  0  0  0  0  0  0  0  0
  188.8010  173.3990  140.6520 C   0  0  0  0  0  2  0  0  0  0  0  0
  188.5800  174.5210  141.6460 C   0  0  0  0  0  2  0  0  0  0  0  0
  187.9160  175.7000  140.9550 C   0  0  0  0  0  2  0  0  0  0  0  0
  188.2180  177.0160  141.6590 C   0  0  0  0  0  2  0  0  0  0  0  0
  187.0420  177.4670  142.5090 C   0  0  0  0  0  2  0  0  0  0  0  0
  186.7900  176.4720  143.6260 C   0  0  0  0  0  2  0  0  0  0  0  0
  187.7190  176.7050  144.7330 N   0  0  0  0  0  0  0  0  0  0  0  0
  186.9850  176.9270  145.9890 C   0  0  2  0  0  3  0  0  0  0  0  0
  184.9350  177.7380  146.6560 O   0  0  0  0  0  0  0  0  0  0  0  0
  185.4960  176.7470  145.8630 C   0  0  0  0  0  2  0  0  0  0  0  0
  187.1990  178.2190  146.4660 O   0  0  0  0  0  0  0  0  0  0  0  0
  185.8810  179.4220  148.0570 C   0  0  0  0  0  1  0  0  0  0  0  0
  185.9140  178.7420  146.7040 C   0  0  2  0  0  3  0  0  0  0  0  0
  188.4730  175.5850  144.8830 O   0  0  0  0  0  0  0  0  0  0  0  0
  190.6290  174.8600  145.6260 C   0  0  0  0  0  1  0  0  0  0  0  0
  189.6700  176.0250  145.4570 C   0  0  1  0  0  3  0  0  0  0  0  0
  190.2920  177.1350  144.6180 C   0  0  0  0  0  2  0  0  0  0  0  0
  191.5900  176.6980  143.9540 C   0  0  0  0  0  1  0  0  0  0  0  0
  1 39  1  6  0  0  0
  1 25  1  0  0  0  0
  2  1  1  0  0  0  0
  3  2  1  0  0  0  0
  3  4  2  0  0  0  0
  5  3  1  0  0  0  0
  6  5  1  0  0  0  0
  7  8  1  0  0  0  0
  7 13  2  0  0  0  0
  8 11  1  0  0  0  0
  9  7  1  0  0  0  0
 10  9  1  0  0  0  0
 10 12  1  1  0  0  0
 10 11  1  0  0  0  0
 11  6  1  1  0  0  0
 13 14  1  0  0  0  0
 14 15  1  0  0  0  0
 15 16  1  0  0  0  0
 18 16  1  6  0  0  0
 18 21  1  0  0  0  0
 18 24  1  0  0  0  0
 19 23  1  0  0  0  0
 20 23  1  0  0  0  0
 21 19  1  0  0  0  0
 21 24  1  1  0  0  0
 22 17  1  6  0  0  0
 22 21  1  0  0  0  0
 22 20  1  0  0  0  0
 25 26  1  0  0  0  0
 26 28  1  0  0  0  0
 26 27  2  0  0  0  0
 28 29  1  0  0  0  0
 31 29  1  6  0  0  0
 31 34  1  0  0  0  0
 32 31  1  0  0  0  0
 32 33  1  0  0  0  0
 34 30  2  0  0  0  0
 34 38  1  0  0  0  0
 35 30  1  0  0  0  0
 35 33  1  0  0  0  0
 37 38  2  0  0  0  0
 38 36  1  0  0  0  0
 39 40  1  0  0  0  0
 41 40  1  0  0  0  0
 41 42  1  0  0  0  0
 42 43  1  0  0  0  0
 43 44  1  0  0  0  0
 44 45  1  0  0  0  0
 45 52  1  0  0  0  0
 46 45  1  6  0  0  0
 46 49  1  0  0  0  0
 47 51  1  0  0  0  0
 48 46  1  0  0  0  0
 48 47  1  0  0  0  0
 49 51  1  0  0  0  0
 51 50  1  1  0  0  0
 52 54  1  0  0  0  0
 54 53  1  6  0  0  0
 55 54  1  0  0  0  0
 56 55  1  0  0  0  0
M  END
>  <MODEL>
2

>  <REMARK>
 VINA RESULT:      -5.9      2.841      7.186
  Name = 
  25 active torsions:
  status: ('A' for Active; 'I' for Inactive)
    1  A    between atoms: C_1  and  C_32
    2  A    between atoms: C_3  and  C_9
    3  A    between atoms: C_3  and  C_25
    4  A    between atoms: C_4  and  C_35
    5  A    between atoms: C_5  and  C_25
    6  A    between atoms: C_5  and  C_35
    7  A    between atoms: C_7  and  N_13
    8  A    between atoms: C_9  and  N_11
    9  A    between atoms: C_9  and  C_15
   10  A    between atoms: C_12  and  C_21
   11  A    between atoms: C_12  and  C_55
   12  A    between atoms: N_13  and  O_51
   13  A    between atoms: N_13  and  C_53
   14  A    between atoms: C_14  and  N_54
   15  A    between atoms: C_14  and  C_56
   16  A    between atoms: C_15  and  C_21
   17  A    between atoms: C_27  and  N_46
   18  A    between atoms: C_28  and  C_44
   19  A    between atoms: C_29  and  C_53
   20  A    between atoms: C_29  and  C_55
   21  A    between atoms: C_32  and  O_51
   22  A    between atoms: C_33  and  C_56
   23  A    between atoms: C_36  and  N_54
   24  A    between atoms: C_42  and  C_47
   25  A    between atoms: N_46  and  C_47
                            x       y       z     vdW  Elec       q    Type
                         _______ _______ _______ _____ _____    ______ ____

>  <TORSDO>
F 25

$$$$
=
 OpenBabel11042419373D

 56 60  0  0  1  0  0  0  0  0999 V2000
  191.1690  175.8650  143.2340 C   0  0  1  0  0  3  0  0  0  0  0  0
  192.4650  176.2340  142.6760 N   0  0  0  0  0  2  0  0  0  0  0  0
  193.1940  175.4000  141.7710 C   0  0  0  0  0  0  0  0  0  0  0  0
  192.7800  174.2410  141.4850 O   0  0  0  0  0  0  0  0  0  0  0  0
  194.4710  175.8940  141.1850 C   0  0  0  0  0  2  0  0  0  0  0  0
  195.2390  174.7840  140.6490 N   0  0  0  0  0  2  0  0  0  0  0  0
  196.2340  173.4030  138.0040 C   0  0  0  0  0  0  0  0  0  0  0  0
  195.4180  174.9980  137.9830 S   0  0  0  0  0  0  0  0  0  0  0  0
  197.3780  173.3010  138.9460 C   0  0  0  0  0  2  0  0  0  0  0  0
  197.4860  174.6360  139.6520 C   0  0  1  0  0  3  0  0  0  0  0  0
  196.1230  175.3240  139.6220 C   0  0  2  0  0  3  0  0  0  0  0  0
  197.9410  174.4620  140.9580 O   0  0  0  0  0  1  0  0  0  0  0  0
  195.8040  172.2980  137.3820 C   0  0  0  0  0  3  0  0  0  0  0  0
  194.6820  172.2010  136.4920 N   0  0  0  0  0  2  0  0  0  0  0  0
  193.6360  171.1910  136.5280 C   0  0  0  0  0  2  0  0  0  0  0  0
  192.5830  171.5650  137.5510 C   0  0  0  0  0  2  0  0  0  0  0  0
  189.7100  170.7070  138.5720 C   0  0  0  0  0  1  0  0  0  0  0  0
  191.7860  172.7700  137.0730 C   0  0  1  0  0  3  0  0  0  0  0  0
  189.4930  173.7610  137.2670 O   0  0  0  0  0  0  0  0  0  0  0  0
  188.7120  172.8140  139.3310 C   0  0  0  0  0  2  0  0  0  0  0  0
  190.4830  172.9560  137.8460 C   0  0  1  0  0  0  0  0  0  0  0  0
  190.0070  172.1280  139.0170 C   0  0  2  0  0  3  0  0  0  0  0  0
  188.3380  173.5410  138.0440 C   0  0  0  0  0  2  0  0  0  0  0  0
  191.6990  173.7850  138.2000 C   0  0  0  0  0  2  0  0  0  0  0  0
  190.5060  177.0790  143.8770 C   0  0  0  0  0  2  0  0  0  0  0  0
  190.0090  176.7500  145.2530 C   0  0  0  0  0  0  0  0  0  0  0  0
  190.7550  176.2500  146.0780 O   0  0  0  0  0  0  0  0  0  0  0  0
  188.5840  177.0360  145.6060 C   0  0  0  0  0  2  0  0  0  0  0  0
  187.6150  176.2690  144.7110 C   0  0  0  0  0  2  0  0  0  0  0  0
  185.5650  179.2170  144.6330 C   0  0  0  0  0  3  0  0  0  0  0  0
  186.1890  176.8020  144.8180 C   0  0  1  0  0  3  0  0  0  0  0  0
  185.7970  176.8940  146.3030 C   0  0  0  0  0  2  0  0  0  0  0  0
  184.6840  177.9060  146.5350 C   0  0  0  0  0  2  0  0  0  0  0  0
  186.0590  178.1120  144.0530 C   0  0  0  0  0  0  0  0  0  0  0  0
  185.1910  179.2690  146.0790 C   0  0  0  0  0  2  0  0  0  0  0  0
  187.4340  178.6210  142.1830 O   0  0  0  0  0  1  0  0  0  0  0  0
  185.4220  177.6560  141.6900 O   0  0  0  0  0  0  0  0  0  0  0  0
  186.3460  178.1500  142.6060 C   0  0  0  0  0  0  0  0  0  0  0  0
  190.2760  175.3470  142.1220 C   0  0  0  0  0  2  0  0  0  0  0  0
  189.3920  174.2250  142.6260 C   0  0  0  0  0  2  0  0  0  0  0  0
  190.2110  173.2590  143.4650 C   0  0  0  0  0  2  0  0  0  0  0  0
  190.3130  171.8860  142.8160 C   0  0  0  0  0  2  0  0  0  0  0  0
  191.6520  171.2350  143.1140 C   0  0  0  0  0  2  0  0  0  0  0  0
  192.1720  171.6970  144.4630 C   0  0  0  0  0  2  0  0  0  0  0  0
  193.6270  171.8550  144.4200 N   0  0  0  0  0  0  0  0  0  0  0  0
  193.9920  173.2750  144.3010 C   0  0  2  0  0  3  0  0  0  0  0  0
  195.7420  174.6510  144.8930 O   0  0  0  0  0  0  0  0  0  0  0  0
  195.4710  173.5120  144.1470 C   0  0  0  0  0  2  0  0  0  0  0  0
  193.5810  173.9890  145.4250 O   0  0  0  0  0  0  0  0  0  0  0  0
  194.3600  176.1260  146.1590 C   0  0  0  0  0  1  0  0  0  0  0  0
  194.7240  174.6870  145.8570 C   0  0  2  0  0  3  0  0  0  0  0  0
  194.1290  171.3920  145.5940 O   0  0  0  0  0  0  0  0  0  0  0  0
  194.9130  169.9270  143.8720 C   0  0  0  0  0  1  0  0  0  0  0  0
  194.5160  170.0750  145.3310 C   0  0  1  0  0  3  0  0  0  0  0  0
  195.6520  169.6530  146.2560 C   0  0  0  0  0  2  0  0  0  0  0  0
  196.7760  170.6770  146.2940 C   0  0  0  0  0  1  0  0  0  0  0  0
  1 39  1  6  0  0  0
  1 25  1  0  0  0  0
  2  1  1  0  0  0  0
  3  2  1  0  0  0  0
  4  3  2  0  0  0  0
  5  3  1  0  0  0  0
  6  5  1  0  0  0  0
  7  9  1  0  0  0  0
  8  7  1  0  0  0  0
  8 11  1  0  0  0  0
  9 10  1  0  0  0  0
 10 12  1  1  0  0  0
 11 10  1  0  0  0  0
 11  6  1  1  0  0  0
 13  7  2  0  0  0  0
 14 15  1  0  0  0  0
 14 13  1  0  0  0  0
 15 16  1  0  0  0  0
 18 16  1  1  0  0  0
 18 21  1  0  0  0  0
 18 24  1  0  0  0  0
 19 21  1  0  0  0  0
 19 23  1  0  0  0  0
 21 24  1  1  0  0  0
 21 22  1  0  0  0  0
 22 17  1  6  0  0  0
 22 20  1  0  0  0  0
 23 20  1  0  0  0  0
 25 26  1  0  0  0  0
 26 28  1  0  0  0  0
 26 27  2  0  0  0  0
 29 28  1  0  0  0  0
 30 35  1  0  0  0  0
 31 29  1  1  0  0  0
 31 32  1  0  0  0  0
 32 33  1  0  0  0  0
 34 30  2  0  0  0  0
 34 31  1  0  0  0  0
 35 33  1  0  0  0  0
 36 38  1  0  0  0  0
 37 38  2  0  0  0  0
 38 34  1  0  0  0  0
 39 40  1  0  0  0  0
 40 41  1  0  0  0  0
 42 43  1  0  0  0  0
 42 41  1  0  0  0  0
 43 44  1  0  0  0  0
 45 44  1  0  0  0  0
 45 52  1  0  0  0  0
 46 45  1  1  0  0  0
 46 49  1  0  0  0  0
 47 51  1  0  0  0  0
 48 46  1  0  0  0  0
 48 47  1  0  0  0  0
 49 51  1  0  0  0  0
 51 50  1  6  0  0  0
 54 53  1  6  0  0  0
 54 52  1  0  0  0  0
 54 55  1  0  0  0  0
 55 56  1  0  0  0  0
M  END
>  <MODEL>
3

>  <REMARK>
 VINA RESULT:      -5.9      2.472      9.153
  Name = 
  25 active torsions:
  status: ('A' for Active; 'I' for Inactive)
    1  A    between atoms: C_1  and  C_32
    2  A    between atoms: C_3  and  C_9
    3  A    between atoms: C_3  and  C_25
    4  A    between atoms: C_4  and  C_35
    5  A    between atoms: C_5  and  C_25
    6  A    between atoms: C_5  and  C_35
    7  A    between atoms: C_7  and  N_13
    8  A    between atoms: C_9  and  N_11
    9  A    between atoms: C_9  and  C_15
   10  A    between atoms: C_12  and  C_21
   11  A    between atoms: C_12  and  C_55
   12  A    between atoms: N_13  and  O_51
   13  A    between atoms: N_13  and  C_53
   14  A    between atoms: C_14  and  N_54
   15  A    between atoms: C_14  and  C_56
   16  A    between atoms: C_15  and  C_21
   17  A    between atoms: C_27  and  N_46
   18  A    between atoms: C_28  and  C_44
   19  A    between atoms: C_29  and  C_53
   20  A    between atoms: C_29  and  C_55
   21  A    between atoms: C_32  and  O_51
   22  A    between atoms: C_33  and  C_56
   23  A    between atoms: C_36  and  N_54
   24  A    between atoms: C_42  and  C_47
   25  A    between atoms: N_46  and  C_47
                            x       y       z     vdW  Elec       q    Type
                         _______ _______ _______ _____ _____    ______ ____

>  <TORSDO>
F 25

$$$$
=
 OpenBabel11042419373D

 56 60  0  0  1  0  0  0  0  0999 V2000
  190.7680  176.5460  143.4700 C   0  0  1  0  0  3  0  0  0  0  0  0
  192.1020  176.9080  143.0030 N   0  0  0  0  0  2  0  0  0  0  0  0
  193.0230  175.9610  142.4550 C   0  0  0  0  0  0  0  0  0  0  0  0
  192.7500  174.7270  142.4420 O   0  0  0  0  0  0  0  0  0  0  0  0
  194.3320  176.4340  141.9250 C   0  0  0  0  0  2  0  0  0  0  0  0
  195.2720  175.3300  141.8540 N   0  0  0  0  0  2  0  0  0  0  0  0
  196.2890  173.4560  139.5410 C   0  0  0  0  0  0  0  0  0  0  0  0
  195.5630  175.0590  139.2030 S   0  0  0  0  0  0  0  0  0  0  0  0
  197.3890  173.4680  140.5380 C   0  0  0  0  0  2  0  0  0  0  0  0
  197.5430  174.9010  141.0030 C   0  0  1  0  0  3  0  0  0  0  0  0
  196.2230  175.6370  140.7900 C   0  0  2  0  0  3  0  0  0  0  0  0
  197.9400  174.9400  142.3400 O   0  0  0  0  0  1  0  0  0  0  0  0
  195.8220  172.2800  139.1020 C   0  0  0  0  0  3  0  0  0  0  0  0
  194.7300  172.0810  138.1920 N   0  0  0  0  0  2  0  0  0  0  0  0
  193.7630  170.9940  138.2280 C   0  0  0  0  0  2  0  0  0  0  0  0
  192.5350  171.4130  139.0110 C   0  0  0  0  0  2  0  0  0  0  0  0
  189.5230  170.6880  138.3500 C   0  0  0  0  0  1  0  0  0  0  0  0
  192.0540  172.7790  138.5490 C   0  0  1  0  0  3  0  0  0  0  0  0
  189.9370  173.9630  137.9210 O   0  0  0  0  0  0  0  0  0  0  0  0
  188.2780  172.6700  139.0800 C   0  0  0  0  0  2  0  0  0  0  0  0
  190.5390  172.9370  138.6600 C   0  0  1  0  0  0  0  0  0  0  0  0
  189.5710  171.9260  139.2290 C   0  0  2  0  0  3  0  0  0  0  0  0
  188.5530  173.7100  138.0000 C   0  0  0  0  0  2  0  0  0  0  0  0
  191.4430  173.5150  139.7290 C   0  0  0  0  0  2  0  0  0  0  0  0
  190.1580  177.6930  144.2690 C   0  0  0  0  0  2  0  0  0  0  0  0
  189.6400  177.2090  145.5900 C   0  0  0  0  0  0  0  0  0  0  0  0
  190.3930  176.6920  146.3990 O   0  0  0  0  0  0  0  0  0  0  0  0
  188.1870  177.3590  145.9080 C   0  0  0  0  0  2  0  0  0  0  0  0
  187.3220  176.4500  145.0410 C   0  0  0  0  0  2  0  0  0  0  0  0
  185.0250  179.1920  144.7220 C   0  0  0  0  0  3  0  0  0  0  0  0
  185.8510  176.8570  145.0690 C   0  0  1  0  0  3  0  0  0  0  0  0
  185.3960  176.9960  146.5330 C   0  0  0  0  0  2  0  0  0  0  0  0
  184.1900  177.9150  146.6680 C   0  0  0  0  0  2  0  0  0  0  0  0
  185.6360  178.1050  144.2250 C   0  0  0  0  0  0  0  0  0  0  0  0
  184.5920  179.2900  146.1500 C   0  0  0  0  0  2  0  0  0  0  0  0
  187.1490  178.3290  142.4060 O   0  0  0  0  0  1  0  0  0  0  0  0
  185.0000  177.7970  141.8380 O   0  0  0  0  0  0  0  0  0  0  0  0
  185.9730  178.0890  142.7890 C   0  0  0  0  0  0  0  0  0  0  0  0
  189.8820  176.2530  142.2740 C   0  0  0  0  0  2  0  0  0  0  0  0
  189.2340  174.8910  142.4100 C   0  0  0  0  0  2  0  0  0  0  0  0
  189.6310  174.2580  143.7330 C   0  0  0  0  0  2  0  0  0  0  0  0
  190.1770  172.8490  143.5490 C   0  0  0  0  0  2  0  0  0  0  0  0
  191.4910  172.6680  144.2890 C   0  0  0  0  0  2  0  0  0  0  0  0
  191.9890  171.2430  144.1330 C   0  0  0  0  0  2  0  0  0  0  0  0
  193.3660  171.1290  144.6170 N   0  0  0  0  0  0  0  0  0  0  0  0
  194.0250  169.9480  144.0380 C   0  0  2  0  0  3  0  0  0  0  0  0
  195.9360  168.7090  144.3860 O   0  0  0  0  0  0  0  0  0  0  0  0
  194.7850  169.1240  145.0430 C   0  0  0  0  0  2  0  0  0  0  0  0
  194.9330  170.3220  143.0490 O   0  0  0  0  0  0  0  0  0  0  0  0
  196.7350  169.0260  142.1610 C   0  0  0  0  0  1  0  0  0  0  0  0
  196.1370  169.6780  143.3900 C   0  0  2  0  0  3  0  0  0  0  0  0
  194.0430  172.2310  144.2020 O   0  0  0  0  0  0  0  0  0  0  0  0
  196.1550  172.8040  145.1690 C   0  0  0  0  0  1  0  0  0  0  0  0
  194.6490  172.7420  145.3530 C   0  0  1  0  0  3  0  0  0  0  0  0
  194.0800  174.1140  145.6970 C   0  0  0  0  0  2  0  0  0  0  0  0
  195.1610  175.1790  145.8010 C   0  0  0  0  0  1  0  0  0  0  0  0
  1 39  1  6  0  0  0
  1 25  1  0  0  0  0
  2  1  1  0  0  0  0
  3  2  1  0  0  0  0
  4  3  2  0  0  0  0
  5  3  1  0  0  0  0
  6  5  1  0  0  0  0
  7  9  1  0  0  0  0
  8  7  1  0  0  0  0
  8 11  1  0  0  0  0
  9 10  1  0  0  0  0
 10 12  1  1  0  0  0
 11 10  1  0  0  0  0
 11  6  1  1  0  0  0
 13  7  2  0  0  0  0
 14 15  1  0  0  0  0
 14 13  1  0  0  0  0
 15 16  1  0  0  0  0
 18 21  1  0  0  0  0
 18 16  1  1  0  0  0
 18 24  1  0  0  0  0
 19 23  1  0  0  0  0
 19 21  1  0  0  0  0
 20 22  1  0  0  0  0
 21 22  1  0  0  0  0
 21 24  1  1  0  0  0
 22 17  1  6  0  0  0
 23 20  1  0  0  0  0
 25 26  1  0  0  0  0
 26 28  1  0  0  0  0
 26 27  2  0  0  0  0
 29 28  1  0  0  0  0
 30 35  1  0  0  0  0
 31 29  1  1  0  0  0
 31 32  1  0  0  0  0
 32 33  1  0  0  0  0
 34 30  2  0  0  0  0
 34 31  1  0  0  0  0
 35 33  1  0  0  0  0
 36 38  1  0  0  0  0
 37 38  2  0  0  0  0
 38 34  1  0  0  0  0
 39 40  1  0  0  0  0
 40 41  1  0  0  0  0
 42 41  1  0  0  0  0
 42 43  1  0  0  0  0
 44 43  1  0  0  0  0
 44 45  1  0  0  0  0
 46 45  1  1  0  0  0
 46 48  1  0  0  0  0
 47 48  1  0  0  0  0
 49 51  1  0  0  0  0
 49 46  1  0  0  0  0
 51 50  1  6  0  0  0
 51 47  1  0  0  0  0
 52 45  1  0  0  0  0
 52 54  1  0  0  0  0
 54 53  1  6  0  0  0
 54 55  1  0  0  0  0
 55 56  1  0  0  0  0
M  END
>  <MODEL>
4

>  <REMARK>
 VINA RESULT:      -5.8      2.384      9.217
  Name = 
  25 active torsions:
  status: ('A' for Active; 'I' for Inactive)
    1  A    between atoms: C_1  and  C_32
    2  A    between atoms: C_3  and  C_9
    3  A    between atoms: C_3  and  C_25
    4  A    between atoms: C_4  and  C_35
    5  A    between atoms: C_5  and  C_25
    6  A    between atoms: C_5  and  C_35
    7  A    between atoms: C_7  and  N_13
    8  A    between atoms: C_9  and  N_11
    9  A    between atoms: C_9  and  C_15
   10  A    between atoms: C_12  and  C_21
   11  A    between atoms: C_12  and  C_55
   12  A    between atoms: N_13  and  O_51
   13  A    between atoms: N_13  and  C_53
   14  A    between atoms: C_14  and  N_54
   15  A    between atoms: C_14  and  C_56
   16  A    between atoms: C_15  and  C_21
   17  A    between atoms: C_27  and  N_46
   18  A    between atoms: C_28  and  C_44
   19  A    between atoms: C_29  and  C_53
   20  A    between atoms: C_29  and  C_55
   21  A    between atoms: C_32  and  O_51
   22  A    between atoms: C_33  and  C_56
   23  A    between atoms: C_36  and  N_54
   24  A    between atoms: C_42  and  C_47
   25  A    between atoms: N_46  and  C_47
                            x       y       z     vdW  Elec       q    Type
                         _______ _______ _______ _____ _____    ______ ____

>  <TORSDO>
F 25

$$$$
=
 OpenBabel11042419373D

 56 60  0  0  1  0  0  0  0  0999 V2000
  184.9560  178.4700  142.2710 C   0  0  1  0  0  3  0  0  0  0  0  0
  185.6630  177.1940  142.2940 N   0  0  0  0  0  2  0  0  0  0  0  0
  186.7930  176.9110  141.4640 C   0  0  0  0  0  0  0  0  0  0  0  0
  187.1770  177.7380  140.5900 O   0  0  0  0  0  0  0  0  0  0  0  0
  187.5050  175.6110  141.6150 C   0  0  0  0  0  2  0  0  0  0  0  0
  188.3490  175.3660  140.4590 N   0  0  0  0  0  2  0  0  0  0  0  0
  190.4060  173.3160  139.2500 C   0  0  0  0  0  0  0  0  0  0  0  0
  189.4230  172.9210  140.6940 S   0  0  0  0  0  0  0  0  0  0  0  0
  189.6310  173.8150  138.0860 C   0  0  0  0  0  2  0  0  0  0  0  0
  188.1790  173.8650  138.5140 C   0  0  1  0  0  3  0  0  0  0  0  0
  188.1150  173.9900  140.0350 C   0  0  2  0  0  3  0  0  0  0  0  0
  187.5200  174.9210  137.8870 O   0  0  0  0  0  1  0  0  0  0  0  0
  191.7440  173.3480  139.2010 C   0  0  0  0  0  3  0  0  0  0  0  0
  192.6460  172.9660  140.2510 N   0  0  0  0  0  2  0  0  0  0  0  0
  193.4580  173.8610  141.0600 C   0  0  0  0  0  2  0  0  0  0  0  0
  194.9300  173.5810  140.8310 C   0  0  0  0  0  2  0  0  0  0  0  0
  197.3360  175.3060  141.9580 C   0  0  0  0  0  1  0  0  0  0  0  0
  195.4530  172.6100  141.8780 C   0  0  1  0  0  3  0  0  0  0  0  0
  197.1090  172.5140  143.7560 O   0  0  0  0  0  0  0  0  0  0  0  0
  197.3130  174.8280  144.3630 C   0  0  0  0  0  2  0  0  0  0  0  0
  196.2610  173.3060  142.9720 C   0  0  1  0  0  0  0  0  0  0  0  0
  196.4900  174.7930  143.1110 C   0  0  2  0  0  3  0  0  0  0  0  0
  197.9040  173.4270  144.4770 C   0  0  0  0  0  2  0  0  0  0  0  0
  194.8130  172.9340  143.2180 C   0  0  0  0  0  2  0  0  0  0  0  0
  183.4530  178.2450  142.4080 C   0  0  0  0  0  2  0  0  0  0  0  0
  182.7720  178.3620  141.0780 C   0  0  0  0  0  0  0  0  0  0  0  0
  183.3330  177.9940  140.0600 O   0  0  0  0  0  0  0  0  0  0  0  0
  181.3950  178.9400  141.0080 C   0  0  0  0  0  2  0  0  0  0  0  0
  180.4760  178.1080  140.1200 C   0  0  0  0  0  2  0  0  0  0  0  0
  177.8450  179.9390  141.7390 C   0  0  0  0  0  3  0  0  0  0  0  0
  179.0560  178.0280  140.6750 C   0  0  1  0  0  3  0  0  0  0  0  0
  179.0980  177.3780  142.0690 C   0  0  0  0  0  2  0  0  0  0  0  0
  177.8900  177.7630  142.9110 C   0  0  0  0  0  2  0  0  0  0  0  0
  178.4020  179.4020  140.6420 C   0  0  0  0  0  0  0  0  0  0  0  0
  177.9020  179.2770  143.0780 C   0  0  0  0  0  2  0  0  0  0  0  0
  178.5510  181.3270  139.2580 O   0  0  0  0  0  1  0  0  0  0  0  0
  177.7600  179.4420  138.2370 O   0  0  0  0  0  0  0  0  0  0  0  0
  178.2420  180.1100  139.3590 C   0  0  0  0  0  0  0  0  0  0  0  0
  185.4340  179.3260  143.4290 C   0  0  0  0  0  2  0  0  0  0  0  0
  184.5810  179.0870  144.6580 C   0  0  0  0  0  2  0  0  0  0  0  0
  185.3710  178.3000  145.6900 C   0  0  0  0  0  2  0  0  0  0  0  0
  186.8710  178.5130  145.5420 C   0  0  0  0  0  2  0  0  0  0  0  0
  187.6050  177.1880  145.4230 C   0  0  0  0  0  2  0  0  0  0  0  0
  189.0360  177.3360  145.9060 C   0  0  0  0  0  2  0  0  0  0  0  0
  189.8970  176.3500  145.2510 N   0  0  0  0  0  0  0  0  0  0  0  0
  189.2650  175.0210  145.2580 C   0  0  2  0  0  3  0  0  0  0  0  0
  189.7240  172.9090  146.0550 O   0  0  0  0  0  0  0  0  0  0  0  0
  189.5590  174.2150  146.4950 C   0  0  0  0  0  2  0  0  0  0  0  0
  189.6920  174.2630  144.1690 O   0  0  0  0  0  0  0  0  0  0  0  0
  189.5620  171.8910  143.9030 C   0  0  0  0  0  1  0  0  0  0  0  0
  190.1220  173.0400  144.7160 C   0  0  2  0  0  3  0  0  0  0  0  0
  190.0530  176.7320  143.9570 O   0  0  0  0  0  0  0  0  0  0  0  0
  191.5370  178.5860  143.6660 C   0  0  0  0  0  1  0  0  0  0  0  0
  191.4010  177.0840  143.8400 C   0  0  1  0  0  3  0  0  0  0  0  0
  192.1910  176.5960  145.0490 C   0  0  0  0  0  2  0  0  0  0  0  0
  193.6930  176.7320  144.8510 C   0  0  0  0  0  1  0  0  0  0  0  0
  1  2  1  0  0  0  0
  1 25  1  1  0  0  0
  1 39  1  0  0  0  0
  3  5  1  0  0  0  0
  3  2  1  0  0  0  0
  4  3  2  0  0  0  0
  6  5  1  0  0  0  0
  7  8  1  0  0  0  0
  9 10  1  0  0  0  0
  9  7  1  0  0  0  0
 10 12  1  6  0  0  0
 10 11  1  0  0  0  0
 11  6  1  6  0  0  0
 11  8  1  0  0  0  0
 13  7  2  0  0  0  0
 13 14  1  0  0  0  0
 14 15  1  0  0  0  0
 16 15  1  0  0  0  0
 18 16  1  6  0  0  0
 18 21  1  0  0  0  0
 18 24  1  0  0  0  0
 19 23  1  0  0  0  0
 20 23  1  0  0  0  0
 21 22  1  0  0  0  0
 21 24  1  1  0  0  0
 21 19  1  0  0  0  0
 22 17  1  6  0  0  0
 22 20  1  0  0  0  0
 26 25  1  0  0  0  0
 27 26  2  0  0  0  0
 28 26  1  0  0  0  0
 29 28  1  0  0  0  0
 30 35  1  0  0  0  0
 31 29  1  1  0  0  0
 31 32  1  0  0  0  0
 32 33  1  0  0  0  0
 33 35  1  0  0  0  0
 34 31  1  0  0  0  0
 34 30  2  0  0  0  0
 36 38  1  0  0  0  0
 37 38  2  0  0  0  0
 38 34  1  0  0  0  0
 39 40  1  0  0  0  0
 40 41  1  0  0  0  0
 42 41  1  0  0  0  0
 43 42  1  0  0  0  0
 43 44  1  0  0  0  0
 45 44  1  0  0  0  0
 46 45  1  1  0  0  0
 46 48  1  0  0  0  0
 47 48  1  0  0  0  0
 49 51  1  0  0  0  0
 49 46  1  0  0  0  0
 51 50  1  6  0  0  0
 51 47  1  0  0  0  0
 52 45  1  0  0  0  0
 54 53  1  1  0  0  0
 54 52  1  0  0  0  0
 54 55  1  0  0  0  0
 56 55  1  0  0  0  0
M  END
>  <MODEL>
5

>  <REMARK>
 VINA RESULT:      -5.8      3.044      9.909
  Name = 
  25 active torsions:
  status: ('A' for Active; 'I' for Inactive)
    1  A    between atoms: C_1  and  C_32
    2  A    between atoms: C_3  and  C_9
    3  A    between atoms: C_3  and  C_25
    4  A    between atoms: C_4  and  C_35
    5  A    between atoms: C_5  and  C_25
    6  A    between atoms: C_5  and  C_35
    7  A    between atoms: C_7  and  N_13
    8  A    between atoms: C_9  and  N_11
    9  A    between atoms: C_9  and  C_15
   10  A    between atoms: C_12  and  C_21
   11  A    between atoms: C_12  and  C_55
   12  A    between atoms: N_13  and  O_51
   13  A    between atoms: N_13  and  C_53
   14  A    between atoms: C_14  and  N_54
   15  A    between atoms: C_14  and  C_56
   16  A    between atoms: C_15  and  C_21
   17  A    between atoms: C_27  and  N_46
   18  A    between atoms: C_28  and  C_44
   19  A    between atoms: C_29  and  C_53
   20  A    between atoms: C_29  and  C_55
   21  A    between atoms: C_32  and  O_51
   22  A    between atoms: C_33  and  C_56
   23  A    between atoms: C_36  and  N_54
   24  A    between atoms: C_42  and  C_47
   25  A    between atoms: N_46  and  C_47
                            x       y       z     vdW  Elec       q    Type
                         _______ _______ _______ _____ _____    ______ ____

>  <TORSDO>
F 25

$$$$
=
 OpenBabel11042419373D

 56 60  0  0  1  0  0  0  0  0999 V2000
  188.1420  175.0730  141.4490 C   0  0  1  0  0  3  0  0  0  0  0  0
  188.3170  174.2890  142.6660 N   0  0  0  0  0  2  0  0  0  0  0  0
  189.5970  173.8730  143.1520 C   0  0  0  0  0  0  0  0  0  0  0  0
  190.6440  174.0900  142.4810 O   0  0  0  0  0  0  0  0  0  0  0  0
  189.6870  173.1480  144.4500 C   0  0  0  0  0  2  0  0  0  0  0  0
  190.5610  173.8630  145.3630 N   0  0  0  0  0  2  0  0  0  0  0  0
  191.7930  176.3440  146.8530 C   0  0  0  0  0  0  0  0  0  0  0  0
  191.1190  176.4800  145.1990 S   0  0  0  0  0  0  0  0  0  0  0  0
  190.8870  175.7110  147.8450 C   0  0  0  0  0  2  0  0  0  0  0  0
  189.6220  175.3310  147.1040 C   0  0  1  0  0  3  0  0  0  0  0  0
  189.9470  175.1620  145.6220 C   0  0  2  0  0  3  0  0  0  0  0  0
  189.0710  174.1690  147.6420 O   0  0  0  0  0  1  0  0  0  0  0  0
  193.0570  176.6110  147.2060 C   0  0  0  0  0  3  0  0  0  0  0  0
  194.0800  177.1610  146.3620 N   0  0  0  0  0  2  0  0  0  0  0  0
  194.8720  176.4360  145.3800 C   0  0  0  0  0  2  0  0  0  0  0  0
  195.1010  175.0120  145.8430 C   0  0  0  0  0  2  0  0  0  0  0  0
  197.4620  172.9870  145.2450 C   0  0  0  0  0  1  0  0  0  0  0  0
  194.3610  174.0370  144.9390 C   0  0  1  0  0  3  0  0  0  0  0  0
  194.6880  171.8160  143.8270 O   0  0  0  0  0  0  0  0  0  0  0  0
  196.3570  170.7990  145.2230 C   0  0  0  0  0  2  0  0  0  0  0  0
  195.0220  172.6620  144.8920 C   0  0  1  0  0  0  0  0  0  0  0  0
  196.2280  172.2180  145.6860 C   0  0  2  0  0  3  0  0  0  0  0  0
  195.6190  170.7600  143.8890 C   0  0  0  0  0  2  0  0  0  0  0  0
  193.8180  172.8950  145.7810 C   0  0  0  0  0  2  0  0  0  0  0  0
  188.5680  176.5190  141.6850 C   0  0  0  0  0  2  0  0  0  0  0  0
  187.4390  177.3210  142.2590 C   0  0  0  0  0  0  0  0  0  0  0  0
  186.6820  177.9370  141.5270 O   0  0  0  0  0  0  0  0  0  0  0  0
  187.2500  177.3640  143.7410 C   0  0  0  0  0  2  0  0  0  0  0  0
  186.0160  176.5800  144.1770 C   0  0  0  0  0  2  0  0  0  0  0  0
  185.9770  179.3360  146.4800 C   0  0  0  0  0  3  0  0  0  0  0  0
  185.4320  177.1070  145.4850 C   0  0  1  0  0  3  0  0  0  0  0  0
  186.1960  176.4800  146.6650 C   0  0  0  0  0  2  0  0  0  0  0  0
  186.0980  177.3320  147.9220 C   0  0  0  0  0  2  0  0  0  0  0  0
  185.4240  178.6290  145.4820 C   0  0  0  0  0  0  0  0  0  0  0  0
  186.7100  178.6920  147.6130 C   0  0  0  0  0  2  0  0  0  0  0  0
  183.4330  179.2040  144.3200 O   0  0  0  0  0  1  0  0  0  0  0  0
  185.3350  180.2350  143.5820 O   0  0  0  0  0  0  0  0  0  0  0  0
  184.6770  179.3580  144.4400 C   0  0  0  0  0  0  0  0  0  0  0  0
  189.0000  174.4810  140.3460 C   0  0  0  0  0  2  0  0  0  0  0  0
  188.2290  174.4210  139.0430 C   0  0  0  0  0  2  0  0  0  0  0  0
  188.5850  173.1500  138.2900 C   0  0  0  0  0  2  0  0  0  0  0  0
  189.0430  173.4410  136.8680 C   0  0  0  0  0  2  0  0  0  0  0  0
  190.5460  173.6580  136.8080 C   0  0  0  0  0  2  0  0  0  0  0  0
  191.2720  172.3280  136.8880 C   0  0  0  0  0  2  0  0  0  0  0  0
  192.2770  172.3610  137.9520 N   0  0  0  0  0  0  0  0  0  0  0  0
  192.0640  171.2590  138.9030 C   0  0  2  0  0  3  0  0  0  0  0  0
  190.3480  169.8690  139.5590 O   0  0  0  0  0  0  0  0  0  0  0  0
  191.0690  170.2330  138.4300 C   0  0  0  0  0  2  0  0  0  0  0  0
  191.6000  171.7410  140.1250 O   0  0  0  0  0  0  0  0  0  0  0  0
  190.4940  170.5120  141.8520 C   0  0  0  0  0  1  0  0  0  0  0  0
  190.4520  170.9790  140.4110 C   0  0  2  0  0  3  0  0  0  0  0  0
  193.4950  172.1860  137.3760 O   0  0  0  0  0  0  0  0  0  0  0  0
  195.7930  172.3350  138.0250 C   0  0  0  0  0  1  0  0  0  0  0  0
  194.3880  172.8860  138.1920 C   0  0  1  0  0  3  0  0  0  0  0  0
  194.3420  174.3790  137.8840 C   0  0  0  0  0  2  0  0  0  0  0  0
  194.3770  175.2300  139.1440 C   0  0  0  0  0  1  0  0  0  0  0  0
  1 39  1  6  0  0  0
  1 25  1  0  0  0  0
  1  2  1  0  0  0  0
  2  3  1  0  0  0  0
  3  5  1  0  0  0  0
  4  3  2  0  0  0  0
  5  6  1  0  0  0  0
  7 13  2  0  0  0  0
  7  9  1  0  0  0  0
  8 11  1  0  0  0  0
  8  7  1  0  0  0  0
 10 12  1  1  0  0  0
 10  9  1  0  0  0  0
 11  6  1  1  0  0  0
 11 10  1  0  0  0  0
 14 13  1  0  0  0  0
 15 16  1  0  0  0  0
 15 14  1  0  0  0  0
 18 24  1  0  0  0  0
 18 16  1  1  0  0  0
 19 23  1  0  0  0  0
 19 21  1  0  0  0  0
 20 22  1  0  0  0  0
 21 18  1  0  0  0  0
 21 22  1  0  0  0  0
 21 24  1  1  0  0  0
 22 17  1  6  0  0  0
 23 20  1  0  0  0  0
 25 26  1  0  0  0  0
 26 28  1  0  0  0  0
 27 26  2  0  0  0  0
 28 29  1  0  0  0  0
 30 35  1  0  0  0  0
 31 29  1  6  0  0  0
 31 32  1  0  0  0  0
 32 33  1  0  0  0  0
 34 31  1  0  0  0  0
 34 30  2  0  0  0  0
 35 33  1  0  0  0  0
 36 38  1  0  0  0  0
 37 38  2  0  0  0  0
 38 34  1  0  0  0  0
 40 39  1  0  0  0  0
 41 40  1  0  0  0  0
 42 41  1  0  0  0  0
 43 42  1  0  0  0  0
 43 44  1  0  0  0  0
 44 45  1  0  0  0  0
 46 45  1  6  0  0  0
 46 49  1  0  0  0  0
 47 51  1  0  0  0  0
 48 46  1  0  0  0  0
 48 47  1  0  0  0  0
 49 51  1  0  0  0  0
 51 50  1  1  0  0  0
 52 45  1  0  0  0  0
 52 54  1  0  0  0  0
 54 53  1  6  0  0  0
 55 54  1  0  0  0  0
 55 56  1  0  0  0  0
M  END
>  <MODEL>
6

>  <REMARK>
 VINA RESULT:      -5.7      2.601      9.126
  Name = 
  25 active torsions:
  status: ('A' for Active; 'I' for Inactive)
    1  A    between atoms: C_1  and  C_32
    2  A    between atoms: C_3  and  C_9
    3  A    between atoms: C_3  and  C_25
    4  A    between atoms: C_4  and  C_35
    5  A    between atoms: C_5  and  C_25
    6  A    between atoms: C_5  and  C_35
    7  A    between atoms: C_7  and  N_13
    8  A    between atoms: C_9  and  N_11
    9  A    between atoms: C_9  and  C_15
   10  A    between atoms: C_12  and  C_21
   11  A    between atoms: C_12  and  C_55
   12  A    between atoms: N_13  and  O_51
   13  A    between atoms: N_13  and  C_53
   14  A    between atoms: C_14  and  N_54
   15  A    between atoms: C_14  and  C_56
   16  A    between atoms: C_15  and  C_21
   17  A    between atoms: C_27  and  N_46
   18  A    between atoms: C_28  and  C_44
   19  A    between atoms: C_29  and  C_53
   20  A    between atoms: C_29  and  C_55
   21  A    between atoms: C_32  and  O_51
   22  A    between atoms: C_33  and  C_56
   23  A    between atoms: C_36  and  N_54
   24  A    between atoms: C_42  and  C_47
   25  A    between atoms: N_46  and  C_47
                            x       y       z     vdW  Elec       q    Type
                         _______ _______ _______ _____ _____    ______ ____

>  <TORSDO>
F 25

$$$$
=
 OpenBabel11042419373D

 56 60  0  0  1  0  0  0  0  0999 V2000
  186.0820  176.6480  143.4720 C   0  0  1  0  0  3  0  0  0  0  0  0
  186.5850  175.3920  142.9290 N   0  0  0  0  0  2  0  0  0  0  0  0
  187.6930  175.3160  142.0280 C   0  0  0  0  0  0  0  0  0  0  0  0
  188.2350  176.3660  141.5800 O   0  0  0  0  0  0  0  0  0  0  0  0
  188.1920  173.9830  141.5900 C   0  0  0  0  0  2  0  0  0  0  0  0
  189.0460  174.1260  140.4240 N   0  0  0  0  0  2  0  0  0  0  0  0
  191.7010  173.3390  138.9320 C   0  0  0  0  0  0  0  0  0  0  0  0
  191.2780  172.6450  140.5290 S   0  0  0  0  0  0  0  0  0  0  0  0
  190.6360  173.2320  137.9030 C   0  0  0  0  0  2  0  0  0  0  0  0
  189.4520  172.5600  138.5670 C   0  0  1  0  0  3  0  0  0  0  0  0
  189.5290  172.7940  140.0740 C   0  0  2  0  0  3  0  0  0  0  0  0
  188.2560  173.0410  138.0360 O   0  0  0  0  0  1  0  0  0  0  0  0
  192.7960  174.0620  138.6610 C   0  0  0  0  0  3  0  0  0  0  0  0
  193.8900  174.3220  139.5530 N   0  0  0  0  0  2  0  0  0  0  0  0
  194.8790  175.3810  139.4210 C   0  0  0  0  0  2  0  0  0  0  0  0
  195.7480  175.4420  140.6610 C   0  0  0  0  0  2  0  0  0  0  0  0
  197.8660  173.4570  141.9280 C   0  0  0  0  0  1  0  0  0  0  0  0
  194.9590  174.9950  141.8820 C   0  0  1  0  0  3  0  0  0  0  0  0
  195.2590  173.6690  143.9870 O   0  0  0  0  0  0  0  0  0  0  0  0
  197.6290  173.8220  144.3410 C   0  0  0  0  0  2  0  0  0  0  0  0
  195.8560  174.4590  142.9960 C   0  0  1  0  0  0  0  0  0  0  0  0
  197.3660  174.4200  142.9920 C   0  0  2  0  0  3  0  0  0  0  0  0
  196.3330  173.1080  144.7070 C   0  0  0  0  0  2  0  0  0  0  0  0
  195.3300  175.8780  143.0620 C   0  0  0  0  0  2  0  0  0  0  0  0
  187.2020  177.4040  144.1800 C   0  0  0  0  0  2  0  0  0  0  0  0
  187.4340  176.8520  145.5550 C   0  0  0  0  0  0  0  0  0  0  0  0
  186.4960  176.6650  146.3130 O   0  0  0  0  0  0  0  0  0  0  0  0
  188.8270  176.5340  145.9920 C   0  0  0  0  0  2  0  0  0  0  0  0
  189.8390  177.5210  145.4190 C   0  0  0  0  0  2  0  0  0  0  0  0
  192.2360  174.8990  144.8930 C   0  0  0  0  0  3  0  0  0  0  0  0
  191.2790  177.0770  145.6640 C   0  0  1  0  0  3  0  0  0  0  0  0
  191.4000  176.5350  147.0990 C   0  0  0  0  0  2  0  0  0  0  0  0
  192.5740  175.5770  147.2460 C   0  0  0  0  0  2  0  0  0  0  0  0
  191.7170  176.0980  144.5840 C   0  0  0  0  0  0  0  0  0  0  0  0
  192.3420  174.4060  146.3000 C   0  0  0  0  0  2  0  0  0  0  0  0
  191.2310  175.7520  142.2840 O   0  0  0  0  0  0  0  0  0  0  0  0
  192.2160  177.7510  142.7910 O   0  0  0  0  0  1  0  0  0  0  0  0
  191.7080  176.5110  143.1680 C   0  0  0  0  0  0  0  0  0  0  0  0
  185.5500  177.5050  142.3380 C   0  0  0  0  0  2  0  0  0  0  0  0
  184.1520  177.9970  142.6500 C   0  0  0  0  0  2  0  0  0  0  0  0
  183.3890  178.2400  141.3590 C   0  0  0  0  0  2  0  0  0  0  0  0
  181.8830  178.2020  141.5720 C   0  0  0  0  0  2  0  0  0  0  0  0
  181.1580  179.0260  140.5220 C   0  0  0  0  0  2  0  0  0  0  0  0
  179.8240  178.3880  140.1820 C   0  0  0  0  0  2  0  0  0  0  0  0
  178.7620  178.9560  141.0140 N   0  0  0  0  0  0  0  0  0  0  0  0
  178.0610  180.0330  140.2970 C   0  0  2  0  0  3  0  0  0  0  0  0
  178.2470  181.1670  138.3010 O   0  0  0  0  0  0  0  0  0  0  0  0
  178.0850  179.8820  138.7990 C   0  0  0  0  0  2  0  0  0  0  0  0
  178.6260  181.2740  140.5890 O   0  0  0  0  0  0  0  0  0  0  0  0
  178.4040  183.3050  139.3490 C   0  0  0  0  0  1  0  0  0  0  0  0
  178.8800  181.8670  139.3390 C   0  0  2  0  0  3  0  0  0  0  0  0
  177.8630  177.9710  141.2690 O   0  0  0  0  0  0  0  0  0  0  0  0
  178.0590  176.4520  143.1080 C   0  0  0  0  0  1  0  0  0  0  0  0
  177.8040  177.8820  142.6630 C   0  0  1  0  0  3  0  0  0  0  0  0
  178.7970  178.8440  143.3050 C   0  0  0  0  0  2  0  0  0  0  0  0
  178.3830  179.2460  144.7130 C   0  0  0  0  0  1  0  0  0  0  0  0
  1 39  1  6  0  0  0
  1 25  1  0  0  0  0
  2  1  1  0  0  0  0
  3  2  1  0  0  0  0
  4  3  2  0  0  0  0
  5  3  1  0  0  0  0
  6  5  1  0  0  0  0
  7  8  1  0  0  0  0
  9 10  1  0  0  0  0
  9  7  1  0  0  0  0
 10 12  1  6  0  0  0
 10 11  1  0  0  0  0
 11  6  1  6  0  0  0
 11  8  1  0  0  0  0
 13  7  2  0  0  0  0
 13 14  1  0  0  0  0
 15 14  1  0  0  0  0
 15 16  1  0  0  0  0
 18 16  1  6  0  0  0
 18 21  1  0  0  0  0
 18 24  1  0  0  0  0
 19 23  1  0  0  0  0
 20 23  1  0  0  0  0
 21 24  1  1  0  0  0
 21 19  1  0  0  0  0
 22 17  1  6  0  0  0
 22 21  1  0  0  0  0
 22 20  1  0  0  0  0
 25 26  1  0  0  0  0
 26 28  1  0  0  0  0
 26 27  2  0  0  0  0
 29 28  1  0  0  0  0
 30 35  1  0  0  0  0
 31 29  1  6  0  0  0
 31 32  1  0  0  0  0
 32 33  1  0  0  0  0
 34 30  2  0  0  0  0
 34 31  1  0  0  0  0
 35 33  1  0  0  0  0
 36 38  2  0  0  0  0
 37 38  1  0  0  0  0
 38 34  1  0  0  0  0
 39 40  1  0  0  0  0
 41 42  1  0  0  0  0
 41 40  1  0  0  0  0
 43 42  1  0  0  0  0
 44 43  1  0  0  0  0
 44 45  1  0  0  0  0
 45 52  1  0  0  0  0
 46 49  1  0  0  0  0
 46 45  1  1  0  0  0
 47 48  1  0  0  0  0
 47 51  1  0  0  0  0
 48 46  1  0  0  0  0
 51 50  1  1  0  0  0
 51 49  1  0  0  0  0
 52 54  1  0  0  0  0
 54 53  1  6  0  0  0
 54 55  1  0  0  0  0
 55 56  1  0  0  0  0
M  END
>  <MODEL>
7

>  <REMARK>
 VINA RESULT:      -5.7      3.403      7.903
  Name = 
  25 active torsions:
  status: ('A' for Active; 'I' for Inactive)
    1  A    between atoms: C_1  and  C_32
    2  A    between atoms: C_3  and  C_9
    3  A    between atoms: C_3  and  C_25
    4  A    between atoms: C_4  and  C_35
    5  A    between atoms: C_5  and  C_25
    6  A    between atoms: C_5  and  C_35
    7  A    between atoms: C_7  and  N_13
    8  A    between atoms: C_9  and  N_11
    9  A    between atoms: C_9  and  C_15
   10  A    between atoms: C_12  and  C_21
   11  A    between atoms: C_12  and  C_55
   12  A    between atoms: N_13  and  O_51
   13  A    between atoms: N_13  and  C_53
   14  A    between atoms: C_14  and  N_54
   15  A    between atoms: C_14  and  C_56
   16  A    between atoms: C_15  and  C_21
   17  A    between atoms: C_27  and  N_46
   18  A    between atoms: C_28  and  C_44
   19  A    between atoms: C_29  and  C_53
   20  A    between atoms: C_29  and  C_55
   21  A    between atoms: C_32  and  O_51
   22  A    between atoms: C_33  and  C_56
   23  A    between atoms: C_36  and  N_54
   24  A    between atoms: C_42  and  C_47
   25  A    between atoms: N_46  and  C_47
                            x       y       z     vdW  Elec       q    Type
                         _______ _______ _______ _____ _____    ______ ____

>  <TORSDO>
F 25

$$$$
=
 OpenBabel11042419373D

 56 60  0  0  1  0  0  0  0  0999 V2000
  190.5200  173.7240  141.5730 C   0  0  1  0  0  3  0  0  0  0  0  0
  191.3580  174.8550  141.9560 N   0  0  0  0  0  2  0  0  0  0  0  0
  192.7840  174.7780  142.0450 C   0  0  0  0  0  0  0  0  0  0  0  0
  193.3830  173.6780  141.8850 O   0  0  0  0  0  0  0  0  0  0  0  0
  193.5650  176.0060  142.3610 C   0  0  0  0  0  2  0  0  0  0  0  0
  194.5570  175.7190  143.3820 N   0  0  0  0  0  2  0  0  0  0  0  0
  196.5360  174.8860  141.0840 C   0  0  0  0  0  0  0  0  0  0  0  0
  195.8340  176.5320  141.1700 S   0  0  0  0  0  0  0  0  0  0  0  0
  197.1810  174.4170  142.3370 C   0  0  0  0  0  2  0  0  0  0  0  0
  197.0110  175.5230  143.3580 C   0  0  1  0  0  3  0  0  0  0  0  0
  195.7990  176.3680  142.9760 C   0  0  2  0  0  3  0  0  0  0  0  0
  196.8780  174.9880  144.6390 O   0  0  0  0  0  1  0  0  0  0  0  0
  196.3820  174.0240  140.0710 C   0  0  0  0  0  3  0  0  0  0  0  0
  195.7300  174.2860  138.8180 N   0  0  0  0  0  2  0  0  0  0  0  0
  194.3020  174.4630  138.6100 C   0  0  0  0  0  2  0  0  0  0  0  0
  193.7020  173.2100  138.0060 C   0  0  0  0  0  2  0  0  0  0  0  0
  192.6570  172.0610  135.2450 C   0  0  0  0  0  1  0  0  0  0  0  0
  192.2170  173.1270  138.3250 C   0  0  1  0  0  3  0  0  0  0  0  0
  190.0860  172.2400  137.3510 O   0  0  0  0  0  0  0  0  0  0  0  0
  190.8840  170.5000  135.9020 C   0  0  0  0  0  2  0  0  0  0  0  0
  191.4800  172.1300  137.4350 C   0  0  1  0  0  0  0  0  0  0  0  0
  192.0980  171.2320  136.3890 C   0  0  2  0  0  3  0  0  0  0  0  0
  189.7120  171.3960  136.2870 C   0  0  0  0  0  2  0  0  0  0  0  0
  191.8960  171.7330  138.8350 C   0  0  0  0  0  2  0  0  0  0  0  0
  189.8090  173.1550  142.7970 C   0  0  0  0  0  2  0  0  0  0  0  0
  190.6150  172.0540  143.4190 C   0  0  0  0  0  0  0  0  0  0  0  0
  190.6580  171.9280  144.6320 O   0  0  0  0  0  0  0  0  0  0  0  0
  191.3720  171.1120  142.5390 C   0  0  0  0  0  2  0  0  0  0  0  0
  191.9730  169.9570  143.3330 C   0  0  0  0  0  2  0  0  0  0  0  0
  195.1670  170.9390  142.0170 C   0  0  0  0  0  3  0  0  0  0  0  0
  193.2800  169.4570  142.7220 C   0  0  1  0  0  3  0  0  0  0  0  0
  193.0550  169.1620  141.2280 C   0  0  0  0  0  2  0  0  0  0  0  0
  194.3530  169.2210  140.4360 C   0  0  0  0  0  2  0  0  0  0  0  0
  194.4030  170.4450  143.0040 C   0  0  0  0  0  0  0  0  0  0  0  0
  194.9220  170.6270  140.5750 C   0  0  0  0  0  2  0  0  0  0  0  0
  194.0670  171.5800  145.0640 O   0  0  0  0  0  1  0  0  0  0  0  0
  195.8720  170.1800  144.9950 O   0  0  0  0  0  0  0  0  0  0  0  0
  194.7640  170.7710  144.3960 C   0  0  0  0  0  0  0  0  0  0  0  0
  189.4800  174.1890  140.5720 C   0  0  0  0  0  2  0  0  0  0  0  0
  188.1940  174.5720  141.2750 C   0  0  0  0  0  2  0  0  0  0  0  0
  187.9230  176.0550  141.0850 C   0  0  0  0  0  2  0  0  0  0  0  0
  187.9100  176.8050  142.4090 C   0  0  0  0  0  2  0  0  0  0  0  0
  187.3730  175.9320  143.5300 C   0  0  0  0  0  2  0  0  0  0  0  0
  188.2800  176.0190  144.7440 C   0  0  0  0  0  2  0  0  0  0  0  0
  188.4620  177.4170  145.1420 N   0  0  0  0  0  0  0  0  0  0  0  0
  187.4020  177.8340  146.0730 C   0  0  2  0  0  3  0  0  0  0  0  0
  185.5250  176.9260  147.0530 O   0  0  0  0  0  0  0  0  0  0  0  0
  186.8950  176.7240  146.9550 C   0  0  0  0  0  2  0  0  0  0  0  0
  186.3020  178.3360  145.3790 O   0  0  0  0  0  0  0  0  0  0  0  0
  184.0680  178.6050  146.1870 C   0  0  0  0  0  1  0  0  0  0  0  0
  185.1930  177.6350  145.8890 C   0  0  2  0  0  3  0  0  0  0  0  0
  189.6500  177.5100  145.7940 O   0  0  0  0  0  0  0  0  0  0  0  0
  190.9840  178.2440  143.9480 C   0  0  0  0  0  1  0  0  0  0  0  0
  190.6090  177.0930  144.8650 C   0  0  1  0  0  3  0  0  0  0  0  0
  191.8360  176.5310  145.5740 C   0  0  0  0  0  2  0  0  0  0  0  0
  191.4980  175.3340  146.4500 C   0  0  0  0  0  1  0  0  0  0  0  0
  1 39  1  6  0  0  0
  1  2  1  0  0  0  0
  1 25  1  0  0  0  0
  2  3  1  0  0  0  0
  3  5  1  0  0  0  0
  4  3  2  0  0  0  0
  5  6  1  0  0  0  0
  7  8  1  0  0  0  0
  7  9  1  0  0  0  0
  8 11  1  0  0  0  0
  9 10  1  0  0  0  0
 10 12  1  1  0  0  0
 11 10  1  0  0  0  0
 11  6  1  6  0  0  0
 13  7  2  0  0  0  0
 14 13  1  0  0  0  0
 15 14  1  0  0  0  0
 16 15  1  0  0  0  0
 18 16  1  6  0  0  0
 18 24  1  0  0  0  0
 19 21  1  0  0  0  0
 20 23  1  0  0  0  0
 20 22  1  0  0  0  0
 21 18  1  0  0  0  0
 21 24  1  1  0  0  0
 22 17  1  6  0  0  0
 22 21  1  0  0  0  0
 23 19  1  0  0  0  0
 25 26  1  0  0  0  0
 26 27  2  0  0  0  0
 28 29  1  0  0  0  0
 28 26  1  0  0  0  0
 30 34  2  0  0  0  0
 31 34  1  0  0  0  0
 31 29  1  6  0  0  0
 32 31  1  0  0  0  0
 33 35  1  0  0  0  0
 33 32  1  0  0  0  0
 34 38  1  0  0  0  0
 35 30  1  0  0  0  0
 38 37  2  0  0  0  0
 38 36  1  0  0  0  0
 39 40  1  0  0  0  0
 41 40  1  0  0  0  0
 41 42  1  0  0  0  0
 42 43  1  0  0  0  0
 43 44  1  0  0  0  0
 44 45  1  0  0  0  0
 45 52  1  0  0  0  0
 46 45  1  6  0  0  0
 46 48  1  0  0  0  0
 48 47  1  0  0  0  0
 49 51  1  0  0  0  0
 49 46  1  0  0  0  0
 51 50  1  1  0  0  0
 51 47  1  0  0  0  0
 54 53  1  1  0  0  0
 54 55  1  0  0  0  0
 54 52  1  0  0  0  0
 55 56  1  0  0  0  0
M  END
>  <MODEL>
8

>  <REMARK>
 VINA RESULT:      -5.7      2.362      6.404
  Name = 
  25 active torsions:
  status: ('A' for Active; 'I' for Inactive)
    1  A    between atoms: C_1  and  C_32
    2  A    between atoms: C_3  and  C_9
    3  A    between atoms: C_3  and  C_25
    4  A    between atoms: C_4  and  C_35
    5  A    between atoms: C_5  and  C_25
    6  A    between atoms: C_5  and  C_35
    7  A    between atoms: C_7  and  N_13
    8  A    between atoms: C_9  and  N_11
    9  A    between atoms: C_9  and  C_15
   10  A    between atoms: C_12  and  C_21
   11  A    between atoms: C_12  and  C_55
   12  A    between atoms: N_13  and  O_51
   13  A    between atoms: N_13  and  C_53
   14  A    between atoms: C_14  and  N_54
   15  A    between atoms: C_14  and  C_56
   16  A    between atoms: C_15  and  C_21
   17  A    between atoms: C_27  and  N_46
   18  A    between atoms: C_28  and  C_44
   19  A    between atoms: C_29  and  C_53
   20  A    between atoms: C_29  and  C_55
   21  A    between atoms: C_32  and  O_51
   22  A    between atoms: C_33  and  C_56
   23  A    between atoms: C_36  and  N_54
   24  A    between atoms: C_42  and  C_47
   25  A    between atoms: N_46  and  C_47
                            x       y       z     vdW  Elec       q    Type
                         _______ _______ _______ _____ _____    ______ ____

>  <TORSDO>
F 25

$$$$
=
 OpenBabel11042419373D

 56 60  0  0  1  0  0  0  0  0999 V2000
  191.9530  175.6310  145.3470 C   0  0  1  0  0  3  0  0  0  0  0  0
  190.8040  176.0580  146.1380 N   0  0  0  0  0  2  0  0  0  0  0  0
  189.5360  175.3970  146.0950 C   0  0  0  0  0  0  0  0  0  0  0  0
  189.3260  174.4540  145.2810 O   0  0  0  0  0  0  0  0  0  0  0  0
  188.4430  175.8490  147.0000 C   0  0  0  0  0  2  0  0  0  0  0  0
  187.7690  177.0040  146.4330 N   0  0  0  0  0  2  0  0  0  0  0  0
  185.3860  178.9230  145.7050 C   0  0  0  0  0  0  0  0  0  0  0  0
  185.1870  177.1430  145.7220 S   0  0  0  0  0  0  0  0  0  0  0  0
  185.9780  179.4970  146.9400 C   0  0  0  0  0  2  0  0  0  0  0  0
  186.2720  178.3350  147.8650 C   0  0  1  0  0  3  0  0  0  0  0  0
  186.4400  177.0670  147.0320 C   0  0  2  0  0  3  0  0  0  0  0  0
  187.4070  178.5960  148.6320 O   0  0  0  0  0  1  0  0  0  0  0  0
  185.2000  179.7190  144.6430 C   0  0  0  0  0  3  0  0  0  0  0  0
  184.6990  179.3230  143.3570 N   0  0  0  0  0  2  0  0  0  0  0  0
  184.3670  177.9700  142.9400 C   0  0  0  0  0  2  0  0  0  0  0  0
  185.1900  177.5790  141.7290 C   0  0  0  0  0  2  0  0  0  0  0  0
  186.9670  175.4050  143.1940 C   0  0  0  0  0  1  0  0  0  0  0  0
  186.5200  178.3170  141.7330 C   0  0  1  0  0  3  0  0  0  0  0  0
  188.9340  177.9300  142.2790 O   0  0  0  0  0  0  0  0  0  0  0  0
  189.1250  175.5480  142.0390 C   0  0  0  0  0  2  0  0  0  0  0  0
  187.7130  177.3750  141.8730 C   0  0  1  0  0  0  0  0  0  0  0  0
  187.6650  175.8660  141.9260 C   0  0  2  0  0  3  0  0  0  0  0  0
  189.7590  176.8270  142.5760 C   0  0  0  0  0  2  0  0  0  0  0  0
  187.3200  177.9040  140.5090 C   0  0  0  0  0  2  0  0  0  0  0  0
  192.8330  176.8300  145.0040 C   0  0  0  0  0  2  0  0  0  0  0  0
  194.0060  176.4100  144.1700 C   0  0  0  0  0  0  0  0  0  0  0  0
  193.8550  176.1020  142.9990 O   0  0  0  0  0  0  0  0  0  0  0  0
  195.3670  176.3670  144.7880 C   0  0  0  0  0  2  0  0  0  0  0  0
  196.4450  176.0390  143.7590 C   0  0  0  0  0  2  0  0  0  0  0  0
  196.6830  172.5170  143.0960 C   0  0  0  0  0  3  0  0  0  0  0  0
  197.1910  174.7510  144.0990 C   0  0  1  0  0  3  0  0  0  0  0  0
  196.6500  174.1920  145.4270 C   0  0  0  0  0  2  0  0  0  0  0  0
  196.8920  172.6950  145.5530 C   0  0  0  0  0  2  0  0  0  0  0  0
  197.1160  173.7770  142.9320 C   0  0  0  0  0  0  0  0  0  0  0  0
  196.1670  172.0070  144.4040 C   0  0  0  0  0  2  0  0  0  0  0  0
  197.8790  175.3740  141.3470 O   0  0  0  0  0  1  0  0  0  0  0  0
  197.9360  173.1970  140.6550 O   0  0  0  0  0  0  0  0  0  0  0  0
  197.6560  174.1640  141.6150 C   0  0  0  0  0  0  0  0  0  0  0  0
  192.7690  174.6350  146.1480 C   0  0  0  0  0  2  0  0  0  0  0  0
  193.1260  173.4310  145.3000 C   0  0  0  0  0  2  0  0  0  0  0  0
  192.0630  173.2140  144.2370 C   0  0  0  0  0  2  0  0  0  0  0  0
  191.4330  171.8320  144.3350 C   0  0  0  0  0  2  0  0  0  0  0  0
  190.8870  171.3800  142.9920 C   0  0  0  0  0  2  0  0  0  0  0  0
  190.6310  172.5800  142.0980 C   0  0  0  0  0  2  0  0  0  0  0  0
  190.9210  172.2450  140.7030 N   0  0  0  0  0  0  0  0  0  0  0  0
  189.7110  172.3720  139.8760 C   0  0  2  0  0  3  0  0  0  0  0  0
  189.1270  172.1980  137.6540 O   0  0  0  0  0  0  0  0  0  0  0  0
  189.6920  171.4550  138.6820 C   0  0  0  0  0  2  0  0  0  0  0  0
  189.5740  173.6720  139.3920 O   0  0  0  0  0  0  0  0  0  0  0  0
  188.2380  174.4100  137.5520 C   0  0  0  0  0  1  0  0  0  0  0  0
  189.3870  173.5320  138.0040 C   0  0  2  0  0  3  0  0  0  0  0  0
  191.8360  173.1380  140.2440 O   0  0  0  0  0  0  0  0  0  0  0  0
  193.3580  171.4590  139.4760 C   0  0  0  0  0  1  0  0  0  0  0  0
  193.0790  172.5490  140.4960 C   0  0  1  0  0  3  0  0  0  0  0  0
  194.1820  173.6000  140.4960 C   0  0  0  0  0  2  0  0  0  0  0  0
  193.8190  174.8190  139.6610 C   0  0  0  0  0  1  0  0  0  0  0  0
  1 25  1  1  0  0  0
  1  2  1  0  0  0  0
  1 39  1  0  0  0  0
  3  2  1  0  0  0  0
  3  5  1  0  0  0  0
  4  3  2  0  0  0  0
  6  5  1  0  0  0  0
  7  8  1  0  0  0  0
  7  9  1  0  0  0  0
  8 11  1  0  0  0  0
  9 10  1  0  0  0  0
 10 12  1  6  0  0  0
 11  6  1  6  0  0  0
 11 10  1  0  0  0  0
 13  7  2  0  0  0  0
 14 13  1  0  0  0  0
 15 14  1  0  0  0  0
 16 15  1  0  0  0  0
 18 16  1  6  0  0  0
 18 21  1  0  0  0  0
 19 23  1  0  0  0  0
 20 23  1  0  0  0  0
 21 24  1  6  0  0  0
 21 22  1  0  0  0  0
 21 19  1  0  0  0  0
 22 20  1  0  0  0  0
 22 17  1  1  0  0  0
 24 18  1  0  0  0  0
 26 28  1  0  0  0  0
 26 25  1  0  0  0  0
 27 26  2  0  0  0  0
 29 28  1  0  0  0  0
 30 35  1  0  0  0  0
 31 29  1  6  0  0  0
 31 32  1  0  0  0  0
 32 33  1  0  0  0  0
 34 30  2  0  0  0  0
 34 31  1  0  0  0  0
 35 33  1  0  0  0  0
 36 38  1  0  0  0  0
 37 38  2  0  0  0  0
 38 34  1  0  0  0  0
 40 39  1  0  0  0  0
 41 42  1  0  0  0  0
 41 40  1  0  0  0  0
 43 42  1  0  0  0  0
 44 43  1  0  0  0  0
 45 44  1  0  0  0  0
 46 45  1  6  0  0  0
 47 51  1  0  0  0  0
 47 48  1  0  0  0  0
 48 46  1  0  0  0  0
 49 46  1  0  0  0  0
 51 50  1  1  0  0  0
 51 49  1  0  0  0  0
 52 54  1  0  0  0  0
 52 45  1  0  0  0  0
 54 53  1  6  0  0  0
 55 54  1  0  0  0  0
 56 55  1  0  0  0  0
M  END
>  <MODEL>
9

>  <REMARK>
 VINA RESULT:      -5.7      2.775      8.579
  Name = 
  25 active torsions:
  status: ('A' for Active; 'I' for Inactive)
    1  A    between atoms: C_1  and  C_32
    2  A    between atoms: C_3  and  C_9
    3  A    between atoms: C_3  and  C_25
    4  A    between atoms: C_4  and  C_35
    5  A    between atoms: C_5  and  C_25
    6  A    between atoms: C_5  and  C_35
    7  A    between atoms: C_7  and  N_13
    8  A    between atoms: C_9  and  N_11
    9  A    between atoms: C_9  and  C_15
   10  A    between atoms: C_12  and  C_21
   11  A    between atoms: C_12  and  C_55
   12  A    between atoms: N_13  and  O_51
   13  A    between atoms: N_13  and  C_53
   14  A    between atoms: C_14  and  N_54
   15  A    between atoms: C_14  and  C_56
   16  A    between atoms: C_15  and  C_21
   17  A    between atoms: C_27  and  N_46
   18  A    between atoms: C_28  and  C_44
   19  A    between atoms: C_29  and  C_53
   20  A    between atoms: C_29  and  C_55
   21  A    between atoms: C_32  and  O_51
   22  A    between atoms: C_33  and  C_56
   23  A    between atoms: C_36  and  N_54
   24  A    between atoms: C_42  and  C_47
   25  A    between atoms: N_46  and  C_47
                            x       y       z     vdW  Elec       q    Type
                         _______ _______ _______ _____ _____    ______ ____

>  <TORSDO>
F 25

$$$$
