=
 OpenBabel11042416173D

 33 38  0  0  1  0  0  0  0  0999 V2000
  191.2020  175.6830  147.9310 C   0  0  1  0  0  3  0  0  0  0  0  0
  188.1530  176.9190  145.0590 C   0  0  1  0  0  3  0  0  0  0  0  0
  189.2960  175.8620  146.7260 C   0  0  1  0  0  3  0  0  0  0  0  0
  190.1920  174.8910  147.3850 C   0  0  1  0  0  3  0  0  0  0  0  0
  189.5990  177.0950  146.9220 C   0  0  1  0  0  3  0  0  0  0  0  0
  190.8270  177.9130  148.7430 O   0  0  0  0  0  1  0  0  0  0  0  0
  188.4140  175.6650  145.6890 O   0  0  0  0  0  0  0  0  0  0  0  0
  191.5180  174.9050  146.6900 N   0  0  0  0  0  0  0  0  0  0  0  0
  190.9210  177.1600  147.5730 C   0  0  1  0  0  3  0  0  0  0  0  0
  189.0200  177.9370  145.8420 C   0  0  0  0  0  2  0  0  0  0  0  0
  193.2020  173.6000  143.6310 N   0  0  0  0  0  0  0  0  0  0  0  0
  193.4110  175.2230  145.1660 C   0  0  0  0  0  0  0  0  0  0  0  0
  195.5240  176.2980  143.8350 C   0  0  0  0  0  3  0  0  0  0  0  0
  193.8800  174.6360  144.0130 C   0  0  0  0  0  0  0  0  0  0  0  0
  192.2070  173.4650  144.6520 C   0  0  0  0  0  0  0  0  0  0  0  0
  194.9310  175.1680  143.3420 N   0  0  0  0  0  0  0  0  0  0  0  0
  193.9650  176.3510  145.6710 N   0  0  0  0  0  0  0  0  0  0  0  0
  195.0320  176.8990  145.0160 C   0  0  0  0  0  3  0  0  0  0  0  0
  192.3700  174.5520  145.6060 C   0  0  0  0  0  0  0  0  0  0  0  0
  191.1170  172.7900  144.4890 N   0  0  0  0  0  2  0  0  0  0  0  0
  189.6130  177.9130  143.3050 C   0  0  0  0  0  1  0  0  0  0  0  0
  188.5220  176.8650  143.5650 C   0  0  2  0  0  0  0  0  0  0  0  0
  187.2740  177.1880  142.7560 C   0  0  0  0  0  0  0  0  0  0  0  0
  186.2290  177.8570  140.6600 C   0  0  0  0  0  3  0  0  0  0  0  0
  187.3670  177.4980  141.3870 C   0  0  0  0  0  3  0  0  0  0  0  0
  186.0220  177.2850  143.3860 C   0  0  0  0  0  3  0  0  0  0  0  0
  184.8840  177.6430  142.6590 C   0  0  0  0  0  3  0  0  0  0  0  0
  184.9860  177.9310  141.2950 C   0  0  0  0  0  0  0  0  0  0  0  0
  183.7710  178.2910  140.5160 C   0  0  0  0  0  2  0  0  0  0  0  0
  181.4410  178.2890  140.5280 C   0  0  0  0  0  1  0  0  0  0  0  0
  182.6090  178.2900  141.3890 N   0  0  0  0  0  2  0  0  0  0  0  0
  189.0130  175.5690  143.2680 O   0  0  0  0  0  0  0  0  0  0  0  0
  190.2390  175.7030  142.7900 O   0  0  0  0  0  1  0  0  0  0  0  0
  1  8  1  6  0  0  0
  2 22  1  6  0  0  0
  2  7  1  0  0  0  0
  2 10  1  0  0  0  0
  3  7  1  6  0  0  0
  3  5  1  0  0  0  0
  3  4  1  0  0  0  0
  4  8  1  6  0  0  0
  4  1  1  0  0  0  0
  5 10  1  6  0  0  0
  5  9  1  0  0  0  0
  9  1  1  0  0  0  0
  9  6  1  1  0  0  0
 11 14  2  0  0  0  0
 11 15  1  0  0  0  0
 12 19  2  0  0  0  0
 12 17  1  0  0  0  0
 13 18  1  0  0  0  0
 14 12  1  0  0  0  0
 15 19  1  0  0  0  0
 16 13  2  0  0  0  0
 16 14  1  0  0  0  0
 18 17  2  0  0  0  0
 19  8  1  0  0  0  0
 20 15  2  0  0  0  0
 22 21  1  6  0  0  0
 23 26  1  0  0  0  0
 23 22  1  0  0  0  0
 24 28  2  0  0  0  0
 24 25  1  0  0  0  0
 25 23  2  0  0  0  0
 27 26  2  0  0  0  0
 28 27  1  0  0  0  0
 29 28  1  0  0  0  0
 29 31  1  0  0  0  0
 30 31  1  0  0  0  0
 32 22  1  0  0  0  0
 33 32  1  0  0  0  0
M  END
>  <MODEL>
1

>  <REMARK>
 VINA RESULT:      -7.3      0.000      0.000
  Name = 
  6 active torsions:
  status: ('A' for Active; 'I' for Inactive)
    1  A    between atoms: C_1  and  C_32
    2  A    between atoms: C_3  and  C_32
    3  A    between atoms: C_19  and  C_27
    4  A    between atoms: C_19  and  N_31
    5  A    between atoms: N_22  and  C_29
    6  A    between atoms: O_24  and  C_32
                            x       y       z     vdW  Elec       q    Type
                         _______ _______ _______ _____ _____    ______ ____

>  <TORSDO>
F 6

$$$$
=
 OpenBabel11042416173D

 33 38  0  0  1  0  0  0  0  0999 V2000
  190.7450  175.2370  147.4730 C   0  0  1  0  0  3  0  0  0  0  0  0
  187.9810  177.2160  144.7310 C   0  0  1  0  0  3  0  0  0  0  0  0
  188.8910  175.9100  146.3640 C   0  0  1  0  0  3  0  0  0  0  0  0
  189.5300  174.7410  147.0020 C   0  0  1  0  0  3  0  0  0  0  0  0
  189.5270  177.0170  146.5100 C   0  0  1  0  0  3  0  0  0  0  0  0
  191.0340  177.4950  148.2400 O   0  0  0  0  0  1  0  0  0  0  0  0
  187.9310  175.9470  145.3810 O   0  0  0  0  0  0  0  0  0  0  0  0
  190.7670  174.3870  146.2380 N   0  0  0  0  0  0  0  0  0  0  0  0
  190.8520  176.7300  147.0880 C   0  0  1  0  0  3  0  0  0  0  0  0
  189.1350  177.9720  145.4390 C   0  0  0  0  0  2  0  0  0  0  0  0
  193.0830  172.9550  143.6930 N   0  0  0  0  0  0  0  0  0  0  0  0
  190.9010  173.0170  144.2110 C   0  0  0  0  0  0  0  0  0  0  0  0
  190.3090  171.2840  142.2010 C   0  0  0  0  0  3  0  0  0  0  0  0
  191.8940  172.5420  143.3850 C   0  0  0  0  0  0  0  0  0  0  0  0
  192.8510  173.8170  144.8120 C   0  0  0  0  0  0  0  0  0  0  0  0
  191.6070  171.6750  142.3820 N   0  0  0  0  0  0  0  0  0  0  0  0
  189.6090  172.6360  144.0670 N   0  0  0  0  0  0  0  0  0  0  0  0
  189.2960  171.7710  143.0580 C   0  0  0  0  0  3  0  0  0  0  0  0
  191.4280  173.8040  145.1210 C   0  0  0  0  0  0  0  0  0  0  0  0
  193.7780  174.1570  145.6440 N   0  0  0  0  0  2  0  0  0  0  0  0
  189.3290  178.0400  142.8070 C   0  0  0  0  0  1  0  0  0  0  0  0
  188.2350  177.0460  143.2220 C   0  0  2  0  0  0  0  0  0  0  0  0
  186.9380  177.3490  142.4860 C   0  0  0  0  0  0  0  0  0  0  0  0
  185.7550  177.9110  140.4320 C   0  0  0  0  0  3  0  0  0  0  0  0
  186.9360  177.5710  141.0970 C   0  0  0  0  0  3  0  0  0  0  0  0
  185.7370  177.5130  143.1960 C   0  0  0  0  0  3  0  0  0  0  0  0
  184.5560  177.8530  142.5320 C   0  0  0  0  0  3  0  0  0  0  0  0
  184.5640  178.0540  141.1490 C   0  0  0  0  0  0  0  0  0  0  0  0
  183.3020  178.3940  140.4380 C   0  0  0  0  0  2  0  0  0  0  0  0
  181.0470  178.8990  140.7390 C   0  0  0  0  0  1  0  0  0  0  0  0
  182.1680  178.1850  141.3220 N   0  0  0  0  0  2  0  0  0  0  0  0
  188.6700  175.7180  142.9850 O   0  0  0  0  0  0  0  0  0  0  0  0
  189.8480  175.7820  142.3870 O   0  0  0  0  0  1  0  0  0  0  0  0
  1  8  1  6  0  0  0
  2 22  1  6  0  0  0
  2  7  1  0  0  0  0
  2 10  1  0  0  0  0
  3  7  1  6  0  0  0
  3  5  1  0  0  0  0
  3  4  1  0  0  0  0
  4  8  1  6  0  0  0
  4  1  1  0  0  0  0
  5 10  1  6  0  0  0
  5  9  1  0  0  0  0
  9  1  1  0  0  0  0
  9  6  1  1  0  0  0
 11 15  1  0  0  0  0
 12 19  2  0  0  0  0
 13 16  2  0  0  0  0
 13 18  1  0  0  0  0
 14 11  2  0  0  0  0
 14 12  1  0  0  0  0
 15 19  1  0  0  0  0
 15 20  2  0  0  0  0
 16 14  1  0  0  0  0
 17 12  1  0  0  0  0
 18 17  2  0  0  0  0
 19  8  1  0  0  0  0
 22 21  1  6  0  0  0
 23 26  1  0  0  0  0
 23 22  1  0  0  0  0
 24 25  1  0  0  0  0
 24 28  2  0  0  0  0
 25 23  2  0  0  0  0
 27 26  2  0  0  0  0
 28 27  1  0  0  0  0
 29 28  1  0  0  0  0
 29 31  1  0  0  0  0
 30 31  1  0  0  0  0
 32 22  1  0  0  0  0
 33 32  1  0  0  0  0
M  END
>  <MODEL>
2

>  <REMARK>
 VINA RESULT:      -7.3      1.331      2.577
  Name = 
  6 active torsions:
  status: ('A' for Active; 'I' for Inactive)
    1  A    between atoms: C_1  and  C_32
    2  A    between atoms: C_3  and  C_32
    3  A    between atoms: C_19  and  C_27
    4  A    between atoms: C_19  and  N_31
    5  A    between atoms: N_22  and  C_29
    6  A    between atoms: O_24  and  C_32
                            x       y       z     vdW  Elec       q    Type
                         _______ _______ _______ _____ _____    ______ ____

>  <TORSDO>
F 6

$$$$
=
 OpenBabel11042416173D

 33 38  0  0  1  0  0  0  0  0999 V2000
  190.1550  177.1480  145.8340 C   0  0  1  0  0  3  0  0  0  0  0  0
  190.4470  174.7610  142.1880 C   0  0  1  0  0  3  0  0  0  0  0  0
  190.5930  176.4330  143.7320 C   0  0  1  0  0  3  0  0  0  0  0  0
  190.2090  177.6200  144.5220 C   0  0  1  0  0  3  0  0  0  0  0  0
  190.8720  175.3900  144.4280 C   0  0  1  0  0  3  0  0  0  0  0  0
  191.5850  175.4030  146.6600 O   0  0  0  0  0  1  0  0  0  0  0  0
  190.3790  176.1710  142.3990 O   0  0  0  0  0  0  0  0  0  0  0  0
  188.8580  177.3870  145.1230 N   0  0  0  0  0  0  0  0  0  0  0  0
  190.4900  175.6390  145.8300 C   0  0  1  0  0  3  0  0  0  0  0  0
  190.7160  174.1680  143.5940 C   0  0  0  0  0  2  0  0  0  0  0  0
  185.1640  177.1920  145.5880 N   0  0  0  0  0  0  0  0  0  0  0  0
  186.6900  177.7120  144.0280 C   0  0  0  0  0  0  0  0  0  0  0  0
  184.7440  178.4840  142.2920 C   0  0  0  0  0  3  0  0  0  0  0  0
  185.3630  177.6190  144.3810 C   0  0  0  0  0  0  0  0  0  0  0  0
  186.4890  176.9430  146.0700 C   0  0  0  0  0  0  0  0  0  0  0  0
  184.3880  178.0050  143.5220 N   0  0  0  0  0  0  0  0  0  0  0  0
  187.0760  178.1980  142.8230 N   0  0  0  0  0  0  0  0  0  0  0  0
  186.1100  178.5840  141.9390 C   0  0  0  0  0  3  0  0  0  0  0  0
  187.4390  177.3190  145.0320 C   0  0  0  0  0  0  0  0  0  0  0  0
  186.7770  176.8480  147.3260 N   0  0  0  0  0  2  0  0  0  0  0  0
  188.6920  173.0060  142.3770 C   0  0  0  0  0  1  0  0  0  0  0  0
  189.1350  174.2380  141.5750 C   0  0  2  0  0  0  0  0  0  0  0  0
  189.4070  173.8580  140.1270 C   0  0  0  0  0  0  0  0  0  0  0  0
  190.9470  173.1240  138.3880 C   0  0  0  0  0  3  0  0  0  0  0  0
  190.6810  173.4130  139.7290 C   0  0  0  0  0  3  0  0  0  0  0  0
  188.4200  174.0430  139.1440 C   0  0  0  0  0  3  0  0  0  0  0  0
  188.6860  173.7540  137.8030 C   0  0  0  0  0  3  0  0  0  0  0  0
  189.9510  173.2960  137.4230 C   0  0  0  0  0  0  0  0  0  0  0  0
  190.2270  172.9670  135.9990 C   0  0  0  0  0  2  0  0  0  0  0  0
  190.5360  170.7440  135.3740 C   0  0  0  0  0  1  0  0  0  0  0  0
  189.5230  171.7510  135.6290 N   0  0  0  0  0  2  0  0  0  0  0  0
  188.1550  175.2580  141.6700 O   0  0  0  0  0  0  0  0  0  0  0  0
  187.1590  174.7910  142.4050 O   0  0  0  0  0  1  0  0  0  0  0  0
  1  8  1  6  0  0  0
  2 22  1  1  0  0  0
  2  7  1  0  0  0  0
  2 10  1  0  0  0  0
  3  7  1  6  0  0  0
  3  5  1  0  0  0  0
  3  4  1  0  0  0  0
  4  8  1  6  0  0  0
  4  1  1  0  0  0  0
  5 10  1  6  0  0  0
  5  9  1  0  0  0  0
  9  1  1  0  0  0  0
  9  6  1  1  0  0  0
 11 15  1  0  0  0  0
 12 14  1  0  0  0  0
 12 19  2  0  0  0  0
 13 16  2  0  0  0  0
 14 11  2  0  0  0  0
 15 20  2  0  0  0  0
 16 14  1  0  0  0  0
 17 12  1  0  0  0  0
 18 13  1  0  0  0  0
 18 17  2  0  0  0  0
 19  8  1  0  0  0  0
 19 15  1  0  0  0  0
 22 32  1  0  0  0  0
 22 21  1  1  0  0  0
 23 22  1  0  0  0  0
 24 25  2  0  0  0  0
 25 23  1  0  0  0  0
 26 23  2  0  0  0  0
 27 26  1  0  0  0  0
 28 27  2  0  0  0  0
 28 24  1  0  0  0  0
 29 28  1  0  0  0  0
 30 31  1  0  0  0  0
 31 29  1  0  0  0  0
 32 33  1  0  0  0  0
M  END
>  <MODEL>
3

>  <REMARK>
 VINA RESULT:      -7.0      4.213      6.846
  Name = 
  6 active torsions:
  status: ('A' for Active; 'I' for Inactive)
    1  A    between atoms: C_1  and  C_32
    2  A    between atoms: C_3  and  C_32
    3  A    between atoms: C_19  and  C_27
    4  A    between atoms: C_19  and  N_31
    5  A    between atoms: N_22  and  C_29
    6  A    between atoms: O_24  and  C_32
                            x       y       z     vdW  Elec       q    Type
                         _______ _______ _______ _____ _____    ______ ____

>  <TORSDO>
F 6

$$$$
=
 OpenBabel11042416173D

 33 38  0  0  1  0  0  0  0  0999 V2000
  192.1660  172.5500  141.3070 C   0  0  1  0  0  3  0  0  0  0  0  0
  189.2290  174.5740  143.8270 C   0  0  1  0  0  3  0  0  0  0  0  0
  190.4320  173.7980  142.0520 C   0  0  1  0  0  3  0  0  0  0  0  0
  191.4880  173.7350  141.0210 C   0  0  1  0  0  3  0  0  0  0  0  0
  190.3520  172.7610  142.8050 C   0  0  1  0  0  3  0  0  0  0  0  0
  191.0900  170.6110  142.2330 O   0  0  0  0  0  1  0  0  0  0  0  0
  189.7620  174.8940  142.5420 O   0  0  0  0  0  0  0  0  0  0  0  0
  192.8240  173.8420  141.6870 N   0  0  0  0  0  0  0  0  0  0  0  0
  191.5210  171.8990  142.5520 C   0  0  1  0  0  3  0  0  0  0  0  0
  189.6810  173.1150  144.0850 C   0  0  0  0  0  2  0  0  0  0  0  0
  195.5220  176.1880  142.7420 N   0  0  0  0  0  0  0  0  0  0  0  0
  194.0910  174.6900  143.6050 C   0  0  0  0  0  0  0  0  0  0  0  0
  194.8830  175.2980  146.1350 C   0  0  0  0  0  3  0  0  0  0  0  0
  195.0770  175.6260  143.8220 C   0  0  0  0  0  0  0  0  0  0  0  0
  194.7830  175.5340  141.7040 C   0  0  0  0  0  0  0  0  0  0  0  0
  195.4740  175.9360  145.0800 N   0  0  0  0  0  0  0  0  0  0  0  0
  193.4740  174.0520  144.6290 N   0  0  0  0  0  0  0  0  0  0  0  0
  193.8650  174.3430  145.9050 C   0  0  0  0  0  3  0  0  0  0  0  0
  193.8550  174.5930  142.3160 C   0  0  0  0  0  0  0  0  0  0  0  0
  194.6520  176.0240  140.5160 N   0  0  0  0  0  2  0  0  0  0  0  0
  190.2070  174.7240  146.1110 C   0  0  0  0  0  1  0  0  0  0  0  0
  189.7620  175.5480  144.8950 C   0  0  2  0  0  0  0  0  0  0  0  0
  188.6320  176.4920  145.2810 C   0  0  0  0  0  0  0  0  0  0  0  0
  186.9090  177.1950  146.8530 C   0  0  0  0  0  3  0  0  0  0  0  0
  187.9870  176.3690  146.5250 C   0  0  0  0  0  3  0  0  0  0  0  0
  188.1440  177.4350  144.3600 C   0  0  0  0  0  3  0  0  0  0  0  0
  187.0660  178.2610  144.6880 C   0  0  0  0  0  3  0  0  0  0  0  0
  186.4460  178.1410  145.9340 C   0  0  0  0  0  0  0  0  0  0  0  0
  185.3130  179.0350  146.2920 C   0  0  0  0  0  2  0  0  0  0  0  0
  183.8300  179.0410  144.4950 C   0  0  0  0  0  1  0  0  0  0  0  0
  184.0660  178.4680  145.8060 N   0  0  0  0  0  2  0  0  0  0  0  0
  190.8660  176.2520  144.3540 O   0  0  0  0  0  0  0  0  0  0  0  0
  191.5190  176.8100  145.3590 O   0  0  0  0  0  1  0  0  0  0  0  0
  1  8  1  1  0  0  0
  1  9  1  0  0  0  0
  2 10  1  0  0  0  0
  2 22  1  1  0  0  0
  3  7  1  1  0  0  0
  3  5  1  0  0  0  0
  4  1  1  0  0  0  0
  4  8  1  1  0  0  0
  4  3  1  0  0  0  0
  5 10  1  1  0  0  0
  7  2  1  0  0  0  0
  8 19  1  0  0  0  0
  9  6  1  6  0  0  0
  9  5  1  0  0  0  0
 11 14  2  0  0  0  0
 12 14  1  0  0  0  0
 12 17  1  0  0  0  0
 14 16  1  0  0  0  0
 15 19  1  0  0  0  0
 15 11  1  0  0  0  0
 16 13  2  0  0  0  0
 17 18  2  0  0  0  0
 18 13  1  0  0  0  0
 19 12  2  0  0  0  0
 20 15  2  0  0  0  0
 22 23  1  0  0  0  0
 22 21  1  1  0  0  0
 23 25  1  0  0  0  0
 25 24  2  0  0  0  0
 26 27  1  0  0  0  0
 26 23  2  0  0  0  0
 27 28  2  0  0  0  0
 28 29  1  0  0  0  0
 28 24  1  0  0  0  0
 30 31  1  0  0  0  0
 31 29  1  0  0  0  0
 32 22  1  0  0  0  0
 32 33  1  0  0  0  0
M  END
>  <MODEL>
4

>  <REMARK>
 VINA RESULT:      -6.9      2.461      4.717
  Name = 
  6 active torsions:
  status: ('A' for Active; 'I' for Inactive)
    1  A    between atoms: C_1  and  C_32
    2  A    between atoms: C_3  and  C_32
    3  A    between atoms: C_19  and  C_27
    4  A    between atoms: C_19  and  N_31
    5  A    between atoms: N_22  and  C_29
    6  A    between atoms: O_24  and  C_32
                            x       y       z     vdW  Elec       q    Type
                         _______ _______ _______ _____ _____    ______ ____

>  <TORSDO>
F 6

$$$$
=
 OpenBabel11042416173D

 33 38  0  0  1  0  0  0  0  0999 V2000
  191.5930  176.8420  145.3790 C   0  0  1  0  0  3  0  0  0  0  0  0
  190.2170  175.0430  141.6450 C   0  0  1  0  0  3  0  0  0  0  0  0
  190.9660  176.4990  143.2320 C   0  0  1  0  0  3  0  0  0  0  0  0
  190.9260  177.4820  144.3340 C   0  0  1  0  0  3  0  0  0  0  0  0
  191.6600  175.4450  143.4750 C   0  0  1  0  0  3  0  0  0  0  0  0
  193.4050  175.3020  145.0330 O   0  0  0  0  0  1  0  0  0  0  0  0
  190.1300  176.3760  142.1480 O   0  0  0  0  0  0  0  0  0  0  0  0
  190.0990  176.9250  145.4510 N   0  0  0  0  0  0  0  0  0  0  0  0
  192.0220  175.4350  144.9040 C   0  0  1  0  0  3  0  0  0  0  0  0
  191.2190  174.3340  142.5900 C   0  0  0  0  0  2  0  0  0  0  0  0
  187.2010  175.7070  147.4550 N   0  0  0  0  0  0  0  0  0  0  0  0
  187.7320  177.2980  145.9650 C   0  0  0  0  0  0  0  0  0  0  0  0
  185.2690  178.4260  146.1970 C   0  0  0  0  0  3  0  0  0  0  0  0
  186.7860  176.7430  146.7960 C   0  0  0  0  0  0  0  0  0  0  0  0
  188.5440  175.5380  146.9880 C   0  0  0  0  0  0  0  0  0  0  0  0
  185.5570  177.3010  146.9190 N   0  0  0  0  0  0  0  0  0  0  0  0
  187.4830  178.4210  145.2490 N   0  0  0  0  0  0  0  0  0  0  0  0
  186.2480  178.9960  145.3510 C   0  0  0  0  0  3  0  0  0  0  0  0
  188.8460  176.6060  146.0450 C   0  0  0  0  0  0  0  0  0  0  0  0
  189.4330  174.8550  147.6290 N   0  0  0  0  0  2  0  0  0  0  0  0
  188.6910  173.5590  140.3540 C   0  0  0  0  0  1  0  0  0  0  0  0
  188.8320  174.3690  141.6510 C   0  0  2  0  0  0  0  0  0  0  0  0
  187.7730  175.4610  141.7110 C   0  0  0  0  0  0  0  0  0  0  0  0
  185.9200  176.5470  142.8600 C   0  0  0  0  0  3  0  0  0  0  0  0
  186.9340  175.5850  142.8320 C   0  0  0  0  0  3  0  0  0  0  0  0
  187.5480  176.2970  140.6040 C   0  0  0  0  0  3  0  0  0  0  0  0
  186.5350  177.2580  140.6320 C   0  0  0  0  0  3  0  0  0  0  0  0
  185.7190  177.3840  141.7590 C   0  0  0  0  0  0  0  0  0  0  0  0
  184.6550  178.4230  141.7970 C   0  0  0  0  0  2  0  0  0  0  0  0
  182.6790  178.0900  140.6080 C   0  0  0  0  0  1  0  0  0  0  0  0
  184.0480  178.5540  140.4840 N   0  0  0  0  0  2  0  0  0  0  0  0
  188.7540  173.5070  142.7730 O   0  0  0  0  0  0  0  0  0  0  0  0
  188.2550  172.3540  142.3600 O   0  0  0  0  0  1  0  0  0  0  0  0
  1  8  1  1  0  0  0
  2 22  1  1  0  0  0
  2  7  1  0  0  0  0
  2 10  1  0  0  0  0
  3  7  1  1  0  0  0
  3  5  1  0  0  0  0
  3  4  1  0  0  0  0
  4  1  1  0  0  0  0
  4  8  1  1  0  0  0
  5 10  1  1  0  0  0
  5  9  1  0  0  0  0
  8 19  1  0  0  0  0
  9  6  1  6  0  0  0
  9  1  1  0  0  0  0
 12 19  2  0  0  0  0
 12 14  1  0  0  0  0
 13 16  2  0  0  0  0
 14 16  1  0  0  0  0
 14 11  2  0  0  0  0
 15 11  1  0  0  0  0
 15 20  2  0  0  0  0
 17 18  2  0  0  0  0
 17 12  1  0  0  0  0
 18 13  1  0  0  0  0
 19 15  1  0  0  0  0
 22 21  1  6  0  0  0
 22 23  1  0  0  0  0
 22 32  1  0  0  0  0
 23 25  1  0  0  0  0
 25 24  2  0  0  0  0
 26 27  1  0  0  0  0
 26 23  2  0  0  0  0
 27 28  2  0  0  0  0
 28 29  1  0  0  0  0
 28 24  1  0  0  0  0
 31 30  1  0  0  0  0
 31 29  1  0  0  0  0
 33 32  1  0  0  0  0
M  END
>  <MODEL>
5

>  <REMARK>
 VINA RESULT:      -6.9      2.699      5.017
  Name = 
  6 active torsions:
  status: ('A' for Active; 'I' for Inactive)
    1  A    between atoms: C_1  and  C_32
    2  A    between atoms: C_3  and  C_32
    3  A    between atoms: C_19  and  C_27
    4  A    between atoms: C_19  and  N_31
    5  A    between atoms: N_22  and  C_29
    6  A    between atoms: O_24  and  C_32
                            x       y       z     vdW  Elec       q    Type
                         _______ _______ _______ _____ _____    ______ ____

>  <TORSDO>
F 6

$$$$
=
 OpenBabel11042416173D

 33 38  0  0  1  0  0  0  0  0999 V2000
  196.0730  174.9190  145.0030 C   0  0  1  0  0  3  0  0  0  0  0  0
  191.9730  176.3950  145.2920 C   0  0  1  0  0  3  0  0  0  0  0  0
  194.1180  175.7750  145.7540 C   0  0  1  0  0  3  0  0  0  0  0  0
  195.2550  174.9120  146.1330 C   0  0  1  0  0  3  0  0  0  0  0  0
  194.2380  176.3550  144.6140 C   0  0  1  0  0  3  0  0  0  0  0  0
  196.2680  176.8100  143.5340 O   0  0  0  0  0  1  0  0  0  0  0  0
  192.8380  175.7940  146.2550 O   0  0  0  0  0  0  0  0  0  0  0  0
  195.2500  173.6930  145.2630 N   0  0  0  0  0  0  0  0  0  0  0  0
  195.4020  175.7840  143.9120 C   0  0  1  0  0  3  0  0  0  0  0  0
  192.8970  176.7350  144.0950 C   0  0  0  0  0  2  0  0  0  0  0  0
  193.6610  170.6780  143.7530 N   0  0  0  0  0  0  0  0  0  0  0  0
  195.2000  171.2430  145.2860 C   0  0  0  0  0  0  0  0  0  0  0  0
  195.8470  168.6340  145.6920 C   0  0  0  0  0  3  0  0  0  0  0  0
  194.5410  170.2470  144.6020 C   0  0  0  0  0  0  0  0  0  0  0  0
  193.7180  172.0990  143.9160 C   0  0  0  0  0  0  0  0  0  0  0  0
  194.8600  168.9440  144.7970 N   0  0  0  0  0  0  0  0  0  0  0  0
  196.1920  170.9700  146.1660 N   0  0  0  0  0  0  0  0  0  0  0  0
  196.5240  169.6630  146.3850 C   0  0  0  0  0  3  0  0  0  0  0  0
  194.7440  172.4140  144.9000 C   0  0  0  0  0  0  0  0  0  0  0  0
  193.2730  172.9290  143.0320 N   0  0  0  0  0  2  0  0  0  0  0  0
  190.7910  175.3510  143.3650 C   0  0  0  0  0  1  0  0  0  0  0  0
  190.8410  175.4270  144.8980 C   0  0  2  0  0  0  0  0  0  0  0  0
  189.5330  175.9820  145.4430 C   0  0  0  0  0  0  0  0  0  0  0  0
  187.6850  177.5630  145.3000 C   0  0  0  0  0  3  0  0  0  0  0  0
  188.8530  177.0110  144.7670 C   0  0  0  0  0  3  0  0  0  0  0  0
  189.0360  175.5470  146.6830 C   0  0  0  0  0  3  0  0  0  0  0  0
  187.8690  176.0990  147.2170 C   0  0  0  0  0  3  0  0  0  0  0  0
  187.1920  177.1090  146.5270 C   0  0  0  0  0  0  0  0  0  0  0  0
  185.9370  177.6810  147.0840 C   0  0  0  0  0  2  0  0  0  0  0  0
  184.1600  178.6570  145.9370 C   0  0  0  0  0  1  0  0  0  0  0  0
  184.8270  177.3940  146.1920 N   0  0  0  0  0  2  0  0  0  0  0  0
  191.1300  174.1500  145.4390 O   0  0  0  0  0  0  0  0  0  0  0  0
  190.3990  173.2620  144.7870 O   0  0  0  0  0  1  0  0  0  0  0  0
  1  8  1  6  0  0  0
  1  4  1  0  0  0  0
  2 22  1  6  0  0  0
  2  7  1  0  0  0  0
  3  4  1  0  0  0  0
  3  7  1  6  0  0  0
  4  8  1  6  0  0  0
  5 10  1  6  0  0  0
  5  3  1  0  0  0  0
  9  6  1  1  0  0  0
  9  5  1  0  0  0  0
  9  1  1  0  0  0  0
 10  2  1  0  0  0  0
 11 15  1  0  0  0  0
 11 14  2  0  0  0  0
 12 17  1  0  0  0  0
 13 18  1  0  0  0  0
 14 16  1  0  0  0  0
 14 12  1  0  0  0  0
 15 19  1  0  0  0  0
 16 13  2  0  0  0  0
 17 18  2  0  0  0  0
 19  8  1  0  0  0  0
 19 12  2  0  0  0  0
 20 15  2  0  0  0  0
 22 21  1  6  0  0  0
 22 32  1  0  0  0  0
 22 23  1  0  0  0  0
 23 26  1  0  0  0  0
 24 28  2  0  0  0  0
 25 24  1  0  0  0  0
 25 23  2  0  0  0  0
 26 27  2  0  0  0  0
 28 29  1  0  0  0  0
 28 27  1  0  0  0  0
 30 31  1  0  0  0  0
 31 29  1  0  0  0  0
 33 32  1  0  0  0  0
M  END
>  <MODEL>
6

>  <REMARK>
 VINA RESULT:      -6.9      3.201      5.021
  Name = 
  6 active torsions:
  status: ('A' for Active; 'I' for Inactive)
    1  A    between atoms: C_1  and  C_32
    2  A    between atoms: C_3  and  C_32
    3  A    between atoms: C_19  and  C_27
    4  A    between atoms: C_19  and  N_31
    5  A    between atoms: N_22  and  C_29
    6  A    between atoms: O_24  and  C_32
                            x       y       z     vdW  Elec       q    Type
                         _______ _______ _______ _____ _____    ______ ____

>  <TORSDO>
F 6

$$$$
=
 OpenBabel11042416173D

 33 38  0  0  1  0  0  0  0  0999 V2000
  190.0650  176.9300  145.6420 C   0  0  1  0  0  3  0  0  0  0  0  0
  189.9310  174.0830  142.3330 C   0  0  1  0  0  3  0  0  0  0  0  0
  190.5030  175.7830  143.7420 C   0  0  1  0  0  3  0  0  0  0  0  0
  190.5230  177.1330  144.3410 C   0  0  1  0  0  3  0  0  0  0  0  0
  190.2070  174.8350  144.5580 C   0  0  1  0  0  3  0  0  0  0  0  0
  190.4860  174.9160  146.8840 O   0  0  0  0  0  1  0  0  0  0  0  0
  190.4210  175.4210  142.4180 O   0  0  0  0  0  0  0  0  0  0  0  0
  189.1190  177.5440  144.6560 N   0  0  0  0  0  0  0  0  0  0  0  0
  189.7390  175.4300  145.8240 C   0  0  1  0  0  3  0  0  0  0  0  0
  189.6960  173.6590  143.8050 C   0  0  0  0  0  2  0  0  0  0  0  0
  185.9840  178.6850  142.9930 N   0  0  0  0  0  0  0  0  0  0  0  0
  186.7450  178.0450  145.0040 C   0  0  0  0  0  0  0  0  0  0  0  0
  184.2440  178.1760  146.0630 C   0  0  0  0  0  3  0  0  0  0  0  0
  185.6800  178.4430  144.2290 C   0  0  0  0  0  0  0  0  0  0  0  0
  187.3970  178.4590  142.9530 C   0  0  0  0  0  0  0  0  0  0  0  0
  184.4300  178.5080  144.7490 N   0  0  0  0  0  0  0  0  0  0  0  0
  186.5920  177.6940  146.3040 N   0  0  0  0  0  0  0  0  0  0  0  0
  185.3420  177.7600  146.8510 C   0  0  0  0  0  3  0  0  0  0  0  0
  187.8360  178.0240  144.2720 C   0  0  0  0  0  0  0  0  0  0  0  0
  188.0460  178.2430  141.8570 N   0  0  0  0  0  2  0  0  0  0  0  0
  187.7870  172.8600  142.0130 C   0  0  0  0  0  1  0  0  0  0  0  0
  188.6400  174.0280  141.4970 C   0  0  2  0  0  0  0  0  0  0  0  0
  189.0260  173.7990  140.0430 C   0  0  0  0  0  0  0  0  0  0  0  0
  190.6510  173.0790  138.3760 C   0  0  0  0  0  3  0  0  0  0  0  0
  190.2700  173.2310  139.7120 C   0  0  0  0  0  3  0  0  0  0  0  0
  188.1910  174.2440  139.0040 C   0  0  0  0  0  3  0  0  0  0  0  0
  188.5720  174.0930  137.6680 C   0  0  0  0  0  3  0  0  0  0  0  0
  189.8020  173.5110  137.3530 C   0  0  0  0  0  0  0  0  0  0  0  0
  190.1970  173.3290  135.9300 C   0  0  0  0  0  2  0  0  0  0  0  0
  191.3440  175.3030  135.4610 C   0  0  0  0  0  1  0  0  0  0  0  0
  190.0980  174.5970  135.2260 N   0  0  0  0  0  2  0  0  0  0  0  0
  187.9410  175.2500  141.6630 O   0  0  0  0  0  0  0  0  0  0  0  0
  186.9220  175.0230  142.4750 O   0  0  0  0  0  1  0  0  0  0  0  0
  1  8  1  6  0  0  0
  1  9  1  0  0  0  0
  2 22  1  6  0  0  0
  2  7  1  0  0  0  0
  2 10  1  0  0  0  0
  3  7  1  6  0  0  0
  3  4  1  0  0  0  0
  3  5  1  0  0  0  0
  4  8  1  6  0  0  0
  4  1  1  0  0  0  0
  5 10  1  6  0  0  0
  5  9  1  0  0  0  0
  9  6  1  1  0  0  0
 11 14  2  0  0  0  0
 12 17  1  0  0  0  0
 13 18  1  0  0  0  0
 14 16  1  0  0  0  0
 14 12  1  0  0  0  0
 15 11  1  0  0  0  0
 15 19  1  0  0  0  0
 16 13  2  0  0  0  0
 17 18  2  0  0  0  0
 19  8  1  0  0  0  0
 19 12  2  0  0  0  0
 20 15  2  0  0  0  0
 22 32  1  0  0  0  0
 22 21  1  1  0  0  0
 23 22  1  0  0  0  0
 24 25  2  0  0  0  0
 25 23  1  0  0  0  0
 26 23  2  0  0  0  0
 27 26  1  0  0  0  0
 28 27  2  0  0  0  0
 28 24  1  0  0  0  0
 29 28  1  0  0  0  0
 31 30  1  0  0  0  0
 31 29  1  0  0  0  0
 32 33  1  0  0  0  0
M  END
>  <MODEL>
7

>  <REMARK>
 VINA RESULT:      -6.9      4.196      6.791
  Name = 
  6 active torsions:
  status: ('A' for Active; 'I' for Inactive)
    1  A    between atoms: C_1  and  C_32
    2  A    between atoms: C_3  and  C_32
    3  A    between atoms: C_19  and  C_27
    4  A    between atoms: C_19  and  N_31
    5  A    between atoms: N_22  and  C_29
    6  A    between atoms: O_24  and  C_32
                            x       y       z     vdW  Elec       q    Type
                         _______ _______ _______ _____ _____    ______ ____

>  <TORSDO>
F 6

$$$$
=
 OpenBabel11042416173D

 33 38  0  0  1  0  0  0  0  0999 V2000
  195.0720  175.7000  145.0960 C   0  0  1  0  0  3  0  0  0  0  0  0
  190.8200  175.4060  146.0510 C   0  0  1  0  0  3  0  0  0  0  0  0
  193.0550  174.9990  145.8440 C   0  0  1  0  0  3  0  0  0  0  0  0
  194.3240  174.5330  145.2510 C   0  0  1  0  0  3  0  0  0  0  0  0
  193.0280  176.2470  146.1480 C   0  0  1  0  0  3  0  0  0  0  0  0
  194.9100  177.5720  146.5940 O   0  0  0  0  0  1  0  0  0  0  0  0
  191.8140  174.4080  145.8140 O   0  0  0  0  0  0  0  0  0  0  0  0
  194.4520  175.0990  143.8710 N   0  0  0  0  0  0  0  0  0  0  0  0
  194.2250  176.8980  145.5830 C   0  0  1  0  0  3  0  0  0  0  0  0
  191.6210  176.7220  146.2160 C   0  0  0  0  0  2  0  0  0  0  0  0
  194.2050  175.4740  140.1710 N   0  0  0  0  0  0  0  0  0  0  0  0
  193.2870  174.3190  141.8610 C   0  0  0  0  0  0  0  0  0  0  0  0
  191.7860  172.8550  140.1300 C   0  0  0  0  0  3  0  0  0  0  0  0
  193.3530  174.5570  140.5080 C   0  0  0  0  0  0  0  0  0  0  0  0
  194.7290  175.9120  141.4290 C   0  0  0  0  0  0  0  0  0  0  0  0
  192.6100  173.8290  139.6380 N   0  0  0  0  0  0  0  0  0  0  0  0
  192.4930  173.3510  142.3790 N   0  0  0  0  0  0  0  0  0  0  0  0
  191.7290  172.6120  141.5220 C   0  0  0  0  0  3  0  0  0  0  0  0
  194.1220  175.1180  142.4870 C   0  0  0  0  0  0  0  0  0  0  0  0
  195.8440  176.5540  141.5430 N   0  0  0  0  0  2  0  0  0  0  0  0
  190.5250  176.1510  143.6950 C   0  0  0  0  0  1  0  0  0  0  0  0
  189.8240  175.4710  144.8790 C   0  0  2  0  0  0  0  0  0  0  0  0
  188.6220  176.2920  145.3250 C   0  0  0  0  0  0  0  0  0  0  0  0
  187.1040  178.1680  144.9920 C   0  0  0  0  0  3  0  0  0  0  0  0
  188.1670  177.3760  144.5520 C   0  0  0  0  0  3  0  0  0  0  0  0
  188.0110  176.0470  146.5660 C   0  0  0  0  0  3  0  0  0  0  0  0
  186.9480  176.8390  147.0060 C   0  0  0  0  0  3  0  0  0  0  0  0
  186.4940  177.9010  146.2210 C   0  0  0  0  0  0  0  0  0  0  0  0
  185.3470  178.7310  146.6800 C   0  0  0  0  0  2  0  0  0  0  0  0
  184.0100  179.0380  144.7970 C   0  0  0  0  0  1  0  0  0  0  0  0
  184.1260  178.2840  146.0310 N   0  0  0  0  0  2  0  0  0  0  0  0
  189.4500  174.1500  144.5290 O   0  0  0  0  0  0  0  0  0  0  0  0
  189.1540  174.1430  143.2400 O   0  0  0  0  0  1  0  0  0  0  0  0
  1  8  1  6  0  0  0
  1  4  1  0  0  0  0
  1  9  1  0  0  0  0
  2 22  1  6  0  0  0
  2 10  1  0  0  0  0
  3  7  1  6  0  0  0
  3  5  1  0  0  0  0
  4  8  1  6  0  0  0
  4  3  1  0  0  0  0
  5 10  1  6  0  0  0
  7  2  1  0  0  0  0
  9  5  1  0  0  0  0
  9  6  1  1  0  0  0
 11 14  2  0  0  0  0
 11 15  1  0  0  0  0
 12 17  1  0  0  0  0
 12 19  2  0  0  0  0
 13 18  1  0  0  0  0
 14 12  1  0  0  0  0
 15 20  2  0  0  0  0
 15 19  1  0  0  0  0
 16 13  2  0  0  0  0
 16 14  1  0  0  0  0
 18 17  2  0  0  0  0
 19  8  1  0  0  0  0
 22 21  1  6  0  0  0
 22 23  1  0  0  0  0
 23 26  1  0  0  0  0
 24 28  2  0  0  0  0
 25 24  1  0  0  0  0
 25 23  2  0  0  0  0
 26 27  2  0  0  0  0
 28 29  1  0  0  0  0
 28 27  1  0  0  0  0
 30 31  1  0  0  0  0
 31 29  1  0  0  0  0
 32 22  1  0  0  0  0
 33 32  1  0  0  0  0
M  END
>  <MODEL>
8

>  <REMARK>
 VINA RESULT:      -6.9      2.609      4.323
  Name = 
  6 active torsions:
  status: ('A' for Active; 'I' for Inactive)
    1  A    between atoms: C_1  and  C_32
    2  A    between atoms: C_3  and  C_32
    3  A    between atoms: C_19  and  C_27
    4  A    between atoms: C_19  and  N_31
    5  A    between atoms: N_22  and  C_29
    6  A    between atoms: O_24  and  C_32
                            x       y       z     vdW  Elec       q    Type
                         _______ _______ _______ _____ _____    ______ ____

>  <TORSDO>
F 6

$$$$
=
 OpenBabel11042416173D

 33 38  0  0  1  0  0  0  0  0999 V2000
  188.3330  177.2490  142.3760 C   0  0  1  0  0  3  0  0  0  0  0  0
  190.2740  177.1650  146.2870 C   0  0  1  0  0  3  0  0  0  0  0  0
  189.7130  177.6340  144.1270 C   0  0  1  0  0  3  0  0  0  0  0  0
  189.6720  177.5200  142.6550 C   0  0  1  0  0  3  0  0  0  0  0  0
  188.5670  177.5770  144.7040 C   0  0  1  0  0  3  0  0  0  0  0  0
  186.5170  178.1040  143.6970 O   0  0  0  0  0  1  0  0  0  0  0  0
  190.7750  177.4560  144.9820 O   0  0  0  0  0  0  0  0  0  0  0  0
  189.3090  176.1160  142.2860 N   0  0  0  0  0  0  0  0  0  0  0  0
  187.5550  177.1730  143.7100 C   0  0  1  0  0  3  0  0  0  0  0  0
  188.7330  177.1650  146.1230 C   0  0  0  0  0  2  0  0  0  0  0  0
  189.4650  172.4340  141.7260 N   0  0  0  0  0  0  0  0  0  0  0  0
  190.8020  174.2340  141.8000 C   0  0  0  0  0  0  0  0  0  0  0  0
  192.9510  172.7470  141.0470 C   0  0  0  0  0  3  0  0  0  0  0  0
  190.6730  172.8810  141.5850 C   0  0  0  0  0  0  0  0  0  0  0  0
  188.7260  173.6000  142.1070 C   0  0  0  0  0  0  0  0  0  0  0  0
  191.7390  172.1340  141.2060 N   0  0  0  0  0  0  0  0  0  0  0  0
  191.9840  174.8740  141.6350 N   0  0  0  0  0  0  0  0  0  0  0  0
  193.0740  174.1390  141.2630 C   0  0  0  0  0  3  0  0  0  0  0  0
  189.6320  174.7400  142.1170 C   0  0  0  0  0  0  0  0  0  0  0  0
  187.4420  173.6850  142.0050 N   0  0  0  0  0  2  0  0  0  0  0  0
  190.8770  175.8570  148.3180 C   0  0  0  0  0  1  0  0  0  0  0  0
  190.8090  175.8090  146.7850 C   0  0  2  0  0  0  0  0  0  0  0  0
  192.1990  175.6040  146.1990 C   0  0  0  0  0  0  0  0  0  0  0  0
  193.7350  174.3350  144.7970 C   0  0  0  0  0  3  0  0  0  0  0  0
  192.4460  174.5630  145.2860 C   0  0  0  0  0  3  0  0  0  0  0  0
  193.2800  176.3840  146.6400 C   0  0  0  0  0  3  0  0  0  0  0  0
  194.5690  176.1570  146.1520 C   0  0  0  0  0  3  0  0  0  0  0  0
  194.7990  175.1310  145.2310 C   0  0  0  0  0  0  0  0  0  0  0  0
  196.1670  174.9040  144.6950 C   0  0  0  0  0  2  0  0  0  0  0  0
  197.1580  176.3270  143.1390 C   0  0  0  0  0  1  0  0  0  0  0  0
  196.2050  175.2430  143.2820 N   0  0  0  0  0  2  0  0  0  0  0  0
  189.9140  174.7910  146.3700 O   0  0  0  0  0  0  0  0  0  0  0  0
  189.2770  174.3530  147.4430 O   0  0  0  0  0  1  0  0  0  0  0  0
  1  8  1  1  0  0  0
  1  4  1  0  0  0  0
  1  9  1  0  0  0  0
  2 22  1  6  0  0  0
  3  5  1  0  0  0  0
  3  7  1  1  0  0  0
  4  8  1  1  0  0  0
  4  3  1  0  0  0  0
  5 10  1  1  0  0  0
  7  2  1  0  0  0  0
  9  6  1  6  0  0  0
  9  5  1  0  0  0  0
 10  2  1  0  0  0  0
 11 15  1  0  0  0  0
 12 19  2  0  0  0  0
 13 16  2  0  0  0  0
 13 18  1  0  0  0  0
 14 11  2  0  0  0  0
 14 12  1  0  0  0  0
 15 19  1  0  0  0  0
 16 14  1  0  0  0  0
 17 12  1  0  0  0  0
 18 17  2  0  0  0  0
 19  8  1  0  0  0  0
 20 15  2  0  0  0  0
 22 21  1  1  0  0  0
 23 26  1  0  0  0  0
 23 22  1  0  0  0  0
 24 28  2  0  0  0  0
 24 25  1  0  0  0  0
 25 23  2  0  0  0  0
 27 26  2  0  0  0  0
 28 27  1  0  0  0  0
 29 28  1  0  0  0  0
 30 31  1  0  0  0  0
 31 29  1  0  0  0  0
 32 22  1  0  0  0  0
 32 33  1  0  0  0  0
M  END
>  <MODEL>
9

>  <REMARK>
 VINA RESULT:      -6.8      2.833      6.967
  Name = 
  6 active torsions:
  status: ('A' for Active; 'I' for Inactive)
    1  A    between atoms: C_1  and  C_32
    2  A    between atoms: C_3  and  C_32
    3  A    between atoms: C_19  and  C_27
    4  A    between atoms: C_19  and  N_31
    5  A    between atoms: N_22  and  C_29
    6  A    between atoms: O_24  and  C_32
                            x       y       z     vdW  Elec       q    Type
                         _______ _______ _______ _____ _____    ______ ____

>  <TORSDO>
F 6

$$$$
