=
 OpenBabel11042415033D

 33 38  0  0  1  0  0  0  0  0999 V2000
  187.8410  176.1620  145.7440 C   0  0  1  0  0  3  0  0  0  0  0  0
  185.4940  177.0600  146.2520 C   0  0  0  0  0  3  0  0  0  0  0  0
  190.0760  175.8160  144.6480 C   0  0  0  0  0  0  0  0  0  0  0  0
  188.1650  175.9340  147.2180 C   0  0  0  0  0  2  0  0  0  0  0  0
  190.3650  175.5790  143.2960 C   0  0  0  0  0  3  0  0  0  0  0  0
  186.8960  178.0400  144.5650 C   0  0  0  0  0  0  0  0  0  0  0  0
  191.9720  173.8740  143.9110 C   0  0  0  0  0  0  0  0  0  0  0  0
  184.5090  178.0070  145.9500 C   0  0  0  0  0  3  0  0  0  0  0  0
  186.7060  177.1020  145.5590 C   0  0  0  0  0  0  0  0  0  0  0  0
  184.7570  178.9640  144.9560 C   0  0  0  0  0  3  0  0  0  0  0  0
  190.4240  175.2310  147.0940 C   0  0  0  0  0  2  0  0  0  0  0  0
  191.6810  174.0980  145.2630 C   0  0  0  0  0  3  0  0  0  0  0  0
  190.7400  175.0600  145.6380 C   0  0  0  0  0  0  0  0  0  0  0  0
  189.0600  174.7910  147.3680 N   0  0  0  0  0  2  0  0  0  0  0  0
  189.0390  176.8310  145.0590 C   0  0  1  0  0  3  0  0  0  0  0  0
  188.4580  177.9550  143.7230 S   0  0  0  0  0  0  0  0  0  0  0  0
  185.9410  178.9640  144.2820 N   0  0  0  0  0  0  0  0  0  0  0  0
  191.3100  174.6170  142.9310 C   0  0  0  0  0  3  0  0  0  0  0  0
  192.9900  172.8570  143.4890 C   0  0  1  0  0  3  0  0  0  0  0  0
  194.3300  172.1460  145.3380 O   0  0  0  0  0  0  0  0  0  0  0  0
  196.6230  175.4340  142.8560 C   0  0  1  0  0  3  0  0  0  0  0  0
  194.2320  172.8970  144.3300 C   0  0  0  0  0  0  0  0  0  0  0  0
  195.2980  173.7980  143.9890 N   0  0  0  0  0  0  0  0  0  0  0  0
  194.8960  176.4190  144.2770 O   0  0  0  0  0  1  0  0  0  0  0  0
  195.3500  174.5730  142.7480 C   0  0  1  0  0  3  0  0  0  0  0  0
  196.4610  174.0830  144.7500 C   0  0  0  0  0  0  0  0  0  0  0  0
  196.6510  173.7000  146.0070 C   0  0  0  0  0  1  0  0  0  0  0  0
  195.2380  176.0860  142.9610 C   0  0  2  0  0  3  0  0  0  0  0  0
  197.2230  175.1100  144.1540 N   0  0  0  0  0  0  0  0  0  0  0  0
  193.1280  170.5130  142.5750 N   0  0  0  0  0  2  0  0  0  0  0  0
  192.6200  169.1680  142.3700 C   0  0  0  0  0  1  0  0  0  0  0  0
  191.3030  171.1920  143.8610 O   0  0  0  0  0  0  0  0  0  0  0  0
  192.4160  171.4820  143.3420 C   0  0  0  0  0  0  0  0  0  0  0  0
  1  4  1  1  0  0  0
  3 15  1  0  0  0  0
  3 13  1  0  0  0  0
  4 14  1  0  0  0  0
  5  3  2  0  0  0  0
  6  9  1  0  0  0  0
  7 12  1  0  0  0  0
  8  2  1  0  0  0  0
  9  1  1  0  0  0  0
  9  2  2  0  0  0  0
 10  8  2  0  0  0  0
 11 14  1  0  0  0  0
 12 13  2  0  0  0  0
 13 11  1  0  0  0  0
 15 16  1  6  0  0  0
 15  1  1  0  0  0  0
 16  6  1  0  0  0  0
 17  6  2  0  0  0  0
 17 10  1  0  0  0  0
 18  5  1  0  0  0  0
 18  7  2  0  0  0  0
 19 33  1  1  0  0  0
 19  7  1  0  0  0  0
 19 22  1  0  0  0  0
 21 28  1  0  0  0  0
 21 29  1  1  0  0  0
 22 20  2  0  0  0  0
 23 22  1  0  0  0  0
 23 26  1  0  0  0  0
 25 21  1  0  0  0  0
 25 28  1  0  0  0  0
 25 23  1  1  0  0  0
 26 27  1  0  0  0  0
 28 24  1  1  0  0  0
 29 26  2  0  0  0  0
 30 33  1  0  0  0  0
 31 30  1  0  0  0  0
 33 32  2  0  0  0  0
M  END
>  <MODEL>
1

>  <REMARK>
 VINA RESULT:      -8.0      0.000      0.000
  Name = 
  3 active torsions:
  status: ('A' for Active; 'I' for Inactive)
    1  A    between atoms: C_10  and  C_21
    2  A    between atoms: C_11  and  C_21
    3  A    between atoms: C_21  and  C_32
                            x       y       z     vdW  Elec       q    Type
                         _______ _______ _______ _____ _____    ______ ____

>  <TORSDO>
F 3

$$$$
=
 OpenBabel11042415033D

 33 38  0  0  1  0  0  0  0  0999 V2000
  187.3090  176.3390  145.5160 C   0  0  1  0  0  3  0  0  0  0  0  0
  185.1230  177.3530  146.3900 C   0  0  0  0  0  3  0  0  0  0  0  0
  189.2790  175.8290  144.0430 C   0  0  0  0  0  0  0  0  0  0  0  0
  187.9110  176.2210  146.9140 C   0  0  0  0  0  2  0  0  0  0  0  0
  189.2940  175.4720  142.6860 C   0  0  0  0  0  3  0  0  0  0  0  0
  186.1840  178.1450  144.3850 C   0  0  0  0  0  0  0  0  0  0  0  0
  190.9610  173.7700  143.1240 C   0  0  0  0  0  0  0  0  0  0  0  0
  184.1130  178.3040  146.2040 C   0  0  0  0  0  3  0  0  0  0  0  0
  186.1760  177.2980  145.4740 C   0  0  0  0  0  0  0  0  0  0  0  0
  184.1780  179.1680  145.1010 C   0  0  0  0  0  3  0  0  0  0  0  0
  190.0900  175.4350  146.4160 C   0  0  0  0  0  2  0  0  0  0  0  0
  190.9450  174.1140  144.4810 C   0  0  0  0  0  3  0  0  0  0  0  0
  190.1110  175.1350  144.9470 C   0  0  0  0  0  0  0  0  0  0  0  0
  188.7990  175.0640  146.9870 N   0  0  0  0  0  2  0  0  0  0  0  0
  188.3600  176.9080  144.5580 C   0  0  1  0  0  3  0  0  0  0  0  0
  187.5490  177.9380  143.2670 S   0  0  0  0  0  0  0  0  0  0  0  0
  185.2070  179.0740  144.2130 N   0  0  0  0  0  0  0  0  0  0  0  0
  190.1330  174.4530  142.2290 C   0  0  0  0  0  3  0  0  0  0  0  0
  191.8590  172.6890  142.6020 C   0  0  1  0  0  3  0  0  0  0  0  0
  192.9120  171.4500  144.3570 O   0  0  0  0  0  0  0  0  0  0  0  0
  195.8140  174.8240  142.8000 C   0  0  1  0  0  3  0  0  0  0  0  0
  193.0050  172.3930  143.5240 C   0  0  0  0  0  0  0  0  0  0  0  0
  194.1990  173.1910  143.4620 N   0  0  0  0  0  0  0  0  0  0  0  0
  194.0780  175.7320  144.2620 O   0  0  0  0  0  1  0  0  0  0  0  0
  194.4670  174.1820  142.4180 C   0  0  1  0  0  3  0  0  0  0  0  0
  195.3040  173.1590  144.3510 C   0  0  0  0  0  0  0  0  0  0  0  0
  195.3180  172.5120  145.5100 C   0  0  0  0  0  1  0  0  0  0  0  0
  194.5110  175.6240  142.9350 C   0  0  2  0  0  3  0  0  0  0  0  0
  196.2370  174.1710  144.0430 N   0  0  0  0  0  0  0  0  0  0  0  0
  191.6360  170.6700  141.1110 N   0  0  0  0  0  2  0  0  0  0  0  0
  190.9530  169.4830  140.6260 C   0  0  0  0  0  1  0  0  0  0  0  0
  190.0150  171.1590  142.7170 O   0  0  0  0  0  0  0  0  0  0  0  0
  191.1110  171.4650  142.1720 C   0  0  0  0  0  0  0  0  0  0  0  0
  1  4  1  1  0  0  0
  3 15  1  0  0  0  0
  3 13  1  0  0  0  0
  4 14  1  0  0  0  0
  5  3  2  0  0  0  0
  6  9  1  0  0  0  0
  7 12  1  0  0  0  0
  8  2  1  0  0  0  0
  9  1  1  0  0  0  0
  9  2  2  0  0  0  0
 10  8  2  0  0  0  0
 11 14  1  0  0  0  0
 12 13  2  0  0  0  0
 13 11  1  0  0  0  0
 15 16  1  6  0  0  0
 15  1  1  0  0  0  0
 16  6  1  0  0  0  0
 17  6  2  0  0  0  0
 17 10  1  0  0  0  0
 18  5  1  0  0  0  0
 18  7  2  0  0  0  0
 19 33  1  1  0  0  0
 19  7  1  0  0  0  0
 19 22  1  0  0  0  0
 21 28  1  0  0  0  0
 21 29  1  1  0  0  0
 22 20  2  0  0  0  0
 23 22  1  0  0  0  0
 23 26  1  0  0  0  0
 25 21  1  0  0  0  0
 25 28  1  0  0  0  0
 25 23  1  1  0  0  0
 26 27  1  0  0  0  0
 28 24  1  1  0  0  0
 29 26  2  0  0  0  0
 30 33  1  0  0  0  0
 31 30  1  0  0  0  0
 33 32  2  0  0  0  0
M  END
>  <MODEL>
2

>  <REMARK>
 VINA RESULT:      -7.8      1.158      1.250
  Name = 
  3 active torsions:
  status: ('A' for Active; 'I' for Inactive)
    1  A    between atoms: C_10  and  C_21
    2  A    between atoms: C_11  and  C_21
    3  A    between atoms: C_21  and  C_32
                            x       y       z     vdW  Elec       q    Type
                         _______ _______ _______ _____ _____    ______ ____

>  <TORSDO>
F 3

$$$$
=
 OpenBabel11042415033D

 33 38  0  0  1  0  0  0  0  0999 V2000
  190.2850  172.1800  140.4210 C   0  0  1  0  0  3  0  0  0  0  0  0
  191.2790  170.6920  138.5850 C   0  0  0  0  0  3  0  0  0  0  0  0
  188.8820  173.9030  141.5950 C   0  0  0  0  0  0  0  0  0  0  0  0
  190.4410  171.1050  141.4930 C   0  0  0  0  0  2  0  0  0  0  0  0
  188.6700  175.2460  141.2520 C   0  0  0  0  0  3  0  0  0  0  0  0
  189.3870  172.1180  138.1850 C   0  0  0  0  0  0  0  0  0  0  0  0
  188.9180  175.9050  143.5690 C   0  0  0  0  0  0  0  0  0  0  0  0
  191.2090  170.2660  137.2530 C   0  0  0  0  0  3  0  0  0  0  0  0
  190.3370  171.6130  139.0490 C   0  0  0  0  0  0  0  0  0  0  0  0
  190.2070  170.7800  136.4190 C   0  0  0  0  0  3  0  0  0  0  0  0
  189.4180  172.1540  143.3550 C   0  0  0  0  0  2  0  0  0  0  0  0
  189.1410  174.5670  143.9180 C   0  0  0  0  0  3  0  0  0  0  0  0
  189.1250  173.5660  142.9430 C   0  0  0  0  0  0  0  0  0  0  0  0
  190.6930  171.7200  142.7940 N   0  0  0  0  0  2  0  0  0  0  0  0
  188.8980  172.8210  140.5440 C   0  0  1  0  0  3  0  0  0  0  0  0
  188.2820  173.3210  138.8840 S   0  0  0  0  0  0  0  0  0  0  0  0
  189.3160  171.6940  136.8960 N   0  0  0  0  0  0  0  0  0  0  0  0
  188.6840  176.2400  142.2330 C   0  0  0  0  0  3  0  0  0  0  0  0
  188.9150  176.9920  144.6020 C   0  0  1  0  0  3  0  0  0  0  0  0
  187.6100  176.2430  146.4620 O   0  0  0  0  0  0  0  0  0  0  0  0
  185.1790  179.4160  143.9610 C   0  0  1  0  0  3  0  0  0  0  0  0
  187.6730  176.9860  145.4450 C   0  0  0  0  0  0  0  0  0  0  0  0
  186.5590  177.8190  145.0830 N   0  0  0  0  0  0  0  0  0  0  0  0
  185.1860  177.2250  142.8750 O   0  0  0  0  0  1  0  0  0  0  0  0
  186.6050  178.8380  144.0330 C   0  0  1  0  0  3  0  0  0  0  0  0
  185.2640  177.8230  145.6620 C   0  0  0  0  0  0  0  0  0  0  0  0
  184.8170  176.9070  146.5130 C   0  0  0  0  0  1  0  0  0  0  0  0
  185.7090  178.5230  142.8300 C   0  0  2  0  0  3  0  0  0  0  0  0
  184.3960  178.6910  144.9670 N   0  0  0  0  0  0  0  0  0  0  0  0
  191.4220  176.7820  144.7560 N   0  0  0  0  0  2  0  0  0  0  0  0
  192.6830  176.7870  145.4770 C   0  0  0  0  0  1  0  0  0  0  0  0
  190.1410  177.2700  146.6450 O   0  0  0  0  0  0  0  0  0  0  0  0
  190.1780  177.0390  145.4050 C   0  0  0  0  0  0  0  0  0  0  0  0
  1 15  1  0  0  0  0
  1  4  1  1  0  0  0
  2  9  1  0  0  0  0
  3 13  1  0  0  0  0
  4 14  1  0  0  0  0
  5  3  2  0  0  0  0
  5 18  1  0  0  0  0
  6 16  1  0  0  0  0
  6  9  2  0  0  0  0
  7 12  1  0  0  0  0
  7 19  1  0  0  0  0
  8  2  2  0  0  0  0
  9  1  1  0  0  0  0
 10 17  2  0  0  0  0
 10  8  1  0  0  0  0
 13 11  1  0  0  0  0
 13 12  2  0  0  0  0
 14 11  1  0  0  0  0
 15 16  1  6  0  0  0
 15  3  1  0  0  0  0
 17  6  1  0  0  0  0
 18  7  2  0  0  0  0
 19 33  1  1  0  0  0
 19 22  1  0  0  0  0
 21 25  1  0  0  0  0
 21 29  1  1  0  0  0
 22 20  2  0  0  0  0
 23 22  1  0  0  0  0
 23 26  1  0  0  0  0
 25 23  1  1  0  0  0
 26 27  1  0  0  0  0
 28 24  1  1  0  0  0
 28 21  1  0  0  0  0
 28 25  1  0  0  0  0
 29 26  2  0  0  0  0
 30 33  1  0  0  0  0
 30 31  1  0  0  0  0
 33 32  2  0  0  0  0
M  END
>  <MODEL>
3

>  <REMARK>
 VINA RESULT:      -7.8      3.935      8.609
  Name = 
  3 active torsions:
  status: ('A' for Active; 'I' for Inactive)
    1  A    between atoms: C_10  and  C_21
    2  A    between atoms: C_11  and  C_21
    3  A    between atoms: C_21  and  C_32
                            x       y       z     vdW  Elec       q    Type
                         _______ _______ _______ _____ _____    ______ ____

>  <TORSDO>
F 3

$$$$
=
 OpenBabel11042415033D

 33 38  0  0  1  0  0  0  0  0999 V2000
  187.8710  176.8270  145.6650 C   0  0  1  0  0  3  0  0  0  0  0  0
  185.5600  177.2980  146.6670 C   0  0  0  0  0  3  0  0  0  0  0  0
  189.7950  176.7270  144.0510 C   0  0  0  0  0  0  0  0  0  0  0  0
  188.5810  177.0050  147.0040 C   0  0  0  0  0  2  0  0  0  0  0  0
  189.8090  176.2620  142.7270 C   0  0  0  0  0  3  0  0  0  0  0  0
  186.2160  178.1530  144.5200 C   0  0  0  0  0  0  0  0  0  0  0  0
  191.9060  175.1160  143.1240 C   0  0  0  0  0  0  0  0  0  0  0  0
  184.3170  177.9230  146.5110 C   0  0  0  0  0  3  0  0  0  0  0  0
  186.5190  177.4400  145.6620 C   0  0  0  0  0  0  0  0  0  0  0  0
  184.0630  178.6660  145.3500 C   0  0  0  0  0  3  0  0  0  0  0  0
  190.8510  176.7870  146.3590 C   0  0  0  0  0  2  0  0  0  0  0  0
  191.8940  175.5670  144.4500 C   0  0  0  0  0  3  0  0  0  0  0  0
  190.8480  176.3670  144.9190 C   0  0  0  0  0  0  0  0  0  0  0  0
  189.7550  176.1390  147.0740 N   0  0  0  0  0  2  0  0  0  0  0  0
  188.6550  177.5650  144.5730 C   0  0  1  0  0  3  0  0  0  0  0  0
  187.5020  178.2150  143.2960 S   0  0  0  0  0  0  0  0  0  0  0  0
  185.0120  178.7670  144.3770 N   0  0  0  0  0  0  0  0  0  0  0  0
  190.8600  175.4660  142.2660 C   0  0  0  0  0  3  0  0  0  0  0  0
  193.0260  174.2700  142.5970 C   0  0  1  0  0  3  0  0  0  0  0  0
  193.0420  174.1390  140.2080 O   0  0  0  0  0  0  0  0  0  0  0  0
  190.7930  170.4080  142.0110 C   0  0  1  0  0  3  0  0  0  0  0  0
  192.6860  173.6060  141.2940 C   0  0  0  0  0  0  0  0  0  0  0  0
  191.9480  172.3730  141.2900 N   0  0  0  0  0  0  0  0  0  0  0  0
  189.3930  172.4110  142.0540 O   0  0  0  0  0  1  0  0  0  0  0  0
  191.6500  171.5930  142.4940 C   0  0  1  0  0  3  0  0  0  0  0  0
  191.4070  171.6960  140.1670 C   0  0  0  0  0  0  0  0  0  0  0  0
  191.3310  172.2090  138.9440 C   0  0  0  0  0  2  0  0  0  0  0  0
  190.1570  171.5360  142.8350 C   0  0  2  0  0  3  0  0  0  0  0  0
  190.6430  170.5780  140.5630 N   0  0  0  0  0  2  0  0  0  0  0  0
  195.5160  174.2930  142.9820 N   0  0  0  0  0  2  0  0  0  0  0  0
  196.8200  174.9330  143.0080 C   0  0  0  0  0  1  0  0  0  0  0  0
  194.4020  176.1990  142.2260 O   0  0  0  0  0  0  0  0  0  0  0  0
  194.3400  174.9870  142.5730 C   0  0  0  0  0  0  0  0  0  0  0  0
  1  4  1  1  0  0  0
  3 15  1  0  0  0  0
  3 13  1  0  0  0  0
  4 14  1  0  0  0  0
  5  3  2  0  0  0  0
  6  9  1  0  0  0  0
  7 12  1  0  0  0  0
  8  2  1  0  0  0  0
  9  1  1  0  0  0  0
  9  2  2  0  0  0  0
 10  8  2  0  0  0  0
 11 14  1  0  0  0  0
 12 13  2  0  0  0  0
 13 11  1  0  0  0  0
 15 16  1  6  0  0  0
 15  1  1  0  0  0  0
 16  6  1  0  0  0  0
 17  6  2  0  0  0  0
 17 10  1  0  0  0  0
 18  5  1  0  0  0  0
 18  7  2  0  0  0  0
 19 22  1  6  0  0  0
 19  7  1  0  0  0  0
 20 22  2  0  0  0  0
 21 29  1  6  0  0  0
 21 25  1  0  0  0  0
 21 28  1  0  0  0  0
 23 22  1  0  0  0  0
 25 23  1  6  0  0  0
 25 28  1  0  0  0  0
 26 29  1  0  0  0  0
 26 23  1  0  0  0  0
 27 26  2  0  0  0  0
 28 24  1  6  0  0  0
 30 31  1  0  0  0  0
 32 33  2  0  0  0  0
 33 19  1  0  0  0  0
 33 30  1  0  0  0  0
M  END
>  <MODEL>
4

>  <REMARK>
 VINA RESULT:      -7.4      1.986      4.285
  Name = 
  3 active torsions:
  status: ('A' for Active; 'I' for Inactive)
    1  A    between atoms: C_10  and  C_21
    2  A    between atoms: C_11  and  C_21
    3  A    between atoms: C_21  and  C_32
                            x       y       z     vdW  Elec       q    Type
                         _______ _______ _______ _____ _____    ______ ____

>  <TORSDO>
F 3

$$$$
=
 OpenBabel11042415033D

 33 38  0  0  1  0  0  0  0  0999 V2000
  188.0160  177.3400  144.3700 C   0  0  1  0  0  3  0  0  0  0  0  0
  186.0380  178.8400  145.0110 C   0  0  0  0  0  3  0  0  0  0  0  0
  189.9100  175.6960  144.5260 C   0  0  0  0  0  0  0  0  0  0  0  0
  187.4670  177.0700  142.9720 C   0  0  0  0  0  2  0  0  0  0  0  0
  190.9840  175.6750  145.4280 C   0  0  0  0  0  3  0  0  0  0  0  0
  186.9960  177.2670  146.5530 C   0  0  0  0  0  0  0  0  0  0  0  0
  192.5170  175.1370  143.6310 C   0  0  0  0  0  0  0  0  0  0  0  0
  185.1210  179.2150  146.0000 C   0  0  0  0  0  3  0  0  0  0  0  0
  186.9670  177.8370  145.2970 C   0  0  0  0  0  0  0  0  0  0  0  0
  185.1640  178.5850  147.2510 C   0  0  0  0  0  3  0  0  0  0  0  0
  189.0510  175.5150  142.1430 C   0  0  0  0  0  2  0  0  0  0  0  0
  191.4510  175.1670  142.7230 C   0  0  0  0  0  3  0  0  0  0  0  0
  190.1530  175.4450  143.1590 C   0  0  0  0  0  0  0  0  0  0  0  0
  188.5630  176.8850  142.0250 N   0  0  0  0  0  2  0  0  0  0  0  0
  188.5110  176.0260  144.9840 C   0  0  1  0  0  3  0  0  0  0  0  0
  188.2580  176.0420  146.8060 S   0  0  0  0  0  0  0  0  0  0  0  0
  186.0980  177.6270  147.5070 N   0  0  0  0  0  0  0  0  0  0  0  0
  192.2780  175.3930  144.9840 C   0  0  0  0  0  3  0  0  0  0  0  0
  193.9140  174.8270  143.1860 C   0  0  1  0  0  3  0  0  0  0  0  0
  193.3790  172.4950  143.1960 O   0  0  0  0  0  0  0  0  0  0  0  0
  197.9410  173.1050  144.2180 C   0  0  1  0  0  3  0  0  0  0  0  0
  194.2660  173.3770  143.3530 C   0  0  0  0  0  0  0  0  0  0  0  0
  195.6090  173.0020  143.7020 N   0  0  0  0  0  0  0  0  0  0  0  0
  196.5120  173.6080  146.1370 O   0  0  0  0  0  1  0  0  0  0  0  0
  196.7380  173.9340  143.7290 C   0  0  1  0  0  3  0  0  0  0  0  0
  196.0790  171.7110  144.0530 C   0  0  0  0  0  0  0  0  0  0  0  0
  195.2970  170.6680  144.3070 C   0  0  0  0  0  2  0  0  0  0  0  0
  197.3110  174.1660  145.1320 C   0  0  2  0  0  3  0  0  0  0  0  0
  197.4330  171.7500  144.4500 N   0  0  0  0  0  2  0  0  0  0  0  0
  194.2770  174.4560  140.7200 N   0  0  0  0  0  2  0  0  0  0  0  0
  194.5980  174.8990  139.3740 C   0  0  0  0  0  1  0  0  0  0  0  0
  194.4740  176.5860  141.6540 O   0  0  0  0  0  0  0  0  0  0  0  0
  194.2260  175.3600  141.8220 C   0  0  0  0  0  0  0  0  0  0  0  0
  1  4  1  6  0  0  0
  1 15  1  0  0  0  0
  1  9  1  0  0  0  0
  2  9  2  0  0  0  0
  2  8  1  0  0  0  0
  3  5  1  0  0  0  0
  6 16  1  0  0  0  0
  6 17  2  0  0  0  0
  7 18  1  0  0  0  0
  8 10  2  0  0  0  0
  9  6  1  0  0  0  0
 10 17  1  0  0  0  0
 11 13  1  0  0  0  0
 12 13  1  0  0  0  0
 12  7  2  0  0  0  0
 13  3  2  0  0  0  0
 14 11  1  0  0  0  0
 14  4  1  0  0  0  0
 15  3  1  1  0  0  0
 15 16  1  0  0  0  0
 18  5  2  0  0  0  0
 19 33  1  6  0  0  0
 19 22  1  0  0  0  0
 19  7  1  0  0  0  0
 20 22  2  0  0  0  0
 21 29  1  1  0  0  0
 21 28  1  0  0  0  0
 22 23  1  0  0  0  0
 23 26  1  0  0  0  0
 25 23  1  1  0  0  0
 25 21  1  0  0  0  0
 25 28  1  0  0  0  0
 26 27  2  0  0  0  0
 26 29  1  0  0  0  0
 28 24  1  1  0  0  0
 30 33  1  0  0  0  0
 31 30  1  0  0  0  0
 32 33  2  0  0  0  0
M  END
>  <MODEL>
5

>  <REMARK>
 VINA RESULT:      -7.4      2.062      3.337
  Name = 
  3 active torsions:
  status: ('A' for Active; 'I' for Inactive)
    1  A    between atoms: C_10  and  C_21
    2  A    between atoms: C_11  and  C_21
    3  A    between atoms: C_21  and  C_32
                            x       y       z     vdW  Elec       q    Type
                         _______ _______ _______ _____ _____    ______ ____

>  <TORSDO>
F 3

$$$$
=
 OpenBabel11042415033D

 33 38  0  0  1  0  0  0  0  0999 V2000
  187.2380  176.4010  144.9980 C   0  0  1  0  0  3  0  0  0  0  0  0
  185.5410  177.3650  146.6600 C   0  0  0  0  0  3  0  0  0  0  0  0
  188.4560  175.8900  142.8600 C   0  0  0  0  0  0  0  0  0  0  0  0
  188.3700  176.4070  146.0210 C   0  0  0  0  0  2  0  0  0  0  0  0
  187.9340  175.4440  141.6360 C   0  0  0  0  0  3  0  0  0  0  0  0
  185.6190  178.0700  144.3650 C   0  0  0  0  0  0  0  0  0  0  0  0
  189.7510  173.8580  141.4090 C   0  0  0  0  0  0  0  0  0  0  0  0
  184.4790  178.2510  146.8720 C   0  0  0  0  0  3  0  0  0  0  0  0
  186.1230  177.2990  145.3920 C   0  0  0  0  0  0  0  0  0  0  0  0
  184.0200  179.0410  145.8080 C   0  0  0  0  0  3  0  0  0  0  0  0
  190.2000  175.6960  144.6940 C   0  0  0  0  0  2  0  0  0  0  0  0
  190.2720  174.2910  142.6350 C   0  0  0  0  0  3  0  0  0  0  0  0
  189.6340  175.2990  143.3630 C   0  0  0  0  0  0  0  0  0  0  0  0
  189.2900  175.3020  145.7650 N   0  0  0  0  0  2  0  0  0  0  0  0
  187.7560  176.9560  143.6660 C   0  0  1  0  0  3  0  0  0  0  0  0
  186.4120  177.8550  142.7900 S   0  0  0  0  0  0  0  0  0  0  0  0
  184.5940  178.9370  144.5770 N   0  0  0  0  0  0  0  0  0  0  0  0
  188.5810  174.4380  140.9140 C   0  0  0  0  0  3  0  0  0  0  0  0
  190.4290  172.7890  140.6060 C   0  0  1  0  0  3  0  0  0  0  0  0
  192.3600  174.0900  140.0540 O   0  0  0  0  0  0  0  0  0  0  0  0
  190.6020  172.0860  136.1650 C   0  0  1  0  0  3  0  0  0  0  0  0
  191.4340  173.3420  139.6370 C   0  0  0  0  0  0  0  0  0  0  0  0
  191.3310  173.0250  138.2400 N   0  0  0  0  0  0  0  0  0  0  0  0
  189.2870  174.0300  136.8510 O   0  0  0  0  0  1  0  0  0  0  0  0
  190.4060  172.0300  137.6920 C   0  0  1  0  0  3  0  0  0  0  0  0
  192.0850  173.5780  137.1730 C   0  0  0  0  0  0  0  0  0  0  0  0
  192.8810  174.6340  137.2830 C   0  0  0  0  0  1  0  0  0  0  0  0
  189.3140  172.6310  136.7990 C   0  0  2  0  0  3  0  0  0  0  0  0
  191.6210  173.1120  135.9240 N   0  0  0  0  0  0  0  0  0  0  0  0
  192.3800  171.5160  141.5660 N   0  0  0  0  0  2  0  0  0  0  0  0
  192.9720  170.4450  142.3480 C   0  0  0  0  0  1  0  0  0  0  0  0
  190.1850  170.8700  142.0240 O   0  0  0  0  0  0  0  0  0  0  0  0
  190.9680  171.6760  141.4500 C   0  0  0  0  0  0  0  0  0  0  0  0
  1  9  1  0  0  0  0
  1  4  1  1  0  0  0
  2  8  1  0  0  0  0
  3 13  1  0  0  0  0
  3 15  1  0  0  0  0
  5  3  2  0  0  0  0
  6 17  2  0  0  0  0
  6  9  1  0  0  0  0
  7 12  1  0  0  0  0
  9  2  2  0  0  0  0
 10  8  2  0  0  0  0
 11 14  1  0  0  0  0
 12 13  2  0  0  0  0
 13 11  1  0  0  0  0
 14  4  1  0  0  0  0
 15 16  1  6  0  0  0
 15  1  1  0  0  0  0
 16  6  1  0  0  0  0
 17 10  1  0  0  0  0
 18  7  2  0  0  0  0
 18  5  1  0  0  0  0
 19 22  1  1  0  0  0
 19  7  1  0  0  0  0
 19 33  1  0  0  0  0
 21 29  1  1  0  0  0
 21 28  1  0  0  0  0
 21 25  1  0  0  0  0
 22 20  2  0  0  0  0
 23 22  1  0  0  0  0
 25 23  1  1  0  0  0
 26 27  1  0  0  0  0
 26 23  1  0  0  0  0
 28 24  1  1  0  0  0
 28 25  1  0  0  0  0
 29 26  2  0  0  0  0
 30 31  1  0  0  0  0
 33 30  1  0  0  0  0
 33 32  2  0  0  0  0
M  END
>  <MODEL>
6

>  <REMARK>
 VINA RESULT:      -7.1      3.705      4.988
  Name = 
  3 active torsions:
  status: ('A' for Active; 'I' for Inactive)
    1  A    between atoms: C_10  and  C_21
    2  A    between atoms: C_11  and  C_21
    3  A    between atoms: C_21  and  C_32
                            x       y       z     vdW  Elec       q    Type
                         _______ _______ _______ _____ _____    ______ ____

>  <TORSDO>
F 3

$$$$
=
 OpenBabel11042415033D

 33 38  0  0  1  0  0  0  0  0999 V2000
  189.0570  176.3900  145.8170 C   0  0  1  0  0  3  0  0  0  0  0  0
  186.5710  176.7870  146.2970 C   0  0  0  0  0  3  0  0  0  0  0  0
  191.2870  176.3580  144.6580 C   0  0  0  0  0  0  0  0  0  0  0  0
  189.4550  176.5740  147.2790 C   0  0  0  0  0  2  0  0  0  0  0  0
  191.6000  175.9070  143.3680 C   0  0  0  0  0  3  0  0  0  0  0  0
  187.6510  177.6810  144.3460 C   0  0  0  0  0  0  0  0  0  0  0  0
  193.5940  174.8140  144.2050 C   0  0  0  0  0  0  0  0  0  0  0  0
  185.3740  177.3800  145.8770 C   0  0  0  0  0  3  0  0  0  0  0  0
  187.7200  176.9660  145.5240 C   0  0  0  0  0  0  0  0  0  0  0  0
  185.3560  178.1260  144.6910 C   0  0  0  0  0  3  0  0  0  0  0  0
  191.8160  176.4250  147.1410 C   0  0  0  0  0  2  0  0  0  0  0  0
  193.2820  175.2530  145.4980 C   0  0  0  0  0  3  0  0  0  0  0  0
  192.1370  176.0190  145.7320 C   0  0  0  0  0  0  0  0  0  0  0  0
  190.6110  175.7410  147.5990 N   0  0  0  0  0  2  0  0  0  0  0  0
  190.0370  177.1590  144.9240 C   0  0  1  0  0  3  0  0  0  0  0  0
  189.1690  177.7900  143.4300 S   0  0  0  0  0  0  0  0  0  0  0  0
  186.4900  178.2630  143.9470 N   0  0  0  0  0  0  0  0  0  0  0  0
  192.7490  175.1440  143.1420 C   0  0  0  0  0  3  0  0  0  0  0  0
  194.8250  174.0050  143.9300 C   0  0  1  0  0  3  0  0  0  0  0  0
  195.1920  173.4140  141.6410 O   0  0  0  0  0  0  0  0  0  0  0  0
  192.6290  170.0810  143.7750 C   0  0  1  0  0  3  0  0  0  0  0  0
  194.6690  173.0980  142.7440 C   0  0  0  0  0  0  0  0  0  0  0  0
  193.9160  171.8800  142.8690 N   0  0  0  0  0  0  0  0  0  0  0  0
  191.2770  172.0420  143.2220 O   0  0  0  0  0  1  0  0  0  0  0  0
  193.4280  171.3460  144.1420 C   0  0  1  0  0  3  0  0  0  0  0  0
  193.5340  170.9940  141.8290 C   0  0  0  0  0  0  0  0  0  0  0  0
  193.6490  171.2600  140.5330 C   0  0  0  0  0  2  0  0  0  0  0  0
  191.9000  171.3410  144.2620 C   0  0  2  0  0  3  0  0  0  0  0  0
  192.6980  169.9660  142.3140 N   0  0  0  0  0  2  0  0  0  0  0  0
  196.0310  176.1110  143.2550 N   0  0  0  0  0  2  0  0  0  0  0  0
  197.2080  176.9570  143.1520 C   0  0  0  0  0  1  0  0  0  0  0  0
  197.1520  174.3930  144.3670 O   0  0  0  0  0  0  0  0  0  0  0  0
  196.0720  174.8330  143.8850 C   0  0  0  0  0  0  0  0  0  0  0  0
  1  4  1  1  0  0  0
  3 15  1  0  0  0  0
  3 13  1  0  0  0  0
  4 14  1  0  0  0  0
  5  3  2  0  0  0  0
  6  9  1  0  0  0  0
  7 12  1  0  0  0  0
  8  2  1  0  0  0  0
  9  1  1  0  0  0  0
  9  2  2  0  0  0  0
 10  8  2  0  0  0  0
 11 14  1  0  0  0  0
 12 13  2  0  0  0  0
 13 11  1  0  0  0  0
 15 16  1  6  0  0  0
 15  1  1  0  0  0  0
 16  6  1  0  0  0  0
 17  6  2  0  0  0  0
 17 10  1  0  0  0  0
 18  5  1  0  0  0  0
 18  7  2  0  0  0  0
 19 22  1  6  0  0  0
 19  7  1  0  0  0  0
 20 22  2  0  0  0  0
 21 29  1  6  0  0  0
 21 25  1  0  0  0  0
 21 28  1  0  0  0  0
 22 23  1  0  0  0  0
 25 23  1  6  0  0  0
 25 28  1  0  0  0  0
 26 29  1  0  0  0  0
 26 23  1  0  0  0  0
 27 26  2  0  0  0  0
 28 24  1  6  0  0  0
 30 33  1  0  0  0  0
 31 30  1  0  0  0  0
 33 19  1  0  0  0  0
 33 32  2  0  0  0  0
M  END
>  <MODEL>
7

>  <REMARK>
 VINA RESULT:      -7.1      1.659      3.929
  Name = 
  3 active torsions:
  status: ('A' for Active; 'I' for Inactive)
    1  A    between atoms: C_10  and  C_21
    2  A    between atoms: C_11  and  C_21
    3  A    between atoms: C_21  and  C_32
                            x       y       z     vdW  Elec       q    Type
                         _______ _______ _______ _____ _____    ______ ____

>  <TORSDO>
F 3

$$$$
=
 OpenBabel11042415033D

 33 38  0  0  1  0  0  0  0  0999 V2000
  188.0350  177.1300  144.1450 C   0  0  1  0  0  3  0  0  0  0  0  0
  186.1050  178.7360  144.6630 C   0  0  0  0  0  3  0  0  0  0  0  0
  189.9410  175.5190  144.4410 C   0  0  0  0  0  0  0  0  0  0  0  0
  187.3830  176.6270  142.8600 C   0  0  0  0  0  2  0  0  0  0  0  0
  191.0800  175.6440  145.2490 C   0  0  0  0  0  3  0  0  0  0  0  0
  187.1830  177.4440  146.3780 C   0  0  0  0  0  0  0  0  0  0  0  0
  192.4750  174.7890  143.4630 C   0  0  0  0  0  0  0  0  0  0  0  0
  185.2640  179.2860  145.6370 C   0  0  0  0  0  3  0  0  0  0  0  0
  187.0570  177.7890  145.0480 C   0  0  0  0  0  0  0  0  0  0  0  0
  185.4040  178.8810  146.9720 C   0  0  0  0  0  3  0  0  0  0  0  0
  188.9050  174.9360  142.1970 C   0  0  0  0  0  2  0  0  0  0  0  0
  191.3440  174.6720  142.6460 C   0  0  0  0  0  3  0  0  0  0  0  0
  190.0810  175.0330  143.1230 C   0  0  0  0  0  0  0  0  0  0  0  0
  188.4050  176.2700  141.8800 N   0  0  0  0  0  2  0  0  0  0  0  0
  188.5800  175.9360  144.9380 C   0  0  1  0  0  3  0  0  0  0  0  0
  188.4650  176.2700  146.7430 S   0  0  0  0  0  0  0  0  0  0  0  0
  186.3580  177.9720  147.3190 N   0  0  0  0  0  0  0  0  0  0  0  0
  192.3380  175.2770  144.7650 C   0  0  0  0  0  3  0  0  0  0  0  0
  193.8360  174.3930  142.9750 C   0  0  1  0  0  3  0  0  0  0  0  0
  193.9750  173.7670  140.6700 O   0  0  0  0  0  0  0  0  0  0  0  0
  193.0490  169.9760  143.3180 C   0  0  1  0  0  3  0  0  0  0  0  0
  193.7820  173.3910  141.8590 C   0  0  0  0  0  0  0  0  0  0  0  0
  193.5010  172.0120  142.1480 N   0  0  0  0  0  0  0  0  0  0  0  0
  191.0570  171.3560  142.9920 O   0  0  0  0  0  1  0  0  0  0  0  0
  193.4420  171.4540  143.5010 C   0  0  1  0  0  3  0  0  0  0  0  0
  193.2560  170.9690  141.2170 C   0  0  0  0  0  0  0  0  0  0  0  0
  193.0530  171.1530  139.9180 C   0  0  0  0  0  2  0  0  0  0  0  0
  192.0440  170.9750  143.9090 C   0  0  2  0  0  3  0  0  0  0  0  0
  192.8990  169.7730  141.8730 N   0  0  0  0  0  2  0  0  0  0  0  0
  195.9820  175.6660  143.3250 N   0  0  0  0  0  2  0  0  0  0  0  0
  196.8760  176.7900  143.1020 C   0  0  0  0  0  1  0  0  0  0  0  0
  194.3300  176.4740  141.8890 O   0  0  0  0  0  0  0  0  0  0  0  0
  194.7160  175.5670  142.6770 C   0  0  0  0  0  0  0  0  0  0  0  0
  1  4  1  6  0  0  0
  1 15  1  0  0  0  0
  1  9  1  0  0  0  0
  2  9  2  0  0  0  0
  2  8  1  0  0  0  0
  3  5  1  0  0  0  0
  6 16  1  0  0  0  0
  6 17  2  0  0  0  0
  7 18  1  0  0  0  0
  8 10  2  0  0  0  0
  9  6  1  0  0  0  0
 10 17  1  0  0  0  0
 11 13  1  0  0  0  0
 12 13  1  0  0  0  0
 12  7  2  0  0  0  0
 13  3  2  0  0  0  0
 14 11  1  0  0  0  0
 14  4  1  0  0  0  0
 15  3  1  6  0  0  0
 15 16  1  0  0  0  0
 18  5  2  0  0  0  0
 19 22  1  6  0  0  0
 19  7  1  0  0  0  0
 20 22  2  0  0  0  0
 21 29  1  6  0  0  0
 21 25  1  0  0  0  0
 21 28  1  0  0  0  0
 22 23  1  0  0  0  0
 25 23  1  6  0  0  0
 25 28  1  0  0  0  0
 26 29  1  0  0  0  0
 26 23  1  0  0  0  0
 27 26  2  0  0  0  0
 28 24  1  6  0  0  0
 31 30  1  0  0  0  0
 32 33  2  0  0  0  0
 33 19  1  0  0  0  0
 33 30  1  0  0  0  0
M  END
>  <MODEL>
8

>  <REMARK>
 VINA RESULT:      -7.1      2.006      4.420
  Name = 
  3 active torsions:
  status: ('A' for Active; 'I' for Inactive)
    1  A    between atoms: C_10  and  C_21
    2  A    between atoms: C_11  and  C_21
    3  A    between atoms: C_21  and  C_32
                            x       y       z     vdW  Elec       q    Type
                         _______ _______ _______ _____ _____    ______ ____

>  <TORSDO>
F 3

$$$$
=
 OpenBabel11042415033D

 33 38  0  0  1  0  0  0  0  0999 V2000
  184.6590  177.8540  143.1200 C   0  0  1  0  0  3  0  0  0  0  0  0
  182.2330  178.6660  142.9480 C   0  0  0  0  0  3  0  0  0  0  0  0
  186.9420  177.0140  142.4920 C   0  0  0  0  0  0  0  0  0  0  0  0
  184.9620  178.7490  144.3180 C   0  0  0  0  0  2  0  0  0  0  0  0
  187.2850  175.9210  141.6820 C   0  0  0  0  0  3  0  0  0  0  0  0
  183.5920  178.2880  141.0030 C   0  0  0  0  0  0  0  0  0  0  0  0
  189.0120  175.2660  143.2490 C   0  0  0  0  0  0  0  0  0  0  0  0
  181.1810  179.0500  142.1100 C   0  0  0  0  0  3  0  0  0  0  0  0
  183.4550  178.3040  142.3750 C   0  0  0  0  0  0  0  0  0  0  0  0
  181.3740  179.0520  140.7210 C   0  0  0  0  0  3  0  0  0  0  0  0
  187.2750  178.3390  144.6320 C   0  0  0  0  0  2  0  0  0  0  0  0
  188.6680  176.3490  144.0690 C   0  0  0  0  0  3  0  0  0  0  0  0
  187.6410  177.2220  143.7000 C   0  0  0  0  0  0  0  0  0  0  0  0
  185.9450  178.1130  145.1900 N   0  0  0  0  0  2  0  0  0  0  0  0
  185.8140  177.9420  142.1160 C   0  0  1  0  0  3  0  0  0  0  0  0
  185.1770  177.7590  140.4000 S   0  0  0  0  0  0  0  0  0  0  0  0
  182.5710  178.6710  140.1920 N   0  0  0  0  0  0  0  0  0  0  0  0
  188.3160  175.0550  142.0560 C   0  0  0  0  0  3  0  0  0  0  0  0
  190.1200  174.3270  143.6190 C   0  0  1  0  0  3  0  0  0  0  0  0
  189.6940  174.1370  145.9650 O   0  0  0  0  0  0  0  0  0  0  0  0
  194.0930  175.6730  145.2470 C   0  0  1  0  0  3  0  0  0  0  0  0
  190.5190  174.4410  145.0620 C   0  0  0  0  0  0  0  0  0  0  0  0
  191.8340  174.9060  145.4060 N   0  0  0  0  0  0  0  0  0  0  0  0
  192.4520  177.4570  144.9280 O   0  0  0  0  0  1  0  0  0  0  0  0
  192.9110  175.1110  144.4350 C   0  0  1  0  0  3  0  0  0  0  0  0
  192.3240  175.2250  146.6990 C   0  0  0  0  0  0  0  0  0  0  0  0
  191.5680  175.3300  147.7850 C   0  0  0  0  0  1  0  0  0  0  0  0
  193.3240  176.5780  144.2740 C   0  0  2  0  0  3  0  0  0  0  0  0
  193.6260  175.7650  146.6330 N   0  0  0  0  0  0  0  0  0  0  0  0
  190.6510  172.3630  142.1320 N   0  0  0  0  0  2  0  0  0  0  0  0
  190.4410  171.0120  141.6420 C   0  0  0  0  0  1  0  0  0  0  0  0
  188.9410  172.2400  143.7150 O   0  0  0  0  0  0  0  0  0  0  0  0
  189.8630  172.9180  143.1830 C   0  0  0  0  0  0  0  0  0  0  0  0
  1  4  1  1  0  0  0
  3 13  1  0  0  0  0
  4 14  1  0  0  0  0
  5 18  1  0  0  0  0
  5  3  2  0  0  0  0
  6  9  2  0  0  0  0
  7 19  1  0  0  0  0
  7 12  1  0  0  0  0
  8  2  2  0  0  0  0
  9  2  1  0  0  0  0
  9  1  1  0  0  0  0
 10  8  1  0  0  0  0
 11 14  1  0  0  0  0
 13 12  2  0  0  0  0
 13 11  1  0  0  0  0
 15 16  1  6  0  0  0
 15  3  1  0  0  0  0
 15  1  1  0  0  0  0
 16  6  1  0  0  0  0
 17 10  2  0  0  0  0
 17  6  1  0  0  0  0
 18  7  2  0  0  0  0
 19 33  1  1  0  0  0
 19 22  1  0  0  0  0
 21 29  1  1  0  0  0
 22 23  1  0  0  0  0
 22 20  2  0  0  0  0
 23 26  1  0  0  0  0
 25 21  1  0  0  0  0
 25 23  1  1  0  0  0
 26 27  1  0  0  0  0
 28 25  1  0  0  0  0
 28 24  1  1  0  0  0
 28 21  1  0  0  0  0
 29 26  2  0  0  0  0
 30 33  1  0  0  0  0
 31 30  1  0  0  0  0
 33 32  2  0  0  0  0
M  END
>  <MODEL>
9

>  <REMARK>
 VINA RESULT:      -7.1      2.912      4.216
  Name = 
  3 active torsions:
  status: ('A' for Active; 'I' for Inactive)
    1  A    between atoms: C_10  and  C_21
    2  A    between atoms: C_11  and  C_21
    3  A    between atoms: C_21  and  C_32
                            x       y       z     vdW  Elec       q    Type
                         _______ _______ _______ _____ _____    ______ ____

>  <TORSDO>
F 3

$$$$
