=
 OpenBabel11042413513D

 25 27  0  0  1  0  0  0  0  0999 V2000
  187.6650  177.7200  144.0030 C   0  0  0  0  0  0  0  0  0  0  0  0
  188.4550  177.4200  143.0300 N   0  0  0  0  0  2  0  0  0  0  0  0
  187.8490  177.9320  141.8000 C   0  0  2  0  0  3  0  0  0  0  0  0
  186.5420  178.4100  143.5770 C   0  0  0  0  0  0  0  0  0  0  0  0
  187.8680  177.4110  145.3700 C   0  0  0  0  0  0  0  0  0  0  0  0
  185.5470  178.8480  144.4630 C   0  0  0  0  0  3  0  0  0  0  0  0
  185.7620  178.5460  145.8120 C   0  0  0  0  0  0  0  0  0  0  0  0
  186.8710  177.8610  146.2470 C   0  0  0  0  0  0  0  0  0  0  0  0
  186.5710  178.5740  142.2680 C   0  0  0  0  0  2  0  0  0  0  0  0
  184.9890  178.8320  146.9140 C   0  0  0  0  0  3  0  0  0  0  0  0
  186.8200  177.7120  147.5420 O   0  0  0  0  0  0  0  0  0  0  0  0
  185.7090  178.2800  147.9780 C   0  0  0  0  0  3  0  0  0  0  0  0
  186.8450  177.0280  139.8430 O   0  0  0  0  0  0  0  0  0  0  0  0
  187.5640  176.8100  140.8540 C   0  0  0  0  0  0  0  0  0  0  0  0
  188.3320  174.6580  140.1600 C   0  0  0  0  0  2  0  0  0  0  0  0
  188.0910  175.5020  141.1090 N   0  0  0  0  0  0  0  0  0  0  0  0
  188.9720  176.7080  145.8740 O   0  0  0  0  0  0  0  0  0  0  0  0
  189.0600  175.2880  145.9380 C   0  0  0  0  0  2  0  0  0  0  0  0
  189.6600  174.8460  147.2680 C   0  0  0  0  0  2  0  0  0  0  0  0
  190.8340  175.7260  147.6640 C   0  0  0  0  0  2  0  0  0  0  0  0
  192.1310  175.1780  147.0910 C   0  0  0  0  0  2  0  0  0  0  0  0
  192.8800  176.2660  146.3360 C   0  0  0  0  0  2  0  0  0  0  0  0
  192.6750  176.1330  144.8340 C   0  0  1  0  0  3  0  0  0  0  0  0
  191.9200  177.3310  144.2900 C   0  0  0  0  0  1  0  0  0  0  0  0
  193.9680  176.0490  144.1800 N   0  0  0  0  0  1  0  0  0  0  0  0
  1  5  1  0  0  0  0
  2  1  1  0  0  0  0
  3 14  1  6  0  0  0
  3  9  1  0  0  0  0
  3  2  1  0  0  0  0
  4  1  2  0  0  0  0
  4  6  1  0  0  0  0
  5 17  1  0  0  0  0
  5  8  2  0  0  0  0
  6  7  2  0  0  0  0
  7  8  1  0  0  0  0
  7 10  1  0  0  0  0
  8 11  1  0  0  0  0
  9  4  1  0  0  0  0
 10 12  2  0  0  0  0
 11 12  1  0  0  0  0
 13 14  2  0  0  0  0
 14 16  1  0  0  0  0
 15 16  2  0  0  0  0
 17 18  1  0  0  0  0
 18 19  1  0  0  0  0
 19 20  1  0  0  0  0
 21 20  1  0  0  0  0
 22 21  1  0  0  0  0
 23 24  1  6  0  0  0
 23 22  1  0  0  0  0
 25 23  1  0  0  0  0
M  END
>  <MODEL>
1

>  <REMARK>
 VINA RESULT:      -6.4      0.000      0.000
  Name = 
  9 active torsions:
  status: ('A' for Active; 'I' for Inactive)
    1  A    between atoms: C_2  and  C_5
    2  A    between atoms: C_4  and  C_13
    3  A    between atoms: C_4  and  C_23
    4  A    between atoms: C_5  and  C_10
    5  A    between atoms: C_7  and  C_8
    6  A    between atoms: C_8  and  N_12
    7  A    between atoms: C_10  and  C_23
    8  A    between atoms: C_13  and  O_16
    9  A    between atoms: C_14  and  O_16
                            x       y       z     vdW  Elec       q    Type
                         _______ _______ _______ _____ _____    ______ ____

>  <TORSDO>
F 9

$$$$
=
 OpenBabel11042413513D

 25 27  0  0  1  0  0  0  0  0999 V2000
  186.2480  177.9320  142.7730 C   0  0  0  0  0  0  0  0  0  0  0  0
  187.3060  177.8390  143.5040 N   0  0  0  0  0  2  0  0  0  0  0  0
  188.4540  177.7460  142.6020 C   0  0  2  0  0  3  0  0  0  0  0  0
  186.5400  177.9180  141.4200 C   0  0  0  0  0  0  0  0  0  0  0  0
  184.9160  178.0410  143.2410 C   0  0  0  0  0  0  0  0  0  0  0  0
  185.5450  178.0160  140.4350 C   0  0  0  0  0  3  0  0  0  0  0  0
  184.2350  178.1320  140.9080 C   0  0  0  0  0  0  0  0  0  0  0  0
  183.9330  178.1460  142.2490 C   0  0  0  0  0  0  0  0  0  0  0  0
  187.8410  177.8030  141.2290 C   0  0  0  0  0  2  0  0  0  0  0  0
  183.0520  178.2470  140.2120 C   0  0  0  0  0  3  0  0  0  0  0  0
  182.6430  178.2610  142.4120 O   0  0  0  0  0  0  0  0  0  0  0  0
  182.0810  178.3250  141.2160 C   0  0  0  0  0  3  0  0  0  0  0  0
  190.4320  176.4310  142.7310 O   0  0  0  0  0  0  0  0  0  0  0  0
  189.1750  176.4520  142.8070 C   0  0  0  0  0  0  0  0  0  0  0  0
  188.1960  174.3730  142.1560 C   0  0  0  0  0  2  0  0  0  0  0  0
  188.4380  175.2530  143.0720 N   0  0  0  0  0  0  0  0  0  0  0  0
  184.5440  178.0510  144.5930 O   0  0  0  0  0  0  0  0  0  0  0  0
  184.6650  179.1800  145.4530 C   0  0  0  0  0  2  0  0  0  0  0  0
  185.2490  178.7700  146.8000 C   0  0  0  0  0  2  0  0  0  0  0  0
  185.4530  177.2660  146.8790 C   0  0  0  0  0  2  0  0  0  0  0  0
  186.8140  176.9400  147.4700 C   0  0  0  0  0  2  0  0  0  0  0  0
  187.6580  176.1690  146.4670 C   0  0  0  0  0  2  0  0  0  0  0  0
  189.1220  176.1480  146.8800 C   0  0  1  0  0  3  0  0  0  0  0  0
  189.7730  174.8400  146.4710 C   0  0  0  0  0  1  0  0  0  0  0  0
  189.8170  177.2470  146.2360 N   0  0  0  0  0  1  0  0  0  0  0  0
  1  5  1  0  0  0  0
  1  2  1  0  0  0  0
  3 14  1  6  0  0  0
  3  2  1  0  0  0  0
  4  1  2  0  0  0  0
  5 17  1  0  0  0  0
  6  7  2  0  0  0  0
  6  4  1  0  0  0  0
  7  8  1  0  0  0  0
  8 11  1  0  0  0  0
  8  5  2  0  0  0  0
  9  4  1  0  0  0  0
  9  3  1  0  0  0  0
 10  7  1  0  0  0  0
 10 12  2  0  0  0  0
 12 11  1  0  0  0  0
 13 14  2  0  0  0  0
 14 16  1  0  0  0  0
 15 16  2  0  0  0  0
 17 18  1  0  0  0  0
 18 19  1  0  0  0  0
 19 20  1  0  0  0  0
 20 21  1  0  0  0  0
 22 23  1  0  0  0  0
 22 21  1  0  0  0  0
 23 24  1  6  0  0  0
 25 23  1  0  0  0  0
M  END
>  <MODEL>
2

>  <REMARK>
 VINA RESULT:      -6.2      2.479      4.575
  Name = 
  9 active torsions:
  status: ('A' for Active; 'I' for Inactive)
    1  A    between atoms: C_2  and  C_5
    2  A    between atoms: C_4  and  C_13
    3  A    between atoms: C_4  and  C_23
    4  A    between atoms: C_5  and  C_10
    5  A    between atoms: C_7  and  C_8
    6  A    between atoms: C_8  and  N_12
    7  A    between atoms: C_10  and  C_23
    8  A    between atoms: C_13  and  O_16
    9  A    between atoms: C_14  and  O_16
                            x       y       z     vdW  Elec       q    Type
                         _______ _______ _______ _____ _____    ______ ____

>  <TORSDO>
F 9

$$$$
=
 OpenBabel11042413513D

 25 27  0  0  1  0  0  0  0  0999 V2000
  187.2450  177.9020  145.0780 C   0  0  0  0  0  0  0  0  0  0  0  0
  186.6390  178.8240  144.4120 N   0  0  0  0  0  2  0  0  0  0  0  0
  185.2780  178.9240  144.9410 C   0  0  2  0  0  3  0  0  0  0  0  0
  186.4340  177.3320  146.0460 C   0  0  0  0  0  0  0  0  0  0  0  0
  188.5830  177.4780  144.8910 C   0  0  0  0  0  0  0  0  0  0  0  0
  186.8850  176.3120  146.8980 C   0  0  0  0  0  3  0  0  0  0  0  0
  188.2100  175.9080  146.7110 C   0  0  0  0  0  0  0  0  0  0  0  0
  189.0230  176.4650  145.7530 C   0  0  0  0  0  0  0  0  0  0  0  0
  185.2360  177.8830  146.0270 C   0  0  0  0  0  2  0  0  0  0  0  0
  188.9420  174.9480  147.3730 C   0  0  0  0  0  3  0  0  0  0  0  0
  190.2010  175.9050  145.7910 O   0  0  0  0  0  0  0  0  0  0  0  0
  190.1920  174.9920  146.7480 C   0  0  0  0  0  3  0  0  0  0  0  0
  183.1260  179.1160  143.9460 O   0  0  0  0  0  0  0  0  0  0  0  0
  184.2800  178.6150  143.8720 C   0  0  0  0  0  0  0  0  0  0  0  0
  184.5760  178.1280  141.5530 C   0  0  0  0  0  2  0  0  0  0  0  0
  184.6320  177.7480  142.7870 N   0  0  0  0  0  0  0  0  0  0  0  0
  189.4580  177.9990  143.9260 O   0  0  0  0  0  0  0  0  0  0  0  0
  189.6500  177.4430  142.6300 C   0  0  0  0  0  2  0  0  0  0  0  0
  188.3890  177.5950  141.7860 C   0  0  0  0  0  2  0  0  0  0  0  0
  187.9350  176.2570  141.2250 C   0  0  0  0  0  2  0  0  0  0  0  0
  187.3990  175.3660  142.3340 C   0  0  0  0  0  2  0  0  0  0  0  0
  187.8130  173.9210  142.1000 C   0  0  0  0  0  2  0  0  0  0  0  0
  189.3130  173.8070  141.8790 C   0  0  1  0  0  3  0  0  0  0  0  0
  190.0310  173.5620  143.1930 C   0  0  0  0  0  1  0  0  0  0  0  0
  189.5820  172.7020  140.9770 N   0  0  0  0  0  1  0  0  0  0  0  0
  1  4  1  0  0  0  0
  2  3  1  0  0  0  0
  2  1  1  0  0  0  0
  3 14  1  6  0  0  0
  3  9  1  0  0  0  0
  4  6  2  0  0  0  0
  5  1  2  0  0  0  0
  5  8  1  0  0  0  0
  7  6  1  0  0  0  0
  7 10  1  0  0  0  0
  8 11  1  0  0  0  0
  8  7  2  0  0  0  0
  9  4  1  0  0  0  0
 11 12  1  0  0  0  0
 12 10  2  0  0  0  0
 14 13  2  0  0  0  0
 15 16  2  0  0  0  0
 16 14  1  0  0  0  0
 17  5  1  0  0  0  0
 18 17  1  0  0  0  0
 19 18  1  0  0  0  0
 20 19  1  0  0  0  0
 20 21  1  0  0  0  0
 22 21  1  0  0  0  0
 23 22  1  0  0  0  0
 23 24  1  1  0  0  0
 25 23  1  0  0  0  0
M  END
>  <MODEL>
3

>  <REMARK>
 VINA RESULT:      -6.1      2.530      4.744
  Name = 
  9 active torsions:
  status: ('A' for Active; 'I' for Inactive)
    1  A    between atoms: C_2  and  C_5
    2  A    between atoms: C_4  and  C_13
    3  A    between atoms: C_4  and  C_23
    4  A    between atoms: C_5  and  C_10
    5  A    between atoms: C_7  and  C_8
    6  A    between atoms: C_8  and  N_12
    7  A    between atoms: C_10  and  C_23
    8  A    between atoms: C_13  and  O_16
    9  A    between atoms: C_14  and  O_16
                            x       y       z     vdW  Elec       q    Type
                         _______ _______ _______ _____ _____    ______ ____

>  <TORSDO>
F 9

$$$$
=
 OpenBabel11042413513D

 25 27  0  0  1  0  0  0  0  0999 V2000
  187.8630  177.4260  144.4380 C   0  0  0  0  0  0  0  0  0  0  0  0
  188.9560  176.9930  143.9110 N   0  0  0  0  0  2  0  0  0  0  0  0
  188.8740  177.2360  142.4700 C   0  0  2  0  0  3  0  0  0  0  0  0
  187.0010  177.9650  143.4980 C   0  0  0  0  0  0  0  0  0  0  0  0
  187.5240  177.3850  145.8130 C   0  0  0  0  0  0  0  0  0  0  0  0
  185.7540  178.5060  143.8430 C   0  0  0  0  0  3  0  0  0  0  0  0
  185.4340  178.4690  145.2040 C   0  0  0  0  0  0  0  0  0  0  0  0
  186.2800  177.9350  146.1470 C   0  0  0  0  0  0  0  0  0  0  0  0
  187.5280  177.8850  142.2900 C   0  0  0  0  0  2  0  0  0  0  0  0
  184.3070  178.9130  145.8580 C   0  0  0  0  0  3  0  0  0  0  0  0
  185.7380  178.0260  147.3310 O   0  0  0  0  0  0  0  0  0  0  0  0
  184.5570  178.6050  147.1990 C   0  0  0  0  0  3  0  0  0  0  0  0
  188.0620  175.6890  140.8560 O   0  0  0  0  0  0  0  0  0  0  0  0
  188.9440  175.9450  141.7190 C   0  0  0  0  0  0  0  0  0  0  0  0
  189.7700  173.7460  142.1490 C   0  0  0  0  0  2  0  0  0  0  0  0
  189.9940  175.0100  141.9930 N   0  0  0  0  0  0  0  0  0  0  0  0
  188.3390  176.8460  146.8200 O   0  0  0  0  0  0  0  0  0  0  0  0
  188.2920  175.4900  147.2520 C   0  0  0  0  0  2  0  0  0  0  0  0
  189.6870  174.8770  147.2560 C   0  0  0  0  0  2  0  0  0  0  0  0
  190.0590  174.3440  145.8810 C   0  0  0  0  0  2  0  0  0  0  0  0
  191.5460  174.5230  145.6220 C   0  0  0  0  0  2  0  0  0  0  0  0
  192.2170  175.1820  146.8160 C   0  0  0  0  0  2  0  0  0  0  0  0
  193.1660  176.2860  146.3740 C   0  0  1  0  0  3  0  0  0  0  0  0
  194.5870  175.7630  146.2770 C   0  0  0  0  0  1  0  0  0  0  0  0
  192.7520  176.7810  145.0740 N   0  0  0  0  0  1  0  0  0  0  0  0
  1  5  1  0  0  0  0
  2  1  1  0  0  0  0
  3 14  1  6  0  0  0
  3  2  1  0  0  0  0
  4  6  1  0  0  0  0
  4  1  2  0  0  0  0
  5  8  2  0  0  0  0
  5 17  1  0  0  0  0
  6  7  2  0  0  0  0
  7 10  1  0  0  0  0
  7  8  1  0  0  0  0
  8 11  1  0  0  0  0
  9  3  1  0  0  0  0
  9  4  1  0  0  0  0
 10 12  2  0  0  0  0
 12 11  1  0  0  0  0
 13 14  2  0  0  0  0
 14 16  1  0  0  0  0
 16 15  2  0  0  0  0
 17 18  1  0  0  0  0
 18 19  1  0  0  0  0
 20 19  1  0  0  0  0
 21 20  1  0  0  0  0
 21 22  1  0  0  0  0
 23 24  1  6  0  0  0
 23 22  1  0  0  0  0
 25 23  1  0  0  0  0
M  END
>  <MODEL>
4

>  <REMARK>
 VINA RESULT:      -6.1      1.322      1.603
  Name = 
  9 active torsions:
  status: ('A' for Active; 'I' for Inactive)
    1  A    between atoms: C_2  and  C_5
    2  A    between atoms: C_4  and  C_13
    3  A    between atoms: C_4  and  C_23
    4  A    between atoms: C_5  and  C_10
    5  A    between atoms: C_7  and  C_8
    6  A    between atoms: C_8  and  N_12
    7  A    between atoms: C_10  and  C_23
    8  A    between atoms: C_13  and  O_16
    9  A    between atoms: C_14  and  O_16
                            x       y       z     vdW  Elec       q    Type
                         _______ _______ _______ _____ _____    ______ ____

>  <TORSDO>
F 9

$$$$
=
 OpenBabel11042413513D

 25 27  0  0  1  0  0  0  0  0999 V2000
  188.5150  177.3640  145.0390 C   0  0  0  0  0  0  0  0  0  0  0  0
  187.7850  178.0180  144.2020 N   0  0  0  0  0  2  0  0  0  0  0  0
  186.3870  177.7200  144.5140 C   0  0  2  0  0  3  0  0  0  0  0  0
  187.7590  176.6230  145.9310 C   0  0  0  0  0  0  0  0  0  0  0  0
  189.9310  177.3650  145.0920 C   0  0  0  0  0  0  0  0  0  0  0  0
  188.3400  175.8380  146.9380 C   0  0  0  0  0  3  0  0  0  0  0  0
  189.7370  175.8530  146.9880 C   0  0  0  0  0  0  0  0  0  0  0  0
  190.4990  176.5840  146.1070 C   0  0  0  0  0  0  0  0  0  0  0  0
  186.4720  176.7750  145.6820 C   0  0  0  0  0  2  0  0  0  0  0  0
  190.5970  175.2030  147.8430 C   0  0  0  0  0  3  0  0  0  0  0  0
  191.7650  176.4170  146.3730 O   0  0  0  0  0  0  0  0  0  0  0  0
  191.8650  175.5980  147.4060 C   0  0  0  0  0  3  0  0  0  0  0  0
  186.1170  175.9260  142.9770 O   0  0  0  0  0  0  0  0  0  0  0  0
  185.7210  177.0630  143.3480 C   0  0  0  0  0  0  0  0  0  0  0  0
  183.8650  178.5620  143.2470 C   0  0  0  0  0  2  0  0  0  0  0  0
  184.6590  177.7300  142.6560 N   0  0  0  0  0  0  0  0  0  0  0  0
  190.7620  178.0800  144.2170 O   0  0  0  0  0  0  0  0  0  0  0  0
  191.0730  177.6710  142.8890 C   0  0  0  0  0  2  0  0  0  0  0  0
  192.2760  176.7360  142.8810 C   0  0  0  0  0  2  0  0  0  0  0  0
  191.8440  175.2800  142.9570 C   0  0  0  0  0  2  0  0  0  0  0  0
  190.5240  175.0750  142.2330 C   0  0  0  0  0  2  0  0  0  0  0  0
  189.5080  174.4210  143.1570 C   0  0  0  0  0  2  0  0  0  0  0  0
  189.8820  172.9760  143.4510 C   0  0  1  0  0  3  0  0  0  0  0  0
  189.8560  172.7100  144.9440 C   0  0  0  0  0  1  0  0  0  0  0  0
  188.9360  172.0930  142.7940 N   0  0  0  0  0  1  0  0  0  0  0  0
  1  5  2  0  0  0  0
  1  4  1  0  0  0  0
  2  3  1  0  0  0  0
  2  1  1  0  0  0  0
  3 14  1  6  0  0  0
  3  9  1  0  0  0  0
  4  6  2  0  0  0  0
  5  8  1  0  0  0  0
  6  7  1  0  0  0  0
  7 10  1  0  0  0  0
  8 11  1  0  0  0  0
  8  7  2  0  0  0  0
  9  4  1  0  0  0  0
 11 12  1  0  0  0  0
 12 10  2  0  0  0  0
 13 14  2  0  0  0  0
 16 15  2  0  0  0  0
 16 14  1  0  0  0  0
 17  5  1  0  0  0  0
 18 17  1  0  0  0  0
 19 18  1  0  0  0  0
 19 20  1  0  0  0  0
 21 20  1  0  0  0  0
 21 22  1  0  0  0  0
 22 23  1  0  0  0  0
 23 24  1  1  0  0  0
 25 23  1  0  0  0  0
M  END
>  <MODEL>
5

>  <REMARK>
 VINA RESULT:      -6.0      2.634      4.597
  Name = 
  9 active torsions:
  status: ('A' for Active; 'I' for Inactive)
    1  A    between atoms: C_2  and  C_5
    2  A    between atoms: C_4  and  C_13
    3  A    between atoms: C_4  and  C_23
    4  A    between atoms: C_5  and  C_10
    5  A    between atoms: C_7  and  C_8
    6  A    between atoms: C_8  and  N_12
    7  A    between atoms: C_10  and  C_23
    8  A    between atoms: C_13  and  O_16
    9  A    between atoms: C_14  and  O_16
                            x       y       z     vdW  Elec       q    Type
                         _______ _______ _______ _____ _____    ______ ____

>  <TORSDO>
F 9

$$$$
=
 OpenBabel11042413513D

 25 27  0  0  1  0  0  0  0  0999 V2000
  188.0040  176.8950  145.2350 C   0  0  0  0  0  0  0  0  0  0  0  0
  189.1560  176.4670  144.8480 N   0  0  0  0  0  2  0  0  0  0  0  0
  189.6570  175.5620  145.8830 C   0  0  2  0  0  3  0  0  0  0  0  0
  187.6320  176.3710  146.4620 C   0  0  0  0  0  0  0  0  0  0  0  0
  187.1680  177.7960  144.5320 C   0  0  0  0  0  0  0  0  0  0  0  0
  186.4120  176.6900  147.0760 C   0  0  0  0  0  3  0  0  0  0  0  0
  185.5890  177.5720  146.3700 C   0  0  0  0  0  0  0  0  0  0  0  0
  185.9490  178.1010  145.1520 C   0  0  0  0  0  0  0  0  0  0  0  0
  188.5700  175.5660  146.9230 C   0  0  0  0  0  2  0  0  0  0  0  0
  184.3490  178.0740  146.6930 C   0  0  0  0  0  3  0  0  0  0  0  0
  185.0060  178.8920  144.7170 O   0  0  0  0  0  0  0  0  0  0  0  0
  184.0320  178.9020  145.6110 C   0  0  0  0  0  3  0  0  0  0  0  0
  191.8270  176.5150  145.6730 O   0  0  0  0  0  0  0  0  0  0  0  0
  190.9380  176.0820  146.4540 C   0  0  0  0  0  0  0  0  0  0  0  0
  191.4970  177.1310  148.5250 C   0  0  0  0  0  2  0  0  0  0  0  0
  191.1510  176.0710  147.8700 N   0  0  0  0  0  0  0  0  0  0  0  0
  187.4820  178.3760  143.2940 O   0  0  0  0  0  0  0  0  0  0  0  0
  186.8510  178.0350  142.0630 C   0  0  0  0  0  2  0  0  0  0  0  0
  186.7310  176.5220  141.9210 C   0  0  0  0  0  2  0  0  0  0  0  0
  187.9820  175.9250  141.2970 C   0  0  0  0  0  2  0  0  0  0  0  0
  188.3120  174.5860  141.9340 C   0  0  0  0  0  2  0  0  0  0  0  0
  189.8180  174.3780  141.9840 C   0  0  0  0  0  2  0  0  0  0  0  0
  190.1630  172.9350  142.3190 C   0  0  1  0  0  3  0  0  0  0  0  0
  188.9640  172.2220  142.9150 C   0  0  0  0  0  1  0  0  0  0  0  0
  190.5710  172.2470  141.1080 N   0  0  0  0  0  1  0  0  0  0  0  0
  1  4  1  0  0  0  0
  2  1  1  0  0  0  0
  2  3  1  0  0  0  0
  3 14  1  1  0  0  0
  3  9  1  0  0  0  0
  4  9  1  0  0  0  0
  4  6  2  0  0  0  0
  5  8  1  0  0  0  0
  5  1  2  0  0  0  0
  7 10  1  0  0  0  0
  7  6  1  0  0  0  0
  8  7  2  0  0  0  0
 11  8  1  0  0  0  0
 11 12  1  0  0  0  0
 12 10  2  0  0  0  0
 13 14  2  0  0  0  0
 14 16  1  0  0  0  0
 16 15  2  0  0  0  0
 17  5  1  0  0  0  0
 18 17  1  0  0  0  0
 19 18  1  0  0  0  0
 20 19  1  0  0  0  0
 20 21  1  0  0  0  0
 21 22  1  0  0  0  0
 22 23  1  0  0  0  0
 23 24  1  6  0  0  0
 25 23  1  0  0  0  0
M  END
>  <MODEL>
6

>  <REMARK>
 VINA RESULT:      -5.9      2.282      5.140
  Name = 
  9 active torsions:
  status: ('A' for Active; 'I' for Inactive)
    1  A    between atoms: C_2  and  C_5
    2  A    between atoms: C_4  and  C_13
    3  A    between atoms: C_4  and  C_23
    4  A    between atoms: C_5  and  C_10
    5  A    between atoms: C_7  and  C_8
    6  A    between atoms: C_8  and  N_12
    7  A    between atoms: C_10  and  C_23
    8  A    between atoms: C_13  and  O_16
    9  A    between atoms: C_14  and  O_16
                            x       y       z     vdW  Elec       q    Type
                         _______ _______ _______ _____ _____    ______ ____

>  <TORSDO>
F 9

$$$$
=
 OpenBabel11042413513D

 25 27  0  0  1  0  0  0  0  0999 V2000
  182.8250  178.6720  142.3350 C   0  0  0  0  0  0  0  0  0  0  0  0
  181.6110  178.8830  142.7140 N   0  0  0  0  0  2  0  0  0  0  0  0
  180.7330  178.4860  141.6120 C   0  0  2  0  0  3  0  0  0  0  0  0
  182.8940  178.1520  141.0540 C   0  0  0  0  0  0  0  0  0  0  0  0
  183.9930  178.9200  143.0960 C   0  0  0  0  0  0  0  0  0  0  0  0
  184.1130  177.8350  140.4360 C   0  0  0  0  0  3  0  0  0  0  0  0
  185.2590  178.0750  141.1990 C   0  0  0  0  0  0  0  0  0  0  0  0
  185.2030  178.5920  142.4720 C   0  0  0  0  0  0  0  0  0  0  0  0
  181.6840  178.0150  140.5450 C   0  0  0  0  0  2  0  0  0  0  0  0
  186.5850  177.8730  140.8890 C   0  0  0  0  0  3  0  0  0  0  0  0
  186.4100  178.7170  142.9530 O   0  0  0  0  0  0  0  0  0  0  0  0
  187.2650  178.2970  142.0350 C   0  0  0  0  0  3  0  0  0  0  0  0
  180.5190  180.5760  140.4970 O   0  0  0  0  0  0  0  0  0  0  0  0
  179.9370  179.6570  141.1330 C   0  0  0  0  0  0  0  0  0  0  0  0
  177.9410  178.9100  142.2100 C   0  0  0  0  0  2  0  0  0  0  0  0
  178.5340  179.7350  141.4110 N   0  0  0  0  0  0  0  0  0  0  0  0
  184.0020  179.4540  144.3930 O   0  0  0  0  0  0  0  0  0  0  0  0
  184.0410  178.6730  145.5840 C   0  0  0  0  0  2  0  0  0  0  0  0
  185.3630  178.8740  146.3160 C   0  0  0  0  0  2  0  0  0  0  0  0
  185.3630  178.1640  147.6600 C   0  0  0  0  0  2  0  0  0  0  0  0
  186.3380  176.9980  147.6500 C   0  0  0  0  0  2  0  0  0  0  0  0
  187.0170  176.8860  146.2940 C   0  0  0  0  0  2  0  0  0  0  0  0
  188.5280  176.8000  146.4410 C   0  0  1  0  0  3  0  0  0  0  0  0
  188.9550  175.3800  146.7620 C   0  0  0  0  0  1  0  0  0  0  0  0
  189.1550  177.2160  145.2000 N   0  0  0  0  0  1  0  0  0  0  0  0
  1  2  1  0  0  0  0
  1  5  1  0  0  0  0
  3 14  1  6  0  0  0
  3  2  1  0  0  0  0
  4  1  2  0  0  0  0
  5 17  1  0  0  0  0
  6  4  1  0  0  0  0
  6  7  2  0  0  0  0
  7  8  1  0  0  0  0
  8 11  1  0  0  0  0
  8  5  2  0  0  0  0
  9  4  1  0  0  0  0
  9  3  1  0  0  0  0
 10  7  1  0  0  0  0
 10 12  2  0  0  0  0
 12 11  1  0  0  0  0
 13 14  2  0  0  0  0
 14 16  1  0  0  0  0
 16 15  2  0  0  0  0
 17 18  1  0  0  0  0
 18 19  1  0  0  0  0
 19 20  1  0  0  0  0
 21 20  1  0  0  0  0
 22 23  1  0  0  0  0
 22 21  1  0  0  0  0
 23 24  1  6  0  0  0
 25 23  1  0  0  0  0
M  END
>  <MODEL>
7

>  <REMARK>
 VINA RESULT:      -5.8      4.338      6.302
  Name = 
  9 active torsions:
  status: ('A' for Active; 'I' for Inactive)
    1  A    between atoms: C_2  and  C_5
    2  A    between atoms: C_4  and  C_13
    3  A    between atoms: C_4  and  C_23
    4  A    between atoms: C_5  and  C_10
    5  A    between atoms: C_7  and  C_8
    6  A    between atoms: C_8  and  N_12
    7  A    between atoms: C_10  and  C_23
    8  A    between atoms: C_13  and  O_16
    9  A    between atoms: C_14  and  O_16
                            x       y       z     vdW  Elec       q    Type
                         _______ _______ _______ _____ _____    ______ ____

>  <TORSDO>
F 9

$$$$
=
 OpenBabel11042413513D

 25 27  0  0  1  0  0  0  0  0999 V2000
  187.3260  177.7250  143.9550 C   0  0  0  0  0  0  0  0  0  0  0  0
  187.0720  178.4120  142.8950 N   0  0  0  0  0  2  0  0  0  0  0  0
  185.7260  178.9650  143.0440 C   0  0  2  0  0  3  0  0  0  0  0  0
  186.2750  177.7400  144.8570 C   0  0  0  0  0  0  0  0  0  0  0  0
  188.5230  177.0170  144.2260 C   0  0  0  0  0  0  0  0  0  0  0  0
  186.3310  177.0670  146.0870 C   0  0  0  0  0  3  0  0  0  0  0  0
  187.5190  176.3790  146.3480 C   0  0  0  0  0  0  0  0  0  0  0  0
  188.5690  176.3560  145.4600 C   0  0  0  0  0  0  0  0  0  0  0  0
  185.2730  178.4560  144.3850 C   0  0  0  0  0  2  0  0  0  0  0  0
  187.8850  175.6330  147.4460 C   0  0  0  0  0  3  0  0  0  0  0  0
  189.5470  175.6430  145.9490 O   0  0  0  0  0  0  0  0  0  0  0  0
  189.1760  175.1940  147.1360 C   0  0  0  0  0  3  0  0  0  0  0  0
  183.7320  177.9270  142.2630 O   0  0  0  0  0  0  0  0  0  0  0  0
  184.8330  178.4590  141.9560 C   0  0  0  0  0  0  0  0  0  0  0  0
  185.7080  177.5620  139.9230 C   0  0  0  0  0  2  0  0  0  0  0  0
  185.2360  178.5670  140.5850 N   0  0  0  0  0  0  0  0  0  0  0  0
  189.6220  176.9470  143.3580 O   0  0  0  0  0  0  0  0  0  0  0  0
  190.6650  177.9160  143.3020 C   0  0  0  0  0  2  0  0  0  0  0  0
  192.0300  177.2410  143.3550 C   0  0  0  0  0  2  0  0  0  0  0  0
  191.8960  175.7390  143.5490 C   0  0  0  0  0  2  0  0  0  0  0  0
  192.8020  175.2620  144.6720 C   0  0  0  0  0  2  0  0  0  0  0  0
  192.8380  176.2860  145.7970 C   0  0  0  0  0  2  0  0  0  0  0  0
  194.2430  176.4370  146.3580 C   0  0  1  0  0  3  0  0  0  0  0  0
  195.1240  175.2840  145.9150 C   0  0  0  0  0  1  0  0  0  0  0  0
  194.8170  177.6830  145.8840 N   0  0  0  0  0  1  0  0  0  0  0  0
  1  5  2  0  0  0  0
  1  4  1  0  0  0  0
  2  3  1  0  0  0  0
  2  1  1  0  0  0  0
  3 14  1  6  0  0  0
  3  9  1  0  0  0  0
  4  6  2  0  0  0  0
  5  8  1  0  0  0  0
  6  7  1  0  0  0  0
  7 10  1  0  0  0  0
  8 11  1  0  0  0  0
  8  7  2  0  0  0  0
  9  4  1  0  0  0  0
 11 12  1  0  0  0  0
 12 10  2  0  0  0  0
 14 13  2  0  0  0  0
 15 16  2  0  0  0  0
 16 14  1  0  0  0  0
 17  5  1  0  0  0  0
 18 19  1  0  0  0  0
 18 17  1  0  0  0  0
 19 20  1  0  0  0  0
 20 21  1  0  0  0  0
 21 22  1  0  0  0  0
 22 23  1  0  0  0  0
 23 24  1  6  0  0  0
 25 23  1  0  0  0  0
M  END
>  <MODEL>
8

>  <REMARK>
 VINA RESULT:      -5.7      2.080      3.224
  Name = 
  9 active torsions:
  status: ('A' for Active; 'I' for Inactive)
    1  A    between atoms: C_2  and  C_5
    2  A    between atoms: C_4  and  C_13
    3  A    between atoms: C_4  and  C_23
    4  A    between atoms: C_5  and  C_10
    5  A    between atoms: C_7  and  C_8
    6  A    between atoms: C_8  and  N_12
    7  A    between atoms: C_10  and  C_23
    8  A    between atoms: C_13  and  O_16
    9  A    between atoms: C_14  and  O_16
                            x       y       z     vdW  Elec       q    Type
                         _______ _______ _______ _____ _____    ______ ____

>  <TORSDO>
F 9

$$$$
=
 OpenBabel11042413513D

 25 27  0  0  1  0  0  0  0  0999 V2000
  187.0560  176.7920  144.9860 C   0  0  0  0  0  0  0  0  0  0  0  0
  188.0880  176.1180  145.3620 N   0  0  0  0  0  2  0  0  0  0  0  0
  188.3950  176.5180  146.7360 C   0  0  2  0  0  3  0  0  0  0  0  0
  186.5910  177.6410  145.9760 C   0  0  0  0  0  0  0  0  0  0  0  0
  186.4230  176.7150  143.7210 C   0  0  0  0  0  0  0  0  0  0  0  0
  185.4710  178.4650  145.7940 C   0  0  0  0  0  3  0  0  0  0  0  0
  184.8480  178.3750  144.5460 C   0  0  0  0  0  0  0  0  0  0  0  0
  185.3010  177.5380  143.5540 C   0  0  0  0  0  0  0  0  0  0  0  0
  187.3410  177.5430  147.0570 C   0  0  0  0  0  2  0  0  0  0  0  0
  183.7450  179.0390  144.0590 C   0  0  0  0  0  3  0  0  0  0  0  0
  184.5440  177.6520  142.4970 O   0  0  0  0  0  0  0  0  0  0  0  0
  183.6010  178.5400  142.7600 C   0  0  0  0  0  3  0  0  0  0  0  0
  190.1340  177.9090  145.9000 O   0  0  0  0  0  0  0  0  0  0  0  0
  189.7610  177.1210  146.8100 C   0  0  0  0  0  0  0  0  0  0  0  0
  191.1910  175.6300  148.0070 C   0  0  0  0  0  2  0  0  0  0  0  0
  190.6350  176.7920  147.8960 N   0  0  0  0  0  0  0  0  0  0  0  0
  186.8430  175.8890  142.6680 O   0  0  0  0  0  0  0  0  0  0  0  0
  187.7670  176.2810  141.6570 C   0  0  0  0  0  2  0  0  0  0  0  0
  188.4300  177.6050  142.0190 C   0  0  0  0  0  2  0  0  0  0  0  0
  189.8630  177.3960  142.4830 C   0  0  0  0  0  2  0  0  0  0  0  0
  190.1730  175.9140  142.6110 C   0  0  0  0  0  2  0  0  0  0  0  0
  191.6700  175.6720  142.4880 C   0  0  0  0  0  2  0  0  0  0  0  0
  192.2520  175.1520  143.7930 C   0  0  1  0  0  3  0  0  0  0  0  0
  192.8900  176.2820  144.5810 C   0  0  0  0  0  1  0  0  0  0  0  0
  191.1930  174.5570  144.5870 N   0  0  0  0  0  1  0  0  0  0  0  0
  1  2  1  0  0  0  0
  1  4  1  0  0  0  0
  2  3  1  0  0  0  0
  3 14  1  6  0  0  0
  3  9  1  0  0  0  0
  4  9  1  0  0  0  0
  5  1  2  0  0  0  0
  6  4  2  0  0  0  0
  7  6  1  0  0  0  0
  8  5  1  0  0  0  0
  8  7  2  0  0  0  0
 10  7  1  0  0  0  0
 11 12  1  0  0  0  0
 11  8  1  0  0  0  0
 12 10  2  0  0  0  0
 13 14  2  0  0  0  0
 14 16  1  0  0  0  0
 16 15  2  0  0  0  0
 17  5  1  0  0  0  0
 18 19  1  0  0  0  0
 18 17  1  0  0  0  0
 19 20  1  0  0  0  0
 20 21  1  0  0  0  0
 22 21  1  0  0  0  0
 22 23  1  0  0  0  0
 23 24  1  1  0  0  0
 23 25  1  0  0  0  0
M  END
>  <MODEL>
9

>  <REMARK>
 VINA RESULT:      -5.6      2.147      4.611
  Name = 
  9 active torsions:
  status: ('A' for Active; 'I' for Inactive)
    1  A    between atoms: C_2  and  C_5
    2  A    between atoms: C_4  and  C_13
    3  A    between atoms: C_4  and  C_23
    4  A    between atoms: C_5  and  C_10
    5  A    between atoms: C_7  and  C_8
    6  A    between atoms: C_8  and  N_12
    7  A    between atoms: C_10  and  C_23
    8  A    between atoms: C_13  and  O_16
    9  A    between atoms: C_14  and  O_16
                            x       y       z     vdW  Elec       q    Type
                         _______ _______ _______ _____ _____    ______ ____

>  <TORSDO>
F 9

$$$$
