=
 OpenBabel11042416523D

 29 30  0  0  1  0  0  0  0  0999 V2000
  187.5490  177.2290  141.1790 C   0  0  0  0  0  3  0  0  0  0  0  0
  188.7300  176.0110  145.2050 C   0  0  1  0  0  3  0  0  0  0  0  0
  186.7040  178.1840  143.6570 C   0  0  0  0  0  0  0  0  0  0  0  0
  187.9920  177.6150  143.4870 C   0  0  0  0  0  0  0  0  0  0  0  0
  186.5210  176.6600  146.2640 C   0  0  0  0  0  2  0  0  0  0  0  0
  186.1850  178.8020  144.9330 C   0  0  0  0  0  2  0  0  0  0  0  0
  188.3630  177.1480  142.2630 N   0  0  0  0  0  0  0  0  0  0  0  0
  185.8680  178.2780  142.5420 C   0  0  0  0  0  3  0  0  0  0  0  0
  187.8990  176.0500  146.4860 C   0  0  0  0  0  2  0  0  0  0  0  0
  188.9400  177.4080  144.6230 C   0  0  0  0  0  2  0  0  0  0  0  0
  186.2850  177.8030  141.2990 C   0  0  0  0  0  0  0  0  0  0  0  0
  186.6530  178.1760  146.2460 C   0  0  1  0  0  3  0  0  0  0  0  0
  184.6700  178.5650  147.5550 N   0  0  0  0  0  2  0  0  0  0  0  0
  186.6280  179.5980  148.3430 N   0  0  0  0  0  1  0  0  0  0  0  0
  185.9330  178.7830  147.4030 C   0  0  0  0  0  0  0  0  0  0  0  0
  190.8270  175.8450  146.4760 C   0  0  0  0  0  3  0  0  0  0  0  0
  190.0480  175.3760  145.5030 C   0  0  0  0  0  3  0  0  0  0  0  0
  192.1430  175.2050  146.7680 C   0  0  0  0  0  2  0  0  0  0  0  0
  192.8570  175.0210  145.5820 O   0  0  0  0  0  0  0  0  0  0  0  0
  192.7810  177.5670  144.5200 F   0  0  0  0  0  0  0  0  0  0  0  0
  193.7210  176.4590  145.3550 P   0  0  1  0  0  0  0  0  0  0  0  0
  194.1570  177.1100  146.8560 O   0  0  0  0  0  1  0  0  0  0  0  0
  194.9710  176.1690  144.5580 O   0  0  0  0  0  0  0  0  0  0  0  0
  185.3780  177.8780  140.1230 C   0  0  0  0  0  2  0  0  0  0  0  0
  184.2330  178.7150  140.4370 N   0  0  0  0  0  2  0  0  0  0  0  0
  183.0540  177.8820  140.2850 C   0  0  0  0  0  2  0  0  0  0  0  0
  182.0100  178.2940  141.3060 C   0  0  0  0  0  2  0  0  0  0  0  0
  180.6590  178.4600  140.6360 C   0  0  0  0  0  2  0  0  0  0  0  0
  179.6650  177.8540  141.4060 O   0  0  0  0  0  1  0  0  0  0  0  0
  1 11  2  0  0  0  0
  1  7  1  0  0  0  0
  2 17  1  1  0  0  0
  2  9  1  0  0  0  0
  3  6  1  0  0  0  0
  4  3  1  0  0  0  0
  4 10  1  0  0  0  0
  5  9  1  0  0  0  0
  6 12  1  0  0  0  0
  7  4  2  0  0  0  0
  8  3  2  0  0  0  0
 10  2  1  0  0  0  0
 11  8  1  0  0  0  0
 12  5  1  0  0  0  0
 12 15  1  1  0  0  0
 15 13  2  0  0  0  0
 15 14  1  0  0  0  0
 16 18  1  0  0  0  0
 17 16  2  0  0  0  0
 19 18  1  0  0  0  0
 21 20  1  6  0  0  0
 21 19  1  0  0  0  0
 21 22  1  0  0  0  0
 23 21  2  0  0  0  0
 24 25  1  0  0  0  0
 24 11  1  0  0  0  0
 26 25  1  0  0  0  0
 26 27  1  0  0  0  0
 28 27  1  0  0  0  0
 28 29  1  0  0  0  0
M  END
>  <MODEL>
1

>  <REMARK>
 VINA RESULT:      -6.9      0.000      0.000
  Name = 
  10 active torsions:
  status: ('A' for Active; 'I' for Inactive)
    1  A    between atoms: C_2  and  C_23
    2  A    between atoms: P_7  and  O_19
    3  A    between atoms: C_13  and  C_16
    4  A    between atoms: C_14  and  C_24
    5  A    between atoms: C_16  and  O_19
    6  A    between atoms: N_18  and  C_20
    7  A    between atoms: N_18  and  C_25
    8  A    between atoms: C_20  and  C_28
    9  A    between atoms: C_24  and  C_25
   10  A    between atoms: C_27  and  C_29
                            x       y       z     vdW  Elec       q    Type
                         _______ _______ _______ _____ _____    ______ ____

>  <TORSDO>
F 10

$$$$
=
 OpenBabel11042416523D

 29 30  0  0  1  0  0  0  0  0999 V2000
  185.5280  177.9420  140.6320 C   0  0  0  0  0  3  0  0  0  0  0  0
  188.1870  176.6710  143.8570 C   0  0  1  0  0  3  0  0  0  0  0  0
  185.4180  178.4890  143.3620 C   0  0  0  0  0  0  0  0  0  0  0  0
  186.6500  178.2200  142.7140 C   0  0  0  0  0  0  0  0  0  0  0  0
  186.3870  176.7500  145.6390 C   0  0  0  0  0  2  0  0  0  0  0  0
  185.2610  178.8770  144.8130 C   0  0  0  0  0  2  0  0  0  0  0  0
  186.6600  177.9450  141.3810 N   0  0  0  0  0  0  0  0  0  0  0  0
  184.2520  178.4980  142.5930 C   0  0  0  0  0  3  0  0  0  0  0  0
  187.8420  176.4270  145.3250 C   0  0  0  0  0  2  0  0  0  0  0  0
  187.9460  178.1240  143.4520 C   0  0  0  0  0  2  0  0  0  0  0  0
  184.3000  178.2260  141.2260 C   0  0  0  0  0  0  0  0  0  0  0  0
  186.2440  178.2560  145.8050 C   0  0  1  0  0  3  0  0  0  0  0  0
  184.6200  178.5920  147.5500 N   0  0  0  0  0  2  0  0  0  0  0  0
  186.8610  178.9330  148.1680 N   0  0  0  0  0  1  0  0  0  0  0  0
  185.8640  178.6000  147.2060 C   0  0  0  0  0  0  0  0  0  0  0  0
  190.5360  176.5260  144.5660 C   0  0  0  0  0  3  0  0  0  0  0  0
  189.6160  176.3050  143.6280 C   0  0  0  0  0  3  0  0  0  0  0  0
  191.9620  176.1570  144.3310 C   0  0  0  0  0  2  0  0  0  0  0  0
  192.7990  177.1860  144.7680 O   0  0  0  0  0  0  0  0  0  0  0  0
  194.1600  177.2380  147.1680 F   0  0  0  0  0  0  0  0  0  0  0  0
  193.9800  176.4260  145.7140 P   0  0  1  0  0  0  0  0  0  0  0  0
  193.5300  174.8230  146.0170 O   0  0  0  0  0  1  0  0  0  0  0  0
  195.2960  176.4400  144.9720 O   0  0  0  0  0  0  0  0  0  0  0  0
  183.0510  178.2060  140.4190 C   0  0  0  0  0  2  0  0  0  0  0  0
  181.9020  178.0530  141.2950 N   0  0  0  0  0  2  0  0  0  0  0  0
  180.8650  178.9280  140.7790 C   0  0  0  0  0  2  0  0  0  0  0  0
  179.6630  178.8850  141.7020 C   0  0  0  0  0  2  0  0  0  0  0  0
  178.8850  177.6000  141.4920 C   0  0  0  0  0  2  0  0  0  0  0  0
  178.5780  177.0200  142.7230 O   0  0  0  0  0  1  0  0  0  0  0  0
  1 11  2  0  0  0  0
  1  7  1  0  0  0  0
  2 17  1  1  0  0  0
  2  9  1  0  0  0  0
  3  6  1  0  0  0  0
  4  3  1  0  0  0  0
  4 10  1  0  0  0  0
  5 12  1  0  0  0  0
  6 12  1  0  0  0  0
  7  4  2  0  0  0  0
  8  3  2  0  0  0  0
  9  5  1  0  0  0  0
 10  2  1  0  0  0  0
 11  8  1  0  0  0  0
 12 15  1  1  0  0  0
 15 13  2  0  0  0  0
 15 14  1  0  0  0  0
 17 16  2  0  0  0  0
 18 16  1  0  0  0  0
 18 19  1  0  0  0  0
 19 21  1  0  0  0  0
 21 23  2  6  0  0  0
 21 22  1  0  0  0  0
 21 20  1  0  0  0  0
 24 11  1  0  0  0  0
 24 25  1  0  0  0  0
 26 25  1  0  0  0  0
 26 27  1  0  0  0  0
 28 27  1  0  0  0  0
 28 29  1  0  0  0  0
M  END
>  <MODEL>
2

>  <REMARK>
 VINA RESULT:      -6.8      1.436      1.850
  Name = 
  10 active torsions:
  status: ('A' for Active; 'I' for Inactive)
    1  A    between atoms: C_2  and  C_23
    2  A    between atoms: P_7  and  O_19
    3  A    between atoms: C_13  and  C_16
    4  A    between atoms: C_14  and  C_24
    5  A    between atoms: C_16  and  O_19
    6  A    between atoms: N_18  and  C_20
    7  A    between atoms: N_18  and  C_25
    8  A    between atoms: C_20  and  C_28
    9  A    between atoms: C_24  and  C_25
   10  A    between atoms: C_27  and  C_29
                            x       y       z     vdW  Elec       q    Type
                         _______ _______ _______ _____ _____    ______ ____

>  <TORSDO>
F 10

$$$$
=
 OpenBabel11042416523D

 29 30  0  0  1  0  0  0  0  0999 V2000
  189.5310  176.9330  142.0490 C   0  0  0  0  0  3  0  0  0  0  0  0
  185.4570  178.3860  142.6680 C   0  0  1  0  0  3  0  0  0  0  0  0
  188.1390  177.4020  144.4170 C   0  0  0  0  0  0  0  0  0  0  0  0
  187.4600  177.0620  143.2190 C   0  0  0  0  0  0  0  0  0  0  0  0
  185.9650  179.4460  144.9130 C   0  0  0  0  0  2  0  0  0  0  0  0
  187.4870  177.5930  145.7650 C   0  0  0  0  0  2  0  0  0  0  0  0
  188.1760  176.8530  142.0790 N   0  0  0  0  0  0  0  0  0  0  0  0
  189.5340  177.4740  144.3910 C   0  0  0  0  0  3  0  0  0  0  0  0
  184.9130  179.2020  143.8390 C   0  0  0  0  0  2  0  0  0  0  0  0
  185.9700  177.0200  143.1190 C   0  0  0  0  0  2  0  0  0  0  0  0
  190.2370  177.2410  143.2100 C   0  0  0  0  0  0  0  0  0  0  0  0
  186.0830  178.1970  145.7750 C   0  0  1  0  0  3  0  0  0  0  0  0
  186.5160  178.7930  148.0670 N   0  0  0  0  0  1  0  0  0  0  0  0
  184.2630  178.3990  147.5270 N   0  0  0  0  0  2  0  0  0  0  0  0
  185.6420  178.4760  147.1730 C   0  0  0  0  0  0  0  0  0  0  0  0
  183.0930  178.2990  142.0000 C   0  0  0  0  0  3  0  0  0  0  0  0
  184.3770  178.2180  141.6520 C   0  0  0  0  0  3  0  0  0  0  0  0
  182.0190  178.1300  140.9790 C   0  0  0  0  0  2  0  0  0  0  0  0
  180.7880  177.9420  141.6100 O   0  0  0  0  0  0  0  0  0  0  0  0
  180.4430  180.2950  140.2100 F   0  0  0  0  0  0  0  0  0  0  0  0
  179.6920  178.8940  140.7380 P   0  0  1  0  0  0  0  0  0  0  0  0
  179.1130  178.0280  139.4040 O   0  0  0  0  0  0  0  0  0  0  0  0
  178.5310  179.2610  141.6330 O   0  0  0  0  0  1  0  0  0  0  0  0
  191.7200  177.3500  143.1830 C   0  0  0  0  0  2  0  0  0  0  0  0
  192.3090  176.2030  143.8520 N   0  0  0  0  0  2  0  0  0  0  0  0
  193.1540  176.7260  144.9090 C   0  0  0  0  0  2  0  0  0  0  0  0
  193.0860  175.8060  146.1130 C   0  0  0  0  0  2  0  0  0  0  0  0
  191.9560  176.2300  147.0330 C   0  0  0  0  0  2  0  0  0  0  0  0
  191.0000  175.2170  147.1140 O   0  0  0  0  0  1  0  0  0  0  0  0
  1  7  2  0  0  0  0
  1 11  1  0  0  0  0
  2 17  1  6  0  0  0
  2 10  1  0  0  0  0
  2  9  1  0  0  0  0
  3  6  1  0  0  0  0
  4  3  2  0  0  0  0
  5 12  1  0  0  0  0
  6 12  1  0  0  0  0
  7  4  1  0  0  0  0
  8  3  1  0  0  0  0
  9  5  1  0  0  0  0
 10  4  1  0  0  0  0
 11  8  2  0  0  0  0
 12 15  1  1  0  0  0
 15 14  2  0  0  0  0
 15 13  1  0  0  0  0
 17 16  2  0  0  0  0
 18 19  1  0  0  0  0
 18 16  1  0  0  0  0
 20 21  1  0  0  0  0
 21 22  2  6  0  0  0
 21 19  1  0  0  0  0
 21 23  1  0  0  0  0
 24 11  1  0  0  0  0
 24 25  1  0  0  0  0
 25 26  1  0  0  0  0
 26 27  1  0  0  0  0
 27 28  1  0  0  0  0
 28 29  1  0  0  0  0
M  END
>  <MODEL>
3

>  <REMARK>
 VINA RESULT:      -6.5      4.172      8.929
  Name = 
  10 active torsions:
  status: ('A' for Active; 'I' for Inactive)
    1  A    between atoms: C_2  and  C_23
    2  A    between atoms: P_7  and  O_19
    3  A    between atoms: C_13  and  C_16
    4  A    between atoms: C_14  and  C_24
    5  A    between atoms: C_16  and  O_19
    6  A    between atoms: N_18  and  C_20
    7  A    between atoms: N_18  and  C_25
    8  A    between atoms: C_20  and  C_28
    9  A    between atoms: C_24  and  C_25
   10  A    between atoms: C_27  and  C_29
                            x       y       z     vdW  Elec       q    Type
                         _______ _______ _______ _____ _____    ______ ____

>  <TORSDO>
F 10

$$$$
=
 OpenBabel11042416523D

 29 30  0  0  1  0  0  0  0  0999 V2000
  188.9630  175.8270  141.9350 C   0  0  0  0  0  3  0  0  0  0  0  0
  185.3650  178.2300  142.5420 C   0  0  1  0  0  3  0  0  0  0  0  0
  187.7760  176.7050  144.2980 C   0  0  0  0  0  0  0  0  0  0  0  0
  187.0090  176.4900  143.1240 C   0  0  0  0  0  0  0  0  0  0  0  0
  186.1600  179.2250  144.7330 C   0  0  0  0  0  2  0  0  0  0  0  0
  187.2180  177.0980  145.6450 C   0  0  0  0  0  2  0  0  0  0  0  0
  187.6290  176.0730  141.9860 N   0  0  0  0  0  0  0  0  0  0  0  0
  189.1470  176.4430  144.2520 C   0  0  0  0  0  3  0  0  0  0  0  0
  185.0560  179.1970  143.6830 C   0  0  0  0  0  2  0  0  0  0  0  0
  185.5500  176.7990  143.0460 C   0  0  0  0  0  2  0  0  0  0  0  0
  189.7480  176.0030  143.0730 C   0  0  0  0  0  0  0  0  0  0  0  0
  185.9980  178.0190  145.6460 C   0  0  1  0  0  3  0  0  0  0  0  0
  184.4350  178.6540  147.3640 N   0  0  0  0  0  2  0  0  0  0  0  0
  186.6960  178.6320  148.0040 N   0  0  0  0  0  1  0  0  0  0  0  0
  185.6660  178.4490  147.0360 C   0  0  0  0  0  0  0  0  0  0  0  0
  182.9820  178.2880  141.9450 C   0  0  0  0  0  3  0  0  0  0  0  0
  184.2530  178.2840  141.5470 C   0  0  0  0  0  3  0  0  0  0  0  0
  181.8750  178.3420  140.9460 C   0  0  0  0  0  2  0  0  0  0  0  0
  180.8970  179.2450  141.3660 O   0  0  0  0  0  0  0  0  0  0  0  0
  179.3280  177.1720  142.2930 F   0  0  0  0  0  0  0  0  0  0  0  0
  179.4270  178.4240  141.1840 P   0  0  1  0  0  0  0  0  0  0  0  0
  178.1380  179.4930  141.4250 O   0  0  0  0  0  1  0  0  0  0  0  0
  179.3460  177.8540  139.7870 O   0  0  0  0  0  0  0  0  0  0  0  0
  191.2130  175.7550  143.0230 C   0  0  0  0  0  2  0  0  0  0  0  0
  191.9300  176.9940  143.2650 N   0  0  0  0  0  2  0  0  0  0  0  0
  193.1320  176.6450  143.9990 C   0  0  0  0  0  2  0  0  0  0  0  0
  192.7500  176.0530  145.3420 C   0  0  0  0  0  2  0  0  0  0  0  0
  193.9710  175.9480  146.2360 C   0  0  0  0  0  2  0  0  0  0  0  0
  194.1930  177.1620  146.8870 O   0  0  0  0  0  1  0  0  0  0  0  0
  1  7  2  0  0  0  0
  1 11  1  0  0  0  0
  2 17  1  6  0  0  0
  2 10  1  0  0  0  0
  2  9  1  0  0  0  0
  3  6  1  0  0  0  0
  4  3  2  0  0  0  0
  5 12  1  0  0  0  0
  6 12  1  0  0  0  0
  7  4  1  0  0  0  0
  8  3  1  0  0  0  0
  9  5  1  0  0  0  0
 10  4  1  0  0  0  0
 11  8  2  0  0  0  0
 12 15  1  1  0  0  0
 15 13  2  0  0  0  0
 15 14  1  0  0  0  0
 17 16  2  0  0  0  0
 18 19  1  0  0  0  0
 18 16  1  0  0  0  0
 21 23  2  6  0  0  0
 21 19  1  0  0  0  0
 21 22  1  0  0  0  0
 21 20  1  0  0  0  0
 24 11  1  0  0  0  0
 24 25  1  0  0  0  0
 25 26  1  0  0  0  0
 26 27  1  0  0  0  0
 27 28  1  0  0  0  0
 28 29  1  0  0  0  0
M  END
>  <MODEL>
4

>  <REMARK>
 VINA RESULT:      -6.5      4.121      9.099
  Name = 
  10 active torsions:
  status: ('A' for Active; 'I' for Inactive)
    1  A    between atoms: C_2  and  C_23
    2  A    between atoms: P_7  and  O_19
    3  A    between atoms: C_13  and  C_16
    4  A    between atoms: C_14  and  C_24
    5  A    between atoms: C_16  and  O_19
    6  A    between atoms: N_18  and  C_20
    7  A    between atoms: N_18  and  C_25
    8  A    between atoms: C_20  and  C_28
    9  A    between atoms: C_24  and  C_25
   10  A    between atoms: C_27  and  C_29
                            x       y       z     vdW  Elec       q    Type
                         _______ _______ _______ _____ _____    ______ ____

>  <TORSDO>
F 10

$$$$
=
 OpenBabel11042416523D

 29 30  0  0  1  0  0  0  0  0999 V2000
  186.7650  177.4940  142.1390 C   0  0  0  0  0  3  0  0  0  0  0  0
  189.4050  174.1630  143.1500 C   0  0  1  0  0  3  0  0  0  0  0  0
  188.7030  177.2870  144.1320 C   0  0  0  0  0  0  0  0  0  0  0  0
  188.8000  176.5400  142.9300 C   0  0  0  0  0  0  0  0  0  0  0  0
  189.5930  174.7950  145.5960 C   0  0  0  0  0  2  0  0  0  0  0  0
  189.7370  177.3090  145.2310 C   0  0  0  0  0  2  0  0  0  0  0  0
  187.8260  176.6600  141.9860 N   0  0  0  0  0  0  0  0  0  0  0  0
  187.6190  178.1540  144.2880 C   0  0  0  0  0  3  0  0  0  0  0  0
  189.9810  173.7940  144.5160 C   0  0  0  0  0  2  0  0  0  0  0  0
  189.8810  175.5390  142.6870 C   0  0  0  0  0  2  0  0  0  0  0  0
  186.6460  178.2630  143.2950 C   0  0  0  0  0  0  0  0  0  0  0  0
  190.5010  176.0100  145.4870 C   0  0  1  0  0  3  0  0  0  0  0  0
  190.8410  176.5360  147.8120 N   0  0  0  0  0  1  0  0  0  0  0  0
  192.7490  175.8210  146.6420 N   0  0  0  0  0  2  0  0  0  0  0  0
  191.3610  176.1380  146.7000 C   0  0  0  0  0  0  0  0  0  0  0  0
  189.3280  173.1420  140.9150 C   0  0  0  0  0  3  0  0  0  0  0  0
  189.8070  173.1210  142.1580 C   0  0  0  0  0  3  0  0  0  0  0  0
  189.7330  172.0990  139.9290 C   0  0  0  0  0  2  0  0  0  0  0  0
  188.7580  171.9750  138.9380 O   0  0  0  0  0  0  0  0  0  0  0  0
  190.6360  173.8380  138.1510 F   0  0  0  0  0  0  0  0  0  0  0  0
  189.1720  173.1230  137.7630 P   0  0  1  0  0  0  0  0  0  0  0  0
  189.2920  172.3780  136.2480 O   0  0  0  0  0  0  0  0  0  0  0  0
  188.1000  174.1870  137.7090 O   0  0  0  0  0  1  0  0  0  0  0  0
  185.4790  179.1650  143.4820 C   0  0  0  0  0  2  0  0  0  0  0  0
  185.3480  179.5170  144.8840 N   0  0  0  0  0  2  0  0  0  0  0  0
  184.1190  178.9060  145.3550 C   0  0  0  0  0  2  0  0  0  0  0  0
  184.3700  178.2290  146.6890 C   0  0  0  0  0  2  0  0  0  0  0  0
  185.0470  176.8880  146.4770 C   0  0  0  0  0  2  0  0  0  0  0  0
  186.2100  176.8130  147.2430 O   0  0  0  0  0  1  0  0  0  0  0  0
  1 11  1  0  0  0  0
  2 17  1  6  0  0  0
  2  9  1  0  0  0  0
  3  8  1  0  0  0  0
  3  6  1  0  0  0  0
  4  3  2  0  0  0  0
  6 12  1  0  0  0  0
  7  1  2  0  0  0  0
  7  4  1  0  0  0  0
  9  5  1  0  0  0  0
 10  4  1  0  0  0  0
 10  2  1  0  0  0  0
 11 24  1  0  0  0  0
 11  8  2  0  0  0  0
 12  5  1  0  0  0  0
 12 15  1  1  0  0  0
 14 15  2  0  0  0  0
 15 13  1  0  0  0  0
 16 17  2  0  0  0  0
 18 16  1  0  0  0  0
 19 18  1  0  0  0  0
 21 22  2  6  0  0  0
 21 20  1  0  0  0  0
 21 19  1  0  0  0  0
 23 21  1  0  0  0  0
 24 25  1  0  0  0  0
 25 26  1  0  0  0  0
 26 27  1  0  0  0  0
 28 27  1  0  0  0  0
 28 29  1  0  0  0  0
M  END
>  <MODEL>
5

>  <REMARK>
 VINA RESULT:      -6.3      4.714      6.037
  Name = 
  10 active torsions:
  status: ('A' for Active; 'I' for Inactive)
    1  A    between atoms: C_2  and  C_23
    2  A    between atoms: P_7  and  O_19
    3  A    between atoms: C_13  and  C_16
    4  A    between atoms: C_14  and  C_24
    5  A    between atoms: C_16  and  O_19
    6  A    between atoms: N_18  and  C_20
    7  A    between atoms: N_18  and  C_25
    8  A    between atoms: C_20  and  C_28
    9  A    between atoms: C_24  and  C_25
   10  A    between atoms: C_27  and  C_29
                            x       y       z     vdW  Elec       q    Type
                         _______ _______ _______ _____ _____    ______ ____

>  <TORSDO>
F 10

$$$$
=
 OpenBabel11042416523D

 29 30  0  0  1  0  0  0  0  0999 V2000
  186.7380  177.0220  142.2130 C   0  0  0  0  0  3  0  0  0  0  0  0
  189.3180  173.7960  143.6360 C   0  0  1  0  0  3  0  0  0  0  0  0
  188.7830  177.0690  144.1050 C   0  0  0  0  0  0  0  0  0  0  0  0
  188.7820  176.1270  143.0450 C   0  0  0  0  0  0  0  0  0  0  0  0
  189.6740  174.8240  145.9250 C   0  0  0  0  0  2  0  0  0  0  0  0
  189.8820  177.2310  145.1280 C   0  0  0  0  0  2  0  0  0  0  0  0
  187.7580  176.1280  142.1480 N   0  0  0  0  0  0  0  0  0  0  0  0
  187.7420  177.9980  144.1680 C   0  0  0  0  0  3  0  0  0  0  0  0
  189.9620  173.6390  145.0120 C   0  0  0  0  0  2  0  0  0  0  0  0
  189.8120  175.0520  142.9200 C   0  0  0  0  0  2  0  0  0  0  0  0
  186.7150  177.9800  143.2250 C   0  0  0  0  0  0  0  0  0  0  0  0
  190.6160  175.9620  145.5610 C   0  0  1  0  0  3  0  0  0  0  0  0
  192.8210  176.1060  146.5160 N   0  0  0  0  0  2  0  0  0  0  0  0
  191.0540  176.7000  147.9460 N   0  0  0  0  0  1  0  0  0  0  0  0
  191.5510  176.2550  146.6860 C   0  0  0  0  0  0  0  0  0  0  0  0
  190.2180  172.6960  141.6310 C   0  0  0  0  0  3  0  0  0  0  0  0
  189.6230  172.5850  142.8180 C   0  0  0  0  0  3  0  0  0  0  0  0
  190.5200  171.4820  140.8180 C   0  0  0  0  0  2  0  0  0  0  0  0
  191.4290  171.8000  139.8070 O   0  0  0  0  0  0  0  0  0  0  0  0
  188.9400  171.4920  138.6540 F   0  0  0  0  0  0  0  0  0  0  0  0
  190.4800  172.1170  138.4410 P   0  0  1  0  0  0  0  0  0  0  0  0
  190.3800  173.7870  138.1860 O   0  0  0  0  0  1  0  0  0  0  0  0
  191.1150  171.4680  137.2330 O   0  0  0  0  0  0  0  0  0  0  0  0
  185.5920  178.9510  143.3160 C   0  0  0  0  0  2  0  0  0  0  0  0
  185.4830  179.4490  144.6760 N   0  0  0  0  0  2  0  0  0  0  0  0
  184.2570  178.8980  145.2240 C   0  0  0  0  0  2  0  0  0  0  0  0
  184.5270  178.3450  146.6100 C   0  0  0  0  0  2  0  0  0  0  0  0
  185.1720  176.9750  146.5130 C   0  0  0  0  0  2  0  0  0  0  0  0
  186.1890  176.8560  147.4610 O   0  0  0  0  0  1  0  0  0  0  0  0
  1 11  1  0  0  0  0
  2 17  1  6  0  0  0
  2  9  1  0  0  0  0
  3  8  1  0  0  0  0
  3  6  1  0  0  0  0
  4  3  2  0  0  0  0
  6 12  1  0  0  0  0
  7  1  2  0  0  0  0
  7  4  1  0  0  0  0
  9  5  1  0  0  0  0
 10  4  1  0  0  0  0
 10  2  1  0  0  0  0
 11 24  1  0  0  0  0
 11  8  2  0  0  0  0
 12  5  1  0  0  0  0
 12 15  1  1  0  0  0
 13 15  2  0  0  0  0
 15 14  1  0  0  0  0
 16 17  2  0  0  0  0
 18 16  1  0  0  0  0
 19 18  1  0  0  0  0
 21 23  2  6  0  0  0
 21 20  1  0  0  0  0
 21 19  1  0  0  0  0
 22 21  1  0  0  0  0
 24 25  1  0  0  0  0
 25 26  1  0  0  0  0
 26 27  1  0  0  0  0
 28 27  1  0  0  0  0
 28 29  1  0  0  0  0
M  END
>  <MODEL>
6

>  <REMARK>
 VINA RESULT:      -6.2      4.536      5.793
  Name = 
  10 active torsions:
  status: ('A' for Active; 'I' for Inactive)
    1  A    between atoms: C_2  and  C_23
    2  A    between atoms: P_7  and  O_19
    3  A    between atoms: C_13  and  C_16
    4  A    between atoms: C_14  and  C_24
    5  A    between atoms: C_16  and  O_19
    6  A    between atoms: N_18  and  C_20
    7  A    between atoms: N_18  and  C_25
    8  A    between atoms: C_20  and  C_28
    9  A    between atoms: C_24  and  C_25
   10  A    between atoms: C_27  and  C_29
                            x       y       z     vdW  Elec       q    Type
                         _______ _______ _______ _____ _____    ______ ____

>  <TORSDO>
F 10

$$$$
=
 OpenBabel11042416523D

 29 30  0  0  1  0  0  0  0  0999 V2000
  188.1470  177.6670  147.2630 C   0  0  0  0  0  3  0  0  0  0  0  0
  191.4950  177.0320  144.5280 C   0  0  1  0  0  3  0  0  0  0  0  0
  188.2400  176.3020  144.8350 C   0  0  0  0  0  0  0  0  0  0  0  0
  189.3900  176.4250  145.6550 C   0  0  0  0  0  0  0  0  0  0  0  0
  190.0340  176.8620  142.4650 C   0  0  0  0  0  2  0  0  0  0  0  0
  188.1650  175.5160  143.5480 C   0  0  0  0  0  2  0  0  0  0  0  0
  189.3070  177.1100  146.8290 N   0  0  0  0  0  0  0  0  0  0  0  0
  187.0420  176.8650  145.2840 C   0  0  0  0  0  3  0  0  0  0  0  0
  191.4560  176.8620  143.0110 C   0  0  0  0  0  2  0  0  0  0  0  0
  190.7330  175.9170  145.2430 C   0  0  0  0  0  2  0  0  0  0  0  0
  186.9890  177.5480  146.4980 C   0  0  0  0  0  0  0  0  0  0  0  0
  189.4250  175.4840  142.6840 C   0  0  1  0  0  3  0  0  0  0  0  0
  189.8890  173.8280  140.9980 N   0  0  0  0  0  1  0  0  0  0  0  0
  188.0740  175.2530  140.5520 N   0  0  0  0  0  2  0  0  0  0  0  0
  189.1490  174.8150  141.3790 C   0  0  0  0  0  0  0  0  0  0  0  0
  193.7190  176.0090  144.7510 C   0  0  0  0  0  3  0  0  0  0  0  0
  192.9190  177.0500  144.9770 C   0  0  0  0  0  3  0  0  0  0  0  0
  195.1400  176.0350  145.2020 C   0  0  0  0  0  2  0  0  0  0  0  0
  195.3160  175.1580  146.2740 O   0  0  0  0  0  0  0  0  0  0  0  0
  197.3130  173.3620  146.9100 F   0  0  0  0  0  0  0  0  0  0  0  0
  196.3230  173.9310  145.6840 P   0  0  1  0  0  0  0  0  0  0  0  0
  195.3840  172.6580  145.0820 O   0  0  0  0  0  1  0  0  0  0  0  0
  197.1810  174.4840  144.5710 O   0  0  0  0  0  0  0  0  0  0  0  0
  185.7180  178.1710  146.9550 C   0  0  0  0  0  2  0  0  0  0  0  0
  184.6080  177.6550  146.1730 N   0  0  0  0  0  2  0  0  0  0  0  0
  183.8490  178.8040  145.7170 C   0  0  0  0  0  2  0  0  0  0  0  0
  184.5020  179.3820  144.4770 C   0  0  0  0  0  2  0  0  0  0  0  0
  184.3870  178.4070  143.3200 C   0  0  0  0  0  2  0  0  0  0  0  0
  185.5400  178.4580  142.5360 O   0  0  0  0  0  1  0  0  0  0  0  0
  2 17  1  1  0  0  0
  2 10  1  0  0  0  0
  3  8  2  0  0  0  0
  3  4  1  0  0  0  0
  4  7  2  0  0  0  0
  5 12  1  0  0  0  0
  5  9  1  0  0  0  0
  6  3  1  0  0  0  0
  7  1  1  0  0  0  0
  8 11  1  0  0  0  0
  9  2  1  0  0  0  0
 10  4  1  0  0  0  0
 11 24  1  0  0  0  0
 11  1  2  0  0  0  0
 12 15  1  6  0  0  0
 12  6  1  0  0  0  0
 13 15  1  0  0  0  0
 14 15  2  0  0  0  0
 16 17  2  0  0  0  0
 16 18  1  0  0  0  0
 18 19  1  0  0  0  0
 21 23  2  6  0  0  0
 21 19  1  0  0  0  0
 21 20  1  0  0  0  0
 22 21  1  0  0  0  0
 25 24  1  0  0  0  0
 26 25  1  0  0  0  0
 27 26  1  0  0  0  0
 28 27  1  0  0  0  0
 29 28  1  0  0  0  0
M  END
>  <MODEL>
7

>  <REMARK>
 VINA RESULT:      -6.1      2.974      5.182
  Name = 
  10 active torsions:
  status: ('A' for Active; 'I' for Inactive)
    1  A    between atoms: C_2  and  C_23
    2  A    between atoms: P_7  and  O_19
    3  A    between atoms: C_13  and  C_16
    4  A    between atoms: C_14  and  C_24
    5  A    between atoms: C_16  and  O_19
    6  A    between atoms: N_18  and  C_20
    7  A    between atoms: N_18  and  C_25
    8  A    between atoms: C_20  and  C_28
    9  A    between atoms: C_24  and  C_25
   10  A    between atoms: C_27  and  C_29
                            x       y       z     vdW  Elec       q    Type
                         _______ _______ _______ _____ _____    ______ ____

>  <TORSDO>
F 10

$$$$
=
 OpenBabel11042416523D

 29 30  0  0  1  0  0  0  0  0999 V2000
  186.8900  176.9310  142.2170 C   0  0  0  0  0  3  0  0  0  0  0  0
  189.3260  173.6750  143.8150 C   0  0  1  0  0  3  0  0  0  0  0  0
  188.8820  176.9760  144.1640 C   0  0  0  0  0  0  0  0  0  0  0  0
  188.8810  176.0000  143.1350 C   0  0  0  0  0  0  0  0  0  0  0  0
  189.6500  174.7650  146.0790 C   0  0  0  0  0  2  0  0  0  0  0  0
  189.9570  177.1370  145.2130 C   0  0  0  0  0  2  0  0  0  0  0  0
  187.8820  176.0040  142.2100 N   0  0  0  0  0  0  0  0  0  0  0  0
  187.8690  177.9380  144.1680 C   0  0  0  0  0  3  0  0  0  0  0  0
  189.9260  173.5420  145.2130 C   0  0  0  0  0  2  0  0  0  0  0  0
  189.8790  174.8910  143.0730 C   0  0  0  0  0  2  0  0  0  0  0  0
  186.8690  177.9210  143.1970 C   0  0  0  0  0  0  0  0  0  0  0  0
  190.6370  175.8610  145.7070 C   0  0  1  0  0  3  0  0  0  0  0  0
  192.7820  175.7800  146.7990 N   0  0  0  0  0  2  0  0  0  0  0  0
  191.0740  176.8670  147.9920 N   0  0  0  0  0  1  0  0  0  0  0  0
  191.5500  176.1610  146.8490 C   0  0  0  0  0  0  0  0  0  0  0  0
  190.1890  172.4880  141.8430 C   0  0  0  0  0  3  0  0  0  0  0  0
  189.6140  172.4290  143.0440 C   0  0  0  0  0  3  0  0  0  0  0  0
  190.4750  171.2390  141.0780 C   0  0  0  0  0  2  0  0  0  0  0  0
  191.8500  171.0040  141.0480 O   0  0  0  0  0  0  0  0  0  0  0  0
  192.2400  170.2270  143.6670 F   0  0  0  0  0  0  0  0  0  0  0  0
  192.1000  169.6900  142.0870 P   0  0  1  0  0  0  0  0  0  0  0  0
  190.8000  168.6120  141.9720 O   0  0  0  0  0  1  0  0  0  0  0  0
  193.3720  168.9770  141.6910 O   0  0  0  0  0  0  0  0  0  0  0  0
  185.7760  178.9290  143.2250 C   0  0  0  0  0  2  0  0  0  0  0  0
  185.5860  179.4100  144.5820 N   0  0  0  0  0  2  0  0  0  0  0  0
  184.3150  178.8790  145.0390 C   0  0  0  0  0  2  0  0  0  0  0  0
  184.4510  178.4030  146.4720 C   0  0  0  0  0  2  0  0  0  0  0  0
  185.1050  177.0350  146.5110 C   0  0  0  0  0  2  0  0  0  0  0  0
  186.2740  177.0840  147.2710 O   0  0  0  0  0  1  0  0  0  0  0  0
  1 11  1  0  0  0  0
  2 17  1  6  0  0  0
  2  9  1  0  0  0  0
  3  8  1  0  0  0  0
  3  6  1  0  0  0  0
  4  3  2  0  0  0  0
  6 12  1  0  0  0  0
  7  1  2  0  0  0  0
  7  4  1  0  0  0  0
  9  5  1  0  0  0  0
 10  4  1  0  0  0  0
 10  2  1  0  0  0  0
 11 24  1  0  0  0  0
 11  8  2  0  0  0  0
 12  5  1  0  0  0  0
 12 15  1  1  0  0  0
 13 15  2  0  0  0  0
 15 14  1  0  0  0  0
 16 17  2  0  0  0  0
 18 16  1  0  0  0  0
 19 18  1  0  0  0  0
 19 21  1  0  0  0  0
 21 23  2  6  0  0  0
 21 20  1  0  0  0  0
 22 21  1  0  0  0  0
 24 25  1  0  0  0  0
 25 26  1  0  0  0  0
 26 27  1  0  0  0  0
 27 28  1  0  0  0  0
 28 29  1  0  0  0  0
M  END
>  <MODEL>
8

>  <REMARK>
 VINA RESULT:      -6.0      4.165      5.537
  Name = 
  10 active torsions:
  status: ('A' for Active; 'I' for Inactive)
    1  A    between atoms: C_2  and  C_23
    2  A    between atoms: P_7  and  O_19
    3  A    between atoms: C_13  and  C_16
    4  A    between atoms: C_14  and  C_24
    5  A    between atoms: C_16  and  O_19
    6  A    between atoms: N_18  and  C_20
    7  A    between atoms: N_18  and  C_25
    8  A    between atoms: C_20  and  C_28
    9  A    between atoms: C_24  and  C_25
   10  A    between atoms: C_27  and  C_29
                            x       y       z     vdW  Elec       q    Type
                         _______ _______ _______ _____ _____    ______ ____

>  <TORSDO>
F 10

$$$$
=
 OpenBabel11042416523D

 29 30  0  0  1  0  0  0  0  0999 V2000
  189.5030  172.1060  143.4800 C   0  0  0  0  0  3  0  0  0  0  0  0
  189.7770  176.0860  145.2630 C   0  0  1  0  0  3  0  0  0  0  0  0
  191.6710  173.3870  144.6730 C   0  0  0  0  0  0  0  0  0  0  0  0
  190.3380  173.6970  145.0440 C   0  0  0  0  0  0  0  0  0  0  0  0
  192.2470  176.3550  144.7660 C   0  0  0  0  0  2  0  0  0  0  0  0
  192.9110  173.9610  145.3150 C   0  0  0  0  0  2  0  0  0  0  0  0
  189.3050  173.0580  144.4280 N   0  0  0  0  0  0  0  0  0  0  0  0
  191.8790  172.4010  143.7060 C   0  0  0  0  0  3  0  0  0  0  0  0
  190.9950  177.0030  145.3430 C   0  0  0  0  0  2  0  0  0  0  0  0
  190.0020  174.7770  146.0190 C   0  0  0  0  0  2  0  0  0  0  0  0
  190.7990  171.7560  143.1050 C   0  0  0  0  0  0  0  0  0  0  0  0
  192.8310  175.4070  145.8030 C   0  0  1  0  0  3  0  0  0  0  0  0
  194.2880  177.0590  146.7750 N   0  0  0  0  0  1  0  0  0  0  0  0
  195.3190  175.0480  146.1300 N   0  0  0  0  0  2  0  0  0  0  0  0
  194.1700  175.8830  146.2580 C   0  0  0  0  0  0  0  0  0  0  0  0
  187.7230  176.1750  146.6110 C   0  0  0  0  0  3  0  0  0  0  0  0
  188.5930  176.8030  145.8210 C   0  0  0  0  0  3  0  0  0  0  0  0
  186.5420  176.8980  147.1650 C   0  0  0  0  0  2  0  0  0  0  0  0
  185.5620  177.0340  146.1810 O   0  0  0  0  0  0  0  0  0  0  0  0
  183.5750  178.9380  145.9760 F   0  0  0  0  0  0  0  0  0  0  0  0
  185.2260  178.6930  146.1150 P   0  0  1  0  0  0  0  0  0  0  0  0
  185.7920  179.4500  147.5200 O   0  0  0  0  0  1  0  0  0  0  0  0
  185.9190  179.2930  144.9140 O   0  0  0  0  0  0  0  0  0  0  0  0
  191.0260  170.7290  142.0530 C   0  0  0  0  0  2  0  0  0  0  0  0
  191.5910  171.3530  140.8700 N   0  0  0  0  0  2  0  0  0  0  0  0
  190.4950  171.5510  139.9390 C   0  0  0  0  0  2  0  0  0  0  0  0
  190.2790  173.0360  139.7210 C   0  0  0  0  0  2  0  0  0  0  0  0
  188.8300  173.4000  139.9820 C   0  0  0  0  0  2  0  0  0  0  0  0
  188.2770  174.0030  138.8520 O   0  0  0  0  0  1  0  0  0  0  0  0
  1  7  1  0  0  0  0
  2  9  1  0  0  0  0
  2 17  1  1  0  0  0
  2 10  1  0  0  0  0
  3  4  1  0  0  0  0
  3  6  1  0  0  0  0
  4 10  1  0  0  0  0
  5  9  1  0  0  0  0
  5 12  1  0  0  0  0
  6 12  1  0  0  0  0
  7  4  2  0  0  0  0
  8  3  2  0  0  0  0
 11  1  2  0  0  0  0
 11  8  1  0  0  0  0
 12 15  1  6  0  0  0
 14 15  2  0  0  0  0
 15 13  1  0  0  0  0
 16 18  1  0  0  0  0
 17 16  2  0  0  0  0
 19 18  1  0  0  0  0
 20 21  1  0  0  0  0
 21 23  2  6  0  0  0
 21 19  1  0  0  0  0
 21 22  1  0  0  0  0
 24 11  1  0  0  0  0
 25 24  1  0  0  0  0
 26 25  1  0  0  0  0
 27 26  1  0  0  0  0
 27 28  1  0  0  0  0
 29 28  1  0  0  0  0
M  END
>  <MODEL>
9

>  <REMARK>
 VINA RESULT:      -5.9      5.824      7.716
  Name = 
  10 active torsions:
  status: ('A' for Active; 'I' for Inactive)
    1  A    between atoms: C_2  and  C_23
    2  A    between atoms: P_7  and  O_19
    3  A    between atoms: C_13  and  C_16
    4  A    between atoms: C_14  and  C_24
    5  A    between atoms: C_16  and  O_19
    6  A    between atoms: N_18  and  C_20
    7  A    between atoms: N_18  and  C_25
    8  A    between atoms: C_20  and  C_28
    9  A    between atoms: C_24  and  C_25
   10  A    between atoms: C_27  and  C_29
                            x       y       z     vdW  Elec       q    Type
                         _______ _______ _______ _____ _____    ______ ____

>  <TORSDO>
F 10

$$$$
