=
 OpenBabel11042416583D

 35 39  0  0  1  0  0  0  0  0999 V2000
  191.2030  177.0070  144.1370 C   0  0  0  0  0  0  0  0  0  0  0  0
  190.1110  175.8640  146.4300 C   0  0  0  0  0  0  0  0  0  0  0  0
  191.8760  177.4510  142.8650 C   0  0  0  0  0  2  0  0  0  0  0  0
  194.6770  175.0020  142.9560 N   0  0  0  0  0  0  0  0  0  0  0  0
  189.2410  176.3520  145.4200 C   0  0  0  0  0  0  0  0  0  0  0  0
  193.8010  176.6630  145.0270 S   0  0  0  0  0  0  0  0  0  0  0  0
  195.2390  174.0350  141.9690 C   0  0  0  0  0  2  0  0  0  0  0  0
  193.7760  176.0340  143.3370 C   0  0  0  0  0  0  0  0  0  0  0  0
  195.7910  174.0490  143.2330 C   0  0  0  0  0  2  0  0  0  0  0  0
  191.4580  175.9700  146.2730 N   0  0  0  0  0  0  0  0  0  0  0  0
  192.8960  176.4720  142.4860 N   0  0  0  0  0  0  0  0  0  0  0  0
  189.8070  176.9330  144.2640 C   0  0  0  0  0  0  0  0  0  0  0  0
  192.0140  176.5410  145.1770 C   0  0  0  0  0  0  0  0  0  0  0  0
  189.6190  175.1650  147.6520 C   0  0  0  0  0  2  0  0  0  0  0  0
  188.9590  173.9910  147.2880 O   0  0  0  0  0  1  0  0  0  0  0  0
  187.8070  176.2680  145.5080 N   0  0  0  0  0  2  0  0  0  0  0  0
  186.9370  177.1250  146.2980 C   0  0  0  0  0  2  0  0  0  0  0  0
  185.3390  180.1470  144.7370 C   0  0  0  0  0  1  0  0  0  0  0  0
  185.5110  178.8880  145.5120 C   0  0  0  0  0  0  0  0  0  0  0  0
  184.3180  178.2950  146.1970 C   0  0  0  0  0  1  0  0  0  0  0  0
  186.6770  178.3420  145.5730 N   0  0  0  0  0  0  0  0  0  0  0  0
  188.9090  177.4570  143.1720 C   0  0  0  0  0  2  0  0  0  0  0  0
  188.6730  176.4570  142.0270 C   0  0  2  0  0  3  0  0  0  0  0  0
  186.2450  177.1400  142.2640 C   0  0  0  0  0  2  0  0  0  0  0  0
  187.3400  176.6870  141.2830 C   0  0  1  0  0  3  0  0  0  0  0  0
  186.3670  177.4720  139.4150 C   0  0  0  0  0  2  0  0  0  0  0  0
  183.7210  178.1130  142.4780 Cl  0  0  0  0  0  0  0  0  0  0  0  0
  185.0530  177.8330  140.1280 C   0  0  0  0  0  2  0  0  0  0  0  0
  185.2740  178.1280  141.6130 C   0  0  2  0  0  3  0  0  0  0  0  0
  187.4840  177.6390  140.2570 O   0  0  0  0  0  0  0  0  0  0  0  0
  188.1900  172.9450  141.5890 C   0  0  0  0  0  2  0  0  0  0  0  0
  189.6860  173.0390  141.4530 C   0  0  0  0  0  2  0  0  0  0  0  0
  187.7760  174.1980  142.3350 C   0  0  0  0  0  2  0  0  0  0  0  0
  188.9460  175.0720  142.4540 N   0  0  0  0  0  0  0  0  0  0  0  0
  189.9860  174.5100  141.6060 C   0  0  0  0  0  2  0  0  0  0  0  0
  1 12  2  0  0  0  0
  1 13  1  0  0  0  0
  2 14  1  0  0  0  0
  3  1  1  0  0  0  0
  4  9  1  0  0  0  0
  4  8  1  0  0  0  0
  5 16  1  0  0  0  0
  5  2  2  0  0  0  0
  6 13  1  0  0  0  0
  7  4  1  0  0  0  0
  7  9  1  0  0  0  0
  8  6  1  0  0  0  0
 10  2  1  0  0  0  0
 11  3  1  0  0  0  0
 11  8  2  0  0  0  0
 12  5  1  0  0  0  0
 13 10  2  0  0  0  0
 15 14  1  0  0  0  0
 16 17  1  0  0  0  0
 18 19  1  0  0  0  0
 19 21  2  0  0  0  0
 19 20  1  0  0  0  0
 21 17  1  0  0  0  0
 22 12  1  0  0  0  0
 23 34  1  0  0  0  0
 23 22  1  1  0  0  0
 25 23  1  1  0  0  0
 25 24  1  0  0  0  0
 26 28  1  0  0  0  0
 26 30  1  0  0  0  0
 28 29  1  0  0  0  0
 29 24  1  0  0  0  0
 29 27  1  1  0  0  0
 30 25  1  0  0  0  0
 31 33  1  0  0  0  0
 32 31  1  0  0  0  0
 32 35  1  0  0  0  0
 33 34  1  0  0  0  0
 35 34  1  0  0  0  0
M  END
>  <MODEL>
1

>  <REMARK>
 VINA RESULT:      -7.2      0.000      0.000
  Name = 
  8 active torsions:
  status: ('A' for Active; 'I' for Inactive)
    1  A    between atoms: CA_4  and  C_10
    2  A    between atoms: C_5  and  C_18
    3  A    between atoms: C_8  and  N_25
    4  A    between atoms: C_18  and  N_27
    5  A    between atoms: C_18  and  C_28
    6  A    between atoms: N_22  and  C_35
    7  A    between atoms: N_25  and  C_35
    8  A    between atoms: C_28  and  C_32
                            x       y       z     vdW  Elec       q    Type
                         _______ _______ _______ _____ _____    ______ ____

>  <TORSDO>
F 8

$$$$
=
 OpenBabel11042416583D

 35 39  0  0  1  0  0  0  0  0999 V2000
  187.8650  177.1780  142.4450 C   0  0  0  0  0  0  0  0  0  0  0  0
  188.4210  174.5020  141.9030 C   0  0  0  0  0  0  0  0  0  0  0  0
  187.3760  178.5700  142.7410 C   0  0  0  0  0  2  0  0  0  0  0  0
  183.9790  178.1810  141.2720 N   0  0  0  0  0  0  0  0  0  0  0  0
  188.9370  175.0890  143.0880 C   0  0  0  0  0  0  0  0  0  0  0  0
  186.4260  177.5030  140.1030 S   0  0  0  0  0  0  0  0  0  0  0  0
  182.5990  178.4560  141.7670 C   0  0  0  0  0  2  0  0  0  0  0  0
  185.3950  178.1930  141.4100 C   0  0  0  0  0  0  0  0  0  0  0  0
  182.7260  177.8830  140.5200 C   0  0  0  0  0  2  0  0  0  0  0  0
  187.6760  175.2500  141.0460 N   0  0  0  0  0  0  0  0  0  0  0  0
  185.9330  178.6410  142.5060 N   0  0  0  0  0  0  0  0  0  0  0  0
  188.6520  176.4470  143.3490 C   0  0  0  0  0  0  0  0  0  0  0  0
  187.4090  176.5590  141.2760 C   0  0  0  0  0  0  0  0  0  0  0  0
  188.5990  173.0590  141.5720 C   0  0  0  0  0  2  0  0  0  0  0  0
  189.6830  172.9050  140.7080 O   0  0  0  0  0  1  0  0  0  0  0  0
  189.7250  174.3610  144.0480 N   0  0  0  0  0  2  0  0  0  0  0  0
  191.0680  173.8410  143.8490 C   0  0  0  0  0  2  0  0  0  0  0  0
  193.9820  176.0250  142.9180 C   0  0  0  0  0  1  0  0  0  0  0  0
  193.1910  174.9020  143.4930 C   0  0  0  0  0  0  0  0  0  0  0  0
  193.9110  173.8270  144.2470 C   0  0  0  0  0  1  0  0  0  0  0  0
  191.9130  174.8860  143.3280 N   0  0  0  0  0  0  0  0  0  0  0  0
  189.1830  177.0970  144.6020 C   0  0  0  0  0  2  0  0  0  0  0  0
  188.8180  176.3480  145.8950 C   0  0  2  0  0  3  0  0  0  0  0  0
  187.4640  178.1120  147.1070 C   0  0  0  0  0  2  0  0  0  0  0  0
  187.4260  176.7240  146.4450 C   0  0  1  0  0  3  0  0  0  0  0  0
  185.2080  176.6590  146.0860 C   0  0  0  0  0  2  0  0  0  0  0  0
  185.9610  180.1040  148.1750 Cl  0  0  0  0  0  0  0  0  0  0  0  0
  184.9360  177.9400  146.8930 C   0  0  0  0  0  2  0  0  0  0  0  0
  186.1500  178.8720  146.9080 C   0  0  2  0  0  3  0  0  0  0  0  0
  186.4530  176.7070  145.4290 O   0  0  0  0  0  0  0  0  0  0  0  0
  191.7710  174.8580  147.2420 C   0  0  0  0  0  2  0  0  0  0  0  0
  192.3040  176.2010  146.8230 C   0  0  0  0  0  2  0  0  0  0  0  0
  190.2730  175.0430  147.3730 C   0  0  0  0  0  2  0  0  0  0  0  0
  189.9280  176.3750  146.8670 N   0  0  0  0  0  0  0  0  0  0  0  0
  191.1160  176.9050  146.2150 C   0  0  0  0  0  2  0  0  0  0  0  0
  1  3  1  0  0  0  0
  1 12  1  0  0  0  0
  2  5  1  0  0  0  0
  4  8  1  0  0  0  0
  4  7  1  0  0  0  0
  5 12  2  0  0  0  0
  5 16  1  0  0  0  0
  6 13  1  0  0  0  0
  6  8  1  0  0  0  0
  8 11  2  0  0  0  0
  9  4  1  0  0  0  0
  9  7  1  0  0  0  0
 10 13  1  0  0  0  0
 10  2  2  0  0  0  0
 11  3  1  0  0  0  0
 12 22  1  0  0  0  0
 13  1  2  0  0  0  0
 14  2  1  0  0  0  0
 15 14  1  0  0  0  0
 17 16  1  0  0  0  0
 18 19  1  0  0  0  0
 19 20  1  0  0  0  0
 21 19  2  0  0  0  0
 21 17  1  0  0  0  0
 23 22  1  6  0  0  0
 23 34  1  0  0  0  0
 25 23  1  6  0  0  0
 25 24  1  0  0  0  0
 26 28  1  0  0  0  0
 28 29  1  0  0  0  0
 29 24  1  0  0  0  0
 29 27  1  1  0  0  0
 30 26  1  0  0  0  0
 30 25  1  0  0  0  0
 31 33  1  0  0  0  0
 32 31  1  0  0  0  0
 34 33  1  0  0  0  0
 35 32  1  0  0  0  0
 35 34  1  0  0  0  0
M  END
>  <MODEL>
2

>  <REMARK>
 VINA RESULT:      -7.1      2.782      7.097
  Name = 
  8 active torsions:
  status: ('A' for Active; 'I' for Inactive)
    1  A    between atoms: CA_4  and  C_10
    2  A    between atoms: C_5  and  C_18
    3  A    between atoms: C_8  and  N_25
    4  A    between atoms: C_18  and  N_27
    5  A    between atoms: C_18  and  C_28
    6  A    between atoms: N_22  and  C_35
    7  A    between atoms: N_25  and  C_35
    8  A    between atoms: C_28  and  C_32
                            x       y       z     vdW  Elec       q    Type
                         _______ _______ _______ _____ _____    ______ ____

>  <TORSDO>
F 8

$$$$
=
 OpenBabel11042416583D

 35 39  0  0  1  0  0  0  0  0999 V2000
  191.8420  175.2890  144.1250 C   0  0  0  0  0  0  0  0  0  0  0  0
  190.5380  173.9640  142.0500 C   0  0  0  0  0  0  0  0  0  0  0  0
  192.6780  176.0590  145.1120 C   0  0  0  0  0  2  0  0  0  0  0  0
  195.9120  175.7640  143.2930 N   0  0  0  0  0  0  0  0  0  0  0  0
  189.8650  175.0130  142.7310 C   0  0  0  0  0  0  0  0  0  0  0  0
  194.1070  173.7170  143.8990 S   0  0  0  0  0  0  0  0  0  0  0  0
  196.9530  176.7440  142.8670 C   0  0  0  0  0  2  0  0  0  0  0  0
  194.6980  175.4200  143.9490 C   0  0  0  0  0  0  0  0  0  0  0  0
  197.1290  175.4270  142.4990 C   0  0  0  0  0  2  0  0  0  0  0  0
  191.7980  173.6140  142.4230 N   0  0  0  0  0  0  0  0  0  0  0  0
  193.9870  176.3450  144.5240 N   0  0  0  0  0  0  0  0  0  0  0  0
  190.5350  175.6730  143.7840 C   0  0  0  0  0  0  0  0  0  0  0  0
  192.4460  174.2280  143.4420 C   0  0  0  0  0  0  0  0  0  0  0  0
  189.9510  173.2550  140.8780 C   0  0  0  0  0  2  0  0  0  0  0  0
  189.2560  172.1250  141.3100 O   0  0  0  0  0  1  0  0  0  0  0  0
  188.5360  175.4470  142.3900 N   0  0  0  0  0  2  0  0  0  0  0  0
  188.0960  175.9550  141.1010 C   0  0  0  0  0  2  0  0  0  0  0  0
  185.1270  178.2050  140.6030 C   0  0  0  0  0  1  0  0  0  0  0  0
  186.2890  177.3220  140.3100 C   0  0  0  0  0  0  0  0  0  0  0  0
  186.6420  177.0500  138.8800 C   0  0  0  0  0  1  0  0  0  0  0  0
  186.9580  176.8190  141.2890 N   0  0  0  0  0  0  0  0  0  0  0  0
  189.8480  176.7940  144.5230 C   0  0  0  0  0  2  0  0  0  0  0  0
  188.6970  176.3260  145.4320 C   0  0  2  0  0  3  0  0  0  0  0  0
  186.5620  177.2450  146.4380 C   0  0  0  0  0  2  0  0  0  0  0  0
  187.3610  177.0410  145.1400 C   0  0  1  0  0  3  0  0  0  0  0  0
  186.3350  178.6410  143.9390 C   0  0  0  0  0  2  0  0  0  0  0  0
  184.3980  178.4510  147.5450 Cl  0  0  0  0  0  0  0  0  0  0  0  0
  185.2630  178.9010  145.0110 C   0  0  0  0  0  2  0  0  0  0  0  0
  185.7650  178.5520  146.4140 C   0  0  2  0  0  3  0  0  0  0  0  0
  187.5720  178.2820  144.5090 O   0  0  0  0  0  0  0  0  0  0  0  0
  191.0360  175.2940  147.9260 C   0  0  0  0  0  2  0  0  0  0  0  0
  191.0600  176.7850  148.1240 C   0  0  0  0  0  2  0  0  0  0  0  0
  189.7280  175.0030  147.2190 C   0  0  0  0  0  2  0  0  0  0  0  0
  189.1120  176.2800  146.8470 N   0  0  0  0  0  0  0  0  0  0  0  0
  190.1040  177.3180  147.0850 C   0  0  0  0  0  2  0  0  0  0  0  0
  1  3  1  0  0  0  0
  2 10  2  0  0  0  0
  2  5  1  0  0  0  0
  4  8  1  0  0  0  0
  5 12  2  0  0  0  0
  6  8  1  0  0  0  0
  7  4  1  0  0  0  0
  8 11  2  0  0  0  0
  9  7  1  0  0  0  0
  9  4  1  0  0  0  0
 10 13  1  0  0  0  0
 11  3  1  0  0  0  0
 12  1  1  0  0  0  0
 12 22  1  0  0  0  0
 13  6  1  0  0  0  0
 13  1  2  0  0  0  0
 14 15  1  0  0  0  0
 14  2  1  0  0  0  0
 16  5  1  0  0  0  0
 17 21  1  0  0  0  0
 17 16  1  0  0  0  0
 19 18  1  0  0  0  0
 19 21  2  0  0  0  0
 20 19  1  0  0  0  0
 23 22  1  6  0  0  0
 23 34  1  0  0  0  0
 25 23  1  1  0  0  0
 25 24  1  0  0  0  0
 26 30  1  0  0  0  0
 26 28  1  0  0  0  0
 28 29  1  0  0  0  0
 29 24  1  0  0  0  0
 29 27  1  1  0  0  0
 30 25  1  0  0  0  0
 31 32  1  0  0  0  0
 33 31  1  0  0  0  0
 34 35  1  0  0  0  0
 34 33  1  0  0  0  0
 35 32  1  0  0  0  0
M  END
>  <MODEL>
3

>  <REMARK>
 VINA RESULT:      -7.1      2.172      4.582
  Name = 
  8 active torsions:
  status: ('A' for Active; 'I' for Inactive)
    1  A    between atoms: CA_4  and  C_10
    2  A    between atoms: C_5  and  C_18
    3  A    between atoms: C_8  and  N_25
    4  A    between atoms: C_18  and  N_27
    5  A    between atoms: C_18  and  C_28
    6  A    between atoms: N_22  and  C_35
    7  A    between atoms: N_25  and  C_35
    8  A    between atoms: C_28  and  C_32
                            x       y       z     vdW  Elec       q    Type
                         _______ _______ _______ _____ _____    ______ ____

>  <TORSDO>
F 8

$$$$
=
 OpenBabel11042416583D

 35 39  0  0  1  0  0  0  0  0999 V2000
  192.2560  175.0330  144.6150 C   0  0  0  0  0  0  0  0  0  0  0  0
  191.2700  172.7390  143.3800 C   0  0  0  0  0  0  0  0  0  0  0  0
  192.9180  176.2810  145.1350 C   0  0  0  0  0  2  0  0  0  0  0  0
  196.2460  175.7170  143.5670 N   0  0  0  0  0  0  0  0  0  0  0  0
  190.4150  173.8620  143.5360 C   0  0  0  0  0  0  0  0  0  0  0  0
  194.7400  173.8990  145.0640 S   0  0  0  0  0  0  0  0  0  0  0  0
  197.1490  176.5540  142.7250 C   0  0  0  0  0  2  0  0  0  0  0  0
  195.0660  175.5150  144.3350 C   0  0  0  0  0  0  0  0  0  0  0  0
  197.5380  175.2560  142.9800 C   0  0  0  0  0  2  0  0  0  0  0  0
  192.5480  172.7920  143.8410 N   0  0  0  0  0  0  0  0  0  0  0  0
  194.1970  176.4770  144.4510 N   0  0  0  0  0  0  0  0  0  0  0  0
  190.9250  175.0170  144.1670 C   0  0  0  0  0  0  0  0  0  0  0  0
  193.0450  173.8880  144.4650 C   0  0  0  0  0  0  0  0  0  0  0  0
  190.8540  171.5010  142.6610 C   0  0  0  0  0  2  0  0  0  0  0  0
  191.6510  171.3240  141.5300 O   0  0  0  0  0  1  0  0  0  0  0  0
  189.0540  173.8870  143.0670 N   0  0  0  0  0  2  0  0  0  0  0  0
  188.5910  174.3890  141.7840 C   0  0  0  0  0  2  0  0  0  0  0  0
  190.6600  173.4290  138.7970 C   0  0  0  0  0  1  0  0  0  0  0  0
  189.5210  173.5160  139.7500 C   0  0  0  0  0  0  0  0  0  0  0  0
  188.2700  172.7490  139.4480 C   0  0  0  0  0  1  0  0  0  0  0  0
  189.6400  174.2450  140.8060 N   0  0  0  0  0  0  0  0  0  0  0  0
  190.0430  176.2270  144.3440 C   0  0  0  0  0  2  0  0  0  0  0  0
  188.7940  175.9660  145.2050 C   0  0  2  0  0  3  0  0  0  0  0  0
  186.5260  176.9120  145.8180 C   0  0  0  0  0  2  0  0  0  0  0  0
  187.5310  176.6790  144.6770 C   0  0  1  0  0  3  0  0  0  0  0  0
  186.7330  178.2560  143.2890 C   0  0  0  0  0  2  0  0  0  0  0  0
  184.2140  178.1470  146.5200 Cl  0  0  0  0  0  0  0  0  0  0  0  0
  185.4970  178.5420  144.1590 C   0  0  0  0  0  2  0  0  0  0  0  0
  185.7520  178.2210  145.6330 C   0  0  2  0  0  3  0  0  0  0  0  0
  187.8540  177.9050  144.0670 O   0  0  0  0  0  0  0  0  0  0  0  0
  190.9280  175.3880  148.0100 C   0  0  0  0  0  2  0  0  0  0  0  0
  190.8970  176.8930  147.9900 C   0  0  0  0  0  2  0  0  0  0  0  0
  189.6950  174.9510  147.2450 C   0  0  0  0  0  2  0  0  0  0  0  0
  189.0830  176.1380  146.6420 N   0  0  0  0  0  0  0  0  0  0  0  0
  190.0240  177.2350  146.8090 C   0  0  0  0  0  2  0  0  0  0  0  0
  1  3  1  0  0  0  0
  2  5  2  0  0  0  0
  2 10  1  0  0  0  0
  4  8  1  0  0  0  0
  5 12  1  0  0  0  0
  7  9  1  0  0  0  0
  7  4  1  0  0  0  0
  8 11  2  0  0  0  0
  8  6  1  0  0  0  0
  9  4  1  0  0  0  0
 10 13  2  0  0  0  0
 11  3  1  0  0  0  0
 12 22  1  0  0  0  0
 12  1  2  0  0  0  0
 13  1  1  0  0  0  0
 13  6  1  0  0  0  0
 14  2  1  0  0  0  0
 15 14  1  0  0  0  0
 16  5  1  0  0  0  0
 17 16  1  0  0  0  0
 18 19  1  0  0  0  0
 19 21  2  0  0  0  0
 20 19  1  0  0  0  0
 21 17  1  0  0  0  0
 23 22  1  6  0  0  0
 23 34  1  0  0  0  0
 25 23  1  1  0  0  0
 25 24  1  0  0  0  0
 26 30  1  0  0  0  0
 26 28  1  0  0  0  0
 28 29  1  0  0  0  0
 29 24  1  0  0  0  0
 29 27  1  1  0  0  0
 30 25  1  0  0  0  0
 32 31  1  0  0  0  0
 33 31  1  0  0  0  0
 34 35  1  0  0  0  0
 34 33  1  0  0  0  0
 35 32  1  0  0  0  0
M  END
>  <MODEL>
4

>  <REMARK>
 VINA RESULT:      -6.9      2.358      5.024
  Name = 
  8 active torsions:
  status: ('A' for Active; 'I' for Inactive)
    1  A    between atoms: CA_4  and  C_10
    2  A    between atoms: C_5  and  C_18
    3  A    between atoms: C_8  and  N_25
    4  A    between atoms: C_18  and  N_27
    5  A    between atoms: C_18  and  C_28
    6  A    between atoms: N_22  and  C_35
    7  A    between atoms: N_25  and  C_35
    8  A    between atoms: C_28  and  C_32
                            x       y       z     vdW  Elec       q    Type
                         _______ _______ _______ _____ _____    ______ ____

>  <TORSDO>
F 8

$$$$
=
 OpenBabel11042416583D

 35 39  0  0  1  0  0  0  0  0999 V2000
  192.0650  176.6920  143.7820 C   0  0  0  0  0  0  0  0  0  0  0  0
  191.1420  176.6800  146.4110 C   0  0  0  0  0  0  0  0  0  0  0  0
  192.6050  176.5090  142.3890 C   0  0  0  0  0  2  0  0  0  0  0  0
  194.8720  173.6570  143.1530 N   0  0  0  0  0  0  0  0  0  0  0  0
  190.2350  176.9840  145.3610 C   0  0  0  0  0  0  0  0  0  0  0  0
  194.6550  176.0760  144.5360 S   0  0  0  0  0  0  0  0  0  0  0  0
  195.0810  172.3110  142.5470 C   0  0  0  0  0  2  0  0  0  0  0  0
  194.2520  174.9360  143.1990 C   0  0  0  0  0  0  0  0  0  0  0  0
  195.8130  172.6230  143.6720 C   0  0  0  0  0  2  0  0  0  0  0  0
  192.4430  176.4100  146.1240 N   0  0  0  0  0  0  0  0  0  0  0  0
  193.3500  175.2510  142.3160 N   0  0  0  0  0  0  0  0  0  0  0  0
  190.7160  176.9910  144.0340 C   0  0  0  0  0  0  0  0  0  0  0  0
  192.9220  176.4300  144.8570 C   0  0  0  0  0  0  0  0  0  0  0  0
  190.7190  176.5710  147.8360 C   0  0  0  0  0  2  0  0  0  0  0  0
  191.1910  175.3750  148.3770 O   0  0  0  0  0  1  0  0  0  0  0  0
  188.8420  177.2710  145.5820 N   0  0  0  0  0  2  0  0  0  0  0  0
  187.9520  176.5810  146.5030 C   0  0  0  0  0  2  0  0  0  0  0  0
  184.5940  178.2670  146.5760 C   0  0  0  0  0  1  0  0  0  0  0  0
  186.0010  177.9180  146.9110 C   0  0  0  0  0  0  0  0  0  0  0  0
  186.6840  178.6660  148.0150 C   0  0  0  0  0  1  0  0  0  0  0  0
  186.5930  176.9850  146.2470 N   0  0  0  0  0  0  0  0  0  0  0  0
  189.7770  177.3070  142.8970 C   0  0  0  0  0  2  0  0  0  0  0  0
  188.7590  176.1910  142.6020 C   0  0  2  0  0  3  0  0  0  0  0  0
  189.5730  173.8020  142.8200 C   0  0  0  0  0  2  0  0  0  0  0  0
  189.3750  174.9870  141.8590 C   0  0  1  0  0  3  0  0  0  0  0  0
  189.3960  173.7920  139.9550 C   0  0  0  0  0  2  0  0  0  0  0  0
  190.2080  171.1700  142.9980 Cl  0  0  0  0  0  0  0  0  0  0  0  0
  189.8110  172.4880  140.6570 C   0  0  0  0  0  2  0  0  0  0  0  0
  189.3580  172.4590  142.1180 C   0  0  2  0  0  3  0  0  0  0  0  0
  188.5730  174.5910  140.7730 O   0  0  0  0  0  0  0  0  0  0  0  0
  185.4860  177.5380  143.0790 C   0  0  0  0  0  2  0  0  0  0  0  0
  186.1430  178.6640  142.3250 C   0  0  0  0  0  2  0  0  0  0  0  0
  186.3180  176.3100  142.7700 C   0  0  0  0  0  2  0  0  0  0  0  0
  187.5110  176.7340  142.0330 N   0  0  0  0  0  0  0  0  0  0  0  0
  187.5550  178.1880  142.0940 C   0  0  0  0  0  2  0  0  0  0  0  0
  1 12  2  0  0  0  0
  1 13  1  0  0  0  0
  2 14  1  0  0  0  0
  3  1  1  0  0  0  0
  4  8  1  0  0  0  0
  4  9  1  0  0  0  0
  5 16  1  0  0  0  0
  5  2  2  0  0  0  0
  6 13  1  0  0  0  0
  7  4  1  0  0  0  0
  7  9  1  0  0  0  0
  8  6  1  0  0  0  0
 10  2  1  0  0  0  0
 11  3  1  0  0  0  0
 11  8  2  0  0  0  0
 12  5  1  0  0  0  0
 13 10  2  0  0  0  0
 14 15  1  0  0  0  0
 16 17  1  0  0  0  0
 18 19  1  0  0  0  0
 19 20  1  0  0  0  0
 21 17  1  0  0  0  0
 21 19  2  0  0  0  0
 22 12  1  0  0  0  0
 23 22  1  6  0  0  0
 25 23  1  1  0  0  0
 25 24  1  0  0  0  0
 26 28  1  0  0  0  0
 26 30  1  0  0  0  0
 28 29  1  0  0  0  0
 29 24  1  0  0  0  0
 29 27  1  1  0  0  0
 30 25  1  0  0  0  0
 32 31  1  0  0  0  0
 33 31  1  0  0  0  0
 34 35  1  0  0  0  0
 34 23  1  0  0  0  0
 34 33  1  0  0  0  0
 35 32  1  0  0  0  0
M  END
>  <MODEL>
5

>  <REMARK>
 VINA RESULT:      -6.9      2.283      3.466
  Name = 
  8 active torsions:
  status: ('A' for Active; 'I' for Inactive)
    1  A    between atoms: CA_4  and  C_10
    2  A    between atoms: C_5  and  C_18
    3  A    between atoms: C_8  and  N_25
    4  A    between atoms: C_18  and  N_27
    5  A    between atoms: C_18  and  C_28
    6  A    between atoms: N_22  and  C_35
    7  A    between atoms: N_25  and  C_35
    8  A    between atoms: C_28  and  C_32
                            x       y       z     vdW  Elec       q    Type
                         _______ _______ _______ _____ _____    ______ ____

>  <TORSDO>
F 8

$$$$
=
 OpenBabel11042416583D

 35 39  0  0  1  0  0  0  0  0999 V2000
  192.7820  173.5050  143.7330 C   0  0  0  0  0  0  0  0  0  0  0  0
  193.6830  175.9290  144.7680 C   0  0  0  0  0  0  0  0  0  0  0  0
  192.3530  172.1150  143.3430 C   0  0  0  0  0  2  0  0  0  0  0  0
  194.7100  170.2730  145.5560 N   0  0  0  0  0  0  0  0  0  0  0  0
  192.3110  175.7880  144.4300 C   0  0  0  0  0  0  0  0  0  0  0  0
  195.3050  172.3700  143.8060 S   0  0  0  0  0  0  0  0  0  0  0  0
  194.5500  169.1760  146.5540 C   0  0  0  0  0  2  0  0  0  0  0  0
  194.2050  171.1630  144.5690 C   0  0  0  0  0  0  0  0  0  0  0  0
  195.8090  169.7160  146.3970 C   0  0  0  0  0  2  0  0  0  0  0  0
  194.5380  174.8900  144.5730 N   0  0  0  0  0  0  0  0  0  0  0  0
  192.9390  171.1450  144.2690 N   0  0  0  0  0  0  0  0  0  0  0  0
  191.8680  174.5570  143.9020 C   0  0  0  0  0  0  0  0  0  0  0  0
  194.1300  173.7080  144.0520 C   0  0  0  0  0  0  0  0  0  0  0  0
  194.2370  177.1590  145.4020 C   0  0  0  0  0  2  0  0  0  0  0  0
  194.2510  177.0090  146.7880 O   0  0  0  0  0  1  0  0  0  0  0  0
  191.3430  176.8380  144.6150 N   0  0  0  0  0  2  0  0  0  0  0  0
  190.7630  177.2680  145.8770 C   0  0  0  0  0  2  0  0  0  0  0  0
  188.9210  174.4770  147.5930 C   0  0  0  0  0  1  0  0  0  0  0  0
  190.0020  175.4310  147.2210 C   0  0  0  0  0  0  0  0  0  0  0  0
  191.3180  175.3380  147.9290 C   0  0  0  0  0  1  0  0  0  0  0  0
  189.7770  176.3060  146.3020 N   0  0  0  0  0  0  0  0  0  0  0  0
  190.4160  174.3760  143.5380 C   0  0  0  0  0  2  0  0  0  0  0  0
  190.0600  174.8830  142.1290 C   0  0  2  0  0  3  0  0  0  0  0  0
  188.0170  175.7100  143.3770 C   0  0  0  0  0  2  0  0  0  0  0  0
  188.8890  175.8890  142.1230 C   0  0  1  0  0  3  0  0  0  0  0  0
  188.2500  177.9910  141.6480 C   0  0  0  0  0  2  0  0  0  0  0  0
  185.9830  176.7620  144.8330 Cl  0  0  0  0  0  0  0  0  0  0  0  0
  187.1400  178.0030  142.7120 C   0  0  0  0  0  2  0  0  0  0  0  0
  187.4470  177.0450  143.8660 C   0  0  2  0  0  3  0  0  0  0  0  0
  189.3550  177.2150  142.0500 O   0  0  0  0  0  0  0  0  0  0  0  0
  189.2320  173.7040  138.8610 C   0  0  0  0  0  2  0  0  0  0  0  0
  190.6840  173.3160  138.9370 C   0  0  0  0  0  2  0  0  0  0  0  0
  188.7850  173.8670  140.3000 C   0  0  0  0  0  2  0  0  0  0  0  0
  189.9660  173.7720  141.1630 N   0  0  0  0  0  0  0  0  0  0  0  0
  191.1330  173.7990  140.2940 C   0  0  0  0  0  2  0  0  0  0  0  0
  1 12  2  0  0  0  0
  1 13  1  0  0  0  0
  2 14  1  0  0  0  0
  3  1  1  0  0  0  0
  3 11  1  0  0  0  0
  4  9  1  0  0  0  0
  4  7  1  0  0  0  0
  5 16  1  0  0  0  0
  5  2  2  0  0  0  0
  6 13  1  0  0  0  0
  6  8  1  0  0  0  0
  8  4  1  0  0  0  0
  9  7  1  0  0  0  0
 10  2  1  0  0  0  0
 11  8  2  0  0  0  0
 12  5  1  0  0  0  0
 13 10  2  0  0  0  0
 14 15  1  0  0  0  0
 16 17  1  0  0  0  0
 17 21  1  0  0  0  0
 19 18  1  0  0  0  0
 19 20  1  0  0  0  0
 21 19  2  0  0  0  0
 22 12  1  0  0  0  0
 23 22  1  1  0  0  0
 24 29  1  0  0  0  0
 25 23  1  1  0  0  0
 25 24  1  0  0  0  0
 26 30  1  0  0  0  0
 26 28  1  0  0  0  0
 28 29  1  0  0  0  0
 29 27  1  6  0  0  0
 30 25  1  0  0  0  0
 31 32  1  0  0  0  0
 31 33  1  0  0  0  0
 32 35  1  0  0  0  0
 33 34  1  0  0  0  0
 34 23  1  0  0  0  0
 35 34  1  0  0  0  0
M  END
>  <MODEL>
6

>  <REMARK>
 VINA RESULT:      -6.8      2.921      4.327
  Name = 
  8 active torsions:
  status: ('A' for Active; 'I' for Inactive)
    1  A    between atoms: CA_4  and  C_10
    2  A    between atoms: C_5  and  C_18
    3  A    between atoms: C_8  and  N_25
    4  A    between atoms: C_18  and  N_27
    5  A    between atoms: C_18  and  C_28
    6  A    between atoms: N_22  and  C_35
    7  A    between atoms: N_25  and  C_35
    8  A    between atoms: C_28  and  C_32
                            x       y       z     vdW  Elec       q    Type
                         _______ _______ _______ _____ _____    ______ ____

>  <TORSDO>
F 8

$$$$
=
 OpenBabel11042416583D

 35 39  0  0  1  0  0  0  0  0999 V2000
  189.0010  174.1100  141.1760 C   0  0  0  0  0  0  0  0  0  0  0  0
  187.4410  176.4150  141.0540 C   0  0  0  0  0  0  0  0  0  0  0  0
  189.9660  172.9550  141.1200 C   0  0  0  0  0  2  0  0  0  0  0  0
  191.3980  173.7250  137.7720 N   0  0  0  0  0  0  0  0  0  0  0  0
  187.9810  176.0100  142.3040 C   0  0  0  0  0  0  0  0  0  0  0  0
  188.6960  173.5870  138.4760 S   0  0  0  0  0  0  0  0  0  0  0  0
  192.7870  173.8690  137.2490 C   0  0  0  0  0  2  0  0  0  0  0  0
  190.4630  173.4410  138.8050 C   0  0  0  0  0  0  0  0  0  0  0  0
  191.7490  174.1090  136.3740 C   0  0  0  0  0  2  0  0  0  0  0  0
  187.6820  175.6720  139.9410 N   0  0  0  0  0  0  0  0  0  0  0  0
  190.8870  173.1440  139.9980 N   0  0  0  0  0  0  0  0  0  0  0  0
  188.7650  174.8380  142.3540 C   0  0  0  0  0  0  0  0  0  0  0  0
  188.4190  174.5360  139.9780 C   0  0  0  0  0  0  0  0  0  0  0  0
  186.6650  177.6760  140.8800 C   0  0  0  0  0  2  0  0  0  0  0  0
  185.8370  177.5680  139.7630 O   0  0  0  0  0  1  0  0  0  0  0  0
  187.7790  176.7470  143.5240 N   0  0  0  0  0  2  0  0  0  0  0  0
  186.5620  176.7910  144.3180 C   0  0  0  0  0  2  0  0  0  0  0  0
  185.9410  179.2850  147.0600 C   0  0  0  0  0  1  0  0  0  0  0  0
  185.8290  178.0640  146.2160 C   0  0  0  0  0  0  0  0  0  0  0  0
  184.8160  177.0240  146.5860 C   0  0  0  0  0  1  0  0  0  0  0  0
  186.6010  177.9360  145.1920 N   0  0  0  0  0  0  0  0  0  0  0  0
  189.3540  174.3840  143.6660 C   0  0  0  0  0  2  0  0  0  0  0  0
  190.5710  175.2100  144.1210 C   0  0  2  0  0  3  0  0  0  0  0  0
  192.5550  175.7460  142.6400 C   0  0  0  0  0  2  0  0  0  0  0  0
  191.9070  174.6890  143.5510 C   0  0  1  0  0  3  0  0  0  0  0  0
  193.7790  173.5210  143.9800 C   0  0  0  0  0  2  0  0  0  0  0  0
  194.7950  176.4160  141.2630 Cl  0  0  0  0  0  0  0  0  0  0  0  0
  194.6220  174.2990  142.9560 C   0  0  0  0  0  2  0  0  0  0  0  0
  194.0830  175.7140  142.7320 C   0  0  2  0  0  3  0  0  0  0  0  0
  192.7990  174.3340  144.5800 O   0  0  0  0  0  0  0  0  0  0  0  0
  189.4220  177.1550  146.8860 C   0  0  0  0  0  2  0  0  0  0  0  0
  188.8920  175.7980  147.2630 C   0  0  0  0  0  2  0  0  0  0  0  0
  190.5440  176.8900  145.9030 C   0  0  0  0  0  2  0  0  0  0  0  0
  190.5400  175.4620  145.5740 N   0  0  0  0  0  0  0  0  0  0  0  0
  189.3160  174.9010  146.1270 C   0  0  0  0  0  2  0  0  0  0  0  0
  1 12  1  0  0  0  0
  2  5  1  0  0  0  0
  3  1  1  0  0  0  0
  4  8  1  0  0  0  0
  5 12  2  0  0  0  0
  5 16  1  0  0  0  0
  6  8  1  0  0  0  0
  6 13  1  0  0  0  0
  7  4  1  0  0  0  0
  8 11  2  0  0  0  0
  9  7  1  0  0  0  0
  9  4  1  0  0  0  0
 10 13  1  0  0  0  0
 10  2  2  0  0  0  0
 11  3  1  0  0  0  0
 12 22  1  0  0  0  0
 13  1  2  0  0  0  0
 14  2  1  0  0  0  0
 15 14  1  0  0  0  0
 16 17  1  0  0  0  0
 17 21  1  0  0  0  0
 19 20  1  0  0  0  0
 19 18  1  0  0  0  0
 21 19  2  0  0  0  0
 23 22  1  1  0  0  0
 23 34  1  0  0  0  0
 24 29  1  0  0  0  0
 24 25  1  0  0  0  0
 25 23  1  1  0  0  0
 25 30  1  0  0  0  0
 26 30  1  0  0  0  0
 28 26  1  0  0  0  0
 29 27  1  6  0  0  0
 29 28  1  0  0  0  0
 31 32  1  0  0  0  0
 33 31  1  0  0  0  0
 34 33  1  0  0  0  0
 34 35  1  0  0  0  0
 35 32  1  0  0  0  0
M  END
>  <MODEL>
7

>  <REMARK>
 VINA RESULT:      -6.7      3.394      6.202
  Name = 
  8 active torsions:
  status: ('A' for Active; 'I' for Inactive)
    1  A    between atoms: CA_4  and  C_10
    2  A    between atoms: C_5  and  C_18
    3  A    between atoms: C_8  and  N_25
    4  A    between atoms: C_18  and  N_27
    5  A    between atoms: C_18  and  C_28
    6  A    between atoms: N_22  and  C_35
    7  A    between atoms: N_25  and  C_35
    8  A    between atoms: C_28  and  C_32
                            x       y       z     vdW  Elec       q    Type
                         _______ _______ _______ _____ _____    ______ ____

>  <TORSDO>
F 8

$$$$
=
 OpenBabel11042416583D

 35 39  0  0  1  0  0  0  0  0999 V2000
  188.8020  176.8680  141.9460 C   0  0  0  0  0  0  0  0  0  0  0  0
  188.4700  174.1600  141.3840 C   0  0  0  0  0  0  0  0  0  0  0  0
  188.8240  178.3140  142.3640 C   0  0  0  0  0  2  0  0  0  0  0  0
  185.1960  178.6180  143.1360 N   0  0  0  0  0  0  0  0  0  0  0  0
  189.6670  174.5940  142.0140 C   0  0  0  0  0  0  0  0  0  0  0  0
  186.3620  177.5470  140.8320 S   0  0  0  0  0  0  0  0  0  0  0  0
  184.4270  179.1230  144.3100 C   0  0  0  0  0  2  0  0  0  0  0  0
  186.4090  178.3630  142.4390 C   0  0  0  0  0  0  0  0  0  0  0  0
  183.7100  178.5870  143.2620 C   0  0  0  0  0  2  0  0  0  0  0  0
  187.5120  175.0660  141.0550 N   0  0  0  0  0  0  0  0  0  0  0  0
  187.5490  178.6600  142.9920 N   0  0  0  0  0  0  0  0  0  0  0  0
  189.8250  175.9690  142.2890 C   0  0  0  0  0  0  0  0  0  0  0  0
  187.6580  176.3910  141.2980 C   0  0  0  0  0  0  0  0  0  0  0  0
  188.1720  172.7240  141.1200 C   0  0  0  0  0  2  0  0  0  0  0  0
  187.9630  172.5300  139.7550 O   0  0  0  0  0  1  0  0  0  0  0  0
  190.7230  173.6950  142.4010 N   0  0  0  0  0  2  0  0  0  0  0  0
  191.8070  173.2190  141.5560 C   0  0  0  0  0  2  0  0  0  0  0  0
  191.2650  173.6130  137.8580 C   0  0  0  0  0  1  0  0  0  0  0  0
  191.4270  172.9850  139.1980 C   0  0  0  0  0  0  0  0  0  0  0  0
  191.3410  171.4940  139.3090 C   0  0  0  0  0  1  0  0  0  0  0  0
  191.6380  173.7380  140.2230 N   0  0  0  0  0  0  0  0  0  0  0  0
  191.0830  176.4600  142.9590 C   0  0  0  0  0  2  0  0  0  0  0  0
  191.0210  176.4330  144.4970 C   0  0  2  0  0  3  0  0  0  0  0  0
  193.3840  175.6240  144.0790 C   0  0  0  0  0  2  0  0  0  0  0  0
  192.3160  175.9050  145.1490 C   0  0  1  0  0  3  0  0  0  0  0  0
  193.7230  176.0850  146.8920 C   0  0  0  0  0  2  0  0  0  0  0  0
  195.9910  175.0000  143.6560 Cl  0  0  0  0  0  0  0  0  0  0  0  0
  194.9460  175.6150  146.0860 C   0  0  0  0  0  2  0  0  0  0  0  0
  194.7950  175.9210  144.5940 C   0  0  2  0  0  3  0  0  0  0  0  0
  192.8180  176.8150  146.0980 O   0  0  0  0  0  0  0  0  0  0  0  0
  189.1670  174.8200  147.0880 C   0  0  0  0  0  2  0  0  0  0  0  0
  188.3220  176.0450  146.8630 C   0  0  0  0  0  2  0  0  0  0  0  0
  189.9780  174.6540  145.8190 C   0  0  0  0  0  2  0  0  0  0  0  0
  189.7610  175.8330  144.9760 N   0  0  0  0  0  0  0  0  0  0  0  0
  189.0470  176.8100  145.7840 C   0  0  0  0  0  2  0  0  0  0  0  0
  1 12  1  0  0  0  0
  1  3  1  0  0  0  0
  2  5  1  0  0  0  0
  3 11  1  0  0  0  0
  4  9  1  0  0  0  0
  4  7  1  0  0  0  0
  5 12  2  0  0  0  0
  5 16  1  0  0  0  0
  6 13  1  0  0  0  0
  6  8  1  0  0  0  0
  8 11  2  0  0  0  0
  8  4  1  0  0  0  0
  9  7  1  0  0  0  0
 10 13  1  0  0  0  0
 10  2  2  0  0  0  0
 12 22  1  0  0  0  0
 13  1  2  0  0  0  0
 14  2  1  0  0  0  0
 15 14  1  0  0  0  0
 17 16  1  0  0  0  0
 18 19  1  0  0  0  0
 19 20  1  0  0  0  0
 19 21  2  0  0  0  0
 21 17  1  0  0  0  0
 23 22  1  6  0  0  0
 23 34  1  0  0  0  0
 24 29  1  0  0  0  0
 24 25  1  0  0  0  0
 25 23  1  6  0  0  0
 25 30  1  0  0  0  0
 28 26  1  0  0  0  0
 29 27  1  6  0  0  0
 29 28  1  0  0  0  0
 30 26  1  0  0  0  0
 32 31  1  0  0  0  0
 33 31  1  0  0  0  0
 34 35  1  0  0  0  0
 34 33  1  0  0  0  0
 35 32  1  0  0  0  0
M  END
>  <MODEL>
8

>  <REMARK>
 VINA RESULT:      -6.6      3.418      7.930
  Name = 
  8 active torsions:
  status: ('A' for Active; 'I' for Inactive)
    1  A    between atoms: CA_4  and  C_10
    2  A    between atoms: C_5  and  C_18
    3  A    between atoms: C_8  and  N_25
    4  A    between atoms: C_18  and  N_27
    5  A    between atoms: C_18  and  C_28
    6  A    between atoms: N_22  and  C_35
    7  A    between atoms: N_25  and  C_35
    8  A    between atoms: C_28  and  C_32
                            x       y       z     vdW  Elec       q    Type
                         _______ _______ _______ _____ _____    ______ ____

>  <TORSDO>
F 8

$$$$
=
 OpenBabel11042416583D

 35 39  0  0  1  0  0  0  0  0999 V2000
  189.2030  174.1540  141.6680 C   0  0  0  0  0  0  0  0  0  0  0  0
  187.7120  176.5070  141.6220 C   0  0  0  0  0  0  0  0  0  0  0  0
  190.1200  172.9660  141.5550 C   0  0  0  0  0  2  0  0  0  0  0  0
  191.2260  173.5770  138.0540 N   0  0  0  0  0  0  0  0  0  0  0  0
  188.3630  176.1240  142.8240 C   0  0  0  0  0  0  0  0  0  0  0  0
  188.6080  173.5550  139.0320 S   0  0  0  0  0  0  0  0  0  0  0  0
  192.5580  173.6550  137.3880 C   0  0  0  0  0  2  0  0  0  0  0  0
  190.3930  173.3600  139.1860 C   0  0  0  0  0  0  0  0  0  0  0  0
  191.4440  173.9040  136.6150 C   0  0  0  0  0  2  0  0  0  0  0  0
  187.8140  175.7210  140.5170 N   0  0  0  0  0  0  0  0  0  0  0  0
  190.9270  173.0860  140.3400 N   0  0  0  0  0  0  0  0  0  0  0  0
  189.1120  174.9280  142.8360 C   0  0  0  0  0  0  0  0  0  0  0  0
  188.5150  174.5610  140.5190 C   0  0  0  0  0  0  0  0  0  0  0  0
  186.9620  177.7880  141.4820 C   0  0  0  0  0  2  0  0  0  0  0  0
  185.5960  177.5520  141.6320 O   0  0  0  0  0  1  0  0  0  0  0  0
  188.3110  176.9070  144.0320 N   0  0  0  0  0  2  0  0  0  0  0  0
  187.3150  176.8050  145.0860 C   0  0  0  0  0  2  0  0  0  0  0  0
  184.3060  179.0400  145.3620 C   0  0  0  0  0  1  0  0  0  0  0  0
  185.2330  177.8940  145.5740 C   0  0  0  0  0  0  0  0  0  0  0  0
  184.8240  176.8020  146.5130 C   0  0  0  0  0  1  0  0  0  0  0  0
  186.3570  177.8720  144.9440 N   0  0  0  0  0  0  0  0  0  0  0  0
  189.8170  174.4960  144.0970 C   0  0  0  0  0  2  0  0  0  0  0  0
  191.1050  175.2860  144.3910 C   0  0  2  0  0  3  0  0  0  0  0  0
  192.1050  172.9680  144.5950 C   0  0  0  0  0  2  0  0  0  0  0  0
  192.3860  174.4380  144.2420 C   0  0  1  0  0  3  0  0  0  0  0  0
  194.2390  174.0720  143.0240 C   0  0  0  0  0  2  0  0  0  0  0  0
  193.1110  170.4470  144.5680 Cl  0  0  0  0  0  0  0  0  0  0  0  0
  194.3160  172.5820  143.3990 C   0  0  0  0  0  2  0  0  0  0  0  0
  192.9380  172.0100  143.7390 C   0  0  2  0  0  3  0  0  0  0  0  0
  192.9080  174.5250  142.9380 O   0  0  0  0  0  0  0  0  0  0  0  0
  191.1890  175.4330  147.9590 C   0  0  0  0  0  2  0  0  0  0  0  0
  192.2660  176.4250  147.6150 C   0  0  0  0  0  2  0  0  0  0  0  0
  190.3290  175.3260  146.7150 C   0  0  0  0  0  2  0  0  0  0  0  0
  190.9860  176.0690  145.6360 N   0  0  0  0  0  0  0  0  0  0  0  0
  192.3190  176.4160  146.1070 C   0  0  0  0  0  2  0  0  0  0  0  0
  1 12  1  0  0  0  0
  2  5  1  0  0  0  0
  3  1  1  0  0  0  0
  4  8  1  0  0  0  0
  5 12  2  0  0  0  0
  5 16  1  0  0  0  0
  6  8  1  0  0  0  0
  6 13  1  0  0  0  0
  7  4  1  0  0  0  0
  8 11  2  0  0  0  0
  9  7  1  0  0  0  0
  9  4  1  0  0  0  0
 10 13  1  0  0  0  0
 10  2  2  0  0  0  0
 11  3  1  0  0  0  0
 12 22  1  0  0  0  0
 13  1  2  0  0  0  0
 14  2  1  0  0  0  0
 14 15  1  0  0  0  0
 16 17  1  0  0  0  0
 18 19  1  0  0  0  0
 19 20  1  0  0  0  0
 21 17  1  0  0  0  0
 21 19  2  0  0  0  0
 23 22  1  1  0  0  0
 23 34  1  0  0  0  0
 25 23  1  6  0  0  0
 25 24  1  0  0  0  0
 26 28  1  0  0  0  0
 28 29  1  0  0  0  0
 29 27  1  1  0  0  0
 29 24  1  0  0  0  0
 30 26  1  0  0  0  0
 30 25  1  0  0  0  0
 32 31  1  0  0  0  0
 33 31  1  0  0  0  0
 34 35  1  0  0  0  0
 34 33  1  0  0  0  0
 35 32  1  0  0  0  0
M  END
>  <MODEL>
9

>  <REMARK>
 VINA RESULT:      -6.6      3.557      6.233
  Name = 
  8 active torsions:
  status: ('A' for Active; 'I' for Inactive)
    1  A    between atoms: CA_4  and  C_10
    2  A    between atoms: C_5  and  C_18
    3  A    between atoms: C_8  and  N_25
    4  A    between atoms: C_18  and  N_27
    5  A    between atoms: C_18  and  C_28
    6  A    between atoms: N_22  and  C_35
    7  A    between atoms: N_25  and  C_35
    8  A    between atoms: C_28  and  C_32
                            x       y       z     vdW  Elec       q    Type
                         _______ _______ _______ _____ _____    ______ ____

>  <TORSDO>
F 8

$$$$
