=
 OpenBabel11042415233D

 51 57  0  0  1  0  0  0  0  0999 V2000
  193.0730  174.1490  146.0240 C   0  0  0  0  0  2  0  0  0  0  0  0
  191.9910  175.1590  142.6220 C   0  0  0  0  0  0  0  0  0  0  0  0
  193.4110  172.9130  145.2020 C   0  0  1  0  0  3  0  0  0  0  0  0
  192.4130  174.5440  143.7540 C   0  0  0  0  0  0  0  0  0  0  0  0
  193.1480  173.2480  143.7440 C   0  0  0  0  0  2  0  0  0  0  0  0
  192.2540  175.0710  145.1380 C   0  0  1  0  0  3  0  0  0  0  0  0
  192.5750  172.7970  139.0710 C   0  0  1  0  0  0  0  0  0  0  0  0
  193.2190  174.6740  140.5850 C   0  0  0  0  0  3  0  0  0  0  0  0
  192.7890  172.0600  137.8210 C   0  0  1  0  0  3  0  0  0  0  0  0
  193.4020  171.5650  139.0970 N   0  0  0  0  0  0  0  0  0  0  0  0
  192.1160  174.4700  141.3220 C   0  0  0  0  0  0  0  0  0  0  0  0
  191.0520  173.5380  140.8620 C   0  0  0  0  0  0  0  0  0  0  0  0
  193.4050  174.0660  139.2220 C   0  0  0  0  0  2  0  0  0  0  0  0
  191.2430  172.7630  139.7930 C   0  0  0  0  0  3  0  0  0  0  0  0
  189.7350  173.4790  141.5580 C   0  0  0  0  0  1  0  0  0  0  0  0
  191.5370  171.3000  137.3360 C   0  0  0  0  0  2  0  0  0  0  0  0
  191.2160  170.1750  135.0960 C   0  0  0  0  0  1  0  0  0  0  0  0
  191.2650  171.5020  135.8420 C   0  0  1  0  0  3  0  0  0  0  0  0
  190.0350  172.3720  135.5550 C   0  0  0  0  0  0  0  0  0  0  0  0
  189.6560  174.2790  136.4440 C   0  0  0  0  0  2  0  0  0  0  0  0
  189.1520  171.8160  134.6270 O   0  0  0  0  0  1  0  0  0  0  0  0
  189.3180  172.8430  136.8030 C   0  0  0  0  0  2  0  0  0  0  0  0
  190.3850  173.8020  135.2000 C   0  0  0  0  0  2  0  0  0  0  0  0
  192.6950  170.4040  139.6500 C   0  0  0  0  0  2  0  0  0  0  0  0
  194.7500  170.5610  141.0130 C   0  0  0  0  0  1  0  0  0  0  0  0
  192.6240  170.2930  142.0360 O   0  0  0  0  0  1  0  0  0  0  0  0
  193.3780  169.9260  140.9210 C   0  0  1  0  0  3  0  0  0  0  0  0
  190.9740  176.8290  147.1240 O   0  0  0  0  0  0  0  0  0  0  0  0
  190.8500  175.0880  145.5570 N   0  0  0  0  0  2  0  0  0  0  0  0
  190.2660  175.9790  146.5190 C   0  0  0  0  0  0  0  0  0  0  0  0
  187.9880  176.8470  146.4130 C   0  0  0  0  0  3  0  0  0  0  0  0
  188.8350  175.9080  146.8210 C   0  0  0  0  0  3  0  0  0  0  0  0
  186.5330  176.7540  146.7420 C   0  0  0  0  0  2  0  0  0  0  0  0
  185.7440  177.9480  146.2090 C   0  0  0  0  0  0  0  0  0  0  0  0
  184.5080  178.2240  147.0440 C   0  0  0  0  0  2  0  0  0  0  0  0
  185.7020  179.1660  147.1090 C   0  0  0  0  0  2  0  0  0  0  0  0
  186.5590  179.0230  144.1990 F   0  0  0  0  0  0  0  0  0  0  0  0
  185.6300  176.8810  143.9280 C   0  0  0  0  0  1  0  0  0  0  0  0
  184.2250  178.8550  144.4220 C   0  0  0  0  0  1  0  0  0  0  0  0
  185.5640  178.1930  144.6930 C   0  0  0  0  0  0  0  0  0  0  0  0
  191.4330  176.4480  142.5910 O   0  0  0  0  0  0  0  0  0  0  0  0
  190.0460  176.7420  142.6730 C   0  0  0  0  0  1  0  0  0  0  0  0
  194.8120  172.5640  145.3920 N   0  0  0  0  0  2  0  0  0  0  0  0
  195.0890  169.3870  147.3450 C   0  0  0  0  0  2  0  0  0  0  0  0
  195.5040  169.5190  145.9000 C   0  0  0  0  0  0  0  0  0  0  0  0
  196.8830  169.6160  145.6510 O   0  0  0  0  0  0  0  0  0  0  0  0
  194.5400  170.1560  144.9100 C   0  0  0  0  0  2  0  0  0  0  0  0
  196.5220  171.4050  144.2220 O   0  0  0  0  0  0  0  0  0  0  0  0
  197.1500  170.9760  145.4120 C   0  0  0  0  0  2  0  0  0  0  0  0
  195.0800  168.1710  146.4240 C   0  0  0  0  0  2  0  0  0  0  0  0
  195.1280  171.4910  144.4510 C   0  0  2  0  0  3  0  0  0  0  0  0
  2  4  2  0  0  0  0
  3 43  1  6  0  0  0
  3  1  1  0  0  0  0
  4  6  1  0  0  0  0
  5  4  1  0  0  0  0
  5  3  1  0  0  0  0
  6 29  1  1  0  0  0
  6  1  1  0  0  0  0
  7 10  1  0  0  0  0
  7 13  1  1  0  0  0
  7 14  1  0  0  0  0
  8 11  2  0  0  0  0
  9 16  1  1  0  0  0
  9  7  1  0  0  0  0
  9 10  1  0  0  0  0
 10 24  1  0  0  0  0
 11  2  1  0  0  0  0
 12 11  1  0  0  0  0
 12 15  1  0  0  0  0
 13  8  1  0  0  0  0
 14 12  2  0  0  0  0
 18 17  1  6  0  0  0
 18 16  1  0  0  0  0
 19 18  1  0  0  0  0
 19 22  1  0  0  0  0
 20 22  1  0  0  0  0
 21 19  1  0  0  0  0
 23 19  1  0  0  0  0
 23 20  1  0  0  0  0
 24 27  1  0  0  0  0
 27 25  1  1  0  0  0
 27 26  1  0  0  0  0
 29 30  1  0  0  0  0
 30 32  1  0  0  0  0
 30 28  2  0  0  0  0
 31 33  1  0  0  0  0
 31 32  2  0  0  0  0
 34 33  1  0  0  0  0
 34 35  1  0  0  0  0
 34 36  1  0  0  0  0
 35 36  1  0  0  0  0
 37 40  1  0  0  0  0
 38 40  1  0  0  0  0
 39 40  1  0  0  0  0
 40 34  1  0  0  0  0
 41  2  1  0  0  0  0
 41 42  1  0  0  0  0
 45 50  1  0  0  0  0
 45 44  1  0  0  0  0
 46 45  1  0  0  0  0
 47 45  1  0  0  0  0
 48 51  1  0  0  0  0
 48 49  1  0  0  0  0
 49 46  1  0  0  0  0
 50 44  1  0  0  0  0
 51 47  1  0  0  0  0
 51 43  1  1  0  0  0
M  END
>  <MODEL>
1

>  <REMARK>
 VINA RESULT:      -6.8      0.000      0.000
  Name = 
  14 active torsions:
  status: ('A' for Active; 'I' for Inactive)
    1  A    between atoms: C_9  and  C_15
    2  A    between atoms: C_9  and  C_22
    3  A    between atoms: C_10  and  C_12
    4  A    between atoms: C_10  and  C_27
    5  A    between atoms: C_11  and  O_14
    6  A    between atoms: C_11  and  C_31
    7  A    between atoms: C_15  and  C_37
    8  A    between atoms: C_17  and  C_27
    9  A    between atoms: N_19  and  C_23
   10  A    between atoms: N_19  and  C_44
   11  A    between atoms: N_29  and  C_38
   12  A    between atoms: C_35  and  C_50
   13  A    between atoms: C_38  and  C_45
   14  A    between atoms: N_43  and  C_47
                            x       y       z     vdW  Elec       q    Type
                         _______ _______ _______ _____ _____    ______ ____

>  <TORSDO>
F 14

$$$$
=
 OpenBabel11042415233D

 51 57  0  0  1  0  0  0  0  0999 V2000
  194.5610  173.7360  140.9590 C   0  0  0  0  0  2  0  0  0  0  0  0
  193.3810  176.1280  143.5380 C   0  0  0  0  0  0  0  0  0  0  0  0
  193.0490  173.5910  140.8600 C   0  0  1  0  0  3  0  0  0  0  0  0
  193.5530  175.1750  142.5890 C   0  0  0  0  0  0  0  0  0  0  0  0
  192.4290  174.6340  141.7750 C   0  0  0  0  0  2  0  0  0  0  0  0
  194.8560  174.5710  142.1930 C   0  0  1  0  0  3  0  0  0  0  0  0
  189.2550  177.1370  144.2320 C   0  0  1  0  0  0  0  0  0  0  0  0
  191.5350  177.6970  143.3850 C   0  0  0  0  0  3  0  0  0  0  0  0
  187.8730  177.5550  144.4920 C   0  0  1  0  0  3  0  0  0  0  0  0
  188.2050  176.8000  143.2390 N   0  0  0  0  0  0  0  0  0  0  0  0
  192.0190  176.5590  143.9070 C   0  0  0  0  0  0  0  0  0  0  0  0
  191.1860  175.7200  144.8120 C   0  0  0  0  0  0  0  0  0  0  0  0
  190.1840  178.2460  143.7520 C   0  0  0  0  0  2  0  0  0  0  0  0
  189.8930  175.9930  144.9940 C   0  0  0  0  0  3  0  0  0  0  0  0
  191.7880  174.5850  145.5690 C   0  0  0  0  0  1  0  0  0  0  0  0
  187.1860  176.7390  145.6060 C   0  0  0  0  0  2  0  0  0  0  0  0
  188.2360  178.1620  147.4120 C   0  0  0  0  0  1  0  0  0  0  0  0
  186.9440  177.5620  146.8760 C   0  0  1  0  0  3  0  0  0  0  0  0
  185.8380  178.6140  146.7220 C   0  0  0  0  0  0  0  0  0  0  0  0
  184.3470  178.6020  145.1900 C   0  0  0  0  0  2  0  0  0  0  0  0
  185.8670  179.6120  147.6980 O   0  0  0  0  0  1  0  0  0  0  0  0
  185.7380  179.1930  145.3270 C   0  0  0  0  0  2  0  0  0  0  0  0
  184.4550  178.0120  146.5860 C   0  0  0  0  0  2  0  0  0  0  0  0
  187.7830  175.3950  143.2960 C   0  0  0  0  0  2  0  0  0  0  0  0
  188.1930  175.7690  140.8880 C   0  0  0  0  0  1  0  0  0  0  0  0
  189.2040  173.9500  142.0310 O   0  0  0  0  0  1  0  0  0  0  0  0
  188.0380  174.7130  141.9620 C   0  0  1  0  0  3  0  0  0  0  0  0
  197.6950  174.0850  142.8010 O   0  0  0  0  0  0  0  0  0  0  0  0
  195.4210  173.7440  143.2610 N   0  0  0  0  0  2  0  0  0  0  0  0
  196.8180  173.5510  143.5320 C   0  0  0  0  0  0  0  0  0  0  0  0
  196.3740  172.0430  145.3980 C   0  0  0  0  0  3  0  0  0  0  0  0
  197.2460  172.7200  144.6580 C   0  0  0  0  0  3  0  0  0  0  0  0
  196.8370  171.2080  146.5470 C   0  0  0  0  0  2  0  0  0  0  0  0
  196.4110  169.7480  146.4090 C   0  0  0  0  0  0  0  0  0  0  0  0
  197.4920  168.9050  145.7590 C   0  0  0  0  0  2  0  0  0  0  0  0
  197.1900  168.7510  147.2430 C   0  0  0  0  0  2  0  0  0  0  0  0
  194.0900  170.4080  146.2240 F   0  0  0  0  0  0  0  0  0  0  0  0
  194.8980  168.9710  144.5490 C   0  0  0  0  0  1  0  0  0  0  0  0
  194.4970  168.1810  146.8580 C   0  0  0  0  0  1  0  0  0  0  0  0
  194.9680  169.3550  146.0180 C   0  0  0  0  0  0  0  0  0  0  0  0
  194.4380  176.7630  144.2110 O   0  0  0  0  0  0  0  0  0  0  0  0
  194.9320  176.3950  145.4910 C   0  0  0  0  0  1  0  0  0  0  0  0
  192.6220  173.8110  139.4860 N   0  0  0  0  0  2  0  0  0  0  0  0
  190.4240  174.2660  136.4950 C   0  0  0  0  0  2  0  0  0  0  0  0
  190.7960  172.9180  137.0620 C   0  0  0  0  0  0  0  0  0  0  0  0
  189.8120  172.2650  137.8240 O   0  0  0  0  0  0  0  0  0  0  0  0
  192.2590  172.6170  137.3540 C   0  0  0  0  0  2  0  0  0  0  0  0
  191.3700  171.7940  139.4740 O   0  0  0  0  0  0  0  0  0  0  0  0
  190.1610  172.4580  139.1730 C   0  0  0  0  0  2  0  0  0  0  0  0
  190.4480  173.0300  135.6000 C   0  0  0  0  0  2  0  0  0  0  0  0
  192.4370  172.5000  138.8690 C   0  0  2  0  0  3  0  0  0  0  0  0
  1  6  1  0  0  0  0
  2 11  1  0  0  0  0
  2 41  1  0  0  0  0
  3 43  1  6  0  0  0
  3  1  1  0  0  0  0
  3  5  1  0  0  0  0
  4  2  2  0  0  0  0
  5  4  1  0  0  0  0
  6  4  1  0  0  0  0
  6 29  1  1  0  0  0
  7 13  1  6  0  0  0
  7  9  1  0  0  0  0
  7 14  1  0  0  0  0
  8 13  1  0  0  0  0
  8 11  2  0  0  0  0
  9 16  1  1  0  0  0
 10 24  1  0  0  0  0
 10  7  1  0  0  0  0
 10  9  1  0  0  0  0
 11 12  1  0  0  0  0
 12 14  2  0  0  0  0
 12 15  1  0  0  0  0
 16 18  1  0  0  0  0
 18 17  1  6  0  0  0
 19 18  1  0  0  0  0
 19 21  1  0  0  0  0
 20 22  1  0  0  0  0
 20 23  1  0  0  0  0
 22 19  1  0  0  0  0
 23 19  1  0  0  0  0
 27 25  1  6  0  0  0
 27 26  1  0  0  0  0
 27 24  1  0  0  0  0
 28 30  2  0  0  0  0
 29 30  1  0  0  0  0
 30 32  1  0  0  0  0
 31 33  1  0  0  0  0
 32 31  2  0  0  0  0
 34 33  1  0  0  0  0
 34 36  1  0  0  0  0
 35 34  1  0  0  0  0
 35 36  1  0  0  0  0
 38 40  1  0  0  0  0
 40 37  1  0  0  0  0
 40 34  1  0  0  0  0
 40 39  1  0  0  0  0
 41 42  1  0  0  0  0
 44 45  1  0  0  0  0
 45 47  1  0  0  0  0
 45 46  1  0  0  0  0
 46 49  1  0  0  0  0
 47 51  1  0  0  0  0
 49 48  1  0  0  0  0
 50 44  1  0  0  0  0
 50 45  1  0  0  0  0
 51 48  1  0  0  0  0
 51 43  1  1  0  0  0
M  END
>  <MODEL>
2

>  <REMARK>
 VINA RESULT:      -6.5      2.670      9.666
  Name = 
  14 active torsions:
  status: ('A' for Active; 'I' for Inactive)
    1  A    between atoms: C_9  and  C_15
    2  A    between atoms: C_9  and  C_22
    3  A    between atoms: C_10  and  C_12
    4  A    between atoms: C_10  and  C_27
    5  A    between atoms: C_11  and  O_14
    6  A    between atoms: C_11  and  C_31
    7  A    between atoms: C_15  and  C_37
    8  A    between atoms: C_17  and  C_27
    9  A    between atoms: N_19  and  C_23
   10  A    between atoms: N_19  and  C_44
   11  A    between atoms: N_29  and  C_38
   12  A    between atoms: C_35  and  C_50
   13  A    between atoms: C_38  and  C_45
   14  A    between atoms: N_43  and  C_47
                            x       y       z     vdW  Elec       q    Type
                         _______ _______ _______ _____ _____    ______ ____

>  <TORSDO>
F 14

$$$$
=
 OpenBabel11042415233D

 51 57  0  0  1  0  0  0  0  0999 V2000
  188.3820  175.9810  143.9330 C   0  0  0  0  0  2  0  0  0  0  0  0
  189.9460  173.1140  142.1710 C   0  0  0  0  0  0  0  0  0  0  0  0
  188.1720  176.3510  142.4710 C   0  0  1  0  0  3  0  0  0  0  0  0
  189.3650  174.2730  142.5680 C   0  0  0  0  0  0  0  0  0  0  0  0
  188.6440  175.1780  141.6300 C   0  0  0  0  0  2  0  0  0  0  0  0
  189.3180  174.7850  143.9660 C   0  0  1  0  0  3  0  0  0  0  0  0
  189.8390  172.5070  137.9120 C   0  0  1  0  0  0  0  0  0  0  0  0
  189.1270  171.9110  140.2280 C   0  0  0  0  0  3  0  0  0  0  0  0
  189.8060  172.2210  136.4730 C   0  0  1  0  0  3  0  0  0  0  0  0
  188.8800  173.2470  137.0550 N   0  0  0  0  0  0  0  0  0  0  0  0
  190.0150  172.7820  140.7350 C   0  0  0  0  0  0  0  0  0  0  0  0
  191.0280  173.4330  139.8620 C   0  0  0  0  0  0  0  0  0  0  0  0
  189.1600  171.4660  138.7920 C   0  0  0  0  0  2  0  0  0  0  0  0
  190.9740  173.2950  138.5360 C   0  0  0  0  0  3  0  0  0  0  0  0
  192.1510  174.2190  140.4500 C   0  0  0  0  0  1  0  0  0  0  0  0
  191.0280  172.7720  135.7100 C   0  0  0  0  0  2  0  0  0  0  0  0
  192.0070  170.7730  134.5130 C   0  0  0  0  0  1  0  0  0  0  0  0
  192.1870  171.7720  135.6480 C   0  0  1  0  0  3  0  0  0  0  0  0
  193.5690  172.4370  135.6190 C   0  0  0  0  0  0  0  0  0  0  0  0
  194.2700  173.8560  137.0570 C   0  0  0  0  0  2  0  0  0  0  0  0
  194.3730  172.0250  134.5550 O   0  0  0  0  0  1  0  0  0  0  0  0
  193.5220  173.9450  135.7390 C   0  0  0  0  0  2  0  0  0  0  0  0
  194.3050  172.3410  136.9390 C   0  0  0  0  0  2  0  0  0  0  0  0
  189.3040  174.6220  136.7630 C   0  0  0  0  0  2  0  0  0  0  0  0
  187.1190  175.7730  136.8460 C   0  0  0  0  0  1  0  0  0  0  0  0
  188.8020  176.4570  135.3170 O   0  0  0  0  0  1  0  0  0  0  0  0
  188.2480  175.3360  135.9360 C   0  0  1  0  0  3  0  0  0  0  0  0
  190.1260  175.4400  146.7210 O   0  0  0  0  0  0  0  0  0  0  0  0
  190.6460  175.1740  144.4490 N   0  0  0  0  0  2  0  0  0  0  0  0
  190.9980  175.4670  145.8100 C   0  0  0  0  0  0  0  0  0  0  0  0
  193.3730  174.9460  146.0100 C   0  0  0  0  0  3  0  0  0  0  0  0
  192.3770  175.8120  146.1600 C   0  0  0  0  0  3  0  0  0  0  0  0
  194.7700  175.3220  146.3830 C   0  0  0  0  0  2  0  0  0  0  0  0
  195.7960  174.7980  145.3790 C   0  0  0  0  0  0  0  0  0  0  0  0
  195.2320  174.7480  143.9720 C   0  0  0  0  0  2  0  0  0  0  0  0
  196.2740  175.7940  144.3420 C   0  0  0  0  0  2  0  0  0  0  0  0
  197.2450  173.7660  147.0190 F   0  0  0  0  0  0  0  0  0  0  0  0
  196.0390  172.3020  145.6320 C   0  0  0  0  0  1  0  0  0  0  0  0
  197.9410  173.6320  144.7770 C   0  0  0  0  0  1  0  0  0  0  0  0
  196.7570  173.6380  145.7280 C   0  0  0  0  0  0  0  0  0  0  0  0
  190.4970  172.1710  143.0550 O   0  0  0  0  0  0  0  0  0  0  0  0
  191.7190  171.4760  142.8520 C   0  0  0  0  0  1  0  0  0  0  0  0
  186.7600  176.6090  142.2260 N   0  0  0  0  0  2  0  0  0  0  0  0
  185.1680  177.5760  145.4680 C   0  0  0  0  0  2  0  0  0  0  0  0
  185.3160  178.5160  144.2970 C   0  0  0  0  0  0  0  0  0  0  0  0
  184.1620  178.7520  143.5320 O   0  0  0  0  0  0  0  0  0  0  0  0
  186.6740  178.6450  143.6220 C   0  0  0  0  0  2  0  0  0  0  0  0
  185.3610  178.4130  141.5770 O   0  0  0  0  0  0  0  0  0  0  0  0
  184.2850  177.9630  142.3740 C   0  0  0  0  0  2  0  0  0  0  0  0
  185.2420  179.0840  145.6910 C   0  0  0  0  0  2  0  0  0  0  0  0
  186.5740  178.0580  142.2140 C   0  0  2  0  0  3  0  0  0  0  0  0
  1  6  1  0  0  0  0
  2  4  2  0  0  0  0
  2 41  1  0  0  0  0
  3 43  1  1  0  0  0
  3  1  1  0  0  0  0
  4  6  1  0  0  0  0
  5  3  1  0  0  0  0
  5  4  1  0  0  0  0
  6 29  1  6  0  0  0
  7 14  1  1  0  0  0
  7 13  1  0  0  0  0
  8 11  2  0  0  0  0
  9 16  1  6  0  0  0
  9 10  1  0  0  0  0
  9  7  1  0  0  0  0
 10  7  1  0  0  0  0
 11  2  1  0  0  0  0
 12 15  1  0  0  0  0
 12 11  1  0  0  0  0
 13  8  1  0  0  0  0
 14 12  2  0  0  0  0
 18 17  1  6  0  0  0
 18 16  1  0  0  0  0
 19 18  1  0  0  0  0
 19 22  1  0  0  0  0
 19 23  1  0  0  0  0
 21 19  1  0  0  0  0
 22 20  1  0  0  0  0
 23 20  1  0  0  0  0
 24 10  1  0  0  0  0
 26 27  1  0  0  0  0
 27 24  1  0  0  0  0
 27 25  1  1  0  0  0
 29 30  1  0  0  0  0
 30 32  1  0  0  0  0
 30 28  2  0  0  0  0
 31 32  2  0  0  0  0
 31 33  1  0  0  0  0
 34 40  1  0  0  0  0
 34 33  1  0  0  0  0
 35 36  1  0  0  0  0
 35 34  1  0  0  0  0
 36 34  1  0  0  0  0
 38 40  1  0  0  0  0
 39 40  1  0  0  0  0
 40 37  1  0  0  0  0
 42 41  1  0  0  0  0
 44 50  1  0  0  0  0
 45 44  1  0  0  0  0
 45 50  1  0  0  0  0
 46 45  1  0  0  0  0
 47 45  1  0  0  0  0
 48 51  1  0  0  0  0
 48 49  1  0  0  0  0
 49 46  1  0  0  0  0
 51 43  1  1  0  0  0
 51 47  1  0  0  0  0
M  END
>  <MODEL>
3

>  <REMARK>
 VINA RESULT:      -6.4      3.214      8.221
  Name = 
  14 active torsions:
  status: ('A' for Active; 'I' for Inactive)
    1  A    between atoms: C_9  and  C_15
    2  A    between atoms: C_9  and  C_22
    3  A    between atoms: C_10  and  C_12
    4  A    between atoms: C_10  and  C_27
    5  A    between atoms: C_11  and  O_14
    6  A    between atoms: C_11  and  C_31
    7  A    between atoms: C_15  and  C_37
    8  A    between atoms: C_17  and  C_27
    9  A    between atoms: N_19  and  C_23
   10  A    between atoms: N_19  and  C_44
   11  A    between atoms: N_29  and  C_38
   12  A    between atoms: C_35  and  C_50
   13  A    between atoms: C_38  and  C_45
   14  A    between atoms: N_43  and  C_47
                            x       y       z     vdW  Elec       q    Type
                         _______ _______ _______ _____ _____    ______ ____

>  <TORSDO>
F 14

$$$$
=
 OpenBabel11042415233D

 51 57  0  0  1  0  0  0  0  0999 V2000
  192.8200  175.1710  146.0650 C   0  0  0  0  0  2  0  0  0  0  0  0
  191.1990  175.3170  142.7310 C   0  0  0  0  0  0  0  0  0  0  0  0
  192.8760  173.7170  145.6190 C   0  0  1  0  0  3  0  0  0  0  0  0
  191.7730  174.9960  143.9160 C   0  0  0  0  0  0  0  0  0  0  0  0
  192.3680  173.6580  144.1890 C   0  0  0  0  0  2  0  0  0  0  0  0
  191.9340  175.9130  145.0790 C   0  0  1  0  0  3  0  0  0  0  0  0
  190.4270  172.6240  139.4630 C   0  0  1  0  0  0  0  0  0  0  0  0
  189.8620  173.5710  141.7020 C   0  0  0  0  0  3  0  0  0  0  0  0
  190.1470  171.6500  138.4030 C   0  0  1  0  0  3  0  0  0  0  0  0
  189.6060  173.0440  138.3010 N   0  0  0  0  0  0  0  0  0  0  0  0
  191.0050  174.2760  141.7020 C   0  0  0  0  0  0  0  0  0  0  0  0
  192.0440  174.0460  140.6630 C   0  0  0  0  0  0  0  0  0  0  0  0
  189.6040  172.4500  140.7330 C   0  0  0  0  0  2  0  0  0  0  0  0
  191.7970  173.2550  139.6180 C   0  0  0  0  0  3  0  0  0  0  0  0
  193.3970  174.6600  140.7880 C   0  0  0  0  0  1  0  0  0  0  0  0
  191.3720  171.3370  137.5200 C   0  0  0  0  0  2  0  0  0  0  0  0
  191.4500  168.8310  137.1970 C   0  0  0  0  0  1  0  0  0  0  0  0
  192.0640  170.0270  137.9110 C   0  0  1  0  0  3  0  0  0  0  0  0
  193.5900  170.0710  137.7570 C   0  0  0  0  0  0  0  0  0  0  0  0
  194.8830  171.4180  138.7990 C   0  0  0  0  0  2  0  0  0  0  0  0
  194.0960  169.1250  136.8640 O   0  0  0  0  0  1  0  0  0  0  0  0
  194.1350  171.4560  137.4790 C   0  0  0  0  0  2  0  0  0  0  0  0
  194.3250  170.0330  139.0810 C   0  0  0  0  0  2  0  0  0  0  0  0
  190.3440  173.8680  137.3360 C   0  0  0  0  0  2  0  0  0  0  0  0
  189.3350  173.9090  135.0810 C   0  0  0  0  0  1  0  0  0  0  0  0
  188.0990  174.6080  136.9840 O   0  0  0  0  0  1  0  0  0  0  0  0
  189.3780  174.6060  136.4240 C   0  0  1  0  0  3  0  0  0  0  0  0
  189.7840  174.0860  145.9190 O   0  0  0  0  0  0  0  0  0  0  0  0
  190.6460  176.2550  145.6870 N   0  0  0  0  0  2  0  0  0  0  0  0
  189.6330  175.3240  146.0990 C   0  0  0  0  0  0  0  0  0  0  0  0
  187.3760  176.2480  146.0070 C   0  0  0  0  0  3  0  0  0  0  0  0
  188.4000  175.8030  146.7270 C   0  0  0  0  0  3  0  0  0  0  0  0
  186.1330  176.7390  146.6740 C   0  0  0  0  0  2  0  0  0  0  0  0
  185.6990  178.1080  146.1510 C   0  0  0  0  0  0  0  0  0  0  0  0
  184.4170  178.5800  146.8100 C   0  0  0  0  0  2  0  0  0  0  0  0
  185.7440  179.2410  147.1550 C   0  0  0  0  0  2  0  0  0  0  0  0
  187.1660  178.6520  144.3050 F   0  0  0  0  0  0  0  0  0  0  0  0
  185.2480  177.4030  143.7740 C   0  0  0  0  0  1  0  0  0  0  0  0
  185.1140  179.7960  144.3830 C   0  0  0  0  0  1  0  0  0  0  0  0
  185.8350  178.4890  144.6600 C   0  0  0  0  0  0  0  0  0  0  0  0
  190.7680  176.6120  142.3940 O   0  0  0  0  0  0  0  0  0  0  0  0
  189.4340  177.0850  142.5060 C   0  0  0  0  0  1  0  0  0  0  0  0
  194.2480  173.2350  145.6850 N   0  0  0  0  0  2  0  0  0  0  0  0
  196.6820  172.1060  143.0800 C   0  0  0  0  0  2  0  0  0  0  0  0
  196.8060  173.4090  143.8310 C   0  0  0  0  0  0  0  0  0  0  0  0
  197.7590  173.4500  144.8620 O   0  0  0  0  0  0  0  0  0  0  0  0
  195.5940  174.3250  143.9240 C   0  0  0  0  0  2  0  0  0  0  0  0
  196.2110  174.4280  146.2840 O   0  0  0  0  0  0  0  0  0  0  0  0
  197.0470  173.3110  146.0670 C   0  0  0  0  0  2  0  0  0  0  0  0
  197.4110  173.2920  142.4560 C   0  0  0  0  0  2  0  0  0  0  0  0
  195.1250  174.3630  145.3790 C   0  0  2  0  0  3  0  0  0  0  0  0
  2  4  2  0  0  0  0
  3 43  1  6  0  0  0
  3  1  1  0  0  0  0
  4  5  1  0  0  0  0
  4  6  1  0  0  0  0
  5  3  1  0  0  0  0
  6 29  1  1  0  0  0
  6  1  1  0  0  0  0
  7 14  1  1  0  0  0
  7 13  1  0  0  0  0
  9 16  1  6  0  0  0
  9  7  1  0  0  0  0
 10  9  1  0  0  0  0
 10  7  1  0  0  0  0
 11  8  2  0  0  0  0
 11  2  1  0  0  0  0
 12 15  1  0  0  0  0
 12 11  1  0  0  0  0
 13  8  1  0  0  0  0
 14 12  2  0  0  0  0
 16 18  1  0  0  0  0
 18 17  1  6  0  0  0
 19 18  1  0  0  0  0
 19 23  1  0  0  0  0
 20 23  1  0  0  0  0
 21 19  1  0  0  0  0
 22 19  1  0  0  0  0
 22 20  1  0  0  0  0
 24 10  1  0  0  0  0
 27 25  1  6  0  0  0
 27 26  1  0  0  0  0
 27 24  1  0  0  0  0
 28 30  2  0  0  0  0
 29 30  1  0  0  0  0
 30 32  1  0  0  0  0
 31 33  1  0  0  0  0
 31 32  2  0  0  0  0
 34 33  1  0  0  0  0
 34 35  1  0  0  0  0
 34 36  1  0  0  0  0
 35 36  1  0  0  0  0
 37 40  1  0  0  0  0
 38 40  1  0  0  0  0
 39 40  1  0  0  0  0
 40 34  1  0  0  0  0
 41 42  1  0  0  0  0
 41  2  1  0  0  0  0
 44 45  1  0  0  0  0
 45 47  1  0  0  0  0
 45 46  1  0  0  0  0
 46 49  1  0  0  0  0
 47 51  1  0  0  0  0
 49 48  1  0  0  0  0
 50 44  1  0  0  0  0
 50 45  1  0  0  0  0
 51 43  1  1  0  0  0
 51 48  1  0  0  0  0
M  END
>  <MODEL>
4

>  <REMARK>
 VINA RESULT:      -6.4      2.135      3.630
  Name = 
  14 active torsions:
  status: ('A' for Active; 'I' for Inactive)
    1  A    between atoms: C_9  and  C_15
    2  A    between atoms: C_9  and  C_22
    3  A    between atoms: C_10  and  C_12
    4  A    between atoms: C_10  and  C_27
    5  A    between atoms: C_11  and  O_14
    6  A    between atoms: C_11  and  C_31
    7  A    between atoms: C_15  and  C_37
    8  A    between atoms: C_17  and  C_27
    9  A    between atoms: N_19  and  C_23
   10  A    between atoms: N_19  and  C_44
   11  A    between atoms: N_29  and  C_38
   12  A    between atoms: C_35  and  C_50
   13  A    between atoms: C_38  and  C_45
   14  A    between atoms: N_43  and  C_47
                            x       y       z     vdW  Elec       q    Type
                         _______ _______ _______ _____ _____    ______ ____

>  <TORSDO>
F 14

$$$$
=
 OpenBabel11042415233D

 51 57  0  0  1  0  0  0  0  0999 V2000
  189.1330  177.5320  144.1230 C   0  0  0  0  0  2  0  0  0  0  0  0
  189.5940  174.0700  142.8690 C   0  0  0  0  0  0  0  0  0  0  0  0
  188.8740  177.6950  142.6320 C   0  0  1  0  0  3  0  0  0  0  0  0
  189.4210  175.4010  143.0650 C   0  0  0  0  0  0  0  0  0  0  0  0
  188.8890  176.3090  142.0110 C   0  0  0  0  0  2  0  0  0  0  0  0
  189.6830  176.1320  144.3350 C   0  0  1  0  0  3  0  0  0  0  0  0
  188.8740  172.8250  138.8130 C   0  0  1  0  0  0  0  0  0  0  0  0
  188.2070  172.9620  141.2130 C   0  0  0  0  0  3  0  0  0  0  0  0
  188.6030  172.3300  137.4590 C   0  0  1  0  0  3  0  0  0  0  0  0
  188.1900  173.7190  137.8460 N   0  0  0  0  0  0  0  0  0  0  0  0
  189.4000  173.4940  141.5240 C   0  0  0  0  0  0  0  0  0  0  0  0
  190.4990  173.5400  140.5220 C   0  0  0  0  0  0  0  0  0  0  0  0
  187.9370  172.2980  139.8910 C   0  0  0  0  0  2  0  0  0  0  0  0
  190.2740  173.2070  139.2510 C   0  0  0  0  0  3  0  0  0  0  0  0
  191.8840  173.9190  140.9260 C   0  0  0  0  0  1  0  0  0  0  0  0
  189.8670  172.2240  136.5800 C   0  0  0  0  0  2  0  0  0  0  0  0
  190.5970  170.9440  134.5270 C   0  0  0  0  0  1  0  0  0  0  0  0
  190.0230  170.8440  135.9340 C   0  0  1  0  0  3  0  0  0  0  0  0
  190.7960  169.8440  136.8040 C   0  0  0  0  0  0  0  0  0  0  0  0
  192.8450  169.3060  136.5150 C   0  0  0  0  0  2  0  0  0  0  0  0
  190.0420  169.2980  137.8440 O   0  0  0  0  0  1  0  0  0  0  0  0
  191.5170  168.7750  136.0090 C   0  0  0  0  0  2  0  0  0  0  0  0
  192.1200  170.3850  137.3020 C   0  0  0  0  0  2  0  0  0  0  0  0
  189.0720  174.7490  137.2830 C   0  0  0  0  0  2  0  0  0  0  0  0
  188.5280  175.3450  134.9480 C   0  0  0  0  0  1  0  0  0  0  0  0
  186.9160  175.5810  136.6760 O   0  0  0  0  0  1  0  0  0  0  0  0
  188.2790  175.6970  136.4000 C   0  0  1  0  0  3  0  0  0  0  0  0
  190.9450  176.6920  146.9360 O   0  0  0  0  0  0  0  0  0  0  0  0
  191.1130  176.1740  144.6550 N   0  0  0  0  0  2  0  0  0  0  0  0
  191.6830  176.4350  145.9470 C   0  0  0  0  0  0  0  0  0  0  0  0
  193.8740  175.3810  145.7440 C   0  0  0  0  0  3  0  0  0  0  0  0
  193.1350  176.4140  146.1330 C   0  0  0  0  0  3  0  0  0  0  0  0
  195.3530  175.3830  145.9540 C   0  0  0  0  0  2  0  0  0  0  0  0
  196.0790  174.4880  144.9500 C   0  0  0  0  0  0  0  0  0  0  0  0
  197.1290  173.6240  145.6230 C   0  0  0  0  0  2  0  0  0  0  0  0
  195.8420  172.9990  145.1020 C   0  0  0  0  0  2  0  0  0  0  0  0
  197.6400  174.3960  143.1030 F   0  0  0  0  0  0  0  0  0  0  0  0
  195.3760  174.6660  142.5370 C   0  0  0  0  0  1  0  0  0  0  0  0
  196.6870  176.4950  143.5640 C   0  0  0  0  0  1  0  0  0  0  0  0
  196.4680  174.9930  143.5420 C   0  0  0  0  0  0  0  0  0  0  0  0
  189.9470  173.1680  143.8870 O   0  0  0  0  0  0  0  0  0  0  0  0
  190.8520  172.0830  143.7410 C   0  0  0  0  0  1  0  0  0  0  0  0
  187.5780  178.3240  142.4240 N   0  0  0  0  0  2  0  0  0  0  0  0
  184.0990  178.7110  141.1070 C   0  0  0  0  0  2  0  0  0  0  0  0
  184.4160  178.3130  142.5280 C   0  0  0  0  0  0  0  0  0  0  0  0
  184.2750  179.3120  143.5050 O   0  0  0  0  0  0  0  0  0  0  0  0
  185.4120  177.1890  142.7760 C   0  0  0  0  0  2  0  0  0  0  0  0
  186.3390  178.7560  144.4020 O   0  0  0  0  0  0  0  0  0  0  0  0
  185.5730  179.7730  143.7920 C   0  0  0  0  0  2  0  0  0  0  0  0
  183.1070  177.8810  141.9170 C   0  0  0  0  0  2  0  0  0  0  0  0
  186.6620  177.7840  143.4260 C   0  0  2  0  0  3  0  0  0  0  0  0
  1  6  1  0  0  0  0
  2  4  2  0  0  0  0
  2 41  1  0  0  0  0
  3 43  1  1  0  0  0
  3  1  1  0  0  0  0
  4  6  1  0  0  0  0
  5  3  1  0  0  0  0
  5  4  1  0  0  0  0
  6 29  1  6  0  0  0
  7 14  1  1  0  0  0
  7 13  1  0  0  0  0
  8 11  2  0  0  0  0
  9 16  1  6  0  0  0
  9 10  1  0  0  0  0
  9  7  1  0  0  0  0
 10  7  1  0  0  0  0
 11  2  1  0  0  0  0
 12 15  1  0  0  0  0
 12 11  1  0  0  0  0
 13  8  1  0  0  0  0
 14 12  2  0  0  0  0
 18 17  1  6  0  0  0
 18 16  1  0  0  0  0
 18 19  1  0  0  0  0
 19 23  1  0  0  0  0
 19 21  1  0  0  0  0
 20 23  1  0  0  0  0
 22 20  1  0  0  0  0
 22 19  1  0  0  0  0
 24 10  1  0  0  0  0
 27 25  1  6  0  0  0
 27 26  1  0  0  0  0
 27 24  1  0  0  0  0
 29 30  1  0  0  0  0
 30 32  1  0  0  0  0
 30 28  2  0  0  0  0
 31 33  1  0  0  0  0
 31 32  2  0  0  0  0
 34 36  1  0  0  0  0
 34 35  1  0  0  0  0
 34 33  1  0  0  0  0
 36 35  1  0  0  0  0
 37 40  1  0  0  0  0
 38 40  1  0  0  0  0
 40 39  1  0  0  0  0
 40 34  1  0  0  0  0
 42 41  1  0  0  0  0
 44 50  1  0  0  0  0
 44 45  1  0  0  0  0
 45 47  1  0  0  0  0
 45 46  1  0  0  0  0
 46 49  1  0  0  0  0
 47 51  1  0  0  0  0
 49 48  1  0  0  0  0
 50 45  1  0  0  0  0
 51 43  1  6  0  0  0
 51 48  1  0  0  0  0
M  END
>  <MODEL>
5

>  <REMARK>
 VINA RESULT:      -6.2      3.481      8.343
  Name = 
  14 active torsions:
  status: ('A' for Active; 'I' for Inactive)
    1  A    between atoms: C_9  and  C_15
    2  A    between atoms: C_9  and  C_22
    3  A    between atoms: C_10  and  C_12
    4  A    between atoms: C_10  and  C_27
    5  A    between atoms: C_11  and  O_14
    6  A    between atoms: C_11  and  C_31
    7  A    between atoms: C_15  and  C_37
    8  A    between atoms: C_17  and  C_27
    9  A    between atoms: N_19  and  C_23
   10  A    between atoms: N_19  and  C_44
   11  A    between atoms: N_29  and  C_38
   12  A    between atoms: C_35  and  C_50
   13  A    between atoms: C_38  and  C_45
   14  A    between atoms: N_43  and  C_47
                            x       y       z     vdW  Elec       q    Type
                         _______ _______ _______ _____ _____    ______ ____

>  <TORSDO>
F 14

$$$$
=
 OpenBabel11042415233D

 51 57  0  0  1  0  0  0  0  0999 V2000
  188.1810  172.9010  139.6410 C   0  0  0  0  0  2  0  0  0  0  0  0
  190.0910  171.8810  142.6540 C   0  0  0  0  0  0  0  0  0  0  0  0
  189.6200  172.9880  139.1520 C   0  0  1  0  0  3  0  0  0  0  0  0
  189.6360  172.3220  141.4550 C   0  0  0  0  0  0  0  0  0  0  0  0
  190.5120  172.4510  140.2580 C   0  0  0  0  0  2  0  0  0  0  0  0
  188.2270  172.6910  141.1450 C   0  0  1  0  0  3  0  0  0  0  0  0
  194.3540  171.3020  142.7650 C   0  0  1  0  0  0  0  0  0  0  0  0
  192.0230  170.4120  142.7130 C   0  0  0  0  0  3  0  0  0  0  0  0
  195.7950  171.0460  142.8570 C   0  0  1  0  0  3  0  0  0  0  0  0
  195.1530  171.2390  141.5160 N   0  0  0  0  0  0  0  0  0  0  0  0
  191.5350  171.6560  142.8540 C   0  0  0  0  0  0  0  0  0  0  0  0
  192.4370  172.7980  143.1670 C   0  0  0  0  0  0  0  0  0  0  0  0
  193.4680  170.0770  142.9580 C   0  0  0  0  0  2  0  0  0  0  0  0
  193.7610  172.6420  143.1520 C   0  0  0  0  0  3  0  0  0  0  0  0
  191.8800  174.1280  143.5440 C   0  0  0  0  0  1  0  0  0  0  0  0
  196.5980  172.2470  143.3980 C   0  0  0  0  0  2  0  0  0  0  0  0
  196.8200  171.5860  145.8280 C   0  0  0  0  0  1  0  0  0  0  0  0
  196.2370  172.5940  144.8460 C   0  0  1  0  0  3  0  0  0  0  0  0
  196.5770  174.0390  145.2330 C   0  0  0  0  0  0  0  0  0  0  0  0
  195.4150  175.7510  144.6930 C   0  0  0  0  0  2  0  0  0  0  0  0
  197.7350  174.1620  146.0020 O   0  0  0  0  0  1  0  0  0  0  0  0
  196.5740  174.9990  144.0620 C   0  0  0  0  0  2  0  0  0  0  0  0
  195.4140  174.7790  145.8600 C   0  0  0  0  0  2  0  0  0  0  0  0
  195.4330  172.5610  140.9400 C   0  0  0  0  0  2  0  0  0  0  0  0
  194.1460  174.2030  139.6170 C   0  0  0  0  0  1  0  0  0  0  0  0
  195.4080  172.4960  138.5520 O   0  0  0  0  0  1  0  0  0  0  0  0
  194.6210  172.7660  139.6720 C   0  0  1  0  0  3  0  0  0  0  0  0
  189.6310  175.2750  141.2980 O   0  0  0  0  0  0  0  0  0  0  0  0
  187.8110  173.9030  141.8550 N   0  0  0  0  0  2  0  0  0  0  0  0
  188.5230  175.1500  141.8860 C   0  0  0  0  0  0  0  0  0  0  0  0
  188.4900  176.7050  143.7670 C   0  0  0  0  0  3  0  0  0  0  0  0
  187.9740  176.2970  142.6120 C   0  0  0  0  0  3  0  0  0  0  0  0
  187.9050  177.8740  144.4910 C   0  0  0  0  0  2  0  0  0  0  0  0
  187.5760  177.5440  145.9460 C   0  0  0  0  0  0  0  0  0  0  0  0
  188.1280  176.1920  146.3560 C   0  0  0  0  0  2  0  0  0  0  0  0
  188.7590  177.4710  146.8900 C   0  0  0  0  0  2  0  0  0  0  0  0
  186.3240  178.1400  147.9300 F   0  0  0  0  0  0  0  0  0  0  0  0
  185.6280  179.1440  145.9230 C   0  0  0  0  0  1  0  0  0  0  0  0
  185.2320  176.7460  146.3830 C   0  0  0  0  0  1  0  0  0  0  0  0
  186.2060  177.8960  146.5700 C   0  0  0  0  0  0  0  0  0  0  0  0
  189.2600  171.6050  143.7540 O   0  0  0  0  0  0  0  0  0  0  0  0
  189.3500  172.2330  145.0250 C   0  0  0  0  0  1  0  0  0  0  0  0
  189.7790  172.1890  137.9460 N   0  0  0  0  0  2  0  0  0  0  0  0
  188.9400  175.0010  135.6280 C   0  0  0  0  0  2  0  0  0  0  0  0
  190.2770  174.3010  135.6440 C   0  0  0  0  0  0  0  0  0  0  0  0
  190.5130  173.3760  134.6140 O   0  0  0  0  0  0  0  0  0  0  0  0
  190.9930  174.1070  136.9730 C   0  0  0  0  0  2  0  0  0  0  0  0
  191.2920  171.8280  136.1530 O   0  0  0  0  0  0  0  0  0  0  0  0
  190.3130  172.1000  135.1720 C   0  0  0  0  0  2  0  0  0  0  0  0
  190.1990  175.7280  135.1650 C   0  0  0  0  0  2  0  0  0  0  0  0
  191.0170  172.6130  137.2970 C   0  0  2  0  0  3  0  0  0  0  0  0
  1  6  1  0  0  0  0
  2 11  1  0  0  0  0
  2 41  1  0  0  0  0
  3 43  1  6  0  0  0
  3  1  1  0  0  0  0
  3  5  1  0  0  0  0
  4  2  2  0  0  0  0
  5  4  1  0  0  0  0
  6  4  1  0  0  0  0
  6 29  1  1  0  0  0
  7  9  1  0  0  0  0
  7 13  1  1  0  0  0
  7 14  1  0  0  0  0
  8 11  2  0  0  0  0
  8 13  1  0  0  0  0
  9 16  1  1  0  0  0
 10  7  1  0  0  0  0
 10  9  1  0  0  0  0
 11 12  1  0  0  0  0
 12 15  1  0  0  0  0
 14 12  2  0  0  0  0
 16 18  1  0  0  0  0
 18 19  1  0  0  0  0
 18 17  1  1  0  0  0
 19 23  1  0  0  0  0
 19 21  1  0  0  0  0
 20 23  1  0  0  0  0
 22 20  1  0  0  0  0
 22 19  1  0  0  0  0
 24 10  1  0  0  0  0
 26 27  1  0  0  0  0
 27 25  1  6  0  0  0
 27 24  1  0  0  0  0
 28 30  2  0  0  0  0
 29 30  1  0  0  0  0
 30 32  1  0  0  0  0
 31 33  1  0  0  0  0
 32 31  2  0  0  0  0
 33 34  1  0  0  0  0
 34 35  1  0  0  0  0
 34 40  1  0  0  0  0
 34 36  1  0  0  0  0
 35 36  1  0  0  0  0
 38 40  1  0  0  0  0
 39 40  1  0  0  0  0
 40 37  1  0  0  0  0
 41 42  1  0  0  0  0
 44 45  1  0  0  0  0
 45 47  1  0  0  0  0
 46 49  1  0  0  0  0
 46 45  1  0  0  0  0
 47 51  1  0  0  0  0
 48 51  1  0  0  0  0
 49 48  1  0  0  0  0
 50 44  1  0  0  0  0
 50 45  1  0  0  0  0
 51 43  1  6  0  0  0
M  END
>  <MODEL>
6

>  <REMARK>
 VINA RESULT:      -6.1      2.424      7.588
  Name = 
  14 active torsions:
  status: ('A' for Active; 'I' for Inactive)
    1  A    between atoms: C_9  and  C_15
    2  A    between atoms: C_9  and  C_22
    3  A    between atoms: C_10  and  C_12
    4  A    between atoms: C_10  and  C_27
    5  A    between atoms: C_11  and  O_14
    6  A    between atoms: C_11  and  C_31
    7  A    between atoms: C_15  and  C_37
    8  A    between atoms: C_17  and  C_27
    9  A    between atoms: N_19  and  C_23
   10  A    between atoms: N_19  and  C_44
   11  A    between atoms: N_29  and  C_38
   12  A    between atoms: C_35  and  C_50
   13  A    between atoms: C_38  and  C_45
   14  A    between atoms: N_43  and  C_47
                            x       y       z     vdW  Elec       q    Type
                         _______ _______ _______ _____ _____    ______ ____

>  <TORSDO>
F 14

$$$$
=
 OpenBabel11042415233D

 51 57  0  0  1  0  0  0  0  0999 V2000
  195.1640  173.3050  141.3850 C   0  0  0  0  0  2  0  0  0  0  0  0
  191.6820  172.5930  142.4520 C   0  0  0  0  0  0  0  0  0  0  0  0
  194.7810  174.5900  142.1050 C   0  0  1  0  0  3  0  0  0  0  0  0
  192.8980  173.1050  142.1420 C   0  0  0  0  0  0  0  0  0  0  0  0
  193.4110  174.3760  142.7250 C   0  0  0  0  0  2  0  0  0  0  0  0
  193.8990  172.4770  141.2350 C   0  0  1  0  0  3  0  0  0  0  0  0
  189.2900  175.2110  144.8890 C   0  0  1  0  0  0  0  0  0  0  0  0
  190.7770  173.2270  144.6140 C   0  0  0  0  0  3  0  0  0  0  0  0
  188.4460  176.0390  145.7580 C   0  0  1  0  0  3  0  0  0  0  0  0
  189.8670  176.4380  145.4930 N   0  0  0  0  0  0  0  0  0  0  0  0
  190.7440  173.3760  143.2790 C   0  0  0  0  0  0  0  0  0  0  0  0
  189.8070  174.3400  142.6430 C   0  0  0  0  0  0  0  0  0  0  0  0
  189.8190  173.9350  145.5310 C   0  0  0  0  0  2  0  0  0  0  0  0
  189.0990  175.1930  143.3860 C   0  0  0  0  0  3  0  0  0  0  0  0
  189.6060  174.3470  141.1650 C   0  0  0  0  0  1  0  0  0  0  0  0
  187.3690  176.8340  144.9910 C   0  0  0  0  0  2  0  0  0  0  0  0
  186.2490  176.8540  147.2560 C   0  0  0  0  0  1  0  0  0  0  0  0
  186.0400  176.9120  145.7490 C   0  0  1  0  0  3  0  0  0  0  0  0
  185.1660  178.1020  145.3310 C   0  0  0  0  0  0  0  0  0  0  0  0
  185.5560  179.3740  143.6580 C   0  0  0  0  0  2  0  0  0  0  0  0
  184.0480  178.2950  146.1450 O   0  0  0  0  0  1  0  0  0  0  0  0
  185.9420  179.3850  145.1260 C   0  0  0  0  0  2  0  0  0  0  0  0
  184.7880  178.0800  143.8650 C   0  0  0  0  0  2  0  0  0  0  0  0
  189.9740  177.5550  144.5460 C   0  0  0  0  0  2  0  0  0  0  0  0
  192.3070  176.8890  145.0100 C   0  0  0  0  0  1  0  0  0  0  0  0
  191.6300  177.5220  142.8240 O   0  0  0  0  0  1  0  0  0  0  0  0
  191.4280  177.7970  144.1770 C   0  0  1  0  0  3  0  0  0  0  0  0
  194.4190  170.4450  139.1690 O   0  0  0  0  0  0  0  0  0  0  0  0
  193.4420  172.4680  139.8430 N   0  0  0  0  0  2  0  0  0  0  0  0
  193.7070  171.4420  138.8730 C   0  0  0  0  0  0  0  0  0  0  0  0
  192.4660  172.6070  137.1240 C   0  0  0  0  0  3  0  0  0  0  0  0
  193.1590  171.5440  137.5190 C   0  0  0  0  0  3  0  0  0  0  0  0
  191.9110  172.6810  135.7390 C   0  0  0  0  0  2  0  0  0  0  0  0
  190.3830  172.7200  135.7320 C   0  0  0  0  0  0  0  0  0  0  0  0
  189.8010  171.7410  134.7300 C   0  0  0  0  0  2  0  0  0  0  0  0
  189.6900  171.4660  136.2230 C   0  0  0  0  0  2  0  0  0  0  0  0
  188.5810  174.1200  134.9280 F   0  0  0  0  0  0  0  0  0  0  0  0
  188.9770  174.1650  137.2430 C   0  0  0  0  0  1  0  0  0  0  0  0
  190.5290  175.2280  135.6380 C   0  0  0  0  0  1  0  0  0  0  0  0
  189.6020  174.0470  135.8630 C   0  0  0  0  0  0  0  0  0  0  0  0
  191.2370  171.3260  142.0370 O   0  0  0  0  0  0  0  0  0  0  0  0
  189.8820  170.9020  142.0130 C   0  0  0  0  0  1  0  0  0  0  0  0
  195.7610  174.8840  143.1410 N   0  0  0  0  0  2  0  0  0  0  0  0
  194.7540  172.4150  145.7640 C   0  0  0  0  0  2  0  0  0  0  0  0
  196.0840  172.3830  145.0520 C   0  0  0  0  0  0  0  0  0  0  0  0
  197.1920  172.8620  145.7710 O   0  0  0  0  0  0  0  0  0  0  0  0
  196.1110  172.4700  143.5330 C   0  0  0  0  0  2  0  0  0  0  0  0
  197.8610  174.1220  143.9440 O   0  0  0  0  0  0  0  0  0  0  0  0
  197.4450  174.1600  145.2920 C   0  0  0  0  0  2  0  0  0  0  0  0
  195.5150  171.1020  145.6060 C   0  0  0  0  0  2  0  0  0  0  0  0
  196.7440  173.8030  143.1350 C   0  0  2  0  0  3  0  0  0  0  0  0
  1  3  1  0  0  0  0
  2 11  1  0  0  0  0
  3  5  1  0  0  0  0
  3 43  1  1  0  0  0
  4  2  2  0  0  0  0
  4  5  1  0  0  0  0
  6 29  1  6  0  0  0
  6  1  1  0  0  0  0
  6  4  1  0  0  0  0
  7 14  1  6  0  0  0
  7 10  1  0  0  0  0
  7 13  1  0  0  0  0
  7  9  1  0  0  0  0
  8 13  1  0  0  0  0
  9 16  1  6  0  0  0
 10  9  1  0  0  0  0
 11  8  2  0  0  0  0
 12 11  1  0  0  0  0
 12 14  2  0  0  0  0
 15 12  1  0  0  0  0
 16 18  1  0  0  0  0
 18 17  1  1  0  0  0
 19 18  1  0  0  0  0
 19 21  1  0  0  0  0
 20 23  1  0  0  0  0
 20 22  1  0  0  0  0
 22 19  1  0  0  0  0
 23 19  1  0  0  0  0
 24 10  1  0  0  0  0
 26 27  1  0  0  0  0
 27 24  1  0  0  0  0
 27 25  1  1  0  0  0
 30 28  2  0  0  0  0
 30 29  1  0  0  0  0
 31 32  2  0  0  0  0
 32 30  1  0  0  0  0
 33 31  1  0  0  0  0
 34 33  1  0  0  0  0
 34 40  1  0  0  0  0
 34 36  1  0  0  0  0
 35 34  1  0  0  0  0
 35 36  1  0  0  0  0
 37 40  1  0  0  0  0
 39 40  1  0  0  0  0
 40 38  1  0  0  0  0
 41  2  1  0  0  0  0
 42 41  1  0  0  0  0
 45 50  1  0  0  0  0
 45 44  1  0  0  0  0
 45 46  1  0  0  0  0
 47 45  1  0  0  0  0
 48 49  1  0  0  0  0
 49 46  1  0  0  0  0
 50 44  1  0  0  0  0
 51 43  1  1  0  0  0
 51 47  1  0  0  0  0
 51 48  1  0  0  0  0
M  END
>  <MODEL>
7

>  <REMARK>
 VINA RESULT:      -6.0      2.588      8.496
  Name = 
  14 active torsions:
  status: ('A' for Active; 'I' for Inactive)
    1  A    between atoms: C_9  and  C_15
    2  A    between atoms: C_9  and  C_22
    3  A    between atoms: C_10  and  C_12
    4  A    between atoms: C_10  and  C_27
    5  A    between atoms: C_11  and  O_14
    6  A    between atoms: C_11  and  C_31
    7  A    between atoms: C_15  and  C_37
    8  A    between atoms: C_17  and  C_27
    9  A    between atoms: N_19  and  C_23
   10  A    between atoms: N_19  and  C_44
   11  A    between atoms: N_29  and  C_38
   12  A    between atoms: C_35  and  C_50
   13  A    between atoms: C_38  and  C_45
   14  A    between atoms: N_43  and  C_47
                            x       y       z     vdW  Elec       q    Type
                         _______ _______ _______ _____ _____    ______ ____

>  <TORSDO>
F 14

$$$$
=
 OpenBabel11042415233D

 51 57  0  0  1  0  0  0  0  0999 V2000
  194.5690  170.5980  140.8910 C   0  0  0  0  0  2  0  0  0  0  0  0
  191.0910  171.6500  141.6420 C   0  0  0  0  0  0  0  0  0  0  0  0
  194.7640  171.5090  142.0940 C   0  0  1  0  0  3  0  0  0  0  0  0
  192.4300  171.4560  141.5470 C   0  0  0  0  0  0  0  0  0  0  0  0
  193.3860  171.9010  142.5990 C   0  0  0  0  0  2  0  0  0  0  0  0
  193.1280  170.7510  140.4370 C   0  0  1  0  0  3  0  0  0  0  0  0
  189.9470  174.1040  144.9870 C   0  0  1  0  0  0  0  0  0  0  0  0
  190.3000  171.8730  143.9260 C   0  0  0  0  0  3  0  0  0  0  0  0
  189.4960  174.8910  146.1400 C   0  0  1  0  0  3  0  0  0  0  0  0
  190.9520  174.5750  145.9720 N   0  0  0  0  0  0  0  0  0  0  0  0
  190.5430  172.4630  142.7440 C   0  0  0  0  0  0  0  0  0  0  0  0
  190.3020  173.9200  142.5550 C   0  0  0  0  0  0  0  0  0  0  0  0
  189.6840  172.6070  145.0850 C   0  0  0  0  0  2  0  0  0  0  0  0
  189.9990  174.6990  143.5940 C   0  0  0  0  0  3  0  0  0  0  0  0
  190.3530  174.5310  141.1960 C   0  0  0  0  0  1  0  0  0  0  0  0
  189.0720  176.3280  145.7730 C   0  0  0  0  0  2  0  0  0  0  0  0
  187.0160  177.0680  147.0440 C   0  0  0  0  0  1  0  0  0  0  0  0
  187.5500  176.5030  145.7350 C   0  0  1  0  0  3  0  0  0  0  0  0
  187.0560  177.2980  144.5190 C   0  0  0  0  0  0  0  0  0  0  0  0
  187.3750  176.7340  142.4810 C   0  0  0  0  0  2  0  0  0  0  0  0
  186.3450  178.4530  144.8490 O   0  0  0  0  0  1  0  0  0  0  0  0
  188.1340  177.5740  143.4920 C   0  0  0  0  0  2  0  0  0  0  0  0
  186.3010  176.4490  143.5170 C   0  0  0  0  0  2  0  0  0  0  0  0
  191.7300  175.7280  145.5010 C   0  0  0  0  0  2  0  0  0  0  0  0
  193.6850  175.8500  143.9950 C   0  0  0  0  0  1  0  0  0  0  0  0
  193.9540  175.9190  146.3540 O   0  0  0  0  0  1  0  0  0  0  0  0
  193.1910  175.3460  145.3350 C   0  0  1  0  0  3  0  0  0  0  0  0
  192.9200  169.6920  137.6970 O   0  0  0  0  0  0  0  0  0  0  0  0
  193.0530  171.5030  139.1810 N   0  0  0  0  0  2  0  0  0  0  0  0
  192.9330  170.9410  137.8650 C   0  0  0  0  0  0  0  0  0  0  0  0
  193.8770  172.5070  136.2490 C   0  0  0  0  0  3  0  0  0  0  0  0
  192.8340  171.8140  136.6940 C   0  0  0  0  0  3  0  0  0  0  0  0
  193.7460  173.3970  135.0560 C   0  0  0  0  0  2  0  0  0  0  0  0
  194.0650  174.8550  135.3860 C   0  0  0  0  0  0  0  0  0  0  0  0
  195.4810  175.0170  135.9040 C   0  0  0  0  0  2  0  0  0  0  0  0
  195.1130  175.5140  134.5130 C   0  0  0  0  0  2  0  0  0  0  0  0
  193.1180  175.7260  137.4350 F   0  0  0  0  0  0  0  0  0  0  0  0
  193.2520  177.2270  135.6320 C   0  0  0  0  0  1  0  0  0  0  0  0
  191.6190  175.3700  135.6590 C   0  0  0  0  0  1  0  0  0  0  0  0
  193.0260  175.7840  136.0530 C   0  0  0  0  0  0  0  0  0  0  0  0
  190.1560  171.1090  140.7430 O   0  0  0  0  0  0  0  0  0  0  0  0
  189.5910  171.7980  139.6370 C   0  0  0  0  0  1  0  0  0  0  0  0
  195.4970  170.8010  143.1340 N   0  0  0  0  0  2  0  0  0  0  0  0
  197.7190  173.1410  145.0240 C   0  0  0  0  0  2  0  0  0  0  0  0
  196.5200  172.4540  145.6300 C   0  0  0  0  0  0  0  0  0  0  0  0
  196.7820  171.3550  146.4650 O   0  0  0  0  0  0  0  0  0  0  0  0
  195.1890  172.5070  144.8950 C   0  0  0  0  0  2  0  0  0  0  0  0
  195.1520  170.1150  145.3800 O   0  0  0  0  0  0  0  0  0  0  0  0
  196.5250  170.2040  145.6980 C   0  0  0  0  0  2  0  0  0  0  0  0
  196.9830  173.7690  146.2040 C   0  0  0  0  0  2  0  0  0  0  0  0
  194.8470  171.0970  144.4090 C   0  0  2  0  0  3  0  0  0  0  0  0
  1  3  1  0  0  0  0
  2 11  1  0  0  0  0
  3  5  1  0  0  0  0
  3 43  1  1  0  0  0
  4  2  2  0  0  0  0
  4  5  1  0  0  0  0
  6 29  1  6  0  0  0
  6  1  1  0  0  0  0
  6  4  1  0  0  0  0
  7 14  1  6  0  0  0
  7 13  1  0  0  0  0
  7 10  1  0  0  0  0
  7  9  1  0  0  0  0
  8 13  1  0  0  0  0
  9 16  1  6  0  0  0
 10  9  1  0  0  0  0
 11  8  2  0  0  0  0
 12 11  1  0  0  0  0
 12 14  2  0  0  0  0
 15 12  1  0  0  0  0
 18 16  1  0  0  0  0
 18 17  1  1  0  0  0
 19 21  1  0  0  0  0
 19 18  1  0  0  0  0
 20 22  1  0  0  0  0
 20 23  1  0  0  0  0
 22 19  1  0  0  0  0
 23 19  1  0  0  0  0
 24 10  1  0  0  0  0
 27 25  1  6  0  0  0
 27 24  1  0  0  0  0
 27 26  1  0  0  0  0
 28 30  2  0  0  0  0
 30 29  1  0  0  0  0
 31 32  2  0  0  0  0
 32 30  1  0  0  0  0
 33 34  1  0  0  0  0
 33 31  1  0  0  0  0
 34 35  1  0  0  0  0
 34 40  1  0  0  0  0
 36 34  1  0  0  0  0
 36 35  1  0  0  0  0
 38 40  1  0  0  0  0
 39 40  1  0  0  0  0
 40 37  1  0  0  0  0
 41  2  1  0  0  0  0
 42 41  1  0  0  0  0
 44 45  1  0  0  0  0
 44 50  1  0  0  0  0
 45 50  1  0  0  0  0
 45 46  1  0  0  0  0
 47 45  1  0  0  0  0
 48 49  1  0  0  0  0
 49 46  1  0  0  0  0
 51 43  1  6  0  0  0
 51 47  1  0  0  0  0
 51 48  1  0  0  0  0
M  END
>  <MODEL>
8

>  <REMARK>
 VINA RESULT:      -5.8      2.768      8.568
  Name = 
  14 active torsions:
  status: ('A' for Active; 'I' for Inactive)
    1  A    between atoms: C_9  and  C_15
    2  A    between atoms: C_9  and  C_22
    3  A    between atoms: C_10  and  C_12
    4  A    between atoms: C_10  and  C_27
    5  A    between atoms: C_11  and  O_14
    6  A    between atoms: C_11  and  C_31
    7  A    between atoms: C_15  and  C_37
    8  A    between atoms: C_17  and  C_27
    9  A    between atoms: N_19  and  C_23
   10  A    between atoms: N_19  and  C_44
   11  A    between atoms: N_29  and  C_38
   12  A    between atoms: C_35  and  C_50
   13  A    between atoms: C_38  and  C_45
   14  A    between atoms: N_43  and  C_47
                            x       y       z     vdW  Elec       q    Type
                         _______ _______ _______ _____ _____    ______ ____

>  <TORSDO>
F 14

$$$$
=
 OpenBabel11042415233D

 51 57  0  0  1  0  0  0  0  0999 V2000
  194.5590  170.9330  141.4300 C   0  0  0  0  0  2  0  0  0  0  0  0
  191.0450  171.7550  142.2950 C   0  0  0  0  0  0  0  0  0  0  0  0
  194.7340  172.0530  142.4470 C   0  0  1  0  0  3  0  0  0  0  0  0
  192.3880  171.6790  142.1190 C   0  0  0  0  0  0  0  0  0  0  0  0
  193.3580  172.3890  142.9970 C   0  0  0  0  0  2  0  0  0  0  0  0
  193.0810  170.8650  141.0820 C   0  0  1  0  0  3  0  0  0  0  0  0
  189.8710  174.5950  145.3080 C   0  0  1  0  0  0  0  0  0  0  0  0
  190.2980  172.2560  144.5500 C   0  0  0  0  0  3  0  0  0  0  0  0
  189.4120  175.5130  146.3560 C   0  0  1  0  0  3  0  0  0  0  0  0
  190.8770  175.2370  146.1910 N   0  0  0  0  0  0  0  0  0  0  0  0
  190.4870  172.6880  143.2920 C   0  0  0  0  0  0  0  0  0  0  0  0
  190.1780  174.0940  142.9140 C   0  0  0  0  0  0  0  0  0  0  0  0
  189.6770  173.1160  145.6160 C   0  0  0  0  0  2  0  0  0  0  0  0
  189.8640  174.9950  143.8460 C   0  0  0  0  0  3  0  0  0  0  0  0
  190.1710  174.5160  141.4840 C   0  0  0  0  0  1  0  0  0  0  0  0
  188.9170  176.8680  145.8110 C   0  0  0  0  0  2  0  0  0  0  0  0
  186.6500  177.3580  146.8140 C   0  0  0  0  0  1  0  0  0  0  0  0
  187.4030  176.8920  145.5760 C   0  0  1  0  0  3  0  0  0  0  0  0
  186.9900  177.6720  144.3210 C   0  0  0  0  0  0  0  0  0  0  0  0
  184.9760  178.1610  143.7960 C   0  0  0  0  0  2  0  0  0  0  0  0
  188.0640  178.0660  143.5210 O   0  0  0  0  0  1  0  0  0  0  0  0
  185.9040  176.9940  143.5120 C   0  0  0  0  0  2  0  0  0  0  0  0
  186.0640  178.8330  144.6170 C   0  0  0  0  0  2  0  0  0  0  0  0
  191.5920  176.3450  145.5460 C   0  0  0  0  0  2  0  0  0  0  0  0
  193.3390  174.6860  146.0940 C   0  0  0  0  0  1  0  0  0  0  0  0
  193.5360  176.0810  144.1820 O   0  0  0  0  0  1  0  0  0  0  0  0
  193.0830  176.0560  145.5020 C   0  0  1  0  0  3  0  0  0  0  0  0
  193.1630  169.3880  138.5370 O   0  0  0  0  0  0  0  0  0  0  0  0
  192.8380  171.3790  139.7320 N   0  0  0  0  0  2  0  0  0  0  0  0
  192.8710  170.6140  138.5180 C   0  0  0  0  0  0  0  0  0  0  0  0
  191.4180  171.8680  137.0100 C   0  0  0  0  0  3  0  0  0  0  0  0
  192.5740  171.2500  137.2330 C   0  0  0  0  0  3  0  0  0  0  0  0
  191.1380  172.5020  135.6870 C   0  0  0  0  0  2  0  0  0  0  0  0
  190.8370  173.9950  135.8150 C   0  0  0  0  0  0  0  0  0  0  0  0
  189.4780  174.3460  135.2400 C   0  0  0  0  0  2  0  0  0  0  0  0
  189.6990  174.3600  136.7460 C   0  0  0  0  0  2  0  0  0  0  0  0
  191.3700  176.2690  135.1820 F   0  0  0  0  0  0  0  0  0  0  0  0
  192.6970  175.3250  136.8750 C   0  0  0  0  0  1  0  0  0  0  0  0
  192.8990  174.6120  134.5160 C   0  0  0  0  0  1  0  0  0  0  0  0
  191.9270  175.0670  135.5900 C   0  0  0  0  0  0  0  0  0  0  0  0
  190.1160  170.9790  141.5810 O   0  0  0  0  0  0  0  0  0  0  0  0
  189.4700  171.3760  140.3800 C   0  0  0  0  0  1  0  0  0  0  0  0
  195.6100  171.6090  143.5210 N   0  0  0  0  0  2  0  0  0  0  0  0
  195.6890  169.6950  146.7330 C   0  0  0  0  0  2  0  0  0  0  0  0
  196.2530  169.1730  145.4340 C   0  0  0  0  0  0  0  0  0  0  0  0
  197.6500  169.2130  145.2950 O   0  0  0  0  0  0  0  0  0  0  0  0
  195.3960  169.2370  144.1780 C   0  0  0  0  0  2  0  0  0  0  0  0
  197.4350  170.1310  143.1780 O   0  0  0  0  0  0  0  0  0  0  0  0
  197.9370  170.3260  144.4830 C   0  0  0  0  0  2  0  0  0  0  0  0
  195.7800  168.1930  146.4780 C   0  0  0  0  0  2  0  0  0  0  0  0
  196.0250  170.2420  143.2130 C   0  0  2  0  0  3  0  0  0  0  0  0
  1  3  1  0  0  0  0
  2 11  1  0  0  0  0
  3  5  1  0  0  0  0
  3 43  1  1  0  0  0
  4  2  2  0  0  0  0
  4  5  1  0  0  0  0
  6 29  1  6  0  0  0
  6  1  1  0  0  0  0
  6  4  1  0  0  0  0
  7 14  1  6  0  0  0
  7 13  1  0  0  0  0
  7 10  1  0  0  0  0
  7  9  1  0  0  0  0
  8 13  1  0  0  0  0
  9 16  1  6  0  0  0
 10  9  1  0  0  0  0
 11  8  2  0  0  0  0
 12 11  1  0  0  0  0
 12 14  2  0  0  0  0
 15 12  1  0  0  0  0
 18 16  1  0  0  0  0
 18 17  1  1  0  0  0
 19 23  1  0  0  0  0
 19 18  1  0  0  0  0
 20 23  1  0  0  0  0
 21 19  1  0  0  0  0
 22 20  1  0  0  0  0
 22 19  1  0  0  0  0
 24 10  1  0  0  0  0
 26 27  1  0  0  0  0
 27 24  1  0  0  0  0
 27 25  1  6  0  0  0
 30 28  2  0  0  0  0
 30 29  1  0  0  0  0
 31 32  2  0  0  0  0
 32 30  1  0  0  0  0
 33 34  1  0  0  0  0
 33 31  1  0  0  0  0
 34 36  1  0  0  0  0
 35 34  1  0  0  0  0
 35 36  1  0  0  0  0
 37 40  1  0  0  0  0
 39 40  1  0  0  0  0
 40 34  1  0  0  0  0
 40 38  1  0  0  0  0
 41  2  1  0  0  0  0
 42 41  1  0  0  0  0
 45 50  1  0  0  0  0
 45 44  1  0  0  0  0
 46 45  1  0  0  0  0
 47 45  1  0  0  0  0
 48 51  1  0  0  0  0
 48 49  1  0  0  0  0
 49 46  1  0  0  0  0
 50 44  1  0  0  0  0
 51 43  1  1  0  0  0
 51 47  1  0  0  0  0
M  END
>  <MODEL>
9

>  <REMARK>
 VINA RESULT:      -5.7      2.383      8.221
  Name = 
  14 active torsions:
  status: ('A' for Active; 'I' for Inactive)
    1  A    between atoms: C_9  and  C_15
    2  A    between atoms: C_9  and  C_22
    3  A    between atoms: C_10  and  C_12
    4  A    between atoms: C_10  and  C_27
    5  A    between atoms: C_11  and  O_14
    6  A    between atoms: C_11  and  C_31
    7  A    between atoms: C_15  and  C_37
    8  A    between atoms: C_17  and  C_27
    9  A    between atoms: N_19  and  C_23
   10  A    between atoms: N_19  and  C_44
   11  A    between atoms: N_29  and  C_38
   12  A    between atoms: C_35  and  C_50
   13  A    between atoms: C_38  and  C_45
   14  A    between atoms: N_43  and  C_47
                            x       y       z     vdW  Elec       q    Type
                         _______ _______ _______ _____ _____    ______ ____

>  <TORSDO>
F 14

$$$$
