=
 OpenBabel11042414423D

 36 40  0  0  1  0  0  0  0  0999 V2000
  193.8920  176.6460  146.4480 C   0  0  0  0  0  2  0  0  0  0  0  0
  193.0760  175.3940  146.4170 C   0  0  0  0  0  0  0  0  0  0  0  0
  193.6550  174.2460  146.0530 C   0  0  0  0  0  3  0  0  0  0  0  0
  194.7480  176.7380  145.1850 C   0  0  0  0  0  2  0  0  0  0  0  0
  195.1180  174.2190  145.7170 C   0  0  0  0  0  2  0  0  0  0  0  0
  195.5670  175.4580  144.9200 C   0  0  1  0  0  3  0  0  0  0  0  0
  195.6060  175.1550  143.4530 C   0  0  0  0  0  0  0  0  0  0  0  0
  196.2330  174.1930  143.0330 O   0  0  0  0  0  0  0  0  0  0  0  0
  194.9050  176.0610  142.4920 C   0  0  0  0  0  2  0  0  0  0  0  0
  187.8460  172.6020  141.3510 F   0  0  0  0  0  0  0  0  0  0  0  0
  191.4450  174.3040  142.4560 C   0  0  0  0  0  0  0  0  0  0  0  0
  193.5700  175.2580  140.6960 O   0  0  0  0  0  0  0  0  0  0  0  0
  193.6980  175.3790  141.9440 C   0  0  0  0  0  0  0  0  0  0  0  0
  189.0180  173.1710  141.7260 C   0  0  0  0  0  0  0  0  0  0  0  0
  189.3400  173.2990  143.0760 C   0  0  0  0  0  3  0  0  0  0  0  0
  192.6880  174.9010  142.8420 N   0  0  0  0  0  2  0  0  0  0  0  0
  191.1090  174.1660  141.1420 N   0  0  0  0  0  0  0  0  0  0  0  0
  190.5560  173.8760  143.4490 C   0  0  0  0  0  2  0  0  0  0  0  0
  189.9250  173.6140  140.7610 C   0  0  0  0  0  2  0  0  0  0  0  0
  191.7030  175.4450  146.8260 N   0  0  0  0  0  2  0  0  0  0  0  0
  189.4780  176.2690  147.0320 C   0  0  1  0  0  3  0  0  0  0  0  0
  190.7720  176.4740  146.3830 C   0  0  1  0  0  3  0  0  0  0  0  0
  190.3890  177.3120  147.5290 N   0  0  0  0  0  2  0  0  0  0  0  0
  188.4060  176.8900  146.2520 N   0  0  0  0  0  0  0  0  0  0  0  0
  186.1320  176.2270  146.3270 F   0  0  0  0  0  0  0  0  0  0  0  0
  187.1620  176.8330  147.0320 C   0  0  2  0  0  3  0  0  0  0  0  0
  186.7430  178.2180  147.4890 C   0  0  0  0  0  1  0  0  0  0  0  0
  188.2500  176.2680  144.9200 C   0  0  0  0  0  2  0  0  0  0  0  0
  186.7930  176.9810  143.0770 C   0  0  2  0  0  3  0  0  0  0  0  0
  188.0640  177.2710  143.7820 C   0  0  2  0  0  3  0  0  0  0  0  0
  188.0380  176.5870  142.5520 O   0  0  0  0  0  0  0  0  0  0  0  0
  186.0080  178.0430  140.8300 C   0  0  0  0  0  1  0  0  0  0  0  0
  186.2290  178.2180  142.3310 C   0  0  1  0  0  3  0  0  0  0  0  0
  184.9990  178.8940  142.9680 C   0  0  0  0  0  3  0  0  0  0  0  0
  185.3300  179.8490  144.1050 C   0  0  0  0  0  2  0  0  0  0  0  0
  184.8130  178.4530  144.4090 C   0  0  0  0  0  2  0  0  0  0  0  0
  2  1  1  0  0  0  0
  2 20  1  0  0  0  0
  3  2  2  0  0  0  0
  4  1  1  0  0  0  0
  5  3  1  0  0  0  0
  6  7  1  6  0  0  0
  6  4  1  0  0  0  0
  6  5  1  0  0  0  0
  8  7  2  0  0  0  0
  9  7  1  0  0  0  0
 10 14  1  0  0  0  0
 11 16  1  0  0  0  0
 11 18  1  0  0  0  0
 12 13  2  0  0  0  0
 13  9  1  0  0  0  0
 13 16  1  0  0  0  0
 14 15  2  0  0  0  0
 15 18  1  0  0  0  0
 17 11  2  0  0  0  0
 19 17  1  0  0  0  0
 19 14  1  0  0  0  0
 21 24  1  6  0  0  0
 21 23  1  0  0  0  0
 22 20  1  1  0  0  0
 22 21  1  0  0  0  0
 22 23  1  0  0  0  0
 24 26  1  0  0  0  0
 25 26  1  0  0  0  0
 26 27  1  6  0  0  0
 28 24  1  0  0  0  0
 29 33  1  6  0  0  0
 29 30  1  0  0  0  0
 30 28  1  1  0  0  0
 31 29  1  0  0  0  0
 31 30  1  0  0  0  0
 33 32  1  6  0  0  0
 33 34  1  0  0  0  0
 34 35  1  0  0  0  0
 34 36  1  0  0  0  0
 35 36  1  0  0  0  0
M  END
>  <MODEL>
1

>  <REMARK>
 VINA RESULT:      -6.8      0.000      0.000
  Name = 
  11 active torsions:
  status: ('A' for Active; 'I' for Inactive)
    1  A    between atoms: C_1  and  C_26
    2  A    between atoms: C_7  and  N_27
    3  A    between atoms: C_10  and  N_24
    4  A    between atoms: C_10  and  C_29
    5  A    between atoms: C_12  and  N_24
    6  A    between atoms: C_13  and  N_24
    7  A    between atoms: C_14  and  N_27
    8  A    between atoms: C_15  and  C_22
    9  A    between atoms: C_17  and  C_22
   10  A    between atoms: C_17  and  C_35
   11  A    between atoms: C_25  and  C_26
                            x       y       z     vdW  Elec       q    Type
                         _______ _______ _______ _____ _____    ______ ____

>  <TORSDO>
F 11

$$$$
=
 OpenBabel11042414423D

 36 40  0  0  1  0  0  0  0  0999 V2000
  189.7640  174.8390  142.0110 C   0  0  0  0  0  2  0  0  0  0  0  0
  191.2510  174.9840  142.0590 C   0  0  0  0  0  0  0  0  0  0  0  0
  192.0170  174.0350  141.5140 C   0  0  0  0  0  3  0  0  0  0  0  0
  189.3710  173.4100  142.3860 C   0  0  0  0  0  2  0  0  0  0  0  0
  191.3820  172.8580  140.8310 C   0  0  0  0  0  2  0  0  0  0  0  0
  190.1340  172.3440  141.5740 C   0  0  1  0  0  3  0  0  0  0  0  0
  190.4840  171.1750  142.4430 C   0  0  0  0  0  0  0  0  0  0  0  0
  190.6180  170.0590  141.9610 O   0  0  0  0  0  0  0  0  0  0  0  0
  190.6310  171.3680  143.9190 C   0  0  0  0  0  2  0  0  0  0  0  0
  197.7900  173.7870  146.3670 F   0  0  0  0  0  0  0  0  0  0  0  0
  193.9360  173.0380  145.0780 C   0  0  0  0  0  0  0  0  0  0  0  0
  192.8050  170.4720  144.2650 O   0  0  0  0  0  0  0  0  0  0  0  0
  192.0740  171.4980  144.2700 C   0  0  0  0  0  0  0  0  0  0  0  0
  196.5180  173.5510  145.9580 C   0  0  0  0  0  0  0  0  0  0  0  0
  195.6110  174.6020  145.8340 C   0  0  0  0  0  3  0  0  0  0  0  0
  192.5970  172.7800  144.6390 N   0  0  0  0  0  2  0  0  0  0  0  0
  194.8420  172.0260  145.2050 N   0  0  0  0  0  0  0  0  0  0  0  0
  194.3080  174.3480  145.3990 C   0  0  0  0  0  2  0  0  0  0  0  0
  196.1120  172.2550  145.6350 C   0  0  0  0  0  2  0  0  0  0  0  0
  191.8200  176.1620  142.6460 N   0  0  0  0  0  2  0  0  0  0  0  0
  191.2710  176.0860  144.9610 C   0  0  1  0  0  3  0  0  0  0  0  0
  191.1980  176.8910  143.7430 C   0  0  1  0  0  3  0  0  0  0  0  0
  192.2130  177.1990  144.7610 N   0  0  0  0  0  2  0  0  0  0  0  0
  190.2330  176.4920  145.9110 N   0  0  0  0  0  0  0  0  0  0  0  0
  191.5680  175.0070  147.1880 F   0  0  0  0  0  0  0  0  0  0  0  0
  190.3470  175.6620  147.1170 C   0  0  2  0  0  3  0  0  0  0  0  0
  189.2080  174.6610  147.1970 C   0  0  0  0  0  1  0  0  0  0  0  0
  188.8790  176.4240  145.3210 C   0  0  0  0  0  2  0  0  0  0  0  0
  186.8280  177.5870  144.6370 C   0  0  2  0  0  3  0  0  0  0  0  0
  188.1910  177.7820  145.1840 C   0  0  2  0  0  3  0  0  0  0  0  0
  187.8940  178.0240  143.8300 O   0  0  0  0  0  0  0  0  0  0  0  0
  185.5140  179.6930  143.8410 C   0  0  0  0  0  1  0  0  0  0  0  0
  185.8700  178.7540  144.9910 C   0  0  1  0  0  3  0  0  0  0  0  0
  184.5960  178.3750  145.7720 C   0  0  0  0  0  3  0  0  0  0  0  0
  184.7510  178.4280  147.2840 C   0  0  0  0  0  2  0  0  0  0  0  0
  184.7950  177.0920  146.5610 C   0  0  0  0  0  2  0  0  0  0  0  0
  1  2  1  0  0  0  0
  1  4  1  0  0  0  0
  2 20  1  0  0  0  0
  3  2  2  0  0  0  0
  5  3  1  0  0  0  0
  5  6  1  0  0  0  0
  6  4  1  0  0  0  0
  6  7  1  1  0  0  0
  7  9  1  0  0  0  0
  8  7  2  0  0  0  0
  9 13  1  0  0  0  0
 11 17  2  0  0  0  0
 11 18  1  0  0  0  0
 12 13  2  0  0  0  0
 13 16  1  0  0  0  0
 14 10  1  0  0  0  0
 15 14  2  0  0  0  0
 16 11  1  0  0  0  0
 17 19  1  0  0  0  0
 18 15  1  0  0  0  0
 19 14  1  0  0  0  0
 21 24  1  1  0  0  0
 22 20  1  6  0  0  0
 22 23  1  0  0  0  0
 22 21  1  0  0  0  0
 23 21  1  0  0  0  0
 24 26  1  0  0  0  0
 26 25  1  0  0  0  0
 26 27  1  6  0  0  0
 28 24  1  0  0  0  0
 29 33  1  1  0  0  0
 29 30  1  0  0  0  0
 30 28  1  6  0  0  0
 31 29  1  0  0  0  0
 31 30  1  0  0  0  0
 33 32  1  6  0  0  0
 33 34  1  0  0  0  0
 34 36  1  0  0  0  0
 34 35  1  0  0  0  0
 36 35  1  0  0  0  0
M  END
>  <MODEL>
2

>  <REMARK>
 VINA RESULT:      -6.7      3.070      5.196
  Name = 
  11 active torsions:
  status: ('A' for Active; 'I' for Inactive)
    1  A    between atoms: C_1  and  C_26
    2  A    between atoms: C_7  and  N_27
    3  A    between atoms: C_10  and  N_24
    4  A    between atoms: C_10  and  C_29
    5  A    between atoms: C_12  and  N_24
    6  A    between atoms: C_13  and  N_24
    7  A    between atoms: C_14  and  N_27
    8  A    between atoms: C_15  and  C_22
    9  A    between atoms: C_17  and  C_22
   10  A    between atoms: C_17  and  C_35
   11  A    between atoms: C_25  and  C_26
                            x       y       z     vdW  Elec       q    Type
                         _______ _______ _______ _____ _____    ______ ____

>  <TORSDO>
F 11

$$$$
=
 OpenBabel11042414423D

 36 40  0  0  1  0  0  0  0  0999 V2000
  187.6400  173.2000  141.9150 C   0  0  0  0  0  2  0  0  0  0  0  0
  188.3960  174.4500  141.5980 C   0  0  0  0  0  0  0  0  0  0  0  0
  189.6470  174.3570  141.1400 C   0  0  0  0  0  3  0  0  0  0  0  0
  188.5340  172.2380  142.6970 C   0  0  0  0  0  2  0  0  0  0  0  0
  190.2650  173.0080  140.9150 C   0  0  0  0  0  2  0  0  0  0  0  0
  189.8960  171.9950  142.0150 C   0  0  1  0  0  3  0  0  0  0  0  0
  190.9870  171.9080  143.0380 C   0  0  0  0  0  0  0  0  0  0  0  0
  191.8670  171.0660  142.9400 O   0  0  0  0  0  0  0  0  0  0  0  0
  190.9750  172.8360  144.2110 C   0  0  0  0  0  2  0  0  0  0  0  0
  197.4840  177.2750  143.2000 F   0  0  0  0  0  0  0  0  0  0  0  0
  194.0140  175.0320  143.2110 C   0  0  0  0  0  0  0  0  0  0  0  0
  192.9280  173.4560  145.4160 O   0  0  0  0  0  0  0  0  0  0  0  0
  192.2960  173.5190  144.3280 C   0  0  0  0  0  0  0  0  0  0  0  0
  196.3370  176.5530  143.1950 C   0  0  0  0  0  0  0  0  0  0  0  0
  195.5670  176.4580  142.0370 C   0  0  0  0  0  3  0  0  0  0  0  0
  192.8070  174.2620  143.2150 N   0  0  0  0  0  2  0  0  0  0  0  0
  194.7850  175.1370  144.3320 N   0  0  0  0  0  0  0  0  0  0  0  0
  194.3940  175.7010  142.0420 C   0  0  0  0  0  3  0  0  0  0  0  0
  195.9260  175.8770  144.3470 C   0  0  0  0  0  3  0  0  0  0  0  0
  187.7430  175.7180  141.7480 N   0  0  0  0  0  2  0  0  0  0  0  0
  186.7450  177.3490  143.1650 C   0  0  1  0  0  3  0  0  0  0  0  0
  186.6770  175.9620  142.7090 C   0  0  1  0  0  3  0  0  0  0  0  0
  185.7440  176.9580  142.1600 N   0  0  0  0  0  2  0  0  0  0  0  0
  186.0930  177.4960  144.4690 N   0  0  0  0  0  0  0  0  0  0  0  0
  185.6840  179.0960  146.1690 F   0  0  0  0  0  0  0  0  0  0  0  0
  186.2220  178.8930  144.9060 C   0  0  2  0  0  3  0  0  0  0  0  0
  185.5840  179.8370  143.9030 C   0  0  0  0  0  1  0  0  0  0  0  0
  186.6330  176.5530  145.4720 C   0  0  0  0  0  2  0  0  0  0  0  0
  189.0440  176.2140  145.7850 C   0  0  2  0  0  3  0  0  0  0  0  0
  187.8900  177.0530  146.1830 C   0  0  2  0  0  3  0  0  0  0  0  0
  188.3930  176.0380  147.0190 O   0  0  0  0  0  0  0  0  0  0  0  0
  191.2570  176.4810  147.1360 C   0  0  0  0  0  1  0  0  0  0  0  0
  190.4010  176.9440  145.9580 C   0  0  1  0  0  3  0  0  0  0  0  0
  191.2730  177.0690  144.6940 C   0  0  0  0  0  3  0  0  0  0  0  0
  191.0790  178.3690  143.9270 C   0  0  0  0  0  2  0  0  0  0  0  0
  190.4200  177.0900  143.4370 C   0  0  0  0  0  2  0  0  0  0  0  0
  1  4  1  0  0  0  0
  2 20  1  0  0  0  0
  2  1  1  0  0  0  0
  3  2  2  0  0  0  0
  5  3  1  0  0  0  0
  5  6  1  0  0  0  0
  6  4  1  0  0  0  0
  6  7  1  1  0  0  0
  7  9  1  0  0  0  0
  8  7  2  0  0  0  0
  9 13  1  0  0  0  0
 11 16  1  0  0  0  0
 11 17  2  0  0  0  0
 13 12  2  0  0  0  0
 14 10  1  0  0  0  0
 14 19  2  0  0  0  0
 15 18  2  0  0  0  0
 15 14  1  0  0  0  0
 16 13  1  0  0  0  0
 17 19  1  0  0  0  0
 18 11  1  0  0  0  0
 21 24  1  1  0  0  0
 22 20  1  6  0  0  0
 22 21  1  0  0  0  0
 23 22  1  0  0  0  0
 23 21  1  0  0  0  0
 24 26  1  0  0  0  0
 24 28  1  0  0  0  0
 26 27  1  6  0  0  0
 26 25  1  0  0  0  0
 29 33  1  1  0  0  0
 29 30  1  0  0  0  0
 29 31  1  0  0  0  0
 30 28  1  6  0  0  0
 30 31  1  0  0  0  0
 33 32  1  1  0  0  0
 34 33  1  0  0  0  0
 35 34  1  0  0  0  0
 36 35  1  0  0  0  0
 36 34  1  0  0  0  0
M  END
>  <MODEL>
3

>  <REMARK>
 VINA RESULT:      -6.5      2.882      5.873
  Name = 
  11 active torsions:
  status: ('A' for Active; 'I' for Inactive)
    1  A    between atoms: C_1  and  C_26
    2  A    between atoms: C_7  and  N_27
    3  A    between atoms: C_10  and  N_24
    4  A    between atoms: C_10  and  C_29
    5  A    between atoms: C_12  and  N_24
    6  A    between atoms: C_13  and  N_24
    7  A    between atoms: C_14  and  N_27
    8  A    between atoms: C_15  and  C_22
    9  A    between atoms: C_17  and  C_22
   10  A    between atoms: C_17  and  C_35
   11  A    between atoms: C_25  and  C_26
                            x       y       z     vdW  Elec       q    Type
                         _______ _______ _______ _____ _____    ______ ____

>  <TORSDO>
F 11

$$$$
=
 OpenBabel11042414423D

 36 40  0  0  1  0  0  0  0  0999 V2000
  188.1340  173.9260  142.3370 C   0  0  0  0  0  2  0  0  0  0  0  0
  187.9110  175.0350  141.3600 C   0  0  0  0  0  0  0  0  0  0  0  0
  188.2120  174.8420  140.0730 C   0  0  0  0  0  3  0  0  0  0  0  0
  189.5010  173.2870  142.0920 C   0  0  0  0  0  2  0  0  0  0  0  0
  188.7340  173.5100  139.6170 C   0  0  0  0  0  2  0  0  0  0  0  0
  189.7210  172.8840  140.6200 C   0  0  1  0  0  3  0  0  0  0  0  0
  191.1350  173.1590  140.2070 C   0  0  0  0  0  0  0  0  0  0  0  0
  191.3760  173.7310  139.1540 O   0  0  0  0  0  0  0  0  0  0  0  0
  192.2610  172.6920  141.0730 C   0  0  0  0  0  2  0  0  0  0  0  0
  194.8420  177.4800  146.8620 F   0  0  0  0  0  0  0  0  0  0  0  0
  193.2930  174.6940  144.2330 C   0  0  0  0  0  0  0  0  0  0  0  0
  193.2290  174.8490  141.3190 O   0  0  0  0  0  0  0  0  0  0  0  0
  192.7710  173.8270  141.8950 C   0  0  0  0  0  0  0  0  0  0  0  0
  194.3410  176.5520  146.0090 C   0  0  0  0  0  0  0  0  0  0  0  0
  193.7270  175.4010  146.4990 C   0  0  0  0  0  3  0  0  0  0  0  0
  192.7620  173.7230  143.3240 N   0  0  0  0  0  2  0  0  0  0  0  0
  193.8960  175.8290  143.7770 N   0  0  0  0  0  0  0  0  0  0  0  0
  193.2050  174.4590  145.6100 C   0  0  0  0  0  2  0  0  0  0  0  0
  194.4170  176.7520  144.6290 C   0  0  0  0  0  2  0  0  0  0  0  0
  187.3340  176.2650  141.8190 N   0  0  0  0  0  2  0  0  0  0  0  0
  186.1480  177.6840  143.3190 C   0  0  1  0  0  3  0  0  0  0  0  0
  186.2420  176.3270  142.7830 C   0  0  1  0  0  3  0  0  0  0  0  0
  185.2030  177.2390  142.2830 N   0  0  0  0  0  2  0  0  0  0  0  0
  185.4800  177.6780  144.6220 N   0  0  0  0  0  0  0  0  0  0  0  0
  184.5160  179.2610  146.1000 F   0  0  0  0  0  0  0  0  0  0  0  0
  185.5360  179.0330  145.1870 C   0  0  2  0  0  3  0  0  0  0  0  0
  185.5030  180.0810  144.0900 C   0  0  0  0  0  1  0  0  0  0  0  0
  186.0570  176.6740  145.5410 C   0  0  0  0  0  2  0  0  0  0  0  0
  188.4680  176.3960  145.9130 C   0  0  2  0  0  3  0  0  0  0  0  0
  187.2730  177.1710  146.3220 C   0  0  2  0  0  3  0  0  0  0  0  0
  187.7850  176.1250  147.1130 O   0  0  0  0  0  0  0  0  0  0  0  0
  190.4950  176.8350  147.4920 C   0  0  0  0  0  1  0  0  0  0  0  0
  189.7930  177.1580  146.1740 C   0  0  1  0  0  3  0  0  0  0  0  0
  190.8160  177.1600  145.0210 C   0  0  0  0  0  3  0  0  0  0  0  0
  190.6490  178.3090  144.0390 C   0  0  0  0  0  2  0  0  0  0  0  0
  190.1370  176.9230  143.6830 C   0  0  0  0  0  2  0  0  0  0  0  0
  2 20  1  0  0  0  0
  2  1  1  0  0  0  0
  3  2  2  0  0  0  0
  4  1  1  0  0  0  0
  5  3  1  0  0  0  0
  5  6  1  0  0  0  0
  6  7  1  6  0  0  0
  6  4  1  0  0  0  0
  7  9  1  0  0  0  0
  8  7  2  0  0  0  0
  9 13  1  0  0  0  0
 11 18  1  0  0  0  0
 12 13  2  0  0  0  0
 13 16  1  0  0  0  0
 14 15  2  0  0  0  0
 14 10  1  0  0  0  0
 16 11  1  0  0  0  0
 17 11  2  0  0  0  0
 17 19  1  0  0  0  0
 18 15  1  0  0  0  0
 19 14  1  0  0  0  0
 21 24  1  1  0  0  0
 22 20  1  6  0  0  0
 22 21  1  0  0  0  0
 23 22  1  0  0  0  0
 23 21  1  0  0  0  0
 24 26  1  0  0  0  0
 24 28  1  0  0  0  0
 26 27  1  6  0  0  0
 26 25  1  0  0  0  0
 29 33  1  1  0  0  0
 29 30  1  0  0  0  0
 29 31  1  0  0  0  0
 30 28  1  6  0  0  0
 30 31  1  0  0  0  0
 33 32  1  1  0  0  0
 34 33  1  0  0  0  0
 35 34  1  0  0  0  0
 36 35  1  0  0  0  0
 36 34  1  0  0  0  0
M  END
>  <MODEL>
4

>  <REMARK>
 VINA RESULT:      -6.5      2.594      5.755
  Name = 
  11 active torsions:
  status: ('A' for Active; 'I' for Inactive)
    1  A    between atoms: C_1  and  C_26
    2  A    between atoms: C_7  and  N_27
    3  A    between atoms: C_10  and  N_24
    4  A    between atoms: C_10  and  C_29
    5  A    between atoms: C_12  and  N_24
    6  A    between atoms: C_13  and  N_24
    7  A    between atoms: C_14  and  N_27
    8  A    between atoms: C_15  and  C_22
    9  A    between atoms: C_17  and  C_22
   10  A    between atoms: C_17  and  C_35
   11  A    between atoms: C_25  and  C_26
                            x       y       z     vdW  Elec       q    Type
                         _______ _______ _______ _____ _____    ______ ____

>  <TORSDO>
F 11

$$$$
=
 OpenBabel11042414423D

 36 40  0  0  1  0  0  0  0  0999 V2000
  193.9010  174.5000  144.8500 C   0  0  0  0  0  2  0  0  0  0  0  0
  193.3840  175.6280  144.0150 C   0  0  0  0  0  0  0  0  0  0  0  0
  193.0600  176.7810  144.6060 C   0  0  0  0  0  3  0  0  0  0  0  0
  193.0460  174.3530  146.1080 C   0  0  0  0  0  2  0  0  0  0  0  0
  193.2510  176.9460  146.0850 C   0  0  0  0  0  2  0  0  0  0  0  0
  192.8740  175.6790  146.8770 C   0  0  1  0  0  3  0  0  0  0  0  0
  191.4840  175.7930  147.4220 C   0  0  0  0  0  0  0  0  0  0  0  0
  191.2370  176.5590  148.3430 O   0  0  0  0  0  0  0  0  0  0  0  0
  190.3970  174.9320  146.8610 C   0  0  0  0  0  2  0  0  0  0  0  0
  184.0680  179.3010  144.8730 F   0  0  0  0  0  0  0  0  0  0  0  0
  187.0600  176.8280  146.2890 C   0  0  0  0  0  0  0  0  0  0  0  0
  189.6760  176.3420  145.0890 O   0  0  0  0  0  0  0  0  0  0  0  0
  189.3810  175.7820  146.1780 C   0  0  0  0  0  0  0  0  0  0  0  0
  185.0480  178.4960  145.3550 C   0  0  0  0  0  0  0  0  0  0  0  0
  184.8390  177.7460  146.5110 C   0  0  0  0  0  3  0  0  0  0  0  0
  188.0980  175.9760  146.7870 N   0  0  0  0  0  2  0  0  0  0  0  0
  187.2400  177.5700  145.1590 N   0  0  0  0  0  0  0  0  0  0  0  0
  185.8520  176.9110  146.9900 C   0  0  0  0  0  2  0  0  0  0  0  0
  186.2680  178.3940  144.6830 C   0  0  0  0  0  2  0  0  0  0  0  0
  193.2940  175.4600  142.5940 N   0  0  0  0  0  2  0  0  0  0  0  0
  191.8130  173.5980  142.5250 C   0  0  1  0  0  3  0  0  0  0  0  0
  193.0250  174.1800  141.9530 C   0  0  1  0  0  3  0  0  0  0  0  0
  191.7560  174.2620  141.2140 N   0  0  0  0  0  2  0  0  0  0  0  0
  191.7990  172.1460  142.3360 N   0  0  0  0  0  0  0  0  0  0  0  0
  189.8310  170.8270  142.4160 F   0  0  0  0  0  0  0  0  0  0  0  0
  190.7300  171.5720  143.1650 C   0  0  2  0  0  3  0  0  0  0  0  0
  190.0000  172.6570  143.9370 C   0  0  0  0  0  1  0  0  0  0  0  0
  193.1120  171.5320  142.6290 C   0  0  0  0  0  2  0  0  0  0  0  0
  194.6700  170.5970  144.2800 C   0  0  2  0  0  3  0  0  0  0  0  0
  193.3230  171.1870  144.1030 C   0  0  2  0  0  3  0  0  0  0  0  0
  193.5120  169.7980  144.2390 O   0  0  0  0  0  0  0  0  0  0  0  0
  194.9460  169.5640  146.6570 C   0  0  0  0  0  1  0  0  0  0  0  0
  195.2030  170.7490  145.7290 C   0  0  1  0  0  3  0  0  0  0  0  0
  196.6630  171.2200  145.8700 C   0  0  0  0  0  3  0  0  0  0  0  0
  196.8170  172.7090  146.1370 C   0  0  0  0  0  2  0  0  0  0  0  0
  197.0510  172.1580  144.7410 C   0  0  0  0  0  2  0  0  0  0  0  0
  1  4  1  0  0  0  0
  2  3  2  0  0  0  0
  2  1  1  0  0  0  0
  3  5  1  0  0  0  0
  4  6  1  0  0  0  0
  5  6  1  0  0  0  0
  6  7  1  6  0  0  0
  7  8  2  0  0  0  0
  9  7  1  0  0  0  0
 10 14  1  0  0  0  0
 11 16  1  0  0  0  0
 11 18  1  0  0  0  0
 12 13  2  0  0  0  0
 13 16  1  0  0  0  0
 13  9  1  0  0  0  0
 14 15  2  0  0  0  0
 15 18  1  0  0  0  0
 17 11  2  0  0  0  0
 19 17  1  0  0  0  0
 19 14  1  0  0  0  0
 20  2  1  0  0  0  0
 21 24  1  6  0  0  0
 22 21  1  0  0  0  0
 22 20  1  1  0  0  0
 23 22  1  0  0  0  0
 23 21  1  0  0  0  0
 24 28  1  0  0  0  0
 24 26  1  0  0  0  0
 25 26  1  0  0  0  0
 26 27  1  6  0  0  0
 29 33  1  1  0  0  0
 30 28  1  6  0  0  0
 30 31  1  0  0  0  0
 30 29  1  0  0  0  0
 31 29  1  0  0  0  0
 33 34  1  0  0  0  0
 33 32  1  6  0  0  0
 34 35  1  0  0  0  0
 36 34  1  0  0  0  0
 36 35  1  0  0  0  0
M  END
>  <MODEL>
5

>  <REMARK>
 VINA RESULT:      -6.5      2.643      7.852
  Name = 
  11 active torsions:
  status: ('A' for Active; 'I' for Inactive)
    1  A    between atoms: C_1  and  C_26
    2  A    between atoms: C_7  and  N_27
    3  A    between atoms: C_10  and  N_24
    4  A    between atoms: C_10  and  C_29
    5  A    between atoms: C_12  and  N_24
    6  A    between atoms: C_13  and  N_24
    7  A    between atoms: C_14  and  N_27
    8  A    between atoms: C_15  and  C_22
    9  A    between atoms: C_17  and  C_22
   10  A    between atoms: C_17  and  C_35
   11  A    between atoms: C_25  and  C_26
                            x       y       z     vdW  Elec       q    Type
                         _______ _______ _______ _____ _____    ______ ____

>  <TORSDO>
F 11

$$$$
=
 OpenBabel11042414423D

 36 40  0  0  1  0  0  0  0  0999 V2000
  192.0800  172.5640  139.6580 C   0  0  0  0  0  2  0  0  0  0  0  0
  192.5970  172.3780  141.0480 C   0  0  0  0  0  0  0  0  0  0  0  0
  191.8100  171.8110  141.9670 C   0  0  0  0  0  3  0  0  0  0  0  0
  190.6560  173.1180  139.7050 C   0  0  0  0  0  2  0  0  0  0  0  0
  190.4380  171.3370  141.5880 C   0  0  0  0  0  2  0  0  0  0  0  0
  189.7230  172.2990  140.6200 C   0  0  1  0  0  3  0  0  0  0  0  0
  188.7950  173.2060  141.3690 C   0  0  0  0  0  0  0  0  0  0  0  0
  187.7030  172.8050  141.7470 O   0  0  0  0  0  0  0  0  0  0  0  0
  189.1920  174.6260  141.6210 C   0  0  0  0  0  2  0  0  0  0  0  0
  183.1300  179.3050  143.7290 F   0  0  0  0  0  0  0  0  0  0  0  0
  186.3120  176.7360  143.1400 C   0  0  0  0  0  0  0  0  0  0  0  0
  187.4780  175.9120  140.5930 O   0  0  0  0  0  0  0  0  0  0  0  0
  187.9780  175.4890  141.6690 C   0  0  0  0  0  0  0  0  0  0  0  0
  184.1840  178.4700  143.5490 C   0  0  0  0  0  0  0  0  0  0  0  0
  184.7930  177.8580  144.6420 C   0  0  0  0  0  3  0  0  0  0  0  0
  187.4200  175.8510  142.9390 N   0  0  0  0  0  2  0  0  0  0  0  0
  185.6980  177.3450  142.0850 N   0  0  0  0  0  0  0  0  0  0  0  0
  185.8690  176.9910  144.4420 C   0  0  0  0  0  2  0  0  0  0  0  0
  184.6540  178.1990  142.2620 C   0  0  0  0  0  2  0  0  0  0  0  0
  193.9440  172.7680  141.3510 N   0  0  0  0  0  2  0  0  0  0  0  0
  194.5700  173.8410  143.3820 C   0  0  1  0  0  3  0  0  0  0  0  0
  194.2900  174.0450  141.9610 C   0  0  1  0  0  3  0  0  0  0  0  0
  195.6830  173.9980  142.4320 N   0  0  0  0  0  2  0  0  0  0  0  0
  194.3870  175.0880  144.1270 N   0  0  0  0  0  0  0  0  0  0  0  0
  195.1500  175.0650  146.3710 F   0  0  0  0  0  0  0  0  0  0  0  0
  194.0900  174.7620  145.5280 C   0  0  2  0  0  3  0  0  0  0  0  0
  193.7020  173.3010  145.6750 C   0  0  0  0  0  1  0  0  0  0  0  0
  193.3440  175.9490  143.5290 C   0  0  0  0  0  2  0  0  0  0  0  0
  191.0300  176.4450  144.1840 C   0  0  2  0  0  3  0  0  0  0  0  0
  192.4500  176.6470  144.5540 C   0  0  2  0  0  3  0  0  0  0  0  0
  191.7000  177.6530  143.9170 O   0  0  0  0  0  0  0  0  0  0  0  0
  189.2290  177.8570  145.4320 C   0  0  0  0  0  1  0  0  0  0  0  0
  190.0710  176.5830  145.3950 C   0  0  1  0  0  3  0  0  0  0  0  0
  189.1870  175.3600  145.7060 C   0  0  0  0  0  3  0  0  0  0  0  0
  189.6070  174.5840  146.9440 C   0  0  0  0  0  2  0  0  0  0  0  0
  189.9680  174.0660  145.5620 C   0  0  0  0  0  2  0  0  0  0  0  0
  1  4  1  0  0  0  0
  1  2  1  0  0  0  0
  2 20  1  0  0  0  0
  2  3  2  0  0  0  0
  4  6  1  0  0  0  0
  5  3  1  0  0  0  0
  6  7  1  1  0  0  0
  6  5  1  0  0  0  0
  7  9  1  0  0  0  0
  7  8  2  0  0  0  0
  9 13  1  0  0  0  0
 11 18  1  0  0  0  0
 12 13  2  0  0  0  0
 13 16  1  0  0  0  0
 14 10  1  0  0  0  0
 14 15  2  0  0  0  0
 16 11  1  0  0  0  0
 17 19  1  0  0  0  0
 17 11  2  0  0  0  0
 18 15  1  0  0  0  0
 19 14  1  0  0  0  0
 21 24  1  1  0  0  0
 22 20  1  6  0  0  0
 22 23  1  0  0  0  0
 22 21  1  0  0  0  0
 23 21  1  0  0  0  0
 24 26  1  0  0  0  0
 26 27  1  6  0  0  0
 26 25  1  0  0  0  0
 28 24  1  0  0  0  0
 29 30  1  0  0  0  0
 29 33  1  1  0  0  0
 30 28  1  6  0  0  0
 31 29  1  0  0  0  0
 31 30  1  0  0  0  0
 33 32  1  6  0  0  0
 33 34  1  0  0  0  0
 34 35  1  0  0  0  0
 36 34  1  0  0  0  0
 36 35  1  0  0  0  0
M  END
>  <MODEL>
6

>  <REMARK>
 VINA RESULT:      -6.4      2.939      6.712
  Name = 
  11 active torsions:
  status: ('A' for Active; 'I' for Inactive)
    1  A    between atoms: C_1  and  C_26
    2  A    between atoms: C_7  and  N_27
    3  A    between atoms: C_10  and  N_24
    4  A    between atoms: C_10  and  C_29
    5  A    between atoms: C_12  and  N_24
    6  A    between atoms: C_13  and  N_24
    7  A    between atoms: C_14  and  N_27
    8  A    between atoms: C_15  and  C_22
    9  A    between atoms: C_17  and  C_22
   10  A    between atoms: C_17  and  C_35
   11  A    between atoms: C_25  and  C_26
                            x       y       z     vdW  Elec       q    Type
                         _______ _______ _______ _____ _____    ______ ____

>  <TORSDO>
F 11

$$$$
=
 OpenBabel11042414423D

 36 40  0  0  1  0  0  0  0  0999 V2000
  189.7830  174.7660  146.0570 C   0  0  0  0  0  2  0  0  0  0  0  0
  189.5670  175.2900  144.6740 C   0  0  0  0  0  0  0  0  0  0  0  0
  189.2930  176.5860  144.5010 C   0  0  0  0  0  3  0  0  0  0  0  0
  188.7090  175.3200  146.9940 C   0  0  0  0  0  2  0  0  0  0  0  0
  189.2420  177.5050  145.6860 C   0  0  0  0  0  2  0  0  0  0  0  0
  188.5750  176.8550  146.9140 C   0  0  1  0  0  3  0  0  0  0  0  0
  187.1360  177.2610  147.0080 C   0  0  0  0  0  0  0  0  0  0  0  0
  186.2790  176.4470  147.3210 O   0  0  0  0  0  0  0  0  0  0  0  0
  186.7410  178.6650  146.6780 C   0  0  0  0  0  2  0  0  0  0  0  0
  182.9060  178.0000  139.7540 F   0  0  0  0  0  0  0  0  0  0  0  0
  185.3440  178.3410  143.0720 C   0  0  0  0  0  0  0  0  0  0  0  0
  184.5240  178.8170  145.8340 O   0  0  0  0  0  0  0  0  0  0  0  0
  185.7460  178.6620  145.5680 C   0  0  0  0  0  0  0  0  0  0  0  0
  183.7160  178.0970  140.8370 C   0  0  0  0  0  0  0  0  0  0  0  0
  185.1000  178.0280  140.6920 C   0  0  0  0  0  3  0  0  0  0  0  0
  186.1910  178.4510  144.2220 N   0  0  0  0  0  2  0  0  0  0  0  0
  183.9870  178.4080  143.1900 N   0  0  0  0  0  0  0  0  0  0  0  0
  185.9240  178.1420  141.8150 C   0  0  0  0  0  3  0  0  0  0  0  0
  183.1700  178.2910  142.1080 C   0  0  0  0  0  3  0  0  0  0  0  0
  189.7060  174.3970  143.5600 N   0  0  0  0  0  2  0  0  0  0  0  0
  191.0880  173.4840  141.8490 C   0  0  1  0  0  3  0  0  0  0  0  0
  190.4930  174.7110  142.3740 C   0  0  1  0  0  3  0  0  0  0  0  0
  189.8940  174.0530  141.2040 N   0  0  0  0  0  2  0  0  0  0  0  0
  192.2700  173.7880  141.0410 N   0  0  0  0  0  0  0  0  0  0  0  0
  194.1550  172.7170  140.0830 F   0  0  0  0  0  0  0  0  0  0  0  0
  192.8870  172.5260  140.6130 C   0  0  2  0  0  3  0  0  0  0  0  0
  192.0040  171.8000  139.6150 C   0  0  0  0  0  1  0  0  0  0  0  0
  193.2300  174.6550  141.7590 C   0  0  0  0  0  2  0  0  0  0  0  0
  194.6570  175.0300  143.7210 C   0  0  2  0  0  3  0  0  0  0  0  0
  193.7390  174.0640  143.0730 C   0  0  2  0  0  3  0  0  0  0  0  0
  195.1370  173.9130  143.0110 O   0  0  0  0  0  0  0  0  0  0  0  0
  196.0760  174.2110  145.7490 C   0  0  0  0  0  1  0  0  0  0  0  0
  194.7640  174.8160  145.2530 C   0  0  1  0  0  3  0  0  0  0  0  0
  194.3730  176.0180  146.1360 C   0  0  0  0  0  3  0  0  0  0  0  0
  193.0230  175.8770  146.8220 C   0  0  0  0  0  2  0  0  0  0  0  0
  193.1590  176.7390  145.5790 C   0  0  0  0  0  2  0  0  0  0  0  0
  1  4  1  0  0  0  0
  2  1  1  0  0  0  0
  3  2  2  0  0  0  0
  3  5  1  0  0  0  0
  5  6  1  0  0  0  0
  6  4  1  0  0  0  0
  6  7  1  6  0  0  0
  7  8  2  0  0  0  0
  9  7  1  0  0  0  0
 10 14  1  0  0  0  0
 11 17  2  0  0  0  0
 11 16  1  0  0  0  0
 13 12  2  0  0  0  0
 13  9  1  0  0  0  0
 14 19  2  0  0  0  0
 15 14  1  0  0  0  0
 15 18  2  0  0  0  0
 16 13  1  0  0  0  0
 18 11  1  0  0  0  0
 19 17  1  0  0  0  0
 20  2  1  0  0  0  0
 21 24  1  6  0  0  0
 21 22  1  0  0  0  0
 22 20  1  1  0  0  0
 23 21  1  0  0  0  0
 23 22  1  0  0  0  0
 24 28  1  0  0  0  0
 25 26  1  0  0  0  0
 26 27  1  6  0  0  0
 26 24  1  0  0  0  0
 29 33  1  1  0  0  0
 30 28  1  6  0  0  0
 30 29  1  0  0  0  0
 31 30  1  0  0  0  0
 31 29  1  0  0  0  0
 33 32  1  6  0  0  0
 33 34  1  0  0  0  0
 34 35  1  0  0  0  0
 36 34  1  0  0  0  0
 36 35  1  0  0  0  0
M  END
>  <MODEL>
7

>  <REMARK>
 VINA RESULT:      -6.3      2.702      8.130
  Name = 
  11 active torsions:
  status: ('A' for Active; 'I' for Inactive)
    1  A    between atoms: C_1  and  C_26
    2  A    between atoms: C_7  and  N_27
    3  A    between atoms: C_10  and  N_24
    4  A    between atoms: C_10  and  C_29
    5  A    between atoms: C_12  and  N_24
    6  A    between atoms: C_13  and  N_24
    7  A    between atoms: C_14  and  N_27
    8  A    between atoms: C_15  and  C_22
    9  A    between atoms: C_17  and  C_22
   10  A    between atoms: C_17  and  C_35
   11  A    between atoms: C_25  and  C_26
                            x       y       z     vdW  Elec       q    Type
                         _______ _______ _______ _____ _____    ______ ____

>  <TORSDO>
F 11

$$$$
=
 OpenBabel11042414423D

 36 40  0  0  1  0  0  0  0  0999 V2000
  194.5390  177.1390  145.8820 C   0  0  0  0  0  2  0  0  0  0  0  0
  193.7620  175.9840  146.4260 C   0  0  0  0  0  0  0  0  0  0  0  0
  194.2380  174.7460  146.2720 C   0  0  0  0  0  3  0  0  0  0  0  0
  195.0260  176.8160  144.4690 C   0  0  0  0  0  2  0  0  0  0  0  0
  195.5580  174.5300  145.5910 C   0  0  0  0  0  2  0  0  0  0  0  0
  195.7620  175.4630  144.3820 C   0  0  1  0  0  3  0  0  0  0  0  0
  195.4130  174.7570  143.1070 C   0  0  0  0  0  0  0  0  0  0  0  0
  195.5540  173.5470  143.0070 O   0  0  0  0  0  0  0  0  0  0  0  0
  194.9250  175.5470  141.9350 C   0  0  0  0  0  2  0  0  0  0  0  0
  187.8140  172.6650  139.8820 F   0  0  0  0  0  0  0  0  0  0  0  0
  191.2990  174.2640  141.4190 C   0  0  0  0  0  0  0  0  0  0  0  0
  193.9370  174.2990  140.1690 O   0  0  0  0  0  0  0  0  0  0  0  0
  193.7770  174.8430  141.2940 C   0  0  0  0  0  0  0  0  0  0  0  0
  188.9480  173.2050  140.3920 C   0  0  0  0  0  0  0  0  0  0  0  0
  188.9490  173.7730  141.6640 C   0  0  0  0  0  3  0  0  0  0  0  0
  192.5040  174.8270  141.9520 N   0  0  0  0  0  2  0  0  0  0  0  0
  191.2740  173.7010  140.1770 N   0  0  0  0  0  0  0  0  0  0  0  0
  190.1280  174.3140  142.1830 C   0  0  0  0  0  2  0  0  0  0  0  0
  190.1340  173.1760  139.6540 C   0  0  0  0  0  2  0  0  0  0  0  0
  192.5460  176.2370  147.1440 N   0  0  0  0  0  2  0  0  0  0  0  0
  191.1760  176.5720  145.2260 C   0  0  1  0  0  3  0  0  0  0  0  0
  191.2220  176.0200  146.5790 C   0  0  1  0  0  3  0  0  0  0  0  0
  191.3270  175.1210  145.4200 N   0  0  0  0  0  2  0  0  0  0  0  0
  189.7970  176.8700  144.8360 N   0  0  0  0  0  0  0  0  0  0  0  0
  188.9670  177.3790  142.6750 F   0  0  0  0  0  0  0  0  0  0  0  0
  189.8180  177.7900  143.6920 C   0  0  2  0  0  3  0  0  0  0  0  0
  191.2290  177.9630  143.1590 C   0  0  0  0  0  1  0  0  0  0  0  0
  189.0020  177.4090  145.9610 C   0  0  0  0  0  2  0  0  0  0  0  0
  186.6760  178.1850  146.0820 C   0  0  2  0  0  3  0  0  0  0  0  0
  187.5340  176.9850  145.9450 C   0  0  2  0  0  3  0  0  0  0  0  0
  186.9310  177.3290  147.1700 O   0  0  0  0  0  0  0  0  0  0  0  0
  184.1080  178.0920  146.5190 C   0  0  0  0  0  1  0  0  0  0  0  0
  185.2500  177.9680  145.5120 C   0  0  1  0  0  3  0  0  0  0  0  0
  184.9050  178.7470  144.2280 C   0  0  0  0  0  3  0  0  0  0  0  0
  185.1810  177.9840  142.9410 C   0  0  0  0  0  2  0  0  0  0  0  0
  186.1520  179.0510  143.4170 C   0  0  0  0  0  2  0  0  0  0  0  0
  1  2  1  0  0  0  0
  2 20  1  0  0  0  0
  3  2  2  0  0  0  0
  4  1  1  0  0  0  0
  5  3  1  0  0  0  0
  6  7  1  6  0  0  0
  6  4  1  0  0  0  0
  6  5  1  0  0  0  0
  8  7  2  0  0  0  0
  9  7  1  0  0  0  0
 10 14  1  0  0  0  0
 11 16  1  0  0  0  0
 11 18  1  0  0  0  0
 12 13  2  0  0  0  0
 13  9  1  0  0  0  0
 13 16  1  0  0  0  0
 14 15  2  0  0  0  0
 15 18  1  0  0  0  0
 17 11  2  0  0  0  0
 19 17  1  0  0  0  0
 19 14  1  0  0  0  0
 21 24  1  6  0  0  0
 21 23  1  0  0  0  0
 21 22  1  0  0  0  0
 22 20  1  1  0  0  0
 23 22  1  0  0  0  0
 24 28  1  0  0  0  0
 25 26  1  0  0  0  0
 26 27  1  6  0  0  0
 26 24  1  0  0  0  0
 29 33  1  6  0  0  0
 29 31  1  0  0  0  0
 30 28  1  1  0  0  0
 30 29  1  0  0  0  0
 30 31  1  0  0  0  0
 33 32  1  1  0  0  0
 34 33  1  0  0  0  0
 35 36  1  0  0  0  0
 35 34  1  0  0  0  0
 36 34  1  0  0  0  0
M  END
>  <MODEL>
8

>  <REMARK>
 VINA RESULT:      -6.3      1.682      2.481
  Name = 
  11 active torsions:
  status: ('A' for Active; 'I' for Inactive)
    1  A    between atoms: C_1  and  C_26
    2  A    between atoms: C_7  and  N_27
    3  A    between atoms: C_10  and  N_24
    4  A    between atoms: C_10  and  C_29
    5  A    between atoms: C_12  and  N_24
    6  A    between atoms: C_13  and  N_24
    7  A    between atoms: C_14  and  N_27
    8  A    between atoms: C_15  and  C_22
    9  A    between atoms: C_17  and  C_22
   10  A    between atoms: C_17  and  C_35
   11  A    between atoms: C_25  and  C_26
                            x       y       z     vdW  Elec       q    Type
                         _______ _______ _______ _____ _____    ______ ____

>  <TORSDO>
F 11

$$$$
=
 OpenBabel11042414423D

 36 40  0  0  1  0  0  0  0  0999 V2000
  191.4860  170.5510  142.8010 C   0  0  0  0  0  2  0  0  0  0  0  0
  192.1490  171.6860  143.5140 C   0  0  0  0  0  0  0  0  0  0  0  0
  191.4090  172.5110  144.2590 C   0  0  0  0  0  3  0  0  0  0  0  0
  190.2050  171.0420  142.1260 C   0  0  0  0  0  2  0  0  0  0  0  0
  189.9340  172.2710  144.4030 C   0  0  0  0  0  2  0  0  0  0  0  0
  189.2760  171.8120  143.0870 C   0  0  1  0  0  3  0  0  0  0  0  0
  188.6400  172.9720  142.3840 C   0  0  0  0  0  0  0  0  0  0  0  0
  187.5310  172.8610  141.8800 O   0  0  0  0  0  0  0  0  0  0  0  0
  189.3850  174.2630  142.2640 C   0  0  0  0  0  2  0  0  0  0  0  0
  184.4630  180.1570  144.2980 F   0  0  0  0  0  0  0  0  0  0  0  0
  186.9560  176.9110  143.7290 C   0  0  0  0  0  0  0  0  0  0  0  0
  188.1800  176.0310  141.2290 O   0  0  0  0  0  0  0  0  0  0  0  0
  188.4260  175.4040  142.2940 C   0  0  0  0  0  0  0  0  0  0  0  0
  185.2910  179.0960  144.1270 C   0  0  0  0  0  0  0  0  0  0  0  0
  185.5930  178.2570  145.1970 C   0  0  0  0  0  3  0  0  0  0  0  0
  187.8260  175.7890  143.5370 N   0  0  0  0  0  2  0  0  0  0  0  0
  186.6440  177.7450  142.6960 N   0  0  0  0  0  0  0  0  0  0  0  0
  186.4360  177.1600  145.0040 C   0  0  0  0  0  2  0  0  0  0  0  0
  185.8310  178.8210  142.8680 C   0  0  0  0  0  2  0  0  0  0  0  0
  193.5720  171.8330  143.4200 N   0  0  0  0  0  2  0  0  0  0  0  0
  194.8630  173.8110  143.7200 C   0  0  1  0  0  3  0  0  0  0  0  0
  194.2200  172.9440  142.7340 C   0  0  1  0  0  3  0  0  0  0  0  0
  195.6740  172.8630  142.9400 N   0  0  0  0  0  2  0  0  0  0  0  0
  195.0410  175.1610  143.1810 N   0  0  0  0  0  0  0  0  0  0  0  0
  196.8230  176.4980  143.9910 F   0  0  0  0  0  0  0  0  0  0  0  0
  195.5410  176.0340  144.2510 C   0  0  2  0  0  3  0  0  0  0  0  0
  195.5000  175.3270  145.5930 C   0  0  0  0  0  1  0  0  0  0  0  0
  193.8000  175.6890  142.5750 C   0  0  0  0  0  2  0  0  0  0  0  0
  191.7400  176.2410  143.7920 C   0  0  2  0  0  3  0  0  0  0  0  0
  193.0880  176.7380  143.4280 C   0  0  2  0  0  3  0  0  0  0  0  0
  191.9300  177.1800  142.7610 O   0  0  0  0  0  0  0  0  0  0  0  0
  190.0610  177.9260  144.8580 C   0  0  0  0  0  1  0  0  0  0  0  0
  191.1820  176.9120  145.0740 C   0  0  1  0  0  3  0  0  0  0  0  0
  190.8160  175.9640  146.2330 C   0  0  0  0  0  3  0  0  0  0  0  0
  191.1830  176.4910  147.6110 C   0  0  0  0  0  2  0  0  0  0  0  0
  192.0590  175.4490  146.9370 C   0  0  0  0  0  2  0  0  0  0  0  0
  1  2  1  0  0  0  0
  2  3  2  0  0  0  0
  3  5  1  0  0  0  0
  4  1  1  0  0  0  0
  4  6  1  0  0  0  0
  6  7  1  6  0  0  0
  6  5  1  0  0  0  0
  8  7  2  0  0  0  0
  9 13  1  0  0  0  0
  9  7  1  0  0  0  0
 11 18  1  0  0  0  0
 12 13  2  0  0  0  0
 13 16  1  0  0  0  0
 14 10  1  0  0  0  0
 14 15  2  0  0  0  0
 16 11  1  0  0  0  0
 17 19  1  0  0  0  0
 17 11  2  0  0  0  0
 18 15  1  0  0  0  0
 19 14  1  0  0  0  0
 20  2  1  0  0  0  0
 21 24  1  6  0  0  0
 22 23  1  0  0  0  0
 22 20  1  1  0  0  0
 22 21  1  0  0  0  0
 23 21  1  0  0  0  0
 24 26  1  0  0  0  0
 25 26  1  0  0  0  0
 26 27  1  1  0  0  0
 28 24  1  0  0  0  0
 29 33  1  1  0  0  0
 30 28  1  6  0  0  0
 30 29  1  0  0  0  0
 31 30  1  0  0  0  0
 31 29  1  0  0  0  0
 33 32  1  6  0  0  0
 33 34  1  0  0  0  0
 34 36  1  0  0  0  0
 34 35  1  0  0  0  0
 36 35  1  0  0  0  0
M  END
>  <MODEL>
9

>  <REMARK>
 VINA RESULT:      -6.2      2.826      6.834
  Name = 
  11 active torsions:
  status: ('A' for Active; 'I' for Inactive)
    1  A    between atoms: C_1  and  C_26
    2  A    between atoms: C_7  and  N_27
    3  A    between atoms: C_10  and  N_24
    4  A    between atoms: C_10  and  C_29
    5  A    between atoms: C_12  and  N_24
    6  A    between atoms: C_13  and  N_24
    7  A    between atoms: C_14  and  N_27
    8  A    between atoms: C_15  and  C_22
    9  A    between atoms: C_17  and  C_22
   10  A    between atoms: C_17  and  C_35
   11  A    between atoms: C_25  and  C_26
                            x       y       z     vdW  Elec       q    Type
                         _______ _______ _______ _____ _____    ______ ____

>  <TORSDO>
F 11

$$$$
