=
 OpenBabel11042415153D

 45 50  0  0  1  0  0  0  0  0999 V2000
  190.8270  178.2180  144.2880 C   0  0  0  0  0  2  0  0  0  0  0  0
  191.9790  177.3520  144.8650 C   0  0  0  0  0  2  0  0  0  0  0  0
  192.2870  171.0710  143.8010 C   0  0  0  0  0  2  0  0  0  0  0  0
  190.9270  173.2110  143.3170 C   0  0  1  0  0  3  0  0  0  0  0  0
  191.7490  175.8040  144.9270 C   0  0  1  0  0  3  0  0  0  0  0  0
  189.3660  175.7510  145.8950 C   0  0  1  0  0  3  0  0  0  0  0  0
  193.0090  173.2120  144.4930 C   0  0  0  0  0  0  0  0  0  0  0  0
  189.9710  175.5840  147.1430 O   0  0  0  0  0  1  0  0  0  0  0  0
  193.4940  174.1660  145.5300 C   0  0  2  0  0  3  0  0  0  0  0  0
  189.0040  177.2120  145.6450 C   0  0  0  0  0  2  0  0  0  0  0  0
  189.6420  176.1350  143.5520 C   0  0  1  0  0  0  0  0  0  0  0  0
  190.5030  176.1910  142.4390 O   0  0  0  0  0  1  0  0  0  0  0  0
  190.1270  173.7920  144.5020 C   0  0  0  0  0  2  0  0  0  0  0  0
  192.4620  175.0850  146.0360 N   0  0  1  0  0  0  0  0  0  0  0  0
  194.7130  174.9860  145.1880 C   0  0  1  0  0  3  0  0  0  0  0  0
  192.2690  173.6740  143.4080 O   0  0  0  0  0  0  0  0  0  0  0  0
  190.2600  175.3250  144.7130 C   0  0  1  0  0  0  0  0  0  0  0  0
  193.0070  171.9410  144.7290 N   0  0  0  0  0  0  0  0  0  0  0  0
  190.9010  171.6690  143.4470 C   0  0  1  0  0  3  0  0  0  0  0  0
  194.6630  176.0910  146.2250 C   0  0  0  0  0  2  0  0  0  0  0  0
  193.2620  176.0010  146.8590 C   0  0  0  0  0  2  0  0  0  0  0  0
  189.4720  177.5090  144.2160 C   0  0  2  0  0  3  0  0  0  0  0  0
  189.5520  171.6300  141.4600 O   0  0  0  0  0  0  0  0  0  0  0  0
  190.7000  169.6650  141.9390 N   0  0  0  0  0  1  0  0  0  0  0  0
  190.3210  171.0030  142.2410 C   0  0  0  0  0  0  0  0  0  0  0  0
  195.9750  174.1620  145.3680 C   0  0  0  0  0  2  0  0  0  0  0  0
  196.7120  173.9950  144.0440 C   0  0  1  0  0  3  0  0  0  0  0  0
  196.2830  172.8430  143.3780 O   0  0  0  0  0  1  0  0  0  0  0  0
  195.6900  175.0770  142.0030 N   0  0  0  0  0  2  0  0  0  0  0  0
  197.2380  176.2530  143.3230 N   0  0  0  0  0  1  0  0  0  0  0  0
  196.4910  175.2030  143.1740 C   0  0  0  0  0  0  0  0  0  0  0  0
  188.2770  175.5880  143.0930 C   0  0  0  0  0  2  0  0  0  0  0  0
  187.8790  176.1390  141.7210 C   0  0  0  0  0  2  0  0  0  0  0  0
  186.5320  176.6930  141.7600 N   0  0  0  0  0  2  0  0  0  0  0  0
  186.4340  177.7360  142.7910 C   0  0  1  0  0  3  0  0  0  0  0  0
  186.5490  179.0070  142.2080 O   0  0  0  0  0  1  0  0  0  0  0  0
  185.1350  177.6070  143.6240 C   0  0  1  0  0  3  0  0  0  0  0  0
  185.9110  178.1560  147.8230 C   0  0  0  0  0  3  0  0  0  0  0  0
  185.5230  179.0730  145.6100 C   0  0  0  0  0  3  0  0  0  0  0  0
  185.7750  176.8630  147.3080 C   0  0  0  0  0  3  0  0  0  0  0  0
  185.7850  179.2610  146.9730 C   0  0  0  0  0  3  0  0  0  0  0  0
  185.5120  176.6730  145.9470 C   0  0  0  0  0  3  0  0  0  0  0  0
  185.3770  177.7810  145.0920 C   0  0  0  0  0  0  0  0  0  0  0  0
  183.3890  178.0070  142.0080 O   0  0  0  0  0  1  0  0  0  0  0  0
  184.0270  178.5410  143.1320 C   0  0  0  0  0  2  0  0  0  0  0  0
  1  2  1  0  0  0  0
  3 18  1  0  0  0  0
  4 16  1  0  0  0  0
  4 19  1  0  0  0  0
  4 13  1  1  0  0  0
  5  2  1  1  0  0  0
  5 14  1  0  0  0  0
  6  8  1  1  0  0  0
  7 18  2  0  0  0  0
  9  7  1  6  0  0  0
  9 14  1  0  0  0  0
 10  6  1  0  0  0  0
 11 12  1  6  0  0  0
 11 22  1  0  0  0  0
 11 17  1  0  0  0  0
 14 21  1  1  0  0  0
 15 26  1  1  0  0  0
 15  9  1  0  0  0  0
 15 20  1  0  0  0  0
 16  7  1  0  0  0  0
 17 13  1  6  0  0  0
 17  5  1  0  0  0  0
 17  6  1  0  0  0  0
 19 25  1  6  0  0  0
 19  3  1  0  0  0  0
 20 21  1  0  0  0  0
 22  1  1  1  0  0  0
 22 10  1  0  0  0  0
 23 25  2  0  0  0  0
 24 25  1  0  0  0  0
 27 28  1  6  0  0  0
 27 26  1  0  0  0  0
 29 31  2  0  0  0  0
 31 30  1  0  0  0  0
 31 27  1  0  0  0  0
 32 11  1  0  0  0  0
 33 34  1  0  0  0  0
 33 32  1  0  0  0  0
 34 35  1  0  0  0  0
 35 36  1  6  0  0  0
 35 37  1  0  0  0  0
 37 45  1  6  0  0  0
 37 43  1  0  0  0  0
 39 41  1  0  0  0  0
 40 38  1  0  0  0  0
 41 38  2  0  0  0  0
 42 40  2  0  0  0  0
 43 39  2  0  0  0  0
 43 42  1  0  0  0  0
 44 45  1  0  0  0  0
M  END
>  <MODEL>
1

>  <REMARK>
 VINA RESULT:      -8.6      0.000      0.000
  Name = 
  11 active torsions:
  status: ('A' for Active; 'I' for Inactive)
    1  A    between atoms: C_4  and  C_5
    2  A    between atoms: C_4  and  N_40
    3  A    between atoms: C_5  and  C_31
    4  A    between atoms: C_5  and  C_45
    5  A    between atoms: C_7  and  C_15
    6  A    between atoms: C_7  and  C_29
    7  A    between atoms: C_15  and  C_44
    8  A    between atoms: C_19  and  C_24
    9  A    between atoms: C_19  and  C_34
   10  A    between atoms: C_34  and  N_40
   11  A    between atoms: C_37  and  C_38
                            x       y       z     vdW  Elec       q    Type
                         _______ _______ _______ _____ _____    ______ ____

>  <TORSDO>
F 11

$$$$
=
 OpenBabel11042415153D

 45 50  0  0  1  0  0  0  0  0999 V2000
  192.2540  174.8710  146.6960 C   0  0  0  0  0  2  0  0  0  0  0  0
  191.0500  175.6460  146.0940 C   0  0  0  0  0  2  0  0  0  0  0  0
  188.5680  174.0830  140.4300 C   0  0  0  0  0  2  0  0  0  0  0  0
  190.3820  173.4680  142.1620 C   0  0  1  0  0  3  0  0  0  0  0  0
  190.7940  175.4900  144.5570 C   0  0  1  0  0  3  0  0  0  0  0  0
  193.1960  175.7750  143.6780 C   0  0  1  0  0  3  0  0  0  0  0  0
  188.7250  175.1520  142.5320 C   0  0  0  0  0  0  0  0  0  0  0  0
  192.8650  177.1160  143.4690 O   0  0  0  0  0  1  0  0  0  0  0  0
  188.8080  176.3710  143.3860 C   0  0  2  0  0  3  0  0  0  0  0  0
  193.9290  175.5840  145.0030 C   0  0  0  0  0  2  0  0  0  0  0  0
  192.5320  173.6410  144.5280 C   0  0  1  0  0  0  0  0  0  0  0  0
  191.5050  172.8110  145.0140 O   0  0  0  0  0  1  0  0  0  0  0  0
  191.5690  174.4480  142.2820 C   0  0  0  0  0  2  0  0  0  0  0  0
  190.1620  176.6710  143.8800 N   0  0  1  0  0  0  0  0  0  0  0  0
  187.8620  176.4500  144.5580 C   0  0  1  0  0  3  0  0  0  0  0  0
  189.3080  173.9610  142.9540 O   0  0  0  0  0  0  0  0  0  0  0  0
  191.9710  174.8390  143.7300 C   0  0  1  0  0  0  0  0  0  0  0  0
  188.3840  175.2520  141.2890 N   0  0  0  0  0  0  0  0  0  0  0  0
  189.9540  173.4330  140.6750 C   0  0  1  0  0  3  0  0  0  0  0  0
  188.4860  177.5410  145.4060 C   0  0  0  0  0  2  0  0  0  0  0  0
  189.8940  177.7650  144.8220 C   0  0  0  0  0  2  0  0  0  0  0  0
  193.2670  174.3690  145.6640 C   0  0  2  0  0  3  0  0  0  0  0  0
  189.3300  171.7510  139.0770 O   0  0  0  0  0  0  0  0  0  0  0  0
  190.8990  171.1010  140.6660 N   0  0  0  0  0  1  0  0  0  0  0  0
  190.0110  172.0560  140.0970 C   0  0  0  0  0  0  0  0  0  0  0  0
  186.4810  176.8790  144.0960 C   0  0  0  0  0  2  0  0  0  0  0  0
  186.0850  178.2120  144.7220 C   0  0  1  0  0  3  0  0  0  0  0  0
  185.8720  179.1800  143.7360 O   0  0  0  0  0  1  0  0  0  0  0  0
  183.8270  179.0410  145.4920 N   0  0  0  0  0  2  0  0  0  0  0  0
  184.8190  177.1720  146.5130 N   0  0  0  0  0  1  0  0  0  0  0  0
  184.8430  178.0440  145.5530 C   0  0  0  0  0  0  0  0  0  0  0  0
  193.5190  172.7820  143.7150 C   0  0  0  0  0  2  0  0  0  0  0  0
  193.3590  171.2910  144.0230 C   0  0  0  0  0  2  0  0  0  0  0  0
  194.1260  170.9240  145.2060 N   0  0  0  0  0  2  0  0  0  0  0  0
  195.0150  169.7930  144.9130 C   0  0  1  0  0  3  0  0  0  0  0  0
  194.9030  169.4240  143.5640 O   0  0  0  0  0  1  0  0  0  0  0  0
  196.4840  170.0950  145.3010 C   0  0  1  0  0  3  0  0  0  0  0  0
  197.4650  174.2370  144.6600 C   0  0  0  0  0  3  0  0  0  0  0  0
  196.8130  172.4270  146.1370 C   0  0  0  0  0  3  0  0  0  0  0  0
  197.4990  173.3440  143.5840 C   0  0  0  0  0  3  0  0  0  0  0  0
  197.1220  173.7780  145.9360 C   0  0  0  0  0  3  0  0  0  0  0  0
  197.1930  171.9930  143.7840 C   0  0  0  0  0  3  0  0  0  0  0  0
  196.8550  171.5270  145.0660 C   0  0  0  0  0  0  0  0  0  0  0  0
  195.8120  168.8360  147.2460 O   0  0  0  0  0  1  0  0  0  0  0  0
  196.8120  169.6670  146.7340 C   0  0  0  0  0  2  0  0  0  0  0  0
  2  1  1  0  0  0  0
  3 19  1  0  0  0  0
  3 18  1  0  0  0  0
  4 13  1  6  0  0  0
  4 16  1  0  0  0  0
  5  2  1  1  0  0  0
  6  8  1  1  0  0  0
  6 17  1  0  0  0  0
  6 10  1  0  0  0  0
  7 16  1  0  0  0  0
  9  7  1  1  0  0  0
  9 14  1  0  0  0  0
  9 15  1  0  0  0  0
 11 12  1  1  0  0  0
 11 22  1  0  0  0  0
 14  5  1  0  0  0  0
 14 21  1  1  0  0  0
 15 26  1  6  0  0  0
 15 20  1  0  0  0  0
 17 13  1  6  0  0  0
 17 11  1  0  0  0  0
 17  5  1  0  0  0  0
 18  7  2  0  0  0  0
 19 25  1  1  0  0  0
 19  4  1  0  0  0  0
 21 20  1  0  0  0  0
 22 10  1  6  0  0  0
 22  1  1  0  0  0  0
 23 25  2  0  0  0  0
 25 24  1  0  0  0  0
 26 27  1  0  0  0  0
 27 28  1  6  0  0  0
 27 31  1  0  0  0  0
 29 31  2  0  0  0  0
 31 30  1  0  0  0  0
 32 33  1  0  0  0  0
 32 11  1  0  0  0  0
 33 34  1  0  0  0  0
 35 36  1  6  0  0  0
 35 34  1  0  0  0  0
 35 37  1  0  0  0  0
 37 45  1  1  0  0  0
 38 41  1  0  0  0  0
 40 42  1  0  0  0  0
 40 38  2  0  0  0  0
 41 39  2  0  0  0  0
 42 43  2  0  0  0  0
 43 37  1  0  0  0  0
 43 39  1  0  0  0  0
 45 44  1  0  0  0  0
M  END
>  <MODEL>
2

>  <REMARK>
 VINA RESULT:      -7.4      2.435      8.851
  Name = 
  11 active torsions:
  status: ('A' for Active; 'I' for Inactive)
    1  A    between atoms: C_4  and  C_5
    2  A    between atoms: C_4  and  N_40
    3  A    between atoms: C_5  and  C_31
    4  A    between atoms: C_5  and  C_45
    5  A    between atoms: C_7  and  C_15
    6  A    between atoms: C_7  and  C_29
    7  A    between atoms: C_15  and  C_44
    8  A    between atoms: C_19  and  C_24
    9  A    between atoms: C_19  and  C_34
   10  A    between atoms: C_34  and  N_40
   11  A    between atoms: C_37  and  C_38
                            x       y       z     vdW  Elec       q    Type
                         _______ _______ _______ _____ _____    ______ ____

>  <TORSDO>
F 11

$$$$
=
 OpenBabel11042415153D

 45 50  0  0  1  0  0  0  0  0999 V2000
  191.5920  173.1720  140.9200 C   0  0  0  0  0  2  0  0  0  0  0  0
  190.3660  174.1070  141.1010 C   0  0  0  0  0  2  0  0  0  0  0  0
  188.9610  176.7170  146.7490 C   0  0  0  0  0  2  0  0  0  0  0  0
  190.6330  175.1900  145.5070 C   0  0  1  0  0  3  0  0  0  0  0  0
  189.8530  174.3420  142.5620 C   0  0  1  0  0  3  0  0  0  0  0  0
  189.8830  171.9210  143.4350 C   0  0  1  0  0  3  0  0  0  0  0  0
  188.8510  176.3550  144.4160 C   0  0  0  0  0  0  0  0  0  0  0  0
  188.5270  171.8780  143.1020 O   0  0  0  0  0  1  0  0  0  0  0  0
  188.1150  175.9830  143.1750 C   0  0  2  0  0  3  0  0  0  0  0  0
  190.7450  171.3110  142.3340 C   0  0  0  0  0  2  0  0  0  0  0  0
  191.9320  173.1540  143.4050 C   0  0  1  0  0  0  0  0  0  0  0  0
  192.5900  174.3800  143.1960 O   0  0  0  0  0  1  0  0  0  0  0  0
  190.1130  173.7920  145.1100 C   0  0  0  0  0  2  0  0  0  0  0  0
  188.3840  174.6160  142.7000 N   0  0  1  0  0  0  0  0  0  0  0  0
  188.2470  176.9140  141.9960 C   0  0  1  0  0  3  0  0  0  0  0  0
  190.2200  176.1230  144.5140 O   0  0  0  0  0  0  0  0  0  0  0  0
  190.4200  173.3510  143.6540 C   0  0  1  0  0  0  0  0  0  0  0  0
  188.2020  176.6150  145.5040 N   0  0  0  0  0  0  0  0  0  0  0  0
  189.9890  175.5610  146.8640 C   0  0  1  0  0  3  0  0  0  0  0  0
  187.7610  176.0540  140.8460 C   0  0  0  0  0  2  0  0  0  0  0  0
  187.7010  174.6170  141.4000 C   0  0  0  0  0  2  0  0  0  0  0  0
  191.9060  172.2920  142.1330 C   0  0  2  0  0  3  0  0  0  0  0  0
  191.6930  174.9220  148.4310 O   0  0  0  0  0  0  0  0  0  0  0  0
  191.2470  177.2010  148.2990 N   0  0  0  0  0  1  0  0  0  0  0  0
  191.0060  175.8500  147.9190 C   0  0  0  0  0  0  0  0  0  0  0  0
  187.3360  178.1160  142.1650 C   0  0  0  0  0  2  0  0  0  0  0  0
  185.9550  177.6910  142.6520 C   0  0  1  0  0  3  0  0  0  0  0  0
  185.7020  178.1940  143.9330 O   0  0  0  0  0  1  0  0  0  0  0  0
  183.5350  178.1660  142.1070 N   0  0  0  0  0  1  0  0  0  0  0  0
  185.1810  178.3140  140.4370 N   0  0  0  0  0  2  0  0  0  0  0  0
  184.8980  178.1720  141.6950 C   0  0  0  0  0  0  0  0  0  0  0  0
  192.6390  172.4010  144.5480 C   0  0  0  0  0  2  0  0  0  0  0  0
  193.9450  171.7550  144.0780 C   0  0  0  0  0  2  0  0  0  0  0  0
  194.7260  171.2850  145.2140 N   0  0  0  0  0  2  0  0  0  0  0  0
  195.6200  172.3460  145.6970 C   0  0  1  0  0  3  0  0  0  0  0  0
  196.7900  171.7880  146.2350 O   0  0  0  0  0  1  0  0  0  0  0  0
  195.9390  173.3830  144.5920 C   0  0  1  0  0  3  0  0  0  0  0  0
  194.7230  177.3790  145.6350 C   0  0  0  0  0  3  0  0  0  0  0  0
  195.8930  175.8440  144.1650 C   0  0  0  0  0  3  0  0  0  0  0  0
  194.3190  176.3030  146.4320 C   0  0  0  0  0  3  0  0  0  0  0  0
  195.5110  177.1490  144.5010 C   0  0  0  0  0  3  0  0  0  0  0  0
  194.7000  174.9990  146.0960 C   0  0  0  0  0  3  0  0  0  0  0  0
  195.4840  174.7640  144.9530 C   0  0  0  0  0  0  0  0  0  0  0  0
  197.5740  172.8930  142.8880 O   0  0  0  0  0  1  0  0  0  0  0  0
  197.4170  173.3760  144.1900 C   0  0  0  0  0  2  0  0  0  0  0  0
  1  2  1  0  0  0  0
  3 19  1  0  0  0  0
  4 13  1  6  0  0  0
  4 19  1  0  0  0  0
  5  2  1  6  0  0  0
  5 14  1  0  0  0  0
  5 17  1  0  0  0  0
  6  8  1  6  0  0  0
  6 17  1  0  0  0  0
  7 16  1  0  0  0  0
  7 18  2  0  0  0  0
  9  7  1  1  0  0  0
 10  6  1  0  0  0  0
 11 12  1  6  0  0  0
 11 17  1  0  0  0  0
 11 32  1  0  0  0  0
 14 21  1  6  0  0  0
 14  9  1  0  0  0  0
 15 26  1  1  0  0  0
 15  9  1  0  0  0  0
 16  4  1  0  0  0  0
 17 13  1  1  0  0  0
 18  3  1  0  0  0  0
 19 25  1  1  0  0  0
 20 21  1  0  0  0  0
 20 15  1  0  0  0  0
 22  1  1  6  0  0  0
 22 10  1  0  0  0  0
 22 11  1  0  0  0  0
 25 24  1  0  0  0  0
 25 23  2  0  0  0  0
 26 27  1  0  0  0  0
 27 28  1  1  0  0  0
 30 31  2  0  0  0  0
 31 29  1  0  0  0  0
 31 27  1  0  0  0  0
 33 32  1  0  0  0  0
 33 34  1  0  0  0  0
 34 35  1  0  0  0  0
 35 36  1  6  0  0  0
 37 45  1  1  0  0  0
 37 43  1  0  0  0  0
 37 35  1  0  0  0  0
 38 40  1  0  0  0  0
 39 41  1  0  0  0  0
 39 43  2  0  0  0  0
 41 38  2  0  0  0  0
 42 40  2  0  0  0  0
 43 42  1  0  0  0  0
 44 45  1  0  0  0  0
M  END
>  <MODEL>
3

>  <REMARK>
 VINA RESULT:      -7.3      2.363      8.660
  Name = 
  11 active torsions:
  status: ('A' for Active; 'I' for Inactive)
    1  A    between atoms: C_4  and  C_5
    2  A    between atoms: C_4  and  N_40
    3  A    between atoms: C_5  and  C_31
    4  A    between atoms: C_5  and  C_45
    5  A    between atoms: C_7  and  C_15
    6  A    between atoms: C_7  and  C_29
    7  A    between atoms: C_15  and  C_44
    8  A    between atoms: C_19  and  C_24
    9  A    between atoms: C_19  and  C_34
   10  A    between atoms: C_34  and  N_40
   11  A    between atoms: C_37  and  C_38
                            x       y       z     vdW  Elec       q    Type
                         _______ _______ _______ _____ _____    ______ ____

>  <TORSDO>
F 11

$$$$
=
 OpenBabel11042415153D

 45 50  0  0  1  0  0  0  0  0999 V2000
  192.1590  175.1870  147.0130 C   0  0  0  0  0  2  0  0  0  0  0  0
  190.8250  175.8490  146.5730 C   0  0  0  0  0  2  0  0  0  0  0  0
  188.2160  174.6360  140.8810 C   0  0  0  0  0  2  0  0  0  0  0  0
  190.2040  174.0830  142.4320 C   0  0  1  0  0  3  0  0  0  0  0  0
  190.4930  175.8430  145.0420 C   0  0  1  0  0  3  0  0  0  0  0  0
  192.7730  176.5680  144.0940 C   0  0  1  0  0  3  0  0  0  0  0  0
  188.3620  175.4590  143.0910 C   0  0  0  0  0  0  0  0  0  0  0  0
  192.2510  177.8650  144.0730 O   0  0  0  0  0  1  0  0  0  0  0  0
  188.3350  176.5660  144.0880 C   0  0  2  0  0  3  0  0  0  0  0  0
  193.6090  176.3270  145.3470 C   0  0  0  0  0  2  0  0  0  0  0  0
  192.4600  174.2760  144.6970 C   0  0  1  0  0  0  0  0  0  0  0  0
  191.5870  173.2560  145.1210 O   0  0  0  0  0  1  0  0  0  0  0  0
  191.2530  175.2000  142.6190 C   0  0  0  0  0  2  0  0  0  0  0  0
  189.6650  176.9940  144.5510 N   0  0  1  0  0  0  0  0  0  0  0  0
  187.4650  176.3700  145.3040 C   0  0  1  0  0  3  0  0  0  0  0  0
  189.1260  174.3200  143.3310 O   0  0  0  0  0  0  0  0  0  0  0  0
  191.6910  175.4680  144.0840 C   0  0  1  0  0  0  0  0  0  0  0  0
  187.9310  175.6560  141.8880 N   0  0  0  0  0  0  0  0  0  0  0  0
  189.6900  174.1640  140.9750 C   0  0  1  0  0  3  0  0  0  0  0  0
  187.9890  177.4290  146.2540 C   0  0  0  0  0  2  0  0  0  0  0  0
  189.3130  177.9190  145.6370 C   0  0  0  0  0  2  0  0  0  0  0  0
  193.1620  174.9600  145.8790 C   0  0  2  0  0  3  0  0  0  0  0  0
  189.9660  172.8810  138.9630 O   0  0  0  0  0  0  0  0  0  0  0  0
  190.0780  171.6780  140.9510 N   0  0  0  0  0  1  0  0  0  0  0  0
  189.8940  172.8880  140.2240 C   0  0  0  0  0  0  0  0  0  0  0  0
  186.0120  176.6500  144.9670 C   0  0  0  0  0  2  0  0  0  0  0  0
  185.8920  177.8120  143.9870 C   0  0  1  0  0  3  0  0  0  0  0  0
  185.1010  177.4590  142.8900 O   0  0  0  0  0  1  0  0  0  0  0  0
  184.2560  178.8220  145.6250 N   0  0  0  0  0  1  0  0  0  0  0  0
  185.5370  180.2030  144.2200 N   0  0  0  0  0  2  0  0  0  0  0  0
  185.3030  179.0120  144.6780 C   0  0  0  0  0  0  0  0  0  0  0  0
  193.4990  173.6690  143.7340 C   0  0  0  0  0  2  0  0  0  0  0  0
  194.5450  172.8380  144.4830 C   0  0  0  0  0  2  0  0  0  0  0  0
  195.8710  173.0500  143.9180 N   0  0  0  0  0  2  0  0  0  0  0  0
  196.3100  174.4340  144.1430 C   0  0  1  0  0  3  0  0  0  0  0  0
  197.0910  174.5130  145.3070 O   0  0  0  0  0  1  0  0  0  0  0  0
  197.0580  175.0110  142.9150 C   0  0  1  0  0  3  0  0  0  0  0  0
  194.9890  174.4110  139.1880 C   0  0  0  0  0  3  0  0  0  0  0  0
  196.7700  173.8320  140.7310 C   0  0  0  0  0  3  0  0  0  0  0  0
  194.5310  175.3810  140.0850 C   0  0  0  0  0  3  0  0  0  0  0  0
  196.1090  173.6360  139.5120 C   0  0  0  0  0  3  0  0  0  0  0  0
  195.1890  175.5770  141.3040 C   0  0  0  0  0  3  0  0  0  0  0  0
  196.3090  174.7960  141.6360 C   0  0  0  0  0  0  0  0  0  0  0  0
  196.4560  177.1570  143.8380 O   0  0  0  0  0  1  0  0  0  0  0  0
  197.4310  176.4850  143.0950 C   0  0  0  0  0  2  0  0  0  0  0  0
  2  1  1  0  0  0  0
  3 19  1  0  0  0  0
  3 18  1  0  0  0  0
  4 13  1  6  0  0  0
  4 16  1  0  0  0  0
  5  2  1  1  0  0  0
  6  8  1  1  0  0  0
  6 10  1  0  0  0  0
  7 16  1  0  0  0  0
  9  7  1  1  0  0  0
  9 14  1  0  0  0  0
  9 15  1  0  0  0  0
 11 12  1  1  0  0  0
 11 22  1  0  0  0  0
 14  5  1  0  0  0  0
 14 21  1  1  0  0  0
 15 26  1  6  0  0  0
 15 20  1  0  0  0  0
 17 13  1  6  0  0  0
 17  6  1  0  0  0  0
 17 11  1  0  0  0  0
 17  5  1  0  0  0  0
 18  7  2  0  0  0  0
 19 25  1  1  0  0  0
 19  4  1  0  0  0  0
 21 20  1  0  0  0  0
 22 10  1  6  0  0  0
 22  1  1  0  0  0  0
 23 25  2  0  0  0  0
 25 24  1  0  0  0  0
 27 28  1  6  0  0  0
 27 31  1  0  0  0  0
 27 26  1  0  0  0  0
 30 31  2  0  0  0  0
 31 29  1  0  0  0  0
 32 33  1  0  0  0  0
 32 11  1  0  0  0  0
 34 35  1  0  0  0  0
 34 33  1  0  0  0  0
 35 36  1  1  0  0  0
 37 45  1  1  0  0  0
 37 35  1  0  0  0  0
 38 41  2  0  0  0  0
 38 40  1  0  0  0  0
 39 43  2  0  0  0  0
 40 42  2  0  0  0  0
 41 39  1  0  0  0  0
 42 43  1  0  0  0  0
 43 37  1  0  0  0  0
 45 44  1  0  0  0  0
M  END
>  <MODEL>
4

>  <REMARK>
 VINA RESULT:      -7.1      2.348      8.437
  Name = 
  11 active torsions:
  status: ('A' for Active; 'I' for Inactive)
    1  A    between atoms: C_4  and  C_5
    2  A    between atoms: C_4  and  N_40
    3  A    between atoms: C_5  and  C_31
    4  A    between atoms: C_5  and  C_45
    5  A    between atoms: C_7  and  C_15
    6  A    between atoms: C_7  and  C_29
    7  A    between atoms: C_15  and  C_44
    8  A    between atoms: C_19  and  C_24
    9  A    between atoms: C_19  and  C_34
   10  A    between atoms: C_34  and  N_40
   11  A    between atoms: C_37  and  C_38
                            x       y       z     vdW  Elec       q    Type
                         _______ _______ _______ _____ _____    ______ ____

>  <TORSDO>
F 11

$$$$
=
 OpenBabel11042415153D

 45 50  0  0  1  0  0  0  0  0999 V2000
  195.1470  177.1230  145.0190 C   0  0  0  0  0  2  0  0  0  0  0  0
  195.5010  176.2200  143.8060 C   0  0  0  0  0  2  0  0  0  0  0  0
  190.9930  173.1360  140.5120 C   0  0  0  0  0  2  0  0  0  0  0  0
  191.4090  174.7490  142.4850 C   0  0  1  0  0  3  0  0  0  0  0  0
  194.4200  175.1850  143.3440 C   0  0  1  0  0  3  0  0  0  0  0  0
  193.7290  174.2200  145.6270 C   0  0  1  0  0  3  0  0  0  0  0  0
  193.1370  173.9950  141.0140 C   0  0  0  0  0  0  0  0  0  0  0  0
  194.6400  173.1930  145.3700 O   0  0  0  0  0  1  0  0  0  0  0  0
  194.5910  173.8240  141.2920 C   0  0  2  0  0  3  0  0  0  0  0  0
  194.3470  175.3020  146.5090 C   0  0  0  0  0  2  0  0  0  0  0  0
  192.7800  176.3000  144.9280 C   0  0  1  0  0  0  0  0  0  0  0  0
  192.6180  177.2640  143.9150 O   0  0  0  0  0  1  0  0  0  0  0  0
  192.0550  174.1330  143.7440 C   0  0  0  0  0  2  0  0  0  0  0  0
  194.9490  173.9290  142.7160 N   0  0  1  0  0  0  0  0  0  0  0  0
  195.5440  174.6960  140.5130 C   0  0  1  0  0  3  0  0  0  0  0  0
  192.4410  175.0700  141.5590 O   0  0  0  0  0  0  0  0  0  0  0  0
  193.2330  174.9380  144.3550 C   0  0  1  0  0  0  0  0  0  0  0  0
  192.4500  173.0150  140.5230 N   0  0  0  0  0  0  0  0  0  0  0  0
  190.4750  173.6810  141.8680 C   0  0  1  0  0  3  0  0  0  0  0  0
  196.8240  174.5790  141.3170 C   0  0  0  0  0  2  0  0  0  0  0  0
  196.4170  173.9240  142.6510 C   0  0  0  0  0  2  0  0  0  0  0  0
  193.9600  176.6330  145.8530 C   0  0  2  0  0  3  0  0  0  0  0  0
  188.2560  174.0380  142.7160 O   0  0  0  0  0  0  0  0  0  0  0  0
  188.6480  174.8100  140.5570 N   0  0  0  0  0  1  0  0  0  0  0  0
  189.0630  174.1560  141.7510 C   0  0  0  0  0  0  0  0  0  0  0  0
  195.7550  174.1350  139.1180 C   0  0  0  0  0  2  0  0  0  0  0  0
  196.2110  175.2260  138.1550 C   0  0  1  0  0  3  0  0  0  0  0  0
  197.5390  175.0240  137.7680 O   0  0  0  0  0  1  0  0  0  0  0  0
  195.8860  175.5630  135.6720 N   0  0  0  0  0  2  0  0  0  0  0  0
  194.0320  175.2660  137.0840 N   0  0  0  0  0  1  0  0  0  0  0  0
  195.3210  175.2480  136.9410 C   0  0  0  0  0  0  0  0  0  0  0  0
  191.4720  176.2100  145.7380 C   0  0  0  0  0  2  0  0  0  0  0  0
  190.4810  177.3050  145.3360 C   0  0  0  0  0  2  0  0  0  0  0  0
  189.3270  176.7310  144.6570 N   0  0  0  0  0  2  0  0  0  0  0  0
  188.7380  177.7060  143.7300 C   0  0  1  0  0  3  0  0  0  0  0  0
  189.5340  177.8270  142.5800 O   0  0  0  0  0  1  0  0  0  0  0  0
  187.2720  177.3550  143.3730 C   0  0  1  0  0  3  0  0  0  0  0  0
  184.5950  178.3810  146.5840 C   0  0  0  0  0  3  0  0  0  0  0  0
  185.9590  179.0280  144.6860 C   0  0  0  0  0  3  0  0  0  0  0  0
  184.9570  177.0450  146.3870 C   0  0  0  0  0  3  0  0  0  0  0  0
  185.0960  179.3730  145.7330 C   0  0  0  0  0  3  0  0  0  0  0  0
  185.8190  176.6990  145.3390 C   0  0  0  0  0  3  0  0  0  0  0  0
  186.3180  177.6910  144.4780 C   0  0  0  0  0  0  0  0  0  0  0  0
  185.6280  177.4040  141.6090 O   0  0  0  0  0  1  0  0  0  0  0  0
  186.8250  177.9770  142.0480 C   0  0  0  0  0  2  0  0  0  0  0  0
  2  1  1  0  0  0  0
  3 18  1  0  0  0  0
  3 19  1  0  0  0  0
  4 13  1  1  0  0  0
  5  2  1  1  0  0  0
  5 17  1  0  0  0  0
  6  8  1  6  0  0  0
  6 10  1  0  0  0  0
  7 16  1  0  0  0  0
  9  7  1  1  0  0  0
  9 14  1  0  0  0  0
 11 12  1  6  0  0  0
 11 32  1  0  0  0  0
 11 22  1  0  0  0  0
 14 21  1  6  0  0  0
 14  5  1  0  0  0  0
 15 26  1  6  0  0  0
 15  9  1  0  0  0  0
 15 20  1  0  0  0  0
 16  4  1  0  0  0  0
 17 13  1  6  0  0  0
 17 11  1  0  0  0  0
 17  6  1  0  0  0  0
 18  7  2  0  0  0  0
 19 25  1  6  0  0  0
 19  4  1  0  0  0  0
 20 21  1  0  0  0  0
 22  1  1  6  0  0  0
 22 10  1  0  0  0  0
 24 25  1  0  0  0  0
 25 23  2  0  0  0  0
 27 28  1  6  0  0  0
 27 26  1  0  0  0  0
 29 31  2  0  0  0  0
 31 30  1  0  0  0  0
 31 27  1  0  0  0  0
 33 32  1  0  0  0  0
 34 33  1  0  0  0  0
 35 36  1  6  0  0  0
 35 34  1  0  0  0  0
 37 45  1  6  0  0  0
 37 35  1  0  0  0  0
 37 43  1  0  0  0  0
 39 41  1  0  0  0  0
 40 38  1  0  0  0  0
 41 38  2  0  0  0  0
 42 40  2  0  0  0  0
 43 39  2  0  0  0  0
 43 42  1  0  0  0  0
 44 45  1  0  0  0  0
M  END
>  <MODEL>
5

>  <REMARK>
 VINA RESULT:      -7.1      2.780      4.144
  Name = 
  11 active torsions:
  status: ('A' for Active; 'I' for Inactive)
    1  A    between atoms: C_4  and  C_5
    2  A    between atoms: C_4  and  N_40
    3  A    between atoms: C_5  and  C_31
    4  A    between atoms: C_5  and  C_45
    5  A    between atoms: C_7  and  C_15
    6  A    between atoms: C_7  and  C_29
    7  A    between atoms: C_15  and  C_44
    8  A    between atoms: C_19  and  C_24
    9  A    between atoms: C_19  and  C_34
   10  A    between atoms: C_34  and  N_40
   11  A    between atoms: C_37  and  C_38
                            x       y       z     vdW  Elec       q    Type
                         _______ _______ _______ _____ _____    ______ ____

>  <TORSDO>
F 11

$$$$
=
 OpenBabel11042415153D

 45 50  0  0  1  0  0  0  0  0999 V2000
  194.2600  177.1260  145.4590 C   0  0  0  0  0  2  0  0  0  0  0  0
  194.9220  176.2320  144.3770 C   0  0  0  0  0  2  0  0  0  0  0  0
  191.4480  173.1540  140.0010 C   0  0  0  0  0  2  0  0  0  0  0  0
  191.3260  174.7570  142.0230 C   0  0  1  0  0  3  0  0  0  0  0  0
  194.0050  175.1960  143.6430 C   0  0  1  0  0  3  0  0  0  0  0  0
  192.7450  174.2150  145.6600 C   0  0  1  0  0  3  0  0  0  0  0  0
  193.3820  174.0160  141.0510 C   0  0  0  0  0  0  0  0  0  0  0  0
  193.6970  173.1920  145.6440 O   0  0  0  0  0  1  0  0  0  0  0  0
  194.7130  173.8480  141.7000 C   0  0  2  0  0  3  0  0  0  0  0  0
  193.1050  175.2930  146.6780 C   0  0  0  0  0  2  0  0  0  0  0  0
  192.0020  176.2960  144.7470 C   0  0  1  0  0  0  0  0  0  0  0  0
  192.1070  177.2660  143.7320 O   0  0  0  0  0  1  0  0  0  0  0  0
  191.6220  174.1340  143.4040 C   0  0  0  0  0  2  0  0  0  0  0  0
  194.6860  173.9450  143.1680 N   0  0  1  0  0  0  0  0  0  0  0  0
  195.8330  174.7280  141.2010 C   0  0  1  0  0  3  0  0  0  0  0  0
  192.5630  175.0860  141.4010 O   0  0  0  0  0  0  0  0  0  0  0  0
  192.5960  174.9400  144.3060 C   0  0  1  0  0  0  0  0  0  0  0  0
  192.8520  173.0380  140.3930 N   0  0  0  0  0  0  0  0  0  0  0  0
  190.5910  173.6890  141.1770 C   0  0  1  0  0  3  0  0  0  0  0  0
  196.8580  174.6100  142.3120 C   0  0  0  0  0  2  0  0  0  0  0  0
  196.1190  173.9450  143.4890 C   0  0  0  0  0  2  0  0  0  0  0  0
  192.8980  176.6270  145.9510 C   0  0  2  0  0  3  0  0  0  0  0  0
  188.5810  174.9920  141.3670 O   0  0  0  0  0  0  0  0  0  0  0  0
  188.7770  173.7130  139.4340 N   0  0  0  0  0  1  0  0  0  0  0  0
  189.2560  174.1600  140.6970 C   0  0  0  0  0  0  0  0  0  0  0  0
  196.4040  174.1770  139.9080 C   0  0  0  0  0  2  0  0  0  0  0  0
  196.4620  175.2570  138.8320 C   0  0  1  0  0  3  0  0  0  0  0  0
  197.7580  175.3830  138.3240 O   0  0  0  0  0  1  0  0  0  0  0  0
  196.0210  174.5070  136.4610 N   0  0  0  0  0  2  0  0  0  0  0  0
  194.2620  175.2930  137.8050 N   0  0  0  0  0  1  0  0  0  0  0  0
  195.5040  174.9290  137.7190 C   0  0  0  0  0  0  0  0  0  0  0  0
  190.5290  176.1980  145.1870 C   0  0  0  0  0  2  0  0  0  0  0  0
  189.9780  177.5550  145.6300 C   0  0  0  0  0  2  0  0  0  0  0  0
  189.1100  177.4050  146.7900 N   0  0  0  0  0  2  0  0  0  0  0  0
  187.7590  177.0060  146.3730 C   0  0  1  0  0  3  0  0  0  0  0  0
  187.2300  176.0680  147.2740 O   0  0  0  0  0  1  0  0  0  0  0  0
  186.8200  178.2260  146.2050 C   0  0  1  0  0  3  0  0  0  0  0  0
  184.4340  177.9590  142.6320 C   0  0  0  0  0  3  0  0  0  0  0  0
  186.3310  177.2400  143.9620 C   0  0  0  0  0  3  0  0  0  0  0  0
  184.0670  178.8520  143.6440 C   0  0  0  0  0  3  0  0  0  0  0  0
  185.5670  177.1520  142.7920 C   0  0  0  0  0  3  0  0  0  0  0  0
  184.8290  178.9390  144.8140 C   0  0  0  0  0  3  0  0  0  0  0  0
  185.9630  178.1250  144.9810 C   0  0  0  0  0  0  0  0  0  0  0  0
  186.2890  179.7310  148.0150 O   0  0  0  0  0  1  0  0  0  0  0  0
  185.9720  178.4910  147.4530 C   0  0  0  0  0  2  0  0  0  0  0  0
  2  1  1  0  0  0  0
  3 18  1  0  0  0  0
  3 19  1  0  0  0  0
  4 13  1  1  0  0  0
  5 17  1  0  0  0  0
  5  2  1  1  0  0  0
  6  8  1  6  0  0  0
  6 10  1  0  0  0  0
  7 16  1  0  0  0  0
  9  7  1  6  0  0  0
  9 14  1  0  0  0  0
 11 12  1  6  0  0  0
 11 32  1  0  0  0  0
 11 22  1  0  0  0  0
 14 21  1  6  0  0  0
 14  5  1  0  0  0  0
 15 26  1  6  0  0  0
 15  9  1  0  0  0  0
 15 20  1  0  0  0  0
 16  4  1  0  0  0  0
 17 13  1  6  0  0  0
 17 11  1  0  0  0  0
 17  6  1  0  0  0  0
 18  7  2  0  0  0  0
 19 25  1  6  0  0  0
 19  4  1  0  0  0  0
 20 21  1  0  0  0  0
 22  1  1  6  0  0  0
 22 10  1  0  0  0  0
 24 25  1  0  0  0  0
 25 23  2  0  0  0  0
 27 28  1  6  0  0  0
 27 26  1  0  0  0  0
 29 31  2  0  0  0  0
 31 30  1  0  0  0  0
 31 27  1  0  0  0  0
 32 33  1  0  0  0  0
 33 34  1  0  0  0  0
 35 34  1  0  0  0  0
 35 36  1  1  0  0  0
 37 35  1  0  0  0  0
 37 45  1  1  0  0  0
 38 41  2  0  0  0  0
 38 40  1  0  0  0  0
 39 43  2  0  0  0  0
 40 42  2  0  0  0  0
 41 39  1  0  0  0  0
 42 43  1  0  0  0  0
 43 37  1  0  0  0  0
 45 44  1  0  0  0  0
M  END
>  <MODEL>
6

>  <REMARK>
 VINA RESULT:      -7.1      2.764      4.265
  Name = 
  11 active torsions:
  status: ('A' for Active; 'I' for Inactive)
    1  A    between atoms: C_4  and  C_5
    2  A    between atoms: C_4  and  N_40
    3  A    between atoms: C_5  and  C_31
    4  A    between atoms: C_5  and  C_45
    5  A    between atoms: C_7  and  C_15
    6  A    between atoms: C_7  and  C_29
    7  A    between atoms: C_15  and  C_44
    8  A    between atoms: C_19  and  C_24
    9  A    between atoms: C_19  and  C_34
   10  A    between atoms: C_34  and  N_40
   11  A    between atoms: C_37  and  C_38
                            x       y       z     vdW  Elec       q    Type
                         _______ _______ _______ _____ _____    ______ ____

>  <TORSDO>
F 11

$$$$
=
 OpenBabel11042415153D

 45 50  0  0  1  0  0  0  0  0999 V2000
  191.1660  175.3610  147.2330 C   0  0  0  0  0  2  0  0  0  0  0  0
  190.0680  175.9680  146.3190 C   0  0  0  0  0  2  0  0  0  0  0  0
  189.2220  173.9550  140.3260 C   0  0  0  0  0  2  0  0  0  0  0  0
  190.6160  173.6110  142.4720 C   0  0  1  0  0  3  0  0  0  0  0  0
  190.2120  175.7380  144.7760 C   0  0  1  0  0  3  0  0  0  0  0  0
  192.7090  176.2810  144.4790 C   0  0  1  0  0  3  0  0  0  0  0  0
  188.7460  175.0960  142.3400 C   0  0  0  0  0  0  0  0  0  0  0  0
  192.2960  177.5670  144.1210 O   0  0  0  0  0  1  0  0  0  0  0  0
  188.4860  176.3410  143.1170 C   0  0  2  0  0  3  0  0  0  0  0  0
  193.1140  176.2180  145.9500 C   0  0  0  0  0  2  0  0  0  0  0  0
  192.0950  174.1090  145.2680 C   0  0  1  0  0  0  0  0  0  0  0  0
  191.0760  173.1770  145.5430 O   0  0  0  0  0  1  0  0  0  0  0  0
  191.6240  174.7290  142.8150 C   0  0  0  0  0  2  0  0  0  0  0  0
  189.6380  176.8150  143.9010 N   0  0  1  0  0  0  0  0  0  0  0  0
  187.2810  176.3410  144.0240 C   0  0  1  0  0  3  0  0  0  0  0  0
  189.3340  173.9960  142.9560 O   0  0  0  0  0  0  0  0  0  0  0  0
  191.6170  175.2070  144.2920 C   0  0  1  0  0  0  0  0  0  0  0  0
  188.7080  175.1170  141.0480 N   0  0  0  0  0  0  0  0  0  0  0  0
  190.5690  173.4810  140.9310 C   0  0  1  0  0  3  0  0  0  0  0  0
  187.5580  177.5230  144.9330 C   0  0  0  0  0  2  0  0  0  0  0  0
  189.0320  177.8970  144.6890 C   0  0  0  0  0  2  0  0  0  0  0  0
  192.4480  174.9530  146.5030 C   0  0  2  0  0  3  0  0  0  0  0  0
  190.4570  171.0840  141.0520 O   0  0  0  0  0  0  0  0  0  0  0  0
  191.7110  171.9490  139.2940 N   0  0  0  0  0  1  0  0  0  0  0  0
  190.9130  172.1050  140.4630 C   0  0  0  0  0  0  0  0  0  0  0  0
  186.0150  176.5880  143.2230 C   0  0  0  0  0  2  0  0  0  0  0  0
  185.7670  178.0820  143.0410 C   0  0  1  0  0  3  0  0  0  0  0  0
  186.0950  178.4860  141.7430 O   0  0  0  0  0  1  0  0  0  0  0  0
  183.3670  178.2910  142.2830 N   0  0  0  0  0  2  0  0  0  0  0  0
  184.0100  179.0420  144.4140 N   0  0  0  0  0  1  0  0  0  0  0  0
  184.3260  178.4050  143.3300 C   0  0  0  0  0  0  0  0  0  0  0  0
  193.3370  173.3500  144.7640 C   0  0  0  0  0  2  0  0  0  0  0  0
  193.0710  171.8480  144.6410 C   0  0  0  0  0  2  0  0  0  0  0  0
  193.2030  171.4130  143.2570 N   0  0  0  0  0  2  0  0  0  0  0  0
  194.6040  171.4950  142.8230 C   0  0  1  0  0  3  0  0  0  0  0  0
  195.1990  170.2250  142.8580 O   0  0  0  0  0  1  0  0  0  0  0  0
  194.7390  172.1490  141.4250 C   0  0  1  0  0  3  0  0  0  0  0  0
  195.3020  176.4150  141.5600 C   0  0  0  0  0  3  0  0  0  0  0  0
  194.3830  174.4390  140.4920 C   0  0  0  0  0  3  0  0  0  0  0  0
  195.8490  175.6130  142.5670 C   0  0  0  0  0  3  0  0  0  0  0  0
  194.5690  175.8270  140.5220 C   0  0  0  0  0  3  0  0  0  0  0  0
  195.6630  174.2260  142.5390 C   0  0  0  0  0  3  0  0  0  0  0  0
  194.9200  173.6340  141.5020 C   0  0  0  0  0  0  0  0  0  0  0  0
  195.3450  171.1240  139.3270 O   0  0  0  0  0  1  0  0  0  0  0  0
  195.8390  171.5020  140.5790 C   0  0  0  0  0  2  0  0  0  0  0  0
  2  1  1  0  0  0  0
  3 19  1  0  0  0  0
  3 18  1  0  0  0  0
  4 13  1  6  0  0  0
  4 16  1  0  0  0  0
  5  2  1  1  0  0  0
  6  8  1  1  0  0  0
  6 10  1  0  0  0  0
  7 16  1  0  0  0  0
  9  7  1  1  0  0  0
  9 14  1  0  0  0  0
  9 15  1  0  0  0  0
 11 12  1  1  0  0  0
 11 22  1  0  0  0  0
 14 21  1  1  0  0  0
 14  5  1  0  0  0  0
 15 26  1  6  0  0  0
 15 20  1  0  0  0  0
 17 13  1  6  0  0  0
 17  6  1  0  0  0  0
 17  5  1  0  0  0  0
 17 11  1  0  0  0  0
 18  7  2  0  0  0  0
 19 25  1  1  0  0  0
 19  4  1  0  0  0  0
 21 20  1  0  0  0  0
 22 10  1  6  0  0  0
 22  1  1  0  0  0  0
 24 25  1  0  0  0  0
 25 23  2  0  0  0  0
 27 28  1  6  0  0  0
 27 26  1  0  0  0  0
 27 31  1  0  0  0  0
 29 31  2  0  0  0  0
 31 30  1  0  0  0  0
 32 11  1  0  0  0  0
 33 32  1  0  0  0  0
 34 33  1  0  0  0  0
 35 36  1  6  0  0  0
 35 34  1  0  0  0  0
 37 45  1  1  0  0  0
 37 43  1  0  0  0  0
 37 35  1  0  0  0  0
 38 40  1  0  0  0  0
 39 41  1  0  0  0  0
 39 43  2  0  0  0  0
 41 38  2  0  0  0  0
 42 40  2  0  0  0  0
 43 42  1  0  0  0  0
 44 45  1  0  0  0  0
M  END
>  <MODEL>
7

>  <REMARK>
 VINA RESULT:      -7.0      2.339      8.232
  Name = 
  11 active torsions:
  status: ('A' for Active; 'I' for Inactive)
    1  A    between atoms: C_4  and  C_5
    2  A    between atoms: C_4  and  N_40
    3  A    between atoms: C_5  and  C_31
    4  A    between atoms: C_5  and  C_45
    5  A    between atoms: C_7  and  C_15
    6  A    between atoms: C_7  and  C_29
    7  A    between atoms: C_15  and  C_44
    8  A    between atoms: C_19  and  C_24
    9  A    between atoms: C_19  and  C_34
   10  A    between atoms: C_34  and  N_40
   11  A    between atoms: C_37  and  C_38
                            x       y       z     vdW  Elec       q    Type
                         _______ _______ _______ _____ _____    ______ ____

>  <TORSDO>
F 11

$$$$
=
 OpenBabel11042415153D

 45 50  0  0  1  0  0  0  0  0999 V2000
  190.1410  172.2760  143.7790 C   0  0  0  0  0  2  0  0  0  0  0  0
  189.6800  173.4420  144.6950 C   0  0  0  0  0  2  0  0  0  0  0  0
  186.4970  178.4570  142.3700 C   0  0  0  0  0  2  0  0  0  0  0  0
  187.5840  176.1980  141.7510 C   0  0  1  0  0  3  0  0  0  0  0  0
  189.3080  174.7950  143.9990 C   0  0  1  0  0  3  0  0  0  0  0  0
  191.2920  175.0170  142.3760 C   0  0  1  0  0  3  0  0  0  0  0  0
  187.4030  177.0010  143.9960 C   0  0  0  0  0  0  0  0  0  0  0  0
  191.8840  175.8260  143.3500 O   0  0  0  0  0  1  0  0  0  0  0  0
  188.2860  176.7180  145.1620 C   0  0  2  0  0  3  0  0  0  0  0  0
  191.7990  173.5800  142.4650 C   0  0  0  0  0  2  0  0  0  0  0  0
  189.4630  173.6050  141.7630 C   0  0  1  0  0  0  0  0  0  0  0  0
  188.1670  173.1310  142.0440 O   0  0  0  0  0  1  0  0  0  0  0  0
  189.1260  176.1570  141.7690 C   0  0  0  0  0  2  0  0  0  0  0  0
  189.5420  176.0330  144.8160 N   0  0  1  0  0  0  0  0  0  0  0  0
  187.6670  175.9840  146.3260 C   0  0  1  0  0  3  0  0  0  0  0  0
  187.1110  175.9960  143.0780 O   0  0  0  0  0  0  0  0  0  0  0  0
  189.7560  174.9350  142.4920 C   0  0  1  0  0  0  0  0  0  0  0  0
  187.1430  178.2220  143.6590 N   0  0  0  0  0  0  0  0  0  0  0  0
  187.1590  177.6010  141.2580 C   0  0  1  0  0  3  0  0  0  0  0  0
  188.8850  175.5050  147.0930 C   0  0  0  0  0  2  0  0  0  0  0  0
  190.0810  175.7180  146.1460 C   0  0  0  0  0  2  0  0  0  0  0  0
  190.5480  172.6990  142.3660 C   0  0  2  0  0  3  0  0  0  0  0  0
  186.7340  177.0670  138.9550 O   0  0  0  0  0  0  0  0  0  0  0  0
  184.9400  177.9670  140.1300 N   0  0  0  0  0  1  0  0  0  0  0  0
  186.2960  177.5430  140.0400 C   0  0  0  0  0  0  0  0  0  0  0  0
  186.8570  176.9390  147.1840 C   0  0  0  0  0  2  0  0  0  0  0  0
  185.4550  177.1300  146.6130 C   0  0  1  0  0  3  0  0  0  0  0  0
  184.5170  176.3900  147.3400 O   0  0  0  0  0  1  0  0  0  0  0  0
  184.1780  179.0860  145.6530 N   0  0  0  0  0  2  0  0  0  0  0  0
  185.7860  179.4250  147.3330 N   0  0  0  0  0  1  0  0  0  0  0  0
  185.0850  178.5880  146.6330 C   0  0  0  0  0  0  0  0  0  0  0  0
  189.6330  173.7020  140.2350 C   0  0  0  0  0  2  0  0  0  0  0  0
  188.6830  172.7550  139.4980 C   0  0  0  0  0  2  0  0  0  0  0  0
  189.3140  172.2240  138.2970 N   0  0  0  0  0  2  0  0  0  0  0  0
  189.7710  170.8460  138.5220 C   0  0  1  0  0  3  0  0  0  0  0  0
  189.3140  170.0090  137.4920 O   0  0  0  0  0  1  0  0  0  0  0  0
  191.3090  170.7650  138.6810 C   0  0  1  0  0  3  0  0  0  0  0  0
  192.4090  169.2370  142.5520 C   0  0  0  0  0  3  0  0  0  0  0  0
  190.8280  169.4030  140.7200 C   0  0  0  0  0  3  0  0  0  0  0  0
  193.2990  170.0600  141.8550 C   0  0  0  0  0  3  0  0  0  0  0  0
  191.1730  168.9080  141.9840 C   0  0  0  0  0  3  0  0  0  0  0  0
  192.9570  170.5530  140.5920 C   0  0  0  0  0  3  0  0  0  0  0  0
  191.7190  170.2190  140.0150 C   0  0  0  0  0  0  0  0  0  0  0  0
  192.2850  170.8480  136.4760 O   0  0  0  0  0  1  0  0  0  0  0  0
  191.9780  169.9940  137.5390 C   0  0  0  0  0  2  0  0  0  0  0  0
  1  2  1  0  0  0  0
  3 18  1  0  0  0  0
  4 13  1  1  0  0  0
  4 16  1  0  0  0  0
  5  2  1  1  0  0  0
  5 14  1  0  0  0  0
  6 10  1  0  0  0  0
  6 17  1  0  0  0  0
  6  8  1  1  0  0  0
  9  7  1  6  0  0  0
  9 15  1  0  0  0  0
 11 12  1  1  0  0  0
 11 22  1  0  0  0  0
 11 17  1  0  0  0  0
 14  9  1  0  0  0  0
 14 21  1  1  0  0  0
 15 20  1  0  0  0  0
 15 26  1  1  0  0  0
 16  7  1  0  0  0  0
 17 13  1  6  0  0  0
 17  5  1  0  0  0  0
 18  7  2  0  0  0  0
 19 25  1  6  0  0  0
 19  4  1  0  0  0  0
 19  3  1  0  0  0  0
 21 20  1  0  0  0  0
 22 10  1  1  0  0  0
 22  1  1  0  0  0  0
 23 25  2  0  0  0  0
 25 24  1  0  0  0  0
 27 31  1  0  0  0  0
 27 26  1  0  0  0  0
 27 28  1  1  0  0  0
 29 31  2  0  0  0  0
 31 30  1  0  0  0  0
 32 11  1  0  0  0  0
 33 32  1  0  0  0  0
 34 35  1  0  0  0  0
 34 33  1  0  0  0  0
 35 36  1  6  0  0  0
 35 37  1  0  0  0  0
 37 45  1  6  0  0  0
 37 43  1  0  0  0  0
 39 41  2  0  0  0  0
 40 38  2  0  0  0  0
 41 38  1  0  0  0  0
 42 40  1  0  0  0  0
 43 42  2  0  0  0  0
 43 39  1  0  0  0  0
 44 45  1  0  0  0  0
M  END
>  <MODEL>
8

>  <REMARK>
 VINA RESULT:      -7.0      3.243      8.541
  Name = 
  11 active torsions:
  status: ('A' for Active; 'I' for Inactive)
    1  A    between atoms: C_4  and  C_5
    2  A    between atoms: C_4  and  N_40
    3  A    between atoms: C_5  and  C_31
    4  A    between atoms: C_5  and  C_45
    5  A    between atoms: C_7  and  C_15
    6  A    between atoms: C_7  and  C_29
    7  A    between atoms: C_15  and  C_44
    8  A    between atoms: C_19  and  C_24
    9  A    between atoms: C_19  and  C_34
   10  A    between atoms: C_34  and  N_40
   11  A    between atoms: C_37  and  C_38
                            x       y       z     vdW  Elec       q    Type
                         _______ _______ _______ _____ _____    ______ ____

>  <TORSDO>
F 11

$$$$
=
 OpenBabel11042415153D

 45 50  0  0  1  0  0  0  0  0999 V2000
  192.1340  173.2670  141.6340 C   0  0  0  0  0  2  0  0  0  0  0  0
  190.8510  174.1350  141.7380 C   0  0  0  0  0  2  0  0  0  0  0  0
  189.6110  177.6500  146.9140 C   0  0  0  0  0  2  0  0  0  0  0  0
  191.3160  176.0360  145.8400 C   0  0  1  0  0  3  0  0  0  0  0  0
  190.4180  174.6030  143.1690 C   0  0  1  0  0  3  0  0  0  0  0  0
  190.7000  172.3950  144.4600 C   0  0  1  0  0  3  0  0  0  0  0  0
  189.3790  176.8540  144.7010 C   0  0  0  0  0  0  0  0  0  0  0  0
  189.3330  172.1990  144.2480 O   0  0  0  0  0  1  0  0  0  0  0  0
  188.5960  176.2080  143.6100 C   0  0  2  0  0  3  0  0  0  0  0  0
  191.5350  171.6500  143.4230 C   0  0  0  0  0  2  0  0  0  0  0  0
  192.6360  173.7350  144.0460 C   0  0  1  0  0  0  0  0  0  0  0  0
  193.1780  174.9430  143.5670 O   0  0  0  0  0  1  0  0  0  0  0  0
  190.8860  174.5560  145.7460 C   0  0  0  0  0  2  0  0  0  0  0  0
  188.9430  174.7980  143.3700 N   0  0  1  0  0  0  0  0  0  0  0  0
  188.5750  176.9100  142.2750 C   0  0  1  0  0  3  0  0  0  0  0  0
  190.7660  176.7370  144.7310 O   0  0  0  0  0  0  0  0  0  0  0  0
  191.1320  173.8730  144.3730 C   0  0  1  0  0  0  0  0  0  0  0  0
  188.7830  177.2680  145.7710 N   0  0  0  0  0  0  0  0  0  0  0  0
  190.7340  176.6080  147.1540 C   0  0  1  0  0  3  0  0  0  0  0  0
  188.0870  175.8200  141.3410 C   0  0  0  0  0  2  0  0  0  0  0  0
  188.1790  174.5110  142.1490 C   0  0  0  0  0  2  0  0  0  0  0  0
  192.5970  172.6520  142.9570 C   0  0  2  0  0  3  0  0  0  0  0  0
  191.5010  177.5990  149.2040 O   0  0  0  0  0  0  0  0  0  0  0  0
  193.1510  177.1150  147.6370 N   0  0  0  0  0  1  0  0  0  0  0  0
  191.7910  177.1570  148.0560 C   0  0  0  0  0  0  0  0  0  0  0  0
  187.5830  178.0590  142.2950 C   0  0  0  0  0  2  0  0  0  0  0  0
  186.2720  177.6370  142.9510 C   0  0  1  0  0  3  0  0  0  0  0  0
  186.0680  178.3340  144.1460 O   0  0  0  0  0  1  0  0  0  0  0  0
  185.3940  178.3120  140.6810 N   0  0  0  0  0  2  0  0  0  0  0  0
  183.9160  177.9780  142.4760 N   0  0  0  0  0  1  0  0  0  0  0  0
  185.1230  177.8810  142.0110 C   0  0  0  0  0  0  0  0  0  0  0  0
  193.4750  173.2590  145.2470 C   0  0  0  0  0  2  0  0  0  0  0  0
  194.8530  173.9250  145.2750 C   0  0  0  0  0  2  0  0  0  0  0  0
  195.8490  173.0230  145.8380 N   0  0  0  0  0  2  0  0  0  0  0  0
  196.8520  172.6680  144.8250 C   0  0  1  0  0  3  0  0  0  0  0  0
  197.9210  173.5780  144.8600 O   0  0  0  0  0  1  0  0  0  0  0  0
  197.3420  171.2070  144.9810 C   0  0  1  0  0  3  0  0  0  0  0  0
  194.3570  168.5360  146.5560 C   0  0  0  0  0  3  0  0  0  0  0  0
  196.4650  169.7140  146.7820 C   0  0  0  0  0  3  0  0  0  0  0  0
  194.1720  169.1140  145.2950 C   0  0  0  0  0  3  0  0  0  0  0  0
  195.5040  168.8360  147.2990 C   0  0  0  0  0  3  0  0  0  0  0  0
  195.1310  169.9920  144.7790 C   0  0  0  0  0  3  0  0  0  0  0  0
  196.2800  170.3020  145.5260 C   0  0  0  0  0  0  0  0  0  0  0  0
  197.4640  171.3530  142.5760 O   0  0  0  0  0  1  0  0  0  0  0  0
  197.9360  170.6450  143.6860 C   0  0  0  0  0  2  0  0  0  0  0  0
  1  2  1  0  0  0  0
  3 19  1  0  0  0  0
  4 13  1  6  0  0  0
  4 19  1  0  0  0  0
  5  2  1  6  0  0  0
  5 14  1  0  0  0  0
  5 17  1  0  0  0  0
  6  8  1  6  0  0  0
  7 16  1  0  0  0  0
  7 18  2  0  0  0  0
  9  7  1  1  0  0  0
 10  6  1  0  0  0  0
 11 12  1  6  0  0  0
 11 17  1  0  0  0  0
 11 32  1  0  0  0  0
 14 21  1  6  0  0  0
 14  9  1  0  0  0  0
 15 26  1  1  0  0  0
 15  9  1  0  0  0  0
 16  4  1  0  0  0  0
 17  6  1  0  0  0  0
 17 13  1  1  0  0  0
 18  3  1  0  0  0  0
 19 25  1  6  0  0  0
 20 21  1  0  0  0  0
 20 15  1  0  0  0  0
 22  1  1  6  0  0  0
 22 10  1  0  0  0  0
 22 11  1  0  0  0  0
 24 25  1  0  0  0  0
 25 23  2  0  0  0  0
 26 27  1  0  0  0  0
 27 28  1  1  0  0  0
 29 31  2  0  0  0  0
 31 30  1  0  0  0  0
 31 27  1  0  0  0  0
 32 33  1  0  0  0  0
 33 34  1  0  0  0  0
 35 36  1  1  0  0  0
 35 37  1  0  0  0  0
 35 34  1  0  0  0  0
 37 45  1  6  0  0  0
 37 43  1  0  0  0  0
 38 41  1  0  0  0  0
 39 41  2  0  0  0  0
 40 38  2  0  0  0  0
 42 40  1  0  0  0  0
 42 43  2  0  0  0  0
 43 39  1  0  0  0  0
 44 45  1  0  0  0  0
M  END
>  <MODEL>
9

>  <REMARK>
 VINA RESULT:      -6.8      2.459      9.335
  Name = 
  11 active torsions:
  status: ('A' for Active; 'I' for Inactive)
    1  A    between atoms: C_4  and  C_5
    2  A    between atoms: C_4  and  N_40
    3  A    between atoms: C_5  and  C_31
    4  A    between atoms: C_5  and  C_45
    5  A    between atoms: C_7  and  C_15
    6  A    between atoms: C_7  and  C_29
    7  A    between atoms: C_15  and  C_44
    8  A    between atoms: C_19  and  C_24
    9  A    between atoms: C_19  and  C_34
   10  A    between atoms: C_34  and  N_40
   11  A    between atoms: C_37  and  C_38
                            x       y       z     vdW  Elec       q    Type
                         _______ _______ _______ _____ _____    ______ ____

>  <TORSDO>
F 11

$$$$
