=
 OpenBabel11042415093D

 69 74  0  0  1  0  0  0  0  0999 V2000
  191.8720  173.9680  140.7470 C   0  0  0  0  0  3  0  0  0  0  0  0
  192.0700  172.6450  140.6500 C   0  0  0  0  0  0  0  0  0  0  0  0
  193.7860  169.7100  142.1850 C   0  0  0  0  0  2  0  0  0  0  0  0
  192.8890  171.8370  141.6160 C   0  0  1  0  0  3  0  0  0  0  0  0
  193.1450  169.6580  144.4290 C   0  0  0  0  0  1  0  0  0  0  0  0
  192.6540  169.9370  143.0920 N   0  0  0  0  0  0  0  0  0  0  0  0
  192.3810  171.3800  143.0050 C   0  0  2  0  0  3  0  0  0  0  0  0
  193.5610  170.6300  141.0020 C   0  0  0  0  0  2  0  0  0  0  0  0
  190.7790  172.3300  144.5060 O   0  0  0  0  0  1  0  0  0  0  0  0
  189.8460  171.2760  142.7080 O   0  0  0  0  0  0  0  0  0  0  0  0
  190.9550  171.6810  143.4400 C   0  0  0  0  0  0  0  0  0  0  0  0
  191.1950  171.8650  139.7240 C   0  0  0  0  0  2  0  0  0  0  0  0
  190.6000  172.7430  138.8070 O   0  0  0  0  0  0  0  0  0  0  0  0
  189.4130  172.1160  138.3740 C   0  0  2  0  0  3  0  0  0  0  0  0
  189.8680  170.5800  136.5880 C   0  0  0  0  0  2  0  0  0  0  0  0
  191.2000  170.6720  135.8820 C   0  0  0  0  0  2  0  0  0  0  0  0
  191.2090  172.0670  135.3220 C   0  0  1  0  0  3  0  0  0  0  0  0
  190.3080  172.8650  136.2470 C   0  0  0  0  0  2  0  0  0  0  0  0
  189.3920  171.9220  136.8990 N   0  0  0  0  0  0  0  0  0  0  0  0
  195.1050  172.7560  137.1210 N   0  0  0  0  0  0  0  0  0  0  0  0
  194.4500  173.7950  136.4070 C   0  0  0  0  0  0  0  0  0  0  0  0
  193.8430  176.7150  136.1290 N   0  0  0  0  0  2  0  0  0  0  0  0
  194.9710  176.0510  135.4800 C   0  0  0  0  0  2  0  0  0  0  0  0
  192.6110  176.1480  135.5870 C   0  0  0  0  0  2  0  0  0  0  0  0
  193.4520  171.9790  134.5140 O   0  0  0  0  0  0  0  0  0  0  0  0
  192.6160  172.6370  135.2070 C   0  0  0  0  0  0  0  0  0  0  0  0
  195.2740  174.7810  136.2030 C   0  0  0  0  0  0  0  0  0  0  0  0
  192.2080  174.8700  136.3390 C   0  0  0  0  0  2  0  0  0  0  0  0
  196.5200  174.4190  136.7910 N   0  0  0  0  0  0  0  0  0  0  0  0
  193.0820  173.7540  135.9820 N   0  0  0  0  0  0  0  0  0  0  0  0
  196.4130  173.1680  137.4380 N   0  0  0  0  0  0  0  0  0  0  0  0
  197.4940  175.4240  137.2230 C   0  0  0  0  0  2  0  0  0  0  0  0
  197.5480  175.5070  138.7340 C   0  0  0  0  0  1  0  0  0  0  0  0
  188.1990  172.9110  138.8820 C   0  0  0  0  0  2  0  0  0  0  0  0
  188.1360  172.8880  140.2900 O   0  0  0  0  0  1  0  0  0  0  0  0
  192.4980  174.8650  141.7770 C   0  0  0  0  0  2  0  0  0  0  0  0
  194.2830  176.4200  141.3460 O   0  0  0  0  0  1  0  0  0  0  0  0
  193.9880  175.0530  141.5070 C   0  0  1  0  0  3  0  0  0  0  0  0
  194.7230  174.5270  142.5770 O   0  0  0  0  0  0  0  0  0  0  0  0
  195.8490  175.3500  142.7150 C   0  0  2  0  0  3  0  0  0  0  0  0
  197.8070  174.3630  144.0820 C   0  0  0  0  0  2  0  0  0  0  0  0
  197.1620  174.5560  142.7110 C   0  0  1  0  0  3  0  0  0  0  0  0
  196.8900  172.2630  143.3280 N   0  0  0  0  0  2  0  0  0  0  0  0
  197.7480  172.8670  144.3250 C   0  0  2  0  0  3  0  0  0  0  0  0
  196.9230  173.1690  142.1830 C   0  0  0  0  0  2  0  0  0  0  0  0
  196.7890  171.1470  145.8470 C   0  0  0  0  0  1  0  0  0  0  0  0
  197.1720  172.6040  145.7020 C   0  0  0  0  0  2  0  0  0  0  0  0
  195.7500  176.1400  144.0300 C   0  0  0  0  0  2  0  0  0  0  0  0
  194.5510  175.7730  144.8690 C   0  0  0  0  0  0  0  0  0  0  0  0
  194.6430  174.8250  145.6920 O   0  0  0  0  0  0  0  0  0  0  0  0
  193.3480  176.4640  144.8120 O   0  0  0  0  0  0  0  0  0  0  0  0
  192.5800  176.8180  145.9590 C   0  0  0  0  0  2  0  0  0  0  0  0
  188.5680  177.1300  144.4770 C   0  0  0  0  0  0  0  0  0  0  0  0
  190.0810  176.5740  146.3160 C   0  0  0  0  0  0  0  0  0  0  0  0
  189.6880  177.5570  143.7380 C   0  0  0  0  0  0  0  0  0  0  0  0
  188.7700  176.6490  145.7880 C   0  0  0  0  0  0  0  0  0  0  0  0
  191.1530  176.9940  145.5200 C   0  0  0  0  0  0  0  0  0  0  0  0
  187.6390  176.2680  146.5850 N   0  0  0  0  0  1  0  0  0  0  0  0
  190.9240  177.4700  144.2730 N   0  0  0  0  0  0  0  0  0  0  0  0
  189.5880  178.1140  142.3620 C   0  0  0  0  0  1  0  0  0  0  0  0
  190.5740  174.9240  148.0090 O   0  0  0  0  0  0  0  0  0  0  0  0
  190.3830  176.1340  147.7070 C   0  0  0  0  0  3  0  0  0  0  0  0
  187.1320  177.3280  144.0120 C   0  0  2  0  0  3  0  0  0  0  0  0
  185.4670  178.0660  145.6150 O   0  0  0  0  0  1  0  0  0  0  0  0
  186.3270  178.5030  144.6060 C   0  0  2  0  0  3  0  0  0  0  0  0
  184.1890  179.3220  143.8880 O   0  0  0  0  0  1  0  0  0  0  0  0
  185.5320  179.2300  143.5190 C   0  0  0  0  0  2  0  0  0  0  0  0
  186.3910  176.1420  143.7780 O   0  0  0  0  0  0  0  0  0  0  0  0
  186.9790  175.5090  142.7770 O   0  0  0  0  0  1  0  0  0  0  0  0
  1 36  1  0  0  0  0
  2  1  2  0  0  0  0
  3  6  1  0  0  0  0
  4  2  1  6  0  0  0
  4  7  1  0  0  0  0
  6  5  1  0  0  0  0
  7  6  1  0  0  0  0
  7 11  1  6  0  0  0
  8  4  1  0  0  0  0
  8  3  1  0  0  0  0
 10 11  2  0  0  0  0
 11  9  1  0  0  0  0
 12  2  1  0  0  0  0
 13 12  1  0  0  0  0
 14 13  1  0  0  0  0
 14 34  1  6  0  0  0
 15 19  1  0  0  0  0
 16 15  1  0  0  0  0
 17 26  1  1  0  0  0
 17 16  1  0  0  0  0
 17 18  1  0  0  0  0
 18 19  1  0  0  0  0
 19 14  1  0  0  0  0
 20 31  2  0  0  0  0
 21 20  1  0  0  0  0
 23 22  1  0  0  0  0
 23 27  1  0  0  0  0
 24 22  1  0  0  0  0
 24 28  1  0  0  0  0
 25 26  2  0  0  0  0
 26 30  1  0  0  0  0
 27 21  2  0  0  0  0
 27 29  1  0  0  0  0
 29 32  1  0  0  0  0
 29 31  1  0  0  0  0
 30 28  1  0  0  0  0
 30 21  1  0  0  0  0
 32 33  1  0  0  0  0
 34 35  1  0  0  0  0
 38 37  1  1  0  0  0
 38 36  1  0  0  0  0
 38 39  1  0  0  0  0
 39 40  1  0  0  0  0
 40 48  1  1  0  0  0
 41 44  1  0  0  0  0
 42 40  1  1  0  0  0
 42 41  1  0  0  0  0
 43 44  1  0  0  0  0
 44 47  1  1  0  0  0
 45 42  1  0  0  0  0
 45 43  1  0  0  0  0
 47 46  1  0  0  0  0
 48 49  1  0  0  0  0
 49 50  2  0  0  0  0
 51 49  1  0  0  0  0
 51 52  1  0  0  0  0
 53 56  1  0  0  0  0
 54 62  1  0  0  0  0
 55 59  1  0  0  0  0
 55 53  2  0  0  0  0
 56 54  2  0  0  0  0
 56 58  1  0  0  0  0
 57 52  1  0  0  0  0
 57 54  1  0  0  0  0
 59 57  2  0  0  0  0
 60 55  1  0  0  0  0
 62 61  2  0  0  0  0
 63 68  1  1  0  0  0
 63 53  1  0  0  0  0
 63 65  1  0  0  0  0
 65 64  1  1  0  0  0
 67 66  1  0  0  0  0
 67 65  1  0  0  0  0
 69 68  1  0  0  0  0
M  END
>  <MODEL>
1

>  <REMARK>
 VINA RESULT:      -6.0      0.000      0.000
  Name = 
  25 active torsions:
  status: ('A' for Active; 'I' for Inactive)
    1  A    between atoms: C_1  and  C_13
    2  A    between atoms: C_1  and  C_45
    3  A    between atoms: O_5  and  C_14
    4  A    between atoms: O_5  and  C_63
    5  A    between atoms: C_7  and  C_35
    6  A    between atoms: C_9  and  C_55
    7  A    between atoms: C_10  and  C_45
    8  A    between atoms: C_11  and  C_53
    9  A    between atoms: C_13  and  O_34
   10  A    between atoms: C_14  and  C_21
   11  A    between atoms: C_14  and  N_54
   12  A    between atoms: O_17  and  C_35
   13  A    between atoms: O_19  and  C_45
   14  A    between atoms: O_19  and  C_58
   15  A    between atoms: C_20  and  C_26
   16  A    between atoms: C_20  and  C_58
   17  A    between atoms: C_24  and  C_67
   18  A    between atoms: C_31  and  C_52
   19  A    between atoms: O_34  and  C_52
   20  A    between atoms: C_35  and  C_67
   21  A    between atoms: C_37  and  C_50
   22  A    between atoms: C_41  and  C_44
   23  A    between atoms: C_49  and  C_64
   24  A    between atoms: C_55  and  C_63
   25  A    between atoms: N_59  and  C_62
                            x       y       z     vdW  Elec       q    Type
                         _______ _______ _______ _____ _____    ______ ____

>  <TORSDO>
F 25

$$$$
=
 OpenBabel11042415093D

 69 74  0  0  1  0  0  0  0  0999 V2000
  191.5730  173.0100  142.2220 C   0  0  0  0  0  3  0  0  0  0  0  0
  191.1420  172.3760  141.1220 C   0  0  0  0  0  0  0  0  0  0  0  0
  188.7940  172.6850  138.2400 C   0  0  0  0  0  2  0  0  0  0  0  0
  190.2930  173.0090  140.0560 C   0  0  1  0  0  3  0  0  0  0  0  0
  189.8090  174.1140  136.6980 C   0  0  0  0  0  1  0  0  0  0  0  0
  190.0870  173.0510  137.6480 N   0  0  0  0  0  0  0  0  0  0  0  0
  190.8620  173.6290  138.7560 C   0  0  2  0  0  3  0  0  0  0  0  0
  189.1050  172.1770  139.6340 C   0  0  0  0  0  2  0  0  0  0  0  0
  193.0610  174.5690  138.7220 O   0  0  0  0  0  1  0  0  0  0  0  0
  192.9580  172.4340  137.9180 O   0  0  0  0  0  0  0  0  0  0  0  0
  192.3520  173.5610  138.4590 C   0  0  0  0  0  0  0  0  0  0  0  0
  191.7760  171.0730  140.7620 C   0  0  0  0  0  2  0  0  0  0  0  0
  193.1490  171.1380  141.0450 O   0  0  0  0  0  0  0  0  0  0  0  0
  193.4890  169.9000  141.6300 C   0  0  2  0  0  3  0  0  0  0  0  0
  195.5320  168.6570  141.4410 C   0  0  0  0  0  2  0  0  0  0  0  0
  196.7340  169.3380  140.8320 C   0  0  0  0  0  2  0  0  0  0  0  0
  196.2720  169.7050  139.4490 C   0  0  1  0  0  3  0  0  0  0  0  0
  194.7670  169.8560  139.5680 C   0  0  0  0  0  2  0  0  0  0  0  0
  194.3300  169.0700  140.7270 N   0  0  0  0  0  0  0  0  0  0  0  0
  196.1570  173.9750  138.6460 N   0  0  0  0  0  0  0  0  0  0  0  0
  196.6690  173.0740  137.6740 C   0  0  0  0  0  0  0  0  0  0  0  0
  196.9830  172.3410  134.7870 N   0  0  0  0  0  2  0  0  0  0  0  0
  197.9410  173.1550  135.5310 C   0  0  0  0  0  2  0  0  0  0  0  0
  196.9600  171.0080  135.3850 C   0  0  0  0  0  2  0  0  0  0  0  0
  197.8550  171.4780  139.6540 O   0  0  0  0  0  0  0  0  0  0  0  0
  196.9660  170.9510  138.9160 C   0  0  0  0  0  0  0  0  0  0  0  0
  197.2650  173.7380  136.7270 C   0  0  0  0  0  0  0  0  0  0  0  0
  195.9890  170.9490  136.5750 C   0  0  0  0  0  2  0  0  0  0  0  0
  197.1600  175.1210  137.0470 N   0  0  0  0  0  0  0  0  0  0  0  0
  196.5390  171.6490  137.7350 N   0  0  0  0  0  0  0  0  0  0  0  0
  196.4000  175.2960  138.2260 N   0  0  0  0  0  0  0  0  0  0  0  0
  197.2280  176.1630  136.0210 C   0  0  0  0  0  2  0  0  0  0  0  0
  195.8720  176.3870  135.3870 C   0  0  0  0  0  1  0  0  0  0  0  0
  192.2090  169.1750  142.0770 C   0  0  0  0  0  2  0  0  0  0  0  0
  192.5010  168.1710  143.0220 O   0  0  0  0  0  1  0  0  0  0  0  0
  191.2130  174.4170  142.6100 C   0  0  0  0  0  2  0  0  0  0  0  0
  189.4200  173.6540  144.0200 O   0  0  0  0  0  1  0  0  0  0  0  0
  190.5760  174.4570  143.9950 C   0  0  1  0  0  3  0  0  0  0  0  0
  191.4980  173.9970  144.9440 O   0  0  0  0  0  0  0  0  0  0  0  0
  191.9470  175.1320  145.6300 C   0  0  2  0  0  3  0  0  0  0  0  0
  194.2260  174.0500  145.0710 C   0  0  0  0  0  2  0  0  0  0  0  0
  193.4680  175.1300  145.8400 C   0  0  1  0  0  3  0  0  0  0  0  0
  194.6730  176.2020  144.0770 N   0  0  0  0  0  2  0  0  0  0  0  0
  195.0930  174.8170  144.0890 C   0  0  2  0  0  3  0  0  0  0  0  0
  194.0520  176.4350  145.3780 C   0  0  0  0  0  2  0  0  0  0  0  0
  195.6600  172.9170  142.5850 C   0  0  0  0  0  1  0  0  0  0  0  0
  194.9190  174.2310  142.7020 C   0  0  0  0  0  2  0  0  0  0  0  0
  191.2560  175.2120  147.0010 C   0  0  0  0  0  2  0  0  0  0  0  0
  191.3340  176.5760  147.6400 C   0  0  0  0  0  0  0  0  0  0  0  0
  192.2170  176.8000  148.5100 O   0  0  0  0  0  0  0  0  0  0  0  0
  190.5000  177.6270  147.2830 O   0  0  0  0  0  0  0  0  0  0  0  0
  189.0930  177.6380  147.5130 C   0  0  0  0  0  2  0  0  0  0  0  0
  187.3480  177.1300  143.6290 C   0  0  0  0  0  0  0  0  0  0  0  0
  187.0900  177.0800  146.0600 C   0  0  0  0  0  0  0  0  0  0  0  0
  188.6590  177.6050  143.8170 C   0  0  0  0  0  0  0  0  0  0  0  0
  186.5510  176.8820  144.7660 C   0  0  0  0  0  0  0  0  0  0  0  0
  188.4090  177.5330  146.1770 C   0  0  0  0  0  0  0  0  0  0  0  0
  185.1910  176.4580  144.6000 N   0  0  0  0  0  1  0  0  0  0  0  0
  189.1410  177.7820  145.0650 N   0  0  0  0  0  0  0  0  0  0  0  0
  189.5740  177.9330  142.6900 C   0  0  0  0  0  1  0  0  0  0  0  0
  185.8280  177.8730  147.9600 O   0  0  0  0  0  0  0  0  0  0  0  0
  186.3070  176.9000  147.3130 C   0  0  0  0  0  3  0  0  0  0  0  0
  186.6750  177.0410  142.2650 C   0  0  2  0  0  3  0  0  0  0  0  0
  186.9740  177.6110  139.9260 O   0  0  0  0  0  1  0  0  0  0  0  0
  187.5740  176.9710  141.0120 C   0  0  2  0  0  3  0  0  0  0  0  0
  187.5410  174.6730  141.6990 O   0  0  0  0  0  1  0  0  0  0  0  0
  187.9000  175.5200  140.6500 C   0  0  0  0  0  2  0  0  0  0  0  0
  185.4820  177.7910  142.1150 O   0  0  0  0  0  0  0  0  0  0  0  0
  185.7750  179.0490  142.4000 O   0  0  0  0  0  1  0  0  0  0  0  0
  1 36  1  0  0  0  0
  2  1  2  0  0  0  0
  3  8  1  0  0  0  0
  4  2  1  6  0  0  0
  5  6  1  0  0  0  0
  6  3  1  0  0  0  0
  6  7  1  0  0  0  0
  7 11  1  6  0  0  0
  7  4  1  0  0  0  0
  8  4  1  0  0  0  0
 10 11  2  0  0  0  0
 11  9  1  0  0  0  0
 12 13  1  0  0  0  0
 12  2  1  0  0  0  0
 13 14  1  0  0  0  0
 14 34  1  6  0  0  0
 16 15  1  0  0  0  0
 17 26  1  1  0  0  0
 17 18  1  0  0  0  0
 17 16  1  0  0  0  0
 18 19  1  0  0  0  0
 19 15  1  0  0  0  0
 19 14  1  0  0  0  0
 21 30  1  0  0  0  0
 21 20  1  0  0  0  0
 22 24  1  0  0  0  0
 22 23  1  0  0  0  0
 23 27  1  0  0  0  0
 24 28  1  0  0  0  0
 26 25  2  0  0  0  0
 27 29  1  0  0  0  0
 27 21  2  0  0  0  0
 28 30  1  0  0  0  0
 29 31  1  0  0  0  0
 30 26  1  0  0  0  0
 31 20  2  0  0  0  0
 32 29  1  0  0  0  0
 33 32  1  0  0  0  0
 34 35  1  0  0  0  0
 36 38  1  0  0  0  0
 38 37  1  6  0  0  0
 38 39  1  0  0  0  0
 39 40  1  0  0  0  0
 40 48  1  1  0  0  0
 41 42  1  0  0  0  0
 42 40  1  6  0  0  0
 43 44  1  0  0  0  0
 43 45  1  0  0  0  0
 44 47  1  6  0  0  0
 44 41  1  0  0  0  0
 45 42  1  0  0  0  0
 46 47  1  0  0  0  0
 48 49  1  0  0  0  0
 49 50  2  0  0  0  0
 51 52  1  0  0  0  0
 51 49  1  0  0  0  0
 53 55  2  0  0  0  0
 53 56  1  0  0  0  0
 54 57  1  0  0  0  0
 54 62  1  0  0  0  0
 55 59  1  0  0  0  0
 56 54  2  0  0  0  0
 57 52  1  0  0  0  0
 58 56  1  0  0  0  0
 59 57  2  0  0  0  0
 60 55  1  0  0  0  0
 62 61  2  0  0  0  0
 63 68  1  6  0  0  0
 63 53  1  0  0  0  0
 65 64  1  6  0  0  0
 65 63  1  0  0  0  0
 67 65  1  0  0  0  0
 67 66  1  0  0  0  0
 68 69  1  0  0  0  0
M  END
>  <MODEL>
2

>  <REMARK>
 VINA RESULT:      -5.7      2.335      4.768
  Name = 
  25 active torsions:
  status: ('A' for Active; 'I' for Inactive)
    1  A    between atoms: C_1  and  C_13
    2  A    between atoms: C_1  and  C_45
    3  A    between atoms: O_5  and  C_14
    4  A    between atoms: O_5  and  C_63
    5  A    between atoms: C_7  and  C_35
    6  A    between atoms: C_9  and  C_55
    7  A    between atoms: C_10  and  C_45
    8  A    between atoms: C_11  and  C_53
    9  A    between atoms: C_13  and  O_34
   10  A    between atoms: C_14  and  C_21
   11  A    between atoms: C_14  and  N_54
   12  A    between atoms: O_17  and  C_35
   13  A    between atoms: O_19  and  C_45
   14  A    between atoms: O_19  and  C_58
   15  A    between atoms: C_20  and  C_26
   16  A    between atoms: C_20  and  C_58
   17  A    between atoms: C_24  and  C_67
   18  A    between atoms: C_31  and  C_52
   19  A    between atoms: O_34  and  C_52
   20  A    between atoms: C_35  and  C_67
   21  A    between atoms: C_37  and  C_50
   22  A    between atoms: C_41  and  C_44
   23  A    between atoms: C_49  and  C_64
   24  A    between atoms: C_55  and  C_63
   25  A    between atoms: N_59  and  C_62
                            x       y       z     vdW  Elec       q    Type
                         _______ _______ _______ _____ _____    ______ ____

>  <TORSDO>
F 25

$$$$
=
 OpenBabel11042415093D

 69 74  0  0  1  0  0  0  0  0999 V2000
  189.1780  175.3480  142.1940 C   0  0  0  0  0  3  0  0  0  0  0  0
  188.9020  176.3330  143.0600 C   0  0  0  0  0  0  0  0  0  0  0  0
  186.0530  178.7120  143.4370 C   0  0  0  0  0  2  0  0  0  0  0  0
  187.5200  176.8420  143.3540 C   0  0  1  0  0  3  0  0  0  0  0  0
  185.1500  178.3450  145.5580 C   0  0  0  0  0  1  0  0  0  0  0  0
  186.4040  178.4000  144.8280 N   0  0  0  0  0  0  0  0  0  0  0  0
  186.9590  177.0390  144.7840 C   0  0  2  0  0  3  0  0  0  0  0  0
  187.1400  178.0860  142.5850 C   0  0  0  0  0  2  0  0  0  0  0  0
  187.8380  175.6260  146.5020 O   0  0  0  0  0  0  0  0  0  0  0  0
  188.6430  177.7620  146.5640 O   0  0  0  0  0  1  0  0  0  0  0  0
  187.8390  176.7810  145.9970 C   0  0  0  0  0  0  0  0  0  0  0  0
  189.9690  176.7510  144.0180 C   0  0  0  0  0  2  0  0  0  0  0  0
  190.5150  175.6090  144.6220 O   0  0  0  0  0  0  0  0  0  0  0  0
  191.8930  175.6250  144.3220 C   0  0  2  0  0  3  0  0  0  0  0  0
  193.6120  176.7710  145.5390 C   0  0  0  0  0  2  0  0  0  0  0  0
  195.0420  176.3130  145.3680 C   0  0  0  0  0  2  0  0  0  0  0  0
  195.0120  174.8810  145.8240 C   0  0  1  0  0  3  0  0  0  0  0  0
  193.5890  174.4200  145.5690 C   0  0  0  0  0  2  0  0  0  0  0  0
  192.7310  175.6100  145.5500 N   0  0  0  0  0  0  0  0  0  0  0  0
  196.4320  172.9720  142.1860 N   0  0  0  0  0  0  0  0  0  0  0  0
  196.4480  172.2680  143.4200 C   0  0  0  0  0  0  0  0  0  0  0  0
  196.1240  169.6770  144.8880 N   0  0  0  0  0  2  0  0  0  0  0  0
  197.3980  170.1660  144.3680 C   0  0  0  0  0  2  0  0  0  0  0  0
  195.6670  170.6080  145.9160 C   0  0  0  0  0  2  0  0  0  0  0  0
  197.1620  174.5870  144.8300 O   0  0  0  0  0  0  0  0  0  0  0  0
  196.0600  174.0270  145.1230 C   0  0  0  0  0  0  0  0  0  0  0  0
  197.1380  171.1710  143.2960 C   0  0  0  0  0  0  0  0  0  0  0  0
  194.8910  171.7830  145.2980 C   0  0  0  0  0  2  0  0  0  0  0  0
  197.6020  171.1130  141.9510 N   0  0  0  0  0  0  0  0  0  0  0  0
  195.7960  172.7080  144.6180 N   0  0  0  0  0  0  0  0  0  0  0  0
  197.1080  172.2120  141.2130 N   0  0  0  0  0  0  0  0  0  0  0  0
  197.9410  169.8460  141.3010 C   0  0  0  0  0  2  0  0  0  0  0  0
  196.6910  169.1020  140.8830 C   0  0  0  0  0  1  0  0  0  0  0  0
  192.2040  176.8240  143.4100 C   0  0  0  0  0  2  0  0  0  0  0  0
  193.1460  176.4740  142.4210 O   0  0  0  0  0  1  0  0  0  0  0  0
  188.1700  174.6530  141.3200 C   0  0  0  0  0  2  0  0  0  0  0  0
  187.4660  172.4570  142.0060 O   0  0  0  0  0  1  0  0  0  0  0  0
  188.4380  173.1530  141.2620 C   0  0  1  0  0  3  0  0  0  0  0  0
  188.4140  172.7280  139.9280 O   0  0  0  0  0  0  0  0  0  0  0  0
  189.7410  172.4350  139.5900 C   0  0  2  0  0  3  0  0  0  0  0  0
  191.1190  172.7240  137.4230 C   0  0  0  0  0  2  0  0  0  0  0  0
  190.3040  173.3910  138.5300 C   0  0  1  0  0  3  0  0  0  0  0  0
  189.0040  173.4610  136.5250 N   0  0  0  0  0  2  0  0  0  0  0  0
  190.3120  172.9590  136.1600 C   0  0  2  0  0  3  0  0  0  0  0  0
  189.1790  174.0990  137.8280 C   0  0  0  0  0  2  0  0  0  0  0  0
  191.1990  170.6530  135.8640 C   0  0  0  0  0  1  0  0  0  0  0  0
  190.1510  171.6490  135.4160 C   0  0  0  0  0  2  0  0  0  0  0  0
  189.8310  170.9950  139.0590 C   0  0  0  0  0  2  0  0  0  0  0  0
  190.7980  170.1260  139.8230 C   0  0  0  0  0  0  0  0  0  0  0  0
  190.5330  168.9060  139.9880 O   0  0  0  0  0  0  0  0  0  0  0  0
  192.0040  170.5970  140.3250 O   0  0  0  0  0  0  0  0  0  0  0  0
  193.2800  170.1330  139.8930 C   0  0  0  0  0  2  0  0  0  0  0  0
  195.3050  173.3190  137.8590 C   0  0  0  0  0  0  0  0  0  0  0  0
  194.6030  170.9770  137.9000 C   0  0  0  0  0  0  0  0  0  0  0  0
  194.5840  173.5150  139.0520 C   0  0  0  0  0  0  0  0  0  0  0  0
  195.2980  172.0380  137.2700 C   0  0  0  0  0  0  0  0  0  0  0  0
  193.9240  171.2340  139.0970 C   0  0  0  0  0  0  0  0  0  0  0  0
  195.9720  171.8270  136.0210 N   0  0  0  0  0  1  0  0  0  0  0  0
  193.9330  172.4810  139.6250 N   0  0  0  0  0  0  0  0  0  0  0  0
  194.4940  174.8310  139.7390 C   0  0  0  0  0  1  0  0  0  0  0  0
  195.2580  168.6640  137.6670 O   0  0  0  0  0  0  0  0  0  0  0  0
  194.4930  169.6080  137.3230 C   0  0  0  0  0  3  0  0  0  0  0  0
  195.9430  174.4540  137.0680 C   0  0  2  0  0  3  0  0  0  0  0  0
  195.7890  176.1080  135.3010 O   0  0  0  0  0  1  0  0  0  0  0  0
  195.2700  174.8940  135.7510 C   0  0  2  0  0  3  0  0  0  0  0  0
  193.4210  176.2360  136.4830 O   0  0  0  0  0  1  0  0  0  0  0  0
  193.7520  175.0030  135.9190 C   0  0  0  0  0  2  0  0  0  0  0  0
  197.3600  174.4840  137.0650 O   0  0  0  0  0  0  0  0  0  0  0  0
  197.7250  175.6340  137.6060 O   0  0  0  0  0  1  0  0  0  0  0  0
  1  2  2  0  0  0  0
  2 12  1  0  0  0  0
  3  6  1  0  0  0  0
  4  2  1  1  0  0  0
  4  7  1  0  0  0  0
  6  5  1  0  0  0  0
  7  6  1  0  0  0  0
  7 11  1  1  0  0  0
  8  4  1  0  0  0  0
  8  3  1  0  0  0  0
 11  9  2  0  0  0  0
 11 10  1  0  0  0  0
 12 13  1  0  0  0  0
 14 34  1  1  0  0  0
 14 13  1  0  0  0  0
 14 19  1  0  0  0  0
 15 19  1  0  0  0  0
 16 15  1  0  0  0  0
 16 17  1  0  0  0  0
 17 26  1  6  0  0  0
 18 17  1  0  0  0  0
 19 18  1  0  0  0  0
 20 21  1  0  0  0  0
 21 30  1  0  0  0  0
 22 24  1  0  0  0  0
 23 22  1  0  0  0  0
 25 26  2  0  0  0  0
 27 21  2  0  0  0  0
 27 23  1  0  0  0  0
 28 24  1  0  0  0  0
 29 27  1  0  0  0  0
 30 26  1  0  0  0  0
 30 28  1  0  0  0  0
 31 29  1  0  0  0  0
 31 20  2  0  0  0  0
 32 29  1  0  0  0  0
 33 32  1  0  0  0  0
 35 34  1  0  0  0  0
 36  1  1  0  0  0  0
 38 36  1  0  0  0  0
 38 37  1  1  0  0  0
 39 38  1  0  0  0  0
 40 48  1  6  0  0  0
 40 39  1  0  0  0  0
 41 42  1  0  0  0  0
 42 40  1  1  0  0  0
 43 45  1  0  0  0  0
 44 47  1  1  0  0  0
 44 43  1  0  0  0  0
 44 41  1  0  0  0  0
 45 42  1  0  0  0  0
 47 46  1  0  0  0  0
 48 49  1  0  0  0  0
 49 50  2  0  0  0  0
 49 51  1  0  0  0  0
 52 51  1  0  0  0  0
 53 55  1  0  0  0  0
 54 57  2  0  0  0  0
 55 59  2  0  0  0  0
 55 60  1  0  0  0  0
 56 53  2  0  0  0  0
 56 54  1  0  0  0  0
 57 59  1  0  0  0  0
 57 52  1  0  0  0  0
 58 56  1  0  0  0  0
 62 61  2  0  0  0  0
 62 54  1  0  0  0  0
 63 68  1  6  0  0  0
 63 53  1  0  0  0  0
 65 64  1  1  0  0  0
 65 67  1  0  0  0  0
 65 63  1  0  0  0  0
 67 66  1  0  0  0  0
 68 69  1  0  0  0  0
M  END
>  <MODEL>
3

>  <REMARK>
 VINA RESULT:      -5.2      2.421      9.599
  Name = 
  25 active torsions:
  status: ('A' for Active; 'I' for Inactive)
    1  A    between atoms: C_1  and  C_13
    2  A    between atoms: C_1  and  C_45
    3  A    between atoms: O_5  and  C_14
    4  A    between atoms: O_5  and  C_63
    5  A    between atoms: C_7  and  C_35
    6  A    between atoms: C_9  and  C_55
    7  A    between atoms: C_10  and  C_45
    8  A    between atoms: C_11  and  C_53
    9  A    between atoms: C_13  and  O_34
   10  A    between atoms: C_14  and  C_21
   11  A    between atoms: C_14  and  N_54
   12  A    between atoms: O_17  and  C_35
   13  A    between atoms: O_19  and  C_45
   14  A    between atoms: O_19  and  C_58
   15  A    between atoms: C_20  and  C_26
   16  A    between atoms: C_20  and  C_58
   17  A    between atoms: C_24  and  C_67
   18  A    between atoms: C_31  and  C_52
   19  A    between atoms: O_34  and  C_52
   20  A    between atoms: C_35  and  C_67
   21  A    between atoms: C_37  and  C_50
   22  A    between atoms: C_41  and  C_44
   23  A    between atoms: C_49  and  C_64
   24  A    between atoms: C_55  and  C_63
   25  A    between atoms: N_59  and  C_62
                            x       y       z     vdW  Elec       q    Type
                         _______ _______ _______ _____ _____    ______ ____

>  <TORSDO>
F 25

$$$$
=
 OpenBabel11042415093D

 69 74  0  0  1  0  0  0  0  0999 V2000
  192.9940  174.3650  142.6610 C   0  0  0  0  0  3  0  0  0  0  0  0
  192.6070  173.1160  142.9550 C   0  0  0  0  0  0  0  0  0  0  0  0
  193.5390  169.5140  142.6680 C   0  0  0  0  0  2  0  0  0  0  0  0
  193.4420  171.8900  142.7150 C   0  0  1  0  0  3  0  0  0  0  0  0
  195.4920  169.2270  143.9140 C   0  0  0  0  0  1  0  0  0  0  0  0
  194.2230  169.9320  143.8990 N   0  0  0  0  0  0  0  0  0  0  0  0
  194.5050  171.3630  143.7100 C   0  0  2  0  0  3  0  0  0  0  0  0
  192.6540  170.6790  142.2700 C   0  0  0  0  0  2  0  0  0  0  0  0
  194.3530  171.4400  146.0960 O   0  0  0  0  0  1  0  0  0  0  0  0
  195.2760  173.3120  145.1690 O   0  0  0  0  0  0  0  0  0  0  0  0
  194.7100  172.0490  145.0520 C   0  0  0  0  0  0  0  0  0  0  0  0
  191.4210  172.9340  143.8450 C   0  0  0  0  0  2  0  0  0  0  0  0
  191.5860  173.7210  144.9940 O   0  0  0  0  0  0  0  0  0  0  0  0
  190.4230  174.5120  145.1000 C   0  0  2  0  0  3  0  0  0  0  0  0
  190.3290  176.9060  144.9910 C   0  0  0  0  0  2  0  0  0  0  0  0
  189.0030  177.5600  144.6770 C   0  0  0  0  0  2  0  0  0  0  0  0
  188.6480  177.0080  143.3250 C   0  0  1  0  0  3  0  0  0  0  0  0
  189.3410  175.6610  143.2580 C   0  0  0  0  0  2  0  0  0  0  0  0
  190.4690  175.6920  144.1960 N   0  0  0  0  0  0  0  0  0  0  0  0
  185.2020  177.7900  140.7940 N   0  0  0  0  0  0  0  0  0  0  0  0
  185.1520  178.0770  142.1840 C   0  0  0  0  0  0  0  0  0  0  0  0
  184.1790  179.8510  144.3930 N   0  0  0  0  0  2  0  0  0  0  0  0
  183.4590  178.6740  143.9160 C   0  0  0  0  0  2  0  0  0  0  0  0
  185.4460  179.4060  144.9670 C   0  0  0  0  0  2  0  0  0  0  0  0
  186.6630  175.7930  142.7960 O   0  0  0  0  0  0  0  0  0  0  0  0
  187.1420  176.9270  143.1090 C   0  0  0  0  0  0  0  0  0  0  0  0
  183.9270  178.3370  142.5400 C   0  0  0  0  0  0  0  0  0  0  0  0
  186.5280  179.2620  143.8840 C   0  0  0  0  0  2  0  0  0  0  0  0
  183.1170  178.2320  141.3730 N   0  0  0  0  0  0  0  0  0  0  0  0
  186.2880  178.0810  143.0570 N   0  0  0  0  0  0  0  0  0  0  0  0
  183.9170  177.9540  140.2420 N   0  0  0  0  0  0  0  0  0  0  0  0
  181.8380  178.9360  141.2510 C   0  0  0  0  0  2  0  0  0  0  0  0
  180.8720  178.1530  140.3880 C   0  0  0  0  0  1  0  0  0  0  0  0
  190.2030  174.9030  146.5710 C   0  0  0  0  0  2  0  0  0  0  0  0
  189.0380  174.2970  147.0840 O   0  0  0  0  0  1  0  0  0  0  0  0
  194.2790  174.7350  141.9740 C   0  0  0  0  0  2  0  0  0  0  0  0
  193.2980  174.5720  139.7830 O   0  0  0  0  0  1  0  0  0  0  0  0
  194.3580  174.1080  140.5860 C   0  0  1  0  0  3  0  0  0  0  0  0
  195.5850  174.4370  139.9960 O   0  0  0  0  0  0  0  0  0  0  0  0
  196.4630  173.3960  140.3210 C   0  0  2  0  0  3  0  0  0  0  0  0
  197.9010  175.4210  141.0320 C   0  0  0  0  0  2  0  0  0  0  0  0
  197.7750  173.9020  140.9350 C   0  0  1  0  0  3  0  0  0  0  0  0
  197.5760  174.5050  143.2400 N   0  0  0  0  0  2  0  0  0  0  0  0
  197.9380  175.7080  142.5210 C   0  0  2  0  0  3  0  0  0  0  0  0
  197.9100  173.3990  142.3450 C   0  0  0  0  0  2  0  0  0  0  0  0
  196.0890  176.4050  144.0340 C   0  0  0  0  0  1  0  0  0  0  0  0
  196.9410  176.8010  142.8470 C   0  0  0  0  0  2  0  0  0  0  0  0
  196.7870  172.5830  139.0570 C   0  0  0  0  0  2  0  0  0  0  0  0
  196.2020  171.1920  139.0630 C   0  0  0  0  0  0  0  0  0  0  0  0
  195.4840  170.8310  140.0320 O   0  0  0  0  0  0  0  0  0  0  0  0
  196.3800  170.2930  138.0210 O   0  0  0  0  0  0  0  0  0  0  0  0
  195.8420  170.4750  136.7140 C   0  0  0  0  0  2  0  0  0  0  0  0
  191.9500  172.1260  137.4330 C   0  0  0  0  0  0  0  0  0  0  0  0
  194.2060  172.4050  136.5320 C   0  0  0  0  0  0  0  0  0  0  0  0
  192.2720  170.7850  137.7190 C   0  0  0  0  0  0  0  0  0  0  0  0
  192.9250  172.9370  136.8170 C   0  0  0  0  0  0  0  0  0  0  0  0
  194.4680  171.0700  136.8610 C   0  0  0  0  0  0  0  0  0  0  0  0
  192.6010  174.2880  136.4580 N   0  0  0  0  0  1  0  0  0  0  0  0
  193.5030  170.3110  137.4330 N   0  0  0  0  0  0  0  0  0  0  0  0
  191.3100  169.8320  138.3340 C   0  0  0  0  0  1  0  0  0  0  0  0
  195.2840  174.4290  135.7780 O   0  0  0  0  0  0  0  0  0  0  0  0
  195.2760  173.1680  135.8320 C   0  0  0  0  0  3  0  0  0  0  0  0
  190.5480  172.7010  137.5840 C   0  0  2  0  0  3  0  0  0  0  0  0
  190.5650  172.4490  139.9970 O   0  0  0  0  0  1  0  0  0  0  0  0
  190.1390  173.2770  138.9570 C   0  0  2  0  0  3  0  0  0  0  0  0
  188.0100  172.3230  139.5140 O   0  0  0  0  0  1  0  0  0  0  0  0
  188.6250  173.4820  139.0380 C   0  0  0  0  0  2  0  0  0  0  0  0
  189.5220  172.0200  136.8820 O   0  0  0  0  0  0  0  0  0  0  0  0
  189.2900  172.7050  135.7750 O   0  0  0  0  0  1  0  0  0  0  0  0
  1  2  2  0  0  0  0
  2 12  1  0  0  0  0
  3  6  1  0  0  0  0
  4  2  1  1  0  0  0
  4  7  1  0  0  0  0
  6  5  1  0  0  0  0
  7  6  1  0  0  0  0
  7 11  1  1  0  0  0
  8  3  1  0  0  0  0
  8  4  1  0  0  0  0
 11 10  2  0  0  0  0
 11  9  1  0  0  0  0
 12 13  1  0  0  0  0
 13 14  1  0  0  0  0
 14 34  1  1  0  0  0
 16 15  1  0  0  0  0
 17 26  1  1  0  0  0
 17 16  1  0  0  0  0
 18 17  1  0  0  0  0
 18 19  1  0  0  0  0
 19 15  1  0  0  0  0
 19 14  1  0  0  0  0
 20 21  1  0  0  0  0
 21 27  2  0  0  0  0
 21 30  1  0  0  0  0
 22 24  1  0  0  0  0
 23 22  1  0  0  0  0
 25 26  2  0  0  0  0
 27 23  1  0  0  0  0
 28 24  1  0  0  0  0
 29 27  1  0  0  0  0
 30 26  1  0  0  0  0
 30 28  1  0  0  0  0
 31 20  2  0  0  0  0
 31 29  1  0  0  0  0
 32 29  1  0  0  0  0
 33 32  1  0  0  0  0
 34 35  1  0  0  0  0
 36  1  1  0  0  0  0
 38 37  1  6  0  0  0
 38 36  1  0  0  0  0
 39 40  1  0  0  0  0
 39 38  1  0  0  0  0
 40 48  1  6  0  0  0
 41 44  1  0  0  0  0
 42 40  1  1  0  0  0
 42 41  1  0  0  0  0
 42 45  1  0  0  0  0
 44 47  1  6  0  0  0
 44 43  1  0  0  0  0
 45 43  1  0  0  0  0
 47 46  1  0  0  0  0
 48 49  1  0  0  0  0
 49 50  2  0  0  0  0
 51 49  1  0  0  0  0
 52 57  1  0  0  0  0
 52 51  1  0  0  0  0
 53 63  1  0  0  0  0
 53 55  1  0  0  0  0
 54 56  1  0  0  0  0
 54 57  2  0  0  0  0
 55 60  1  0  0  0  0
 56 53  2  0  0  0  0
 57 59  1  0  0  0  0
 58 56  1  0  0  0  0
 59 55  2  0  0  0  0
 61 62  2  0  0  0  0
 62 54  1  0  0  0  0
 63 68  1  1  0  0  0
 63 65  1  0  0  0  0
 65 67  1  0  0  0  0
 65 64  1  1  0  0  0
 67 66  1  0  0  0  0
 69 68  1  0  0  0  0
M  END
>  <MODEL>
4

>  <REMARK>
 VINA RESULT:      -5.2      2.754      8.867
  Name = 
  25 active torsions:
  status: ('A' for Active; 'I' for Inactive)
    1  A    between atoms: C_1  and  C_13
    2  A    between atoms: C_1  and  C_45
    3  A    between atoms: O_5  and  C_14
    4  A    between atoms: O_5  and  C_63
    5  A    between atoms: C_7  and  C_35
    6  A    between atoms: C_9  and  C_55
    7  A    between atoms: C_10  and  C_45
    8  A    between atoms: C_11  and  C_53
    9  A    between atoms: C_13  and  O_34
   10  A    between atoms: C_14  and  C_21
   11  A    between atoms: C_14  and  N_54
   12  A    between atoms: O_17  and  C_35
   13  A    between atoms: O_19  and  C_45
   14  A    between atoms: O_19  and  C_58
   15  A    between atoms: C_20  and  C_26
   16  A    between atoms: C_20  and  C_58
   17  A    between atoms: C_24  and  C_67
   18  A    between atoms: C_31  and  C_52
   19  A    between atoms: O_34  and  C_52
   20  A    between atoms: C_35  and  C_67
   21  A    between atoms: C_37  and  C_50
   22  A    between atoms: C_41  and  C_44
   23  A    between atoms: C_49  and  C_64
   24  A    between atoms: C_55  and  C_63
   25  A    between atoms: N_59  and  C_62
                            x       y       z     vdW  Elec       q    Type
                         _______ _______ _______ _____ _____    ______ ____

>  <TORSDO>
F 25

$$$$
=
 OpenBabel11042415093D

 69 74  0  0  1  0  0  0  0  0999 V2000
  193.5150  171.8740  141.1610 C   0  0  0  0  0  3  0  0  0  0  0  0
  194.1360  171.6330  142.3240 C   0  0  0  0  0  0  0  0  0  0  0  0
  193.1690  168.3960  143.9070 C   0  0  0  0  0  2  0  0  0  0  0  0
  194.2700  170.2740  142.9490 C   0  0  1  0  0  3  0  0  0  0  0  0
  194.4880  168.1660  145.8190 C   0  0  0  0  0  1  0  0  0  0  0  0
  193.7640  169.1410  145.0240 N   0  0  0  0  0  0  0  0  0  0  0  0
  194.7510  170.0360  144.4020 C   0  0  2  0  0  3  0  0  0  0  0  0
  193.0640  169.3820  142.7610 C   0  0  0  0  0  2  0  0  0  0  0  0
  194.0890  171.8470  145.8170 O   0  0  0  0  0  1  0  0  0  0  0  0
  196.3520  171.6130  145.6160 O   0  0  0  0  0  0  0  0  0  0  0  0
  195.0560  171.2140  145.3130 C   0  0  0  0  0  0  0  0  0  0  0  0
  195.0120  172.7010  142.8920 C   0  0  0  0  0  2  0  0  0  0  0  0
  195.0950  173.7610  141.9770 O   0  0  0  0  0  0  0  0  0  0  0  0
  196.2840  174.4550  142.2850 C   0  0  2  0  0  3  0  0  0  0  0  0
  196.2670  175.7500  144.3040 C   0  0  0  0  0  2  0  0  0  0  0  0
  194.9630  175.9000  145.0510 C   0  0  0  0  0  2  0  0  0  0  0  0
  194.0570  176.5660  144.0530 C   0  0  1  0  0  3  0  0  0  0  0  0
  194.5960  176.1490  142.6980 C   0  0  0  0  0  2  0  0  0  0  0  0
  196.0100  175.7950  142.8700 N   0  0  0  0  0  0  0  0  0  0  0  0
  189.9670  177.8400  144.7910 N   0  0  0  0  0  0  0  0  0  0  0  0
  190.5150  176.7370  145.4990 C   0  0  0  0  0  0  0  0  0  0  0  0
  190.6960  175.1720  148.0470 N   0  0  0  0  0  2  0  0  0  0  0  0
  189.7380  174.8880  146.9810 C   0  0  0  0  0  2  0  0  0  0  0  0
  192.0390  174.9510  147.5190 C   0  0  0  0  0  2  0  0  0  0  0  0
  191.9260  175.8730  143.2310 O   0  0  0  0  0  0  0  0  0  0  0  0
  192.5940  176.1980  144.2620 C   0  0  0  0  0  0  0  0  0  0  0  0
  189.5710  176.1050  146.1340 C   0  0  0  0  0  0  0  0  0  0  0  0
  192.5670  176.2020  146.7980 C   0  0  0  0  0  2  0  0  0  0  0  0
  188.3500  176.7870  145.8640 N   0  0  0  0  0  0  0  0  0  0  0  0
  191.9030  176.3830  145.5080 N   0  0  0  0  0  0  0  0  0  0  0  0
  188.5900  177.9300  145.0700 N   0  0  0  0  0  0  0  0  0  0  0  0
  187.2040  176.7140  146.7730 C   0  0  0  0  0  2  0  0  0  0  0  0
  186.8260  178.0910  147.2750 C   0  0  0  0  0  1  0  0  0  0  0  0
  197.1730  174.5290  141.0330 C   0  0  0  0  0  2  0  0  0  0  0  0
  196.5010  174.0110  139.9070 O   0  0  0  0  0  1  0  0  0  0  0  0
  192.7830  170.8490  140.3400 C   0  0  0  0  0  2  0  0  0  0  0  0
  191.2370  172.6080  139.7890 O   0  0  0  0  0  1  0  0  0  0  0  0
  191.9450  171.5160  139.2530 C   0  0  1  0  0  3  0  0  0  0  0  0
  192.7850  171.9500  138.2200 O   0  0  0  0  0  0  0  0  0  0  0  0
  192.1490  171.5900  137.0250 C   0  0  2  0  0  3  0  0  0  0  0  0
  194.5050  171.3350  135.9960 C   0  0  0  0  0  2  0  0  0  0  0  0
  193.0730  170.8130  136.0780 C   0  0  1  0  0  3  0  0  0  0  0  0
  194.4850  169.2450  137.2000 N   0  0  0  0  0  2  0  0  0  0  0  0
  195.3540  170.2170  136.5710 C   0  0  2  0  0  3  0  0  0  0  0  0
  193.1930  169.3850  136.5340 C   0  0  0  0  0  2  0  0  0  0  0  0
  196.0150  170.1860  138.9700 C   0  0  0  0  0  1  0  0  0  0  0  0
  196.2990  170.7860  137.6100 C   0  0  0  0  0  2  0  0  0  0  0  0
  191.6500  172.8550  136.3070 C   0  0  0  0  0  2  0  0  0  0  0  0
  190.1590  173.0580  136.4050 C   0  0  0  0  0  0  0  0  0  0  0  0
  189.4100  172.5660  135.5200 O   0  0  0  0  0  0  0  0  0  0  0  0
  189.5550  173.7320  137.4580 O   0  0  0  0  0  0  0  0  0  0  0  0
  188.2820  173.3870  137.9970 C   0  0  0  0  0  2  0  0  0  0  0  0
  187.5910  176.3200  141.0480 C   0  0  0  0  0  0  0  0  0  0  0  0
  187.3220  175.6200  138.7200 C   0  0  0  0  0  0  0  0  0  0  0  0
  188.1810  175.0700  141.3140 C   0  0  0  0  0  0  0  0  0  0  0  0
  187.1420  176.5880  139.7380 C   0  0  0  0  0  0  0  0  0  0  0  0
  187.9350  174.4060  139.0470 C   0  0  0  0  0  0  0  0  0  0  0  0
  186.4810  177.8290  139.4550 N   0  0  0  0  0  1  0  0  0  0  0  0
  188.3370  174.1710  140.3190 N   0  0  0  0  0  0  0  0  0  0  0  0
  188.6580  174.6680  142.6650 C   0  0  0  0  0  1  0  0  0  0  0  0
  185.6000  175.7910  137.0360 O   0  0  0  0  0  0  0  0  0  0  0  0
  186.8290  175.7930  137.3260 C   0  0  0  0  0  3  0  0  0  0  0  0
  187.2440  177.3310  142.1320 C   0  0  2  0  0  3  0  0  0  0  0  0
  184.8610  177.1670  141.7130 O   0  0  0  0  0  1  0  0  0  0  0  0
  185.8170  177.3110  142.7190 C   0  0  2  0  0  3  0  0  0  0  0  0
  184.6250  178.3060  144.5480 O   0  0  0  0  0  1  0  0  0  0  0  0
  185.5380  178.5800  143.5290 C   0  0  0  0  0  2  0  0  0  0  0  0
  187.8220  178.6180  141.9840 O   0  0  0  0  0  0  0  0  0  0  0  0
  189.1100  178.4390  141.7450 O   0  0  0  0  0  1  0  0  0  0  0  0
  1  2  2  0  0  0  0
  2 12  1  0  0  0  0
  3  6  1  0  0  0  0
  4  2  1  1  0  0  0
  4  7  1  0  0  0  0
  6  5  1  0  0  0  0
  7  6  1  0  0  0  0
  7 11  1  1  0  0  0
  8  4  1  0  0  0  0
  8  3  1  0  0  0  0
 11 10  2  0  0  0  0
 11  9  1  0  0  0  0
 13 14  1  0  0  0  0
 13 12  1  0  0  0  0
 14 34  1  6  0  0  0
 14 19  1  0  0  0  0
 15 16  1  0  0  0  0
 17 26  1  1  0  0  0
 17 16  1  0  0  0  0
 18 19  1  0  0  0  0
 18 17  1  0  0  0  0
 19 15  1  0  0  0  0
 20 31  2  0  0  0  0
 20 21  1  0  0  0  0
 21 30  1  0  0  0  0
 21 27  2  0  0  0  0
 23 22  1  0  0  0  0
 24 22  1  0  0  0  0
 25 26  2  0  0  0  0
 26 30  1  0  0  0  0
 27 23  1  0  0  0  0
 28 24  1  0  0  0  0
 29 27  1  0  0  0  0
 29 32  1  0  0  0  0
 30 28  1  0  0  0  0
 31 29  1  0  0  0  0
 32 33  1  0  0  0  0
 35 34  1  0  0  0  0
 36  1  1  0  0  0  0
 38 37  1  1  0  0  0
 38 36  1  0  0  0  0
 39 38  1  0  0  0  0
 40 48  1  6  0  0  0
 40 39  1  0  0  0  0
 41 42  1  0  0  0  0
 41 44  1  0  0  0  0
 42 45  1  0  0  0  0
 42 40  1  1  0  0  0
 44 43  1  0  0  0  0
 44 47  1  1  0  0  0
 45 43  1  0  0  0  0
 47 46  1  0  0  0  0
 48 49  1  0  0  0  0
 49 51  1  0  0  0  0
 50 49  2  0  0  0  0
 51 52  1  0  0  0  0
 52 57  1  0  0  0  0
 53 55  1  0  0  0  0
 53 63  1  0  0  0  0
 54 57  2  0  0  0  0
 54 56  1  0  0  0  0
 55 60  1  0  0  0  0
 56 53  2  0  0  0  0
 57 59  1  0  0  0  0
 58 56  1  0  0  0  0
 59 55  2  0  0  0  0
 61 62  2  0  0  0  0
 62 54  1  0  0  0  0
 63 68  1  6  0  0  0
 63 65  1  0  0  0  0
 65 64  1  6  0  0  0
 65 67  1  0  0  0  0
 67 66  1  0  0  0  0
 69 68  1  0  0  0  0
M  END
>  <MODEL>
5

>  <REMARK>
 VINA RESULT:      -4.9      2.656      8.134
  Name = 
  25 active torsions:
  status: ('A' for Active; 'I' for Inactive)
    1  A    between atoms: C_1  and  C_13
    2  A    between atoms: C_1  and  C_45
    3  A    between atoms: O_5  and  C_14
    4  A    between atoms: O_5  and  C_63
    5  A    between atoms: C_7  and  C_35
    6  A    between atoms: C_9  and  C_55
    7  A    between atoms: C_10  and  C_45
    8  A    between atoms: C_11  and  C_53
    9  A    between atoms: C_13  and  O_34
   10  A    between atoms: C_14  and  C_21
   11  A    between atoms: C_14  and  N_54
   12  A    between atoms: O_17  and  C_35
   13  A    between atoms: O_19  and  C_45
   14  A    between atoms: O_19  and  C_58
   15  A    between atoms: C_20  and  C_26
   16  A    between atoms: C_20  and  C_58
   17  A    between atoms: C_24  and  C_67
   18  A    between atoms: C_31  and  C_52
   19  A    between atoms: O_34  and  C_52
   20  A    between atoms: C_35  and  C_67
   21  A    between atoms: C_37  and  C_50
   22  A    between atoms: C_41  and  C_44
   23  A    between atoms: C_49  and  C_64
   24  A    between atoms: C_55  and  C_63
   25  A    between atoms: N_59  and  C_62
                            x       y       z     vdW  Elec       q    Type
                         _______ _______ _______ _____ _____    ______ ____

>  <TORSDO>
F 25

$$$$
=
 OpenBabel11042415093D

 69 74  0  0  1  0  0  0  0  0999 V2000
  193.5390  171.4920  140.9690 C   0  0  0  0  0  3  0  0  0  0  0  0
  194.2310  170.3500  140.8440 C   0  0  0  0  0  0  0  0  0  0  0  0
  196.1340  168.1950  138.4660 C   0  0  0  0  0  2  0  0  0  0  0  0
  194.8280  169.8570  139.5570 C   0  0  1  0  0  3  0  0  0  0  0  0
  197.5620  169.6080  137.2780 C   0  0  0  0  0  1  0  0  0  0  0  0
  196.9930  169.3780  138.5940 N   0  0  0  0  0  0  0  0  0  0  0  0
  196.0730  170.4880  138.8860 C   0  0  2  0  0  3  0  0  0  0  0  0
  195.0430  168.3610  139.5050 C   0  0  0  0  0  2  0  0  0  0  0  0
  197.8580  171.3690  140.2120 O   0  0  0  0  0  1  0  0  0  0  0  0
  196.3840  172.9530  139.4790 O   0  0  0  0  0  0  0  0  0  0  0  0
  196.8120  171.6330  139.5600 C   0  0  0  0  0  0  0  0  0  0  0  0
  194.7080  169.6730  142.0870 C   0  0  0  0  0  2  0  0  0  0  0  0
  196.0750  169.9400  142.2570 O   0  0  0  0  0  0  0  0  0  0  0  0
  196.4710  169.2390  143.4160 C   0  0  2  0  0  3  0  0  0  0  0  0
  196.1380  169.6430  145.7560 C   0  0  0  0  0  2  0  0  0  0  0  0
  195.0230  170.5720  146.1740 C   0  0  0  0  0  2  0  0  0  0  0  0
  195.3820  171.8750  145.5140 C   0  0  1  0  0  3  0  0  0  0  0  0
  196.1940  171.4840  144.2940 C   0  0  0  0  0  2  0  0  0  0  0  0
  196.7680  170.1570  144.5470 N   0  0  0  0  0  0  0  0  0  0  0  0
  193.1720  174.2580  142.6280 N   0  0  0  0  0  0  0  0  0  0  0  0
  193.3180  174.7060  143.9690 C   0  0  0  0  0  0  0  0  0  0  0  0
  193.6760  176.9880  145.8740 N   0  0  0  0  0  2  0  0  0  0  0  0
  192.3760  176.4580  145.4730 C   0  0  0  0  0  2  0  0  0  0  0  0
  194.3890  175.9400  146.6000 C   0  0  0  0  0  2  0  0  0  0  0  0
  193.0710  172.0910  144.9580 O   0  0  0  0  0  0  0  0  0  0  0  0
  194.1550  172.7140  145.1820 C   0  0  0  0  0  0  0  0  0  0  0  0
  192.5250  175.7150  144.1870 C   0  0  0  0  0  0  0  0  0  0  0  0
  195.1390  175.0070  145.6350 C   0  0  0  0  0  2  0  0  0  0  0  0
  191.8230  175.9720  142.9750 N   0  0  0  0  0  0  0  0  0  0  0  0
  194.2100  174.1270  144.9280 N   0  0  0  0  0  0  0  0  0  0  0  0
  192.2690  175.1030  141.9550 N   0  0  0  0  0  0  0  0  0  0  0  0
  191.2650  177.2900  142.6670 C   0  0  0  0  0  2  0  0  0  0  0  0
  191.2120  178.1570  143.9060 C   0  0  0  0  0  1  0  0  0  0  0  0
  197.6550  168.3180  143.0770 C   0  0  0  0  0  2  0  0  0  0  0  0
  197.9090  168.3130  141.6900 O   0  0  0  0  0  1  0  0  0  0  0  0
  193.1780  172.4150  139.8390 C   0  0  0  0  0  2  0  0  0  0  0  0
  190.8470  172.1900  140.3880 O   0  0  0  0  0  1  0  0  0  0  0  0
  191.7700  172.1290  139.3270 C   0  0  1  0  0  3  0  0  0  0  0  0
  191.4330  173.0670  138.3440 O   0  0  0  0  0  0  0  0  0  0  0  0
  190.3110  172.5520  137.6840 C   0  0  2  0  0  3  0  0  0  0  0  0
  191.9900  171.8000  135.8690 C   0  0  0  0  0  2  0  0  0  0  0  0
  190.5770  172.2780  136.1970 C   0  0  1  0  0  3  0  0  0  0  0  0
  190.4480  169.9620  135.6190 N   0  0  0  0  0  2  0  0  0  0  0  0
  191.8060  170.3870  135.3510 C   0  0  2  0  0  3  0  0  0  0  0  0
  189.6630  171.1910  135.7040 C   0  0  0  0  0  2  0  0  0  0  0  0
  192.1840  169.0110  137.3900 C   0  0  0  0  0  1  0  0  0  0  0  0
  192.7670  169.4590  136.0670 C   0  0  0  0  0  2  0  0  0  0  0  0
  189.1420  173.5430  137.8050 C   0  0  0  0  0  2  0  0  0  0  0  0
  188.4520  173.5050  139.1460 C   0  0  0  0  0  0  0  0  0  0  0  0
  187.7250  172.5200  139.4370 O   0  0  0  0  0  0  0  0  0  0  0  0
  188.6150  174.4930  140.1080 O   0  0  0  0  0  0  0  0  0  0  0  0
  187.7090  175.5770  140.2950 C   0  0  0  0  0  2  0  0  0  0  0  0
  187.9360  176.5400  144.4670 C   0  0  0  0  0  0  0  0  0  0  0  0
  187.0600  177.0630  142.2450 C   0  0  0  0  0  0  0  0  0  0  0  0
  188.5180  175.3810  143.9220 C   0  0  0  0  0  0  0  0  0  0  0  0
  187.1840  177.3800  143.6190 C   0  0  0  0  0  0  0  0  0  0  0  0
  187.6820  175.9060  141.7620 C   0  0  0  0  0  0  0  0  0  0  0  0
  186.5280  178.5340  144.1640 N   0  0  0  0  0  1  0  0  0  0  0  0
  188.3790  175.1100  142.6070 N   0  0  0  0  0  0  0  0  0  0  0  0
  189.3010  174.4080  144.7300 C   0  0  0  0  0  1  0  0  0  0  0  0
  184.9850  177.7450  141.2140 O   0  0  0  0  0  0  0  0  0  0  0  0
  186.2400  177.8580  141.2890 C   0  0  0  0  0  3  0  0  0  0  0  0
  187.9170  176.8470  145.9590 C   0  0  2  0  0  3  0  0  0  0  0  0
  189.2020  175.7640  147.7080 O   0  0  0  0  0  1  0  0  0  0  0  0
  189.2470  176.7650  146.7380 C   0  0  2  0  0  3  0  0  0  0  0  0
  190.1750  177.9020  148.6360 O   0  0  0  0  0  1  0  0  0  0  0  0
  189.5860  178.1090  147.3880 C   0  0  0  0  0  2  0  0  0  0  0  0
  186.7710  176.4020  146.6660 O   0  0  0  0  0  0  0  0  0  0  0  0
  186.3710  177.4060  147.4280 O   0  0  0  0  0  1  0  0  0  0  0  0
  2  1  2  0  0  0  0
  2 12  1  0  0  0  0
  3  6  1  0  0  0  0
  3  8  1  0  0  0  0
  4  2  1  1  0  0  0
  5  6  1  0  0  0  0
  6  7  1  0  0  0  0
  7  4  1  0  0  0  0
  7 11  1  1  0  0  0
  8  4  1  0  0  0  0
 10 11  2  0  0  0  0
 11  9  1  0  0  0  0
 12 13  1  0  0  0  0
 13 14  1  0  0  0  0
 14 34  1  6  0  0  0
 14 19  1  0  0  0  0
 15 16  1  0  0  0  0
 17 26  1  6  0  0  0
 17 16  1  0  0  0  0
 18 19  1  0  0  0  0
 18 17  1  0  0  0  0
 19 15  1  0  0  0  0
 20 21  1  0  0  0  0
 21 27  2  0  0  0  0
 21 30  1  0  0  0  0
 22 24  1  0  0  0  0
 23 22  1  0  0  0  0
 25 26  2  0  0  0  0
 27 23  1  0  0  0  0
 28 24  1  0  0  0  0
 29 27  1  0  0  0  0
 30 26  1  0  0  0  0
 30 28  1  0  0  0  0
 31 20  2  0  0  0  0
 31 29  1  0  0  0  0
 32 29  1  0  0  0  0
 32 33  1  0  0  0  0
 35 34  1  0  0  0  0
 36  1  1  0  0  0  0
 38 36  1  0  0  0  0
 38 37  1  1  0  0  0
 39 38  1  0  0  0  0
 40 48  1  6  0  0  0
 40 39  1  0  0  0  0
 41 42  1  0  0  0  0
 42 40  1  1  0  0  0
 43 45  1  0  0  0  0
 44 43  1  0  0  0  0
 44 41  1  0  0  0  0
 44 47  1  1  0  0  0
 45 42  1  0  0  0  0
 47 46  1  0  0  0  0
 48 49  1  0  0  0  0
 49 50  2  0  0  0  0
 49 51  1  0  0  0  0
 51 52  1  0  0  0  0
 52 57  1  0  0  0  0
 53 63  1  0  0  0  0
 54 56  1  0  0  0  0
 55 53  1  0  0  0  0
 55 60  1  0  0  0  0
 56 58  1  0  0  0  0
 56 53  2  0  0  0  0
 57 54  2  0  0  0  0
 57 59  1  0  0  0  0
 59 55  2  0  0  0  0
 61 62  2  0  0  0  0
 62 54  1  0  0  0  0
 63 68  1  1  0  0  0
 63 65  1  0  0  0  0
 65 67  1  0  0  0  0
 65 64  1  1  0  0  0
 67 66  1  0  0  0  0
 68 69  1  0  0  0  0
M  END
>  <MODEL>
6

>  <REMARK>
 VINA RESULT:      -4.5      2.851      7.792
  Name = 
  25 active torsions:
  status: ('A' for Active; 'I' for Inactive)
    1  A    between atoms: C_1  and  C_13
    2  A    between atoms: C_1  and  C_45
    3  A    between atoms: O_5  and  C_14
    4  A    between atoms: O_5  and  C_63
    5  A    between atoms: C_7  and  C_35
    6  A    between atoms: C_9  and  C_55
    7  A    between atoms: C_10  and  C_45
    8  A    between atoms: C_11  and  C_53
    9  A    between atoms: C_13  and  O_34
   10  A    between atoms: C_14  and  C_21
   11  A    between atoms: C_14  and  N_54
   12  A    between atoms: O_17  and  C_35
   13  A    between atoms: O_19  and  C_45
   14  A    between atoms: O_19  and  C_58
   15  A    between atoms: C_20  and  C_26
   16  A    between atoms: C_20  and  C_58
   17  A    between atoms: C_24  and  C_67
   18  A    between atoms: C_31  and  C_52
   19  A    between atoms: O_34  and  C_52
   20  A    between atoms: C_35  and  C_67
   21  A    between atoms: C_37  and  C_50
   22  A    between atoms: C_41  and  C_44
   23  A    between atoms: C_49  and  C_64
   24  A    between atoms: C_55  and  C_63
   25  A    between atoms: N_59  and  C_62
                            x       y       z     vdW  Elec       q    Type
                         _______ _______ _______ _____ _____    ______ ____

>  <TORSDO>
F 25

$$$$
=
 OpenBabel11042415093D

 69 74  0  0  1  0  0  0  0  0999 V2000
  193.9110  173.7900  138.8150 C   0  0  0  0  0  3  0  0  0  0  0  0
  193.6340  173.2090  137.6390 C   0  0  0  0  0  0  0  0  0  0  0  0
  190.0150  172.3240  137.8290 C   0  0  0  0  0  2  0  0  0  0  0  0
  192.3200  172.5660  137.2980 C   0  0  1  0  0  3  0  0  0  0  0  0
  189.8910  169.9940  137.7610 C   0  0  0  0  0  1  0  0  0  0  0  0
  190.6760  171.0960  138.2880 N   0  0  0  0  0  0  0  0  0  0  0  0
  191.9780  171.0870  137.6050 C   0  0  2  0  0  3  0  0  0  0  0  0
  191.1090  173.3670  137.7180 C   0  0  0  0  0  2  0  0  0  0  0  0
  193.1730  170.4430  139.5740 O   0  0  0  0  0  1  0  0  0  0  0  0
  193.6490  169.1600  137.7450 O   0  0  0  0  0  0  0  0  0  0  0  0
  192.9690  170.2080  138.3530 C   0  0  0  0  0  0  0  0  0  0  0  0
  194.5490  173.4720  136.4880 C   0  0  0  0  0  2  0  0  0  0  0  0
  195.7780  173.9390  136.9770 O   0  0  0  0  0  0  0  0  0  0  0  0
  196.7600  173.4890  136.0700 C   0  0  2  0  0  3  0  0  0  0  0  0
  197.7590  171.3750  136.6070 C   0  0  0  0  0  2  0  0  0  0  0  0
  197.4490  170.7540  137.9490 C   0  0  0  0  0  2  0  0  0  0  0  0
  197.9410  171.7760  138.9350 C   0  0  1  0  0  3  0  0  0  0  0  0
  197.8510  173.1010  138.2020 C   0  0  0  0  0  2  0  0  0  0  0  0
  197.8920  172.8180  136.7630 N   0  0  0  0  0  0  0  0  0  0  0  0
  197.9360  171.8330  143.2810 N   0  0  0  0  0  0  0  0  0  0  0  0
  197.1090  170.9200  142.5740 C   0  0  0  0  0  0  0  0  0  0  0  0
  195.8610  168.2020  142.4120 N   0  0  0  0  0  2  0  0  0  0  0  0
  195.2200  169.3580  143.0330 C   0  0  0  0  0  2  0  0  0  0  0  0
  196.0300  168.4870  140.9900 C   0  0  0  0  0  2  0  0  0  0  0  0
  196.5670  172.8220  140.5820 O   0  0  0  0  0  0  0  0  0  0  0  0
  197.1550  171.7490  140.2390 C   0  0  0  0  0  0  0  0  0  0  0  0
  196.2630  170.3640  143.3910 C   0  0  0  0  0  0  0  0  0  0  0  0
  197.3290  169.2670  140.7290 C   0  0  0  0  0  2  0  0  0  0  0  0
  196.5120  170.8980  144.6870 N   0  0  0  0  0  0  0  0  0  0  0  0
  197.2040  170.6550  141.1690 N   0  0  0  0  0  0  0  0  0  0  0  0
  197.6150  171.7810  144.6510 N   0  0  0  0  0  0  0  0  0  0  0  0
  196.1530  170.1740  145.9080 C   0  0  0  0  0  2  0  0  0  0  0  0
  196.8270  168.8190  145.9500 C   0  0  0  0  0  1  0  0  0  0  0  0
  197.2190  174.6630  135.1890 C   0  0  0  0  0  2  0  0  0  0  0  0
  197.3100  175.8520  135.9410 O   0  0  0  0  0  1  0  0  0  0  0  0
  192.9920  173.8190  140.0050 C   0  0  0  0  0  2  0  0  0  0  0  0
  194.4650  175.5970  140.6840 O   0  0  0  0  0  1  0  0  0  0  0  0
  193.6290  174.5730  141.1690 C   0  0  1  0  0  3  0  0  0  0  0  0
  192.6230  175.1180  141.9750 O   0  0  0  0  0  0  0  0  0  0  0  0
  192.8430  174.6150  143.2640 C   0  0  2  0  0  3  0  0  0  0  0  0
  194.8390  176.1370  143.8790 C   0  0  0  0  0  2  0  0  0  0  0  0
  194.3140  174.7150  143.6910 C   0  0  1  0  0  3  0  0  0  0  0  0
  194.6010  175.0820  146.0360 N   0  0  0  0  0  2  0  0  0  0  0  0
  195.1570  176.2350  145.3590 C   0  0  2  0  0  3  0  0  0  0  0  0
  194.5100  174.0370  145.0180 C   0  0  0  0  0  2  0  0  0  0  0  0
  193.3730  177.1450  146.8370 C   0  0  0  0  0  1  0  0  0  0  0  0
  194.5300  177.4930  145.9250 C   0  0  0  0  0  2  0  0  0  0  0  0
  192.4070  173.1420  143.3230 C   0  0  0  0  0  2  0  0  0  0  0  0
  191.2380  172.8930  144.2450 C   0  0  0  0  0  0  0  0  0  0  0  0
  190.7000  171.7560  144.2630 O   0  0  0  0  0  0  0  0  0  0  0  0
  190.7470  173.8540  145.1180 O   0  0  0  0  0  0  0  0  0  0  0  0
  190.8400  175.2580  144.8900 C   0  0  0  0  0  2  0  0  0  0  0  0
  186.9900  177.1430  144.9850 C   0  0  0  0  0  0  0  0  0  0  0  0
  188.5780  175.6880  143.8260 C   0  0  0  0  0  0  0  0  0  0  0  0
  187.9000  177.2170  146.0560 C   0  0  0  0  0  0  0  0  0  0  0  0
  187.3290  176.3550  143.8660 C   0  0  0  0  0  0  0  0  0  0  0  0
  189.4460  175.8220  144.9160 C   0  0  0  0  0  0  0  0  0  0  0  0
  186.3930  176.2110  142.7880 N   0  0  0  0  0  1  0  0  0  0  0  0
  189.0820  176.5690  145.9850 N   0  0  0  0  0  0  0  0  0  0  0  0
  187.6300  177.9890  147.2990 C   0  0  0  0  0  1  0  0  0  0  0  0
  188.1690  174.2740  141.9130 O   0  0  0  0  0  0  0  0  0  0  0  0
  188.9960  174.7910  142.7140 C   0  0  0  0  0  3  0  0  0  0  0  0
  185.5800  177.7170  145.0400 C   0  0  2  0  0  3  0  0  0  0  0  0
  185.4650  180.1280  144.8060 O   0  0  0  0  0  1  0  0  0  0  0  0
  185.2470  178.9240  144.1370 C   0  0  2  0  0  3  0  0  0  0  0  0
  183.7700  178.3760  142.3280 O   0  0  0  0  0  1  0  0  0  0  0  0
  183.8020  178.8540  143.6390 C   0  0  0  0  0  2  0  0  0  0  0  0
  184.9690  177.7290  146.3190 O   0  0  0  0  0  0  0  0  0  0  0  0
  184.6030  176.4870  146.5860 O   0  0  0  0  0  1  0  0  0  0  0  0
  1 36  1  0  0  0  0
  2  1  2  0  0  0  0
  3  6  1  0  0  0  0
  4  7  1  0  0  0  0
  4  2  1  1  0  0  0
  4  8  1  0  0  0  0
  5  6  1  0  0  0  0
  7  6  1  0  0  0  0
  7 11  1  1  0  0  0
  8  3  1  0  0  0  0
 10 11  2  0  0  0  0
 11  9  1  0  0  0  0
 12 13  1  0  0  0  0
 12  2  1  0  0  0  0
 14 34  1  1  0  0  0
 14 19  1  0  0  0  0
 14 13  1  0  0  0  0
 15 19  1  0  0  0  0
 15 16  1  0  0  0  0
 16 17  1  0  0  0  0
 17 26  1  1  0  0  0
 18 17  1  0  0  0  0
 19 18  1  0  0  0  0
 20 31  2  0  0  0  0
 21 20  1  0  0  0  0
 21 27  2  0  0  0  0
 22 23  1  0  0  0  0
 23 27  1  0  0  0  0
 24 22  1  0  0  0  0
 26 25  2  0  0  0  0
 26 30  1  0  0  0  0
 27 29  1  0  0  0  0
 28 24  1  0  0  0  0
 28 30  1  0  0  0  0
 29 32  1  0  0  0  0
 30 21  1  0  0  0  0
 31 29  1  0  0  0  0
 32 33  1  0  0  0  0
 34 35  1  0  0  0  0
 36 38  1  0  0  0  0
 38 37  1  6  0  0  0
 38 39  1  0  0  0  0
 39 40  1  0  0  0  0
 40 48  1  6  0  0  0
 41 44  1  0  0  0  0
 42 40  1  1  0  0  0
 42 41  1  0  0  0  0
 42 45  1  0  0  0  0
 44 47  1  1  0  0  0
 44 43  1  0  0  0  0
 45 43  1  0  0  0  0
 47 46  1  0  0  0  0
 48 49  1  0  0  0  0
 49 50  2  0  0  0  0
 49 51  1  0  0  0  0
 52 57  1  0  0  0  0
 52 51  1  0  0  0  0
 53 63  1  0  0  0  0
 53 55  1  0  0  0  0
 54 56  1  0  0  0  0
 54 57  2  0  0  0  0
 55 60  1  0  0  0  0
 56 53  2  0  0  0  0
 57 59  1  0  0  0  0
 58 56  1  0  0  0  0
 59 55  2  0  0  0  0
 61 62  2  0  0  0  0
 62 54  1  0  0  0  0
 63 68  1  1  0  0  0
 65 64  1  1  0  0  0
 65 63  1  0  0  0  0
 66 67  1  0  0  0  0
 67 65  1  0  0  0  0
 68 69  1  0  0  0  0
M  END
>  <MODEL>
7

>  <REMARK>
 VINA RESULT:      -4.4      2.369      5.977
  Name = 
  25 active torsions:
  status: ('A' for Active; 'I' for Inactive)
    1  A    between atoms: C_1  and  C_13
    2  A    between atoms: C_1  and  C_45
    3  A    between atoms: O_5  and  C_14
    4  A    between atoms: O_5  and  C_63
    5  A    between atoms: C_7  and  C_35
    6  A    between atoms: C_9  and  C_55
    7  A    between atoms: C_10  and  C_45
    8  A    between atoms: C_11  and  C_53
    9  A    between atoms: C_13  and  O_34
   10  A    between atoms: C_14  and  C_21
   11  A    between atoms: C_14  and  N_54
   12  A    between atoms: O_17  and  C_35
   13  A    between atoms: O_19  and  C_45
   14  A    between atoms: O_19  and  C_58
   15  A    between atoms: C_20  and  C_26
   16  A    between atoms: C_20  and  C_58
   17  A    between atoms: C_24  and  C_67
   18  A    between atoms: C_31  and  C_52
   19  A    between atoms: O_34  and  C_52
   20  A    between atoms: C_35  and  C_67
   21  A    between atoms: C_37  and  C_50
   22  A    between atoms: C_41  and  C_44
   23  A    between atoms: C_49  and  C_64
   24  A    between atoms: C_55  and  C_63
   25  A    between atoms: N_59  and  C_62
                            x       y       z     vdW  Elec       q    Type
                         _______ _______ _______ _____ _____    ______ ____

>  <TORSDO>
F 25

$$$$
=
 OpenBabel11042415093D

 69 74  0  0  1  0  0  0  0  0999 V2000
  193.8530  172.9140  143.1400 C   0  0  0  0  0  3  0  0  0  0  0  0
  193.4860  172.6170  144.3940 C   0  0  0  0  0  0  0  0  0  0  0  0
  196.4400  170.9570  145.9560 C   0  0  0  0  0  2  0  0  0  0  0  0
  194.2930  171.7670  145.3350 C   0  0  1  0  0  3  0  0  0  0  0  0
  195.9050  168.6940  146.1610 C   0  0  0  0  0  1  0  0  0  0  0  0
  195.7560  169.8430  145.2870 N   0  0  0  0  0  0  0  0  0  0  0  0
  194.3340  170.2200  145.2790 C   0  0  2  0  0  3  0  0  0  0  0  0
  195.7270  172.2150  145.5020 C   0  0  0  0  0  2  0  0  0  0  0  0
  192.3510  169.6760  144.0580 O   0  0  0  0  0  1  0  0  0  0  0  0
  194.2140  168.5750  143.3290 O   0  0  0  0  0  0  0  0  0  0  0  0
  193.5870  169.4700  144.1880 C   0  0  0  0  0  0  0  0  0  0  0  0
  192.3810  173.4070  145.0140 C   0  0  0  0  0  2  0  0  0  0  0  0
  192.6480  174.7750  144.8520 O   0  0  0  0  0  0  0  0  0  0  0  0
  193.4470  175.1530  145.9510 C   0  0  2  0  0  3  0  0  0  0  0  0
  192.0850  175.2680  147.9220 C   0  0  0  0  0  2  0  0  0  0  0  0
  190.5850  175.3360  147.7560 C   0  0  0  0  0  2  0  0  0  0  0  0
  190.3730  176.5940  146.9590 C   0  0  1  0  0  3  0  0  0  0  0  0
  191.6550  176.7740  146.1680 C   0  0  0  0  0  2  0  0  0  0  0  0
  192.7230  176.0620  146.8790 N   0  0  0  0  0  0  0  0  0  0  0  0
  187.9930  178.2660  143.7300 N   0  0  0  0  0  0  0  0  0  0  0  0
  187.3720  177.8410  144.9350 C   0  0  0  0  0  0  0  0  0  0  0  0
  185.2330  178.2570  146.9900 N   0  0  0  0  0  2  0  0  0  0  0  0
  185.0760  177.4100  145.8100 C   0  0  0  0  0  2  0  0  0  0  0  0
  186.2790  177.6760  147.8280 C   0  0  0  0  0  2  0  0  0  0  0  0
  189.1150  175.6540  145.1620 O   0  0  0  0  0  0  0  0  0  0  0  0
  189.1270  176.5250  146.0870 C   0  0  0  0  0  0  0  0  0  0  0  0
  186.0800  177.8130  144.7810 C   0  0  0  0  0  0  0  0  0  0  0  0
  187.6730  178.1480  147.3850 C   0  0  0  0  0  2  0  0  0  0  0  0
  185.8030  178.2310  143.4480 N   0  0  0  0  0  0  0  0  0  0  0  0
  188.0730  177.4990  146.1360 N   0  0  0  0  0  0  0  0  0  0  0  0
  186.9990  178.5880  142.7870 N   0  0  0  0  0  0  0  0  0  0  0  0
  184.5150  178.8180  143.0710 C   0  0  0  0  0  2  0  0  0  0  0  0
  183.9070  178.0760  141.9000 C   0  0  0  0  0  1  0  0  0  0  0  0
  194.7650  175.7590  145.4420 C   0  0  0  0  0  2  0  0  0  0  0  0
  194.5190  176.8540  144.5870 O   0  0  0  0  0  1  0  0  0  0  0  0
  195.0760  172.3840  142.4450 C   0  0  0  0  0  2  0  0  0  0  0  0
  197.1670  173.3550  141.7590 O   0  0  0  0  0  1  0  0  0  0  0  0
  195.7700  173.4820  141.6450 C   0  0  1  0  0  3  0  0  0  0  0  0
  195.3890  173.3900  140.3010 O   0  0  0  0  0  0  0  0  0  0  0  0
  196.2740  172.4790  139.7090 C   0  0  2  0  0  3  0  0  0  0  0  0
  197.9370  172.5600  137.7330 C   0  0  0  0  0  2  0  0  0  0  0  0
  197.4800  173.1690  139.0560 C   0  0  1  0  0  3  0  0  0  0  0  0
  196.8780  174.6860  137.3100 N   0  0  0  0  0  2  0  0  0  0  0  0
  197.6800  173.6450  136.7030 C   0  0  2  0  0  3  0  0  0  0  0  0
  197.1450  174.6010  138.7440 C   0  0  0  0  0  2  0  0  0  0  0  0
  197.4030  171.6480  135.2430 C   0  0  0  0  0  1  0  0  0  0  0  0
  196.9230  173.0550  135.5300 C   0  0  0  0  0  2  0  0  0  0  0  0
  195.5310  171.6610  138.6400 C   0  0  0  0  0  2  0  0  0  0  0  0
  194.2260  172.2800  138.2020 C   0  0  0  0  0  0  0  0  0  0  0  0
  194.2370  173.1930  137.3360 O   0  0  0  0  0  0  0  0  0  0  0  0
  192.9920  171.8570  138.6780 O   0  0  0  0  0  0  0  0  0  0  0  0
  192.6750  171.7360  140.0620 C   0  0  0  0  0  2  0  0  0  0  0  0
  189.2240  174.2130  140.6510 C   0  0  0  0  0  0  0  0  0  0  0  0
  190.1980  172.1680  139.7270 C   0  0  0  0  0  0  0  0  0  0  0  0
  190.4730  174.4970  141.2340 C   0  0  0  0  0  0  0  0  0  0  0  0
  189.0840  173.0250  139.9030 C   0  0  0  0  0  0  0  0  0  0  0  0
  191.4170  172.5210  140.3160 C   0  0  0  0  0  0  0  0  0  0  0  0
  187.8050  172.6800  139.3520 N   0  0  0  0  0  1  0  0  0  0  0  0
  191.5130  173.6580  141.0460 N   0  0  0  0  0  0  0  0  0  0  0  0
  190.7220  175.7020  142.0710 C   0  0  0  0  0  1  0  0  0  0  0  0
  190.4940  169.7800  139.5300 O   0  0  0  0  0  0  0  0  0  0  0  0
  190.1290  170.8680  139.0050 C   0  0  0  0  0  3  0  0  0  0  0  0
  187.9630  175.0210  140.9310 C   0  0  2  0  0  3  0  0  0  0  0  0
  186.4650  176.8390  140.3570 O   0  0  0  0  0  1  0  0  0  0  0  0
  187.4990  176.0400  139.8690 C   0  0  2  0  0  3  0  0  0  0  0  0
  187.5210  176.0300  137.4700 O   0  0  0  0  0  1  0  0  0  0  0  0
  187.0550  175.3340  138.5860 C   0  0  0  0  0  2  0  0  0  0  0  0
  187.7720  175.4170  142.2780 O   0  0  0  0  0  0  0  0  0  0  0  0
  186.8440  174.6240  142.7880 O   0  0  0  0  0  1  0  0  0  0  0  0
  1  2  2  0  0  0  0
  2 12  1  0  0  0  0
  4  2  1  6  0  0  0
  4  8  1  0  0  0  0
  6  3  1  0  0  0  0
  6  5  1  0  0  0  0
  7 11  1  6  0  0  0
  7  6  1  0  0  0  0
  7  4  1  0  0  0  0
  8  3  1  0  0  0  0
  9 11  1  0  0  0  0
 10 11  2  0  0  0  0
 13 12  1  0  0  0  0
 13 14  1  0  0  0  0
 14 34  1  6  0  0  0
 14 19  1  0  0  0  0
 16 15  1  0  0  0  0
 17 26  1  6  0  0  0
 17 16  1  0  0  0  0
 18 19  1  0  0  0  0
 18 17  1  0  0  0  0
 19 15  1  0  0  0  0
 20 21  1  0  0  0  0
 21 30  1  0  0  0  0
 22 24  1  0  0  0  0
 23 22  1  0  0  0  0
 25 26  2  0  0  0  0
 26 30  1  0  0  0  0
 27 21  2  0  0  0  0
 27 23  1  0  0  0  0
 28 24  1  0  0  0  0
 29 27  1  0  0  0  0
 30 28  1  0  0  0  0
 31 29  1  0  0  0  0
 31 20  2  0  0  0  0
 32 29  1  0  0  0  0
 33 32  1  0  0  0  0
 35 34  1  0  0  0  0
 36  1  1  0  0  0  0
 38 37  1  6  0  0  0
 38 36  1  0  0  0  0
 39 38  1  0  0  0  0
 40 48  1  6  0  0  0
 40 39  1  0  0  0  0
 41 42  1  0  0  0  0
 42 40  1  6  0  0  0
 43 45  1  0  0  0  0
 44 47  1  6  0  0  0
 44 43  1  0  0  0  0
 44 41  1  0  0  0  0
 45 42  1  0  0  0  0
 46 47  1  0  0  0  0
 49 48  1  0  0  0  0
 49 51  1  0  0  0  0
 50 49  2  0  0  0  0
 51 52  1  0  0  0  0
 52 57  1  0  0  0  0
 53 63  1  0  0  0  0
 53 55  1  0  0  0  0
 54 56  1  0  0  0  0
 54 57  2  0  0  0  0
 55 60  1  0  0  0  0
 56 53  2  0  0  0  0
 57 59  1  0  0  0  0
 58 56  1  0  0  0  0
 59 55  2  0  0  0  0
 62 61  2  0  0  0  0
 62 54  1  0  0  0  0
 63 68  1  1  0  0  0
 65 64  1  1  0  0  0
 65 63  1  0  0  0  0
 66 67  1  0  0  0  0
 67 65  1  0  0  0  0
 68 69  1  0  0  0  0
M  END
>  <MODEL>
8

>  <REMARK>
 VINA RESULT:      -4.1      2.514      8.518
  Name = 
  25 active torsions:
  status: ('A' for Active; 'I' for Inactive)
    1  A    between atoms: C_1  and  C_13
    2  A    between atoms: C_1  and  C_45
    3  A    between atoms: O_5  and  C_14
    4  A    between atoms: O_5  and  C_63
    5  A    between atoms: C_7  and  C_35
    6  A    between atoms: C_9  and  C_55
    7  A    between atoms: C_10  and  C_45
    8  A    between atoms: C_11  and  C_53
    9  A    between atoms: C_13  and  O_34
   10  A    between atoms: C_14  and  C_21
   11  A    between atoms: C_14  and  N_54
   12  A    between atoms: O_17  and  C_35
   13  A    between atoms: O_19  and  C_45
   14  A    between atoms: O_19  and  C_58
   15  A    between atoms: C_20  and  C_26
   16  A    between atoms: C_20  and  C_58
   17  A    between atoms: C_24  and  C_67
   18  A    between atoms: C_31  and  C_52
   19  A    between atoms: O_34  and  C_52
   20  A    between atoms: C_35  and  C_67
   21  A    between atoms: C_37  and  C_50
   22  A    between atoms: C_41  and  C_44
   23  A    between atoms: C_49  and  C_64
   24  A    between atoms: C_55  and  C_63
   25  A    between atoms: N_59  and  C_62
                            x       y       z     vdW  Elec       q    Type
                         _______ _______ _______ _____ _____    ______ ____

>  <TORSDO>
F 25

$$$$
=
 OpenBabel11042415093D

 69 74  0  0  1  0  0  0  0  0999 V2000
  189.5370  173.6860  140.3150 C   0  0  0  0  0  3  0  0  0  0  0  0
  189.2410  173.5410  139.0160 C   0  0  0  0  0  0  0  0  0  0  0  0
  187.3410  175.4540  136.4370 C   0  0  0  0  0  2  0  0  0  0  0  0
  188.8410  174.6680  138.1070 C   0  0  1  0  0  3  0  0  0  0  0  0
  188.9140  176.2910  134.9300 C   0  0  0  0  0  1  0  0  0  0  0  0
  188.5960  175.1340  135.7470 N   0  0  0  0  0  0  0  0  0  0  0  0
  189.6050  175.0450  136.8130 C   0  0  2  0  0  3  0  0  0  0  0  0
  187.3750  174.6800  137.7400 C   0  0  0  0  0  2  0  0  0  0  0  0
  190.5820  173.0720  135.8800 O   0  0  0  0  0  0  0  0  0  0  0  0
  192.1050  174.6810  136.4370 O   0  0  0  0  0  1  0  0  0  0  0  0
  190.7970  174.2190  136.3560 C   0  0  0  0  0  0  0  0  0  0  0  0
  189.6160  172.2620  138.3430 C   0  0  0  0  0  2  0  0  0  0  0  0
  190.4390  171.5170  139.2010 O   0  0  0  0  0  0  0  0  0  0  0  0
  190.8690  170.3960  138.4600 C   0  0  2  0  0  3  0  0  0  0  0  0
  192.9720  169.5030  137.7320 C   0  0  0  0  0  2  0  0  0  0  0  0
  194.2060  169.8130  138.5470 C   0  0  0  0  0  2  0  0  0  0  0  0
  194.2880  171.3140  138.5080 C   0  0  1  0  0  3  0  0  0  0  0  0
  192.8570  171.7780  138.3150 C   0  0  0  0  0  2  0  0  0  0  0  0
  192.1110  170.6780  137.6930 N   0  0  0  0  0  0  0  0  0  0  0  0
  194.0800  173.9680  141.9440 N   0  0  0  0  0  0  0  0  0  0  0  0
  195.2530  173.9190  141.1430 C   0  0  0  0  0  0  0  0  0  0  0  0
  197.5700  175.3680  139.9170 N   0  0  0  0  0  2  0  0  0  0  0  0
  197.6130  174.7210  141.2250 C   0  0  0  0  0  2  0  0  0  0  0  0
  197.3550  174.3350  138.9070 C   0  0  0  0  0  2  0  0  0  0  0  0
  194.9940  171.1480  140.7820 O   0  0  0  0  0  0  0  0  0  0  0  0
  194.9500  171.8910  139.7520 C   0  0  0  0  0  0  0  0  0  0  0  0
  196.2210  174.5550  141.7370 C   0  0  0  0  0  0  0  0  0  0  0  0
  195.8580  174.0280  138.7340 C   0  0  0  0  0  2  0  0  0  0  0  0
  195.7070  175.0560  142.9670 N   0  0  0  0  0  0  0  0  0  0  0  0
  195.3440  173.2670  139.8710 N   0  0  0  0  0  0  0  0  0  0  0  0
  194.3320  174.7530  143.0850 N   0  0  0  0  0  0  0  0  0  0  0  0
  196.2940  176.2180  143.6370 C   0  0  0  0  0  2  0  0  0  0  0  0
  195.3480  176.7750  144.6790 C   0  0  0  0  0  1  0  0  0  0  0  0
  189.7200  169.9050  137.5640 C   0  0  0  0  0  2  0  0  0  0  0  0
  189.4910  168.5260  137.7490 O   0  0  0  0  0  1  0  0  0  0  0  0
  189.4390  174.9710  141.0900 C   0  0  0  0  0  2  0  0  0  0  0  0
  187.2170  174.2300  141.6400 O   0  0  0  0  0  1  0  0  0  0  0  0
  188.3510  174.8840  142.1560 C   0  0  1  0  0  3  0  0  0  0  0  0
  188.8430  174.1850  143.2660 O   0  0  0  0  0  0  0  0  0  0  0  0
  189.2060  175.1560  144.2070 C   0  0  2  0  0  3  0  0  0  0  0  0
  187.0860  176.6330  144.1870 C   0  0  0  0  0  2  0  0  0  0  0  0
  188.5830  176.5270  143.9090 C   0  0  1  0  0  3  0  0  0  0  0  0
  188.2980  177.8860  145.8550 N   0  0  0  0  0  2  0  0  0  0  0  0
  186.9760  177.6380  145.3180 C   0  0  2  0  0  3  0  0  0  0  0  0
  189.2250  177.5800  144.7680 C   0  0  0  0  0  2  0  0  0  0  0  0
  186.8220  177.0800  147.7390 C   0  0  0  0  0  1  0  0  0  0  0  0
  186.0940  177.0710  146.4120 C   0  0  0  0  0  2  0  0  0  0  0  0
  190.7360  175.3000  144.2350 C   0  0  0  0  0  2  0  0  0  0  0  0
  191.4160  174.3570  145.1960 C   0  0  0  0  0  0  0  0  0  0  0  0
  192.2050  174.8220  146.0610 O   0  0  0  0  0  0  0  0  0  0  0  0
  191.1800  172.9890  145.2070 O   0  0  0  0  0  0  0  0  0  0  0  0
  191.2530  172.1620  144.0490 C   0  0  0  0  0  2  0  0  0  0  0  0
  194.8810  169.9250  144.5240 C   0  0  0  0  0  0  0  0  0  0  0  0
  192.7360  170.2130  143.3850 C   0  0  0  0  0  0  0  0  0  0  0  0
  194.6370  171.1320  145.2050 C   0  0  0  0  0  0  0  0  0  0  0  0
  193.9240  169.4720  143.5910 C   0  0  0  0  0  0  0  0  0  0  0  0
  192.5450  171.3940  144.1120 C   0  0  0  0  0  0  0  0  0  0  0  0
  194.1780  168.2780  142.8370 N   0  0  0  0  0  1  0  0  0  0  0  0
  193.4920  171.8130  144.9850 N   0  0  0  0  0  0  0  0  0  0  0  0
  195.5910  171.7200  146.1830 C   0  0  0  0  0  1  0  0  0  0  0  0
  191.2370  168.6730  142.2850 O   0  0  0  0  0  0  0  0  0  0  0  0
  191.6990  169.8440  142.3820 C   0  0  0  0  0  3  0  0  0  0  0  0
  196.2020  169.1710  144.6000 C   0  0  2  0  0  3  0  0  0  0  0  0
  195.3390  168.2260  146.6600 O   0  0  0  0  0  1  0  0  0  0  0  0
  196.4470  168.2470  145.8120 C   0  0  2  0  0  3  0  0  0  0  0  0
  197.3310  169.1560  147.8490 O   0  0  0  0  0  1  0  0  0  0  0  0
  197.6940  168.6790  146.5880 C   0  0  0  0  0  2  0  0  0  0  0  0
  197.3410  169.8740  144.1320 O   0  0  0  0  0  0  0  0  0  0  0  0
  197.1210  170.1680  142.8620 O   0  0  0  0  0  1  0  0  0  0  0  0
  1 36  1  0  0  0  0
  2  1  2  0  0  0  0
  3  8  1  0  0  0  0
  4  2  1  6  0  0  0
  5  6  1  0  0  0  0
  6  3  1  0  0  0  0
  6  7  1  0  0  0  0
  7 11  1  6  0  0  0
  7  4  1  0  0  0  0
  8  4  1  0  0  0  0
  9 11  2  0  0  0  0
 11 10  1  0  0  0  0
 12  2  1  0  0  0  0
 12 13  1  0  0  0  0
 14 34  1  6  0  0  0
 14 13  1  0  0  0  0
 15 16  1  0  0  0  0
 17 16  1  0  0  0  0
 17 26  1  1  0  0  0
 18 17  1  0  0  0  0
 19 15  1  0  0  0  0
 19 18  1  0  0  0  0
 19 14  1  0  0  0  0
 20 31  2  0  0  0  0
 21 27  2  0  0  0  0
 21 20  1  0  0  0  0
 22 23  1  0  0  0  0
 23 27  1  0  0  0  0
 24 22  1  0  0  0  0
 26 30  1  0  0  0  0
 26 25  2  0  0  0  0
 27 29  1  0  0  0  0
 28 24  1  0  0  0  0
 28 30  1  0  0  0  0
 29 31  1  0  0  0  0
 29 32  1  0  0  0  0
 30 21  1  0  0  0  0
 32 33  1  0  0  0  0
 34 35  1  0  0  0  0
 36 38  1  0  0  0  0
 38 37  1  6  0  0  0
 38 39  1  0  0  0  0
 39 40  1  0  0  0  0
 40 48  1  6  0  0  0
 41 44  1  0  0  0  0
 42 41  1  0  0  0  0
 42 40  1  1  0  0  0
 42 45  1  0  0  0  0
 44 43  1  0  0  0  0
 44 47  1  1  0  0  0
 45 43  1  0  0  0  0
 47 46  1  0  0  0  0
 48 49  1  0  0  0  0
 49 51  1  0  0  0  0
 49 50  2  0  0  0  0
 52 57  1  0  0  0  0
 52 51  1  0  0  0  0
 53 63  1  0  0  0  0
 53 55  1  0  0  0  0
 54 56  1  0  0  0  0
 54 57  2  0  0  0  0
 55 60  1  0  0  0  0
 56 53  2  0  0  0  0
 57 59  1  0  0  0  0
 58 56  1  0  0  0  0
 59 55  2  0  0  0  0
 61 62  2  0  0  0  0
 62 54  1  0  0  0  0
 63 68  1  1  0  0  0
 63 65  1  0  0  0  0
 65 67  1  0  0  0  0
 65 64  1  1  0  0  0
 67 66  1  0  0  0  0
 69 68  1  0  0  0  0
M  END
>  <MODEL>
9

>  <REMARK>
 VINA RESULT:      -4.0      2.713      8.096
  Name = 
  25 active torsions:
  status: ('A' for Active; 'I' for Inactive)
    1  A    between atoms: C_1  and  C_13
    2  A    between atoms: C_1  and  C_45
    3  A    between atoms: O_5  and  C_14
    4  A    between atoms: O_5  and  C_63
    5  A    between atoms: C_7  and  C_35
    6  A    between atoms: C_9  and  C_55
    7  A    between atoms: C_10  and  C_45
    8  A    between atoms: C_11  and  C_53
    9  A    between atoms: C_13  and  O_34
   10  A    between atoms: C_14  and  C_21
   11  A    between atoms: C_14  and  N_54
   12  A    between atoms: O_17  and  C_35
   13  A    between atoms: O_19  and  C_45
   14  A    between atoms: O_19  and  C_58
   15  A    between atoms: C_20  and  C_26
   16  A    between atoms: C_20  and  C_58
   17  A    between atoms: C_24  and  C_67
   18  A    between atoms: C_31  and  C_52
   19  A    between atoms: O_34  and  C_52
   20  A    between atoms: C_35  and  C_67
   21  A    between atoms: C_37  and  C_50
   22  A    between atoms: C_41  and  C_44
   23  A    between atoms: C_49  and  C_64
   24  A    between atoms: C_55  and  C_63
   25  A    between atoms: N_59  and  C_62
                            x       y       z     vdW  Elec       q    Type
                         _______ _______ _______ _____ _____    ______ ____

>  <TORSDO>
F 25

$$$$
