=
 OpenBabel11042415553D

 50 53  0  0  1  0  0  0  0  0999 V2000
  190.1770  175.6810  142.2170 C   0  0  0  0  0  0  0  0  0  0  0  0
  189.8060  176.9130  142.7750 C   0  0  0  0  0  3  0  0  0  0  0  0
  192.5130  176.2060  142.6160 C   0  0  0  0  0  0  0  0  0  0  0  0
  190.7830  177.7800  143.2690 C   0  0  0  0  0  3  0  0  0  0  0  0
  192.1320  177.4300  143.1940 C   0  0  0  0  0  3  0  0  0  0  0  0
  191.5290  175.3370  142.1330 C   0  0  0  0  0  3  0  0  0  0  0  0
  193.8560  175.8240  142.5050 O   0  0  0  0  0  0  0  0  0  0  0  0
  194.4960  174.8640  143.3490 C   0  0  2  0  0  3  0  0  0  0  0  0
  195.3080  176.8450  144.5090 N   0  0  0  0  0  1  0  0  0  0  0  0
  195.6470  175.4860  144.1310 C   0  0  0  0  0  2  0  0  0  0  0  0
  194.9670  173.7170  142.5670 N   0  0  0  0  0  2  0  0  0  0  0  0
  193.8260  173.0060  141.9860 C   0  0  0  0  0  2  0  0  0  0  0  0
  194.2750  171.9280  141.0060 C   0  0  1  0  0  3  0  0  0  0  0  0
  194.2260  169.4200  141.6440 C   0  0  0  0  0  0  0  0  0  0  0  0
  192.2480  170.3330  141.1810 C   0  0  0  0  0  3  0  0  0  0  0  0
  192.0650  169.0340  141.4620 N   0  0  0  0  0  0  0  0  0  0  0  0
  190.7840  168.3590  141.4740 C   0  0  0  0  0  1  0  0  0  0  0  0
  193.2470  168.4540  141.7570 C   0  0  0  0  0  3  0  0  0  0  0  0
  193.6050  170.6040  141.2760 C   0  0  0  0  0  0  0  0  0  0  0  0
  195.6900  169.2060  141.8540 C   0  0  0  0  0  2  0  0  0  0  0  0
  196.0580  169.3940  143.3140 C   0  0  0  0  0  2  0  0  0  0  0  0
  196.5570  170.7430  143.5130 N   0  0  0  0  0  2  0  0  0  0  0  0
  196.0740  171.1770  144.7560 N   0  0  0  0  0  2  0  0  0  0  0  0
  194.2260  171.8940  145.6420 C   0  0  0  0  0  1  0  0  0  0  0  0
  194.7410  170.9390  144.7620 O   0  0  0  0  0  0  0  0  0  0  0  0
  194.0980  172.3920  139.5600 C   0  0  0  0  0  2  0  0  0  0  0  0
  191.8990  173.1920  138.7600 C   0  0  0  0  0  1  0  0  0  0  0  0
  193.1580  173.5840  139.5000 C   0  0  0  0  0  2  0  0  0  0  0  0
  189.1440  174.7340  141.7000 C   0  0  0  0  0  2  0  0  0  0  0  0
  189.6390  173.3670  141.7550 N   0  0  0  0  0  2  0  0  0  0  0  0
  189.0210  172.7210  142.9070 C   0  0  0  0  0  2  0  0  0  0  0  0
  190.0650  171.9260  143.6800 C   0  0  0  0  0  2  0  0  0  0  0  0
  190.7770  172.7870  144.6220 N   0  0  0  0  0  2  0  0  0  0  0  0
  189.7890  173.6110  145.3110 C   0  0  0  0  0  2  0  0  0  0  0  0
  193.6130  176.0220  147.1230 O   0  0  0  0  0  1  0  0  0  0  0  0
  189.4190  175.7480  146.5960 C   0  0  2  0  0  3  0  0  0  0  0  0
  190.0340  177.0460  147.1450 C   0  0  0  0  0  2  0  0  0  0  0  0
  190.3540  174.9980  145.6270 C   0  0  1  0  0  3  0  0  0  0  0  0
  191.7530  174.8460  146.2190 C   0  0  0  0  0  2  0  0  0  0  0  0
  192.3180  176.1980  146.6360 C   0  0  1  0  0  3  0  0  0  0  0  0
  191.4300  176.8070  147.7120 C   0  0  0  0  0  2  0  0  0  0  0  0
  188.0380  176.0210  145.9840 C   0  0  0  0  0  2  0  0  0  0  0  0
  187.4620  177.4010  146.3260 C   0  0  0  0  0  2  0  0  0  0  0  0
  187.0890  178.2510  143.9940 C   0  0  0  0  0  3  0  0  0  0  0  0
  184.8760  178.7410  143.1790 C   0  0  0  0  0  3  0  0  0  0  0  0
  186.5570  177.9170  145.2420 C   0  0  0  0  0  0  0  0  0  0  0  0
  184.5190  177.5900  146.7080 C   0  0  0  0  0  1  0  0  0  0  0  0
  186.2540  178.6780  142.9600 C   0  0  0  0  0  3  0  0  0  0  0  0
  184.3640  178.3940  144.3920 N   0  0  0  0  0  0  0  0  0  0  0  0
  185.1610  177.9960  145.4220 C   0  0  0  0  0  0  0  0  0  0  0  0
  1  2  1  0  0  0  0
  2  4  2  0  0  0  0
  3  5  2  0  0  0  0
  5  4  1  0  0  0  0
  6  1  2  0  0  0  0
  6  3  1  0  0  0  0
  7  3  1  0  0  0  0
  7  8  1  0  0  0  0
  8 10  1  6  0  0  0
 10  9  1  0  0  0  0
 11  8  1  0  0  0  0
 12 11  1  0  0  0  0
 13 26  1  6  0  0  0
 13 19  1  0  0  0  0
 13 12  1  0  0  0  0
 14 18  2  0  0  0  0
 14 20  1  0  0  0  0
 15 19  2  0  0  0  0
 15 16  1  0  0  0  0
 16 17  1  0  0  0  0
 16 18  1  0  0  0  0
 19 14  1  0  0  0  0
 20 21  1  0  0  0  0
 21 22  1  0  0  0  0
 22 23  1  0  0  0  0
 23 25  1  0  0  0  0
 25 24  1  0  0  0  0
 27 28  1  0  0  0  0
 28 26  1  0  0  0  0
 29 30  1  0  0  0  0
 29  1  1  0  0  0  0
 30 31  1  0  0  0  0
 31 32  1  0  0  0  0
 32 33  1  0  0  0  0
 33 34  1  0  0  0  0
 36 42  1  6  0  0  0
 36 37  1  0  0  0  0
 37 41  1  0  0  0  0
 38 34  1  1  0  0  0
 38 39  1  0  0  0  0
 38 36  1  0  0  0  0
 39 40  1  0  0  0  0
 40 35  1  1  0  0  0
 40 41  1  0  0  0  0
 42 43  1  0  0  0  0
 44 46  1  0  0  0  0
 45 49  2  0  0  0  0
 46 50  2  0  0  0  0
 46 43  1  0  0  0  0
 48 45  1  0  0  0  0
 48 44  2  0  0  0  0
 49 50  1  0  0  0  0
 50 47  1  0  0  0  0
M  END
>  <MODEL>
1

>  <REMARK>
 VINA RESULT:      -5.0      0.000      0.000
  Name = 
  24 active torsions:
  status: ('A' for Active; 'I' for Inactive)
    1  A    between atoms: N_1  and  N_20
    2  A    between atoms: N_1  and  C_41
    3  A    between atoms: C_2  and  N_6
    4  A    between atoms: C_2  and  C_23
    5  A    between atoms: C_2  and  O_49
    6  A    between atoms: C_3  and  C_9
    7  A    between atoms: C_3  and  C_27
    8  A    between atoms: N_6  and  C_32
    9  A    between atoms: N_10  and  C_45
   10  A    between atoms: N_10  and  C_50
   11  A    between atoms: C_11  and  C_37
   12  A    between atoms: C_12  and  C_26
   13  A    between atoms: C_14  and  C_16
   14  A    between atoms: C_14  and  C_32
   15  A    between atoms: C_14  and  C_46
   16  A    between atoms: C_16  and  C_19
   17  A    between atoms: N_20  and  O_21
   18  A    between atoms: C_22  and  O_49
   19  A    between atoms: C_25  and  C_27
   20  A    between atoms: C_26  and  C_41
   21  A    between atoms: C_29  and  C_50
   22  A    between atoms: N_35  and  C_37
   23  A    between atoms: N_35  and  C_42
   24  A    between atoms: C_42  and  C_45
                            x       y       z     vdW  Elec       q    Type
                         _______ _______ _______ _____ _____    ______ ____

>  <TORSDO>
F 24

$$$$
=
 OpenBabel11042415553D

 50 53  0  0  1  0  0  0  0  0999 V2000
  192.7110  175.3480  143.0200 C   0  0  0  0  0  0  0  0  0  0  0  0
  192.8180  175.2200  144.4130 C   0  0  0  0  0  3  0  0  0  0  0  0
  190.8360  173.8070  143.0240 C   0  0  0  0  0  0  0  0  0  0  0  0
  191.9250  174.4030  145.1110 C   0  0  0  0  0  3  0  0  0  0  0  0
  190.9350  173.7000  144.4230 C   0  0  0  0  0  3  0  0  0  0  0  0
  191.7260  174.6350  142.3320 C   0  0  0  0  0  3  0  0  0  0  0  0
  189.8680  173.1060  142.2940 O   0  0  0  0  0  0  0  0  0  0  0  0
  188.6030  173.6440  141.9010 C   0  0  2  0  0  3  0  0  0  0  0  0
  188.0460  172.7260  139.7150 N   0  0  0  0  0  1  0  0  0  0  0  0
  187.7740  172.6190  141.1360 C   0  0  0  0  0  2  0  0  0  0  0  0
  188.7820  174.8610  141.1030 N   0  0  0  0  0  2  0  0  0  0  0  0
  187.7640  175.8500  141.4660 C   0  0  0  0  0  2  0  0  0  0  0  0
  187.5620  175.9210  142.9750 C   0  0  1  0  0  3  0  0  0  0  0  0
  188.9340  176.7240  145.0180 C   0  0  0  0  0  0  0  0  0  0  0  0
  189.6030  177.5070  143.0430 C   0  0  0  0  0  3  0  0  0  0  0  0
  190.3850  178.0310  143.9990 N   0  0  0  0  0  0  0  0  0  0  0  0
  191.4870  178.9400  143.7650 C   0  0  0  0  0  1  0  0  0  0  0  0
  190.0090  177.5670  145.2100 C   0  0  0  0  0  3  0  0  0  0  0  0
  188.6680  176.6860  143.6570 C   0  0  0  0  0  0  0  0  0  0  0  0
  188.1810  176.0130  146.0960 C   0  0  0  0  0  2  0  0  0  0  0  0
  187.4600  177.0020  146.9910 C   0  0  0  0  0  2  0  0  0  0  0  0
  186.0260  176.8350  146.8330 N   0  0  0  0  0  2  0  0  0  0  0  0
  185.4300  178.0450  147.2130 N   0  0  0  0  0  2  0  0  0  0  0  0
  184.0050  178.8090  145.7630 C   0  0  0  0  0  1  0  0  0  0  0  0
  185.3610  178.8140  146.1000 O   0  0  0  0  0  0  0  0  0  0  0  0
  186.1740  176.4630  143.3190 C   0  0  0  0  0  2  0  0  0  0  0  0
  184.5970  177.9820  142.1710 C   0  0  0  0  0  1  0  0  0  0  0  0
  185.9940  177.8550  142.7370 C   0  0  0  0  0  2  0  0  0  0  0  0
  193.6460  176.2300  142.2600 C   0  0  0  0  0  2  0  0  0  0  0  0
  194.9450  176.2750  142.9160 N   0  0  0  0  0  2  0  0  0  0  0  0
  195.9630  176.3280  141.8740 C   0  0  0  0  0  2  0  0  0  0  0  0
  195.8530  175.1020  140.9770 C   0  0  0  0  0  2  0  0  0  0  0  0
  196.8170  174.0800  141.3780 N   0  0  0  0  0  2  0  0  0  0  0  0
  196.0820  172.8420  141.6210 C   0  0  0  0  0  2  0  0  0  0  0  0
  196.8480  173.2140  146.4160 O   0  0  0  0  0  1  0  0  0  0  0  0
  194.6120  171.5630  143.2190 C   0  0  2  0  0  3  0  0  0  0  0  0
  194.1050  171.4080  144.6630 C   0  0  0  0  0  2  0  0  0  0  0  0
  195.4060  172.8640  142.9940 C   0  0  1  0  0  3  0  0  0  0  0  0
  196.4710  173.0520  144.0730 C   0  0  0  0  0  2  0  0  0  0  0  0
  195.8540  172.9860  145.4640 C   0  0  1  0  0  3  0  0  0  0  0  0
  195.2270  171.6160  145.6750 C   0  0  0  0  0  2  0  0  0  0  0  0
  193.4570  171.4020  142.2210 C   0  0  0  0  0  2  0  0  0  0  0  0
  193.6330  170.2350  141.2400 C   0  0  0  0  0  2  0  0  0  0  0  0
  191.3340  169.9690  140.2710 C   0  0  0  0  0  3  0  0  0  0  0  0
  190.8520  170.6060  137.9990 C   0  0  0  0  0  3  0  0  0  0  0  0
  192.6740  170.3200  140.0870 C   0  0  0  0  0  0  0  0  0  0  0  0
  194.4700  171.2840  138.5870 C   0  0  0  0  0  1  0  0  0  0  0  0
  190.4180  170.0970  139.2250 C   0  0  0  0  0  3  0  0  0  0  0  0
  192.1540  170.9640  137.8340 N   0  0  0  0  0  0  0  0  0  0  0  0
  193.0700  170.8280  138.8330 C   0  0  0  0  0  0  0  0  0  0  0  0
  1  2  1  0  0  0  0
  2  4  2  0  0  0  0
  3  5  2  0  0  0  0
  5  4  1  0  0  0  0
  6  1  2  0  0  0  0
  6  3  1  0  0  0  0
  7  3  1  0  0  0  0
  8 10  1  6  0  0  0
  8  7  1  0  0  0  0
  9 10  1  0  0  0  0
 11 12  1  0  0  0  0
 11  8  1  0  0  0  0
 13 12  1  6  0  0  0
 13 26  1  0  0  0  0
 13 19  1  0  0  0  0
 14 18  2  0  0  0  0
 14 20  1  0  0  0  0
 15 19  2  0  0  0  0
 15 16  1  0  0  0  0
 16 18  1  0  0  0  0
 17 16  1  0  0  0  0
 19 14  1  0  0  0  0
 20 21  1  0  0  0  0
 22 21  1  0  0  0  0
 22 23  1  0  0  0  0
 24 25  1  0  0  0  0
 25 23  1  0  0  0  0
 27 28  1  0  0  0  0
 28 26  1  0  0  0  0
 29 30  1  0  0  0  0
 29  1  1  0  0  0  0
 31 30  1  0  0  0  0
 32 33  1  0  0  0  0
 32 31  1  0  0  0  0
 33 34  1  0  0  0  0
 36 42  1  6  0  0  0
 36 37  1  0  0  0  0
 37 41  1  0  0  0  0
 38 34  1  6  0  0  0
 38 36  1  0  0  0  0
 38 39  1  0  0  0  0
 39 40  1  0  0  0  0
 40 41  1  0  0  0  0
 40 35  1  1  0  0  0
 43 42  1  0  0  0  0
 45 48  1  0  0  0  0
 46 44  1  0  0  0  0
 46 43  1  0  0  0  0
 47 50  1  0  0  0  0
 48 44  2  0  0  0  0
 49 45  2  0  0  0  0
 49 50  1  0  0  0  0
 50 46  2  0  0  0  0
M  END
>  <MODEL>
2

>  <REMARK>
 VINA RESULT:      -5.0      2.487      8.765
  Name = 
  24 active torsions:
  status: ('A' for Active; 'I' for Inactive)
    1  A    between atoms: N_1  and  N_20
    2  A    between atoms: N_1  and  C_41
    3  A    between atoms: C_2  and  N_6
    4  A    between atoms: C_2  and  C_23
    5  A    between atoms: C_2  and  O_49
    6  A    between atoms: C_3  and  C_9
    7  A    between atoms: C_3  and  C_27
    8  A    between atoms: N_6  and  C_32
    9  A    between atoms: N_10  and  C_45
   10  A    between atoms: N_10  and  C_50
   11  A    between atoms: C_11  and  C_37
   12  A    between atoms: C_12  and  C_26
   13  A    between atoms: C_14  and  C_16
   14  A    between atoms: C_14  and  C_32
   15  A    between atoms: C_14  and  C_46
   16  A    between atoms: C_16  and  C_19
   17  A    between atoms: N_20  and  O_21
   18  A    between atoms: C_22  and  O_49
   19  A    between atoms: C_25  and  C_27
   20  A    between atoms: C_26  and  C_41
   21  A    between atoms: C_29  and  C_50
   22  A    between atoms: N_35  and  C_37
   23  A    between atoms: N_35  and  C_42
   24  A    between atoms: C_42  and  C_45
                            x       y       z     vdW  Elec       q    Type
                         _______ _______ _______ _____ _____    ______ ____

>  <TORSDO>
F 24

$$$$
=
 OpenBabel11042415553D

 50 53  0  0  1  0  0  0  0  0999 V2000
  193.5420  176.0980  145.5240 C   0  0  0  0  0  0  0  0  0  0  0  0
  192.9600  176.7520  144.4270 C   0  0  0  0  0  3  0  0  0  0  0  0
  194.9090  174.7810  144.0110 C   0  0  0  0  0  0  0  0  0  0  0  0
  193.3650  176.4360  143.1280 C   0  0  0  0  0  3  0  0  0  0  0  0
  194.3380  175.4560  142.9180 C   0  0  0  0  0  3  0  0  0  0  0  0
  194.5070  175.1100  145.3100 C   0  0  0  0  0  3  0  0  0  0  0  0
  195.8740  173.7800  143.8430 O   0  0  0  0  0  0  0  0  0  0  0  0
  195.7090  172.4200  144.2500 C   0  0  2  0  0  3  0  0  0  0  0  0
  196.9650  172.8760  146.2870 N   0  0  0  0  0  1  0  0  0  0  0  0
  196.8440  171.9680  145.1620 C   0  0  0  0  0  2  0  0  0  0  0  0
  195.6030  171.5370  143.0850 N   0  0  0  0  0  2  0  0  0  0  0  0
  195.8310  172.3020  141.8560 C   0  0  0  0  0  2  0  0  0  0  0  0
  194.7740  171.9980  140.8010 C   0  0  1  0  0  3  0  0  0  0  0  0
  193.5190  173.9370  139.6320 C   0  0  0  0  0  0  0  0  0  0  0  0
  195.5740  173.5260  138.8750 C   0  0  0  0  0  3  0  0  0  0  0  0
  195.0450  174.5290  138.1570 N   0  0  0  0  0  0  0  0  0  0  0  0
  195.7210  175.2270  137.0840 C   0  0  0  0  0  1  0  0  0  0  0  0
  193.8010  174.8080  138.5990 C   0  0  0  0  0  3  0  0  0  0  0  0
  194.6290  173.1230  139.8070 C   0  0  0  0  0  0  0  0  0  0  0  0
  192.2350  173.8730  140.3930 C   0  0  0  0  0  2  0  0  0  0  0  0
  191.3300  172.7930  139.8310 C   0  0  0  0  0  2  0  0  0  0  0  0
  190.6610  173.2980  138.6460 N   0  0  0  0  0  2  0  0  0  0  0  0
  190.9250  172.3890  137.6100 N   0  0  0  0  0  2  0  0  0  0  0  0
  189.6780  172.7310  135.8650 C   0  0  0  0  0  1  0  0  0  0  0  0
  190.8920  173.0940  136.4540 O   0  0  0  0  0  0  0  0  0  0  0  0
  195.0390  170.6510  140.1290 C   0  0  0  0  0  2  0  0  0  0  0  0
  192.9210  169.5980  140.8510 C   0  0  0  0  0  1  0  0  0  0  0  0
  193.7350  170.0340  139.6520 C   0  0  0  0  0  2  0  0  0  0  0  0
  193.1320  176.4360  146.9200 C   0  0  0  0  0  2  0  0  0  0  0  0
  192.0690  175.5470  147.3640 N   0  0  0  0  0  2  0  0  0  0  0  0
  190.9420  176.3770  147.7710 C   0  0  0  0  0  2  0  0  0  0  0  0
  189.6710  175.9040  147.0780 C   0  0  0  0  0  2  0  0  0  0  0  0
  188.7300  177.0100  146.9130 N   0  0  0  0  0  2  0  0  0  0  0  0
  187.7510  176.6180  145.9030 C   0  0  0  0  0  2  0  0  0  0  0  0
  184.4910  179.8300  144.2360 O   0  0  0  0  0  1  0  0  0  0  0  0
  187.7580  177.2470  143.4620 C   0  0  2  0  0  3  0  0  0  0  0  0
  187.3110  178.2530  142.3880 C   0  0  0  0  0  2  0  0  0  0  0  0
  187.5140  177.7490  144.8980 C   0  0  1  0  0  3  0  0  0  0  0  0
  186.0900  178.2750  145.0640 C   0  0  0  0  0  2  0  0  0  0  0  0
  185.7790  179.3400  144.0200 C   0  0  1  0  0  3  0  0  0  0  0  0
  185.8830  178.7310  142.6290 C   0  0  0  0  0  2  0  0  0  0  0  0
  189.2140  176.8200  143.2300 C   0  0  0  0  0  2  0  0  0  0  0  0
  189.3770  175.6490  142.2530 C   0  0  0  0  0  2  0  0  0  0  0  0
  190.4400  174.3100  144.0900 C   0  0  0  0  0  3  0  0  0  0  0  0
  189.9360  171.9740  144.3900 C   0  0  0  0  0  3  0  0  0  0  0  0
  189.6080  174.3470  142.9680 C   0  0  0  0  0  0  0  0  0  0  0  0
  187.9830  173.1520  141.4400 C   0  0  0  0  0  1  0  0  0  0  0  0
  190.6200  173.1210  144.7990 C   0  0  0  0  0  3  0  0  0  0  0  0
  189.1110  172.0240  143.3080 N   0  0  0  0  0  0  0  0  0  0  0  0
  188.9380  173.1670  142.5880 C   0  0  0  0  0  0  0  0  0  0  0  0
  1 29  1  0  0  0  0
  2  1  2  0  0  0  0
  3  6  2  0  0  0  0
  4  2  1  0  0  0  0
  5  4  2  0  0  0  0
  5  3  1  0  0  0  0
  6  1  1  0  0  0  0
  7  3  1  0  0  0  0
  7  8  1  0  0  0  0
  8 10  1  1  0  0  0
 10  9  1  0  0  0  0
 11  8  1  0  0  0  0
 12 11  1  0  0  0  0
 13 26  1  6  0  0  0
 13 12  1  0  0  0  0
 14 19  1  0  0  0  0
 14 20  1  0  0  0  0
 15 19  2  0  0  0  0
 16 18  1  0  0  0  0
 16 15  1  0  0  0  0
 17 16  1  0  0  0  0
 18 14  2  0  0  0  0
 19 13  1  0  0  0  0
 21 20  1  0  0  0  0
 22 21  1  0  0  0  0
 23 22  1  0  0  0  0
 24 25  1  0  0  0  0
 25 23  1  0  0  0  0
 28 26  1  0  0  0  0
 28 27  1  0  0  0  0
 29 30  1  0  0  0  0
 30 31  1  0  0  0  0
 32 31  1  0  0  0  0
 33 32  1  0  0  0  0
 34 33  1  0  0  0  0
 36 42  1  1  0  0  0
 36 38  1  0  0  0  0
 37 41  1  0  0  0  0
 37 36  1  0  0  0  0
 38 39  1  0  0  0  0
 38 34  1  1  0  0  0
 40 35  1  1  0  0  0
 40 39  1  0  0  0  0
 41 40  1  0  0  0  0
 43 46  1  0  0  0  0
 43 42  1  0  0  0  0
 44 48  1  0  0  0  0
 45 48  2  0  0  0  0
 46 44  2  0  0  0  0
 47 50  1  0  0  0  0
 49 45  1  0  0  0  0
 50 46  1  0  0  0  0
 50 49  2  0  0  0  0
M  END
>  <MODEL>
3

>  <REMARK>
 VINA RESULT:      -4.8      2.713      5.965
  Name = 
  24 active torsions:
  status: ('A' for Active; 'I' for Inactive)
    1  A    between atoms: N_1  and  N_20
    2  A    between atoms: N_1  and  C_41
    3  A    between atoms: C_2  and  N_6
    4  A    between atoms: C_2  and  C_23
    5  A    between atoms: C_2  and  O_49
    6  A    between atoms: C_3  and  C_9
    7  A    between atoms: C_3  and  C_27
    8  A    between atoms: N_6  and  C_32
    9  A    between atoms: N_10  and  C_45
   10  A    between atoms: N_10  and  C_50
   11  A    between atoms: C_11  and  C_37
   12  A    between atoms: C_12  and  C_26
   13  A    between atoms: C_14  and  C_16
   14  A    between atoms: C_14  and  C_32
   15  A    between atoms: C_14  and  C_46
   16  A    between atoms: C_16  and  C_19
   17  A    between atoms: N_20  and  O_21
   18  A    between atoms: C_22  and  O_49
   19  A    between atoms: C_25  and  C_27
   20  A    between atoms: C_26  and  C_41
   21  A    between atoms: C_29  and  C_50
   22  A    between atoms: N_35  and  C_37
   23  A    between atoms: N_35  and  C_42
   24  A    between atoms: C_42  and  C_45
                            x       y       z     vdW  Elec       q    Type
                         _______ _______ _______ _____ _____    ______ ____

>  <TORSDO>
F 24

$$$$
=
 OpenBabel11042415553D

 50 53  0  0  1  0  0  0  0  0999 V2000
  189.8350  175.9440  146.2140 C   0  0  0  0  0  0  0  0  0  0  0  0
  190.2740  176.9220  147.1200 C   0  0  0  0  0  3  0  0  0  0  0  0
  187.6260  176.9510  146.2000 C   0  0  0  0  0  0  0  0  0  0  0  0
  189.3980  177.9210  147.5490 C   0  0  0  0  0  3  0  0  0  0  0  0
  188.0790  177.9400  147.0910 C   0  0  0  0  0  3  0  0  0  0  0  0
  188.5120  175.9590  145.7650 C   0  0  0  0  0  3  0  0  0  0  0  0
  186.3080  176.9250  145.7300 O   0  0  0  0  0  0  0  0  0  0  0  0
  185.8260  177.6970  144.6270 C   0  0  2  0  0  3  0  0  0  0  0  0
  184.1600  178.1360  146.3490 N   0  0  0  0  0  1  0  0  0  0  0  0
  184.5350  178.4270  144.9780 C   0  0  0  0  0  2  0  0  0  0  0  0
  185.6340  176.8520  143.4450 N   0  0  0  0  0  2  0  0  0  0  0  0
  186.2090  177.5030  142.2660 C   0  0  0  0  0  2  0  0  0  0  0  0
  187.5870  176.9440  141.9310 C   0  0  1  0  0  3  0  0  0  0  0  0
  188.1280  174.9360  140.3890 C   0  0  0  0  0  0  0  0  0  0  0  0
  187.0700  176.6380  139.4170 C   0  0  0  0  0  3  0  0  0  0  0  0
  187.3060  175.6950  138.4920 N   0  0  0  0  0  0  0  0  0  0  0  0
  186.9150  175.7790  137.1000 C   0  0  0  0  0  1  0  0  0  0  0  0
  187.9390  174.6440  139.0540 C   0  0  0  0  0  3  0  0  0  0  0  0
  187.5880  176.1920  140.6240 C   0  0  0  0  0  0  0  0  0  0  0  0
  188.8180  174.0600  141.3850 C   0  0  0  0  0  2  0  0  0  0  0  0
  190.3250  174.1470  141.2230 C   0  0  0  0  0  2  0  0  0  0  0  0
  190.7600  173.1550  140.2580 N   0  0  0  0  0  2  0  0  0  0  0  0
  190.2160  171.9270  140.6610 N   0  0  0  0  0  2  0  0  0  0  0  0
  191.0660  169.9670  141.0500 C   0  0  0  0  0  1  0  0  0  0  0  0
  190.9560  170.9580  140.0710 O   0  0  0  0  0  0  0  0  0  0  0  0
  188.6510  178.0400  141.9800 C   0  0  0  0  0  2  0  0  0  0  0  0
  190.8620  177.3490  142.8460 C   0  0  0  0  0  1  0  0  0  0  0  0
  189.5030  177.8910  143.2300 C   0  0  0  0  0  2  0  0  0  0  0  0
  190.7630  174.8780  145.7310 C   0  0  0  0  0  2  0  0  0  0  0  0
  190.1060  174.0530  144.7280 N   0  0  0  0  0  2  0  0  0  0  0  0
  190.2300  172.6630  145.1530 C   0  0  0  0  0  2  0  0  0  0  0  0
  191.1000  171.8940  144.1670 C   0  0  0  0  0  2  0  0  0  0  0  0
  192.3170  172.6410  143.8590 N   0  0  0  0  0  2  0  0  0  0  0  0
  193.3940  171.6780  143.6510 C   0  0  0  0  0  2  0  0  0  0  0  0
  195.1380  172.1810  139.1320 O   0  0  0  0  0  1  0  0  0  0  0  0
  195.8860  171.7510  143.2790 C   0  0  2  0  0  3  0  0  0  0  0  0
  197.0380  172.1270  142.3320 C   0  0  0  0  0  2  0  0  0  0  0  0
  194.5190  172.2840  142.8080 C   0  0  1  0  0  3  0  0  0  0  0  0
  194.2760  171.9530  141.3370 C   0  0  0  0  0  2  0  0  0  0  0  0
  195.4220  172.4570  140.4690 C   0  0  1  0  0  3  0  0  0  0  0  0
  196.7130  171.7680  140.8860 C   0  0  0  0  0  2  0  0  0  0  0  0
  196.2120  172.1680  144.7200 C   0  0  0  0  0  2  0  0  0  0  0  0
  196.9950  173.4840  144.8310 C   0  0  0  0  0  2  0  0  0  0  0  0
  195.2260  174.7060  146.1250 C   0  0  0  0  0  3  0  0  0  0  0  0
  194.4970  176.9080  145.4770 C   0  0  0  0  0  3  0  0  0  0  0  0
  196.0860  174.6650  145.0240 C   0  0  0  0  0  0  0  0  0  0  0  0
  197.0780  175.8330  143.0110 C   0  0  0  0  0  1  0  0  0  0  0  0
  194.4170  175.8210  146.3510 C   0  0  0  0  0  3  0  0  0  0  0  0
  195.3530  176.8680  144.4190 N   0  0  0  0  0  0  0  0  0  0  0  0
  196.1350  175.7820  144.1660 C   0  0  0  0  0  0  0  0  0  0  0  0
  1  2  1  0  0  0  0
  2  4  2  0  0  0  0
  3  5  2  0  0  0  0
  5  4  1  0  0  0  0
  6  3  1  0  0  0  0
  6  1  2  0  0  0  0
  7  3  1  0  0  0  0
  8 10  1  1  0  0  0
  8  7  1  0  0  0  0
 10  9  1  0  0  0  0
 11  8  1  0  0  0  0
 12 11  1  0  0  0  0
 13 26  1  6  0  0  0
 13 12  1  0  0  0  0
 14 19  1  0  0  0  0
 14 20  1  0  0  0  0
 15 19  2  0  0  0  0
 16 18  1  0  0  0  0
 16 15  1  0  0  0  0
 17 16  1  0  0  0  0
 18 14  2  0  0  0  0
 19 13  1  0  0  0  0
 21 20  1  0  0  0  0
 22 23  1  0  0  0  0
 22 21  1  0  0  0  0
 25 23  1  0  0  0  0
 25 24  1  0  0  0  0
 26 28  1  0  0  0  0
 27 28  1  0  0  0  0
 29  1  1  0  0  0  0
 30 31  1  0  0  0  0
 30 29  1  0  0  0  0
 32 31  1  0  0  0  0
 33 32  1  0  0  0  0
 34 33  1  0  0  0  0
 36 42  1  1  0  0  0
 37 36  1  0  0  0  0
 38 36  1  0  0  0  0
 38 34  1  1  0  0  0
 39 38  1  0  0  0  0
 40 35  1  6  0  0  0
 40 41  1  0  0  0  0
 40 39  1  0  0  0  0
 41 37  1  0  0  0  0
 42 43  1  0  0  0  0
 43 46  1  0  0  0  0
 44 48  1  0  0  0  0
 45 48  2  0  0  0  0
 46 44  2  0  0  0  0
 47 50  1  0  0  0  0
 49 45  1  0  0  0  0
 50 49  2  0  0  0  0
 50 46  1  0  0  0  0
M  END
>  <MODEL>
4

>  <REMARK>
 VINA RESULT:      -4.7      2.464      8.041
  Name = 
  24 active torsions:
  status: ('A' for Active; 'I' for Inactive)
    1  A    between atoms: N_1  and  N_20
    2  A    between atoms: N_1  and  C_41
    3  A    between atoms: C_2  and  N_6
    4  A    between atoms: C_2  and  C_23
    5  A    between atoms: C_2  and  O_49
    6  A    between atoms: C_3  and  C_9
    7  A    between atoms: C_3  and  C_27
    8  A    between atoms: N_6  and  C_32
    9  A    between atoms: N_10  and  C_45
   10  A    between atoms: N_10  and  C_50
   11  A    between atoms: C_11  and  C_37
   12  A    between atoms: C_12  and  C_26
   13  A    between atoms: C_14  and  C_16
   14  A    between atoms: C_14  and  C_32
   15  A    between atoms: C_14  and  C_46
   16  A    between atoms: C_16  and  C_19
   17  A    between atoms: N_20  and  O_21
   18  A    between atoms: C_22  and  O_49
   19  A    between atoms: C_25  and  C_27
   20  A    between atoms: C_26  and  C_41
   21  A    between atoms: C_29  and  C_50
   22  A    between atoms: N_35  and  C_37
   23  A    between atoms: N_35  and  C_42
   24  A    between atoms: C_42  and  C_45
                            x       y       z     vdW  Elec       q    Type
                         _______ _______ _______ _____ _____    ______ ____

>  <TORSDO>
F 24

$$$$
=
 OpenBabel11042415553D

 50 53  0  0  1  0  0  0  0  0999 V2000
  187.7260  176.5340  146.1260 C   0  0  0  0  0  0  0  0  0  0  0  0
  186.7030  177.1470  146.8660 C   0  0  0  0  0  3  0  0  0  0  0  0
  186.3780  176.7180  144.1160 C   0  0  0  0  0  0  0  0  0  0  0  0
  185.5310  177.5620  146.2300 C   0  0  0  0  0  3  0  0  0  0  0  0
  185.3670  177.3520  144.8590 C   0  0  0  0  0  3  0  0  0  0  0  0
  187.5540  176.3150  144.7570 C   0  0  0  0  0  3  0  0  0  0  0  0
  186.2460  176.4730  142.7430 O   0  0  0  0  0  0  0  0  0  0  0  0
  187.1930  176.8830  141.7530 C   0  0  2  0  0  3  0  0  0  0  0  0
  185.3350  178.4020  141.3390 N   0  0  0  0  0  1  0  0  0  0  0  0
  186.6040  177.9310  140.8160 C   0  0  0  0  0  2  0  0  0  0  0  0
  187.6820  175.7300  140.9930 N   0  0  0  0  0  2  0  0  0  0  0  0
  188.6920  175.0090  141.7710 C   0  0  0  0  0  2  0  0  0  0  0  0
  188.6840  173.5170  141.4580 C   0  0  1  0  0  3  0  0  0  0  0  0
  190.7070  173.4190  139.8460 C   0  0  0  0  0  0  0  0  0  0  0  0
  188.7760  172.6890  139.0110 C   0  0  0  0  0  3  0  0  0  0  0  0
  189.7150  172.6050  138.0560 N   0  0  0  0  0  0  0  0  0  0  0  0
  189.4940  172.1030  136.7160 C   0  0  0  0  0  1  0  0  0  0  0  0
  190.9020  173.0320  138.5360 C   0  0  0  0  0  3  0  0  0  0  0  0
  189.3700  173.2110  140.1500 C   0  0  0  0  0  0  0  0  0  0  0  0
  191.7520  173.9870  140.7520 C   0  0  0  0  0  2  0  0  0  0  0  0
  192.7420  172.9160  141.1690 C   0  0  0  0  0  2  0  0  0  0  0  0
  193.8960  172.9630  140.2900 N   0  0  0  0  0  2  0  0  0  0  0  0
  195.0340  172.8970  141.1080 N   0  0  0  0  0  2  0  0  0  0  0  0
  195.7240  174.7690  140.2500 C   0  0  0  0  0  1  0  0  0  0  0  0
  196.0590  173.4200  140.3940 O   0  0  0  0  0  0  0  0  0  0  0  0
  189.2540  172.7080  142.6230 C   0  0  0  0  0  2  0  0  0  0  0  0
  190.1990  172.8090  144.9070 C   0  0  0  0  0  1  0  0  0  0  0  0
  189.5920  173.6260  143.7870 C   0  0  0  0  0  2  0  0  0  0  0  0
  188.9930  176.0990  146.7870 C   0  0  0  0  0  2  0  0  0  0  0  0
  189.9640  177.1830  146.7800 N   0  0  0  0  0  2  0  0  0  0  0  0
  190.7750  177.0370  145.5770 C   0  0  0  0  0  2  0  0  0  0  0  0
  192.0080  176.1950  145.8800 C   0  0  0  0  0  2  0  0  0  0  0  0
  192.8810  176.1170  144.7110 N   0  0  0  0  0  2  0  0  0  0  0  0
  193.2310  174.7140  144.5060 C   0  0  0  0  0  2  0  0  0  0  0  0
  197.7890  175.8710  143.2360 O   0  0  0  0  0  1  0  0  0  0  0  0
  195.0450  172.9710  144.6530 C   0  0  2  0  0  3  0  0  0  0  0  0
  196.5550  172.6810  144.7060 C   0  0  0  0  0  2  0  0  0  0  0  0
  194.7120  174.4670  144.8080 C   0  0  1  0  0  3  0  0  0  0  0  0
  195.5630  175.3210  143.8700 C   0  0  0  0  0  2  0  0  0  0  0  0
  197.0460  175.0370  144.0710 C   0  0  1  0  0  3  0  0  0  0  0  0
  197.3300  173.5780  143.7460 C   0  0  0  0  0  2  0  0  0  0  0  0
  194.2920  172.0950  145.6630 C   0  0  0  0  0  2  0  0  0  0  0  0
  194.5190  170.5890  145.4810 C   0  0  0  0  0  2  0  0  0  0  0  0
  192.5630  170.2610  143.9440 C   0  0  0  0  0  3  0  0  0  0  0  0
  192.8350  169.2730  141.7640 C   0  0  0  0  0  3  0  0  0  0  0  0
  193.9250  170.0810  144.1970 C   0  0  0  0  0  0  0  0  0  0  0  0
  196.1980  169.3350  143.3720 C   0  0  0  0  0  1  0  0  0  0  0  0
  192.0070  169.8460  142.7320 C   0  0  0  0  0  3  0  0  0  0  0  0
  194.1650  169.1200  142.0110 N   0  0  0  0  0  0  0  0  0  0  0  0
  194.7250  169.4970  143.1950 C   0  0  0  0  0  0  0  0  0  0  0  0
  1 29  1  0  0  0  0
  1  2  1  0  0  0  0
  3  6  1  0  0  0  0
  3  5  2  0  0  0  0
  4  2  2  0  0  0  0
  5  4  1  0  0  0  0
  6  1  2  0  0  0  0
  7  3  1  0  0  0  0
  8 10  1  6  0  0  0
  8  7  1  0  0  0  0
 10  9  1  0  0  0  0
 11  8  1  0  0  0  0
 11 12  1  0  0  0  0
 13 12  1  1  0  0  0
 13 26  1  0  0  0  0
 14 19  1  0  0  0  0
 14 20  1  0  0  0  0
 15 19  2  0  0  0  0
 16 18  1  0  0  0  0
 16 15  1  0  0  0  0
 17 16  1  0  0  0  0
 18 14  2  0  0  0  0
 19 13  1  0  0  0  0
 20 21  1  0  0  0  0
 22 23  1  0  0  0  0
 22 21  1  0  0  0  0
 24 25  1  0  0  0  0
 25 23  1  0  0  0  0
 26 28  1  0  0  0  0
 28 27  1  0  0  0  0
 30 29  1  0  0  0  0
 31 32  1  0  0  0  0
 31 30  1  0  0  0  0
 33 32  1  0  0  0  0
 34 33  1  0  0  0  0
 36 37  1  0  0  0  0
 36 38  1  0  0  0  0
 36 42  1  1  0  0  0
 38 34  1  6  0  0  0
 39 40  1  0  0  0  0
 39 38  1  0  0  0  0
 40 35  1  6  0  0  0
 41 40  1  0  0  0  0
 41 37  1  0  0  0  0
 43 42  1  0  0  0  0
 44 46  1  0  0  0  0
 45 49  2  0  0  0  0
 45 48  1  0  0  0  0
 46 43  1  0  0  0  0
 48 44  2  0  0  0  0
 49 50  1  0  0  0  0
 50 47  1  0  0  0  0
 50 46  2  0  0  0  0
M  END
>  <MODEL>
5

>  <REMARK>
 VINA RESULT:      -4.6      2.388      7.405
  Name = 
  24 active torsions:
  status: ('A' for Active; 'I' for Inactive)
    1  A    between atoms: N_1  and  N_20
    2  A    between atoms: N_1  and  C_41
    3  A    between atoms: C_2  and  N_6
    4  A    between atoms: C_2  and  C_23
    5  A    between atoms: C_2  and  O_49
    6  A    between atoms: C_3  and  C_9
    7  A    between atoms: C_3  and  C_27
    8  A    between atoms: N_6  and  C_32
    9  A    between atoms: N_10  and  C_45
   10  A    between atoms: N_10  and  C_50
   11  A    between atoms: C_11  and  C_37
   12  A    between atoms: C_12  and  C_26
   13  A    between atoms: C_14  and  C_16
   14  A    between atoms: C_14  and  C_32
   15  A    between atoms: C_14  and  C_46
   16  A    between atoms: C_16  and  C_19
   17  A    between atoms: N_20  and  O_21
   18  A    between atoms: C_22  and  O_49
   19  A    between atoms: C_25  and  C_27
   20  A    between atoms: C_26  and  C_41
   21  A    between atoms: C_29  and  C_50
   22  A    between atoms: N_35  and  C_37
   23  A    between atoms: N_35  and  C_42
   24  A    between atoms: C_42  and  C_45
                            x       y       z     vdW  Elec       q    Type
                         _______ _______ _______ _____ _____    ______ ____

>  <TORSDO>
F 24

$$$$
=
 OpenBabel11042415553D

 50 53  0  0  1  0  0  0  0  0999 V2000
  195.1290  174.3090  145.0650 C   0  0  0  0  0  0  0  0  0  0  0  0
  196.5210  174.3290  145.2390 C   0  0  0  0  0  3  0  0  0  0  0  0
  195.1010  171.9370  145.5810 C   0  0  0  0  0  0  0  0  0  0  0  0
  197.1980  173.1620  145.6010 C   0  0  0  0  0  3  0  0  0  0  0  0
  196.4940  171.9700  145.7750 C   0  0  0  0  0  3  0  0  0  0  0  0
  194.4280  173.1120  145.2290 C   0  0  0  0  0  3  0  0  0  0  0  0
  194.3600  170.7590  145.7290 O   0  0  0  0  0  0  0  0  0  0  0  0
  193.6500  170.1110  144.6700 C   0  0  2  0  0  3  0  0  0  0  0  0
  194.0530  168.2510  146.1890 N   0  0  0  0  0  1  0  0  0  0  0  0
  193.6560  168.5960  144.8380 C   0  0  0  0  0  2  0  0  0  0  0  0
  194.2050  170.4870  143.3660 N   0  0  0  0  0  2  0  0  0  0  0  0
  193.1210  170.7990  142.4320 C   0  0  0  0  0  2  0  0  0  0  0  0
  193.6440  171.0220  141.0180 C   0  0  1  0  0  3  0  0  0  0  0  0
  192.9770  173.1490  139.7020 C   0  0  0  0  0  0  0  0  0  0  0  0
  194.5650  173.4280  141.2390 C   0  0  0  0  0  3  0  0  0  0  0  0
  194.3510  174.6020  140.6260 N   0  0  0  0  0  0  0  0  0  0  0  0
  195.0370  175.8390  140.9370 C   0  0  0  0  0  1  0  0  0  0  0  0
  193.3850  174.4680  139.6930 C   0  0  0  0  0  3  0  0  0  0  0  0
  193.7200  172.4870  140.6690 C   0  0  0  0  0  0  0  0  0  0  0  0
  191.9420  172.5510  138.8050 C   0  0  0  0  0  2  0  0  0  0  0  0
  190.5960  172.4890  139.5030 C   0  0  0  0  0  2  0  0  0  0  0  0
  189.6580  173.3540  138.8100 N   0  0  0  0  0  2  0  0  0  0  0  0
  189.1880  172.6390  137.6990 N   0  0  0  0  0  2  0  0  0  0  0  0
  189.8420  172.6540  135.6290 C   0  0  0  0  0  1  0  0  0  0  0  0
  189.2980  173.4630  136.6290 O   0  0  0  0  0  0  0  0  0  0  0  0
  194.9730  170.2980  140.8030 C   0  0  0  0  0  2  0  0  0  0  0  0
  196.2060  168.6840  139.3920 C   0  0  0  0  0  1  0  0  0  0  0  0
  194.8540  169.3110  139.6530 C   0  0  0  0  0  2  0  0  0  0  0  0
  194.3870  175.5510  144.6940 C   0  0  0  0  0  2  0  0  0  0  0  0
  194.6830  176.6180  145.6390 N   0  0  0  0  0  2  0  0  0  0  0  0
  193.9300  176.3460  146.8580 C   0  0  0  0  0  2  0  0  0  0  0  0
  192.4360  176.4790  146.5870 C   0  0  0  0  0  2  0  0  0  0  0  0
  191.7690  175.1870  146.7260 N   0  0  0  0  0  2  0  0  0  0  0  0
  190.3340  175.4330  146.8340 C   0  0  0  0  0  2  0  0  0  0  0  0
  189.9790  171.9410  143.4580 O   0  0  0  0  0  1  0  0  0  0  0  0
  189.7870  176.0540  144.4530 C   0  0  2  0  0  3  0  0  0  0  0  0
  189.2870  175.5780  143.0780 C   0  0  0  0  0  2  0  0  0  0  0  0
  189.6040  174.9980  145.5610 C   0  0  1  0  0  3  0  0  0  0  0  0
  190.1380  173.6370  145.1180 C   0  0  0  0  0  2  0  0  0  0  0  0
  189.5060  173.2070  143.8000 C   0  0  1  0  0  3  0  0  0  0  0  0
  189.8620  174.2140  142.7160 C   0  0  0  0  0  2  0  0  0  0  0  0
  189.1560  177.4040  144.8210 C   0  0  0  0  0  2  0  0  0  0  0  0
  187.7600  177.6270  144.2240 C   0  0  0  0  0  2  0  0  0  0  0  0
  186.8240  177.1960  146.5120 C   0  0  0  0  0  3  0  0  0  0  0  0
  184.8950  178.3890  147.3210 C   0  0  0  0  0  3  0  0  0  0  0  0
  186.7240  177.8610  145.2880 C   0  0  0  0  0  0  0  0  0  0  0  0
  185.5660  179.6000  143.8590 C   0  0  0  0  0  1  0  0  0  0  0  0
  185.9020  177.4450  147.5310 C   0  0  0  0  0  3  0  0  0  0  0  0
  184.8170  179.0480  146.1320 N   0  0  0  0  0  0  0  0  0  0  0  0
  185.6910  178.8040  145.1160 C   0  0  0  0  0  0  0  0  0  0  0  0
  1  6  2  0  0  0  0
  1  2  1  0  0  0  0
  2  4  2  0  0  0  0
  3  7  1  0  0  0  0
  3  5  2  0  0  0  0
  4  5  1  0  0  0  0
  6  3  1  0  0  0  0
  8 10  1  1  0  0  0
  8  7  1  0  0  0  0
 10  9  1  0  0  0  0
 11  8  1  0  0  0  0
 12 11  1  0  0  0  0
 13 26  1  1  0  0  0
 13 12  1  0  0  0  0
 14 19  1  0  0  0  0
 16 17  1  0  0  0  0
 16 15  1  0  0  0  0
 18 14  2  0  0  0  0
 18 16  1  0  0  0  0
 19 13  1  0  0  0  0
 19 15  2  0  0  0  0
 20 21  1  0  0  0  0
 20 14  1  0  0  0  0
 22 21  1  0  0  0  0
 23 22  1  0  0  0  0
 24 25  1  0  0  0  0
 25 23  1  0  0  0  0
 27 28  1  0  0  0  0
 28 26  1  0  0  0  0
 29  1  1  0  0  0  0
 29 30  1  0  0  0  0
 30 31  1  0  0  0  0
 32 33  1  0  0  0  0
 32 31  1  0  0  0  0
 33 34  1  0  0  0  0
 36 42  1  1  0  0  0
 36 38  1  0  0  0  0
 37 36  1  0  0  0  0
 38 34  1  1  0  0  0
 39 38  1  0  0  0  0
 40 35  1  6  0  0  0
 40 39  1  0  0  0  0
 41 37  1  0  0  0  0
 41 40  1  0  0  0  0
 43 42  1  0  0  0  0
 43 46  1  0  0  0  0
 44 48  1  0  0  0  0
 45 48  2  0  0  0  0
 46 44  2  0  0  0  0
 47 50  1  0  0  0  0
 49 45  1  0  0  0  0
 50 46  1  0  0  0  0
 50 49  2  0  0  0  0
M  END
>  <MODEL>
6

>  <REMARK>
 VINA RESULT:      -4.5      2.282      5.702
  Name = 
  24 active torsions:
  status: ('A' for Active; 'I' for Inactive)
    1  A    between atoms: N_1  and  N_20
    2  A    between atoms: N_1  and  C_41
    3  A    between atoms: C_2  and  N_6
    4  A    between atoms: C_2  and  C_23
    5  A    between atoms: C_2  and  O_49
    6  A    between atoms: C_3  and  C_9
    7  A    between atoms: C_3  and  C_27
    8  A    between atoms: N_6  and  C_32
    9  A    between atoms: N_10  and  C_45
   10  A    between atoms: N_10  and  C_50
   11  A    between atoms: C_11  and  C_37
   12  A    between atoms: C_12  and  C_26
   13  A    between atoms: C_14  and  C_16
   14  A    between atoms: C_14  and  C_32
   15  A    between atoms: C_14  and  C_46
   16  A    between atoms: C_16  and  C_19
   17  A    between atoms: N_20  and  O_21
   18  A    between atoms: C_22  and  O_49
   19  A    between atoms: C_25  and  C_27
   20  A    between atoms: C_26  and  C_41
   21  A    between atoms: C_29  and  C_50
   22  A    between atoms: N_35  and  C_37
   23  A    between atoms: N_35  and  C_42
   24  A    between atoms: C_42  and  C_45
                            x       y       z     vdW  Elec       q    Type
                         _______ _______ _______ _____ _____    ______ ____

>  <TORSDO>
F 24

$$$$
=
 OpenBabel11042415553D

 50 53  0  0  1  0  0  0  0  0999 V2000
  188.1240  176.6920  145.4600 C   0  0  0  0  0  0  0  0  0  0  0  0
  188.2760  177.8370  144.6650 C   0  0  0  0  0  3  0  0  0  0  0  0
  190.0690  175.6990  144.4000 C   0  0  0  0  0  0  0  0  0  0  0  0
  189.3320  177.9220  143.7540 C   0  0  0  0  0  3  0  0  0  0  0  0
  190.2290  176.8590  143.6220 C   0  0  0  0  0  3  0  0  0  0  0  0
  189.0150  175.6250  145.3180 C   0  0  0  0  0  3  0  0  0  0  0  0
  190.9350  174.6050  144.2860 O   0  0  0  0  0  0  0  0  0  0  0  0
  190.8330  173.5930  143.2810 C   0  0  2  0  0  3  0  0  0  0  0  0
  189.7880  171.5070  143.9810 N   0  0  0  0  0  1  0  0  0  0  0  0
  189.5290  172.8130  143.4050 C   0  0  0  0  0  2  0  0  0  0  0  0
  191.9820  172.6850  143.3380 N   0  0  0  0  0  2  0  0  0  0  0  0
  192.7540  172.9320  144.5590 C   0  0  0  0  0  2  0  0  0  0  0  0
  194.2110  172.5170  144.3960 C   0  0  1  0  0  3  0  0  0  0  0  0
  195.4750  174.7620  144.1380 C   0  0  0  0  0  0  0  0  0  0  0  0
  195.4080  173.4800  142.3170 C   0  0  0  0  0  3  0  0  0  0  0  0
  196.0650  174.6120  142.0210 N   0  0  0  0  0  0  0  0  0  0  0  0
  196.6430  174.9240  140.7310 C   0  0  0  0  0  1  0  0  0  0  0  0
  196.1300  175.4070  143.1100 C   0  0  0  0  0  3  0  0  0  0  0  0
  195.0130  173.5500  143.6440 C   0  0  0  0  0  0  0  0  0  0  0  0
  195.2790  175.2970  145.5200 C   0  0  0  0  0  2  0  0  0  0  0  0
  194.6600  176.6820  145.4770 C   0  0  0  0  0  2  0  0  0  0  0  0
  194.1480  177.0180  146.7930 N   0  0  0  0  0  2  0  0  0  0  0  0
  192.7720  176.7470  146.7770 N   0  0  0  0  0  2  0  0  0  0  0  0
  190.9340  176.8240  147.9300 C   0  0  0  0  0  1  0  0  0  0  0  0
  192.3220  176.9340  148.0410 O   0  0  0  0  0  0  0  0  0  0  0  0
  194.8350  172.1580  145.7450 C   0  0  0  0  0  2  0  0  0  0  0  0
  196.8140  170.7300  146.1400 C   0  0  0  0  0  1  0  0  0  0  0  0
  195.3610  170.7330  145.7200 C   0  0  0  0  0  2  0  0  0  0  0  0
  187.0100  176.5920  146.4500 C   0  0  0  0  0  2  0  0  0  0  0  0
  186.9920  177.7660  147.3100 N   0  0  0  0  0  2  0  0  0  0  0  0
  185.6140  178.2380  147.3810 C   0  0  0  0  0  2  0  0  0  0  0  0
  185.3690  179.2900  146.3060 C   0  0  0  0  0  2  0  0  0  0  0  0
  184.2130  178.9320  145.4870 N   0  0  0  0  0  2  0  0  0  0  0  0
  184.7020  178.2190  144.3110 C   0  0  0  0  0  2  0  0  0  0  0  0
  180.3960  179.0580  142.1950 O   0  0  0  0  0  1  0  0  0  0  0  0
  184.4460  177.8710  141.8270 C   0  0  2  0  0  3  0  0  0  0  0  0
  183.6180  178.1590  140.5630 C   0  0  0  0  0  2  0  0  0  0  0  0
  184.0130  178.7200  143.0380 C   0  0  1  0  0  3  0  0  0  0  0  0
  182.4990  178.6670  143.2350 C   0  0  0  0  0  2  0  0  0  0  0  0
  181.7700  179.0690  141.9590 C   0  0  1  0  0  3  0  0  0  0  0  0
  182.1210  178.0910  140.8470 C   0  0  0  0  0  2  0  0  0  0  0  0
  185.9460  177.9960  141.5310 C   0  0  0  0  0  2  0  0  0  0  0  0
  186.3120  177.8060  140.0530 C   0  0  0  0  0  2  0  0  0  0  0  0
  187.8260  175.9900  140.8940 C   0  0  0  0  0  3  0  0  0  0  0  0
  188.5210  174.1780  139.4680 C   0  0  0  0  0  3  0  0  0  0  0  0
  187.1250  176.5620  139.8290 C   0  0  0  0  0  0  0  0  0  0  0  0
  186.3510  176.4180  137.4240 C   0  0  0  0  0  1  0  0  0  0  0  0
  188.5400  174.8030  140.7170 C   0  0  0  0  0  3  0  0  0  0  0  0
  187.8180  174.7300  138.4410 N   0  0  0  0  0  0  0  0  0  0  0  0
  187.1330  175.8990  138.5850 C   0  0  0  0  0  0  0  0  0  0  0  0
  1 29  1  0  0  0  0
  2  1  2  0  0  0  0
  3  6  2  0  0  0  0
  4  2  1  0  0  0  0
  5  4  2  0  0  0  0
  5  3  1  0  0  0  0
  6  1  1  0  0  0  0
  7  3  1  0  0  0  0
  8 11  1  0  0  0  0
  8 10  1  1  0  0  0
  8  7  1  0  0  0  0
 10  9  1  0  0  0  0
 11 12  1  0  0  0  0
 13 12  1  1  0  0  0
 13 26  1  0  0  0  0
 14 20  1  0  0  0  0
 15 19  2  0  0  0  0
 16 15  1  0  0  0  0
 16 18  1  0  0  0  0
 17 16  1  0  0  0  0
 18 14  2  0  0  0  0
 19 14  1  0  0  0  0
 19 13  1  0  0  0  0
 21 20  1  0  0  0  0
 21 22  1  0  0  0  0
 23 22  1  0  0  0  0
 23 25  1  0  0  0  0
 24 25  1  0  0  0  0
 28 26  1  0  0  0  0
 28 27  1  0  0  0  0
 29 30  1  0  0  0  0
 30 31  1  0  0  0  0
 32 31  1  0  0  0  0
 33 32  1  0  0  0  0
 34 33  1  0  0  0  0
 36 42  1  6  0  0  0
 36 38  1  0  0  0  0
 37 41  1  0  0  0  0
 37 36  1  0  0  0  0
 38 39  1  0  0  0  0
 38 34  1  1  0  0  0
 40 35  1  1  0  0  0
 40 39  1  0  0  0  0
 41 40  1  0  0  0  0
 43 42  1  0  0  0  0
 45 48  2  0  0  0  0
 46 43  1  0  0  0  0
 46 44  2  0  0  0  0
 47 50  1  0  0  0  0
 48 44  1  0  0  0  0
 49 50  2  0  0  0  0
 49 45  1  0  0  0  0
 50 46  1  0  0  0  0
M  END
>  <MODEL>
7

>  <REMARK>
 VINA RESULT:      -4.5      3.006      7.081
  Name = 
  24 active torsions:
  status: ('A' for Active; 'I' for Inactive)
    1  A    between atoms: N_1  and  N_20
    2  A    between atoms: N_1  and  C_41
    3  A    between atoms: C_2  and  N_6
    4  A    between atoms: C_2  and  C_23
    5  A    between atoms: C_2  and  O_49
    6  A    between atoms: C_3  and  C_9
    7  A    between atoms: C_3  and  C_27
    8  A    between atoms: N_6  and  C_32
    9  A    between atoms: N_10  and  C_45
   10  A    between atoms: N_10  and  C_50
   11  A    between atoms: C_11  and  C_37
   12  A    between atoms: C_12  and  C_26
   13  A    between atoms: C_14  and  C_16
   14  A    between atoms: C_14  and  C_32
   15  A    between atoms: C_14  and  C_46
   16  A    between atoms: C_16  and  C_19
   17  A    between atoms: N_20  and  O_21
   18  A    between atoms: C_22  and  O_49
   19  A    between atoms: C_25  and  C_27
   20  A    between atoms: C_26  and  C_41
   21  A    between atoms: C_29  and  C_50
   22  A    between atoms: N_35  and  C_37
   23  A    between atoms: N_35  and  C_42
   24  A    between atoms: C_42  and  C_45
                            x       y       z     vdW  Elec       q    Type
                         _______ _______ _______ _____ _____    ______ ____

>  <TORSDO>
F 24

$$$$
=
 OpenBabel11042415553D

 50 53  0  0  1  0  0  0  0  0999 V2000
  190.9860  174.5940  141.6540 C   0  0  0  0  0  0  0  0  0  0  0  0
  190.2490  175.6020  142.2950 C   0  0  0  0  0  3  0  0  0  0  0  0
  193.0370  175.8150  142.0990 C   0  0  0  0  0  0  0  0  0  0  0  0
  190.9050  176.7010  142.8520 C   0  0  0  0  0  3  0  0  0  0  0  0
  192.2940  176.8090  142.7590 C   0  0  0  0  0  3  0  0  0  0  0  0
  192.3750  174.7100  141.5520 C   0  0  0  0  0  3  0  0  0  0  0  0
  194.4290  175.8930  141.9690 O   0  0  0  0  0  0  0  0  0  0  0  0
  195.2920  174.7640  141.8140 C   0  0  2  0  0  3  0  0  0  0  0  0
  197.4690  174.7350  142.9050 N   0  0  0  0  0  1  0  0  0  0  0  0
  196.0570  174.4650  143.0970 C   0  0  0  0  0  2  0  0  0  0  0  0
  196.2200  174.9690  140.6980 N   0  0  0  0  0  2  0  0  0  0  0  0
  195.4810  175.0140  139.4340 C   0  0  0  0  0  2  0  0  0  0  0  0
  195.7170  173.7600  138.6000 C   0  0  1  0  0  3  0  0  0  0  0  0
  193.2790  172.9630  138.2450 C   0  0  0  0  0  0  0  0  0  0  0  0
  194.6090  171.5400  139.3280 C   0  0  0  0  0  3  0  0  0  0  0  0
  193.3820  171.0040  139.2480 N   0  0  0  0  0  0  0  0  0  0  0  0
  193.0070  169.7070  139.7710 C   0  0  0  0  0  1  0  0  0  0  0  0
  192.5530  171.8400  138.5880 C   0  0  0  0  0  3  0  0  0  0  0  0
  194.5730  172.7830  138.7130 C   0  0  0  0  0  0  0  0  0  0  0  0
  192.7470  174.1600  137.5280 C   0  0  0  0  0  2  0  0  0  0  0  0
  191.2630  174.0060  137.2520 C   0  0  0  0  0  2  0  0  0  0  0  0
  190.9160  174.7620  136.0620 N   0  0  0  0  0  2  0  0  0  0  0  0
  189.5320  174.6270  135.8810 N   0  0  0  0  0  2  0  0  0  0  0  0
  189.9790  176.4300  134.7570 C   0  0  0  0  0  1  0  0  0  0  0  0
  189.2260  175.2540  134.7200 O   0  0  0  0  0  0  0  0  0  0  0  0
  196.0420  174.1180  137.1490 C   0  0  0  0  0  2  0  0  0  0  0  0
  197.1190  176.0530  136.0480 C   0  0  0  0  0  1  0  0  0  0  0  0
  197.3010  174.9670  137.0850 C   0  0  0  0  0  2  0  0  0  0  0  0
  190.3030  173.4030  141.0670 C   0  0  0  0  0  2  0  0  0  0  0  0
  190.8790  172.1770  141.5980 N   0  0  0  0  0  2  0  0  0  0  0  0
  190.1740  171.8600  142.8350 C   0  0  0  0  0  2  0  0  0  0  0  0
  191.1670  171.4060  143.8980 C   0  0  0  0  0  2  0  0  0  0  0  0
  191.6680  172.5480  144.6580 N   0  0  0  0  0  2  0  0  0  0  0  0
  190.5170  173.3260  145.1090 C   0  0  0  0  0  2  0  0  0  0  0  0
  194.1800  176.0770  146.7640 O   0  0  0  0  0  1  0  0  0  0  0  0
  190.0220  175.2800  146.6220 C   0  0  2  0  0  3  0  0  0  0  0  0
  190.5240  176.6010  147.2300 C   0  0  0  0  0  2  0  0  0  0  0  0
  190.9330  174.7470  145.5000 C   0  0  1  0  0  3  0  0  0  0  0  0
  192.3970  174.7380  145.9360 C   0  0  0  0  0  2  0  0  0  0  0  0
  192.8280  176.1150  146.4240 C   0  0  1  0  0  3  0  0  0  0  0  0
  191.9920  176.5080  147.6340 C   0  0  0  0  0  2  0  0  0  0  0  0
  188.5590  175.4130  146.1760 C   0  0  0  0  0  2  0  0  0  0  0  0
  187.9150  176.7600  146.5280 C   0  0  0  0  0  2  0  0  0  0  0  0
  187.8130  177.7720  144.2340 C   0  0  0  0  0  3  0  0  0  0  0  0
  185.7070  178.2600  143.1730 C   0  0  0  0  0  3  0  0  0  0  0  0
  187.1380  177.3310  145.3750 C   0  0  0  0  0  0  0  0  0  0  0  0
  184.9430  176.8400  146.5350 C   0  0  0  0  0  1  0  0  0  0  0  0
  187.1030  178.2520  143.1320 C   0  0  0  0  0  3  0  0  0  0  0  0
  185.0560  177.8090  144.2810 N   0  0  0  0  0  0  0  0  0  0  0  0
  185.7290  177.3580  145.3760 C   0  0  0  0  0  0  0  0  0  0  0  0
  1  2  1  0  0  0  0
  2  4  2  0  0  0  0
  3  5  2  0  0  0  0
  5  4  1  0  0  0  0
  6  1  2  0  0  0  0
  6  3  1  0  0  0  0
  7  3  1  0  0  0  0
  8  7  1  0  0  0  0
  8 10  1  1  0  0  0
  9 10  1  0  0  0  0
 11  8  1  0  0  0  0
 12 11  1  0  0  0  0
 13 26  1  6  0  0  0
 13 19  1  0  0  0  0
 13 12  1  0  0  0  0
 14 18  2  0  0  0  0
 14 19  1  0  0  0  0
 16 15  1  0  0  0  0
 16 17  1  0  0  0  0
 18 16  1  0  0  0  0
 19 15  2  0  0  0  0
 20 14  1  0  0  0  0
 21 20  1  0  0  0  0
 22 21  1  0  0  0  0
 23 22  1  0  0  0  0
 25 24  1  0  0  0  0
 25 23  1  0  0  0  0
 27 28  1  0  0  0  0
 28 26  1  0  0  0  0
 29 30  1  0  0  0  0
 29  1  1  0  0  0  0
 30 31  1  0  0  0  0
 31 32  1  0  0  0  0
 32 33  1  0  0  0  0
 33 34  1  0  0  0  0
 36 42  1  6  0  0  0
 36 37  1  0  0  0  0
 37 41  1  0  0  0  0
 38 34  1  1  0  0  0
 38 39  1  0  0  0  0
 38 36  1  0  0  0  0
 39 40  1  0  0  0  0
 40 35  1  1  0  0  0
 40 41  1  0  0  0  0
 42 43  1  0  0  0  0
 44 46  1  0  0  0  0
 45 49  2  0  0  0  0
 46 50  2  0  0  0  0
 46 43  1  0  0  0  0
 48 45  1  0  0  0  0
 48 44  2  0  0  0  0
 49 50  1  0  0  0  0
 50 47  1  0  0  0  0
M  END
>  <MODEL>
8

>  <REMARK>
 VINA RESULT:      -4.5      2.599      4.303
  Name = 
  24 active torsions:
  status: ('A' for Active; 'I' for Inactive)
    1  A    between atoms: N_1  and  N_20
    2  A    between atoms: N_1  and  C_41
    3  A    between atoms: C_2  and  N_6
    4  A    between atoms: C_2  and  C_23
    5  A    between atoms: C_2  and  O_49
    6  A    between atoms: C_3  and  C_9
    7  A    between atoms: C_3  and  C_27
    8  A    between atoms: N_6  and  C_32
    9  A    between atoms: N_10  and  C_45
   10  A    between atoms: N_10  and  C_50
   11  A    between atoms: C_11  and  C_37
   12  A    between atoms: C_12  and  C_26
   13  A    between atoms: C_14  and  C_16
   14  A    between atoms: C_14  and  C_32
   15  A    between atoms: C_14  and  C_46
   16  A    between atoms: C_16  and  C_19
   17  A    between atoms: N_20  and  O_21
   18  A    between atoms: C_22  and  O_49
   19  A    between atoms: C_25  and  C_27
   20  A    between atoms: C_26  and  C_41
   21  A    between atoms: C_29  and  C_50
   22  A    between atoms: N_35  and  C_37
   23  A    between atoms: N_35  and  C_42
   24  A    between atoms: C_42  and  C_45
                            x       y       z     vdW  Elec       q    Type
                         _______ _______ _______ _____ _____    ______ ____

>  <TORSDO>
F 24

$$$$
=
 OpenBabel11042415553D

 50 53  0  0  1  0  0  0  0  0999 V2000
  186.4940  177.8690  144.7050 C   0  0  0  0  0  0  0  0  0  0  0  0
  185.7960  177.3130  145.7880 C   0  0  0  0  0  3  0  0  0  0  0  0
  188.5970  177.4130  145.8300 C   0  0  0  0  0  0  0  0  0  0  0  0
  186.4950  176.7910  146.8780 C   0  0  0  0  0  3  0  0  0  0  0  0
  187.8910  176.8370  146.9020 C   0  0  0  0  0  3  0  0  0  0  0  0
  187.8910  177.9240  144.7360 C   0  0  0  0  0  3  0  0  0  0  0  0
  189.9940  177.4940  145.8220 O   0  0  0  0  0  0  0  0  0  0  0  0
  190.8710  176.3750  145.9750 C   0  0  2  0  0  3  0  0  0  0  0  0
  191.1900  175.2750  148.1240 N   0  0  0  0  0  1  0  0  0  0  0  0
  191.5930  176.4100  147.3170 C   0  0  0  0  0  2  0  0  0  0  0  0
  191.8360  176.3160  144.8730 N   0  0  0  0  0  2  0  0  0  0  0  0
  193.2010  176.3100  145.4030 C   0  0  0  0  0  2  0  0  0  0  0  0
  194.0110  175.1390  144.8590 C   0  0  1  0  0  3  0  0  0  0  0  0
  194.0610  175.0300  142.2730 C   0  0  0  0  0  0  0  0  0  0  0  0
  195.7420  176.1420  143.2210 C   0  0  0  0  0  3  0  0  0  0  0  0
  195.9200  176.1470  141.8910 N   0  0  0  0  0  0  0  0  0  0  0  0
  197.0210  176.7890  141.2030 C   0  0  0  0  0  1  0  0  0  0  0  0
  194.9110  175.4870  141.2860 C   0  0  0  0  0  3  0  0  0  0  0  0
  194.5810  175.4340  143.4940 C   0  0  0  0  0  0  0  0  0  0  0  0
  192.8240  174.2200  142.0520 C   0  0  0  0  0  2  0  0  0  0  0  0
  193.1240  173.0020  141.1990 C   0  0  0  0  0  2  0  0  0  0  0  0
  193.9100  172.0570  141.9730 N   0  0  0  0  0  2  0  0  0  0  0  0
  193.2690  170.8140  141.8720 N   0  0  0  0  0  2  0  0  0  0  0  0
  193.9130  168.7670  142.1980 C   0  0  0  0  0  1  0  0  0  0  0  0
  193.8160  170.0140  142.8190 O   0  0  0  0  0  0  0  0  0  0  0  0
  195.0800  174.6980  145.8590 C   0  0  0  0  0  2  0  0  0  0  0  0
  194.0010  172.5070  145.4680 C   0  0  0  0  0  1  0  0  0  0  0  0
  195.3150  173.2000  145.7510 C   0  0  0  0  0  2  0  0  0  0  0  0
  185.7630  178.4160  143.5240 C   0  0  0  0  0  2  0  0  0  0  0  0
  186.6890  178.6710  142.4300 N   0  0  0  0  0  2  0  0  0  0  0  0
  186.3130  177.7990  141.3240 C   0  0  0  0  0  2  0  0  0  0  0  0
  186.6900  176.3580  141.6460 C   0  0  0  0  0  2  0  0  0  0  0  0
  187.6940  175.8640  140.7070 N   0  0  0  0  0  2  0  0  0  0  0  0
  188.9010  175.5480  141.4660 C   0  0  0  0  0  2  0  0  0  0  0  0
  189.7750  173.0410  145.5500 O   0  0  0  0  0  1  0  0  0  0  0  0
  189.5460  173.1160  141.3200 C   0  0  2  0  0  3  0  0  0  0  0  0
  189.6760  171.7700  142.0520 C   0  0  0  0  0  2  0  0  0  0  0  0
  188.7850  174.1770  142.1380 C   0  0  1  0  0  3  0  0  0  0  0  0
  189.3290  174.2700  143.5620 C   0  0  0  0  0  2  0  0  0  0  0  0
  189.3200  172.9050  144.2380 C   0  0  1  0  0  3  0  0  0  0  0  0
  190.2200  171.9520  143.4650 C   0  0  0  0  0  2  0  0  0  0  0  0
  188.9480  172.9150  139.9210 C   0  0  0  0  0  2  0  0  0  0  0  0
  189.6230  171.8060  139.1030 C   0  0  0  0  0  2  0  0  0  0  0  0
  190.7270  173.6830  137.8550 C   0  0  0  0  0  3  0  0  0  0  0  0
  191.7230  173.3320  135.6910 C   0  0  0  0  0  3  0  0  0  0  0  0
  190.3150  172.3480  137.8840 C   0  0  0  0  0  0  0  0  0  0  0  0
  190.2880  170.0690  136.7840 C   0  0  0  0  0  1  0  0  0  0  0  0
  191.4210  174.1860  136.7530 C   0  0  0  0  0  3  0  0  0  0  0  0
  191.3360  172.0270  135.7350 N   0  0  0  0  0  0  0  0  0  0  0  0
  190.6380  171.5200  136.7900 C   0  0  0  0  0  0  0  0  0  0  0  0
  1  6  2  0  0  0  0
  1  2  1  0  0  0  0
  2  4  2  0  0  0  0
  3  5  2  0  0  0  0
  4  5  1  0  0  0  0
  6  3  1  0  0  0  0
  7  3  1  0  0  0  0
  7  8  1  0  0  0  0
  8 10  1  1  0  0  0
 10  9  1  0  0  0  0
 11 12  1  0  0  0  0
 11  8  1  0  0  0  0
 13 12  1  1  0  0  0
 13 26  1  0  0  0  0
 14 19  1  0  0  0  0
 15 19  2  0  0  0  0
 16 15  1  0  0  0  0
 17 16  1  0  0  0  0
 18 16  1  0  0  0  0
 18 14  2  0  0  0  0
 19 13  1  0  0  0  0
 20 14  1  0  0  0  0
 21 22  1  0  0  0  0
 21 20  1  0  0  0  0
 23 22  1  0  0  0  0
 23 25  1  0  0  0  0
 24 25  1  0  0  0  0
 27 28  1  0  0  0  0
 28 26  1  0  0  0  0
 29  1  1  0  0  0  0
 30 29  1  0  0  0  0
 31 32  1  0  0  0  0
 31 30  1  0  0  0  0
 33 34  1  0  0  0  0
 33 32  1  0  0  0  0
 36 42  1  6  0  0  0
 36 37  1  0  0  0  0
 36 38  1  0  0  0  0
 37 41  1  0  0  0  0
 38 34  1  6  0  0  0
 38 39  1  0  0  0  0
 39 40  1  0  0  0  0
 40 35  1  1  0  0  0
 41 40  1  0  0  0  0
 43 42  1  0  0  0  0
 44 46  1  0  0  0  0
 45 49  2  0  0  0  0
 45 48  1  0  0  0  0
 46 43  1  0  0  0  0
 47 50  1  0  0  0  0
 48 44  2  0  0  0  0
 49 50  1  0  0  0  0
 50 46  2  0  0  0  0
M  END
>  <MODEL>
9

>  <REMARK>
 VINA RESULT:      -4.5      2.387      6.881
  Name = 
  24 active torsions:
  status: ('A' for Active; 'I' for Inactive)
    1  A    between atoms: N_1  and  N_20
    2  A    between atoms: N_1  and  C_41
    3  A    between atoms: C_2  and  N_6
    4  A    between atoms: C_2  and  C_23
    5  A    between atoms: C_2  and  O_49
    6  A    between atoms: C_3  and  C_9
    7  A    between atoms: C_3  and  C_27
    8  A    between atoms: N_6  and  C_32
    9  A    between atoms: N_10  and  C_45
   10  A    between atoms: N_10  and  C_50
   11  A    between atoms: C_11  and  C_37
   12  A    between atoms: C_12  and  C_26
   13  A    between atoms: C_14  and  C_16
   14  A    between atoms: C_14  and  C_32
   15  A    between atoms: C_14  and  C_46
   16  A    between atoms: C_16  and  C_19
   17  A    between atoms: N_20  and  O_21
   18  A    between atoms: C_22  and  O_49
   19  A    between atoms: C_25  and  C_27
   20  A    between atoms: C_26  and  C_41
   21  A    between atoms: C_29  and  C_50
   22  A    between atoms: N_35  and  C_37
   23  A    between atoms: N_35  and  C_42
   24  A    between atoms: C_42  and  C_45
                            x       y       z     vdW  Elec       q    Type
                         _______ _______ _______ _____ _____    ______ ____

>  <TORSDO>
F 24

$$$$
