=
 OpenBabel11042417113D

 38 42  0  0  1  0  0  0  0  0999 V2000
  190.6970  176.3710  146.6810 C   0  0  0  0  0  0  0  0  0  0  0  0
  190.5390  175.8670  145.3610 N   0  0  0  0  0  0  0  0  0  0  0  0
  185.8460  176.4510  145.7620 C   0  0  0  0  0  3  0  0  0  0  0  0
  187.5410  177.7090  146.9470 C   0  0  0  0  0  0  0  0  0  0  0  0
  184.8600  177.1570  146.4480 C   0  0  0  0  0  3  0  0  0  0  0  0
  187.2040  176.7090  145.9820 C   0  0  0  0  0  0  0  0  0  0  0  0
  188.8870  178.0300  147.4060 C   0  0  0  0  0  3  0  0  0  0  0  0
  186.5120  178.3980  147.5980 C   0  0  0  0  0  3  0  0  0  0  0  0
  189.4570  175.7750  144.6320 C   0  0  0  0  0  0  0  0  0  0  0  0
  185.2090  178.1170  147.3400 N   0  0  0  0  0  0  0  0  0  0  0  0
  189.8470  177.2320  147.1120 C   0  0  0  0  0  0  0  0  0  0  0  0
  188.1010  175.9910  145.0970 N   0  0  0  0  0  2  0  0  0  0  0  0
  188.7620  173.8830  143.1220 C   0  0  0  0  0  1  0  0  0  0  0  0
  189.5860  175.1670  143.2700 C   0  0  1  0  0  3  0  0  0  0  0  0
  189.3530  176.1640  142.2130 N   0  0  0  0  0  0  0  0  0  0  0  0
  187.6960  177.8630  141.9030 C   0  0  2  0  0  3  0  0  0  0  0  0
  187.9160  176.3790  142.0810 C   0  0  0  0  0  2  0  0  0  0  0  0
  189.9640  177.4600  142.5350 C   0  0  0  0  0  2  0  0  0  0  0  0
  188.8720  178.5080  142.5890 C   0  0  0  0  0  2  0  0  0  0  0  0
  183.9200  179.0680  143.5700 C   0  0  0  0  0  3  0  0  0  0  0  0
  185.2110  177.6950  142.0470 C   0  0  0  0  0  3  0  0  0  0  0  0
  186.3280  179.3020  143.4750 C   0  0  0  0  0  3  0  0  0  0  0  0
  186.3910  178.3050  142.4870 C   0  0  0  0  0  0  0  0  0  0  0  0
  183.9770  178.0760  142.5860 C   0  0  0  0  0  3  0  0  0  0  0  0
  185.0940  179.6810  144.0130 C   0  0  0  0  0  3  0  0  0  0  0  0
  192.0060  176.2140  147.3730 C   0  0  0  0  0  2  0  0  0  0  0  0
  192.7750  175.1530  146.7400 N   0  0  0  0  0  2  0  0  0  0  0  0
  194.8110  174.2910  145.6260 N   0  0  0  0  0  0  0  0  0  0  0  0
  194.6800  176.4690  146.4630 O   0  0  0  0  0  0  0  0  0  0  0  0
  194.1500  173.0790  145.3730 N   0  0  0  0  0  1  0  0  0  0  0  0
  194.1150  175.3560  146.2850 C   0  0  0  0  0  0  0  0  0  0  0  0
  196.1730  174.4900  145.1410 C   0  0  1  0  0  3  0  0  0  0  0  0
  197.1200  173.5070  145.8110 C   0  0  0  0  0  1  0  0  0  0  0  0
  196.2160  174.3450  143.6240 C   0  0  0  0  0  2  0  0  0  0  0  0
  196.0410  175.6880  142.9300 C   0  0  0  0  0  0  0  0  0  0  0  0
  194.7310  176.0650  142.7760 O   0  0  0  0  0  0  0  0  0  0  0  0
  195.4240  175.6360  141.7040 O   0  0  0  0  0  0  0  0  0  0  0  0
  197.0000  176.8490  143.1160 C   0  0  0  0  0  1  0  0  0  0  0  0
  1 11  2  0  0  0  0
  1 26  1  0  0  0  0
  2  1  1  0  0  0  0
  3  6  2  0  0  0  0
  3  5  1  0  0  0  0
  4  7  1  0  0  0  0
  4  8  2  0  0  0  0
  5 10  2  0  0  0  0
  6  4  1  0  0  0  0
  9 12  1  0  0  0  0
  9  2  2  0  0  0  0
 10  8  1  0  0  0  0
 11  7  2  0  0  0  0
 12  6  1  0  0  0  0
 14 13  1  1  0  0  0
 14  9  1  0  0  0  0
 15 18  1  0  0  0  0
 15 14  1  0  0  0  0
 16 17  1  0  0  0  0
 16 23  1  1  0  0  0
 16 19  1  0  0  0  0
 17 15  1  0  0  0  0
 18 19  1  0  0  0  0
 20 25  1  0  0  0  0
 21 23  2  0  0  0  0
 21 24  1  0  0  0  0
 22 25  2  0  0  0  0
 23 22  1  0  0  0  0
 24 20  2  0  0  0  0
 27 26  1  0  0  0  0
 28 31  1  0  0  0  0
 30 28  1  0  0  0  0
 31 29  2  0  0  0  0
 31 27  1  0  0  0  0
 32 28  1  0  0  0  0
 32 33  1  1  0  0  0
 34 32  1  0  0  0  0
 35 38  1  0  0  0  0
 35 34  1  0  0  0  0
 36 35  1  0  0  0  0
 37 36  1  0  0  0  0
 37 35  1  0  0  0  0
M  END
>  <MODEL>
1

>  <REMARK>
 VINA RESULT:      -8.2      0.000      0.000
  Name = 
  8 active torsions:
  status: ('A' for Active; 'I' for Inactive)
    1  A    between atoms: N_1  and  C_9
    2  A    between atoms: C_3  and  C_19
    3  A    between atoms: N_4  and  C_19
    4  A    between atoms: N_5  and  C_10
    5  A    between atoms: C_7  and  C_33
    6  A    between atoms: C_9  and  C_29
    7  A    between atoms: C_10  and  C_33
    8  A    between atoms: C_12  and  C_28
                            x       y       z     vdW  Elec       q    Type
                         _______ _______ _______ _____ _____    ______ ____

>  <TORSDO>
F 8

$$$$
=
 OpenBabel11042417113D

 38 42  0  0  1  0  0  0  0  0999 V2000
  191.6230  171.5110  142.4360 C   0  0  0  0  0  0  0  0  0  0  0  0
  190.8660  172.4020  143.2440 N   0  0  0  0  0  0  0  0  0  0  0  0
  188.8650  174.1670  139.3200 C   0  0  0  0  0  3  0  0  0  0  0  0
  189.7650  171.9350  139.5750 C   0  0  0  0  0  0  0  0  0  0  0  0
  188.5680  173.8820  137.9880 C   0  0  0  0  0  3  0  0  0  0  0  0
  189.4590  173.2080  140.1480 C   0  0  0  0  0  0  0  0  0  0  0  0
  190.4930  170.8570  140.2330 C   0  0  0  0  0  3  0  0  0  0  0  0
  189.4340  171.6950  138.2360 C   0  0  0  0  0  3  0  0  0  0  0  0
  189.9280  173.2440  142.8950 C   0  0  0  0  0  0  0  0  0  0  0  0
  188.8480  172.6570  137.4780 N   0  0  0  0  0  0  0  0  0  0  0  0
  191.1140  171.1100  141.3270 C   0  0  0  0  0  0  0  0  0  0  0  0
  189.5790  173.6090  141.5360 N   0  0  0  0  0  2  0  0  0  0  0  0
  189.8660  173.7510  145.3620 C   0  0  0  0  0  1  0  0  0  0  0  0
  189.3180  174.0890  143.9700 C   0  0  1  0  0  3  0  0  0  0  0  0
  189.3720  175.5190  143.6250 N   0  0  0  0  0  0  0  0  0  0  0  0
  188.0300  177.4010  144.2450 C   0  0  2  0  0  3  0  0  0  0  0  0
  188.0100  176.0410  143.5870 C   0  0  0  0  0  2  0  0  0  0  0  0
  190.1140  176.2970  144.6250 C   0  0  0  0  0  2  0  0  0  0  0  0
  189.1860  177.3410  145.2100 C   0  0  0  0  0  2  0  0  0  0  0  0
  184.2910  178.3080  146.1640 C   0  0  0  0  0  3  0  0  0  0  0  0
  186.0630  178.8900  144.6170 C   0  0  0  0  0  3  0  0  0  0  0  0
  186.1780  176.8200  145.8710 C   0  0  0  0  0  3  0  0  0  0  0  0
  186.7360  177.7040  144.9330 C   0  0  0  0  0  0  0  0  0  0  0  0
  184.8430  179.1920  145.2320 C   0  0  0  0  0  3  0  0  0  0  0  0
  184.9580  177.1230  146.4840 C   0  0  0  0  0  3  0  0  0  0  0  0
  192.7640  170.7660  143.0370 C   0  0  0  0  0  2  0  0  0  0  0  0
  193.9180  171.6450  143.1580 N   0  0  0  0  0  2  0  0  0  0  0  0
  195.3280  173.2470  144.4140 N   0  0  0  0  0  0  0  0  0  0  0  0
  193.4710  172.2040  145.3780 O   0  0  0  0  0  0  0  0  0  0  0  0
  196.0980  173.4620  143.2600 N   0  0  0  0  0  1  0  0  0  0  0  0
  194.2050  172.3580  144.3630 C   0  0  0  0  0  0  0  0  0  0  0  0
  195.6220  173.9940  145.6330 C   0  0  1  0  0  3  0  0  0  0  0  0
  196.9730  173.5770  146.1920 C   0  0  0  0  0  1  0  0  0  0  0  0
  195.5840  175.4920  145.3520 C   0  0  0  0  0  2  0  0  0  0  0  0
  194.3560  176.1440  145.9680 C   0  0  0  0  0  0  0  0  0  0  0  0
  194.0040  177.3320  145.3760 O   0  0  0  0  0  0  0  0  0  0  0  0
  194.5830  177.3460  146.5920 O   0  0  0  0  0  0  0  0  0  0  0  0
  193.1800  175.3530  146.5090 C   0  0  0  0  0  1  0  0  0  0  0  0
  1 26  1  0  0  0  0
  1  2  1  0  0  0  0
  3  6  1  0  0  0  0
  4  6  2  0  0  0  0
  4  7  1  0  0  0  0
  5  3  2  0  0  0  0
  6 12  1  0  0  0  0
  7 11  2  0  0  0  0
  8  4  1  0  0  0  0
  9  2  2  0  0  0  0
  9 14  1  0  0  0  0
 10  5  1  0  0  0  0
 10  8  2  0  0  0  0
 11  1  2  0  0  0  0
 12  9  1  0  0  0  0
 14 13  1  1  0  0  0
 15 14  1  0  0  0  0
 15 18  1  0  0  0  0
 16 23  1  1  0  0  0
 16 19  1  0  0  0  0
 17 15  1  0  0  0  0
 17 16  1  0  0  0  0
 18 19  1  0  0  0  0
 20 25  1  0  0  0  0
 21 23  2  0  0  0  0
 21 24  1  0  0  0  0
 22 25  2  0  0  0  0
 23 22  1  0  0  0  0
 24 20  2  0  0  0  0
 26 27  1  0  0  0  0
 27 31  1  0  0  0  0
 28 32  1  0  0  0  0
 30 28  1  0  0  0  0
 31 28  1  0  0  0  0
 31 29  2  0  0  0  0
 32 33  1  6  0  0  0
 34 32  1  0  0  0  0
 34 35  1  0  0  0  0
 35 38  1  0  0  0  0
 35 37  1  0  0  0  0
 36 35  1  0  0  0  0
 36 37  1  0  0  0  0
M  END
>  <MODEL>
2

>  <REMARK>
 VINA RESULT:      -7.7      2.851      5.469
  Name = 
  8 active torsions:
  status: ('A' for Active; 'I' for Inactive)
    1  A    between atoms: N_1  and  C_9
    2  A    between atoms: C_3  and  C_19
    3  A    between atoms: N_4  and  C_19
    4  A    between atoms: N_5  and  C_10
    5  A    between atoms: C_7  and  C_33
    6  A    between atoms: C_9  and  C_29
    7  A    between atoms: C_10  and  C_33
    8  A    between atoms: C_12  and  C_28
                            x       y       z     vdW  Elec       q    Type
                         _______ _______ _______ _____ _____    ______ ____

>  <TORSDO>
F 8

$$$$
=
 OpenBabel11042417113D

 38 42  0  0  1  0  0  0  0  0999 V2000
  187.7620  175.9040  142.7550 C   0  0  0  0  0  0  0  0  0  0  0  0
  188.7440  175.3300  143.6070 N   0  0  0  0  0  0  0  0  0  0  0  0
  187.0710  177.9450  147.1970 C   0  0  0  0  0  3  0  0  0  0  0  0
  185.8110  177.2120  145.2640 C   0  0  0  0  0  0  0  0  0  0  0  0
  185.9460  178.6290  147.6550 C   0  0  0  0  0  3  0  0  0  0  0  0
  187.0350  177.2150  146.0030 C   0  0  0  0  0  0  0  0  0  0  0  0
  185.6130  176.6220  143.9460 C   0  0  0  0  0  3  0  0  0  0  0  0
  184.7070  177.9040  145.7760 C   0  0  0  0  0  3  0  0  0  0  0  0
  188.9140  175.4800  144.8950 C   0  0  0  0  0  0  0  0  0  0  0  0
  184.7920  178.5880  146.9460 N   0  0  0  0  0  0  0  0  0  0  0  0
  186.6410  176.2640  143.2690 C   0  0  0  0  0  0  0  0  0  0  0  0
  188.2370  176.4520  145.7320 N   0  0  0  0  0  2  0  0  0  0  0  0
  190.4200  173.4640  144.8080 C   0  0  0  0  0  1  0  0  0  0  0  0
  190.0660  174.7680  145.5320 C   0  0  1  0  0  3  0  0  0  0  0  0
  191.2060  175.6740  145.7460 N   0  0  0  0  0  0  0  0  0  0  0  0
  193.5770  175.3460  145.7470 C   0  0  2  0  0  3  0  0  0  0  0  0
  192.2790  174.9290  146.3970 C   0  0  0  0  0  2  0  0  0  0  0  0
  191.7380  176.1960  144.4810 C   0  0  0  0  0  2  0  0  0  0  0  0
  193.1870  175.7720  144.3550 C   0  0  0  0  0  2  0  0  0  0  0  0
  196.4870  172.1810  145.7610 C   0  0  0  0  0  3  0  0  0  0  0  0
  195.9280  174.5310  145.9400 C   0  0  0  0  0  3  0  0  0  0  0  0
  194.1840  172.8960  145.5440 C   0  0  0  0  0  3  0  0  0  0  0  0
  194.5760  174.2310  145.7360 C   0  0  0  0  0  0  0  0  0  0  0  0
  196.8820  173.5090  145.9510 C   0  0  0  0  0  3  0  0  0  0  0  0
  195.1390  171.8750  145.5570 C   0  0  0  0  0  3  0  0  0  0  0  0
  187.8730  175.7200  141.2810 C   0  0  0  0  0  2  0  0  0  0  0  0
  189.1300  175.0610  140.9600 N   0  0  0  0  0  2  0  0  0  0  0  0
  190.4480  173.1000  140.2190 N   0  0  0  0  0  0  0  0  0  0  0  0
  188.1110  173.0780  140.2770 O   0  0  0  0  0  0  0  0  0  0  0  0
  191.6320  173.7960  140.5070 N   0  0  0  0  0  1  0  0  0  0  0  0
  189.1800  173.7170  140.4750 C   0  0  0  0  0  0  0  0  0  0  0  0
  190.5130  171.7220  139.7410 C   0  0  1  0  0  3  0  0  0  0  0  0
  190.7270  171.6970  138.2350 C   0  0  0  0  0  1  0  0  0  0  0  0
  191.6240  170.9690  140.4640 C   0  0  0  0  0  2  0  0  0  0  0  0
  191.0770  170.1410  141.6170 C   0  0  0  0  0  0  0  0  0  0  0  0
  190.1950  170.8220  142.4180 O   0  0  0  0  0  0  0  0  0  0  0  0
  191.4400  170.5720  142.8690 O   0  0  0  0  0  0  0  0  0  0  0  0
  190.7910  168.6550  141.5080 C   0  0  0  0  0  1  0  0  0  0  0  0
  1 11  2  0  0  0  0
  1  2  1  0  0  0  0
  2  9  2  0  0  0  0
  3  5  1  0  0  0  0
  4  8  2  0  0  0  0
  4  6  1  0  0  0  0
  6  3  2  0  0  0  0
  7  4  1  0  0  0  0
  8 10  1  0  0  0  0
  9 14  1  0  0  0  0
  9 12  1  0  0  0  0
 10  5  2  0  0  0  0
 11  7  2  0  0  0  0
 12  6  1  0  0  0  0
 14 13  1  6  0  0  0
 14 15  1  0  0  0  0
 15 17  1  0  0  0  0
 16 23  1  6  0  0  0
 16 17  1  0  0  0  0
 18 15  1  0  0  0  0
 19 18  1  0  0  0  0
 19 16  1  0  0  0  0
 20 24  1  0  0  0  0
 21 24  2  0  0  0  0
 22 25  1  0  0  0  0
 22 23  2  0  0  0  0
 23 21  1  0  0  0  0
 25 20  2  0  0  0  0
 26  1  1  0  0  0  0
 27 26  1  0  0  0  0
 28 31  1  0  0  0  0
 28 30  1  0  0  0  0
 29 31  2  0  0  0  0
 31 27  1  0  0  0  0
 32 33  1  6  0  0  0
 32 28  1  0  0  0  0
 32 34  1  0  0  0  0
 34 35  1  0  0  0  0
 35 36  1  0  0  0  0
 35 37  1  0  0  0  0
 36 37  1  0  0  0  0
 38 35  1  0  0  0  0
M  END
>  <MODEL>
3

>  <REMARK>
 VINA RESULT:      -7.4      3.134      7.230
  Name = 
  8 active torsions:
  status: ('A' for Active; 'I' for Inactive)
    1  A    between atoms: N_1  and  C_9
    2  A    between atoms: C_3  and  C_19
    3  A    between atoms: N_4  and  C_19
    4  A    between atoms: N_5  and  C_10
    5  A    between atoms: C_7  and  C_33
    6  A    between atoms: C_9  and  C_29
    7  A    between atoms: C_10  and  C_33
    8  A    between atoms: C_12  and  C_28
                            x       y       z     vdW  Elec       q    Type
                         _______ _______ _______ _____ _____    ______ ____

>  <TORSDO>
F 8

$$$$
=
 OpenBabel11042417113D

 38 42  0  0  1  0  0  0  0  0999 V2000
  192.1280  172.6490  141.6740 C   0  0  0  0  0  0  0  0  0  0  0  0
  190.9800  173.2670  142.2390 N   0  0  0  0  0  0  0  0  0  0  0  0
  189.2340  173.8860  137.8700 C   0  0  0  0  0  3  0  0  0  0  0  0
  190.7820  172.1540  138.5500 C   0  0  0  0  0  0  0  0  0  0  0  0
  189.2970  173.4120  136.5610 C   0  0  0  0  0  3  0  0  0  0  0  0
  189.9610  173.2720  138.8960 C   0  0  0  0  0  0  0  0  0  0  0  0
  191.7040  171.4650  139.4430 C   0  0  0  0  0  3  0  0  0  0  0  0
  190.7980  171.7090  137.2230 C   0  0  0  0  0  3  0  0  0  0  0  0
  189.8900  173.6860  141.6510 C   0  0  0  0  0  0  0  0  0  0  0  0
  190.0650  172.3350  136.2670 N   0  0  0  0  0  0  0  0  0  0  0  0
  191.9950  172.0070  140.5690 C   0  0  0  0  0  0  0  0  0  0  0  0
  189.6870  173.7960  140.2200 N   0  0  0  0  0  2  0  0  0  0  0  0
  189.1670  174.2340  144.0010 C   0  0  0  0  0  1  0  0  0  0  0  0
  188.8460  174.3350  142.5050 C   0  0  1  0  0  3  0  0  0  0  0  0
  188.5410  175.6980  142.0390 N   0  0  0  0  0  0  0  0  0  0  0  0
  187.2700  177.4980  142.9720 C   0  0  2  0  0  3  0  0  0  0  0  0
  187.2070  176.0630  142.5060 C   0  0  0  0  0  2  0  0  0  0  0  0
  189.4810  176.6870  142.5800 C   0  0  0  0  0  2  0  0  0  0  0  0
  188.7030  177.7010  143.3920 C   0  0  0  0  0  2  0  0  0  0  0  0
  184.4790  178.2900  146.1460 C   0  0  0  0  0  3  0  0  0  0  0  0
  185.6020  178.9660  144.1090 C   0  0  0  0  0  3  0  0  0  0  0  0
  186.1000  176.8180  145.1130 C   0  0  0  0  0  3  0  0  0  0  0  0
  186.3120  177.7600  144.0920 C   0  0  0  0  0  0  0  0  0  0  0  0
  184.6880  179.2310  145.1340 C   0  0  0  0  0  3  0  0  0  0  0  0
  185.1850  177.0840  146.1360 C   0  0  0  0  0  3  0  0  0  0  0  0
  193.3280  172.4140  142.5240 C   0  0  0  0  0  2  0  0  0  0  0  0
  193.8000  173.6760  143.0720 N   0  0  0  0  0  2  0  0  0  0  0  0
  193.7850  175.4610  144.7890 N   0  0  0  0  0  0  0  0  0  0  0  0
  192.4950  173.5220  144.9990 O   0  0  0  0  0  0  0  0  0  0  0  0
  194.6530  176.2230  143.9920 N   0  0  0  0  0  1  0  0  0  0  0  0
  193.3230  174.1880  144.3180 C   0  0  0  0  0  0  0  0  0  0  0  0
  193.2920  176.0030  146.0510 C   0  0  1  0  0  3  0  0  0  0  0  0
  194.3060  176.9710  146.6400 C   0  0  0  0  0  1  0  0  0  0  0  0
  191.9450  176.6840  145.8380 C   0  0  0  0  0  2  0  0  0  0  0  0
  190.9720  176.3590  146.9620 C   0  0  0  0  0  0  0  0  0  0  0  0
  189.6540  176.5270  146.6180 O   0  0  0  0  0  0  0  0  0  0  0  0
  190.2440  177.4250  147.4300 O   0  0  0  0  0  0  0  0  0  0  0  0
  191.2100  175.2520  147.9710 C   0  0  0  0  0  1  0  0  0  0  0  0
  1  2  1  0  0  0  0
  1 26  1  0  0  0  0
  3  6  1  0  0  0  0
  4  6  2  0  0  0  0
  4  7  1  0  0  0  0
  5  3  2  0  0  0  0
  6 12  1  0  0  0  0
  7 11  2  0  0  0  0
  8  4  1  0  0  0  0
  9  2  2  0  0  0  0
  9 14  1  0  0  0  0
 10  5  1  0  0  0  0
 10  8  2  0  0  0  0
 11  1  2  0  0  0  0
 12  9  1  0  0  0  0
 14 13  1  1  0  0  0
 15 14  1  0  0  0  0
 15 17  1  0  0  0  0
 15 18  1  0  0  0  0
 16 19  1  0  0  0  0
 16 23  1  1  0  0  0
 17 16  1  0  0  0  0
 18 19  1  0  0  0  0
 21 24  1  0  0  0  0
 22 25  2  0  0  0  0
 23 21  2  0  0  0  0
 23 22  1  0  0  0  0
 24 20  2  0  0  0  0
 25 20  1  0  0  0  0
 26 27  1  0  0  0  0
 27 31  1  0  0  0  0
 28 32  1  0  0  0  0
 30 28  1  0  0  0  0
 31 28  1  0  0  0  0
 31 29  2  0  0  0  0
 32 33  1  6  0  0  0
 34 32  1  0  0  0  0
 34 35  1  0  0  0  0
 35 37  1  0  0  0  0
 35 38  1  0  0  0  0
 36 35  1  0  0  0  0
 36 37  1  0  0  0  0
M  END
>  <MODEL>
4

>  <REMARK>
 VINA RESULT:      -7.3      3.309      6.172
  Name = 
  8 active torsions:
  status: ('A' for Active; 'I' for Inactive)
    1  A    between atoms: N_1  and  C_9
    2  A    between atoms: C_3  and  C_19
    3  A    between atoms: N_4  and  C_19
    4  A    between atoms: N_5  and  C_10
    5  A    between atoms: C_7  and  C_33
    6  A    between atoms: C_9  and  C_29
    7  A    between atoms: C_10  and  C_33
    8  A    between atoms: C_12  and  C_28
                            x       y       z     vdW  Elec       q    Type
                         _______ _______ _______ _____ _____    ______ ____

>  <TORSDO>
F 8

$$$$
=
 OpenBabel11042417113D

 38 42  0  0  1  0  0  0  0  0999 V2000
  188.0690  176.0790  142.9220 C   0  0  0  0  0  0  0  0  0  0  0  0
  188.7880  175.5070  144.0070 N   0  0  0  0  0  0  0  0  0  0  0  0
  186.3840  178.3010  146.9970 C   0  0  0  0  0  3  0  0  0  0  0  0
  185.6120  177.5370  144.8330 C   0  0  0  0  0  0  0  0  0  0  0  0
  185.2090  179.0350  147.1440 C   0  0  0  0  0  3  0  0  0  0  0  0
  186.6150  177.5300  145.8520 C   0  0  0  0  0  0  0  0  0  0  0  0
  185.7220  176.9060  143.5240 C   0  0  0  0  0  3  0  0  0  0  0  0
  184.4440  178.2810  145.0370 C   0  0  0  0  0  3  0  0  0  0  0  0
  188.6410  175.6990  145.2920 C   0  0  0  0  0  0  0  0  0  0  0  0
  184.2640  179.0040  146.1720 N   0  0  0  0  0  0  0  0  0  0  0  0
  186.8710  176.4920  143.1330 C   0  0  0  0  0  0  0  0  0  0  0  0
  187.8170  176.7210  145.9080 N   0  0  0  0  0  2  0  0  0  0  0  0
  190.0000  173.6100  145.6610 C   0  0  0  0  0  1  0  0  0  0  0  0
  189.5730  174.9750  146.2130 C   0  0  1  0  0  3  0  0  0  0  0  0
  190.6890  175.8370  146.6350 N   0  0  0  0  0  0  0  0  0  0  0  0
  193.0670  175.6340  146.4590 C   0  0  2  0  0  3  0  0  0  0  0  0
  191.8170  174.9900  147.0100 C   0  0  0  0  0  2  0  0  0  0  0  0
  191.1430  176.7180  145.5510 C   0  0  0  0  0  2  0  0  0  0  0  0
  192.5980  176.4160  145.2600 C   0  0  0  0  0  2  0  0  0  0  0  0
  195.9980  172.6800  145.3770 C   0  0  0  0  0  3  0  0  0  0  0  0
  193.6890  173.3380  145.7070 C   0  0  0  0  0  3  0  0  0  0  0  0
  195.4740  174.9210  146.1270 C   0  0  0  0  0  3  0  0  0  0  0  0
  194.1030  174.6160  146.0980 C   0  0  0  0  0  0  0  0  0  0  0  0
  194.6340  172.3710  145.3480 C   0  0  0  0  0  3  0  0  0  0  0  0
  196.4170  173.9540  145.7670 C   0  0  0  0  0  3  0  0  0  0  0  0
  188.5330  175.8380  141.5280 C   0  0  0  0  0  2  0  0  0  0  0  0
  189.1690  174.5330  141.4370 N   0  0  0  0  0  2  0  0  0  0  0  0
  191.1420  173.0430  141.5780 N   0  0  0  0  0  0  0  0  0  0  0  0
  191.2580  175.3150  142.1160 O   0  0  0  0  0  0  0  0  0  0  0  0
  190.3670  171.9830  141.0830 N   0  0  0  0  0  1  0  0  0  0  0  0
  190.5550  174.3420  141.7290 C   0  0  0  0  0  0  0  0  0  0  0  0
  192.5600  172.8390  141.8560 C   0  0  1  0  0  3  0  0  0  0  0  0
  192.8080  171.4070  142.3010 C   0  0  0  0  0  1  0  0  0  0  0  0
  193.3900  173.1810  140.6240 C   0  0  0  0  0  2  0  0  0  0  0  0
  194.4150  174.2650  140.9250 C   0  0  0  0  0  0  0  0  0  0  0  0
  194.4300  175.2830  140.0050 O   0  0  0  0  0  0  0  0  0  0  0  0
  195.4300  174.3810  140.0070 O   0  0  0  0  0  0  0  0  0  0  0  0
  194.7720  174.7010  142.3330 C   0  0  0  0  0  1  0  0  0  0  0  0
  1 11  2  0  0  0  0
  1  2  1  0  0  0  0
  2  9  2  0  0  0  0
  3  5  1  0  0  0  0
  4  8  2  0  0  0  0
  4  6  1  0  0  0  0
  6 12  1  0  0  0  0
  6  3  2  0  0  0  0
  7  4  1  0  0  0  0
  8 10  1  0  0  0  0
  9 12  1  0  0  0  0
  9 14  1  0  0  0  0
 10  5  2  0  0  0  0
 11  7  2  0  0  0  0
 14 13  1  6  0  0  0
 14 15  1  0  0  0  0
 15 17  1  0  0  0  0
 16 23  1  6  0  0  0
 16 17  1  0  0  0  0
 18 15  1  0  0  0  0
 19 18  1  0  0  0  0
 19 16  1  0  0  0  0
 20 25  1  0  0  0  0
 21 23  2  0  0  0  0
 23 22  1  0  0  0  0
 24 20  2  0  0  0  0
 24 21  1  0  0  0  0
 25 22  2  0  0  0  0
 26  1  1  0  0  0  0
 27 26  1  0  0  0  0
 27 31  1  0  0  0  0
 28 31  1  0  0  0  0
 28 32  1  0  0  0  0
 30 28  1  0  0  0  0
 31 29  2  0  0  0  0
 32 33  1  6  0  0  0
 34 35  1  0  0  0  0
 34 32  1  0  0  0  0
 35 38  1  0  0  0  0
 36 37  1  0  0  0  0
 36 35  1  0  0  0  0
 37 35  1  0  0  0  0
M  END
>  <MODEL>
5

>  <REMARK>
 VINA RESULT:      -7.2      2.248      6.119
  Name = 
  8 active torsions:
  status: ('A' for Active; 'I' for Inactive)
    1  A    between atoms: N_1  and  C_9
    2  A    between atoms: C_3  and  C_19
    3  A    between atoms: N_4  and  C_19
    4  A    between atoms: N_5  and  C_10
    5  A    between atoms: C_7  and  C_33
    6  A    between atoms: C_9  and  C_29
    7  A    between atoms: C_10  and  C_33
    8  A    between atoms: C_12  and  C_28
                            x       y       z     vdW  Elec       q    Type
                         _______ _______ _______ _____ _____    ______ ____

>  <TORSDO>
F 8

$$$$
=
 OpenBabel11042417113D

 38 42  0  0  1  0  0  0  0  0999 V2000
  189.1730  174.9450  141.9730 C   0  0  0  0  0  0  0  0  0  0  0  0
  190.0560  175.5320  142.9200 N   0  0  0  0  0  0  0  0  0  0  0  0
  186.9260  179.0370  143.5800 C   0  0  0  0  0  3  0  0  0  0  0  0
  186.4070  176.7860  142.8550 C   0  0  0  0  0  0  0  0  0  0  0  0
  185.5780  179.3720  143.4610 C   0  0  0  0  0  3  0  0  0  0  0  0
  187.3750  177.7430  143.2910 C   0  0  0  0  0  0  0  0  0  0  0  0
  186.6940  175.4350  142.3890 C   0  0  0  0  0  3  0  0  0  0  0  0
  185.0640  177.1710  142.7660 C   0  0  0  0  0  3  0  0  0  0  0  0
  189.8760  176.5770  143.6850 C   0  0  0  0  0  0  0  0  0  0  0  0
  184.6790  178.4380  143.0680 N   0  0  0  0  0  0  0  0  0  0  0  0
  187.9090  175.1180  142.1270 C   0  0  0  0  0  0  0  0  0  0  0  0
  188.7760  177.5160  143.5920 N   0  0  0  0  0  2  0  0  0  0  0  0
  191.5120  178.4030  144.2630 C   0  0  0  0  0  1  0  0  0  0  0  0
  191.0070  176.9890  144.5750 C   0  0  1  0  0  3  0  0  0  0  0  0
  190.6870  176.7570  145.9930 N   0  0  0  0  0  0  0  0  0  0  0  0
  188.6490  176.8400  147.2440 C   0  0  2  0  0  3  0  0  0  0  0  0
  189.5900  177.6400  146.3750 C   0  0  0  0  0  2  0  0  0  0  0  0
  190.2470  175.3780  146.2380 C   0  0  0  0  0  2  0  0  0  0  0  0
  188.8420  175.4120  146.8020 C   0  0  0  0  0  2  0  0  0  0  0  0
  184.5960  178.2020  146.7860 C   0  0  0  0  0  3  0  0  0  0  0  0
  186.8830  178.5860  147.4880 C   0  0  0  0  0  3  0  0  0  0  0  0
  186.2490  176.4510  146.5340 C   0  0  0  0  0  3  0  0  0  0  0  0
  187.2300  177.2910  147.0880 C   0  0  0  0  0  0  0  0  0  0  0  0
  185.5690  179.0410  147.3390 C   0  0  0  0  0  3  0  0  0  0  0  0
  184.9360  176.9080  146.3850 C   0  0  0  0  0  3  0  0  0  0  0  0
  189.6670  173.8530  141.0890 C   0  0  0  0  0  2  0  0  0  0  0  0
  191.1210  173.8180  141.1130 N   0  0  0  0  0  2  0  0  0  0  0  0
  193.2780  173.0750  142.0740 N   0  0  0  0  0  0  0  0  0  0  0  0
  191.2250  172.3160  142.8930 O   0  0  0  0  0  0  0  0  0  0  0  0
  193.9570  173.9300  141.1930 N   0  0  0  0  0  1  0  0  0  0  0  0
  191.8460  173.0360  142.0640 C   0  0  0  0  0  0  0  0  0  0  0  0
  194.0300  172.2940  143.0520 C   0  0  1  0  0  3  0  0  0  0  0  0
  194.5230  171.0000  142.4250 C   0  0  0  0  0  1  0  0  0  0  0  0
  195.1920  173.1160  143.5970 C   0  0  0  0  0  2  0  0  0  0  0  0
  194.7660  173.9650  144.7860 C   0  0  0  0  0  0  0  0  0  0  0  0
  195.0540  175.2990  144.6440 O   0  0  0  0  0  0  0  0  0  0  0  0
  195.7930  174.5500  145.4840 O   0  0  0  0  0  0  0  0  0  0  0  0
  193.5160  173.6870  145.5980 C   0  0  0  0  0  1  0  0  0  0  0  0
  1 11  2  0  0  0  0
  1  2  1  0  0  0  0
  2  9  2  0  0  0  0
  4  6  1  0  0  0  0
  5  3  1  0  0  0  0
  6  3  2  0  0  0  0
  6 12  1  0  0  0  0
  7  4  1  0  0  0  0
  8  4  2  0  0  0  0
  8 10  1  0  0  0  0
  9 14  1  0  0  0  0
 10  5  2  0  0  0  0
 11  7  2  0  0  0  0
 12  9  1  0  0  0  0
 14 13  1  1  0  0  0
 14 15  1  0  0  0  0
 15 18  1  0  0  0  0
 15 17  1  0  0  0  0
 16 23  1  6  0  0  0
 17 16  1  0  0  0  0
 18 19  1  0  0  0  0
 19 16  1  0  0  0  0
 20 24  1  0  0  0  0
 22 23  2  0  0  0  0
 23 21  1  0  0  0  0
 24 21  2  0  0  0  0
 25 22  1  0  0  0  0
 25 20  2  0  0  0  0
 26 27  1  0  0  0  0
 26  1  1  0  0  0  0
 27 31  1  0  0  0  0
 28 32  1  0  0  0  0
 30 28  1  0  0  0  0
 31 28  1  0  0  0  0
 31 29  2  0  0  0  0
 32 33  1  6  0  0  0
 32 34  1  0  0  0  0
 34 35  1  0  0  0  0
 35 37  1  0  0  0  0
 35 38  1  0  0  0  0
 36 35  1  0  0  0  0
 36 37  1  0  0  0  0
M  END
>  <MODEL>
6

>  <REMARK>
 VINA RESULT:      -7.2      2.218      4.513
  Name = 
  8 active torsions:
  status: ('A' for Active; 'I' for Inactive)
    1  A    between atoms: N_1  and  C_9
    2  A    between atoms: C_3  and  C_19
    3  A    between atoms: N_4  and  C_19
    4  A    between atoms: N_5  and  C_10
    5  A    between atoms: C_7  and  C_33
    6  A    between atoms: C_9  and  C_29
    7  A    between atoms: C_10  and  C_33
    8  A    between atoms: C_12  and  C_28
                            x       y       z     vdW  Elec       q    Type
                         _______ _______ _______ _____ _____    ______ ____

>  <TORSDO>
F 8

$$$$
=
 OpenBabel11042417113D

 38 42  0  0  1  0  0  0  0  0999 V2000
  192.4040  176.6320  143.1140 C   0  0  0  0  0  0  0  0  0  0  0  0
  191.8560  175.5610  142.3570 N   0  0  0  0  0  0  0  0  0  0  0  0
  196.2480  173.9370  141.5840 C   0  0  0  0  0  3  0  0  0  0  0  0
  195.5350  175.2620  143.4810 C   0  0  0  0  0  0  0  0  0  0  0  0
  197.5510  173.9540  142.0780 C   0  0  0  0  0  3  0  0  0  0  0  0
  195.2090  174.5780  142.2690 C   0  0  0  0  0  0  0  0  0  0  0  0
  194.6260  176.0890  144.2640 C   0  0  0  0  0  3  0  0  0  0  0  0
  196.8580  175.2370  143.9400 C   0  0  0  0  0  3  0  0  0  0  0  0
  192.4590  174.5330  141.8180 C   0  0  0  0  0  0  0  0  0  0  0  0
  197.8270  174.5910  143.2420 N   0  0  0  0  0  0  0  0  0  0  0  0
  193.5040  176.4320  143.7470 C   0  0  0  0  0  0  0  0  0  0  0  0
  193.8930  174.3560  141.7020 N   0  0  0  0  0  2  0  0  0  0  0  0
  192.4650  172.6380  140.1580 C   0  0  0  0  0  1  0  0  0  0  0  0
  191.6210  173.5660  141.0400 C   0  0  1  0  0  3  0  0  0  0  0  0
  190.6570  172.8710  141.9080 N   0  0  0  0  0  0  0  0  0  0  0  0
  189.9360  173.2240  144.1620 C   0  0  2  0  0  3  0  0  0  0  0  0
  191.1340  172.9420  143.2860 C   0  0  0  0  0  2  0  0  0  0  0  0
  189.3300  173.4980  141.8680 C   0  0  0  0  0  2  0  0  0  0  0  0
  188.9710  173.9560  143.2660 C   0  0  0  0  0  2  0  0  0  0  0  0
  191.0660  175.5560  147.5930 C   0  0  0  0  0  3  0  0  0  0  0  0
  191.6610  174.1620  145.7030 C   0  0  0  0  0  3  0  0  0  0  0  0
  189.3350  174.6680  146.1540 C   0  0  0  0  0  3  0  0  0  0  0  0
  190.3080  174.0300  145.3670 C   0  0  0  0  0  0  0  0  0  0  0  0
  192.0400  174.9220  146.8150 C   0  0  0  0  0  3  0  0  0  0  0  0
  189.7150  175.4290  147.2630 C   0  0  0  0  0  3  0  0  0  0  0  0
  191.5390  177.7880  143.4800 C   0  0  0  0  0  2  0  0  0  0  0  0
  190.2010  177.5920  142.9450 N   0  0  0  0  0  2  0  0  0  0  0  0
  187.7380  177.5010  143.1850 N   0  0  0  0  0  0  0  0  0  0  0  0
  189.1380  178.1110  144.9550 O   0  0  0  0  0  0  0  0  0  0  0  0
  187.6340  177.0370  141.8640 N   0  0  0  0  0  1  0  0  0  0  0  0
  189.0310  177.7520  143.7500 C   0  0  0  0  0  0  0  0  0  0  0  0
  186.5360  177.6430  144.0020 C   0  0  1  0  0  3  0  0  0  0  0  0
  185.2930  177.5080  143.1370 C   0  0  0  0  0  1  0  0  0  0  0  0
  186.5390  176.6100  145.1220 C   0  0  0  0  0  2  0  0  0  0  0  0
  186.0160  177.1980  146.4250 C   0  0  0  0  0  0  0  0  0  0  0  0
  187.0010  177.6720  147.2540 O   0  0  0  0  0  0  0  0  0  0  0  0
  186.3790  176.5180  147.5610 O   0  0  0  0  0  0  0  0  0  0  0  0
  184.7070  177.9590  146.5240 C   0  0  0  0  0  1  0  0  0  0  0  0
  1 26  1  0  0  0  0
  1 11  2  0  0  0  0
  2  1  1  0  0  0  0
  3  5  2  0  0  0  0
  3  6  1  0  0  0  0
  4  8  1  0  0  0  0
  4  7  1  0  0  0  0
  5 10  1  0  0  0  0
  6  4  2  0  0  0  0
  9  2  2  0  0  0  0
 10  8  2  0  0  0  0
 11  7  2  0  0  0  0
 12  9  1  0  0  0  0
 12  6  1  0  0  0  0
 14 13  1  1  0  0  0
 14  9  1  0  0  0  0
 14 15  1  0  0  0  0
 15 17  1  0  0  0  0
 16 23  1  1  0  0  0
 17 16  1  0  0  0  0
 18 15  1  0  0  0  0
 18 19  1  0  0  0  0
 19 16  1  0  0  0  0
 21 24  1  0  0  0  0
 22 25  2  0  0  0  0
 23 21  2  0  0  0  0
 23 22  1  0  0  0  0
 24 20  2  0  0  0  0
 25 20  1  0  0  0  0
 27 26  1  0  0  0  0
 27 31  1  0  0  0  0
 28 31  1  0  0  0  0
 28 32  1  0  0  0  0
 30 28  1  0  0  0  0
 31 29  2  0  0  0  0
 32 33  1  6  0  0  0
 32 34  1  0  0  0  0
 34 35  1  0  0  0  0
 35 38  1  0  0  0  0
 35 36  1  0  0  0  0
 35 37  1  0  0  0  0
 36 37  1  0  0  0  0
M  END
>  <MODEL>
7

>  <REMARK>
 VINA RESULT:      -7.2      3.037      8.244
  Name = 
  8 active torsions:
  status: ('A' for Active; 'I' for Inactive)
    1  A    between atoms: N_1  and  C_9
    2  A    between atoms: C_3  and  C_19
    3  A    between atoms: N_4  and  C_19
    4  A    between atoms: N_5  and  C_10
    5  A    between atoms: C_7  and  C_33
    6  A    between atoms: C_9  and  C_29
    7  A    between atoms: C_10  and  C_33
    8  A    between atoms: C_12  and  C_28
                            x       y       z     vdW  Elec       q    Type
                         _______ _______ _______ _____ _____    ______ ____

>  <TORSDO>
F 8

$$$$
=
 OpenBabel11042417113D

 38 42  0  0  1  0  0  0  0  0999 V2000
  188.0850  176.4940  142.9990 C   0  0  0  0  0  0  0  0  0  0  0  0
  188.8630  175.8210  143.9790 N   0  0  0  0  0  0  0  0  0  0  0  0
  186.3920  178.0300  147.3760 C   0  0  0  0  0  3  0  0  0  0  0  0
  185.6040  177.5290  145.1420 C   0  0  0  0  0  0  0  0  0  0  0  0
  185.1820  178.6670  147.6460 C   0  0  0  0  0  3  0  0  0  0  0  0
  186.6330  177.4390  146.1300 C   0  0  0  0  0  0  0  0  0  0  0  0
  185.7130  177.0920  143.7560 C   0  0  0  0  0  3  0  0  0  0  0  0
  184.4020  178.1680  145.4700 C   0  0  0  0  0  3  0  0  0  0  0  0
  188.7410  175.8240  145.2810 C   0  0  0  0  0  0  0  0  0  0  0  0
  184.2140  178.7150  146.6980 N   0  0  0  0  0  0  0  0  0  0  0  0
  186.8720  176.8040  143.2890 C   0  0  0  0  0  0  0  0  0  0  0  0
  187.8790  176.7010  146.0500 N   0  0  0  0  0  2  0  0  0  0  0  0
  190.1360  173.7300  145.3780 C   0  0  0  0  0  1  0  0  0  0  0  0
  189.7350  175.0350  146.0750 C   0  0  1  0  0  3  0  0  0  0  0  0
  190.8700  175.8720  146.4980 N   0  0  0  0  0  0  0  0  0  0  0  0
  193.2430  175.6120  146.3360 C   0  0  2  0  0  3  0  0  0  0  0  0
  191.9750  175.0000  146.8830 C   0  0  0  0  0  2  0  0  0  0  0  0
  191.3500  176.7380  145.4130 C   0  0  0  0  0  2  0  0  0  0  0  0
  192.7990  176.4000  145.1310 C   0  0  0  0  0  2  0  0  0  0  0  0
  196.2010  172.6450  145.3690 C   0  0  0  0  0  3  0  0  0  0  0  0
  195.6130  174.9140  145.9820 C   0  0  0  0  0  3  0  0  0  0  0  0
  193.8770  173.2510  145.6770 C   0  0  0  0  0  3  0  0  0  0  0  0
  194.2560  174.5680  145.9850 C   0  0  0  0  0  0  0  0  0  0  0  0
  196.5830  173.9550  145.6740 C   0  0  0  0  0  3  0  0  0  0  0  0
  194.8490  172.2930  145.3700 C   0  0  0  0  0  3  0  0  0  0  0  0
  188.5230  176.4760  141.5760 C   0  0  0  0  0  2  0  0  0  0  0  0
  188.3740  175.1360  141.0310 N   0  0  0  0  0  2  0  0  0  0  0  0
  189.2760  172.9230  140.3800 N   0  0  0  0  0  0  0  0  0  0  0  0
  190.5930  174.5420  141.4340 O   0  0  0  0  0  0  0  0  0  0  0  0
  188.0380  172.5950  139.8070 N   0  0  0  0  0  1  0  0  0  0  0  0
  189.4660  174.2160  140.9700 C   0  0  0  0  0  0  0  0  0  0  0  0
  190.3880  171.9810  140.2960 C   0  0  1  0  0  3  0  0  0  0  0  0
  190.4350  171.1100  141.5420 C   0  0  0  0  0  1  0  0  0  0  0  0
  190.2600  171.1310  139.0380 C   0  0  0  0  0  2  0  0  0  0  0  0
  191.2090  171.6020  137.9470 C   0  0  0  0  0  0  0  0  0  0  0  0
  190.6010  172.3480  136.9680 O   0  0  0  0  0  0  0  0  0  0  0  0
  190.9710  171.0810  136.6990 O   0  0  0  0  0  0  0  0  0  0  0  0
  192.6510  171.9930  138.2130 C   0  0  0  0  0  1  0  0  0  0  0  0
  1 11  2  0  0  0  0
  1  2  1  0  0  0  0
  2  9  2  0  0  0  0
  3  5  1  0  0  0  0
  4  8  2  0  0  0  0
  4  6  1  0  0  0  0
  6  3  2  0  0  0  0
  7  4  1  0  0  0  0
  8 10  1  0  0  0  0
  9 12  1  0  0  0  0
  9 14  1  0  0  0  0
 10  5  2  0  0  0  0
 11  7  2  0  0  0  0
 12  6  1  0  0  0  0
 14 13  1  6  0  0  0
 14 15  1  0  0  0  0
 15 17  1  0  0  0  0
 16 23  1  6  0  0  0
 16 17  1  0  0  0  0
 18 15  1  0  0  0  0
 19 18  1  0  0  0  0
 19 16  1  0  0  0  0
 20 25  2  0  0  0  0
 20 24  1  0  0  0  0
 21 23  1  0  0  0  0
 22 23  2  0  0  0  0
 24 21  2  0  0  0  0
 25 22  1  0  0  0  0
 26  1  1  0  0  0  0
 27 26  1  0  0  0  0
 28 31  1  0  0  0  0
 30 28  1  0  0  0  0
 31 27  1  0  0  0  0
 31 29  2  0  0  0  0
 32 28  1  0  0  0  0
 32 33  1  1  0  0  0
 34 32  1  0  0  0  0
 35 38  1  0  0  0  0
 35 34  1  0  0  0  0
 36 35  1  0  0  0  0
 37 36  1  0  0  0  0
 37 35  1  0  0  0  0
M  END
>  <MODEL>
8

>  <REMARK>
 VINA RESULT:      -7.1      3.142      7.084
  Name = 
  8 active torsions:
  status: ('A' for Active; 'I' for Inactive)
    1  A    between atoms: N_1  and  C_9
    2  A    between atoms: C_3  and  C_19
    3  A    between atoms: N_4  and  C_19
    4  A    between atoms: N_5  and  C_10
    5  A    between atoms: C_7  and  C_33
    6  A    between atoms: C_9  and  C_29
    7  A    between atoms: C_10  and  C_33
    8  A    between atoms: C_12  and  C_28
                            x       y       z     vdW  Elec       q    Type
                         _______ _______ _______ _____ _____    ______ ____

>  <TORSDO>
F 8

$$$$
=
 OpenBabel11042417113D

 38 42  0  0  1  0  0  0  0  0999 V2000
  185.3970  177.5040  142.6120 C   0  0  0  0  0  0  0  0  0  0  0  0
  186.3960  176.5070  142.4440 N   0  0  0  0  0  0  0  0  0  0  0  0
  188.1820  177.6640  146.6860 C   0  0  0  0  0  3  0  0  0  0  0  0
  185.8820  177.9500  145.9860 C   0  0  0  0  0  0  0  0  0  0  0  0
  187.8690  178.2540  147.9100 C   0  0  0  0  0  3  0  0  0  0  0  0
  187.2040  177.4880  145.7000 C   0  0  0  0  0  0  0  0  0  0  0  0
  184.7660  177.9720  145.0490 C   0  0  0  0  0  3  0  0  0  0  0  0
  185.6190  178.5220  147.2360 C   0  0  0  0  0  3  0  0  0  0  0  0
  187.3140  176.1030  143.2830 C   0  0  0  0  0  0  0  0  0  0  0  0
  186.6010  178.6600  148.1620 N   0  0  0  0  0  0  0  0  0  0  0  0
  185.0020  177.7780  143.8030 C   0  0  0  0  0  0  0  0  0  0  0  0
  187.6520  176.7400  144.5410 N   0  0  0  0  0  2  0  0  0  0  0  0
  187.5630  173.9400  142.0160 C   0  0  0  0  0  1  0  0  0  0  0  0
  188.2640  175.0440  142.8180 C   0  0  1  0  0  3  0  0  0  0  0  0
  189.4370  175.6300  142.1490 N   0  0  0  0  0  0  0  0  0  0  0  0
  191.6480  176.1590  142.8950 C   0  0  2  0  0  3  0  0  0  0  0  0
  190.1790  176.4260  143.1220 C   0  0  0  0  0  2  0  0  0  0  0  0
  190.3490  174.6000  141.6360 C   0  0  0  0  0  2  0  0  0  0  0  0
  191.6980  174.7750  142.3010 C   0  0  0  0  0  2  0  0  0  0  0  0
  193.9510  176.4740  146.5130 C   0  0  0  0  0  3  0  0  0  0  0  0
  193.8280  176.3300  144.0970 C   0  0  0  0  0  3  0  0  0  0  0  0
  191.7990  176.2920  145.4200 C   0  0  0  0  0  3  0  0  0  0  0  0
  192.4320  176.2560  144.1660 C   0  0  0  0  0  0  0  0  0  0  0  0
  194.5870  176.4370  145.2680 C   0  0  0  0  0  3  0  0  0  0  0  0
  192.5580  176.4010  146.5880 C   0  0  0  0  0  3  0  0  0  0  0  0
  184.5670  177.9140  141.4450 C   0  0  0  0  0  2  0  0  0  0  0  0
  183.2620  178.3650  141.9030 N   0  0  0  0  0  2  0  0  0  0  0  0
  180.8500  178.8030  141.5520 N   0  0  0  0  0  0  0  0  0  0  0  0
  182.1840  177.8070  139.9110 O   0  0  0  0  0  0  0  0  0  0  0  0
  180.7850  179.4120  142.8150 N   0  0  0  0  0  1  0  0  0  0  0  0
  182.1030  178.3010  141.0690 C   0  0  0  0  0  0  0  0  0  0  0  0
  179.6630  178.7600  140.7040 C   0  0  1  0  0  3  0  0  0  0  0  0
  178.8130  177.5470  141.0500 C   0  0  0  0  0  1  0  0  0  0  0  0
  178.8640  180.0490  140.8560 C   0  0  0  0  0  2  0  0  0  0  0  0
  178.5890  180.6980  139.5080 C   0  0  0  0  0  0  0  0  0  0  0  0
  179.5510  181.5970  139.1200 O   0  0  0  0  0  0  0  0  0  0  0  0
  178.3570  182.0510  139.5460 O   0  0  0  0  0  0  0  0  0  0  0  0
  177.9290  179.9670  138.3550 C   0  0  0  0  0  1  0  0  0  0  0  0
  1 11  2  0  0  0  0
  2  1  1  0  0  0  0
  2  9  2  0  0  0  0
  3  5  1  0  0  0  0
  4  8  2  0  0  0  0
  5 10  2  0  0  0  0
  6  4  1  0  0  0  0
  6  3  2  0  0  0  0
  7  4  1  0  0  0  0
  8 10  1  0  0  0  0
  9 12  1  0  0  0  0
 11  7  2  0  0  0  0
 12  6  1  0  0  0  0
 14 13  1  6  0  0  0
 14  9  1  0  0  0  0
 15 14  1  0  0  0  0
 15 17  1  0  0  0  0
 16 17  1  0  0  0  0
 16 23  1  1  0  0  0
 18 15  1  0  0  0  0
 18 19  1  0  0  0  0
 19 16  1  0  0  0  0
 20 25  1  0  0  0  0
 21 23  2  0  0  0  0
 21 24  1  0  0  0  0
 22 25  2  0  0  0  0
 23 22  1  0  0  0  0
 24 20  2  0  0  0  0
 26 27  1  0  0  0  0
 26  1  1  0  0  0  0
 28 30  1  0  0  0  0
 29 31  2  0  0  0  0
 31 28  1  0  0  0  0
 31 27  1  0  0  0  0
 32 34  1  0  0  0  0
 32 33  1  1  0  0  0
 32 28  1  0  0  0  0
 35 37  1  0  0  0  0
 35 34  1  0  0  0  0
 36 35  1  0  0  0  0
 36 37  1  0  0  0  0
 38 35  1  0  0  0  0
M  END
>  <MODEL>
9

>  <REMARK>
 VINA RESULT:      -7.0      5.496     10.433
  Name = 
  8 active torsions:
  status: ('A' for Active; 'I' for Inactive)
    1  A    between atoms: N_1  and  C_9
    2  A    between atoms: C_3  and  C_19
    3  A    between atoms: N_4  and  C_19
    4  A    between atoms: N_5  and  C_10
    5  A    between atoms: C_7  and  C_33
    6  A    between atoms: C_9  and  C_29
    7  A    between atoms: C_10  and  C_33
    8  A    between atoms: C_12  and  C_28
                            x       y       z     vdW  Elec       q    Type
                         _______ _______ _______ _____ _____    ______ ____

>  <TORSDO>
F 8

$$$$
