=
 OpenBabel11042415053D

 33 34  0  0  1  0  0  0  0  0999 V2000
  188.2660  176.0270  142.5500 C   0  0  1  0  0  3  0  0  0  0  0  0
  188.8180  174.8140  141.8560 C   0  0  0  0  0  0  0  0  0  0  0  0
  188.4610  174.5560  140.6730 O   0  0  0  0  0  0  0  0  0  0  0  0
  190.9690  173.5440  141.8970 C   0  0  0  0  0  3  0  0  0  0  0  0
  191.8610  172.7360  142.5320 N   0  0  0  0  0  0  0  0  0  0  0  0
  191.6500  172.2790  143.7960 C   0  0  0  0  0  0  0  0  0  0  0  0
  189.7870  173.9360  142.5400 C   0  0  0  0  0  0  0  0  0  0  0  0
  190.4790  172.6450  144.4720 C   0  0  0  0  0  3  0  0  0  0  0  0
  189.5510  173.4730  143.8400 C   0  0  0  0  0  3  0  0  0  0  0  0
  192.6380  171.4330  144.4030 N   0  0  0  0  0  2  0  0  0  0  0  0
  194.6910  170.8280  145.7280 C   0  0  0  0  0  1  0  0  0  0  0  0
  193.7620  171.8520  145.1850 C   0  0  0  0  0  0  0  0  0  0  0  0
  193.9820  173.0710  145.4180 O   0  0  0  0  0  0  0  0  0  0  0  0
  189.0680  177.2910  142.2320 C   0  0  0  0  0  2  0  0  0  0  0  0
  189.5150  178.0300  143.4830 C   0  0  0  0  0  2  0  0  0  0  0  0
  191.0260  178.1640  143.4790 C   0  0  0  0  0  2  0  0  0  0  0  0
  191.6680  176.8510  143.8830 C   0  0  0  0  0  2  0  0  0  0  0  0
  192.5720  176.4420  142.9000 O   0  0  0  0  0  1  0  0  0  0  0  0
  186.7730  176.1910  142.2920 C   0  0  0  0  0  2  0  0  0  0  0  0
  186.5150  177.4780  141.6690 N   0  0  0  0  0  2  0  0  0  0  0  0
  185.4590  178.1100  142.4410 C   0  0  0  0  0  2  0  0  0  0  0  0
  186.0140  179.3000  143.2090 C   0  0  0  0  0  2  0  0  0  0  0  0
  185.0050  179.8300  144.2150 C   0  0  0  0  0  2  0  0  0  0  0  0
  184.0380  178.7360  144.6250 C   0  0  0  0  0  2  0  0  0  0  0  0
  184.1370  178.5130  146.1230 C   0  0  0  0  0  2  0  0  0  0  0  0
  187.5860  178.0950  147.7710 C   0  0  0  0  0  2  0  0  0  0  0  0
  186.2620  178.6630  147.3340 C   0  0  0  0  0  3  0  0  0  0  0  0
  185.9590  176.7180  145.8890 C   0  0  0  0  0  3  0  0  0  0  0  0
  188.2390  177.2990  146.6320 C   0  0  2  0  0  3  0  0  0  0  0  0
  185.4850  177.9890  146.4770 C   0  0  0  0  0  0  0  0  0  0  0  0
  187.2450  176.3670  145.9920 C   0  0  0  0  0  3  0  0  0  0  0  0
  189.4100  176.5230  147.1340 C   0  0  0  0  0  3  0  0  0  0  0  0
  190.4830  177.1260  147.4930 N   0  0  0  0  0  2  0  0  0  0  0  0
  1 14  1  6  0  0  0
  2  7  1  0  0  0  0
  2  1  1  0  0  0  0
  3  2  2  0  0  0  0
  4  5  1  0  0  0  0
  4  7  2  0  0  0  0
  5  6  2  0  0  0  0
  6 10  1  0  0  0  0
  6  8  1  0  0  0  0
  7  9  1  0  0  0  0
  9  8  2  0  0  0  0
 10 12  1  0  0  0  0
 12 13  2  0  0  0  0
 12 11  1  0  0  0  0
 14 15  1  0  0  0  0
 16 15  1  0  0  0  0
 16 17  1  0  0  0  0
 18 17  1  0  0  0  0
 19  1  1  0  0  0  0
 20 19  1  0  0  0  0
 20 21  1  0  0  0  0
 21 22  1  0  0  0  0
 22 23  1  0  0  0  0
 23 24  1  0  0  0  0
 24 25  1  0  0  0  0
 25 30  1  0  0  0  0
 27 26  1  0  0  0  0
 28 31  2  0  0  0  0
 28 30  1  0  0  0  0
 29 32  1  1  0  0  0
 29 26  1  0  0  0  0
 30 27  2  0  0  0  0
 31 29  1  0  0  0  0
 32 33  2  0  0  0  0
M  END
>  <MODEL>
1

>  <REMARK>
 VINA RESULT:      -5.8      0.000      0.000
  Name = 
  16 active torsions:
  status: ('A' for Active; 'I' for Inactive)
    1  A    between atoms: C_1  and  C_21
    2  A    between atoms: N_3  and  C_13
    3  A    between atoms: C_4  and  C_9
    4  A    between atoms: C_4  and  C_24
    5  A    between atoms: C_6  and  C_26
    6  A    between atoms: C_6  and  C_30
    7  A    between atoms: C_8  and  C_29
    8  A    between atoms: C_8  and  C_30
    9  A    between atoms: C_9  and  C_27
   10  A    between atoms: C_12  and  C_17
   11  A    between atoms: C_12  and  C_27
   12  A    between atoms: C_15  and  N_19
   13  A    between atoms: C_15  and  C_27
   14  A    between atoms: N_19  and  C_26
   15  A    between atoms: C_20  and  C_24
   16  A    between atoms: C_25  and  C_29
                            x       y       z     vdW  Elec       q    Type
                         _______ _______ _______ _____ _____    ______ ____

>  <TORSDO>
F 16

$$$$
=
 OpenBabel11042415053D

 33 34  0  0  1  0  0  0  0  0999 V2000
  191.3240  174.3780  142.9350 C   0  0  1  0  0  3  0  0  0  0  0  0
  190.8940  175.7760  143.2770 C   0  0  0  0  0  0  0  0  0  0  0  0
  191.7130  176.5630  143.8280 O   0  0  0  0  0  0  0  0  0  0  0  0
  189.3150  177.5420  142.4850 C   0  0  0  0  0  3  0  0  0  0  0  0
  188.0560  177.9660  142.1890 N   0  0  0  0  0  0  0  0  0  0  0  0
  186.9700  177.1610  142.3340 C   0  0  0  0  0  0  0  0  0  0  0  0
  189.5300  176.2410  142.9560 C   0  0  0  0  0  0  0  0  0  0  0  0
  187.1420  175.8530  142.8060 C   0  0  0  0  0  3  0  0  0  0  0  0
  188.4240  175.3980  143.1160 C   0  0  0  0  0  3  0  0  0  0  0  0
  185.6730  177.6750  141.9970 N   0  0  0  0  0  2  0  0  0  0  0  0
  183.7830  178.4480  140.5240 C   0  0  0  0  0  1  0  0  0  0  0  0
  185.1530  177.8960  140.6810 C   0  0  0  0  0  0  0  0  0  0  0  0
  185.8340  177.6340  139.6540 O   0  0  0  0  0  0  0  0  0  0  0  0
  191.6020  174.2070  141.4400 C   0  0  0  0  0  2  0  0  0  0  0  0
  190.7190  173.1470  140.7980 C   0  0  0  0  0  2  0  0  0  0  0  0
  189.6440  173.8190  139.9670 C   0  0  0  0  0  2  0  0  0  0  0  0
  188.4220  172.9250  139.8710 C   0  0  0  0  0  2  0  0  0  0  0  0
  187.9000  172.6960  141.1460 O   0  0  0  0  0  1  0  0  0  0  0  0
  192.4830  173.9160  143.8100 C   0  0  0  0  0  2  0  0  0  0  0  0
  193.7240  173.9660  143.0570 N   0  0  0  0  0  2  0  0  0  0  0  0
  194.7390  174.4810  143.9600 C   0  0  0  0  0  2  0  0  0  0  0  0
  194.2150  174.4840  145.3880 C   0  0  0  0  0  2  0  0  0  0  0  0
  194.5220  175.8000  146.0880 C   0  0  0  0  0  2  0  0  0  0  0  0
  193.2900  176.3200  146.8020 C   0  0  0  0  0  2  0  0  0  0  0  0
  192.3370  175.1690  147.0670 C   0  0  0  0  0  2  0  0  0  0  0  0
  188.4950  175.2620  146.9170 C   0  0  0  0  0  2  0  0  0  0  0  0
  189.9260  174.7990  146.8320 C   0  0  0  0  0  3  0  0  0  0  0  0
  190.6420  177.0820  147.3220 C   0  0  0  0  0  3  0  0  0  0  0  0
  188.3650  176.7170  146.4460 C   0  0  2  0  0  3  0  0  0  0  0  0
  190.9300  175.6560  147.0620 C   0  0  0  0  0  0  0  0  0  0  0  0
  189.4270  177.5800  147.0730 C   0  0  0  0  0  3  0  0  0  0  0  0
  187.0140  177.2590  146.7720 C   0  0  0  0  0  3  0  0  0  0  0  0
  186.8880  178.2550  147.5690 N   0  0  0  0  0  2  0  0  0  0  0  0
  1 14  1  6  0  0  0
  1  2  1  0  0  0  0
  1 19  1  0  0  0  0
  2  3  2  0  0  0  0
  4  7  2  0  0  0  0
  5  6  2  0  0  0  0
  5  4  1  0  0  0  0
  6  8  1  0  0  0  0
  7  9  1  0  0  0  0
  7  2  1  0  0  0  0
  8  9  2  0  0  0  0
 10  6  1  0  0  0  0
 11 12  1  0  0  0  0
 12 10  1  0  0  0  0
 13 12  2  0  0  0  0
 15 14  1  0  0  0  0
 16 15  1  0  0  0  0
 17 16  1  0  0  0  0
 17 18  1  0  0  0  0
 20 19  1  0  0  0  0
 20 21  1  0  0  0  0
 21 22  1  0  0  0  0
 22 23  1  0  0  0  0
 23 24  1  0  0  0  0
 24 25  1  0  0  0  0
 27 26  1  0  0  0  0
 27 30  2  0  0  0  0
 29 32  1  1  0  0  0
 29 26  1  0  0  0  0
 29 31  1  0  0  0  0
 30 25  1  0  0  0  0
 30 28  1  0  0  0  0
 31 28  2  0  0  0  0
 32 33  2  0  0  0  0
M  END
>  <MODEL>
2

>  <REMARK>
 VINA RESULT:      -5.7      2.258      6.996
  Name = 
  16 active torsions:
  status: ('A' for Active; 'I' for Inactive)
    1  A    between atoms: C_1  and  C_21
    2  A    between atoms: N_3  and  C_13
    3  A    between atoms: C_4  and  C_9
    4  A    between atoms: C_4  and  C_24
    5  A    between atoms: C_6  and  C_26
    6  A    between atoms: C_6  and  C_30
    7  A    between atoms: C_8  and  C_29
    8  A    between atoms: C_8  and  C_30
    9  A    between atoms: C_9  and  C_27
   10  A    between atoms: C_12  and  C_17
   11  A    between atoms: C_12  and  C_27
   12  A    between atoms: C_15  and  N_19
   13  A    between atoms: C_15  and  C_27
   14  A    between atoms: N_19  and  C_26
   15  A    between atoms: C_20  and  C_24
   16  A    between atoms: C_25  and  C_29
                            x       y       z     vdW  Elec       q    Type
                         _______ _______ _______ _____ _____    ______ ____

>  <TORSDO>
F 16

$$$$
=
 OpenBabel11042415053D

 33 34  0  0  1  0  0  0  0  0999 V2000
  190.7440  175.7950  146.3400 C   0  0  1  0  0  3  0  0  0  0  0  0
  189.8040  174.6380  146.1540 C   0  0  0  0  0  0  0  0  0  0  0  0
  189.0260  174.3100  147.0920 O   0  0  0  0  0  0  0  0  0  0  0  0
  190.3250  172.6150  144.7840 C   0  0  0  0  0  3  0  0  0  0  0  0
  190.2900  171.9360  143.6050 N   0  0  0  0  0  0  0  0  0  0  0  0
  189.7240  172.4620  142.4850 C   0  0  0  0  0  0  0  0  0  0  0  0
  189.7690  173.8980  144.8770 C   0  0  0  0  0  0  0  0  0  0  0  0
  189.1610  173.7430  142.5360 C   0  0  0  0  0  3  0  0  0  0  0  0
  189.1860  174.4580  143.7340 C   0  0  0  0  0  3  0  0  0  0  0  0
  189.7210  171.6840  141.2790 N   0  0  0  0  0  2  0  0  0  0  0  0
  190.6320  170.6370  139.1780 C   0  0  0  0  0  1  0  0  0  0  0  0
  190.8260  171.4690  140.3930 C   0  0  0  0  0  0  0  0  0  0  0  0
  191.9580  171.9720  140.6230 O   0  0  0  0  0  0  0  0  0  0  0  0
  192.0710  175.5870  145.6060 C   0  0  0  0  0  2  0  0  0  0  0  0
  193.2250  175.2980  146.5530 C   0  0  0  0  0  2  0  0  0  0  0  0
  194.4630  174.9470  145.7510 C   0  0  0  0  0  2  0  0  0  0  0  0
  194.5030  175.7570  144.4690 C   0  0  0  0  0  2  0  0  0  0  0  0
  195.3760  176.8370  144.6160 O   0  0  0  0  0  1  0  0  0  0  0  0
  190.0790  177.1220  145.9960 C   0  0  0  0  0  2  0  0  0  0  0  0
  190.6700  177.6770  144.7910 N   0  0  0  0  0  2  0  0  0  0  0  0
  189.5740  178.1790  143.9810 C   0  0  0  0  0  2  0  0  0  0  0  0
  189.7000  177.6660  142.5550 C   0  0  0  0  0  2  0  0  0  0  0  0
  188.6250  178.2580  141.6560 C   0  0  0  0  0  2  0  0  0  0  0  0
  187.6250  177.1930  141.2510 C   0  0  0  0  0  2  0  0  0  0  0  0
  186.2210  177.6740  141.5700 C   0  0  0  0  0  2  0  0  0  0  0  0
  185.5420  179.1860  145.0410 C   0  0  0  0  0  2  0  0  0  0  0  0
  185.8070  179.0350  143.5660 C   0  0  0  0  0  3  0  0  0  0  0  0
  186.1470  176.6430  143.9210 C   0  0  0  0  0  3  0  0  0  0  0  0
  186.3620  178.1690  145.8480 C   0  0  2  0  0  3  0  0  0  0  0  0
  186.0530  177.8270  143.0420 C   0  0  0  0  0  0  0  0  0  0  0  0
  186.2530  176.7940  145.2450 C   0  0  0  0  0  3  0  0  0  0  0  0
  185.9120  178.1370  147.2700 C   0  0  0  0  0  3  0  0  0  0  0  0
  184.7440  178.5570  147.5910 N   0  0  0  0  0  2  0  0  0  0  0  0
  1 14  1  6  0  0  0
  2  1  1  0  0  0  0
  2  3  2  0  0  0  0
  4  7  2  0  0  0  0
  5  4  1  0  0  0  0
  6  8  1  0  0  0  0
  6  5  2  0  0  0  0
  7  2  1  0  0  0  0
  8  9  2  0  0  0  0
  9  7  1  0  0  0  0
 10  6  1  0  0  0  0
 11 12  1  0  0  0  0
 12 13  2  0  0  0  0
 12 10  1  0  0  0  0
 14 15  1  0  0  0  0
 16 15  1  0  0  0  0
 17 18  1  0  0  0  0
 17 16  1  0  0  0  0
 19  1  1  0  0  0  0
 20 19  1  0  0  0  0
 21 20  1  0  0  0  0
 22 21  1  0  0  0  0
 23 22  1  0  0  0  0
 24 25  1  0  0  0  0
 24 23  1  0  0  0  0
 25 30  1  0  0  0  0
 26 29  1  0  0  0  0
 27 26  1  0  0  0  0
 28 31  2  0  0  0  0
 29 32  1  1  0  0  0
 30 27  2  0  0  0  0
 30 28  1  0  0  0  0
 31 29  1  0  0  0  0
 32 33  2  0  0  0  0
M  END
>  <MODEL>
3

>  <REMARK>
 VINA RESULT:      -5.5      2.471      4.323
  Name = 
  16 active torsions:
  status: ('A' for Active; 'I' for Inactive)
    1  A    between atoms: C_1  and  C_21
    2  A    between atoms: N_3  and  C_13
    3  A    between atoms: C_4  and  C_9
    4  A    between atoms: C_4  and  C_24
    5  A    between atoms: C_6  and  C_26
    6  A    between atoms: C_6  and  C_30
    7  A    between atoms: C_8  and  C_29
    8  A    between atoms: C_8  and  C_30
    9  A    between atoms: C_9  and  C_27
   10  A    between atoms: C_12  and  C_17
   11  A    between atoms: C_12  and  C_27
   12  A    between atoms: C_15  and  N_19
   13  A    between atoms: C_15  and  C_27
   14  A    between atoms: N_19  and  C_26
   15  A    between atoms: C_20  and  C_24
   16  A    between atoms: C_25  and  C_29
                            x       y       z     vdW  Elec       q    Type
                         _______ _______ _______ _____ _____    ______ ____

>  <TORSDO>
F 16

$$$$
=
 OpenBabel11042415053D

 33 34  0  0  1  0  0  0  0  0999 V2000
  194.1710  174.7090  145.4390 C   0  0  1  0  0  3  0  0  0  0  0  0
  193.4740  175.7670  146.2470 C   0  0  0  0  0  0  0  0  0  0  0  0
  194.1560  176.5970  146.9100 O   0  0  0  0  0  0  0  0  0  0  0  0
  191.2590  175.2980  147.3020 C   0  0  0  0  0  3  0  0  0  0  0  0
  189.9010  175.3830  147.3040 N   0  0  0  0  0  0  0  0  0  0  0  0
  189.2140  176.0020  146.3070 C   0  0  0  0  0  0  0  0  0  0  0  0
  192.0000  175.8560  146.2530 C   0  0  0  0  0  0  0  0  0  0  0  0
  189.9180  176.5700  145.2380 C   0  0  0  0  0  3  0  0  0  0  0  0
  191.3110  176.4940  145.2150 C   0  0  0  0  0  3  0  0  0  0  0  0
  187.7820  176.0570  146.3800 N   0  0  0  0  0  2  0  0  0  0  0  0
  185.5090  176.9990  146.9170 C   0  0  0  0  0  1  0  0  0  0  0  0
  186.9900  177.1220  146.9180 C   0  0  0  0  0  0  0  0  0  0  0  0
  187.5230  178.1600  147.3940 O   0  0  0  0  0  0  0  0  0  0  0  0
  195.6270  174.5190  145.8680 C   0  0  0  0  0  2  0  0  0  0  0  0
  196.6140  174.9150  144.7810 C   0  0  0  0  0  2  0  0  0  0  0  0
  195.8550  175.3690  143.5490 C   0  0  0  0  0  2  0  0  0  0  0  0
  196.3650  176.7230  143.0900 C   0  0  0  0  0  2  0  0  0  0  0  0
  196.4110  176.7650  141.6950 O   0  0  0  0  0  1  0  0  0  0  0  0
  193.3830  173.4050  145.4220 C   0  0  0  0  0  2  0  0  0  0  0  0
  192.7860  173.2010  144.1140 N   0  0  0  0  0  2  0  0  0  0  0  0
  191.3740  172.9450  144.3350 C   0  0  0  0  0  2  0  0  0  0  0  0
  190.6460  172.8410  143.0030 C   0  0  0  0  0  2  0  0  0  0  0  0
  191.1160  173.9110  142.0300 C   0  0  0  0  0  2  0  0  0  0  0  0
  189.9290  174.6320  141.4210 C   0  0  0  0  0  2  0  0  0  0  0  0
  188.7090  174.4250  142.3000 C   0  0  0  0  0  2  0  0  0  0  0  0
  187.7310  178.1400  142.1170 C   0  0  0  0  0  2  0  0  0  0  0  0
  188.5200  176.8580  142.0740 C   0  0  0  0  0  3  0  0  0  0  0  0
  186.5680  175.6840  142.9540 C   0  0  0  0  0  3  0  0  0  0  0  0
  186.7300  178.1240  143.2810 C   0  0  2  0  0  3  0  0  0  0  0  0
  187.9520  175.7000  142.4350 C   0  0  0  0  0  0  0  0  0  0  0  0
  185.9720  176.8240  143.3170 C   0  0  0  0  0  3  0  0  0  0  0  0
  185.7750  179.2650  143.1710 C   0  0  0  0  0  3  0  0  0  0  0  0
  185.4150  179.9140  144.2170 N   0  0  0  0  0  2  0  0  0  0  0  0
  1 19  1  1  0  0  0
  1 14  1  0  0  0  0
  1  2  1  0  0  0  0
  2  7  1  0  0  0  0
  2  3  2  0  0  0  0
  4  5  1  0  0  0  0
  6 10  1  0  0  0  0
  6  5  2  0  0  0  0
  7  4  2  0  0  0  0
  8  6  1  0  0  0  0
  9  8  2  0  0  0  0
  9  7  1  0  0  0  0
 10 12  1  0  0  0  0
 11 12  1  0  0  0  0
 12 13  2  0  0  0  0
 15 14  1  0  0  0  0
 16 15  1  0  0  0  0
 17 16  1  0  0  0  0
 18 17  1  0  0  0  0
 20 21  1  0  0  0  0
 20 19  1  0  0  0  0
 22 21  1  0  0  0  0
 23 22  1  0  0  0  0
 24 23  1  0  0  0  0
 24 25  1  0  0  0  0
 25 30  1  0  0  0  0
 26 29  1  0  0  0  0
 27 26  1  0  0  0  0
 27 30  2  0  0  0  0
 28 31  2  0  0  0  0
 29 32  1  6  0  0  0
 29 31  1  0  0  0  0
 30 28  1  0  0  0  0
 32 33  2  0  0  0  0
M  END
>  <MODEL>
4

>  <REMARK>
 VINA RESULT:      -5.5      2.671      6.692
  Name = 
  16 active torsions:
  status: ('A' for Active; 'I' for Inactive)
    1  A    between atoms: C_1  and  C_21
    2  A    between atoms: N_3  and  C_13
    3  A    between atoms: C_4  and  C_9
    4  A    between atoms: C_4  and  C_24
    5  A    between atoms: C_6  and  C_26
    6  A    between atoms: C_6  and  C_30
    7  A    between atoms: C_8  and  C_29
    8  A    between atoms: C_8  and  C_30
    9  A    between atoms: C_9  and  C_27
   10  A    between atoms: C_12  and  C_17
   11  A    between atoms: C_12  and  C_27
   12  A    between atoms: C_15  and  N_19
   13  A    between atoms: C_15  and  C_27
   14  A    between atoms: N_19  and  C_26
   15  A    between atoms: C_20  and  C_24
   16  A    between atoms: C_25  and  C_29
                            x       y       z     vdW  Elec       q    Type
                         _______ _______ _______ _____ _____    ______ ____

>  <TORSDO>
F 16

$$$$
=
 OpenBabel11042415053D

 33 34  0  0  1  0  0  0  0  0999 V2000
  192.1450  173.9460  143.7090 C   0  0  1  0  0  3  0  0  0  0  0  0
  191.7640  174.6370  142.4310 C   0  0  0  0  0  0  0  0  0  0  0  0
  192.5610  174.6210  141.4520 O   0  0  0  0  0  0  0  0  0  0  0  0
  189.4430  174.7610  141.5160 C   0  0  0  0  0  3  0  0  0  0  0  0
  188.2410  175.3890  141.4050 N   0  0  0  0  0  0  0  0  0  0  0  0
  187.9750  176.5610  142.0420 C   0  0  0  0  0  0  0  0  0  0  0  0
  190.4590  175.3150  142.3050 C   0  0  0  0  0  0  0  0  0  0  0  0
  188.9670  177.1490  142.8380 C   0  0  0  0  0  3  0  0  0  0  0  0
  190.2070  176.5230  142.9660 C   0  0  0  0  0  3  0  0  0  0  0  0
  186.6830  177.1620  141.8810 N   0  0  0  0  0  2  0  0  0  0  0  0
  184.7430  178.2330  140.6840 C   0  0  0  0  0  1  0  0  0  0  0  0
  186.0970  177.6230  140.6570 C   0  0  0  0  0  0  0  0  0  0  0  0
  186.7090  177.5260  139.5600 O   0  0  0  0  0  0  0  0  0  0  0  0
  191.0240  173.0490  144.2390 C   0  0  0  0  0  2  0  0  0  0  0  0
  191.1760  171.6010  143.8000 C   0  0  0  0  0  2  0  0  0  0  0  0
  190.2090  171.3110  142.6690 C   0  0  0  0  0  2  0  0  0  0  0  0
  190.7150  170.1510  141.8320 C   0  0  0  0  0  2  0  0  0  0  0  0
  192.1000  170.2430  141.6810 O   0  0  0  0  0  1  0  0  0  0  0  0
  193.4760  173.2160  143.5780 C   0  0  0  0  0  2  0  0  0  0  0  0
  194.2410  173.3520  144.8060 N   0  0  0  0  0  2  0  0  0  0  0  0
  194.9570  174.6130  144.7130 C   0  0  0  0  0  2  0  0  0  0  0  0
  195.0410  175.2690  146.0830 C   0  0  0  0  0  2  0  0  0  0  0  0
  194.4350  176.6640  146.0670 C   0  0  0  0  0  2  0  0  0  0  0  0
  192.9360  176.5890  145.8490 C   0  0  0  0  0  2  0  0  0  0  0  0
  192.3070  175.7610  146.9550 C   0  0  0  0  0  2  0  0  0  0  0  0
  188.5320  175.1070  147.2810 C   0  0  0  0  0  2  0  0  0  0  0  0
  190.0210  174.9080  147.1770 C   0  0  0  0  0  3  0  0  0  0  0  0
  190.2620  177.3000  146.7470 C   0  0  0  0  0  3  0  0  0  0  0  0
  188.0680  176.2400  146.3550 C   0  0  2  0  0  3  0  0  0  0  0  0
  190.8310  175.9530  146.9630 C   0  0  0  0  0  0  0  0  0  0  0  0
  188.9560  177.4470  146.5000 C   0  0  0  0  0  3  0  0  0  0  0  0
  186.6530  176.6140  146.6450 C   0  0  0  0  0  3  0  0  0  0  0  0
  186.3830  177.4900  147.5410 N   0  0  0  0  0  2  0  0  0  0  0  0
  1 19  1  6  0  0  0
  1 14  1  0  0  0  0
  2  1  1  0  0  0  0
  3  2  2  0  0  0  0
  4  7  2  0  0  0  0
  5  4  1  0  0  0  0
  5  6  2  0  0  0  0
  6  8  1  0  0  0  0
  7  2  1  0  0  0  0
  7  9  1  0  0  0  0
  8  9  2  0  0  0  0
 10  6  1  0  0  0  0
 12 11  1  0  0  0  0
 12 10  1  0  0  0  0
 13 12  2  0  0  0  0
 15 14  1  0  0  0  0
 16 15  1  0  0  0  0
 17 16  1  0  0  0  0
 18 17  1  0  0  0  0
 19 20  1  0  0  0  0
 21 20  1  0  0  0  0
 21 22  1  0  0  0  0
 23 22  1  0  0  0  0
 24 23  1  0  0  0  0
 24 25  1  0  0  0  0
 25 30  1  0  0  0  0
 27 26  1  0  0  0  0
 28 30  1  0  0  0  0
 29 31  1  0  0  0  0
 29 32  1  1  0  0  0
 29 26  1  0  0  0  0
 30 27  2  0  0  0  0
 31 28  2  0  0  0  0
 32 33  2  0  0  0  0
M  END
>  <MODEL>
5

>  <REMARK>
 VINA RESULT:      -5.4      2.324      6.891
  Name = 
  16 active torsions:
  status: ('A' for Active; 'I' for Inactive)
    1  A    between atoms: C_1  and  C_21
    2  A    between atoms: N_3  and  C_13
    3  A    between atoms: C_4  and  C_9
    4  A    between atoms: C_4  and  C_24
    5  A    between atoms: C_6  and  C_26
    6  A    between atoms: C_6  and  C_30
    7  A    between atoms: C_8  and  C_29
    8  A    between atoms: C_8  and  C_30
    9  A    between atoms: C_9  and  C_27
   10  A    between atoms: C_12  and  C_17
   11  A    between atoms: C_12  and  C_27
   12  A    between atoms: C_15  and  N_19
   13  A    between atoms: C_15  and  C_27
   14  A    between atoms: N_19  and  C_26
   15  A    between atoms: C_20  and  C_24
   16  A    between atoms: C_25  and  C_29
                            x       y       z     vdW  Elec       q    Type
                         _______ _______ _______ _____ _____    ______ ____

>  <TORSDO>
F 16

$$$$
=
 OpenBabel11042415053D

 33 34  0  0  1  0  0  0  0  0999 V2000
  192.5210  173.8020  144.4980 C   0  0  1  0  0  3  0  0  0  0  0  0
  191.0680  173.5280  144.7640 C   0  0  0  0  0  0  0  0  0  0  0  0
  190.5930  172.3860  144.5140 O   0  0  0  0  0  0  0  0  0  0  0  0
  190.0900  175.8260  144.7110 C   0  0  0  0  0  3  0  0  0  0  0  0
  189.2880  176.7900  145.2390 N   0  0  0  0  0  0  0  0  0  0  0  0
  188.5700  176.5880  146.3770 C   0  0  0  0  0  0  0  0  0  0  0  0
  190.2000  174.5770  145.3350 C   0  0  0  0  0  0  0  0  0  0  0  0
  188.6550  175.3530  147.0330 C   0  0  0  0  0  3  0  0  0  0  0  0
  189.4720  174.3510  146.5090 C   0  0  0  0  0  3  0  0  0  0  0  0
  187.7410  177.6490  146.8730 N   0  0  0  0  0  2  0  0  0  0  0  0
  185.6240  178.8290  147.5550 C   0  0  0  0  0  1  0  0  0  0  0  0
  186.3180  177.6240  147.0320 C   0  0  0  0  0  0  0  0  0  0  0  0
  185.6430  176.6030  146.7350 O   0  0  0  0  0  0  0  0  0  0  0  0
  193.4190  173.3320  145.6450 C   0  0  0  0  0  2  0  0  0  0  0  0
  194.8600  173.7910  145.4860 C   0  0  0  0  0  2  0  0  0  0  0  0
  194.9310  175.2980  145.6400 C   0  0  0  0  0  2  0  0  0  0  0  0
  195.6600  175.9110  144.4590 C   0  0  0  0  0  2  0  0  0  0  0  0
  196.2090  174.9030  143.6640 O   0  0  0  0  0  1  0  0  0  0  0  0
  192.9570  173.2580  143.1430 C   0  0  0  0  0  2  0  0  0  0  0  0
  193.2330  174.3550  142.2320 N   0  0  0  0  0  2  0  0  0  0  0  0
  192.1310  174.3980  141.2860 C   0  0  0  0  0  2  0  0  0  0  0  0
  191.6260  172.9910  141.0060 C   0  0  0  0  0  2  0  0  0  0  0  0
  190.1110  172.9130  141.1230 C   0  0  0  0  0  2  0  0  0  0  0  0
  189.5210  174.2970  141.3110 C   0  0  0  0  0  2  0  0  0  0  0  0
  188.1380  174.1750  141.9250 C   0  0  0  0  0  2  0  0  0  0  0  0
  187.3450  177.9180  141.5380 C   0  0  0  0  0  2  0  0  0  0  0  0
  188.0010  176.5680  141.4160 C   0  0  0  0  0  3  0  0  0  0  0  0
  186.4410  175.7120  143.0880 C   0  0  0  0  0  3  0  0  0  0  0  0
  186.8290  178.1450  142.9660 C   0  0  2  0  0  3  0  0  0  0  0  0
  187.5440  175.5260  142.1220 C   0  0  0  0  0  0  0  0  0  0  0  0
  186.0720  176.9420  143.4600 C   0  0  0  0  0  3  0  0  0  0  0  0
  185.9560  179.3540  143.0260 C   0  0  0  0  0  3  0  0  0  0  0  0
  185.3890  179.6920  144.1250 N   0  0  0  0  0  2  0  0  0  0  0  0
  1 19  1  6  0  0  0
  1  2  1  0  0  0  0
  1 14  1  0  0  0  0
  2  7  1  0  0  0  0
  3  2  2  0  0  0  0
  4  5  1  0  0  0  0
  4  7  2  0  0  0  0
  5  6  2  0  0  0  0
  6 10  1  0  0  0  0
  6  8  1  0  0  0  0
  7  9  1  0  0  0  0
  9  8  2  0  0  0  0
 10 12  1  0  0  0  0
 12 11  1  0  0  0  0
 13 12  2  0  0  0  0
 15 16  1  0  0  0  0
 15 14  1  0  0  0  0
 17 16  1  0  0  0  0
 18 17  1  0  0  0  0
 20 19  1  0  0  0  0
 21 20  1  0  0  0  0
 22 23  1  0  0  0  0
 22 21  1  0  0  0  0
 23 24  1  0  0  0  0
 24 25  1  0  0  0  0
 25 30  1  0  0  0  0
 26 29  1  0  0  0  0
 27 26  1  0  0  0  0
 27 30  2  0  0  0  0
 28 31  2  0  0  0  0
 29 32  1  6  0  0  0
 29 31  1  0  0  0  0
 30 28  1  0  0  0  0
 32 33  2  0  0  0  0
M  END
>  <MODEL>
6

>  <REMARK>
 VINA RESULT:      -5.4      2.385      6.492
  Name = 
  16 active torsions:
  status: ('A' for Active; 'I' for Inactive)
    1  A    between atoms: C_1  and  C_21
    2  A    between atoms: N_3  and  C_13
    3  A    between atoms: C_4  and  C_9
    4  A    between atoms: C_4  and  C_24
    5  A    between atoms: C_6  and  C_26
    6  A    between atoms: C_6  and  C_30
    7  A    between atoms: C_8  and  C_29
    8  A    between atoms: C_8  and  C_30
    9  A    between atoms: C_9  and  C_27
   10  A    between atoms: C_12  and  C_17
   11  A    between atoms: C_12  and  C_27
   12  A    between atoms: C_15  and  N_19
   13  A    between atoms: C_15  and  C_27
   14  A    between atoms: N_19  and  C_26
   15  A    between atoms: C_20  and  C_24
   16  A    between atoms: C_25  and  C_29
                            x       y       z     vdW  Elec       q    Type
                         _______ _______ _______ _____ _____    ______ ____

>  <TORSDO>
F 16

$$$$
=
 OpenBabel11042415053D

 33 34  0  0  1  0  0  0  0  0999 V2000
  184.9270  178.5380  142.3060 C   0  0  1  0  0  3  0  0  0  0  0  0
  186.4150  178.3350  142.2720 C   0  0  0  0  0  0  0  0  0  0  0  0
  187.1830  179.3130  142.4890 O   0  0  0  0  0  0  0  0  0  0  0  0
  187.4930  176.6820  140.7410 C   0  0  0  0  0  3  0  0  0  0  0  0
  188.0180  175.4490  140.5010 N   0  0  0  0  0  0  0  0  0  0  0  0
  188.0700  174.4870  141.4610 C   0  0  0  0  0  0  0  0  0  0  0  0
  186.9840  176.9990  142.0060 C   0  0  0  0  0  0  0  0  0  0  0  0
  187.5680  174.7640  142.7390 C   0  0  0  0  0  3  0  0  0  0  0  0
  187.0250  176.0200  143.0070 C   0  0  0  0  0  3  0  0  0  0  0  0
  188.6420  173.2120  141.1350 N   0  0  0  0  0  2  0  0  0  0  0  0
  190.4440  171.5200  140.6530 C   0  0  0  0  0  1  0  0  0  0  0  0
  190.0350  172.9030  141.0070 C   0  0  0  0  0  0  0  0  0  0  0  0
  190.9210  173.7820  141.1860 O   0  0  0  0  0  0  0  0  0  0  0  0
  184.2140  177.7900  141.1760 C   0  0  0  0  0  2  0  0  0  0  0  0
  183.0900  178.6040  140.5540 C   0  0  0  0  0  2  0  0  0  0  0  0
  181.7870  178.2920  141.2640 C   0  0  0  0  0  2  0  0  0  0  0  0
  180.6310  178.9800  140.5620 C   0  0  0  0  0  2  0  0  0  0  0  0
  179.8570  178.0370  139.8840 O   0  0  0  0  0  1  0  0  0  0  0  0
  184.3490  178.2240  143.6800 C   0  0  0  0  0  2  0  0  0  0  0  0
  184.7600  179.2380  144.6360 N   0  0  0  0  0  2  0  0  0  0  0  0
  184.0030  178.9950  145.8520 C   0  0  0  0  0  2  0  0  0  0  0  0
  184.9280  178.5030  146.9550 C   0  0  0  0  0  2  0  0  0  0  0  0
  185.2940  177.0400  146.7590 C   0  0  0  0  0  2  0  0  0  0  0  0
  186.7350  176.7950  147.1620 C   0  0  0  0  0  2  0  0  0  0  0  0
  187.6540  177.5940  146.2570 C   0  0  0  0  0  2  0  0  0  0  0  0
  191.0760  176.5370  144.8570 C   0  0  0  0  0  2  0  0  0  0  0  0
  189.8290  177.3250  145.1600 C   0  0  0  0  0  3  0  0  0  0  0  0
  188.9350  175.3690  146.3190 C   0  0  0  0  0  3  0  0  0  0  0  0
  190.7500  175.0480  144.6780 C   0  0  2  0  0  3  0  0  0  0  0  0
  188.8420  176.7780  145.8820 C   0  0  0  0  0  0  0  0  0  0  0  0
  189.8560  174.5590  145.7860 C   0  0  0  0  0  3  0  0  0  0  0  0
  192.0000  174.2340  144.6390 C   0  0  0  0  0  3  0  0  0  0  0  0
  192.7270  174.1090  145.6870 N   0  0  0  0  0  2  0  0  0  0  0  0
  1 14  1  6  0  0  0
  1 19  1  0  0  0  0
  2  1  1  0  0  0  0
  2  3  2  0  0  0  0
  4  7  2  0  0  0  0
  5  4  1  0  0  0  0
  5  6  2  0  0  0  0
  6  8  1  0  0  0  0
  7  2  1  0  0  0  0
  7  9  1  0  0  0  0
  8  9  2  0  0  0  0
 10  6  1  0  0  0  0
 11 12  1  0  0  0  0
 12 10  1  0  0  0  0
 12 13  2  0  0  0  0
 15 14  1  0  0  0  0
 15 16  1  0  0  0  0
 17 16  1  0  0  0  0
 18 17  1  0  0  0  0
 19 20  1  0  0  0  0
 20 21  1  0  0  0  0
 21 22  1  0  0  0  0
 23 22  1  0  0  0  0
 23 24  1  0  0  0  0
 25 24  1  0  0  0  0
 26 27  1  0  0  0  0
 27 30  2  0  0  0  0
 29 32  1  1  0  0  0
 29 26  1  0  0  0  0
 29 31  1  0  0  0  0
 30 25  1  0  0  0  0
 30 28  1  0  0  0  0
 31 28  2  0  0  0  0
 32 33  2  0  0  0  0
M  END
>  <MODEL>
7

>  <REMARK>
 VINA RESULT:      -5.3      2.838      5.568
  Name = 
  16 active torsions:
  status: ('A' for Active; 'I' for Inactive)
    1  A    between atoms: C_1  and  C_21
    2  A    between atoms: N_3  and  C_13
    3  A    between atoms: C_4  and  C_9
    4  A    between atoms: C_4  and  C_24
    5  A    between atoms: C_6  and  C_26
    6  A    between atoms: C_6  and  C_30
    7  A    between atoms: C_8  and  C_29
    8  A    between atoms: C_8  and  C_30
    9  A    between atoms: C_9  and  C_27
   10  A    between atoms: C_12  and  C_17
   11  A    between atoms: C_12  and  C_27
   12  A    between atoms: C_15  and  N_19
   13  A    between atoms: C_15  and  C_27
   14  A    between atoms: N_19  and  C_26
   15  A    between atoms: C_20  and  C_24
   16  A    between atoms: C_25  and  C_29
                            x       y       z     vdW  Elec       q    Type
                         _______ _______ _______ _____ _____    ______ ____

>  <TORSDO>
F 16

$$$$
=
 OpenBabel11042415053D

 33 34  0  0  1  0  0  0  0  0999 V2000
  186.9200  177.1170  145.3110 C   0  0  1  0  0  3  0  0  0  0  0  0
  187.1010  176.5550  143.9300 C   0  0  0  0  0  0  0  0  0  0  0  0
  186.1050  176.4560  143.1610 O   0  0  0  0  0  0  0  0  0  0  0  0
  188.7280  174.7820  143.2610 C   0  0  0  0  0  3  0  0  0  0  0  0
  189.9610  174.4010  142.8260 N   0  0  0  0  0  0  0  0  0  0  0  0
  190.9470  175.3030  142.5710 C   0  0  0  0  0  0  0  0  0  0  0  0
  188.4370  176.1370  143.4600 C   0  0  0  0  0  0  0  0  0  0  0  0
  190.6960  176.6680  142.7610 C   0  0  0  0  0  3  0  0  0  0  0  0
  189.4400  177.0800  143.2060 C   0  0  0  0  0  3  0  0  0  0  0  0
  192.2200  174.8270  142.1110 N   0  0  0  0  0  2  0  0  0  0  0  0
  194.7210  174.7730  141.8180 C   0  0  0  0  0  1  0  0  0  0  0  0
  193.5030  175.4000  142.3920 C   0  0  0  0  0  0  0  0  0  0  0  0
  193.6180  176.4270  143.1130 O   0  0  0  0  0  0  0  0  0  0  0  0
  185.6060  176.6650  145.9530 C   0  0  0  0  0  2  0  0  0  0  0  0
  184.6880  177.8290  146.2910 C   0  0  0  0  0  2  0  0  0  0  0  0
  185.3030  179.1210  145.7880 C   0  0  0  0  0  2  0  0  0  0  0  0
  184.6060  179.5720  144.5180 C   0  0  0  0  0  2  0  0  0  0  0  0
  185.5480  179.7870  143.5100 O   0  0  0  0  0  1  0  0  0  0  0  0
  188.1340  176.8470  146.1910 C   0  0  0  0  0  2  0  0  0  0  0  0
  187.8370  175.7850  147.1360 N   0  0  0  0  0  2  0  0  0  0  0  0
  189.0460  174.9900  147.2640 C   0  0  0  0  0  2  0  0  0  0  0  0
  190.2090  175.6950  146.5820 C   0  0  0  0  0  2  0  0  0  0  0  0
  191.3360  175.9810  147.5630 C   0  0  0  0  0  2  0  0  0  0  0  0
  192.6760  175.6240  146.9500 C   0  0  0  0  0  2  0  0  0  0  0  0
  192.4810  174.5330  145.9130 C   0  0  0  0  0  2  0  0  0  0  0  0
  195.1230  172.0060  144.7200 C   0  0  0  0  0  2  0  0  0  0  0  0
  193.8180  172.6320  145.1370 C   0  0  0  0  0  3  0  0  0  0  0  0
  195.0420  174.6500  145.7650 C   0  0  0  0  0  3  0  0  0  0  0  0
  196.2770  172.5200  145.5940 C   0  0  2  0  0  3  0  0  0  0  0  0
  193.7860  173.8910  145.5920 C   0  0  0  0  0  0  0  0  0  0  0  0
  196.2200  174.0180  145.7270 C   0  0  0  0  0  3  0  0  0  0  0  0
  197.5930  172.1110  145.0240 C   0  0  0  0  0  3  0  0  0  0  0  0
  197.7760  170.9140  144.6040 N   0  0  0  0  0  2  0  0  0  0  0  0
  1 14  1  1  0  0  0
  1 19  1  0  0  0  0
  2  1  1  0  0  0  0
  3  2  2  0  0  0  0
  4  7  2  0  0  0  0
  5  4  1  0  0  0  0
  6  8  1  0  0  0  0
  6  5  2  0  0  0  0
  7  2  1  0  0  0  0
  8  9  2  0  0  0  0
  9  7  1  0  0  0  0
 10 12  1  0  0  0  0
 10  6  1  0  0  0  0
 11 12  1  0  0  0  0
 12 13  2  0  0  0  0
 14 15  1  0  0  0  0
 16 15  1  0  0  0  0
 17 16  1  0  0  0  0
 18 17  1  0  0  0  0
 19 20  1  0  0  0  0
 20 21  1  0  0  0  0
 22 21  1  0  0  0  0
 22 23  1  0  0  0  0
 24 23  1  0  0  0  0
 25 24  1  0  0  0  0
 26 27  1  0  0  0  0
 26 29  1  0  0  0  0
 27 30  2  0  0  0  0
 29 32  1  6  0  0  0
 29 31  1  0  0  0  0
 30 28  1  0  0  0  0
 30 25  1  0  0  0  0
 31 28  2  0  0  0  0
 33 32  2  0  0  0  0
M  END
>  <MODEL>
8

>  <REMARK>
 VINA RESULT:      -5.3      2.583      6.796
  Name = 
  16 active torsions:
  status: ('A' for Active; 'I' for Inactive)
    1  A    between atoms: C_1  and  C_21
    2  A    between atoms: N_3  and  C_13
    3  A    between atoms: C_4  and  C_9
    4  A    between atoms: C_4  and  C_24
    5  A    between atoms: C_6  and  C_26
    6  A    between atoms: C_6  and  C_30
    7  A    between atoms: C_8  and  C_29
    8  A    between atoms: C_8  and  C_30
    9  A    between atoms: C_9  and  C_27
   10  A    between atoms: C_12  and  C_17
   11  A    between atoms: C_12  and  C_27
   12  A    between atoms: C_15  and  N_19
   13  A    between atoms: C_15  and  C_27
   14  A    between atoms: N_19  and  C_26
   15  A    between atoms: C_20  and  C_24
   16  A    between atoms: C_25  and  C_29
                            x       y       z     vdW  Elec       q    Type
                         _______ _______ _______ _____ _____    ______ ____

>  <TORSDO>
F 16

$$$$
=
 OpenBabel11042415053D

 33 34  0  0  1  0  0  0  0  0999 V2000
  192.9850  173.9760  144.2220 C   0  0  1  0  0  3  0  0  0  0  0  0
  192.7320  174.4010  145.6400 C   0  0  0  0  0  0  0  0  0  0  0  0
  193.4900  173.9870  146.5600 O   0  0  0  0  0  0  0  0  0  0  0  0
  191.3970  175.7320  147.2800 C   0  0  0  0  0  3  0  0  0  0  0  0
  190.3700  176.5760  147.5710 N   0  0  0  0  0  0  0  0  0  0  0  0
  189.5270  177.0450  146.6120 C   0  0  0  0  0  0  0  0  0  0  0  0
  191.6180  175.3160  145.9600 C   0  0  0  0  0  0  0  0  0  0  0  0
  189.7120  176.6490  145.2810 C   0  0  0  0  0  3  0  0  0  0  0  0
  190.7580  175.7850  144.9600 C   0  0  0  0  0  3  0  0  0  0  0  0
  188.4680  177.9360  146.9930 N   0  0  0  0  0  2  0  0  0  0  0  0
  186.1450  178.6460  147.6550 C   0  0  0  0  0  1  0  0  0  0  0  0
  187.1110  177.5810  147.2840 C   0  0  0  0  0  0  0  0  0  0  0  0
  186.7200  176.3840  147.2280 O   0  0  0  0  0  0  0  0  0  0  0  0
  194.3420  174.4610  143.7050 C   0  0  0  0  0  2  0  0  0  0  0  0
  194.4070  175.9730  143.5620 C   0  0  0  0  0  2  0  0  0  0  0  0
  195.2830  176.5480  144.6570 C   0  0  0  0  0  2  0  0  0  0  0  0
  194.4890  177.5230  145.5050 C   0  0  0  0  0  2  0  0  0  0  0  0
  194.5820  177.1680  146.8520 O   0  0  0  0  0  1  0  0  0  0  0  0
  192.7840  172.4760  144.0410 C   0  0  0  0  0  2  0  0  0  0  0  0
  191.3710  172.1500  144.1290 N   0  0  0  0  0  2  0  0  0  0  0  0
  190.7620  172.5960  142.8880 C   0  0  0  0  0  2  0  0  0  0  0  0
  189.3450  172.0530  142.7760 C   0  0  0  0  0  2  0  0  0  0  0  0
  188.4500  172.9980  141.9900 C   0  0  0  0  0  2  0  0  0  0  0  0
  188.5510  174.4070  142.5420 C   0  0  0  0  0  2  0  0  0  0  0  0
  188.0710  175.3930  141.4930 C   0  0  0  0  0  2  0  0  0  0  0  0
  186.6940  178.8740  142.3770 C   0  0  0  0  0  2  0  0  0  0  0  0
  187.5350  177.7650  141.8020 C   0  0  0  0  0  3  0  0  0  0  0  0
  186.2570  176.1690  143.1370 C   0  0  0  0  0  3  0  0  0  0  0  0
  186.2630  178.5420  143.8130 C   0  0  2  0  0  3  0  0  0  0  0  0
  187.2960  176.4900  142.1370 C   0  0  0  0  0  0  0  0  0  0  0  0
  185.7370  177.1350  143.9020 C   0  0  0  0  0  3  0  0  0  0  0  0
  185.2260  179.5030  144.2880 C   0  0  0  0  0  3  0  0  0  0  0  0
  184.0770  179.0820  144.6720 N   0  0  0  0  0  2  0  0  0  0  0  0
  1 14  1  1  0  0  0
  1  2  1  0  0  0  0
  2  7  1  0  0  0  0
  2  3  2  0  0  0  0
  4  5  1  0  0  0  0
  6 10  1  0  0  0  0
  6  5  2  0  0  0  0
  7  4  2  0  0  0  0
  8  6  1  0  0  0  0
  9  8  2  0  0  0  0
  9  7  1  0  0  0  0
 10 12  1  0  0  0  0
 12 11  1  0  0  0  0
 13 12  2  0  0  0  0
 15 14  1  0  0  0  0
 15 16  1  0  0  0  0
 16 17  1  0  0  0  0
 17 18  1  0  0  0  0
 19 20  1  0  0  0  0
 19  1  1  0  0  0  0
 21 20  1  0  0  0  0
 22 21  1  0  0  0  0
 23 24  1  0  0  0  0
 23 22  1  0  0  0  0
 25 30  1  0  0  0  0
 25 24  1  0  0  0  0
 26 29  1  0  0  0  0
 27 30  2  0  0  0  0
 27 26  1  0  0  0  0
 28 31  2  0  0  0  0
 29 31  1  0  0  0  0
 29 32  1  6  0  0  0
 30 28  1  0  0  0  0
 32 33  2  0  0  0  0
M  END
>  <MODEL>
9

>  <REMARK>
 VINA RESULT:      -5.3      2.407      6.363
  Name = 
  16 active torsions:
  status: ('A' for Active; 'I' for Inactive)
    1  A    between atoms: C_1  and  C_21
    2  A    between atoms: N_3  and  C_13
    3  A    between atoms: C_4  and  C_9
    4  A    between atoms: C_4  and  C_24
    5  A    between atoms: C_6  and  C_26
    6  A    between atoms: C_6  and  C_30
    7  A    between atoms: C_8  and  C_29
    8  A    between atoms: C_8  and  C_30
    9  A    between atoms: C_9  and  C_27
   10  A    between atoms: C_12  and  C_17
   11  A    between atoms: C_12  and  C_27
   12  A    between atoms: C_15  and  N_19
   13  A    between atoms: C_15  and  C_27
   14  A    between atoms: N_19  and  C_26
   15  A    between atoms: C_20  and  C_24
   16  A    between atoms: C_25  and  C_29
                            x       y       z     vdW  Elec       q    Type
                         _______ _______ _______ _____ _____    ______ ____

>  <TORSDO>
F 16

$$$$
