=
 OpenBabel11042419403D

 61 69  0  0  1  0  0  0  0  0999 V2000
  196.0170  174.3420  140.1720 C   0  0  1  0  0  3  0  0  0  0  0  0
  196.0930  176.8010  141.1690 C   0  0  0  0  0  1  0  0  0  0  0  0
  196.5330  175.3390  141.2170 C   0  0  1  0  0  0  0  0  0  0  0  0
  197.0810  174.7420  142.4640 C   0  0  1  0  0  3  0  0  0  0  0  0
  197.9180  175.2190  141.4320 O   0  0  0  0  0  0  0  0  0  0  0  0
  197.1190  175.7070  143.6440 C   0  0  0  0  0  2  0  0  0  0  0  0
  193.9180  171.2040  145.6090 C   0  0  0  0  0  1  0  0  0  0  0  0
  195.2720  171.7420  145.6570 N   0  0  0  0  0  0  0  0  0  0  0  0
  194.2090  173.9520  144.5280 C   0  0  1  0  0  3  0  0  0  0  0  0
  197.4590  173.7360  145.9510 O   0  0  0  0  0  0  0  0  0  0  0  0
  194.8170  175.1710  144.0950 O   0  0  0  0  0  0  0  0  0  0  0  0
  196.1040  175.3000  144.7020 C   0  0  1  0  0  3  0  0  0  0  0  0
  195.6620  171.9880  144.2540 C   0  0  0  0  0  2  0  0  0  0  0  0
  195.3220  173.1170  145.1100 C   0  0  2  0  0  0  0  0  0  0  0  0
  196.4530  173.9900  145.3070 C   0  0  0  0  0  0  0  0  0  0  0  0
  190.6060  174.4260  145.8570 C   0  0  0  0  0  0  0  0  0  0  0  0
  189.3390  174.1000  145.5080 F   0  0  0  0  0  0  0  0  0  0  0  0
  193.1170  174.2100  145.5800 C   0  0  2  0  0  3  0  0  0  0  0  0
  191.7380  174.0220  144.9380 C   0  0  0  0  0  2  0  0  0  0  0  0
  190.7970  175.2400  146.9080 C   0  0  0  0  0  3  0  0  0  0  0  0
  193.1850  175.5910  146.2320 C   0  0  0  0  0  2  0  0  0  0  0  0
  192.1700  175.6540  147.3700 C   0  0  0  0  0  2  0  0  0  0  0  0
  197.7440  174.5940  138.5510 C   0  0  0  0  0  2  0  0  0  0  0  0
  197.1220  173.6480  139.4950 N   0  0  0  0  0  0  0  0  0  0  0  0
  196.9270  173.5080  138.0230 C   0  0  1  0  0  3  0  0  0  0  0  0
  195.6150  174.0760  137.4750 C   0  0  0  0  0  2  0  0  0  0  0  0
  194.7740  172.9570  136.8960 C   0  0  0  0  0  2  0  0  0  0  0  0
  193.4770  173.5360  136.3480 C   0  0  2  0  0  3  0  0  0  0  0  0
  192.4290  172.5130  135.8790 C   0  0  1  0  0  3  0  0  0  0  0  0
  193.3610  173.1830  134.8790 C   0  0  0  0  0  2  0  0  0  0  0  0
  193.0790  170.3500  134.9760 O   0  0  0  0  0  1  0  0  0  0  0  0
  192.7310  171.0170  136.1540 C   0  0  2  0  0  3  0  0  0  0  0  0
  191.6580  170.2410  136.9250 C   0  0  0  0  0  2  0  0  0  0  0  0
  191.9900  170.1880  138.4110 C   0  0  0  0  0  2  0  0  0  0  0  0
  192.8000  169.0890  138.6800 O   0  0  0  0  0  1  0  0  0  0  0  0
  193.7540  173.6170  140.9130 C   0  0  0  0  0  3  0  0  0  0  0  0
  195.0530  173.3460  140.7570 C   0  0  0  0  0  3  0  0  0  0  0  0
  192.8070  172.6090  141.4900 C   0  0  0  0  0  2  0  0  0  0  0  0
  189.0390  172.4200  141.8630 C   0  0  0  0  0  3  0  0  0  0  0  0
  188.4220  173.5700  141.1320 C   0  0  1  0  0  3  0  0  0  0  0  0
  190.0950  175.3180  141.7460 C   0  0  0  0  0  3  0  0  0  0  0  0
  191.3050  174.5000  141.5620 C   0  0  0  0  0  3  0  0  0  0  0  0
  188.8250  174.9200  141.6420 C   0  0  0  0  0  0  0  0  0  0  0  0
  191.4290  173.1690  141.6540 C   0  0  0  0  0  0  0  0  0  0  0  0
  190.3480  172.2420  142.0510 C   0  0  0  0  0  3  0  0  0  0  0  0
  188.5240  173.4520  139.6400 C   0  0  0  0  0  0  0  0  0  0  0  0
  188.8620  172.7710  137.5090 N   0  0  0  0  0  0  0  0  0  0  0  0
  188.9310  172.2460  138.8630 C   0  0  0  0  0  2  0  0  0  0  0  0
  188.5070  173.9900  137.5410 N   0  0  0  0  0  0  0  0  0  0  0  0
  188.2960  174.4390  138.8450 N   0  0  0  0  0  0  0  0  0  0  0  0
  187.7410  175.9320  141.8410 C   0  0  0  0  0  2  0  0  0  0  0  0
  187.3790  176.1650  143.3110 C   0  0  1  0  0  3  0  0  0  0  0  0
  185.5920  177.2850  144.7870 C   0  0  1  0  0  3  0  0  0  0  0  0
  186.5940  176.9300  145.8940 C   0  0  1  0  0  3  0  0  0  0  0  0
  188.2960  177.1890  143.9870 C   0  0  0  0  0  2  0  0  0  0  0  0
  185.6250  178.6430  144.5120 F   0  0  0  0  0  0  0  0  0  0  0  0
  188.0510  177.2340  145.5060 C   0  0  0  0  0  2  0  0  0  0  0  0
  185.8880  176.4950  143.5040 C   0  0  0  0  0  2  0  0  0  0  0  0
  186.2330  177.5660  147.1980 C   0  0  0  0  0  0  0  0  0  0  0  0
  186.1030  176.8660  148.2400 O   0  0  0  0  0  1  0  0  0  0  0  0
  186.0670  178.9440  147.2650 O   0  0  0  0  0  0  0  0  0  0  0  0
  1 37  1  1  0  0  0
  1  3  1  0  0  0  0
  3  2  1  1  0  0  0
  3  5  1  0  0  0  0
  3  4  1  0  0  0  0
  4  6  1  1  0  0  0
  5  4  1  0  0  0  0
  7  8  1  0  0  0  0
  9 11  1  1  0  0  0
  9 14  1  0  0  0  0
  9 18  1  0  0  0  0
 11 12  1  0  0  0  0
 12  6  1  6  0  0  0
 12 15  1  0  0  0  0
 13  8  1  0  0  0  0
 14 13  1  6  0  0  0
 14 15  1  0  0  0  0
 14  8  1  0  0  0  0
 15 10  2  0  0  0  0
 16 20  2  0  0  0  0
 17 16  1  0  0  0  0
 18 19  1  6  0  0  0
 18 21  1  0  0  0  0
 19 16  1  0  0  0  0
 20 22  1  0  0  0  0
 21 22  1  0  0  0  0
 23 24  1  0  0  0  0
 24  1  1  0  0  0  0
 25 26  1  1  0  0  0
 25 23  1  0  0  0  0
 25 24  1  0  0  0  0
 27 26  1  0  0  0  0
 28 27  1  1  0  0  0
 29 32  1  1  0  0  0
 29 28  1  0  0  0  0
 30 29  1  0  0  0  0
 30 28  1  0  0  0  0
 32 31  1  6  0  0  0
 32 33  1  0  0  0  0
 33 34  1  0  0  0  0
 34 35  1  0  0  0  0
 36 38  1  0  0  0  0
 37 36  2  0  0  0  0
 38 44  1  0  0  0  0
 39 45  2  0  0  0  0
 40 46  1  6  0  0  0
 40 43  1  0  0  0  0
 40 39  1  0  0  0  0
 42 44  2  0  0  0  0
 42 41  1  0  0  0  0
 43 41  2  0  0  0  0
 43 51  1  0  0  0  0
 44 45  1  0  0  0  0
 47 49  2  0  0  0  0
 47 48  1  0  0  0  0
 48 46  1  0  0  0  0
 49 50  1  0  0  0  0
 50 46  2  0  0  0  0
 52 51  1  6  0  0  0
 52 58  1  0  0  0  0
 52 55  1  0  0  0  0
 53 56  1  6  0  0  0
 53 54  1  0  0  0  0
 54 59  1  1  0  0  0
 55 57  1  0  0  0  0
 57 54  1  0  0  0  0
 58 53  1  0  0  0  0
 59 61  2  0  0  0  0
 59 60  1  0  0  0  0
M  END
>  <MODEL>
1

>  <REMARK>
 VINA RESULT:      -6.8      0.000      0.000
  Name = 
  18 active torsions:
  status: ('A' for Active; 'I' for Inactive)
    1  A    between atoms: C_1  and  C_6
    2  A    between atoms: C_1  and  C_45
    3  A    between atoms: C_7  and  C_23
    4  A    between atoms: C_8  and  C_19
    5  A    between atoms: C_8  and  C_42
    6  A    between atoms: C_10  and  C_20
    7  A    between atoms: C_11  and  C_12
    8  A    between atoms: C_14  and  C_15
    9  A    between atoms: C_23  and  C_43
   10  A    between atoms: C_24  and  C_51
   11  A    between atoms: C_25  and  C_32
   12  A    between atoms: N_30  and  C_32
   13  A    between atoms: C_32  and  C_33
   14  A    between atoms: C_41  and  C_59
   15  A    between atoms: C_42  and  C_46
   16  A    between atoms: C_51  and  C_52
   17  A    between atoms: C_52  and  C_54
   18  A    between atoms: C_53  and  C_59
                            x       y       z     vdW  Elec       q    Type
                         _______ _______ _______ _____ _____    ______ ____

>  <TORSDO>
F 18

$$$$
=
 OpenBabel11042419403D

 61 69  0  0  1  0  0  0  0  0999 V2000
  188.7100  176.1890  145.1980 C   0  0  1  0  0  3  0  0  0  0  0  0
  189.6320  174.6630  147.1660 C   0  0  0  0  0  1  0  0  0  0  0  0
  189.8880  175.5830  145.9740 C   0  0  1  0  0  0  0  0  0  0  0  0
  191.1930  175.5730  145.2620 C   0  0  1  0  0  3  0  0  0  0  0  0
  190.8880  176.5310  146.2530 O   0  0  0  0  0  0  0  0  0  0  0  0
  192.1890  174.5600  145.8150 C   0  0  0  0  0  2  0  0  0  0  0  0
  197.8900  173.7670  144.6960 C   0  0  0  0  0  1  0  0  0  0  0  0
  196.7600  173.1200  145.3500 N   0  0  0  0  0  0  0  0  0  0  0  0
  195.2540  175.0190  144.1630 C   0  0  1  0  0  3  0  0  0  0  0  0
  193.9960  172.1000  145.7510 O   0  0  0  0  0  0  0  0  0  0  0  0
  193.8520  175.2870  144.2340 O   0  0  0  0  0  0  0  0  0  0  0  0
  193.1740  174.1330  144.7370 C   0  0  1  0  0  3  0  0  0  0  0  0
  196.1820  174.1300  146.2590 C   0  0  0  0  0  2  0  0  0  0  0  0
  195.4880  173.8010  145.0210 C   0  0  2  0  0  0  0  0  0  0  0  0
  194.1990  173.2070  145.2800 C   0  0  0  0  0  0  0  0  0  0  0  0
  195.1380  175.3060  140.3070 C   0  0  0  0  0  0  0  0  0  0  0  0
  194.6500  176.1420  139.3590 F   0  0  0  0  0  0  0  0  0  0  0  0
  195.7060  174.7610  142.7160 C   0  0  2  0  0  3  0  0  0  0  0  0
  194.8770  175.6270  141.7610 C   0  0  0  0  0  2  0  0  0  0  0  0
  195.6810  174.1390  139.9200 C   0  0  0  0  0  3  0  0  0  0  0  0
  195.6120  173.2980  142.2800 C   0  0  0  0  0  2  0  0  0  0  0  0
  196.2510  173.1490  140.9020 C   0  0  0  0  0  2  0  0  0  0  0  0
  187.8220  177.5390  146.9490 C   0  0  0  0  0  2  0  0  0  0  0  0
  188.4460  177.5740  145.6140 N   0  0  0  0  0  0  0  0  0  0  0  0
  186.9970  177.8770  145.7960 C   0  0  1  0  0  3  0  0  0  0  0  0
  186.0390  176.7210  145.4950 C   0  0  0  0  0  2  0  0  0  0  0  0
  185.2540  177.0190  144.2340 C   0  0  0  0  0  2  0  0  0  0  0  0
  184.4760  178.3150  144.4210 C   0  0  2  0  0  3  0  0  0  0  0  0
  183.8720  178.9270  143.1460 C   0  0  1  0  0  3  0  0  0  0  0  0
  185.1980  179.4330  143.6970 C   0  0  0  0  0  2  0  0  0  0  0  0
  184.9590  178.6160  140.9920 O   0  0  0  0  0  1  0  0  0  0  0  0
  183.9810  178.0920  141.8440 C   0  0  2  0  0  3  0  0  0  0  0  0
  182.6720  177.8460  141.0860 C   0  0  0  0  0  2  0  0  0  0  0  0
  181.5440  178.6910  141.6630 C   0  0  0  0  0  2  0  0  0  0  0  0
  180.3970  177.9170  141.8130 O   0  0  0  0  0  1  0  0  0  0  0  0
  188.6520  175.0090  143.0080 C   0  0  0  0  0  3  0  0  0  0  0  0
  188.9070  176.1170  143.7090 C   0  0  0  0  0  3  0  0  0  0  0  0
  188.8470  174.9580  141.5230 C   0  0  0  0  0  2  0  0  0  0  0  0
  192.2350  173.4190  140.8000 C   0  0  0  0  0  3  0  0  0  0  0  0
  192.1030  172.4770  139.6450 C   0  0  1  0  0  3  0  0  0  0  0  0
  189.8900  171.4880  140.2480 C   0  0  0  0  0  3  0  0  0  0  0  0
  189.2240  172.7370  140.6510 C   0  0  0  0  0  3  0  0  0  0  0  0
  191.1640  171.3320  139.8800 C   0  0  0  0  0  0  0  0  0  0  0  0
  189.7810  173.8620  141.1200 C   0  0  0  0  0  0  0  0  0  0  0  0
  191.2210  174.0390  141.4060 C   0  0  0  0  0  3  0  0  0  0  0  0
  191.8660  173.1700  138.3360 C   0  0  0  0  0  0  0  0  0  0  0  0
  191.0960  173.8550  136.3220 N   0  0  0  0  0  0  0  0  0  0  0  0
  190.7560  172.9120  137.3740 C   0  0  0  0  0  3  0  0  0  0  0  0
  192.1580  174.4800  136.6340 N   0  0  0  0  0  0  0  0  0  0  0  0
  192.6580  174.0730  137.8720 N   0  0  0  0  0  2  0  0  0  0  0  0
  191.6310  169.9680  139.4790 C   0  0  0  0  0  2  0  0  0  0  0  0
  192.6210  169.3410  140.4640 C   0  0  1  0  0  3  0  0  0  0  0  0
  193.4470  169.5560  142.8920 C   0  0  1  0  0  3  0  0  0  0  0  0
  194.4880  168.5400  142.4000 C   0  0  1  0  0  3  0  0  0  0  0  0
  194.0750  169.7010  140.1460 C   0  0  0  0  0  2  0  0  0  0  0  0
  194.0130  170.8140  143.0230 F   0  0  0  0  0  0  0  0  0  0  0  0
  195.0510  168.8820  141.0100 C   0  0  0  0  0  2  0  0  0  0  0  0
  192.2530  169.6290  141.9310 C   0  0  0  0  0  2  0  0  0  0  0  0
  195.5830  168.3360  143.3970 C   0  0  0  0  0  0  0  0  0  0  0  0
  195.3160  168.1680  144.6190 O   0  0  0  0  0  1  0  0  0  0  0  0
  196.9040  168.3050  142.9670 O   0  0  0  0  0  0  0  0  0  0  0  0
  1 37  1  6  0  0  0
  1 24  1  0  0  0  0
  1  3  1  0  0  0  0
  3  5  1  0  0  0  0
  3  2  1  1  0  0  0
  4  6  1  1  0  0  0
  4  3  1  0  0  0  0
  4  5  1  0  0  0  0
  7  8  1  0  0  0  0
  8 13  1  0  0  0  0
  9 11  1  6  0  0  0
  9 14  1  0  0  0  0
 11 12  1  0  0  0  0
 12 15  1  0  0  0  0
 12  6  1  1  0  0  0
 14 15  1  0  0  0  0
 14  8  1  0  0  0  0
 14 13  1  1  0  0  0
 15 10  2  0  0  0  0
 16 19  1  0  0  0  0
 17 16  1  0  0  0  0
 18 19  1  6  0  0  0
 18  9  1  0  0  0  0
 20 16  2  0  0  0  0
 20 22  1  0  0  0  0
 21 18  1  0  0  0  0
 22 21  1  0  0  0  0
 24 25  1  0  0  0  0
 24 23  1  0  0  0  0
 25 26  1  6  0  0  0
 25 23  1  0  0  0  0
 27 26  1  0  0  0  0
 28 27  1  6  0  0  0
 29 32  1  6  0  0  0
 29 30  1  0  0  0  0
 29 28  1  0  0  0  0
 30 28  1  0  0  0  0
 32 31  1  6  0  0  0
 33 34  1  0  0  0  0
 33 32  1  0  0  0  0
 34 35  1  0  0  0  0
 36 37  2  0  0  0  0
 38 36  1  0  0  0  0
 39 45  2  0  0  0  0
 40 46  1  6  0  0  0
 40 43  1  0  0  0  0
 40 39  1  0  0  0  0
 41 42  1  0  0  0  0
 42 44  2  0  0  0  0
 43 41  2  0  0  0  0
 44 45  1  0  0  0  0
 44 38  1  0  0  0  0
 47 49  2  0  0  0  0
 47 48  1  0  0  0  0
 48 46  2  0  0  0  0
 49 50  1  0  0  0  0
 50 46  1  0  0  0  0
 51 43  1  0  0  0  0
 52 51  1  6  0  0  0
 52 58  1  0  0  0  0
 53 56  1  6  0  0  0
 54 53  1  0  0  0  0
 54 59  1  1  0  0  0
 55 52  1  0  0  0  0
 55 57  1  0  0  0  0
 57 54  1  0  0  0  0
 58 53  1  0  0  0  0
 59 60  1  0  0  0  0
 61 59  2  0  0  0  0
M  END
>  <MODEL>
2

>  <REMARK>
 VINA RESULT:      -6.3      3.228      8.833
  Name = 
  18 active torsions:
  status: ('A' for Active; 'I' for Inactive)
    1  A    between atoms: C_1  and  C_6
    2  A    between atoms: C_1  and  C_45
    3  A    between atoms: C_7  and  C_23
    4  A    between atoms: C_8  and  C_19
    5  A    between atoms: C_8  and  C_42
    6  A    between atoms: C_10  and  C_20
    7  A    between atoms: C_11  and  C_12
    8  A    between atoms: C_14  and  C_15
    9  A    between atoms: C_23  and  C_43
   10  A    between atoms: C_24  and  C_51
   11  A    between atoms: C_25  and  C_32
   12  A    between atoms: N_30  and  C_32
   13  A    between atoms: C_32  and  C_33
   14  A    between atoms: C_41  and  C_59
   15  A    between atoms: C_42  and  C_46
   16  A    between atoms: C_51  and  C_52
   17  A    between atoms: C_52  and  C_54
   18  A    between atoms: C_53  and  C_59
                            x       y       z     vdW  Elec       q    Type
                         _______ _______ _______ _____ _____    ______ ____

>  <TORSDO>
F 18

$$$$
=
 OpenBabel11042419403D

 61 69  0  0  1  0  0  0  0  0999 V2000
  189.8510  173.3280  142.1940 C   0  0  1  0  0  3  0  0  0  0  0  0
  190.9260  171.0070  141.4830 C   0  0  0  0  0  1  0  0  0  0  0  0
  190.8610  172.5280  141.3610 C   0  0  1  0  0  0  0  0  0  0  0  0
  191.4160  173.2280  140.1730 C   0  0  1  0  0  3  0  0  0  0  0  0
  192.1430  173.1070  141.3770 O   0  0  0  0  0  0  0  0  0  0  0  0
  192.0010  172.2900  139.1220 C   0  0  0  0  0  2  0  0  0  0  0  0
  195.9730  172.9880  134.8660 C   0  0  0  0  0  1  0  0  0  0  0  0
  194.9170  172.0810  135.2960 N   0  0  0  0  0  0  0  0  0  0  0  0
  194.2660  174.0140  137.0650 C   0  0  1  0  0  3  0  0  0  0  0  0
  192.2610  171.1830  136.2890 O   0  0  0  0  0  0  0  0  0  0  0  0
  193.2650  174.0560  138.0840 O   0  0  0  0  0  0  0  0  0  0  0  0
  192.2880  173.0430  137.8320 C   0  0  1  0  0  3  0  0  0  0  0  0
  195.2010  171.7680  136.7110 C   0  0  0  0  0  2  0  0  0  0  0  0
  194.1100  172.6760  136.3850 C   0  0  2  0  0  0  0  0  0  0  0  0
  192.8350  172.1370  136.7900 C   0  0  0  0  0  0  0  0  0  0  0  0
  195.2400  177.2260  135.1420 C   0  0  0  0  0  0  0  0  0  0  0  0
  196.3570  177.9150  134.8050 F   0  0  0  0  0  0  0  0  0  0  0  0
  194.0900  175.1600  136.0550 C   0  0  2  0  0  3  0  0  0  0  0  0
  195.3850  175.9770  135.9820 C   0  0  0  0  0  2  0  0  0  0  0  0
  194.0410  177.7670  134.8690 C   0  0  0  0  0  3  0  0  0  0  0  0
  192.9210  176.0960  136.3630 C   0  0  0  0  0  2  0  0  0  0  0  0
  192.7470  177.0720  135.2030 C   0  0  0  0  0  2  0  0  0  0  0  0
  188.1590  172.7610  140.6160 C   0  0  0  0  0  2  0  0  0  0  0  0
  188.4890  172.7940  142.0520 N   0  0  0  0  0  0  0  0  0  0  0  0
  187.5240  173.7640  141.4610 C   0  0  1  0  0  3  0  0  0  0  0  0
  188.0970  175.1460  141.1330 C   0  0  0  0  0  2  0  0  0  0  0  0
  187.3250  176.2130  141.8820 C   0  0  0  0  0  2  0  0  0  0  0  0
  188.2460  176.8840  142.8910 C   0  0  2  0  0  3  0  0  0  0  0  0
  187.5810  177.3690  144.1900 C   0  0  1  0  0  3  0  0  0  0  0  0
  187.8380  178.3360  143.0420 C   0  0  0  0  0  2  0  0  0  0  0  0
  185.2440  177.9580  143.8590 O   0  0  0  0  0  1  0  0  0  0  0  0
  186.0930  176.9900  144.4040 C   0  0  2  0  0  3  0  0  0  0  0  0
  185.6810  176.6490  145.8400 C   0  0  0  0  0  2  0  0  0  0  0  0
  185.6220  177.9050  146.7000 C   0  0  0  0  0  2  0  0  0  0  0  0
  186.1670  177.6500  147.9550 O   0  0  0  0  0  1  0  0  0  0  0  0
  190.6380  174.5390  144.2210 C   0  0  0  0  0  3  0  0  0  0  0  0
  190.2360  173.4020  143.6460 C   0  0  0  0  0  3  0  0  0  0  0  0
  191.0110  174.5960  145.6720 C   0  0  0  0  0  2  0  0  0  0  0  0
  194.3030  176.3280  146.3970 C   0  0  0  0  0  3  0  0  0  0  0  0
  195.3720  175.7110  145.5500 C   0  0  1  0  0  3  0  0  0  0  0  0
  194.6370  173.3310  145.7340 C   0  0  0  0  0  3  0  0  0  0  0  0
  193.1930  173.5630  145.5760 C   0  0  0  0  0  3  0  0  0  0  0  0
  195.6020  174.2520  145.8040 C   0  0  0  0  0  0  0  0  0  0  0  0
  192.4920  174.6690  145.8650 C   0  0  0  0  0  0  0  0  0  0  0  0
  193.0490  175.8840  146.4960 C   0  0  0  0  0  3  0  0  0  0  0  0
  195.2410  176.0390  144.0930 C   0  0  0  0  0  0  0  0  0  0  0  0
  194.5210  176.3900  141.9770 N   0  0  0  0  0  0  0  0  0  0  0  0
  193.9920  176.0170  143.2780 C   0  0  0  0  0  3  0  0  0  0  0  0
  195.7770  176.5660  142.0600 N   0  0  0  0  0  0  0  0  0  0  0  0
  196.2500  176.3510  143.3550 N   0  0  0  0  0  2  0  0  0  0  0  0
  197.0200  173.7920  145.9360 C   0  0  0  0  0  2  0  0  0  0  0  0
  197.3880  172.6500  144.9850 C   0  0  1  0  0  3  0  0  0  0  0  0
  196.7060  171.6170  142.7280 C   0  0  1  0  0  3  0  0  0  0  0  0
  197.6930  170.5290  143.1730 C   0  0  1  0  0  3  0  0  0  0  0  0
  196.9590  171.2790  145.5170 C   0  0  0  0  0  2  0  0  0  0  0  0
  195.3980  171.1750  142.8570 F   0  0  0  0  0  0  0  0  0  0  0  0
  197.5360  170.1440  144.6540 C   0  0  0  0  0  2  0  0  0  0  0  0
  196.8960  172.9000  143.5480 C   0  0  0  0  0  2  0  0  0  0  0  0
  197.6350  169.3260  142.2880 C   0  0  0  0  0  0  0  0  0  0  0  0
  197.5580  168.1670  142.7830 O   0  0  0  0  0  1  0  0  0  0  0  0
  197.6380  169.4900  140.9080 O   0  0  0  0  0  0  0  0  0  0  0  0
  1 37  1  1  0  0  0
  3  5  1  0  0  0  0
  3  2  1  6  0  0  0
  3  1  1  0  0  0  0
  4  6  1  6  0  0  0
  4  3  1  0  0  0  0
  4  5  1  0  0  0  0
  7  8  1  0  0  0  0
  8 14  1  0  0  0  0
  8 13  1  0  0  0  0
  9 11  1  1  0  0  0
 10 15  2  0  0  0  0
 12 11  1  0  0  0  0
 12  6  1  1  0  0  0
 14 13  1  1  0  0  0
 14 15  1  0  0  0  0
 14  9  1  0  0  0  0
 15 12  1  0  0  0  0
 16 19  1  0  0  0  0
 17 16  1  0  0  0  0
 18 19  1  1  0  0  0
 18 21  1  0  0  0  0
 18  9  1  0  0  0  0
 20 16  2  0  0  0  0
 20 22  1  0  0  0  0
 22 21  1  0  0  0  0
 23 25  1  0  0  0  0
 23 24  1  0  0  0  0
 24  1  1  0  0  0  0
 25 26  1  6  0  0  0
 25 24  1  0  0  0  0
 26 27  1  0  0  0  0
 28 27  1  6  0  0  0
 28 30  1  0  0  0  0
 28 29  1  0  0  0  0
 29 32  1  6  0  0  0
 30 29  1  0  0  0  0
 32 31  1  1  0  0  0
 32 33  1  0  0  0  0
 33 34  1  0  0  0  0
 34 35  1  0  0  0  0
 36 38  1  0  0  0  0
 37 36  2  0  0  0  0
 38 44  1  0  0  0  0
 39 45  2  0  0  0  0
 40 46  1  6  0  0  0
 40 43  1  0  0  0  0
 40 39  1  0  0  0  0
 41 43  2  0  0  0  0
 42 41  1  0  0  0  0
 42 44  2  0  0  0  0
 43 51  1  0  0  0  0
 44 45  1  0  0  0  0
 47 49  2  0  0  0  0
 47 48  1  0  0  0  0
 48 46  2  0  0  0  0
 49 50  1  0  0  0  0
 50 46  1  0  0  0  0
 52 55  1  0  0  0  0
 52 51  1  1  0  0  0
 53 56  1  1  0  0  0
 53 54  1  0  0  0  0
 53 58  1  0  0  0  0
 54 59  1  6  0  0  0
 54 57  1  0  0  0  0
 57 55  1  0  0  0  0
 58 52  1  0  0  0  0
 59 60  1  0  0  0  0
 61 59  2  0  0  0  0
M  END
>  <MODEL>
3

>  <REMARK>
 VINA RESULT:      -6.2      3.193     10.054
  Name = 
  18 active torsions:
  status: ('A' for Active; 'I' for Inactive)
    1  A    between atoms: C_1  and  C_6
    2  A    between atoms: C_1  and  C_45
    3  A    between atoms: C_7  and  C_23
    4  A    between atoms: C_8  and  C_19
    5  A    between atoms: C_8  and  C_42
    6  A    between atoms: C_10  and  C_20
    7  A    between atoms: C_11  and  C_12
    8  A    between atoms: C_14  and  C_15
    9  A    between atoms: C_23  and  C_43
   10  A    between atoms: C_24  and  C_51
   11  A    between atoms: C_25  and  C_32
   12  A    between atoms: N_30  and  C_32
   13  A    between atoms: C_32  and  C_33
   14  A    between atoms: C_41  and  C_59
   15  A    between atoms: C_42  and  C_46
   16  A    between atoms: C_51  and  C_52
   17  A    between atoms: C_52  and  C_54
   18  A    between atoms: C_53  and  C_59
                            x       y       z     vdW  Elec       q    Type
                         _______ _______ _______ _____ _____    ______ ____

>  <TORSDO>
F 18

$$$$
=
 OpenBabel11042419403D

 61 69  0  0  1  0  0  0  0  0999 V2000
  189.9900  175.3270  145.7360 C   0  0  1  0  0  3  0  0  0  0  0  0
  191.2940  175.2630  148.0480 C   0  0  0  0  0  1  0  0  0  0  0  0
  191.1560  175.7880  146.6200 C   0  0  1  0  0  0  0  0  0  0  0  0
  192.3180  176.3740  145.9020 C   0  0  1  0  0  3  0  0  0  0  0  0
  191.3590  177.1780  146.5550 O   0  0  0  0  0  0  0  0  0  0  0  0
  193.6120  176.3600  146.7090 C   0  0  0  0  0  2  0  0  0  0  0  0
  195.3570  174.7500  141.3470 C   0  0  0  0  0  1  0  0  0  0  0  0
  195.3370  175.9050  142.2360 N   0  0  0  0  0  0  0  0  0  0  0  0
  194.5650  174.1580  144.1440 C   0  0  1  0  0  3  0  0  0  0  0  0
  195.6440  177.4930  144.7320 O   0  0  0  0  0  0  0  0  0  0  0  0
  194.2140  174.3590  145.5150 O   0  0  0  0  0  0  0  0  0  0  0  0
  194.7080  175.6270  145.9500 C   0  0  1  0  0  3  0  0  0  0  0  0
  193.9400  176.0430  142.6940 C   0  0  0  0  0  2  0  0  0  0  0  0
  194.9430  175.5170  143.6100 C   0  0  2  0  0  0  0  0  0  0  0  0
  195.1300  176.3860  144.7460 C   0  0  0  0  0  0  0  0  0  0  0  0
  196.3010  170.8240  143.2290 C   0  0  0  0  0  0  0  0  0  0  0  0
  196.1000  169.7580  142.4180 F   0  0  0  0  0  0  0  0  0  0  0  0
  195.7350  173.1720  144.0010 C   0  0  2  0  0  3  0  0  0  0  0  0
  195.2570  171.9180  143.2600 C   0  0  0  0  0  2  0  0  0  0  0  0
  197.3240  170.7900  144.1000 C   0  0  0  0  0  3  0  0  0  0  0  0
  196.3770  172.7600  145.3260 C   0  0  0  0  0  2  0  0  0  0  0  0
  197.6250  171.9300  145.0370 C   0  0  0  0  0  2  0  0  0  0  0  0
  191.1480  173.3860  144.9870 C   0  0  0  0  0  2  0  0  0  0  0  0
  189.9220  173.8610  145.6510 N   0  0  0  0  0  0  0  0  0  0  0  0
  189.8890  173.3450  144.2530 C   0  0  1  0  0  3  0  0  0  0  0  0
  189.9020  174.4120  143.1560 C   0  0  0  0  0  2  0  0  0  0  0  0
  190.3570  173.7980  141.8470 C   0  0  0  0  0  2  0  0  0  0  0  0
  189.4680  172.6070  141.5150 C   0  0  2  0  0  3  0  0  0  0  0  0
  188.8550  172.5980  140.1050 C   0  0  1  0  0  3  0  0  0  0  0  0
  188.0500  173.0950  141.2980 C   0  0  0  0  0  2  0  0  0  0  0  0
  188.2350  174.4250  138.6230 O   0  0  0  0  0  1  0  0  0  0  0  0
  189.3230  173.7050  139.1260 C   0  0  2  0  0  3  0  0  0  0  0  0
  190.2520  173.2570  137.9920 C   0  0  0  0  0  2  0  0  0  0  0  0
  189.7180  173.7140  136.6400 C   0  0  0  0  0  2  0  0  0  0  0  0
  190.6070  174.6120  136.0560 O   0  0  0  0  0  1  0  0  0  0  0  0
  188.5550  177.1140  146.7070 C   0  0  0  0  0  3  0  0  0  0  0  0
  188.6700  175.8870  146.1910 C   0  0  0  0  0  3  0  0  0  0  0  0
  187.2310  177.6590  147.1480 C   0  0  0  0  0  2  0  0  0  0  0  0
  185.1090  176.4190  144.2630 C   0  0  0  0  0  3  0  0  0  0  0  0
  185.1330  177.4410  143.1690 C   0  0  1  0  0  3  0  0  0  0  0  0
  185.0160  179.4870  144.5960 C   0  0  0  0  0  3  0  0  0  0  0  0
  185.9670  179.0530  145.6330 C   0  0  0  0  0  3  0  0  0  0  0  0
  184.5750  178.7770  143.5550 C   0  0  0  0  0  0  0  0  0  0  0  0
  186.2780  177.8030  146.0040 C   0  0  0  0  0  0  0  0  0  0  0  0
  185.6410  176.5790  145.4750 C   0  0  0  0  0  3  0  0  0  0  0  0
  186.4580  177.5370  142.4730 C   0  0  0  0  0  0  0  0  0  0  0  0
  188.4440  178.1960  141.6130 N   0  0  0  0  0  0  0  0  0  0  0  0
  187.3830  178.7060  142.4650 C   0  0  0  0  0  2  0  0  0  0  0  0
  188.1580  177.0180  141.2330 N   0  0  0  0  0  0  0  0  0  0  0  0
  186.9330  176.5860  141.7450 N   0  0  0  0  0  0  0  0  0  0  0  0
  183.6260  179.4280  142.5980 C   0  0  0  0  0  2  0  0  0  0  0  0
  182.2950  178.6840  142.4500 C   0  0  1  0  0  3  0  0  0  0  0  0
  180.5410  178.0400  140.6800 C   0  0  1  0  0  3  0  0  0  0  0  0
  179.7670  177.5860  141.9260 C   0  0  1  0  0  3  0  0  0  0  0  0
  181.1180  179.4600  143.0490 C   0  0  0  0  0  2  0  0  0  0  0  0
  180.0120  179.2200  140.1780 F   0  0  0  0  0  0  0  0  0  0  0  0
  179.8450  178.5950  143.0840 C   0  0  0  0  0  2  0  0  0  0  0  0
  182.0280  178.2410  141.0000 C   0  0  0  0  0  2  0  0  0  0  0  0
  178.3500  177.2330  141.6050 C   0  0  0  0  0  0  0  0  0  0  0  0
  177.7540  177.7840  140.6370 O   0  0  0  0  0  0  0  0  0  0  0  0
  177.6950  176.2710  142.3630 O   0  0  0  0  0  1  0  0  0  0  0  0
  1 37  1  1  0  0  0
  1  3  1  0  0  0  0
  3  2  1  1  0  0  0
  4  5  1  0  0  0  0
  4  3  1  0  0  0  0
  4  6  1  1  0  0  0
  5  3  1  0  0  0  0
  7  8  1  0  0  0  0
  8 13  1  0  0  0  0
  8 14  1  0  0  0  0
  9 11  1  1  0  0  0
 10 15  2  0  0  0  0
 11 12  1  0  0  0  0
 12  6  1  6  0  0  0
 14 13  1  6  0  0  0
 14  9  1  0  0  0  0
 14 15  1  0  0  0  0
 15 12  1  0  0  0  0
 16 19  1  0  0  0  0
 16 20  2  0  0  0  0
 17 16  1  0  0  0  0
 18 19  1  1  0  0  0
 18  9  1  0  0  0  0
 18 21  1  0  0  0  0
 20 22  1  0  0  0  0
 22 21  1  0  0  0  0
 23 24  1  0  0  0  0
 24  1  1  0  0  0  0
 25 26  1  6  0  0  0
 25 23  1  0  0  0  0
 25 24  1  0  0  0  0
 27 26  1  0  0  0  0
 28 27  1  6  0  0  0
 29 32  1  6  0  0  0
 29 30  1  0  0  0  0
 29 28  1  0  0  0  0
 30 28  1  0  0  0  0
 32 31  1  6  0  0  0
 33 32  1  0  0  0  0
 34 33  1  0  0  0  0
 35 34  1  0  0  0  0
 36 38  1  0  0  0  0
 37 36  2  0  0  0  0
 39 45  2  0  0  0  0
 40 46  1  1  0  0  0
 40 43  1  0  0  0  0
 40 39  1  0  0  0  0
 41 42  1  0  0  0  0
 42 44  2  0  0  0  0
 43 41  2  0  0  0  0
 44 38  1  0  0  0  0
 45 44  1  0  0  0  0
 47 48  1  0  0  0  0
 48 46  1  0  0  0  0
 49 47  2  0  0  0  0
 49 50  1  0  0  0  0
 50 46  2  0  0  0  0
 51 43  1  0  0  0  0
 52 51  1  6  0  0  0
 52 55  1  0  0  0  0
 53 56  1  1  0  0  0
 53 58  1  0  0  0  0
 53 54  1  0  0  0  0
 54 59  1  6  0  0  0
 54 57  1  0  0  0  0
 55 57  1  0  0  0  0
 58 52  1  0  0  0  0
 59 61  1  0  0  0  0
 60 59  2  0  0  0  0
M  END
>  <MODEL>
4

>  <REMARK>
 VINA RESULT:      -6.0      3.841      6.864
  Name = 
  18 active torsions:
  status: ('A' for Active; 'I' for Inactive)
    1  A    between atoms: C_1  and  C_6
    2  A    between atoms: C_1  and  C_45
    3  A    between atoms: C_7  and  C_23
    4  A    between atoms: C_8  and  C_19
    5  A    between atoms: C_8  and  C_42
    6  A    between atoms: C_10  and  C_20
    7  A    between atoms: C_11  and  C_12
    8  A    between atoms: C_14  and  C_15
    9  A    between atoms: C_23  and  C_43
   10  A    between atoms: C_24  and  C_51
   11  A    between atoms: C_25  and  C_32
   12  A    between atoms: N_30  and  C_32
   13  A    between atoms: C_32  and  C_33
   14  A    between atoms: C_41  and  C_59
   15  A    between atoms: C_42  and  C_46
   16  A    between atoms: C_51  and  C_52
   17  A    between atoms: C_52  and  C_54
   18  A    between atoms: C_53  and  C_59
                            x       y       z     vdW  Elec       q    Type
                         _______ _______ _______ _____ _____    ______ ____

>  <TORSDO>
F 18

$$$$
=
 OpenBabel11042419403D

 61 69  0  0  1  0  0  0  0  0999 V2000
  190.6470  175.7680  143.5890 C   0  0  1  0  0  3  0  0  0  0  0  0
  193.0660  176.8060  143.2410 C   0  0  0  0  0  1  0  0  0  0  0  0
  192.1610  175.7290  143.8360 C   0  0  1  0  0  0  0  0  0  0  0  0
  192.6070  174.9020  144.9890 C   0  0  1  0  0  3  0  0  0  0  0  0
  192.6990  174.4410  143.6570 O   0  0  0  0  0  0  0  0  0  0  0  0
  193.9950  175.2630  145.5050 C   0  0  0  0  0  2  0  0  0  0  0  0
  196.7560  171.1370  142.3840 C   0  0  0  0  0  1  0  0  0  0  0  0
  196.9030  172.5200  142.8190 N   0  0  0  0  0  0  0  0  0  0  0  0
  194.7930  172.0170  144.4270 C   0  0  1  0  0  3  0  0  0  0  0  0
  196.8960  174.8750  144.6370 O   0  0  0  0  0  0  0  0  0  0  0  0
  194.0740  172.8640  145.3260 O   0  0  0  0  0  0  0  0  0  0  0  0
  194.8630  174.0190  145.6230 C   0  0  1  0  0  3  0  0  0  0  0  0
  195.6450  173.2000  142.4470 C   0  0  0  0  0  2  0  0  0  0  0  0
  195.8930  172.8690  143.8440 C   0  0  2  0  0  0  0  0  0  0  0  0
  195.9910  174.0560  144.6590 C   0  0  0  0  0  0  0  0  0  0  0  0
  194.9080  169.1550  147.0270 C   0  0  0  0  0  0  0  0  0  0  0  0
  194.0520  168.4330  147.7890 F   0  0  0  0  0  0  0  0  0  0  0  0
  195.3790  170.7940  145.1520 C   0  0  2  0  0  3  0  0  0  0  0  0
  194.3490  170.2510  146.1490 C   0  0  0  0  0  2  0  0  0  0  0  0
  196.2290  168.9900  147.2080 C   0  0  0  0  0  3  0  0  0  0  0  0
  196.6940  171.0660  145.8830 C   0  0  0  0  0  2  0  0  0  0  0  0
  197.2550  169.7460  146.4040 C   0  0  0  0  0  2  0  0  0  0  0  0
  190.5210  177.9290  144.5820 C   0  0  0  0  0  2  0  0  0  0  0  0
  190.1670  177.1420  143.3870 N   0  0  0  0  0  0  0  0  0  0  0  0
  189.1260  177.5620  144.3680 C   0  0  1  0  0  3  0  0  0  0  0  0
  188.7150  176.4980  145.3890 C   0  0  0  0  0  2  0  0  0  0  0  0
  188.0220  177.1550  146.5650 C   0  0  0  0  0  2  0  0  0  0  0  0
  186.7270  176.4130  146.8640 C   0  0  2  0  0  3  0  0  0  0  0  0
  185.4380  177.0760  146.3500 C   0  0  1  0  0  3  0  0  0  0  0  0
  185.8790  177.2540  147.7970 C   0  0  0  0  0  2  0  0  0  0  0  0
  184.8270  179.3940  145.9410 O   0  0  0  0  0  1  0  0  0  0  0  0
  185.5990  178.3340  145.4580 C   0  0  2  0  0  3  0  0  0  0  0  0
  185.3730  178.1320  143.9560 C   0  0  0  0  0  2  0  0  0  0  0  0
  183.9860  178.6120  143.5470 C   0  0  0  0  0  2  0  0  0  0  0  0
  183.6410  178.0740  142.3110 O   0  0  0  0  0  1  0  0  0  0  0  0
  189.6080  173.7250  142.6180 C   0  0  0  0  0  3  0  0  0  0  0  0
  190.2320  174.8930  142.4380 C   0  0  0  0  0  3  0  0  0  0  0  0
  189.1940  172.8700  141.4590 C   0  0  0  0  0  2  0  0  0  0  0  0
  190.8200  172.6180  138.0450 C   0  0  0  0  0  3  0  0  0  0  0  0
  191.8220  171.5060  138.0660 C   0  0  1  0  0  3  0  0  0  0  0  0
  192.7440  171.9060  140.3520 C   0  0  0  0  0  3  0  0  0  0  0  0
  191.4650  172.1640  141.0330 C   0  0  0  0  0  3  0  0  0  0  0  0
  192.9380  171.6940  139.0480 C   0  0  0  0  0  0  0  0  0  0  0  0
  190.3240  172.6330  140.5080 C   0  0  0  0  0  0  0  0  0  0  0  0
  190.1530  173.0710  139.1060 C   0  0  0  0  0  3  0  0  0  0  0  0
  191.1990  170.1440  138.1390 C   0  0  0  0  0  0  0  0  0  0  0  0
  190.3130  168.1660  138.7900 N   0  0  0  0  0  0  0  0  0  0  0  0
  190.8200  169.3970  139.3730 C   0  0  0  0  0  2  0  0  0  0  0  0
  190.4030  168.2240  137.5240 N   0  0  0  0  0  0  0  0  0  0  0  0
  190.9520  169.4330  137.0940 N   0  0  0  0  0  0  0  0  0  0  0  0
  194.3290  171.4200  138.5690 C   0  0  0  0  0  2  0  0  0  0  0  0
  194.9390  172.5680  137.7600 C   0  0  1  0  0  3  0  0  0  0  0  0
  194.9070  175.1360  137.5790 C   0  0  1  0  0  3  0  0  0  0  0  0
  195.7210  174.8410  136.3100 C   0  0  1  0  0  3  0  0  0  0  0  0
  194.3660  172.6590  136.3420 C   0  0  0  0  0  2  0  0  0  0  0  0
  193.6120  175.5090  137.2550 F   0  0  0  0  0  0  0  0  0  0  0  0
  195.1520  173.6710  135.4900 C   0  0  0  0  0  2  0  0  0  0  0  0
  194.8720  173.9130  138.5060 C   0  0  0  0  0  2  0  0  0  0  0  0
  195.9020  176.0610  135.4670 C   0  0  0  0  0  0  0  0  0  0  0  0
  196.9280  176.7860  135.5970 O   0  0  0  0  0  1  0  0  0  0  0  0
  194.9450  176.3830  134.5130 O   0  0  0  0  0  0  0  0  0  0  0  0
  1 37  1  6  0  0  0
  1  3  1  0  0  0  0
  3  2  1  6  0  0  0
  3  4  1  0  0  0  0
  4  6  1  6  0  0  0
  5  3  1  0  0  0  0
  5  4  1  0  0  0  0
  7  8  1  0  0  0  0
  8 14  1  0  0  0  0
  9 18  1  0  0  0  0
  9 11  1  1  0  0  0
 10 15  2  0  0  0  0
 11 12  1  0  0  0  0
 12  6  1  6  0  0  0
 13  8  1  0  0  0  0
 14 13  1  6  0  0  0
 14  9  1  0  0  0  0
 14 15  1  0  0  0  0
 15 12  1  0  0  0  0
 16 20  2  0  0  0  0
 16 17  1  0  0  0  0
 18 21  1  1  0  0  0
 18 19  1  0  0  0  0
 19 16  1  0  0  0  0
 21 22  1  0  0  0  0
 22 20  1  0  0  0  0
 24  1  1  0  0  0  0
 24 25  1  0  0  0  0
 24 23  1  0  0  0  0
 25 23  1  0  0  0  0
 25 26  1  1  0  0  0
 26 27  1  0  0  0  0
 28 27  1  6  0  0  0
 28 30  1  0  0  0  0
 29 32  1  6  0  0  0
 29 28  1  0  0  0  0
 29 30  1  0  0  0  0
 32 31  1  1  0  0  0
 33 32  1  0  0  0  0
 34 33  1  0  0  0  0
 35 34  1  0  0  0  0
 37 36  2  0  0  0  0
 38 36  1  0  0  0  0
 39 40  1  0  0  0  0
 39 45  2  0  0  0  0
 40 46  1  1  0  0  0
 40 43  1  0  0  0  0
 41 42  1  0  0  0  0
 43 41  2  0  0  0  0
 44 42  2  0  0  0  0
 44 38  1  0  0  0  0
 45 44  1  0  0  0  0
 46 48  1  0  0  0  0
 47 48  1  0  0  0  0
 49 47  2  0  0  0  0
 50 49  1  0  0  0  0
 50 46  2  0  0  0  0
 51 43  1  0  0  0  0
 52 58  1  0  0  0  0
 52 51  1  1  0  0  0
 53 56  1  6  0  0  0
 53 58  1  0  0  0  0
 54 59  1  6  0  0  0
 54 53  1  0  0  0  0
 55 52  1  0  0  0  0
 57 54  1  0  0  0  0
 57 55  1  0  0  0  0
 59 60  1  0  0  0  0
 61 59  2  0  0  0  0
M  END
>  <MODEL>
5

>  <REMARK>
 VINA RESULT:      -6.0      3.019      8.780
  Name = 
  18 active torsions:
  status: ('A' for Active; 'I' for Inactive)
    1  A    between atoms: C_1  and  C_6
    2  A    between atoms: C_1  and  C_45
    3  A    between atoms: C_7  and  C_23
    4  A    between atoms: C_8  and  C_19
    5  A    between atoms: C_8  and  C_42
    6  A    between atoms: C_10  and  C_20
    7  A    between atoms: C_11  and  C_12
    8  A    between atoms: C_14  and  C_15
    9  A    between atoms: C_23  and  C_43
   10  A    between atoms: C_24  and  C_51
   11  A    between atoms: C_25  and  C_32
   12  A    between atoms: N_30  and  C_32
   13  A    between atoms: C_32  and  C_33
   14  A    between atoms: C_41  and  C_59
   15  A    between atoms: C_42  and  C_46
   16  A    between atoms: C_51  and  C_52
   17  A    between atoms: C_52  and  C_54
   18  A    between atoms: C_53  and  C_59
                            x       y       z     vdW  Elec       q    Type
                         _______ _______ _______ _____ _____    ______ ____

>  <TORSDO>
F 18

$$$$
=
 OpenBabel11042419403D

 61 69  0  0  1  0  0  0  0  0999 V2000
  188.9360  176.0690  144.9980 C   0  0  1  0  0  3  0  0  0  0  0  0
  189.6830  174.1400  146.6610 C   0  0  0  0  0  1  0  0  0  0  0  0
  190.0190  175.1340  145.5520 C   0  0  1  0  0  0  0  0  0  0  0  0
  191.2140  174.9460  144.6870 C   0  0  1  0  0  3  0  0  0  0  0  0
  191.2280  175.8080  145.8050 O   0  0  0  0  0  0  0  0  0  0  0  0
  192.0090  173.6840  145.0010 C   0  0  0  0  0  2  0  0  0  0  0  0
  197.5340  172.2400  143.6670 C   0  0  0  0  0  1  0  0  0  0  0  0
  196.3040  171.6610  144.1930 N   0  0  0  0  0  0  0  0  0  0  0  0
  195.1380  173.9750  143.4340 C   0  0  1  0  0  3  0  0  0  0  0  0
  193.4060  171.0320  144.4180 O   0  0  0  0  0  0  0  0  0  0  0  0
  193.7950  174.4410  143.5760 O   0  0  0  0  0  0  0  0  0  0  0  0
  192.9340  173.3320  143.8450 C   0  0  1  0  0  3  0  0  0  0  0  0
  195.8760  172.5470  145.2940 C   0  0  0  0  0  2  0  0  0  0  0  0
  195.1610  172.5880  144.0260 C   0  0  2  0  0  0  0  0  0  0  0  0
  193.7900  172.1650  144.1770 C   0  0  0  0  0  0  0  0  0  0  0  0
  196.8920  175.2380  140.2240 C   0  0  0  0  0  0  0  0  0  0  0  0
  197.9130  176.0550  139.8740 F   0  0  0  0  0  0  0  0  0  0  0  0
  195.5710  173.9440  141.9580 C   0  0  2  0  0  3  0  0  0  0  0  0
  196.5510  175.0900  141.6900 C   0  0  0  0  0  2  0  0  0  0  0  0
  196.1110  174.7280  139.2570 C   0  0  0  0  0  3  0  0  0  0  0  0
  194.4140  174.0270  140.9620 C   0  0  0  0  0  2  0  0  0  0  0  0
  194.9550  173.8080  139.5520 C   0  0  0  0  0  2  0  0  0  0  0  0
  189.2000  177.2360  147.0570 C   0  0  0  0  0  2  0  0  0  0  0  0
  189.0120  177.4050  145.6050 N   0  0  0  0  0  0  0  0  0  0  0  0
  187.9060  177.6910  146.5630 C   0  0  1  0  0  3  0  0  0  0  0  0
  186.8730  176.5730  146.7290 C   0  0  0  0  0  2  0  0  0  0  0  0
  185.7200  176.7930  145.7720 C   0  0  0  0  0  2  0  0  0  0  0  0
  184.6440  177.6200  146.4630 C   0  0  2  0  0  3  0  0  0  0  0  0
  184.0990  178.8160  145.6650 C   0  0  1  0  0  3  0  0  0  0  0  0
  185.1800  179.0140  146.7190 C   0  0  0  0  0  2  0  0  0  0  0  0
  185.1780  180.2090  143.9890 O   0  0  0  0  0  1  0  0  0  0  0  0
  184.5790  178.9630  144.1990 C   0  0  2  0  0  3  0  0  0  0  0  0
  183.5390  178.6680  143.1130 C   0  0  0  0  0  2  0  0  0  0  0  0
  184.2030  178.0920  141.8680 C   0  0  0  0  0  2  0  0  0  0  0  0
  185.4680  177.6060  142.1850 O   0  0  0  0  0  1  0  0  0  0  0  0
  188.3310  175.3170  142.7040 C   0  0  0  0  0  3  0  0  0  0  0  0
  188.9810  176.1730  143.4980 C   0  0  0  0  0  3  0  0  0  0  0  0
  188.3800  175.4400  141.2110 C   0  0  0  0  0  2  0  0  0  0  0  0
  191.2320  173.2510  140.0110 C   0  0  0  0  0  3  0  0  0  0  0  0
  190.8280  172.5870  138.7310 C   0  0  1  0  0  3  0  0  0  0  0  0
  188.4530  172.0950  139.3240 C   0  0  0  0  0  3  0  0  0  0  0  0
  188.1440  173.3820  139.9680 C   0  0  0  0  0  3  0  0  0  0  0  0
  189.6320  171.6910  138.8460 C   0  0  0  0  0  0  0  0  0  0  0  0
  188.9870  174.2320  140.5710 C   0  0  0  0  0  0  0  0  0  0  0  0
  190.4310  173.9900  140.7790 C   0  0  0  0  0  3  0  0  0  0  0  0
  190.7430  173.5330  137.5700 C   0  0  0  0  0  0  0  0  0  0  0  0
  190.0980  174.7770  135.7940 N   0  0  0  0  0  0  0  0  0  0  0  0
  189.5350  173.8420  136.7530 C   0  0  0  0  0  3  0  0  0  0  0  0
  191.3370  174.9360  136.0290 N   0  0  0  0  0  0  0  0  0  0  0  0
  191.7640  174.1750  137.1180 N   0  0  0  0  0  2  0  0  0  0  0  0
  189.7170  170.3450  138.1980 C   0  0  0  0  0  2  0  0  0  0  0  0
  191.0370  169.6150  138.4650 C   0  0  1  0  0  3  0  0  0  0  0  0
  192.9390  169.4730  140.1930 C   0  0  1  0  0  3  0  0  0  0  0  0
  193.5760  168.6030  139.1000 C   0  0  1  0  0  3  0  0  0  0  0  0
  192.1690  170.0930  137.5510 C   0  0  0  0  0  2  0  0  0  0  0  0
  193.5430  170.7200  140.2420 F   0  0  0  0  0  0  0  0  0  0  0  0
  193.4100  169.1940  137.6900 C   0  0  0  0  0  2  0  0  0  0  0  0
  191.4330  169.6430  139.9530 C   0  0  0  0  0  2  0  0  0  0  0  0
  195.0080  168.2940  139.3970 C   0  0  0  0  0  0  0  0  0  0  0  0
  195.8460  168.1690  138.4600 O   0  0  0  0  0  0  0  0  0  0  0  0
  195.4230  168.1700  140.7170 O   0  0  0  0  0  1  0  0  0  0  0  0
  1 37  1  6  0  0  0
  1  3  1  0  0  0  0
  1 24  1  0  0  0  0
  3  5  1  0  0  0  0
  3  2  1  1  0  0  0
  4  6  1  1  0  0  0
  4  3  1  0  0  0  0
  4  5  1  0  0  0  0
  7  8  1  0  0  0  0
  8 13  1  0  0  0  0
  9 11  1  6  0  0  0
  9 14  1  0  0  0  0
 11 12  1  0  0  0  0
 12 15  1  0  0  0  0
 12  6  1  1  0  0  0
 14 15  1  0  0  0  0
 14  8  1  0  0  0  0
 14 13  1  1  0  0  0
 15 10  2  0  0  0  0
 16 19  1  0  0  0  0
 17 16  1  0  0  0  0
 18 21  1  6  0  0  0
 18  9  1  0  0  0  0
 19 18  1  0  0  0  0
 20 22  1  0  0  0  0
 20 16  2  0  0  0  0
 22 21  1  0  0  0  0
 24 25  1  0  0  0  0
 24 23  1  0  0  0  0
 25 26  1  6  0  0  0
 25 23  1  0  0  0  0
 27 26  1  0  0  0  0
 28 27  1  6  0  0  0
 28 30  1  0  0  0  0
 29 32  1  6  0  0  0
 29 28  1  0  0  0  0
 29 30  1  0  0  0  0
 32 31  1  1  0  0  0
 33 32  1  0  0  0  0
 34 35  1  0  0  0  0
 34 33  1  0  0  0  0
 36 37  2  0  0  0  0
 38 36  1  0  0  0  0
 39 45  2  0  0  0  0
 40 46  1  6  0  0  0
 40 43  1  0  0  0  0
 40 39  1  0  0  0  0
 41 42  1  0  0  0  0
 42 44  2  0  0  0  0
 43 41  2  0  0  0  0
 44 45  1  0  0  0  0
 44 38  1  0  0  0  0
 47 49  2  0  0  0  0
 47 48  1  0  0  0  0
 48 46  2  0  0  0  0
 49 50  1  0  0  0  0
 50 46  1  0  0  0  0
 51 43  1  0  0  0  0
 52 51  1  1  0  0  0
 52 58  1  0  0  0  0
 53 56  1  6  0  0  0
 54 59  1  1  0  0  0
 54 53  1  0  0  0  0
 55 57  1  0  0  0  0
 55 52  1  0  0  0  0
 57 54  1  0  0  0  0
 58 53  1  0  0  0  0
 59 61  1  0  0  0  0
 60 59  2  0  0  0  0
M  END
>  <MODEL>
6

>  <REMARK>
 VINA RESULT:      -5.9      2.909      9.129
  Name = 
  18 active torsions:
  status: ('A' for Active; 'I' for Inactive)
    1  A    between atoms: C_1  and  C_6
    2  A    between atoms: C_1  and  C_45
    3  A    between atoms: C_7  and  C_23
    4  A    between atoms: C_8  and  C_19
    5  A    between atoms: C_8  and  C_42
    6  A    between atoms: C_10  and  C_20
    7  A    between atoms: C_11  and  C_12
    8  A    between atoms: C_14  and  C_15
    9  A    between atoms: C_23  and  C_43
   10  A    between atoms: C_24  and  C_51
   11  A    between atoms: C_25  and  C_32
   12  A    between atoms: N_30  and  C_32
   13  A    between atoms: C_32  and  C_33
   14  A    between atoms: C_41  and  C_59
   15  A    between atoms: C_42  and  C_46
   16  A    between atoms: C_51  and  C_52
   17  A    between atoms: C_52  and  C_54
   18  A    between atoms: C_53  and  C_59
                            x       y       z     vdW  Elec       q    Type
                         _______ _______ _______ _____ _____    ______ ____

>  <TORSDO>
F 18

$$$$
=
 OpenBabel11042419403D

 61 69  0  0  1  0  0  0  0  0999 V2000
  192.9070  170.0600  138.8260 C   0  0  1  0  0  3  0  0  0  0  0  0
  195.4160  170.1260  137.9610 C   0  0  0  0  0  1  0  0  0  0  0  0
  194.3770  169.6480  138.9740 C   0  0  1  0  0  0  0  0  0  0  0  0
  194.7820  169.1720  140.3230 C   0  0  1  0  0  3  0  0  0  0  0  0
  194.5220  168.2780  139.2610 O   0  0  0  0  0  0  0  0  0  0  0  0
  196.2830  169.2440  140.5780 C   0  0  0  0  0  2  0  0  0  0  0  0
  194.5590  171.1600  145.8450 C   0  0  0  0  0  1  0  0  0  0  0  0
  195.3130  170.0810  145.2190 N   0  0  0  0  0  0  0  0  0  0  0  0
  195.1560  171.5590  142.9660 C   0  0  1  0  0  3  0  0  0  0  0  0
  197.2650  168.7350  143.4230 O   0  0  0  0  0  0  0  0  0  0  0  0
  195.6160  171.2990  141.6380 O   0  0  0  0  0  0  0  0  0  0  0  0
  196.5930  170.2570  141.6700 C   0  0  1  0  0  3  0  0  0  0  0  0
  194.4400  169.5330  144.1620 C   0  0  0  0  0  2  0  0  0  0  0  0
  195.5750  170.3680  143.7910 C   0  0  2  0  0  0  0  0  0  0  0  0
  196.5420  169.6300  143.0150 C   0  0  0  0  0  0  0  0  0  0  0  0
  195.2280  174.8600  144.9830 C   0  0  0  0  0  0  0  0  0  0  0  0
  194.5740  175.4370  146.0190 F   0  0  0  0  0  0  0  0  0  0  0  0
  195.7650  172.8530  143.5310 C   0  0  2  0  0  3  0  0  0  0  0  0
  194.7800  173.4940  144.5130 C   0  0  0  0  0  2  0  0  0  0  0  0
  196.1290  175.5870  144.3010 C   0  0  0  0  0  3  0  0  0  0  0  0
  196.1570  173.8800  142.4670 C   0  0  0  0  0  2  0  0  0  0  0  0
  196.9050  175.0280  143.1380 C   0  0  0  0  0  2  0  0  0  0  0  0
  192.5340  168.9610  136.7460 C   0  0  0  0  0  2  0  0  0  0  0  0
  192.1170  169.0160  138.1580 N   0  0  0  0  0  0  0  0  0  0  0  0
  191.2350  169.5350  137.0740 C   0  0  1  0  0  3  0  0  0  0  0  0
  191.2760  171.0500  136.8600 C   0  0  0  0  0  2  0  0  0  0  0  0
  189.8710  171.5760  136.6450 C   0  0  0  0  0  2  0  0  0  0  0  0
  189.4810  172.4620  137.8210 C   0  0  2  0  0  3  0  0  0  0  0  0
  189.3350  173.9610  137.5140 C   0  0  1  0  0  3  0  0  0  0  0  0
  190.6200  173.4150  138.1200 C   0  0  0  0  0  2  0  0  0  0  0  0
  190.6360  175.0800  135.7900 O   0  0  0  0  0  1  0  0  0  0  0  0
  189.4430  174.3910  136.0280 C   0  0  2  0  0  3  0  0  0  0  0  0
  188.2460  175.1570  135.4560 C   0  0  0  0  0  2  0  0  0  0  0  0
  187.4050  175.7620  136.5720 C   0  0  0  0  0  2  0  0  0  0  0  0
  186.1360  176.0770  136.0960 O   0  0  0  0  0  1  0  0  0  0  0  0
  192.2430  171.6890  140.5870 C   0  0  0  0  0  3  0  0  0  0  0  0
  192.2800  170.4300  140.1420 C   0  0  0  0  0  3  0  0  0  0  0  0
  191.6070  172.0410  141.8970 C   0  0  0  0  0  2  0  0  0  0  0  0
  192.5210  175.6940  142.3250 C   0  0  0  0  0  3  0  0  0  0  0  0
  191.4560  176.3690  143.1320 C   0  0  1  0  0  3  0  0  0  0  0  0
  189.4750  175.2280  142.1270 C   0  0  0  0  0  3  0  0  0  0  0  0
  190.0390  173.8690  142.0810 C   0  0  0  0  0  3  0  0  0  0  0  0
  190.0940  176.3480  142.5070 C   0  0  0  0  0  0  0  0  0  0  0  0
  191.3270  173.5060  142.0070 C   0  0  0  0  0  0  0  0  0  0  0  0
  192.4650  174.4410  141.8740 C   0  0  0  0  0  3  0  0  0  0  0  0
  191.4460  175.9510  144.5730 C   0  0  0  0  0  0  0  0  0  0  0  0
  191.3500  174.8220  146.5310 N   0  0  0  0  0  0  0  0  0  0  0  0
  191.3310  174.5610  145.1020 C   0  0  0  0  0  3  0  0  0  0  0  0
  191.4450  176.0720  146.7370 N   0  0  0  0  0  0  0  0  0  0  0  0
  191.5010  176.7950  145.5440 N   0  0  0  0  0  2  0  0  0  0  0  0
  189.3190  177.6280  142.5060 C   0  0  0  0  0  2  0  0  0  0  0  0
  188.0020  177.5510  143.2840 C   0  0  1  0  0  3  0  0  0  0  0  0
  185.7960  178.8310  143.6310 C   0  0  1  0  0  3  0  0  0  0  0  0
  185.6140  177.7840  144.7390 C   0  0  1  0  0  3  0  0  0  0  0  0
  188.1820  177.8520  144.7750 C   0  0  0  0  0  2  0  0  0  0  0  0
  186.1190  180.0660  144.1720 F   0  0  0  0  0  0  0  0  0  0  0  0
  186.8930  177.5490  145.5610 C   0  0  0  0  0  2  0  0  0  0  0  0
  186.8910  178.4020  142.6440 C   0  0  0  0  0  2  0  0  0  0  0  0
  184.4500  178.1020  145.6210 C   0  0  0  0  0  0  0  0  0  0  0  0
  183.6220  178.9970  145.2950 O   0  0  0  0  0  0  0  0  0  0  0  0
  184.2650  177.3850  146.7970 O   0  0  0  0  0  1  0  0  0  0  0  0
  1  3  1  0  0  0  0
  1 37  1  1  0  0  0
  3  2  1  6  0  0  0
  3  5  1  0  0  0  0
  3  4  1  0  0  0  0
  4  6  1  6  0  0  0
  5  4  1  0  0  0  0
  8  7  1  0  0  0  0
  9 11  1  6  0  0  0
  9 18  1  0  0  0  0
  9 14  1  0  0  0  0
 11 12  1  0  0  0  0
 12  6  1  6  0  0  0
 12 15  1  0  0  0  0
 13  8  1  0  0  0  0
 14 13  1  6  0  0  0
 14  8  1  0  0  0  0
 15 10  2  0  0  0  0
 15 14  1  0  0  0  0
 16 17  1  0  0  0  0
 18 21  1  6  0  0  0
 18 19  1  0  0  0  0
 19 16  1  0  0  0  0
 20 16  2  0  0  0  0
 21 22  1  0  0  0  0
 22 20  1  0  0  0  0
 23 25  1  0  0  0  0
 23 24  1  0  0  0  0
 24  1  1  0  0  0  0
 25 26  1  1  0  0  0
 25 24  1  0  0  0  0
 27 26  1  0  0  0  0
 28 27  1  6  0  0  0
 28 30  1  0  0  0  0
 29 32  1  6  0  0  0
 29 28  1  0  0  0  0
 29 30  1  0  0  0  0
 32 31  1  1  0  0  0
 33 32  1  0  0  0  0
 33 34  1  0  0  0  0
 35 34  1  0  0  0  0
 36 38  1  0  0  0  0
 37 36  2  0  0  0  0
 38 44  1  0  0  0  0
 39 40  1  0  0  0  0
 40 46  1  1  0  0  0
 41 43  2  0  0  0  0
 42 41  1  0  0  0  0
 43 40  1  0  0  0  0
 44 42  2  0  0  0  0
 45 44  1  0  0  0  0
 45 39  2  0  0  0  0
 46 48  2  0  0  0  0
 46 50  1  0  0  0  0
 47 49  2  0  0  0  0
 48 47  1  0  0  0  0
 50 49  1  0  0  0  0
 51 43  1  0  0  0  0
 52 51  1  6  0  0  0
 52 55  1  0  0  0  0
 53 56  1  1  0  0  0
 53 54  1  0  0  0  0
 54 57  1  0  0  0  0
 54 59  1  1  0  0  0
 55 57  1  0  0  0  0
 58 52  1  0  0  0  0
 58 53  1  0  0  0  0
 59 61  1  0  0  0  0
 60 59  2  0  0  0  0
M  END
>  <MODEL>
7

>  <REMARK>
 VINA RESULT:      -5.9      2.967      5.112
  Name = 
  18 active torsions:
  status: ('A' for Active; 'I' for Inactive)
    1  A    between atoms: C_1  and  C_6
    2  A    between atoms: C_1  and  C_45
    3  A    between atoms: C_7  and  C_23
    4  A    between atoms: C_8  and  C_19
    5  A    between atoms: C_8  and  C_42
    6  A    between atoms: C_10  and  C_20
    7  A    between atoms: C_11  and  C_12
    8  A    between atoms: C_14  and  C_15
    9  A    between atoms: C_23  and  C_43
   10  A    between atoms: C_24  and  C_51
   11  A    between atoms: C_25  and  C_32
   12  A    between atoms: N_30  and  C_32
   13  A    between atoms: C_32  and  C_33
   14  A    between atoms: C_41  and  C_59
   15  A    between atoms: C_42  and  C_46
   16  A    between atoms: C_51  and  C_52
   17  A    between atoms: C_52  and  C_54
   18  A    between atoms: C_53  and  C_59
                            x       y       z     vdW  Elec       q    Type
                         _______ _______ _______ _____ _____    ______ ____

>  <TORSDO>
F 18

$$$$
=
 OpenBabel11042419403D

 61 69  0  0  1  0  0  0  0  0999 V2000
  190.0330  173.1410  140.1520 C   0  0  1  0  0  3  0  0  0  0  0  0
  190.0910  171.0460  141.7820 C   0  0  0  0  0  1  0  0  0  0  0  0
  190.8080  172.0070  140.8360 C   0  0  1  0  0  0  0  0  0  0  0  0
  192.1050  171.6420  140.2080 C   0  0  1  0  0  3  0  0  0  0  0  0
  192.0350  172.4430  141.3680 O   0  0  0  0  0  0  0  0  0  0  0  0
  192.5970  170.2460  140.5760 C   0  0  0  0  0  2  0  0  0  0  0  0
  197.7730  168.1710  142.3910 C   0  0  0  0  0  1  0  0  0  0  0  0
  197.1990  169.1540  141.4810 N   0  0  0  0  0  0  0  0  0  0  0  0
  194.8590  168.6240  142.7180 C   0  0  1  0  0  3  0  0  0  0  0  0
  195.4420  171.3510  140.5150 O   0  0  0  0  0  0  0  0  0  0  0  0
  193.5390  169.1190  142.4830 O   0  0  0  0  0  0  0  0  0  0  0  0
  193.6120  170.3170  141.7070 C   0  0  1  0  0  3  0  0  0  0  0  0
  196.2030  168.4250  140.6700 C   0  0  0  0  0  2  0  0  0  0  0  0
  195.7480  169.3250  141.7210 C   0  0  2  0  0  0  0  0  0  0  0  0
  194.9960  170.4310  141.1820 C   0  0  0  0  0  0  0  0  0  0  0  0
  194.5740  168.7660  146.5740 C   0  0  0  0  0  0  0  0  0  0  0  0
  193.8730  168.1690  147.5680 F   0  0  0  0  0  0  0  0  0  0  0  0
  195.3210  168.9140  144.1560 C   0  0  2  0  0  3  0  0  0  0  0  0
  194.2820  168.3700  145.1440 C   0  0  0  0  0  2  0  0  0  0  0  0
  195.3710  169.8030  146.8780 C   0  0  0  0  0  3  0  0  0  0  0  0
  195.5710  170.3930  144.4510 C   0  0  0  0  0  2  0  0  0  0  0  0
  196.1890  170.5250  145.8400 C   0  0  0  0  0  2  0  0  0  0  0  0
  189.1270  171.6700  138.5130 C   0  0  0  0  0  2  0  0  0  0  0  0
  188.7820  172.6570  139.5520 N   0  0  0  0  0  0  0  0  0  0  0  0
  188.6470  172.9850  138.1040 C   0  0  1  0  0  3  0  0  0  0  0  0
  189.8030  173.7860  137.5000 C   0  0  0  0  0  2  0  0  0  0  0  0
  190.6750  172.8750  136.6600 C   0  0  0  0  0  2  0  0  0  0  0  0
  191.1010  173.6120  135.3970 C   0  0  2  0  0  3  0  0  0  0  0  0
  192.5820  174.0200  135.3230 C   0  0  1  0  0  3  0  0  0  0  0  0
  191.5220  175.0210  135.7650 C   0  0  0  0  0  2  0  0  0  0  0  0
  193.6090  174.4490  137.4860 O   0  0  0  0  0  1  0  0  0  0  0  0
  193.5110  173.5100  136.4550 C   0  0  2  0  0  3  0  0  0  0  0  0
  194.8990  173.0240  136.0230 C   0  0  0  0  0  2  0  0  0  0  0  0
  195.9320  173.3040  137.1070 C   0  0  0  0  0  2  0  0  0  0  0  0
  197.0020  174.0150  136.5720 O   0  0  0  0  0  1  0  0  0  0  0  0
  188.5380  174.8190  141.2220 C   0  0  0  0  0  3  0  0  0  0  0  0
  189.7570  174.2890  141.0850 C   0  0  0  0  0  3  0  0  0  0  0  0
  188.2790  175.9570  142.1620 C   0  0  0  0  0  2  0  0  0  0  0  0
  189.3160  174.4120  145.4640 C   0  0  0  0  0  3  0  0  0  0  0  0
  189.7020  175.5050  146.4110 C   0  0  1  0  0  3  0  0  0  0  0  0
  190.8960  176.9750  144.7830 C   0  0  0  0  0  3  0  0  0  0  0  0
  189.9370  176.8530  143.6740 C   0  0  0  0  0  3  0  0  0  0  0  0
  190.8610  176.3400  145.9570 C   0  0  0  0  0  0  0  0  0  0  0  0
  189.0930  175.8450  143.4120 C   0  0  0  0  0  0  0  0  0  0  0  0
  189.0210  174.5810  144.1750 C   0  0  0  0  0  3  0  0  0  0  0  0
  188.5370  176.3250  146.8820 C   0  0  0  0  0  0  0  0  0  0  0  0
  187.1430  177.9730  147.5600 N   0  0  0  0  0  0  0  0  0  0  0  0
  188.5020  177.8040  147.0730 C   0  0  0  0  0  3  0  0  0  0  0  0
  186.5690  176.8410  147.6280 N   0  0  0  0  0  0  0  0  0  0  0  0
  187.4090  175.8040  147.2200 N   0  0  0  0  0  2  0  0  0  0  0  0
  191.9300  176.6360  146.9620 C   0  0  0  0  0  2  0  0  0  0  0  0
  193.3000  176.0600  146.5920 C   0  0  1  0  0  3  0  0  0  0  0  0
  195.2890  176.4680  145.0110 C   0  0  1  0  0  3  0  0  0  0  0  0
  195.7270  175.1030  145.5610 C   0  0  1  0  0  3  0  0  0  0  0  0
  193.1940  174.7520  145.8020 C   0  0  0  0  0  2  0  0  0  0  0  0
  194.8150  176.3450  143.7140 F   0  0  0  0  0  0  0  0  0  0  0  0
  194.5730  174.0890  145.6420 C   0  0  0  0  0  2  0  0  0  0  0  0
  194.2030  177.0940  145.8970 C   0  0  0  0  0  2  0  0  0  0  0  0
  196.8910  174.5450  144.8070 C   0  0  0  0  0  0  0  0  0  0  0  0
  197.5390  173.5600  145.2610 O   0  0  0  0  0  1  0  0  0  0  0  0
  197.2440  175.0990  143.5830 O   0  0  0  0  0  0  0  0  0  0  0  0
  1  3  1  0  0  0  0
  1 37  1  1  0  0  0
  3  5  1  0  0  0  0
  3  2  1  1  0  0  0
  4  6  1  1  0  0  0
  4  3  1  0  0  0  0
  4  5  1  0  0  0  0
  8 14  1  0  0  0  0
  8  7  1  0  0  0  0
  9 11  1  1  0  0  0
  9 18  1  0  0  0  0
 10 15  2  0  0  0  0
 12  6  1  6  0  0  0
 12 11  1  0  0  0  0
 13  8  1  0  0  0  0
 14 13  1  6  0  0  0
 14  9  1  0  0  0  0
 15 12  1  0  0  0  0
 15 14  1  0  0  0  0
 16 20  2  0  0  0  0
 16 17  1  0  0  0  0
 18 21  1  6  0  0  0
 18 19  1  0  0  0  0
 19 16  1  0  0  0  0
 21 22  1  0  0  0  0
 22 20  1  0  0  0  0
 23 24  1  0  0  0  0
 24  1  1  0  0  0  0
 25 26  1  6  0  0  0
 25 23  1  0  0  0  0
 25 24  1  0  0  0  0
 27 26  1  0  0  0  0
 28 30  1  0  0  0  0
 28 27  1  1  0  0  0
 29 28  1  0  0  0  0
 29 30  1  0  0  0  0
 29 32  1  1  0  0  0
 32 31  1  1  0  0  0
 33 32  1  0  0  0  0
 33 34  1  0  0  0  0
 35 34  1  0  0  0  0
 36 38  1  0  0  0  0
 37 36  2  0  0  0  0
 38 44  1  0  0  0  0
 39 40  1  0  0  0  0
 40 46  1  6  0  0  0
 41 43  2  0  0  0  0
 42 41  1  0  0  0  0
 43 40  1  0  0  0  0
 43 51  1  0  0  0  0
 44 42  2  0  0  0  0
 44 45  1  0  0  0  0
 45 39  2  0  0  0  0
 46 48  2  0  0  0  0
 46 50  1  0  0  0  0
 47 49  2  0  0  0  0
 48 47  1  0  0  0  0
 50 49  1  0  0  0  0
 52 51  1  6  0  0  0
 53 56  1  6  0  0  0
 53 54  1  0  0  0  0
 53 58  1  0  0  0  0
 54 59  1  6  0  0  0
 54 57  1  0  0  0  0
 55 52  1  0  0  0  0
 57 55  1  0  0  0  0
 58 52  1  0  0  0  0
 59 60  1  0  0  0  0
 61 59  2  0  0  0  0
M  END
>  <MODEL>
8

>  <REMARK>
 VINA RESULT:      -5.6      3.358      6.971
  Name = 
  18 active torsions:
  status: ('A' for Active; 'I' for Inactive)
    1  A    between atoms: C_1  and  C_6
    2  A    between atoms: C_1  and  C_45
    3  A    between atoms: C_7  and  C_23
    4  A    between atoms: C_8  and  C_19
    5  A    between atoms: C_8  and  C_42
    6  A    between atoms: C_10  and  C_20
    7  A    between atoms: C_11  and  C_12
    8  A    between atoms: C_14  and  C_15
    9  A    between atoms: C_23  and  C_43
   10  A    between atoms: C_24  and  C_51
   11  A    between atoms: C_25  and  C_32
   12  A    between atoms: N_30  and  C_32
   13  A    between atoms: C_32  and  C_33
   14  A    between atoms: C_41  and  C_59
   15  A    between atoms: C_42  and  C_46
   16  A    between atoms: C_51  and  C_52
   17  A    between atoms: C_52  and  C_54
   18  A    between atoms: C_53  and  C_59
                            x       y       z     vdW  Elec       q    Type
                         _______ _______ _______ _____ _____    ______ ____

>  <TORSDO>
F 18

$$$$
=
 OpenBabel11042419403D

 61 69  0  0  1  0  0  0  0  0999 V2000
  192.1570  170.3130  139.2450 C   0  0  1  0  0  3  0  0  0  0  0  0
  194.3550  171.4580  138.2940 C   0  0  0  0  0  1  0  0  0  0  0  0
  193.6740  170.5370  139.3030 C   0  0  1  0  0  0  0  0  0  0  0  0
  194.3290  170.1930  140.5930 C   0  0  1  0  0  3  0  0  0  0  0  0
  194.3860  169.3350  139.4740 O   0  0  0  0  0  0  0  0  0  0  0  0
  195.6830  170.8650  140.7950 C   0  0  0  0  0  2  0  0  0  0  0  0
  196.9020  172.9580  146.1360 C   0  0  0  0  0  1  0  0  0  0  0  0
  197.5270  172.7110  144.8420 N   0  0  0  0  0  0  0  0  0  0  0  0
  195.0200  172.2480  143.9550 C   0  0  1  0  0  3  0  0  0  0  0  0
  197.8800  172.6800  141.8900 O   0  0  0  0  0  0  0  0  0  0  0  0
  194.5370  171.8460  142.6710 O   0  0  0  0  0  0  0  0  0  0  0  0
  195.5450  172.0890  141.6870 C   0  0  1  0  0  3  0  0  0  0  0  0
  197.2230  171.3050  144.5050 C   0  0  0  0  0  2  0  0  0  0  0  0
  196.5160  172.3750  143.8140 C   0  0  2  0  0  0  0  0  0  0  0  0
  196.8140  172.3800  142.4030 C   0  0  0  0  0  0  0  0  0  0  0  0
  194.9770  176.0040  144.8800 C   0  0  0  0  0  0  0  0  0  0  0  0
  195.7130  177.1190  144.6570 F   0  0  0  0  0  0  0  0  0  0  0  0
  194.4000  173.5840  144.3970 C   0  0  2  0  0  3  0  0  0  0  0  0
  195.4540  174.6920  144.3000 C   0  0  0  0  0  2  0  0  0  0  0  0
  193.9530  176.0700  145.7470 C   0  0  0  0  0  3  0  0  0  0  0  0
  193.8130  173.5690  145.8090 C   0  0  0  0  0  2  0  0  0  0  0  0
  193.0780  174.8830  146.0560 C   0  0  0  0  0  2  0  0  0  0  0  0
  191.7330  169.6700  136.9920 C   0  0  0  0  0  2  0  0  0  0  0  0
  191.8110  169.1770  138.3790 N   0  0  0  0  0  0  0  0  0  0  0  0
  190.4980  169.3300  137.6890 C   0  0  1  0  0  3  0  0  0  0  0  0
  189.7270  170.6110  138.0160 C   0  0  0  0  0  2  0  0  0  0  0  0
  189.8320  171.5840  136.8590 C   0  0  0  0  0  2  0  0  0  0  0  0
  188.9620  172.8010  137.1450 C   0  0  2  0  0  3  0  0  0  0  0  0
  189.7120  174.1140  137.4230 C   0  0  1  0  0  3  0  0  0  0  0  0
  189.2000  173.2540  138.5710 C   0  0  0  0  0  2  0  0  0  0  0  0
  191.9090  174.0150  138.4630 O   0  0  0  0  0  1  0  0  0  0  0  0
  191.2500  174.1010  137.2320 C   0  0  2  0  0  3  0  0  0  0  0  0
  191.8360  175.2300  136.3770 C   0  0  0  0  0  2  0  0  0  0  0  0
  193.3080  175.4490  136.7020 C   0  0  0  0  0  2  0  0  0  0  0  0
  193.7980  176.5350  135.9830 O   0  0  0  0  0  1  0  0  0  0  0  0
  191.2410  171.1690  141.3950 C   0  0  0  0  0  3  0  0  0  0  0  0
  191.5520  170.1330  140.6110 C   0  0  0  0  0  3  0  0  0  0  0  0
  190.6310  170.9710  142.7500 C   0  0  0  0  0  2  0  0  0  0  0  0
  188.7990  174.2860  142.5920 C   0  0  0  0  0  3  0  0  0  0  0  0
  189.4810  175.2600  143.5010 C   0  0  1  0  0  3  0  0  0  0  0  0
  189.9860  173.6950  145.3800 C   0  0  0  0  0  3  0  0  0  0  0  0
  190.4270  172.5520  144.5660 C   0  0  0  0  0  3  0  0  0  0  0  0
  189.4960  174.8580  144.9450 C   0  0  0  0  0  0  0  0  0  0  0  0
  190.0830  172.2470  143.3070 C   0  0  0  0  0  0  0  0  0  0  0  0
  189.0960  172.9890  142.4940 C   0  0  0  0  0  3  0  0  0  0  0  0
  190.8250  175.7010  143.0010 C   0  0  0  0  0  0  0  0  0  0  0  0
  192.8520  175.8710  142.0120 N   0  0  0  0  0  0  0  0  0  0  0  0
  191.7290  174.9510  142.0830 C   0  0  0  0  0  3  0  0  0  0  0  0
  192.6180  176.8890  142.7350 N   0  0  0  0  0  0  0  0  0  0  0  0
  191.3740  176.8090  143.3620 N   0  0  0  0  0  2  0  0  0  0  0  0
  189.1340  175.9040  145.9530 C   0  0  0  0  0  2  0  0  0  0  0  0
  187.7080  176.4400  145.7990 C   0  0  1  0  0  3  0  0  0  0  0  0
  186.2660  177.8920  144.2390 C   0  0  1  0  0  3  0  0  0  0  0  0
  185.2540  177.7360  145.3830 C   0  0  1  0  0  3  0  0  0  0  0  0
  187.3850  177.5490  146.8050 C   0  0  0  0  0  2  0  0  0  0  0  0
  186.8140  179.1650  144.2390 F   0  0  0  0  0  0  0  0  0  0  0  0
  185.8890  177.9070  146.7740 C   0  0  0  0  0  2  0  0  0  0  0  0
  187.3880  176.8510  144.3510 C   0  0  0  0  0  2  0  0  0  0  0  0
  184.0720  178.6330  145.2090 C   0  0  0  0  0  0  0  0  0  0  0  0
  183.2960  178.8690  146.1770 O   0  0  0  0  0  1  0  0  0  0  0  0
  183.8420  179.2330  143.9770 O   0  0  0  0  0  0  0  0  0  0  0  0
  1  3  1  0  0  0  0
  1 37  1  1  0  0  0
  3  2  1  6  0  0  0
  3  5  1  0  0  0  0
  3  4  1  0  0  0  0
  4  6  1  6  0  0  0
  5  4  1  0  0  0  0
  8  7  1  0  0  0  0
  9 11  1  6  0  0  0
  9 18  1  0  0  0  0
 10 15  2  0  0  0  0
 12  6  1  6  0  0  0
 12 15  1  0  0  0  0
 12 11  1  0  0  0  0
 13  8  1  0  0  0  0
 14  9  1  0  0  0  0
 14 13  1  1  0  0  0
 14  8  1  0  0  0  0
 15 14  1  0  0  0  0
 16 20  2  0  0  0  0
 17 16  1  0  0  0  0
 18 19  1  1  0  0  0
 18 21  1  0  0  0  0
 19 16  1  0  0  0  0
 20 22  1  0  0  0  0
 21 22  1  0  0  0  0
 23 25  1  0  0  0  0
 23 24  1  0  0  0  0
 24  1  1  0  0  0  0
 25 26  1  1  0  0  0
 25 24  1  0  0  0  0
 27 26  1  0  0  0  0
 28 27  1  1  0  0  0
 28 29  1  0  0  0  0
 28 30  1  0  0  0  0
 29 32  1  1  0  0  0
 29 30  1  0  0  0  0
 32 31  1  1  0  0  0
 33 34  1  0  0  0  0
 33 32  1  0  0  0  0
 35 34  1  0  0  0  0
 36 38  1  0  0  0  0
 37 36  2  0  0  0  0
 38 44  1  0  0  0  0
 39 40  1  0  0  0  0
 40 46  1  6  0  0  0
 40 43  1  0  0  0  0
 42 41  1  0  0  0  0
 43 41  2  0  0  0  0
 43 51  1  0  0  0  0
 44 42  2  0  0  0  0
 45 39  2  0  0  0  0
 45 44  1  0  0  0  0
 46 50  1  0  0  0  0
 47 48  1  0  0  0  0
 47 49  2  0  0  0  0
 48 46  2  0  0  0  0
 49 50  1  0  0  0  0
 52 51  1  6  0  0  0
 52 55  1  0  0  0  0
 53 56  1  1  0  0  0
 53 58  1  0  0  0  0
 53 54  1  0  0  0  0
 54 59  1  6  0  0  0
 54 57  1  0  0  0  0
 57 55  1  0  0  0  0
 58 52  1  0  0  0  0
 59 60  1  0  0  0  0
 61 59  2  0  0  0  0
M  END
>  <MODEL>
9

>  <REMARK>
 VINA RESULT:      -5.6      2.637      4.570
  Name = 
  18 active torsions:
  status: ('A' for Active; 'I' for Inactive)
    1  A    between atoms: C_1  and  C_6
    2  A    between atoms: C_1  and  C_45
    3  A    between atoms: C_7  and  C_23
    4  A    between atoms: C_8  and  C_19
    5  A    between atoms: C_8  and  C_42
    6  A    between atoms: C_10  and  C_20
    7  A    between atoms: C_11  and  C_12
    8  A    between atoms: C_14  and  C_15
    9  A    between atoms: C_23  and  C_43
   10  A    between atoms: C_24  and  C_51
   11  A    between atoms: C_25  and  C_32
   12  A    between atoms: N_30  and  C_32
   13  A    between atoms: C_32  and  C_33
   14  A    between atoms: C_41  and  C_59
   15  A    between atoms: C_42  and  C_46
   16  A    between atoms: C_51  and  C_52
   17  A    between atoms: C_52  and  C_54
   18  A    between atoms: C_53  and  C_59
                            x       y       z     vdW  Elec       q    Type
                         _______ _______ _______ _____ _____    ______ ____

>  <TORSDO>
F 18

$$$$
