=
 OpenBabel11042414463D

 36 39  0  0  1  0  0  0  0  0999 V2000
  197.0580  176.7740  143.1380 C   0  0  0  0  0  2  0  0  0  0  0  0
  189.4630  176.3250  143.5760 C   0  0  1  0  0  3  0  0  0  0  0  0
  192.5020  172.8650  142.6070 C   0  0  0  0  0  0  0  0  0  0  0  0
  190.7280  178.2930  143.3860 C   0  0  0  0  0  2  0  0  0  0  0  0
  190.5120  172.7970  141.1490 N   0  0  0  0  0  2  0  0  0  0  0  0
  189.2100  173.3780  141.1500 C   0  0  0  0  0  0  0  0  0  0  0  0
  189.9570  176.5970  144.8590 O   0  0  0  0  0  0  0  0  0  0  0  0
  194.4170  174.2700  142.1180 C   0  0  0  0  0  3  0  0  0  0  0  0
  196.3500  174.4640  143.7190 C   0  0  1  0  0  3  0  0  0  0  0  0
  192.3240  176.7240  144.4880 C   0  0  0  0  0  2  0  0  0  0  0  0
  193.1530  173.7870  141.7770 C   0  0  0  0  0  3  0  0  0  0  0  0
  191.0170  177.4990  144.6510 C   0  0  1  0  0  3  0  0  0  0  0  0
  188.0700  175.6830  143.6280 C   0  0  2  0  0  3  0  0  0  0  0  0
  189.5480  177.5990  142.7650 C   0  0  0  0  0  2  0  0  0  0  0  0
  194.3830  175.8250  145.5520 C   0  0  0  0  0  2  0  0  0  0  0  0
  188.6460  173.8470  142.3760 N   0  0  0  0  0  2  0  0  0  0  0  0
  187.7980  174.9620  142.3850 N   0  0  0  0  0  2  0  0  0  0  0  0
  194.4290  172.8490  144.0950 C   0  0  0  0  0  0  0  0  0  0  0  0
  197.5100  173.9590  142.8580 C   0  0  0  0  0  1  0  0  0  0  0  0
  195.2690  176.5850  144.6810 N   0  0  0  0  0  2  0  0  0  0  0  0
  196.2530  175.9780  143.8350 C   0  0  0  0  0  0  0  0  0  0  0  0
  192.2810  175.8160  146.8290 C   0  0  0  0  0  1  0  0  0  0  0  0
  193.1400  172.4070  143.7610 C   0  0  0  0  0  3  0  0  0  0  0  0
  188.6130  173.5770  140.0550 O   0  0  0  0  0  0  0  0  0  0  0  0
  193.0940  176.5890  145.8050 C   0  0  2  0  0  3  0  0  0  0  0  0
  191.1490  172.4940  142.3600 N   0  0  0  0  0  2  0  0  0  0  0  0
  195.0500  173.8330  143.2900 C   0  0  0  0  0  0  0  0  0  0  0  0
  194.6750  171.0130  145.7630 C   0  0  0  0  0  2  0  0  0  0  0  0
  195.0870  172.3630  145.3740 C   0  0  1  0  0  3  0  0  0  0  0  0
  195.9360  170.7250  143.9100 O   0  0  0  0  0  1  0  0  0  0  0  0
  196.0090  171.2080  145.1780 N   0  0  0  0  0  0  0  0  0  0  0  0
  185.9410  176.7210  143.1280 N   0  0  0  0  0  0  0  0  0  0  0  0
  186.9750  176.6640  143.9070 C   0  0  0  0  0  3  0  0  0  0  0  0
  184.6960  178.2910  144.6000 N   0  0  0  0  0  1  0  0  0  0  0  0
  184.8820  177.6580  143.3350 C   0  0  0  0  0  0  0  0  0  0  0  0
  184.0990  177.9250  142.3880 O   0  0  0  0  0  0  0  0  0  0  0  0
  1 21  2  0  0  0  0
  2 14  1  6  0  0  0
  2 13  1  0  0  0  0
  2  7  1  0  0  0  0
  3 23  1  0  0  0  0
  5  6  1  0  0  0  0
  5 26  1  0  0  0  0
  6 16  1  0  0  0  0
  8 27  2  0  0  0  0
  9 19  1  6  0  0  0
  9 21  1  0  0  0  0
 10 12  1  0  0  0  0
 10 25  1  0  0  0  0
 11  8  1  0  0  0  0
 11  3  2  0  0  0  0
 12  4  1  6  0  0  0
 12  7  1  0  0  0  0
 13 33  1  6  0  0  0
 14  4  1  0  0  0  0
 15 25  1  0  0  0  0
 16 17  1  0  0  0  0
 17 13  1  0  0  0  0
 20 15  1  0  0  0  0
 21 20  1  0  0  0  0
 23 18  2  0  0  0  0
 24  6  2  0  0  0  0
 25 22  1  1  0  0  0
 26  3  1  0  0  0  0
 27  9  1  0  0  0  0
 27 18  1  0  0  0  0
 29 18  1  6  0  0  0
 29 28  1  0  0  0  0
 30 31  1  0  0  0  0
 31 29  1  0  0  0  0
 31 28  1  0  0  0  0
 32 35  1  0  0  0  0
 32 33  2  0  0  0  0
 35 34  1  0  0  0  0
 36 35  2  0  0  0  0
M  END
>  <MODEL>
1

>  <REMARK>
 VINA RESULT:      -8.1      0.000      0.000
  Name = 
  3 active torsions:
  status: ('A' for Active; 'I' for Inactive)
    1  A    between atoms: N_3  and  C_28
    2  A    between atoms: C_8  and  C_16
    3  A    between atoms: C_21  and  C_23
                            x       y       z     vdW  Elec       q    Type
                         _______ _______ _______ _____ _____    ______ ____

>  <TORSDO>
F 3

$$$$
=
 OpenBabel11042414463D

 36 39  0  0  1  0  0  0  0  0999 V2000
  187.0500  177.5230  140.1960 C   0  0  0  0  0  2  0  0  0  0  0  0
  193.1100  173.5930  142.6290 C   0  0  1  0  0  3  0  0  0  0  0  0
  190.8200  177.0390  144.8730 C   0  0  0  0  0  0  0  0  0  0  0  0
  192.3190  173.6990  140.4210 C   0  0  0  0  0  2  0  0  0  0  0  0
  193.2700  177.2530  145.0810 N   0  0  0  0  0  2  0  0  0  0  0  0
  194.4030  176.4160  144.8640 C   0  0  0  0  0  0  0  0  0  0  0  0
  192.0200  172.7140  142.5620 O   0  0  0  0  0  0  0  0  0  0  0  0
  189.6040  177.8950  142.9570 C   0  0  0  0  0  3  0  0  0  0  0  0
  187.1350  177.4930  142.6800 C   0  0  1  0  0  3  0  0  0  0  0  0
  190.2580  174.1320  141.7590 C   0  0  0  0  0  2  0  0  0  0  0  0
  190.8050  177.7110  143.6440 C   0  0  0  0  0  3  0  0  0  0  0  0
  191.3230  173.0960  141.4000 C   0  0  1  0  0  3  0  0  0  0  0  0
  194.1910  173.0860  143.5930 C   0  0  2  0  0  3  0  0  0  0  0  0
  193.5850  173.8530  141.2170 C   0  0  0  0  0  2  0  0  0  0  0  0
  187.8860  174.5940  142.3430 C   0  0  0  0  0  2  0  0  0  0  0  0
  194.2430  174.9960  144.8640 N   0  0  0  0  0  2  0  0  0  0  0  0
  195.0370  174.1940  144.0340 N   0  0  0  0  0  2  0  0  0  0  0  0
  188.4000  176.7970  144.7670 C   0  0  0  0  0  0  0  0  0  0  0  0
  186.5960  178.9250  142.6530 C   0  0  0  0  0  1  0  0  0  0  0  0
  187.6850  175.4700  141.1980 N   0  0  0  0  0  2  0  0  0  0  0  0
  187.2760  176.8390  141.3140 C   0  0  0  0  0  0  0  0  0  0  0  0
  188.9430  172.5420  143.1900 C   0  0  0  0  0  1  0  0  0  0  0  0
  189.6210  176.5820  145.4230 C   0  0  0  0  0  3  0  0  0  0  0  0
  195.5150  176.9330  144.5610 O   0  0  0  0  0  0  0  0  0  0  0  0
  188.8860  173.4990  142.0130 C   0  0  2  0  0  3  0  0  0  0  0  0
  192.0530  176.6970  145.5000 N   0  0  0  0  0  2  0  0  0  0  0  0
  188.4010  177.4130  143.4930 C   0  0  0  0  0  0  0  0  0  0  0  0
  187.0800  176.3340  146.8290 C   0  0  0  0  0  2  0  0  0  0  0  0
  187.1140  176.2600  145.3680 C   0  0  1  0  0  3  0  0  0  0  0  0
  186.9460  178.4800  146.1340 O   0  0  0  0  0  1  0  0  0  0  0  0
  186.2870  177.2960  146.0510 N   0  0  0  0  0  0  0  0  0  0  0  0
  196.1040  171.6040  143.6320 N   0  0  0  0  0  0  0  0  0  0  0  0
  195.0320  171.9900  143.0160 C   0  0  0  0  0  3  0  0  0  0  0  0
  197.9410  169.9560  143.9310 N   0  0  0  0  0  1  0  0  0  0  0  0
  196.9560  170.5810  143.1110 C   0  0  0  0  0  0  0  0  0  0  0  0
  196.8370  170.2300  141.9090 O   0  0  0  0  0  0  0  0  0  0  0  0
  1 21  2  0  0  0  0
  2 14  1  6  0  0  0
  2 13  1  0  0  0  0
  3 23  1  0  0  0  0
  3 26  1  0  0  0  0
  4 14  1  0  0  0  0
  5 26  1  0  0  0  0
  6 16  1  0  0  0  0
  6  5  1  0  0  0  0
  7  2  1  0  0  0  0
  8 27  2  0  0  0  0
  8 11  1  0  0  0  0
  9 19  1  6  0  0  0
  9 27  1  0  0  0  0
 10 25  1  0  0  0  0
 11  3  2  0  0  0  0
 12  4  1  6  0  0  0
 12 10  1  0  0  0  0
 12  7  1  0  0  0  0
 13 33  1  6  0  0  0
 13 17  1  0  0  0  0
 17 16  1  0  0  0  0
 18 23  2  0  0  0  0
 20 21  1  0  0  0  0
 20 15  1  0  0  0  0
 21  9  1  0  0  0  0
 24  6  2  0  0  0  0
 25 15  1  0  0  0  0
 25 22  1  1  0  0  0
 27 18  1  0  0  0  0
 29 18  1  6  0  0  0
 29 31  1  0  0  0  0
 29 28  1  0  0  0  0
 31 30  1  0  0  0  0
 31 28  1  0  0  0  0
 33 32  2  0  0  0  0
 35 32  1  0  0  0  0
 35 34  1  0  0  0  0
 36 35  2  0  0  0  0
M  END
>  <MODEL>
2

>  <REMARK>
 VINA RESULT:      -7.4      2.365      8.644
  Name = 
  3 active torsions:
  status: ('A' for Active; 'I' for Inactive)
    1  A    between atoms: N_3  and  C_28
    2  A    between atoms: C_8  and  C_16
    3  A    between atoms: C_21  and  C_23
                            x       y       z     vdW  Elec       q    Type
                         _______ _______ _______ _____ _____    ______ ____

>  <TORSDO>
F 3

$$$$
=
 OpenBabel11042414463D

 36 39  0  0  1  0  0  0  0  0999 V2000
  194.1400  169.4430  144.0390 C   0  0  0  0  0  1  0  0  0  0  0  0
  189.5990  175.4040  142.6510 C   0  0  1  0  0  3  0  0  0  0  0  0
  193.4870  175.3000  145.3010 C   0  0  0  0  0  0  0  0  0  0  0  0
  189.0790  173.1460  142.2770 C   0  0  0  0  0  2  0  0  0  0  0  0
  191.6700  176.5960  146.3560 N   0  0  0  0  0  2  0  0  0  0  0  0
  190.4360  177.1730  145.9390 C   0  0  0  0  0  0  0  0  0  0  0  0
  190.2320  175.0510  141.4510 O   0  0  0  0  0  0  0  0  0  0  0  0
  193.6480  172.8900  145.5120 C   0  0  0  0  0  3  0  0  0  0  0  0
  195.3980  171.5750  144.2690 C   0  0  1  0  0  3  0  0  0  0  0  0
  191.5670  173.1670  142.1030 C   0  0  0  0  0  2  0  0  0  0  0  0
  193.0010  174.0900  145.8120 C   0  0  0  0  0  3  0  0  0  0  0  0
  190.2630  173.6440  141.4640 C   0  0  1  0  0  3  0  0  0  0  0  0
  189.1200  176.8620  142.6330 C   0  0  2  0  0  3  0  0  0  0  0  0
  188.5190  174.3820  142.9260 C   0  0  0  0  0  2  0  0  0  0  0  0
  193.9090  172.3990  141.7820 C   0  0  0  0  0  2  0  0  0  0  0  0
  190.2220  177.4620  144.5550 N   0  0  0  0  0  2  0  0  0  0  0  0
  188.9410  177.3540  143.9990 N   0  0  0  0  0  2  0  0  0  0  0  0
  195.3280  174.1110  144.2410 C   0  0  0  0  0  0  0  0  0  0  0  0
  196.1650  170.9240  145.4230 C   0  0  0  0  0  1  0  0  0  0  0  0
  193.6680  171.1160  142.4280 N   0  0  0  0  0  0  0  0  0  0  0  0
  194.3920  170.6650  143.5790 C   0  0  0  0  0  0  0  0  0  0  0  0
  193.0140  174.1450  140.2990 C   0  0  0  0  0  1  0  0  0  0  0  0
  194.6410  175.3030  144.5150 C   0  0  0  0  0  3  0  0  0  0  0  0
  189.5000  177.3200  146.7730 O   0  0  0  0  0  0  0  0  0  0  0  0
  192.6590  172.8840  141.0670 C   0  0  2  0  0  3  0  0  0  0  0  0
  192.7440  176.5060  145.4600 N   0  0  0  0  0  2  0  0  0  0  0  0
  194.7910  172.8850  144.7000 C   0  0  0  0  0  0  0  0  0  0  0  0
  197.3760  175.3390  143.5280 C   0  0  0  0  0  2  0  0  0  0  0  0
  196.5600  174.1350  143.3550 C   0  0  1  0  0  3  0  0  0  0  0  0
  197.6420  174.1740  145.4460 O   0  0  0  0  0  1  0  0  0  0  0  0
  197.8460  174.0720  144.1070 N   0  0  0  0  0  0  0  0  0  0  0  0
  186.9190  177.8150  142.3090 N   0  0  0  0  0  0  0  0  0  0  0  0
  187.8660  177.0650  141.8410 C   0  0  0  0  0  3  0  0  0  0  0  0
  184.4350  177.9220  142.2750 N   0  0  0  0  0  1  0  0  0  0  0  0
  185.6910  178.0190  141.6060 C   0  0  0  0  0  0  0  0  0  0  0  0
  185.7190  178.2850  140.3770 O   0  0  0  0  0  0  0  0  0  0  0  0
  2 14  1  6  0  0  0
  3 26  1  0  0  0  0
  3 11  1  0  0  0  0
  4 14  1  0  0  0  0
  6  5  1  0  0  0  0
  6 24  2  0  0  0  0
  7 12  1  0  0  0  0
  7  2  1  0  0  0  0
  8 11  2  0  0  0  0
  9 27  1  0  0  0  0
  9 19  1  1  0  0  0
 12 10  1  1  0  0  0
 12  4  1  0  0  0  0
 13 33  1  6  0  0  0
 13  2  1  0  0  0  0
 13 17  1  0  0  0  0
 15 20  1  0  0  0  0
 16  6  1  0  0  0  0
 17 16  1  0  0  0  0
 18 23  1  0  0  0  0
 18 27  2  0  0  0  0
 20 21  2  0  0  0  0
 21  1  1  0  0  0  0
 21  9  1  0  0  0  0
 23  3  2  0  0  0  0
 25 22  1  1  0  0  0
 25 15  1  0  0  0  0
 25 10  1  0  0  0  0
 26  5  1  0  0  0  0
 27  8  1  0  0  0  0
 28 31  1  0  0  0  0
 29 28  1  0  0  0  0
 29 31  1  0  0  0  0
 29 18  1  1  0  0  0
 31 30  1  0  0  0  0
 33 32  2  0  0  0  0
 35 34  1  0  0  0  0
 35 32  1  0  0  0  0
 36 35  2  0  0  0  0
M  END
>  <MODEL>
3

>  <REMARK>
 VINA RESULT:      -7.3      2.142      4.501
  Name = 
  3 active torsions:
  status: ('A' for Active; 'I' for Inactive)
    1  A    between atoms: N_3  and  C_28
    2  A    between atoms: C_8  and  C_16
    3  A    between atoms: C_21  and  C_23
                            x       y       z     vdW  Elec       q    Type
                         _______ _______ _______ _____ _____    ______ ____

>  <TORSDO>
F 3

$$$$
=
 OpenBabel11042414463D

 36 39  0  0  1  0  0  0  0  0999 V2000
  187.4670  177.2830  141.0270 C   0  0  0  0  0  2  0  0  0  0  0  0
  194.2330  173.8530  141.7630 C   0  0  1  0  0  3  0  0  0  0  0  0
  192.0540  176.6260  144.8800 C   0  0  0  0  0  0  0  0  0  0  0  0
  193.0470  174.1690  139.7620 C   0  0  0  0  0  2  0  0  0  0  0  0
  194.4660  177.1190  144.7150 N   0  0  0  0  0  2  0  0  0  0  0  0
  195.6200  176.4730  144.1820 C   0  0  0  0  0  0  0  0  0  0  0  0
  193.2430  172.8610  141.7350 O   0  0  0  0  0  0  0  0  0  0  0  0
  190.4300  177.5820  143.3540 C   0  0  0  0  0  3  0  0  0  0  0  0
  188.0050  176.9130  143.4250 C   0  0  1  0  0  3  0  0  0  0  0  0
  191.2310  174.1420  141.4710 C   0  0  0  0  0  2  0  0  0  0  0  0
  191.7490  177.4580  143.7960 C   0  0  0  0  0  3  0  0  0  0  0  0
  192.3120  173.3110  140.7800 C   0  0  1  0  0  3  0  0  0  0  0  0
  195.5170  173.3560  142.4410 C   0  0  2  0  0  3  0  0  0  0  0  0
  194.4150  174.3690  140.3530 C   0  0  0  0  0  2  0  0  0  0  0  0
  188.9710  174.2110  142.5050 C   0  0  0  0  0  2  0  0  0  0  0  0
  195.6060  175.0580  143.9790 N   0  0  0  0  0  2  0  0  0  0  0  0
  196.3130  174.4890  142.9110 N   0  0  0  0  0  2  0  0  0  0  0  0
  189.6920  176.0950  145.1350 C   0  0  0  0  0  0  0  0  0  0  0  0
  187.3280  178.2540  143.7190 C   0  0  0  0  0  1  0  0  0  0  0  0
  188.4780  175.2080  141.5650 N   0  0  0  0  0  2  0  0  0  0  0  0
  187.9600  176.4820  141.9660 C   0  0  0  0  0  0  0  0  0  0  0  0
  190.3650  172.2100  142.8230 C   0  0  0  0  0  1  0  0  0  0  0  0
  191.0270  175.9460  145.5380 C   0  0  0  0  0  3  0  0  0  0  0  0
  196.6000  177.1640  143.7890 O   0  0  0  0  0  0  0  0  0  0  0  0
  189.9990  173.3100  141.8410 C   0  0  2  0  0  3  0  0  0  0  0  0
  193.4090  176.3590  145.2320 N   0  0  0  0  0  2  0  0  0  0  0  0
  189.3990  176.8810  143.9950 C   0  0  0  0  0  0  0  0  0  0  0  0
  188.8740  175.0880  147.2630 C   0  0  0  0  0  2  0  0  0  0  0  0
  188.5970  175.3180  145.8440 C   0  0  1  0  0  3  0  0  0  0  0  0
  188.4720  177.3060  147.1000 O   0  0  0  0  0  1  0  0  0  0  0  0
  187.8780  176.1030  146.8880 N   0  0  0  0  0  0  0  0  0  0  0  0
  196.2330  171.1820  141.6550 N   0  0  0  0  0  0  0  0  0  0  0  0
  196.3450  172.4700  141.5640 C   0  0  0  0  0  3  0  0  0  0  0  0
  197.4190  170.6440  139.5370 N   0  0  0  0  0  1  0  0  0  0  0  0
  197.0200  170.2910  140.8600 C   0  0  0  0  0  0  0  0  0  0  0  0
  197.3630  169.1790  141.3350 O   0  0  0  0  0  0  0  0  0  0  0  0
  1 21  2  0  0  0  0
  2 14  1  6  0  0  0
  2 13  1  0  0  0  0
  3 26  1  0  0  0  0
  3 23  1  0  0  0  0
  4 14  1  0  0  0  0
  5 26  1  0  0  0  0
  6  5  1  0  0  0  0
  7  2  1  0  0  0  0
  8 11  1  0  0  0  0
  8 27  2  0  0  0  0
  9 19  1  6  0  0  0
  9 27  1  0  0  0  0
 10 25  1  0  0  0  0
 11  3  2  0  0  0  0
 12  4  1  6  0  0  0
 12 10  1  0  0  0  0
 12  7  1  0  0  0  0
 13 33  1  6  0  0  0
 13 17  1  0  0  0  0
 16  6  1  0  0  0  0
 17 16  1  0  0  0  0
 18 23  2  0  0  0  0
 20 21  1  0  0  0  0
 20 15  1  0  0  0  0
 21  9  1  0  0  0  0
 24  6  2  0  0  0  0
 25 15  1  0  0  0  0
 25 22  1  1  0  0  0
 27 18  1  0  0  0  0
 29 18  1  6  0  0  0
 29 31  1  0  0  0  0
 29 28  1  0  0  0  0
 31 30  1  0  0  0  0
 31 28  1  0  0  0  0
 33 32  2  0  0  0  0
 34 35  1  0  0  0  0
 35 36  2  0  0  0  0
 35 32  1  0  0  0  0
M  END
>  <MODEL>
4

>  <REMARK>
 VINA RESULT:      -7.0      2.623      8.446
  Name = 
  3 active torsions:
  status: ('A' for Active; 'I' for Inactive)
    1  A    between atoms: N_3  and  C_28
    2  A    between atoms: C_8  and  C_16
    3  A    between atoms: C_21  and  C_23
                            x       y       z     vdW  Elec       q    Type
                         _______ _______ _______ _____ _____    ______ ____

>  <TORSDO>
F 3

$$$$
=
 OpenBabel11042414463D

 36 39  0  0  1  0  0  0  0  0999 V2000
  192.9970  169.4350  142.0270 C   0  0  0  0  0  1  0  0  0  0  0  0
  188.4210  175.5080  141.5200 C   0  0  1  0  0  3  0  0  0  0  0  0
  193.0460  175.4510  142.3870 C   0  0  0  0  0  0  0  0  0  0  0  0
  187.7420  173.2770  141.7890 C   0  0  0  0  0  2  0  0  0  0  0  0
  191.8440  177.0540  143.8280 N   0  0  0  0  0  2  0  0  0  0  0  0
  190.5600  177.6730  143.8390 C   0  0  0  0  0  0  0  0  0  0  0  0
  188.5030  174.9190  140.2510 O   0  0  0  0  0  0  0  0  0  0  0  0
  193.2230  173.0960  142.9390 C   0  0  0  0  0  3  0  0  0  0  0  0
  194.2870  171.4510  141.3590 C   0  0  1  0  0  3  0  0  0  0  0  0
  189.9450  173.0410  140.6430 C   0  0  0  0  0  2  0  0  0  0  0  0
  192.7820  174.3820  143.2540 C   0  0  0  0  0  3  0  0  0  0  0  0
  188.5050  173.5340  140.4990 C   0  0  1  0  0  3  0  0  0  0  0  0
  188.0090  176.9840  141.4360 C   0  0  2  0  0  3  0  0  0  0  0  0
  187.5220  174.6430  142.3770 C   0  0  0  0  0  2  0  0  0  0  0  0
  191.9370  172.0200  139.5620 C   0  0  0  0  0  2  0  0  0  0  0  0
  189.8100  177.7650  142.6260 N   0  0  0  0  0  2  0  0  0  0  0  0
  188.4110  177.6920  142.6510 N   0  0  0  0  0  2  0  0  0  0  0  0
  194.2700  173.9490  140.9130 C   0  0  0  0  0  0  0  0  0  0  0  0
  195.4420  170.9160  142.2100 C   0  0  0  0  0  1  0  0  0  0  0  0
  191.9490  170.8790  140.4660 N   0  0  0  0  0  0  0  0  0  0  0  0
  193.0680  170.5440  141.2970 C   0  0  0  0  0  0  0  0  0  0  0  0
  190.5570  173.5950  138.2710 C   0  0  0  0  0  1  0  0  0  0  0  0
  193.7810  175.2270  141.2220 C   0  0  0  0  0  3  0  0  0  0  0  0
  190.0470  178.0310  144.9350 O   0  0  0  0  0  0  0  0  0  0  0  0
  190.5160  172.5040  139.3270 C   0  0  2  0  0  3  0  0  0  0  0  0
  192.4590  176.7300  142.6110 N   0  0  0  0  0  2  0  0  0  0  0  0
  193.9380  172.8620  141.7560 C   0  0  0  0  0  0  0  0  0  0  0  0
  195.7810  174.9030  139.1760 C   0  0  0  0  0  2  0  0  0  0  0  0
  195.0370  173.7240  139.6230 C   0  0  1  0  0  3  0  0  0  0  0  0
  196.8660  174.1970  141.0280 O   0  0  0  0  0  1  0  0  0  0  0  0
  196.5180  173.7850  139.7810 N   0  0  0  0  0  0  0  0  0  0  0  0
  185.8530  177.9550  141.9550 N   0  0  0  0  0  0  0  0  0  0  0  0
  186.5460  177.1780  141.1840 C   0  0  0  0  0  3  0  0  0  0  0  0
  183.8880  178.2920  140.4700 N   0  0  0  0  0  1  0  0  0  0  0  0
  184.4500  178.1540  141.7740 C   0  0  0  0  0  0  0  0  0  0  0  0
  183.6980  178.2110  142.7810 O   0  0  0  0  0  0  0  0  0  0  0  0
  2 14  1  1  0  0  0
  3 26  1  0  0  0  0
  3 11  1  0  0  0  0
  4 14  1  0  0  0  0
  5  6  1  0  0  0  0
  6 24  2  0  0  0  0
  7 12  1  0  0  0  0
  7  2  1  0  0  0  0
  8 11  2  0  0  0  0
  9 27  1  0  0  0  0
  9 19  1  1  0  0  0
 12 10  1  1  0  0  0
 12  4  1  0  0  0  0
 13 33  1  1  0  0  0
 13  2  1  0  0  0  0
 13 17  1  0  0  0  0
 15 20  1  0  0  0  0
 16 17  1  0  0  0  0
 16  6  1  0  0  0  0
 18 23  1  0  0  0  0
 18 27  2  0  0  0  0
 20 21  2  0  0  0  0
 21  9  1  0  0  0  0
 21  1  1  0  0  0  0
 23  3  2  0  0  0  0
 25 22  1  6  0  0  0
 25 15  1  0  0  0  0
 25 10  1  0  0  0  0
 26  5  1  0  0  0  0
 27  8  1  0  0  0  0
 28 29  1  0  0  0  0
 28 31  1  0  0  0  0
 29 31  1  0  0  0  0
 29 18  1  1  0  0  0
 31 30  1  0  0  0  0
 33 32  2  0  0  0  0
 34 35  1  0  0  0  0
 35 32  1  0  0  0  0
 35 36  2  0  0  0  0
M  END
>  <MODEL>
5

>  <REMARK>
 VINA RESULT:      -6.8      2.752      5.133
  Name = 
  3 active torsions:
  status: ('A' for Active; 'I' for Inactive)
    1  A    between atoms: N_3  and  C_28
    2  A    between atoms: C_8  and  C_16
    3  A    between atoms: C_21  and  C_23
                            x       y       z     vdW  Elec       q    Type
                         _______ _______ _______ _____ _____    ______ ____

>  <TORSDO>
F 3

$$$$
=
 OpenBabel11042414463D

 36 39  0  0  1  0  0  0  0  0999 V2000
  193.4950  169.1120  140.5680 C   0  0  0  0  0  1  0  0  0  0  0  0
  190.1070  174.6930  144.4980 C   0  0  1  0  0  3  0  0  0  0  0  0
  194.0920  174.9340  142.0060 C   0  0  0  0  0  0  0  0  0  0  0  0
  189.6720  172.3950  144.6950 C   0  0  0  0  0  2  0  0  0  0  0  0
  194.2660  176.1180  144.1650 N   0  0  0  0  0  2  0  0  0  0  0  0
  193.3610  176.5940  145.1580 C   0  0  0  0  0  0  0  0  0  0  0  0
  189.2800  174.3580  143.4170 O   0  0  0  0  0  0  0  0  0  0  0  0
  194.4710  172.5470  141.8070 C   0  0  0  0  0  3  0  0  0  0  0  0
  194.1000  171.3330  139.6320 C   0  0  1  0  0  3  0  0  0  0  0  0
  190.5060  172.5920  142.3520 C   0  0  0  0  0  2  0  0  0  0  0  0
  194.4280  173.7030  142.5870 C   0  0  0  0  0  3  0  0  0  0  0  0
  189.3750  172.9580  143.3130 C   0  0  1  0  0  3  0  0  0  0  0  0
  189.8260  176.1110  145.0120 C   0  0  2  0  0  3  0  0  0  0  0  0
  189.9790  173.6010  145.5370 C   0  0  0  0  0  2  0  0  0  0  0  0
  191.1880  171.9890  140.0390 C   0  0  0  0  0  2  0  0  0  0  0  0
  191.9950  176.8340  144.8130 N   0  0  0  0  0  2  0  0  0  0  0  0
  190.9790  176.6200  145.7530 N   0  0  0  0  0  2  0  0  0  0  0  0
  193.9180  173.8570  139.8300 C   0  0  0  0  0  0  0  0  0  0  0  0
  195.4960  170.7680  139.3590 C   0  0  0  0  0  1  0  0  0  0  0  0
  191.7470  170.7080  140.4460 N   0  0  0  0  0  0  0  0  0  0  0  0
  193.1130  170.3370  140.2220 C   0  0  0  0  0  0  0  0  0  0  0  0
  189.3840  173.6300  140.3600 C   0  0  0  0  0  1  0  0  0  0  0  0
  193.8350  175.0020  140.6360 C   0  0  0  0  0  3  0  0  0  0  0  0
  193.7430  176.6920  146.3570 O   0  0  0  0  0  0  0  0  0  0  0  0
  190.0090  172.3640  140.9210 C   0  0  2  0  0  3  0  0  0  0  0  0
  193.8800  176.0850  142.8170 N   0  0  0  0  0  2  0  0  0  0  0  0
  194.1870  172.6060  140.4350 C   0  0  0  0  0  0  0  0  0  0  0  0
  193.9100  175.2570  137.7690 C   0  0  0  0  0  2  0  0  0  0  0  0
  193.5990  173.9500  138.3490 C   0  0  1  0  0  3  0  0  0  0  0  0
  195.9190  174.3290  138.2220 O   0  0  0  0  0  1  0  0  0  0  0  0
  194.8000  174.1230  137.4820 N   0  0  0  0  0  0  0  0  0  0  0  0
  187.7750  177.1990  145.6980 N   0  0  0  0  0  0  0  0  0  0  0  0
  188.5900  176.2030  145.8510 C   0  0  0  0  0  3  0  0  0  0  0  0
  185.3690  176.7280  146.1100 N   0  0  0  0  0  1  0  0  0  0  0  0
  186.5960  177.3480  146.4910 C   0  0  0  0  0  0  0  0  0  0  0  0
  186.6400  178.0390  147.5410 O   0  0  0  0  0  0  0  0  0  0  0  0
  2 13  1  0  0  0  0
  2 14  1  1  0  0  0
  3 11  1  0  0  0  0
  3 26  1  0  0  0  0
  4 14  1  0  0  0  0
  5  6  1  0  0  0  0
  6 24  2  0  0  0  0
  7  2  1  0  0  0  0
  8 11  2  0  0  0  0
  9 19  1  1  0  0  0
  9 21  1  0  0  0  0
  9 27  1  0  0  0  0
 12 10  1  6  0  0  0
 12  7  1  0  0  0  0
 12  4  1  0  0  0  0
 13 17  1  0  0  0  0
 13 33  1  1  0  0  0
 15 20  1  0  0  0  0
 15 25  1  0  0  0  0
 16  6  1  0  0  0  0
 16 17  1  0  0  0  0
 18 27  2  0  0  0  0
 18 23  1  0  0  0  0
 21 20  2  0  0  0  0
 21  1  1  0  0  0  0
 23  3  2  0  0  0  0
 25 22  1  6  0  0  0
 25 10  1  0  0  0  0
 26  5  1  0  0  0  0
 27  8  1  0  0  0  0
 28 29  1  0  0  0  0
 29 18  1  1  0  0  0
 31 28  1  0  0  0  0
 31 30  1  0  0  0  0
 31 29  1  0  0  0  0
 32 33  2  0  0  0  0
 32 35  1  0  0  0  0
 34 35  1  0  0  0  0
 35 36  2  0  0  0  0
M  END
>  <MODEL>
6

>  <REMARK>
 VINA RESULT:      -6.4      3.138      5.648
  Name = 
  3 active torsions:
  status: ('A' for Active; 'I' for Inactive)
    1  A    between atoms: N_3  and  C_28
    2  A    between atoms: C_8  and  C_16
    3  A    between atoms: C_21  and  C_23
                            x       y       z     vdW  Elec       q    Type
                         _______ _______ _______ _____ _____    ______ ____

>  <TORSDO>
F 3

$$$$
=
 OpenBabel11042414463D

 36 39  0  0  1  0  0  0  0  0999 V2000
  191.1910  176.2670  148.0910 C   0  0  0  0  0  1  0  0  0  0  0  0
  194.1600  172.0920  142.4490 C   0  0  1  0  0  3  0  0  0  0  0  0
  189.7000  173.5100  142.9440 C   0  0  0  0  0  0  0  0  0  0  0  0
  195.1450  172.4990  144.5410 C   0  0  0  0  0  2  0  0  0  0  0  0
  189.8580  171.1650  142.1910 N   0  0  0  0  0  2  0  0  0  0  0  0
  190.8660  170.3220  141.6390 C   0  0  0  0  0  0  0  0  0  0  0  0
  194.7140  173.3770  142.3770 O   0  0  0  0  0  0  0  0  0  0  0  0
  189.8350  174.1290  145.2840 C   0  0  0  0  0  3  0  0  0  0  0  0
  189.8640  176.5400  146.0080 C   0  0  1  0  0  3  0  0  0  0  0  0
  193.6800  174.4940  144.2310 C   0  0  0  0  0  2  0  0  0  0  0  0
  189.8260  173.1480  144.2910 C   0  0  0  0  0  3  0  0  0  0  0  0
  194.9160  173.7560  143.7170 C   0  0  1  0  0  3  0  0  0  0  0  0
  194.2410  171.3610  141.1020 C   0  0  2  0  0  3  0  0  0  0  0  0
  194.8130  171.3690  143.6070 C   0  0  0  0  0  2  0  0  0  0  0  0
  192.5480  176.6690  144.6440 C   0  0  0  0  0  2  0  0  0  0  0  0
  191.9940  170.9060  140.9830 N   0  0  0  0  0  2  0  0  0  0  0  0
  193.2500  170.2870  141.0480 N   0  0  0  0  0  2  0  0  0  0  0  0
  189.5140  175.8490  143.5910 C   0  0  0  0  0  0  0  0  0  0  0  0
  188.6140  176.6080  146.8880 C   0  0  0  0  0  1  0  0  0  0  0  0
  192.4280  176.4320  146.0760 N   0  0  0  0  0  0  0  0  0  0  0  0
  191.1750  176.4170  146.7700 C   0  0  0  0  0  0  0  0  0  0  0  0
  193.9470  176.4160  142.6370 C   0  0  0  0  0  1  0  0  0  0  0  0
  189.5510  174.8550  142.6020 C   0  0  0  0  0  3  0  0  0  0  0  0
  190.8150  169.0750  141.8310 O   0  0  0  0  0  0  0  0  0  0  0  0
  193.8050  176.0150  144.0950 C   0  0  2  0  0  3  0  0  0  0  0  0
  189.8580  172.5390  141.9130 N   0  0  0  0  0  2  0  0  0  0  0  0
  189.7130  175.4840  144.9440 C   0  0  0  0  0  0  0  0  0  0  0  0
  188.5660  177.5140  141.9970 C   0  0  0  0  0  2  0  0  0  0  0  0
  189.3860  177.3080  143.1920 C   0  0  1  0  0  3  0  0  0  0  0  0
  187.1090  176.8650  143.5980 O   0  0  0  0  0  1  0  0  0  0  0  0
  188.0010  177.8490  143.3120 N   0  0  0  0  0  0  0  0  0  0  0  0
  195.7460  169.5910  140.4240 N   0  0  0  0  0  0  0  0  0  0  0  0
  195.6040  170.8220  140.8000 C   0  0  0  0  0  3  0  0  0  0  0  0
  197.5950  169.0820  138.8420 N   0  0  0  0  0  1  0  0  0  0  0  0
  197.0270  169.0200  140.1490 C   0  0  0  0  0  0  0  0  0  0  0  0
  197.6620  168.4520  141.0740 O   0  0  0  0  0  0  0  0  0  0  0  0
  2 14  1  1  0  0  0
  3 11  1  0  0  0  0
  6 24  2  0  0  0  0
  6  5  1  0  0  0  0
  7  2  1  0  0  0  0
  7 12  1  0  0  0  0
  9 21  1  0  0  0  0
  9 19  1  1  0  0  0
 11  8  2  0  0  0  0
 12 10  1  1  0  0  0
 12  4  1  0  0  0  0
 13 33  1  1  0  0  0
 13  2  1  0  0  0  0
 14  4  1  0  0  0  0
 15 20  1  0  0  0  0
 16 17  1  0  0  0  0
 16  6  1  0  0  0  0
 17 13  1  0  0  0  0
 18 27  2  0  0  0  0
 20 21  2  0  0  0  0
 21  1  1  0  0  0  0
 23  3  2  0  0  0  0
 23 18  1  0  0  0  0
 25 22  1  6  0  0  0
 25 10  1  0  0  0  0
 25 15  1  0  0  0  0
 26  5  1  0  0  0  0
 26  3  1  0  0  0  0
 27  8  1  0  0  0  0
 27  9  1  0  0  0  0
 28 29  1  0  0  0  0
 28 31  1  0  0  0  0
 29 31  1  0  0  0  0
 29 18  1  1  0  0  0
 31 30  1  0  0  0  0
 32 33  2  0  0  0  0
 34 35  1  0  0  0  0
 35 32  1  0  0  0  0
 35 36  2  0  0  0  0
M  END
>  <MODEL>
7

>  <REMARK>
 VINA RESULT:      -6.4      2.911      7.999
  Name = 
  3 active torsions:
  status: ('A' for Active; 'I' for Inactive)
    1  A    between atoms: N_3  and  C_28
    2  A    between atoms: C_8  and  C_16
    3  A    between atoms: C_21  and  C_23
                            x       y       z     vdW  Elec       q    Type
                         _______ _______ _______ _____ _____    ______ ____

>  <TORSDO>
F 3

$$$$
=
 OpenBabel11042414463D

 36 39  0  0  1  0  0  0  0  0999 V2000
  187.8850  176.1720  147.2500 C   0  0  0  0  0  1  0  0  0  0  0  0
  192.9030  174.7240  141.7000 C   0  0  1  0  0  3  0  0  0  0  0  0
  188.2190  175.0170  141.3450 C   0  0  0  0  0  0  0  0  0  0  0  0
  193.3140  174.6070  144.0080 C   0  0  0  0  0  2  0  0  0  0  0  0
  189.1390  173.1230  140.0560 N   0  0  0  0  0  2  0  0  0  0  0  0
  190.4220  172.7180  139.5880 C   0  0  0  0  0  0  0  0  0  0  0  0
  193.0990  176.0440  142.1290 O   0  0  0  0  0  0  0  0  0  0  0  0
  187.7230  174.8510  143.7130 C   0  0  0  0  0  3  0  0  0  0  0  0
  186.9690  176.8510  145.0420 C   0  0  1  0  0  3  0  0  0  0  0  0
  191.4620  176.2720  143.8690 C   0  0  0  0  0  2  0  0  0  0  0  0
  188.1690  174.2660  142.5260 C   0  0  0  0  0  3  0  0  0  0  0  0
  192.9250  175.9960  143.5250 C   0  0  1  0  0  3  0  0  0  0  0  0
  193.4370  174.5040  140.2780 C   0  0  2  0  0  3  0  0  0  0  0  0
  193.4840  173.8030  142.7490 C   0  0  0  0  0  2  0  0  0  0  0  0
  189.7350  177.9320  144.5360 C   0  0  0  0  0  2  0  0  0  0  0  0
  191.4610  173.6900  139.4420 N   0  0  0  0  0  2  0  0  0  0  0  0
  192.7970  173.3370  139.6710 N   0  0  0  0  0  2  0  0  0  0  0  0
  187.2950  176.9340  142.5270 C   0  0  0  0  0  0  0  0  0  0  0  0
  185.5980  176.3850  145.5390 C   0  0  0  0  0  1  0  0  0  0  0  0
  189.4040  177.2220  145.7630 N   0  0  0  0  0  0  0  0  0  0  0  0
  188.0890  176.7400  146.0650 C   0  0  0  0  0  0  0  0  0  0  0  0
  191.5170  178.6230  142.9880 C   0  0  0  0  0  1  0  0  0  0  0  0
  187.7880  176.3450  141.3530 C   0  0  0  0  0  3  0  0  0  0  0  0
  190.6670  171.4920  139.4140 O   0  0  0  0  0  0  0  0  0  0  0  0
  191.2030  177.7480  144.1890 C   0  0  2  0  0  3  0  0  0  0  0  0
  188.8280  174.4850  140.1710 N   0  0  0  0  0  2  0  0  0  0  0  0
  187.3150  176.1920  143.7320 C   0  0  0  0  0  0  0  0  0  0  0  0
  186.1610  178.7810  141.2970 C   0  0  0  0  0  2  0  0  0  0  0  0
  186.8650  178.3900  142.5190 C   0  0  1  0  0  3  0  0  0  0  0  0
  184.7320  177.4040  142.3760 O   0  0  0  0  0  1  0  0  0  0  0  0
  185.3870  178.5830  142.5300 N   0  0  0  0  0  0  0  0  0  0  0  0
  195.6660  175.4110  140.0140 N   0  0  0  0  0  0  0  0  0  0  0  0
  194.9260  174.3670  140.2190 C   0  0  0  0  0  3  0  0  0  0  0  0
  197.8740  174.8890  141.0290 N   0  0  0  0  0  1  0  0  0  0  0  0
  197.0900  175.3300  139.9220 C   0  0  0  0  0  0  0  0  0  0  0  0
  197.6600  175.6550  138.8500 O   0  0  0  0  0  0  0  0  0  0  0  0
  2  7  1  0  0  0  0
  2 14  1  1  0  0  0
  3 23  2  0  0  0  0
  3 11  1  0  0  0  0
  5 26  1  0  0  0  0
  6  5  1  0  0  0  0
  7 12  1  0  0  0  0
  8 27  1  0  0  0  0
  9 19  1  1  0  0  0
  9 21  1  0  0  0  0
 10 25  1  0  0  0  0
 11  8  2  0  0  0  0
 12 10  1  6  0  0  0
 12  4  1  0  0  0  0
 13 33  1  1  0  0  0
 13  2  1  0  0  0  0
 14  4  1  0  0  0  0
 15 20  1  0  0  0  0
 16  6  1  0  0  0  0
 16 17  1  0  0  0  0
 17 13  1  0  0  0  0
 18 27  2  0  0  0  0
 20 21  2  0  0  0  0
 21  1  1  0  0  0  0
 23 18  1  0  0  0  0
 24  6  2  0  0  0  0
 25 22  1  6  0  0  0
 25 15  1  0  0  0  0
 26  3  1  0  0  0  0
 27  9  1  0  0  0  0
 28 29  1  0  0  0  0
 28 31  1  0  0  0  0
 29 18  1  6  0  0  0
 29 31  1  0  0  0  0
 30 31  1  0  0  0  0
 32 33  2  0  0  0  0
 35 32  1  0  0  0  0
 35 34  1  0  0  0  0
 36 35  2  0  0  0  0
M  END
>  <MODEL>
8

>  <REMARK>
 VINA RESULT:      -6.3      2.797      8.139
  Name = 
  3 active torsions:
  status: ('A' for Active; 'I' for Inactive)
    1  A    between atoms: N_3  and  C_28
    2  A    between atoms: C_8  and  C_16
    3  A    between atoms: C_21  and  C_23
                            x       y       z     vdW  Elec       q    Type
                         _______ _______ _______ _____ _____    ______ ____

>  <TORSDO>
F 3

$$$$
=
 OpenBabel11042414463D

 36 39  0  0  1  0  0  0  0  0999 V2000
  191.0200  175.2920  148.0300 C   0  0  0  0  0  1  0  0  0  0  0  0
  193.3500  174.0880  140.8740 C   0  0  1  0  0  3  0  0  0  0  0  0
  188.9300  174.1710  142.4890 C   0  0  0  0  0  0  0  0  0  0  0  0
  194.6820  173.9820  142.8040 C   0  0  0  0  0  2  0  0  0  0  0  0
  189.3100  172.3250  140.8960 N   0  0  0  0  0  2  0  0  0  0  0  0
  190.3010  171.9790  139.9310 C   0  0  0  0  0  0  0  0  0  0  0  0
  193.6530  175.4140  141.2130 O   0  0  0  0  0  0  0  0  0  0  0  0
  189.4640  173.9750  144.8460 C   0  0  0  0  0  3  0  0  0  0  0  0
  189.2470  175.9350  146.4110 C   0  0  1  0  0  3  0  0  0  0  0  0
  192.8740  175.5630  143.4780 C   0  0  0  0  0  2  0  0  0  0  0  0
  189.4030  173.4150  143.5700 C   0  0  0  0  0  3  0  0  0  0  0  0
  194.0740  175.3530  142.5540 C   0  0  1  0  0  3  0  0  0  0  0  0
  193.2580  173.8960  139.3540 C   0  0  2  0  0  3  0  0  0  0  0  0
  194.3490  173.1900  141.5710 C   0  0  0  0  0  2  0  0  0  0  0  0
  191.5120  177.1410  144.8320 C   0  0  0  0  0  2  0  0  0  0  0  0
  191.1470  172.9970  139.3910 N   0  0  0  0  0  2  0  0  0  0  0  0
  192.4720  172.7040  139.0410 N   0  0  0  0  0  2  0  0  0  0  0  0
  188.5020  176.0400  143.9880 C   0  0  0  0  0  0  0  0  0  0  0  0
  188.2230  175.4070  147.4190 C   0  0  0  0  0  1  0  0  0  0  0  0
  191.7460  176.4130  146.0720 N   0  0  0  0  0  0  0  0  0  0  0  0
  190.6930  175.8710  146.8790 C   0  0  0  0  0  0  0  0  0  0  0  0
  192.4660  177.9160  142.7030 C   0  0  0  0  0  1  0  0  0  0  0  0
  188.4890  175.4780  142.7030 C   0  0  0  0  0  3  0  0  0  0  0  0
  190.5010  170.7650  139.6460 O   0  0  0  0  0  0  0  0  0  0  0  0
  192.7120  177.0240  143.9070 C   0  0  2  0  0  3  0  0  0  0  0  0
  189.0210  173.6710  141.1580 N   0  0  0  0  0  2  0  0  0  0  0  0
  189.0470  175.2970  145.0610 C   0  0  0  0  0  0  0  0  0  0  0  0
  187.0600  177.9160  143.2050 C   0  0  0  0  0  2  0  0  0  0  0  0
  188.0490  177.4760  144.1890 C   0  0  1  0  0  3  0  0  0  0  0  0
  185.9690  176.4170  144.4960 O   0  0  0  0  0  1  0  0  0  0  0  0
  186.6150  177.6090  144.5720 N   0  0  0  0  0  0  0  0  0  0  0  0
  195.0990  174.8840  138.1310 N   0  0  0  0  0  0  0  0  0  0  0  0
  194.5940  173.8260  138.6830 C   0  0  0  0  0  3  0  0  0  0  0  0
  197.4490  175.6630  137.9090 N   0  0  0  0  0  1  0  0  0  0  0  0
  196.3570  174.8650  137.4550 C   0  0  0  0  0  0  0  0  0  0  0  0
  196.5040  174.1340  136.4420 O   0  0  0  0  0  0  0  0  0  0  0  0
  2  7  1  0  0  0  0
  2 14  1  6  0  0  0
  3 23  2  0  0  0  0
  3 11  1  0  0  0  0
  5 26  1  0  0  0  0
  6  5  1  0  0  0  0
  7 12  1  0  0  0  0
  8 27  1  0  0  0  0
  9 21  1  0  0  0  0
  9 19  1  1  0  0  0
 10 25  1  0  0  0  0
 11  8  2  0  0  0  0
 12  4  1  1  0  0  0
 12 10  1  0  0  0  0
 13 33  1  1  0  0  0
 13  2  1  0  0  0  0
 14  4  1  0  0  0  0
 15 20  1  0  0  0  0
 16  6  1  0  0  0  0
 17 13  1  0  0  0  0
 17 16  1  0  0  0  0
 18 27  2  0  0  0  0
 20 21  2  0  0  0  0
 21  1  1  0  0  0  0
 23 18  1  0  0  0  0
 24  6  2  0  0  0  0
 25 22  1  6  0  0  0
 25 15  1  0  0  0  0
 26  3  1  0  0  0  0
 27  9  1  0  0  0  0
 28 29  1  0  0  0  0
 28 31  1  0  0  0  0
 29 18  1  6  0  0  0
 29 31  1  0  0  0  0
 30 31  1  0  0  0  0
 32 33  2  0  0  0  0
 35 34  1  0  0  0  0
 35 32  1  0  0  0  0
 36 35  2  0  0  0  0
M  END
>  <MODEL>
9

>  <REMARK>
 VINA RESULT:      -6.3      3.111      7.521
  Name = 
  3 active torsions:
  status: ('A' for Active; 'I' for Inactive)
    1  A    between atoms: N_3  and  C_28
    2  A    between atoms: C_8  and  C_16
    3  A    between atoms: C_21  and  C_23
                            x       y       z     vdW  Elec       q    Type
                         _______ _______ _______ _____ _____    ______ ____

>  <TORSDO>
F 3

$$$$
