=
 OpenBabel11042416223D

 38 43  0  0  1  0  0  0  0  0999 V2000
  191.0450  174.3510  145.4190 N   0  0  0  0  0  0  0  0  0  0  0  0
  189.7030  174.2750  145.9670 C   0  0  0  0  0  2  0  0  0  0  0  0
  194.8430  176.5250  144.8120 N   0  0  0  0  0  0  0  0  0  0  0  0
  192.9810  171.6530  143.9310 N   0  0  0  0  0  0  0  0  0  0  0  0
  195.9800  174.3310  144.2910 S   0  0  0  0  0  0  0  0  0  0  0  0
  190.5040  176.5670  146.0530 C   0  0  0  0  0  2  0  0  0  0  0  0
  191.0920  169.9430  141.3970 C   0  0  0  0  0  0  0  0  0  0  0  0
  189.2610  175.7020  146.2170 C   0  0  1  0  0  3  0  0  0  0  0  0
  191.6910  176.2030  143.9280 C   0  0  0  0  0  1  0  0  0  0  0  0
  192.8650  172.6350  144.7610 C   0  0  0  0  0  0  0  0  0  0  0  0
  191.7210  171.6450  143.2690 C   0  0  0  0  0  0  0  0  0  0  0  0
  192.8580  175.8720  146.1750 C   0  0  0  0  0  2  0  0  0  0  0  0
  190.8370  172.6540  143.7410 N   0  0  0  0  0  0  0  0  0  0  0  0
  191.4060  170.7930  142.3330 C   0  0  0  0  0  0  0  0  0  0  0  0
  191.5490  173.2630  144.6310 C   0  0  0  0  0  0  0  0  0  0  0  0
  190.5680  168.7020  141.7390 O   0  0  0  0  0  1  0  0  0  0  0  0
  193.9390  173.0180  145.7150 C   0  0  0  0  0  2  0  0  0  0  0  0
  194.1100  175.5540  145.4170 C   0  0  0  0  0  0  0  0  0  0  0  0
  191.5600  175.7170  145.3690 C   0  0  2  0  0  0  0  0  0  0  0  0
  195.9070  176.0060  144.1570 C   0  0  0  0  0  0  0  0  0  0  0  0
  194.5990  174.2650  145.2460 C   0  0  0  0  0  0  0  0  0  0  0  0
  196.8320  176.7700  143.4460 O   0  0  0  0  0  0  0  0  0  0  0  0
  197.8740  176.1670  142.6960 C   0  0  0  0  0  1  0  0  0  0  0  0
  191.3010  170.3110  139.9630 C   0  0  2  0  0  3  0  0  0  0  0  0
  191.4620  172.6370  139.0770 C   0  0  0  0  0  1  0  0  0  0  0  0
  190.5310  171.5800  139.6400 C   0  0  0  0  0  2  0  0  0  0  0  0
  189.7580  169.5730  138.2910 O   0  0  0  0  0  1  0  0  0  0  0  0
  190.8590  169.1740  139.0510 C   0  0  0  0  0  2  0  0  0  0  0  0
  188.2130  176.0830  145.1800 C   0  0  0  0  0  2  0  0  0  0  0  0
  186.6450  178.0410  144.8900 C   0  0  0  0  0  0  0  0  0  0  0  0
  185.7650  178.9600  145.3910 C   0  0  1  0  0  3  0  0  0  0  0  0
  186.0450  178.0780  147.6010 C   0  0  0  0  0  3  0  0  0  0  0  0
  186.7660  178.2540  143.4240 C   0  0  0  0  0  3  0  0  0  0  0  0
  185.8610  179.3830  143.1900 N   0  0  0  0  0  0  0  0  0  0  0  0
  185.3010  179.7770  144.2930 C   0  0  0  0  0  3  0  0  0  0  0  0
  185.4380  179.0120  146.7450 C   0  0  0  0  0  3  0  0  0  0  0  0
  187.2650  177.1030  145.7220 C   0  0  0  0  0  0  0  0  0  0  0  0
  186.9530  177.1270  147.0920 C   0  0  0  0  0  3  0  0  0  0  0  0
  1  2  1  0  0  0  0
  2  8  1  0  0  0  0
  3 18  1  0  0  0  0
  4 10  2  0  0  0  0
  5 21  1  0  0  0  0
  6  8  1  0  0  0  0
  7 16  1  0  0  0  0
  7 14  2  0  0  0  0
  8 29  1  6  0  0  0
 10 17  1  0  0  0  0
 11 13  1  0  0  0  0
 11  4  1  0  0  0  0
 13 15  2  0  0  0  0
 14 11  2  0  0  0  0
 15 10  1  0  0  0  0
 15  1  1  0  0  0  0
 18 12  1  0  0  0  0
 19  9  1  6  0  0  0
 19  1  1  0  0  0  0
 19  6  1  0  0  0  0
 19 12  1  0  0  0  0
 20  5  1  0  0  0  0
 20  3  2  0  0  0  0
 21 18  2  0  0  0  0
 21 17  1  0  0  0  0
 22 20  1  0  0  0  0
 23 22  1  0  0  0  0
 24 28  1  6  0  0  0
 24  7  1  0  0  0  0
 25 26  1  0  0  0  0
 26 24  1  0  0  0  0
 27 28  1  0  0  0  0
 29 37  1  0  0  0  0
 30 31  1  0  0  0  0
 30 37  1  0  0  0  0
 31 35  1  6  0  0  0
 31 36  1  0  0  0  0
 33 30  2  0  0  0  0
 34 33  1  0  0  0  0
 34 35  2  0  0  0  0
 36 32  2  0  0  0  0
 37 38  2  0  0  0  0
 38 32  1  0  0  0  0
M  END
>  <MODEL>
1

>  <REMARK>
 VINA RESULT:      -8.8      0.000      0.000
  Name = 
  6 active torsions:
  status: ('A' for Active; 'I' for Inactive)
    1  A    between atoms: C_2  and  C_11
    2  A    between atoms: C_2  and  C_27
    3  A    between atoms: C_2  and  C_31
    4  A    between atoms: O_8  and  C_35
    5  A    between atoms: C_13  and  C_21
    6  A    between atoms: C_21  and  C_36
                            x       y       z     vdW  Elec       q    Type
                         _______ _______ _______ _____ _____    ______ ____

>  <TORSDO>
F 6

$$$$
=
 OpenBabel11042416223D

 38 43  0  0  1  0  0  0  0  0999 V2000
  190.2730  175.1900  144.7140 N   0  0  0  0  0  0  0  0  0  0  0  0
  188.9100  175.4710  145.1260 C   0  0  0  0  0  2  0  0  0  0  0  0
  194.6340  175.6730  145.2390 N   0  0  0  0  0  0  0  0  0  0  0  0
  191.3870  172.7120  142.2950 N   0  0  0  0  0  0  0  0  0  0  0  0
  194.9990  173.5780  143.8760 S   0  0  0  0  0  0  0  0  0  0  0  0
  190.4360  177.0180  146.2110 C   0  0  0  0  0  2  0  0  0  0  0  0
  189.5810  173.0100  139.2020 C   0  0  0  0  0  0  0  0  0  0  0  0
  188.9620  176.7450  145.9420 C   0  0  1  0  0  3  0  0  0  0  0  0
  191.8280  177.0260  144.1810 C   0  0  0  0  0  1  0  0  0  0  0  0
  191.4590  173.2640  143.4590 C   0  0  0  0  0  0  0  0  0  0  0  0
  190.3730  173.4680  141.6440 C   0  0  0  0  0  0  0  0  0  0  0  0
  192.3110  175.4310  146.1160 C   0  0  0  0  0  2  0  0  0  0  0  0
  189.8280  174.4920  142.4660 N   0  0  0  0  0  0  0  0  0  0  0  0
  189.9750  173.2390  140.4230 C   0  0  0  0  0  0  0  0  0  0  0  0
  190.5090  174.3740  143.5580 C   0  0  0  0  0  0  0  0  0  0  0  0
  188.5920  172.0640  138.9630 O   0  0  0  0  0  1  0  0  0  0  0  0
  192.3780  172.7860  144.5260 C   0  0  0  0  0  2  0  0  0  0  0  0
  193.4950  174.9380  145.3430 C   0  0  0  0  0  0  0  0  0  0  0  0
  191.2390  176.1350  145.2710 C   0  0  2  0  0  0  0  0  0  0  0  0
  195.5550  175.0510  144.4660 C   0  0  0  0  0  0  0  0  0  0  0  0
  193.5190  173.7300  144.6590 C   0  0  0  0  0  0  0  0  0  0  0  0
  196.8160  175.5750  144.1850 O   0  0  0  0  0  0  0  0  0  0  0  0
  197.0010  176.5740  143.1950 C   0  0  0  0  0  1  0  0  0  0  0  0
  190.1980  173.7690  138.0720 C   0  0  2  0  0  3  0  0  0  0  0  0
  189.8140  174.5850  135.7460 C   0  0  0  0  0  1  0  0  0  0  0  0
  189.3290  173.6430  136.8310 C   0  0  0  0  0  2  0  0  0  0  0  0
  192.5460  174.2260  138.1310 O   0  0  0  0  0  1  0  0  0  0  0  0
  191.6040  173.2540  137.7890 C   0  0  0  0  0  2  0  0  0  0  0  0
  188.3560  177.8800  145.1270 C   0  0  0  0  0  2  0  0  0  0  0  0
  185.9510  178.3000  144.4840 C   0  0  0  0  0  0  0  0  0  0  0  0
  184.6320  178.4660  144.8060 C   0  0  1  0  0  3  0  0  0  0  0  0
  185.1320  178.2050  147.1350 C   0  0  0  0  0  3  0  0  0  0  0  0
  186.0920  178.3930  143.0060 C   0  0  0  0  0  3  0  0  0  0  0  0
  184.7120  178.6280  142.5700 N   0  0  0  0  0  0  0  0  0  0  0  0
  183.8960  178.6680  143.5790 C   0  0  0  0  0  3  0  0  0  0  0  0
  184.1810  178.4260  146.1240 C   0  0  0  0  0  3  0  0  0  0  0  0
  186.9170  178.0820  145.4710 C   0  0  0  0  0  0  0  0  0  0  0  0
  186.4930  178.0330  146.8110 C   0  0  0  0  0  3  0  0  0  0  0  0
  1  2  1  0  0  0  0
  1 19  1  0  0  0  0
  2  8  1  0  0  0  0
  3 18  1  0  0  0  0
  4 10  2  0  0  0  0
  5 20  1  0  0  0  0
  5 21  1  0  0  0  0
  7 14  2  0  0  0  0
  8 29  1  6  0  0  0
  8  6  1  0  0  0  0
 10 15  1  0  0  0  0
 10 17  1  0  0  0  0
 11  4  1  0  0  0  0
 11 13  1  0  0  0  0
 13 15  2  0  0  0  0
 14 11  2  0  0  0  0
 15  1  1  0  0  0  0
 16  7  1  0  0  0  0
 17 21  1  0  0  0  0
 18 12  1  0  0  0  0
 19  9  1  6  0  0  0
 19 12  1  0  0  0  0
 19  6  1  0  0  0  0
 20  3  2  0  0  0  0
 21 18  2  0  0  0  0
 22 20  1  0  0  0  0
 23 22  1  0  0  0  0
 24 26  1  6  0  0  0
 24  7  1  0  0  0  0
 25 26  1  0  0  0  0
 28 24  1  0  0  0  0
 28 27  1  0  0  0  0
 29 37  1  0  0  0  0
 30 31  1  0  0  0  0
 30 37  1  0  0  0  0
 31 35  1  6  0  0  0
 31 36  1  0  0  0  0
 33 30  2  0  0  0  0
 34 33  1  0  0  0  0
 34 35  2  0  0  0  0
 36 32  2  0  0  0  0
 37 38  2  0  0  0  0
 38 32  1  0  0  0  0
M  END
>  <MODEL>
2

>  <REMARK>
 VINA RESULT:      -8.3      1.853      2.373
  Name = 
  6 active torsions:
  status: ('A' for Active; 'I' for Inactive)
    1  A    between atoms: C_2  and  C_11
    2  A    between atoms: C_2  and  C_27
    3  A    between atoms: C_2  and  C_31
    4  A    between atoms: O_8  and  C_35
    5  A    between atoms: C_13  and  C_21
    6  A    between atoms: C_21  and  C_36
                            x       y       z     vdW  Elec       q    Type
                         _______ _______ _______ _____ _____    ______ ____

>  <TORSDO>
F 6

$$$$
=
 OpenBabel11042416223D

 38 43  0  0  1  0  0  0  0  0999 V2000
  190.3330  175.4590  142.1530 N   0  0  0  0  0  0  0  0  0  0  0  0
  189.8090  176.8020  142.3200 C   0  0  0  0  0  2  0  0  0  0  0  0
  189.7070  171.1250  141.5610 N   0  0  0  0  0  0  0  0  0  0  0  0
  193.7880  174.4900  141.5540 N   0  0  0  0  0  0  0  0  0  0  0  0
  192.0810  170.9290  140.7200 S   0  0  0  0  0  0  0  0  0  0  0  0
  188.0290  175.1770  142.6260 C   0  0  0  0  0  2  0  0  0  0  0  0
  195.9970  176.0020  143.9520 C   0  0  0  0  0  0  0  0  0  0  0  0
  188.3800  176.6500  142.7980 C   0  0  1  0  0  3  0  0  0  0  0  0
  189.6460  173.6450  143.6740 C   0  0  0  0  0  1  0  0  0  0  0  0
  192.5330  174.4370  141.2570 C   0  0  0  0  0  0  0  0  0  0  0  0
  193.8110  175.3470  142.6900 C   0  0  0  0  0  0  0  0  0  0  0  0
  189.1230  173.5200  141.1780 C   0  0  0  0  0  2  0  0  0  0  0  0
  192.5210  175.8170  143.0590 N   0  0  0  0  0  0  0  0  0  0  0  0
  194.9040  175.6760  143.3210 C   0  0  0  0  0  0  0  0  0  0  0  0
  191.7500  175.2420  142.1960 C   0  0  0  0  0  0  0  0  0  0  0  0
  196.7510  177.0840  143.5120 O   0  0  0  0  0  1  0  0  0  0  0  0
  192.0090  173.6720  140.0950 C   0  0  0  0  0  2  0  0  0  0  0  0
  190.0580  172.3530  141.0960 C   0  0  0  0  0  0  0  0  0  0  0  0
  189.3290  174.4260  142.4000 C   0  0  2  0  0  0  0  0  0  0  0  0
  190.7170  170.2350  141.4170 C   0  0  0  0  0  0  0  0  0  0  0  0
  191.3430  172.4330  140.5760 C   0  0  0  0  0  0  0  0  0  0  0  0
  190.6380  168.9000  141.8100 O   0  0  0  0  0  0  0  0  0  0  0  0
  191.7730  168.2000  142.2950 C   0  0  0  0  0  1  0  0  0  0  0  0
  196.4270  175.2090  145.1430 C   0  0  2  0  0  3  0  0  0  0  0  0
  196.9430  172.8410  145.7360 C   0  0  0  0  0  1  0  0  0  0  0  0
  197.1090  173.9280  144.6910 C   0  0  0  0  0  2  0  0  0  0  0  0
  194.6960  176.0650  146.5550 O   0  0  0  0  0  1  0  0  0  0  0  0
  195.2320  174.8880  146.0310 C   0  0  0  0  0  2  0  0  0  0  0  0
  188.3070  177.0410  144.2680 C   0  0  0  0  0  2  0  0  0  0  0  0
  186.5250  177.9200  145.8260 C   0  0  0  0  0  0  0  0  0  0  0  0
  185.4190  178.6850  146.0770 C   0  0  0  0  0  0  0  0  0  0  0  0
  185.3470  179.3980  143.7900 C   0  0  0  0  0  3  0  0  0  0  0  0
  186.9350  177.2530  147.0890 C   0  0  0  0  0  3  0  0  0  0  0  0
  185.9340  177.7370  148.0440 N   0  0  0  0  0  0  0  0  0  0  0  0
  185.0860  178.5400  147.4760 C   0  0  0  0  0  3  0  0  0  0  0  0
  184.7990  179.4400  145.0840 C   0  0  0  0  0  2  0  0  0  0  0  0
  187.0880  177.8590  144.5470 C   0  0  0  0  0  0  0  0  0  0  0  0
  186.4870  178.6120  143.5240 C   0  0  0  0  0  3  0  0  0  0  0  0
  1 15  1  0  0  0  0
  1  2  1  0  0  0  0
  1 19  1  0  0  0  0
  2  8  1  0  0  0  0
  4 11  1  0  0  0  0
  5 20  1  0  0  0  0
  6  8  1  0  0  0  0
  7 24  1  0  0  0  0
  8 29  1  1  0  0  0
 10  4  2  0  0  0  0
 10 15  1  0  0  0  0
 11 13  1  0  0  0  0
 11 14  2  0  0  0  0
 12 19  1  0  0  0  0
 14  7  2  0  0  0  0
 15 13  2  0  0  0  0
 16  7  1  0  0  0  0
 17 21  1  0  0  0  0
 17 10  1  0  0  0  0
 18 12  1  0  0  0  0
 18  3  1  0  0  0  0
 19  6  1  0  0  0  0
 19  9  1  1  0  0  0
 20  3  2  0  0  0  0
 20 22  1  0  0  0  0
 21  5  1  0  0  0  0
 21 18  2  0  0  0  0
 22 23  1  0  0  0  0
 24 26  1  6  0  0  0
 24 28  1  0  0  0  0
 26 25  1  0  0  0  0
 28 27  1  0  0  0  0
 29 37  1  0  0  0  0
 30 31  1  0  0  0  0
 30 33  1  0  0  0  0
 31 35  2  0  0  0  0
 32 36  1  0  0  0  0
 33 34  2  0  0  0  0
 35 34  1  0  0  0  0
 36 31  1  0  0  0  0
 37 30  2  0  0  0  0
 38 32  2  0  0  0  0
 38 37  1  0  0  0  0
M  END
>  <MODEL>
3

>  <REMARK>
 VINA RESULT:      -8.0      2.424      6.223
  Name = 
  6 active torsions:
  status: ('A' for Active; 'I' for Inactive)
    1  A    between atoms: C_2  and  C_11
    2  A    between atoms: C_2  and  C_27
    3  A    between atoms: C_2  and  C_31
    4  A    between atoms: O_8  and  C_35
    5  A    between atoms: C_13  and  C_21
    6  A    between atoms: C_21  and  C_36
                            x       y       z     vdW  Elec       q    Type
                         _______ _______ _______ _____ _____    ______ ____

>  <TORSDO>
F 6

$$$$
=
 OpenBabel11042416223D

 38 43  0  0  1  0  0  0  0  0999 V2000
  190.1170  174.9280  144.2170 N   0  0  0  0  0  0  0  0  0  0  0  0
  188.7920  175.4470  144.5020 C   0  0  0  0  0  2  0  0  0  0  0  0
  194.4040  174.5440  145.2200 N   0  0  0  0  0  0  0  0  0  0  0  0
  191.0180  172.3850  141.7760 N   0  0  0  0  0  0  0  0  0  0  0  0
  194.5240  172.4760  143.7740 S   0  0  0  0  0  0  0  0  0  0  0  0
  190.4460  176.6260  145.8340 C   0  0  0  0  0  2  0  0  0  0  0  0
  189.6620  173.1530  138.5380 C   0  0  0  0  0  0  0  0  0  0  0  0
  188.9870  176.6530  145.3970 C   0  0  1  0  0  3  0  0  0  0  0  0
  192.0370  176.4520  143.9630 C   0  0  0  0  0  1  0  0  0  0  0  0
  191.0590  172.8640  142.9730 C   0  0  0  0  0  0  0  0  0  0  0  0
  190.2420  173.3480  141.0720 C   0  0  0  0  0  0  0  0  0  0  0  0
  191.9910  174.7150  145.8350 C   0  0  0  0  0  2  0  0  0  0  0  0
  189.8080  174.4230  141.8960 N   0  0  0  0  0  0  0  0  0  0  0  0
  189.9510  173.2500  139.8050 C   0  0  0  0  0  0  0  0  0  0  0  0
  190.3270  174.1300  143.0430 C   0  0  0  0  0  0  0  0  0  0  0  0
  188.5470  172.4250  138.1380 O   0  0  0  0  0  1  0  0  0  0  0  0
  191.7450  172.1750  144.0980 C   0  0  0  0  0  2  0  0  0  0  0  0
  193.1430  174.0370  145.1590 C   0  0  0  0  0  0  0  0  0  0  0  0
  191.1720  175.6460  144.9290 C   0  0  2  0  0  0  0  0  0  0  0  0
  195.2740  173.7890  144.5100 C   0  0  0  0  0  0  0  0  0  0  0  0
  193.0190  172.8760  144.4070 C   0  0  0  0  0  0  0  0  0  0  0  0
  196.6340  174.0730  144.3940 O   0  0  0  0  0  0  0  0  0  0  0  0
  197.0930  175.3080  143.8690 C   0  0  0  0  0  1  0  0  0  0  0  0
  190.5340  173.8250  137.5270 C   0  0  2  0  0  3  0  0  0  0  0  0
  190.8340  172.5860  135.3820 C   0  0  0  0  0  1  0  0  0  0  0  0
  189.9800  173.5910  136.1310 C   0  0  0  0  0  2  0  0  0  0  0  0
  192.8130  174.3230  138.0560 O   0  0  0  0  0  1  0  0  0  0  0  0
  191.9620  173.3050  137.6240 C   0  0  0  0  0  2  0  0  0  0  0  0
  188.7000  177.9160  144.5960 C   0  0  0  0  0  2  0  0  0  0  0  0
  186.3170  178.2210  145.3720 C   0  0  0  0  0  0  0  0  0  0  0  0
  184.9810  178.3740  145.1210 C   0  0  0  0  0  0  0  0  0  0  0  0
  185.3720  178.2330  142.7610 C   0  0  0  0  0  3  0  0  0  0  0  0
  186.5290  178.2580  146.8440 C   0  0  0  0  0  3  0  0  0  0  0  0
  185.1680  178.4460  147.3550 N   0  0  0  0  0  0  0  0  0  0  0  0
  184.3020  178.5110  146.3900 C   0  0  0  0  0  3  0  0  0  0  0  0
  184.4680  178.3860  143.8260 C   0  0  0  0  0  2  0  0  0  0  0  0
  187.2370  178.0640  144.3310 C   0  0  0  0  0  0  0  0  0  0  0  0
  186.7510  178.0750  143.0120 C   0  0  0  0  0  3  0  0  0  0  0  0
  1  2  1  0  0  0  0
  1 19  1  0  0  0  0
  2  8  1  0  0  0  0
  4 10  2  0  0  0  0
  5 21  1  0  0  0  0
  5 20  1  0  0  0  0
  7 14  2  0  0  0  0
  8 29  1  6  0  0  0
  8  6  1  0  0  0  0
 10 15  1  0  0  0  0
 10 17  1  0  0  0  0
 11  4  1  0  0  0  0
 11 13  1  0  0  0  0
 13 15  2  0  0  0  0
 14 11  2  0  0  0  0
 15  1  1  0  0  0  0
 16  7  1  0  0  0  0
 17 21  1  0  0  0  0
 18  3  1  0  0  0  0
 18 12  1  0  0  0  0
 19  9  1  6  0  0  0
 19  6  1  0  0  0  0
 19 12  1  0  0  0  0
 20  3  2  0  0  0  0
 21 18  2  0  0  0  0
 22 20  1  0  0  0  0
 23 22  1  0  0  0  0
 24 26  1  6  0  0  0
 24 28  1  0  0  0  0
 24  7  1  0  0  0  0
 25 26  1  0  0  0  0
 28 27  1  0  0  0  0
 30 33  1  0  0  0  0
 31 30  1  0  0  0  0
 31 35  2  0  0  0  0
 32 38  2  0  0  0  0
 32 36  1  0  0  0  0
 33 34  2  0  0  0  0
 35 34  1  0  0  0  0
 36 31  1  0  0  0  0
 37 29  1  0  0  0  0
 37 30  2  0  0  0  0
 38 37  1  0  0  0  0
M  END
>  <MODEL>
4

>  <REMARK>
 VINA RESULT:      -7.5      2.159      3.066
  Name = 
  6 active torsions:
  status: ('A' for Active; 'I' for Inactive)
    1  A    between atoms: C_2  and  C_11
    2  A    between atoms: C_2  and  C_27
    3  A    between atoms: C_2  and  C_31
    4  A    between atoms: O_8  and  C_35
    5  A    between atoms: C_13  and  C_21
    6  A    between atoms: C_21  and  C_36
                            x       y       z     vdW  Elec       q    Type
                         _______ _______ _______ _____ _____    ______ ____

>  <TORSDO>
F 6

$$$$
=
 OpenBabel11042416223D

 38 43  0  0  1  0  0  0  0  0999 V2000
  190.1650  175.0470  141.8460 N   0  0  0  0  0  0  0  0  0  0  0  0
  189.6460  176.2900  142.3860 C   0  0  0  0  0  2  0  0  0  0  0  0
  189.6060  171.3110  139.5540 N   0  0  0  0  0  0  0  0  0  0  0  0
  193.6410  173.9850  141.6870 N   0  0  0  0  0  0  0  0  0  0  0  0
  192.1080  171.1700  139.2330 S   0  0  0  0  0  0  0  0  0  0  0  0
  187.8100  174.8690  141.6710 C   0  0  0  0  0  2  0  0  0  0  0  0
  195.2400  174.2830  144.8920 C   0  0  0  0  0  0  0  0  0  0  0  0
  188.1410  176.1340  142.4530 C   0  0  1  0  0  3  0  0  0  0  0  0
  189.0930  172.8960  142.3900 C   0  0  0  0  0  1  0  0  0  0  0  0
  192.4940  174.1800  141.1290 C   0  0  0  0  0  0  0  0  0  0  0  0
  193.4090  174.3690  143.0370 C   0  0  0  0  0  0  0  0  0  0  0  0
  189.1840  173.7330  139.9790 C   0  0  0  0  0  2  0  0  0  0  0  0
  192.0780  174.8140  143.2680 N   0  0  0  0  0  0  0  0  0  0  0  0
  194.3240  174.3280  143.9650 C   0  0  0  0  0  0  0  0  0  0  0  0
  191.5260  174.6750  142.1090 C   0  0  0  0  0  0  0  0  0  0  0  0
  196.1010  175.3610  145.0620 O   0  0  0  0  0  1  0  0  0  0  0  0
  192.2480  173.9450  139.6810 C   0  0  0  0  0  2  0  0  0  0  0  0
  190.0850  172.5780  139.6690 C   0  0  0  0  0  0  0  0  0  0  0  0
  189.1100  174.1110  141.4660 C   0  0  2  0  0  0  0  0  0  0  0  0
  190.6010  170.4270  139.3080 C   0  0  0  0  0  0  0  0  0  0  0  0
  191.4600  172.6970  139.5070 C   0  0  0  0  0  0  0  0  0  0  0  0
  190.4010  169.0570  139.1450 O   0  0  0  0  0  0  0  0  0  0  0  0
  190.4450  168.4470  137.8640 C   0  0  0  0  0  1  0  0  0  0  0  0
  195.3540  173.0730  145.7610 C   0  0  2  0  0  3  0  0  0  0  0  0
  197.4810  172.1970  144.7970 C   0  0  0  0  0  1  0  0  0  0  0  0
  196.8180  172.7710  146.0350 C   0  0  0  0  0  2  0  0  0  0  0  0
  194.5540  170.8330  146.0190 O   0  0  0  0  0  1  0  0  0  0  0  0
  194.6790  171.8770  145.1020 C   0  0  0  0  0  2  0  0  0  0  0  0
  187.7240  175.9780  143.9090 C   0  0  0  0  0  2  0  0  0  0  0  0
  186.2930  177.2390  145.5630 C   0  0  0  0  0  0  0  0  0  0  0  0
  185.2570  178.0810  145.8590 C   0  0  0  0  0  0  0  0  0  0  0  0
  184.7130  178.2860  143.5340 C   0  0  0  0  0  3  0  0  0  0  0  0
  186.9580  176.8430  146.8330 C   0  0  0  0  0  3  0  0  0  0  0  0
  186.1700  177.5600  147.8400 N   0  0  0  0  0  0  0  0  0  0  0  0
  185.2180  178.2530  147.2940 C   0  0  0  0  0  3  0  0  0  0  0  0
  184.4410  178.6270  144.8700 C   0  0  0  0  0  2  0  0  0  0  0  0
  186.5830  176.8810  144.2430 C   0  0  0  0  0  0  0  0  0  0  0  0
  185.7800  177.4190  143.2220 C   0  0  0  0  0  3  0  0  0  0  0  0
  1 15  1  0  0  0  0
  1  2  1  0  0  0  0
  2  8  1  0  0  0  0
  3 18  1  0  0  0  0
  4 11  1  0  0  0  0
  5 20  1  0  0  0  0
  5 21  1  0  0  0  0
  6  8  1  0  0  0  0
  7 16  1  0  0  0  0
  7 24  1  0  0  0  0
  8 29  1  1  0  0  0
 10  4  2  0  0  0  0
 10 15  1  0  0  0  0
 11 13  1  0  0  0  0
 11 14  2  0  0  0  0
 12 19  1  0  0  0  0
 14  7  2  0  0  0  0
 15 13  2  0  0  0  0
 17 10  1  0  0  0  0
 18 12  1  0  0  0  0
 19  6  1  0  0  0  0
 19  1  1  0  0  0  0
 19  9  1  1  0  0  0
 20  3  2  0  0  0  0
 21 18  2  0  0  0  0
 21 17  1  0  0  0  0
 22 20  1  0  0  0  0
 23 22  1  0  0  0  0
 24 28  1  6  0  0  0
 24 26  1  0  0  0  0
 25 26  1  0  0  0  0
 28 27  1  0  0  0  0
 29 37  1  0  0  0  0
 30 31  1  0  0  0  0
 30 33  1  0  0  0  0
 31 35  2  0  0  0  0
 32 36  1  0  0  0  0
 33 34  2  0  0  0  0
 35 34  1  0  0  0  0
 36 31  1  0  0  0  0
 37 30  2  0  0  0  0
 38 32  2  0  0  0  0
 38 37  1  0  0  0  0
M  END
>  <MODEL>
5

>  <REMARK>
 VINA RESULT:      -7.4      2.769      6.178
  Name = 
  6 active torsions:
  status: ('A' for Active; 'I' for Inactive)
    1  A    between atoms: C_2  and  C_11
    2  A    between atoms: C_2  and  C_27
    3  A    between atoms: C_2  and  C_31
    4  A    between atoms: O_8  and  C_35
    5  A    between atoms: C_13  and  C_21
    6  A    between atoms: C_21  and  C_36
                            x       y       z     vdW  Elec       q    Type
                         _______ _______ _______ _____ _____    ______ ____

>  <TORSDO>
F 6

$$$$
=
 OpenBabel11042416223D

 38 43  0  0  1  0  0  0  0  0999 V2000
  191.4550  173.4890  143.1570 N   0  0  0  0  0  0  0  0  0  0  0  0
  191.7980  173.4360  144.5660 C   0  0  0  0  0  2  0  0  0  0  0  0
  192.5470  172.9930  138.9040 N   0  0  0  0  0  0  0  0  0  0  0  0
  188.1460  173.8860  141.6980 N   0  0  0  0  0  0  0  0  0  0  0  0
  190.0940  172.8260  138.3260 S   0  0  0  0  0  0  0  0  0  0  0  0
  193.8180  173.3470  143.2200 C   0  0  0  0  0  2  0  0  0  0  0  0
  186.4240  176.6980  143.1270 C   0  0  0  0  0  0  0  0  0  0  0  0
  193.3070  173.5240  144.6440 C   0  0  1  0  0  3  0  0  0  0  0  0
  192.7700  174.8700  141.5960 C   0  0  0  0  0  1  0  0  0  0  0  0
  189.2760  173.2690  141.7810 C   0  0  0  0  0  0  0  0  0  0  0  0
  188.2860  174.9380  142.6460 C   0  0  0  0  0  0  0  0  0  0  0  0
  192.6510  172.3360  141.3090 C   0  0  0  0  0  2  0  0  0  0  0  0
  189.5430  174.9240  143.3110 N   0  0  0  0  0  0  0  0  0  0  0  0
  187.3550  175.8180  142.8880 C   0  0  0  0  0  0  0  0  0  0  0  0
  190.1440  173.9200  142.7630 C   0  0  0  0  0  0  0  0  0  0  0  0
  185.4300  176.4150  144.0570 O   0  0  0  0  0  1  0  0  0  0  0  0
  189.5940  172.0540  140.9850 C   0  0  0  0  0  2  0  0  0  0  0  0
  191.9100  172.5700  140.0280 C   0  0  0  0  0  0  0  0  0  0  0  0
  192.6310  173.5170  142.2890 C   0  0  2  0  0  0  0  0  0  0  0  0
  191.6790  173.1720  137.8820 C   0  0  0  0  0  0  0  0  0  0  0  0
  190.5380  172.4080  139.8920 C   0  0  0  0  0  0  0  0  0  0  0  0
  192.0540  173.6030  136.6100 O   0  0  0  0  0  0  0  0  0  0  0  0
  191.9230  174.9600  136.2160 C   0  0  0  0  0  1  0  0  0  0  0  0
  186.4350  178.0030  142.3980 C   0  0  2  0  0  3  0  0  0  0  0  0
  185.5680  179.7900  143.9070 C   0  0  0  0  0  1  0  0  0  0  0  0
  185.2180  178.8240  142.7910 C   0  0  0  0  0  2  0  0  0  0  0  0
  185.2920  178.2810  140.3150 O   0  0  0  0  0  1  0  0  0  0  0  0
  186.4560  177.7720  140.8930 C   0  0  0  0  0  2  0  0  0  0  0  0
  193.6950  174.8970  145.1760 C   0  0  0  0  0  2  0  0  0  0  0  0
  191.7890  176.5520  145.2600 C   0  0  0  0  0  0  0  0  0  0  0  0
  190.7280  177.1310  145.8990 C   0  0  0  0  0  0  0  0  0  0  0  0
  191.0850  175.7480  147.8230 C   0  0  0  0  0  3  0  0  0  0  0  0
  191.9270  177.1700  143.9150 C   0  0  0  0  0  3  0  0  0  0  0  0
  190.8290  178.1430  143.8990 N   0  0  0  0  0  0  0  0  0  0  0  0
  190.1590  178.1190  145.0110 C   0  0  0  0  0  3  0  0  0  0  0  0
  190.3420  176.7560  147.1840 C   0  0  0  0  0  2  0  0  0  0  0  0
  192.5460  175.5490  145.8740 C   0  0  0  0  0  0  0  0  0  0  0  0
  192.1800  175.1460  147.1710 C   0  0  0  0  0  3  0  0  0  0  0  0
  1  2  1  0  0  0  0
  2  8  1  0  0  0  0
  3 18  1  0  0  0  0
  4 10  2  0  0  0  0
  4 11  1  0  0  0  0
  5 21  1  0  0  0  0
  6  8  1  0  0  0  0
  7 16  1  0  0  0  0
  8 29  1  6  0  0  0
 10 15  1  0  0  0  0
 11 14  2  0  0  0  0
 11 13  1  0  0  0  0
 12 19  1  0  0  0  0
 14  7  2  0  0  0  0
 15  1  1  0  0  0  0
 15 13  2  0  0  0  0
 17 10  1  0  0  0  0
 18 12  1  0  0  0  0
 19  9  1  6  0  0  0
 19  1  1  0  0  0  0
 19  6  1  0  0  0  0
 20  5  1  0  0  0  0
 20  3  2  0  0  0  0
 21 18  2  0  0  0  0
 21 17  1  0  0  0  0
 22 20  1  0  0  0  0
 23 22  1  0  0  0  0
 24 28  1  6  0  0  0
 24 26  1  0  0  0  0
 24  7  1  0  0  0  0
 26 25  1  0  0  0  0
 27 28  1  0  0  0  0
 29 37  1  0  0  0  0
 30 37  2  0  0  0  0
 30 31  1  0  0  0  0
 31 36  1  0  0  0  0
 33 30  1  0  0  0  0
 34 33  2  0  0  0  0
 34 35  1  0  0  0  0
 35 31  2  0  0  0  0
 36 32  1  0  0  0  0
 37 38  1  0  0  0  0
 38 32  2  0  0  0  0
M  END
>  <MODEL>
6

>  <REMARK>
 VINA RESULT:      -7.3      3.453      6.651
  Name = 
  6 active torsions:
  status: ('A' for Active; 'I' for Inactive)
    1  A    between atoms: C_2  and  C_11
    2  A    between atoms: C_2  and  C_27
    3  A    between atoms: C_2  and  C_31
    4  A    between atoms: O_8  and  C_35
    5  A    between atoms: C_13  and  C_21
    6  A    between atoms: C_21  and  C_36
                            x       y       z     vdW  Elec       q    Type
                         _______ _______ _______ _____ _____    ______ ____

>  <TORSDO>
F 6

$$$$
=
 OpenBabel11042416223D

 38 43  0  0  1  0  0  0  0  0999 V2000
  191.0480  173.2750  143.0920 N   0  0  0  0  0  0  0  0  0  0  0  0
  191.5130  172.9950  144.4370 C   0  0  0  0  0  2  0  0  0  0  0  0
  191.6630  173.2430  138.7160 N   0  0  0  0  0  0  0  0  0  0  0  0
  187.6860  174.2140  142.0650 N   0  0  0  0  0  0  0  0  0  0  0  0
  189.1640  173.4180  138.3950 S   0  0  0  0  0  0  0  0  0  0  0  0
  193.3720  172.8740  142.8770 C   0  0  0  0  0  2  0  0  0  0  0  0
  186.4570  176.9750  144.0100 C   0  0  0  0  0  0  0  0  0  0  0  0
  193.0230  172.9120  144.3600 C   0  0  1  0  0  3  0  0  0  0  0  0
  192.3640  174.7060  141.5780 C   0  0  0  0  0  1  0  0  0  0  0  0
  188.7370  173.4750  141.9460 C   0  0  0  0  0  0  0  0  0  0  0  0
  188.0410  175.1080  143.1140 C   0  0  0  0  0  0  0  0  0  0  0  0
  191.9150  172.2600  140.9950 C   0  0  0  0  0  2  0  0  0  0  0  0
  189.3450  174.8710  143.6310 N   0  0  0  0  0  0  0  0  0  0  0  0
  187.2490  176.0410  143.5640 C   0  0  0  0  0  0  0  0  0  0  0  0
  189.7660  173.8920  142.9000 C   0  0  0  0  0  0  0  0  0  0  0  0
  185.5290  176.6770  145.0010 O   0  0  0  0  0  1  0  0  0  0  0  0
  188.8300  172.3510  140.9770 C   0  0  0  0  0  2  0  0  0  0  0  0
  191.0900  172.7430  139.8430 C   0  0  0  0  0  0  0  0  0  0  0  0
  192.1300  173.2940  142.1100 C   0  0  2  0  0  0  0  0  0  0  0  0
  190.7300  173.6500  137.8250 C   0  0  0  0  0  0  0  0  0  0  0  0
  189.7010  172.7470  139.8390 C   0  0  0  0  0  0  0  0  0  0  0  0
  191.0310  174.2060  136.5830 O   0  0  0  0  0  0  0  0  0  0  0  0
  190.0240  174.4410  135.6100 C   0  0  0  0  0  1  0  0  0  0  0  0
  186.5550  178.3580  143.4510 C   0  0  2  0  0  3  0  0  0  0  0  0
  185.3040  180.1760  144.6140 C   0  0  0  0  0  1  0  0  0  0  0  0
  185.2160  179.0650  143.5850 C   0  0  0  0  0  2  0  0  0  0  0  0
  185.9100  178.6320  141.1630 O   0  0  0  0  0  1  0  0  0  0  0  0
  186.9870  178.3130  141.9900 C   0  0  0  0  0  2  0  0  0  0  0  0
  193.6220  174.1510  145.0110 C   0  0  0  0  0  2  0  0  0  0  0  0
  195.7970  175.0640  144.1110 C   0  0  0  0  0  0  0  0  0  0  0  0
  197.1620  175.0640  144.0400 C   0  0  1  0  0  3  0  0  0  0  0  0
  197.2780  173.2260  145.5730 C   0  0  0  0  0  3  0  0  0  0  0  0
  195.2780  176.1490  143.2360 C   0  0  0  0  0  3  0  0  0  0  0  0
  196.5070  176.7290  142.6870 N   0  0  0  0  0  0  0  0  0  0  0  0
  197.5620  176.1210  143.1380 C   0  0  0  0  0  3  0  0  0  0  0  0
  197.9410  174.1580  144.7570 C   0  0  0  0  0  3  0  0  0  0  0  0
  195.1120  174.1460  144.9130 C   0  0  0  0  0  0  0  0  0  0  0  0
  195.8700  173.2210  145.6520 C   0  0  0  0  0  3  0  0  0  0  0  0
  1  2  1  0  0  0  0
  3 18  1  0  0  0  0
  4 11  1  0  0  0  0
  5 21  1  0  0  0  0
  6  8  1  0  0  0  0
  7 16  1  0  0  0  0
  8  2  1  0  0  0  0
  8 29  1  6  0  0  0
 10  4  2  0  0  0  0
 10 15  1  0  0  0  0
 11 14  2  0  0  0  0
 11 13  1  0  0  0  0
 12 19  1  0  0  0  0
 14  7  2  0  0  0  0
 15  1  1  0  0  0  0
 15 13  2  0  0  0  0
 17 10  1  0  0  0  0
 18 12  1  0  0  0  0
 19  9  1  6  0  0  0
 19  6  1  0  0  0  0
 19  1  1  0  0  0  0
 20  5  1  0  0  0  0
 20  3  2  0  0  0  0
 21 18  2  0  0  0  0
 21 17  1  0  0  0  0
 22 20  1  0  0  0  0
 23 22  1  0  0  0  0
 24 28  1  6  0  0  0
 24 26  1  0  0  0  0
 24  7  1  0  0  0  0
 26 25  1  0  0  0  0
 27 28  1  0  0  0  0
 30 37  1  0  0  0  0
 31 35  1  1  0  0  0
 31 30  1  0  0  0  0
 31 36  1  0  0  0  0
 32 38  1  0  0  0  0
 33 30  2  0  0  0  0
 34 35  2  0  0  0  0
 34 33  1  0  0  0  0
 36 32  2  0  0  0  0
 37 29  1  0  0  0  0
 37 38  2  0  0  0  0
M  END
>  <MODEL>
7

>  <REMARK>
 VINA RESULT:      -7.3      3.541      8.444
  Name = 
  6 active torsions:
  status: ('A' for Active; 'I' for Inactive)
    1  A    between atoms: C_2  and  C_11
    2  A    between atoms: C_2  and  C_27
    3  A    between atoms: C_2  and  C_31
    4  A    between atoms: O_8  and  C_35
    5  A    between atoms: C_13  and  C_21
    6  A    between atoms: C_21  and  C_36
                            x       y       z     vdW  Elec       q    Type
                         _______ _______ _______ _____ _____    ______ ____

>  <TORSDO>
F 6

$$$$
=
 OpenBabel11042416223D

 38 43  0  0  1  0  0  0  0  0999 V2000
  189.3450  173.9490  142.8030 N   0  0  0  0  0  0  0  0  0  0  0  0
  188.1490  174.7640  142.8990 C   0  0  0  0  0  2  0  0  0  0  0  0
  192.8210  171.9710  144.6840 N   0  0  0  0  0  0  0  0  0  0  0  0
  190.4800  172.0110  139.9400 N   0  0  0  0  0  0  0  0  0  0  0  0
  192.9960  170.4440  142.6800 S   0  0  0  0  0  0  0  0  0  0  0  0
  189.4410  174.9520  144.9470 C   0  0  0  0  0  2  0  0  0  0  0  0
  190.5430  174.0150  136.9580 C   0  0  0  0  0  0  0  0  0  0  0  0
  188.2700  175.5560  144.1830 C   0  0  1  0  0  3  0  0  0  0  0  0
  191.5100  174.7950  143.6220 C   0  0  0  0  0  1  0  0  0  0  0  0
  190.2000  172.1110  141.1960 C   0  0  0  0  0  0  0  0  0  0  0  0
  190.2250  173.3230  139.4510 C   0  0  0  0  0  0  0  0  0  0  0  0
  190.4420  172.7240  144.6670 C   0  0  0  0  0  2  0  0  0  0  0  0
  189.7700  174.2150  140.4610 N   0  0  0  0  0  0  0  0  0  0  0  0
  190.3830  173.6690  138.2040 C   0  0  0  0  0  0  0  0  0  0  0  0
  189.7780  173.4750  141.5200 C   0  0  0  0  0  0  0  0  0  0  0  0
  189.5110  173.8140  136.0480 O   0  0  0  0  0  1  0  0  0  0  0  0
  190.2850  170.9630  142.1370 C   0  0  0  0  0  2  0  0  0  0  0  0
  191.5850  171.9250  144.1200 C   0  0  0  0  0  0  0  0  0  0  0  0
  190.2110  174.0750  143.9740 C   0  0  2  0  0  0  0  0  0  0  0  0
  193.7030  171.2010  144.0050 C   0  0  0  0  0  0  0  0  0  0  0  0
  191.4870  171.1130  142.9980 C   0  0  0  0  0  0  0  0  0  0  0  0
  195.0440  171.0600  144.3580 O   0  0  0  0  0  0  0  0  0  0  0  0
  196.0520  171.8800  143.7890 C   0  0  0  0  0  1  0  0  0  0  0  0
  191.8360  174.6230  136.5190 C   0  0  2  0  0  3  0  0  0  0  0  0
  191.4940  176.6040  135.0410 C   0  0  0  0  0  1  0  0  0  0  0  0
  191.7190  175.1040  135.0820 C   0  0  0  0  0  2  0  0  0  0  0  0
  194.1970  174.2820  136.7020 O   0  0  0  0  0  1  0  0  0  0  0  0
  192.9710  173.6160  136.6510 C   0  0  0  0  0  2  0  0  0  0  0  0
  188.5580  177.0120  143.8420 C   0  0  0  0  0  2  0  0  0  0  0  0
  186.8910  178.1270  145.3760 C   0  0  0  0  0  0  0  0  0  0  0  0
  185.8030  178.9280  145.5890 C   0  0  0  0  0  0  0  0  0  0  0  0
  185.5590  179.2870  143.2330 C   0  0  0  0  0  3  0  0  0  0  0  0
  187.3980  177.6560  146.6920 C   0  0  0  0  0  3  0  0  0  0  0  0
  186.4670  178.2850  147.6340 N   0  0  0  0  0  0  0  0  0  0  0  0
  185.5750  178.9980  147.0150 C   0  0  0  0  0  3  0  0  0  0  0  0
  185.1080  179.5280  144.5420 C   0  0  0  0  0  2  0  0  0  0  0  0
  187.3590  177.8690  144.0830 C   0  0  0  0  0  0  0  0  0  0  0  0
  186.6800  178.4630  143.0040 C   0  0  0  0  0  3  0  0  0  0  0  0
  1  2  1  0  0  0  0
  1 19  1  0  0  0  0
  2  8  1  0  0  0  0
  4 10  2  0  0  0  0
  5 21  1  0  0  0  0
  5 20  1  0  0  0  0
  7 14  2  0  0  0  0
  8 29  1  6  0  0  0
  8  6  1  0  0  0  0
 10 15  1  0  0  0  0
 10 17  1  0  0  0  0
 11  4  1  0  0  0  0
 11 13  1  0  0  0  0
 13 15  2  0  0  0  0
 14 11  2  0  0  0  0
 15  1  1  0  0  0  0
 16  7  1  0  0  0  0
 17 21  1  0  0  0  0
 18 12  1  0  0  0  0
 18  3  1  0  0  0  0
 19  9  1  6  0  0  0
 19 12  1  0  0  0  0
 19  6  1  0  0  0  0
 20 22  1  0  0  0  0
 20  3  2  0  0  0  0
 21 18  2  0  0  0  0
 23 22  1  0  0  0  0
 24 26  1  6  0  0  0
 24 28  1  0  0  0  0
 24  7  1  0  0  0  0
 25 26  1  0  0  0  0
 28 27  1  0  0  0  0
 29 37  1  0  0  0  0
 30 31  1  0  0  0  0
 30 33  1  0  0  0  0
 31 35  2  0  0  0  0
 32 36  1  0  0  0  0
 33 34  2  0  0  0  0
 35 34  1  0  0  0  0
 36 31  1  0  0  0  0
 37 30  2  0  0  0  0
 38 32  2  0  0  0  0
 38 37  1  0  0  0  0
M  END
>  <MODEL>
8

>  <REMARK>
 VINA RESULT:      -7.1      2.891      4.440
  Name = 
  6 active torsions:
  status: ('A' for Active; 'I' for Inactive)
    1  A    between atoms: C_2  and  C_11
    2  A    between atoms: C_2  and  C_27
    3  A    between atoms: C_2  and  C_31
    4  A    between atoms: O_8  and  C_35
    5  A    between atoms: C_13  and  C_21
    6  A    between atoms: C_21  and  C_36
                            x       y       z     vdW  Elec       q    Type
                         _______ _______ _______ _____ _____    ______ ____

>  <TORSDO>
F 6

$$$$
=
 OpenBabel11042416223D

 38 43  0  0  1  0  0  0  0  0999 V2000
  190.6960  175.0190  144.6590 N   0  0  0  0  0  0  0  0  0  0  0  0
  189.2700  175.1210  144.9070 C   0  0  0  0  0  2  0  0  0  0  0  0
  194.7480  176.7820  144.6780 N   0  0  0  0  0  0  0  0  0  0  0  0
  192.5990  172.0120  143.8990 N   0  0  0  0  0  0  0  0  0  0  0  0
  195.7270  174.4550  144.6340 S   0  0  0  0  0  0  0  0  0  0  0  0
  190.2750  177.3330  144.9380 C   0  0  0  0  0  2  0  0  0  0  0  0
  191.1030  170.1740  141.1980 C   0  0  0  0  0  0  0  0  0  0  0  0
  188.9400  176.5990  144.9130 C   0  0  1  0  0  3  0  0  0  0  0  0
  191.8300  176.6200  143.1680 C   0  0  0  0  0  1  0  0  0  0  0  0
  192.4190  173.0910  144.5840 C   0  0  0  0  0  0  0  0  0  0  0  0
  191.5090  172.0290  142.9840 C   0  0  0  0  0  0  0  0  0  0  0  0
  192.4660  176.4640  145.6360 C   0  0  0  0  0  2  0  0  0  0  0  0
  190.6590  173.1580  143.1510 N   0  0  0  0  0  0  0  0  0  0  0  0
  191.3050  171.1010  142.0910 C   0  0  0  0  0  0  0  0  0  0  0  0
  191.2330  173.8070  144.1100 C   0  0  0  0  0  0  0  0  0  0  0  0
  190.3900  169.0310  141.5390 O   0  0  0  0  0  1  0  0  0  0  0  0
  193.3080  173.4950  145.7050 C   0  0  0  0  0  2  0  0  0  0  0  0
  193.8060  175.9540  145.2020 C   0  0  0  0  0  0  0  0  0  0  0  0
  191.3530  176.3220  144.5870 C   0  0  2  0  0  0  0  0  0  0  0  0
  195.8620  176.1020  144.3240 C   0  0  0  0  0  0  0  0  0  0  0  0
  194.1790  174.6180  145.2700 C   0  0  0  0  0  0  0  0  0  0  0  0
  196.9900  176.6960  143.7580 O   0  0  0  0  0  0  0  0  0  0  0  0
  197.9110  175.9510  142.9780 C   0  0  0  0  0  1  0  0  0  0  0  0
  191.6400  170.3510  139.8140 C   0  0  2  0  0  3  0  0  0  0  0  0
  191.3390  169.7100  137.4220 C   0  0  0  0  0  1  0  0  0  0  0  0
  190.8660  169.4740  138.8440 C   0  0  0  0  0  2  0  0  0  0  0  0
  193.8830  171.1770  139.7100 O   0  0  0  0  0  1  0  0  0  0  0  0
  193.1240  170.0080  139.7710 C   0  0  0  0  0  2  0  0  0  0  0  0
  188.1760  176.9400  143.6410 C   0  0  0  0  0  2  0  0  0  0  0  0
  186.2760  177.6580  145.1410 C   0  0  0  0  0  0  0  0  0  0  0  0
  185.1940  178.4490  145.4150 C   0  0  0  0  0  0  0  0  0  0  0  0
  185.4350  179.5710  143.3120 C   0  0  0  0  0  3  0  0  0  0  0  0
  186.4940  176.7400  146.2900 C   0  0  0  0  0  3  0  0  0  0  0  0
  185.4170  177.1200  147.2090 N   0  0  0  0  0  0  0  0  0  0  0  0
  184.6900  178.0770  146.7180 C   0  0  0  0  0  3  0  0  0  0  0  0
  184.7410  179.4190  144.5240 C   0  0  0  0  0  2  0  0  0  0  0  0
  186.9810  177.7870  143.9410 C   0  0  0  0  0  0  0  0  0  0  0  0
  186.5510  178.7600  143.0220 C   0  0  0  0  0  3  0  0  0  0  0  0
  1  2  1  0  0  0  0
  2  8  1  0  0  0  0
  3 18  1  0  0  0  0
  4 10  2  0  0  0  0
  5 21  1  0  0  0  0
  7 16  1  0  0  0  0
  7 14  2  0  0  0  0
  8 29  1  6  0  0  0
  8  6  1  0  0  0  0
 10 17  1  0  0  0  0
 11 13  1  0  0  0  0
 11  4  1  0  0  0  0
 13 15  2  0  0  0  0
 14 11  2  0  0  0  0
 15 10  1  0  0  0  0
 15  1  1  0  0  0  0
 18 21  2  0  0  0  0
 18 12  1  0  0  0  0
 19  9  1  6  0  0  0
 19  1  1  0  0  0  0
 19  6  1  0  0  0  0
 19 12  1  0  0  0  0
 20  5  1  0  0  0  0
 20  3  2  0  0  0  0
 21 17  1  0  0  0  0
 22 20  1  0  0  0  0
 23 22  1  0  0  0  0
 24 26  1  6  0  0  0
 24  7  1  0  0  0  0
 25 26  1  0  0  0  0
 27 28  1  0  0  0  0
 28 24  1  0  0  0  0
 29 37  1  0  0  0  0
 30 31  1  0  0  0  0
 30 33  1  0  0  0  0
 31 35  2  0  0  0  0
 32 36  1  0  0  0  0
 33 34  2  0  0  0  0
 35 34  1  0  0  0  0
 36 31  1  0  0  0  0
 37 30  2  0  0  0  0
 38 32  2  0  0  0  0
 38 37  1  0  0  0  0
M  END
>  <MODEL>
9

>  <REMARK>
 VINA RESULT:      -7.0      1.369      2.015
  Name = 
  6 active torsions:
  status: ('A' for Active; 'I' for Inactive)
    1  A    between atoms: C_2  and  C_11
    2  A    between atoms: C_2  and  C_27
    3  A    between atoms: C_2  and  C_31
    4  A    between atoms: O_8  and  C_35
    5  A    between atoms: C_13  and  C_21
    6  A    between atoms: C_21  and  C_36
                            x       y       z     vdW  Elec       q    Type
                         _______ _______ _______ _____ _____    ______ ____

>  <TORSDO>
F 6

$$$$
