=
 OpenBabel11042415573D

 52 56  0  0  1  0  0  0  0  0999 V2000
  194.1570  175.5510  137.9600 O   0  0  0  0  0  0  0  0  0  0  0  0
  196.0600  174.5060  138.9530 C   0  0  0  0  0  2  0  0  0  0  0  0
  189.1520  173.8480  140.5090 C   0  0  0  0  0  0  0  0  0  0  0  0
  190.3360  173.6150  138.3180 C   0  0  0  0  0  2  0  0  0  0  0  0
  191.0980  177.1130  143.4350 S   0  0  0  0  0  0  0  0  0  0  0  0
  190.0120  177.3970  146.0400 C   0  0  0  0  0  1  0  0  0  0  0  0
  188.5630  176.5210  142.2330 C   0  0  1  0  0  3  0  0  0  0  0  0
  191.7600  173.3630  138.8010 C   0  0  0  0  0  2  0  0  0  0  0  0
  190.8890  176.5890  145.1470 C   0  0  0  0  0  0  0  0  0  0  0  0
  194.3650  174.4300  143.3920 C   0  0  0  0  0  2  0  0  0  0  0  0
  195.6330  174.4830  141.2630 C   0  0  0  0  0  2  0  0  0  0  0  0
  194.0710  173.2180  138.0810 N   0  0  0  0  0  2  0  0  0  0  0  0
  189.8500  175.9890  142.8100 C   0  0  1  0  0  3  0  0  0  0  0  0
  192.3860  174.5900  144.8610 C   0  0  0  0  0  2  0  0  0  0  0  0
  191.5040  175.5060  145.6560 C   0  0  0  0  0  3  0  0  0  0  0  0
  189.3280  173.0070  139.2880 C   0  0  0  0  0  2  0  0  0  0  0  0
  194.9850  175.3290  142.3430 C   0  0  0  0  0  2  0  0  0  0  0  0
  188.0790  174.6020  140.5990 N   0  0  0  0  0  0  0  0  0  0  0  0
  197.4050  175.7400  140.4050 C   0  0  0  0  0  1  0  0  0  0  0  0
  187.6050  175.3910  141.7590 C   0  0  0  0  0  2  0  0  0  0  0  0
  194.7120  174.4740  138.3080 C   0  0  0  0  0  0  0  0  0  0  0  0
  190.2220  174.8650  142.2970 C   0  0  0  0  0  2  0  0  0  0  0  0
  190.2150  173.8280  141.5360 C   0  0  0  0  0  2  0  0  0  0  0  0
  196.0340  175.3310  140.1500 N   0  0  0  0  0  0  0  0  0  0  0  0
  192.6900  173.1220  137.6240 C   0  0  1  0  0  3  0  0  0  0  0  0
  193.6610  175.2870  144.4240 C   0  0  0  0  0  2  0  0  0  0  0  0
  186.6410  177.1630  143.4620 N   0  0  0  0  0  0  0  0  0  0  0  0
  187.8800  177.3280  143.2350 N   0  0  0  0  0  0  0  0  0  0  0  0
  184.4320  178.7580  144.1140 S   0  0  0  0  0  0  0  0  0  0  0  0
  185.9630  177.9210  144.4630 C   0  0  0  0  0  0  0  0  0  0  0  0
  185.4900  178.6780  146.5880 C   0  0  0  0  0  2  0  0  0  0  0  0
  184.1320  178.7780  145.9090 C   0  0  0  0  0  2  0  0  0  0  0  0
  186.3580  177.9400  145.6920 N   0  0  0  0  0  0  0  0  0  0  0  0
  192.4260  171.7280  137.0710 C   0  0  0  0  0  2  0  0  0  0  0  0
  193.6640  171.1600  136.3890 C   0  0  0  0  0  2  0  0  0  0  0  0
  193.8390  169.6970  136.7720 C   0  0  0  0  0  2  0  0  0  0  0  0
  192.7980  169.2540  137.7900 C   0  0  0  0  0  2  0  0  0  0  0  0
  192.5070  169.8850  140.2140 N   0  0  0  0  0  2  0  0  0  0  0  0
  191.8500  170.5430  142.5690 C   0  0  0  0  0  2  0  0  0  0  0  0
  194.4920  171.2660  145.6700 S   0  0  0  0  0  0  0  0  0  0  0  0
  192.9070  170.1130  141.5750 C   0  0  0  0  0  0  0  0  0  0  0  0
  194.4900  168.9100  139.4260 O   0  0  0  0  0  0  0  0  0  0  0  0
  192.4570  171.2570  143.7870 C   0  0  0  0  0  2  0  0  0  0  0  0
  195.8090  170.2450  143.6050 N   0  0  0  0  0  0  0  0  0  0  0  0
  193.5750  170.3990  144.3660 C   0  0  1  0  0  3  0  0  0  0  0  0
  196.0610  170.5950  144.9950 C   0  0  2  0  0  3  0  0  0  0  0  0
  193.3360  169.3510  139.1740 C   0  0  0  0  0  0  0  0  0  0  0  0
  194.5650  170.1380  143.2950 C   0  0  0  0  0  0  0  0  0  0  0  0
  194.1450  169.9280  141.9430 N   0  0  0  0  0  0  0  0  0  0  0  0
  196.0930  169.4610  147.1050 O   0  0  0  0  0  1  0  0  0  0  0  0
  196.4920  169.3590  145.7740 C   0  0  2  0  0  3  0  0  0  0  0  0
  197.9390  169.2200  145.7140 N   0  0  0  0  0  1  0  0  0  0  0  0
  1 21  2  0  0  0  0
  2 24  1  0  0  0  0
  3 18  2  0  0  0  0
  3 23  1  0  0  0  0
  4  8  1  0  0  0  0
  4 16  1  0  0  0  0
  5  9  1  0  0  0  0
  7 13  1  0  0  0  0
  7 28  1  1  0  0  0
  9 15  2  0  0  0  0
  9  6  1  0  0  0  0
 10 26  1  0  0  0  0
 11 17  1  0  0  0  0
 12 21  1  0  0  0  0
 13 22  1  6  0  0  0
 13  5  1  0  0  0  0
 14 15  1  0  0  0  0
 16  3  1  0  0  0  0
 17 10  1  0  0  0  0
 18 20  1  0  0  0  0
 20  7  1  0  0  0  0
 21  2  1  0  0  0  0
 23 22  1  0  0  0  0
 24 19  1  0  0  0  0
 24 11  1  0  0  0  0
 25 34  1  1  0  0  0
 25 12  1  0  0  0  0
 25  8  1  0  0  0  0
 26 14  1  0  0  0  0
 27 30  1  0  0  0  0
 28 27  2  0  0  0  0
 29 30  1  0  0  0  0
 29 32  1  0  0  0  0
 30 33  2  0  0  0  0
 32 31  1  0  0  0  0
 33 31  1  0  0  0  0
 35 36  1  0  0  0  0
 35 34  1  0  0  0  0
 36 37  1  0  0  0  0
 37 47  1  0  0  0  0
 38 41  1  0  0  0  0
 39 43  1  0  0  0  0
 41 49  2  0  0  0  0
 41 39  1  0  0  0  0
 44 46  1  0  0  0  0
 45 43  1  6  0  0  0
 45 40  1  0  0  0  0
 46 40  1  0  0  0  0
 46 51  1  1  0  0  0
 47 42  2  0  0  0  0
 47 38  1  0  0  0  0
 48 44  2  0  0  0  0
 48 45  1  0  0  0  0
 49 48  1  0  0  0  0
 51 52  1  1  0  0  0
 51 50  1  0  0  0  0
M  END
>  <MODEL>
1

>  <REMARK>
 VINA RESULT:      -7.1      0.000      0.000
  Name = 
  8 active torsions:
  status: ('A' for Active; 'I' for Inactive)
    1  A    between atoms: C_6  and  C_14
    2  A    between atoms: C_6  and  C_21
    3  A    between atoms: C_9  and  N_22
    4  A    between atoms: C_14  and  C_24
    5  A    between atoms: C_17  and  N_41
    6  A    between atoms: C_21  and  C_48
    7  A    between atoms: C_24  and  C_42
    8  A    between atoms: C_32  and  C_40
                            x       y       z     vdW  Elec       q    Type
                         _______ _______ _______ _____ _____    ______ ____

>  <TORSDO>
F 8

$$$$
=
 OpenBabel11042415573D

 52 56  0  0  1  0  0  0  0  0999 V2000
  189.9020  176.8660  142.8810 O   0  0  0  0  0  0  0  0  0  0  0  0
  187.5870  176.6570  142.3330 C   0  0  0  0  0  2  0  0  0  0  0  0
  192.6090  171.6590  142.9490 C   0  0  0  0  0  0  0  0  0  0  0  0
  191.9290  173.4600  144.5450 C   0  0  0  0  0  2  0  0  0  0  0  0
  192.2100  172.8970  138.3320 S   0  0  0  0  0  0  0  0  0  0  0  0
  192.7580  170.9300  136.3630 C   0  0  0  0  0  1  0  0  0  0  0  0
  194.2020  171.9140  140.1450 C   0  0  1  0  0  3  0  0  0  0  0  0
  190.5320  173.7770  144.0230 C   0  0  0  0  0  2  0  0  0  0  0  0
  191.7730  171.4470  137.3540 C   0  0  0  0  0  0  0  0  0  0  0  0
  188.0920  173.0530  139.2770 C   0  0  0  0  0  2  0  0  0  0  0  0
  187.4850  175.0330  140.6380 C   0  0  0  0  0  2  0  0  0  0  0  0
  188.6940  175.3490  144.1880 N   0  0  0  0  0  2  0  0  0  0  0  0
  192.7490  171.9350  139.7440 C   0  0  1  0  0  3  0  0  0  0  0  0
  189.5220  171.2170  138.4510 C   0  0  0  0  0  2  0  0  0  0  0  0
  190.5880  170.8200  137.4730 C   0  0  0  0  0  3  0  0  0  0  0  0
  192.2440  171.9790  144.3610 C   0  0  0  0  0  2  0  0  0  0  0  0
  188.2670  174.5490  139.4310 C   0  0  0  0  0  2  0  0  0  0  0  0
  193.8790  171.4860  142.6560 N   0  0  0  0  0  0  0  0  0  0  0  0
  186.8700  177.2420  140.1920 C   0  0  0  0  0  1  0  0  0  0  0  0
  194.4700  171.0110  141.3830 C   0  0  0  0  0  2  0  0  0  0  0  0
  188.8010  176.3070  143.1340 C   0  0  0  0  0  0  0  0  0  0  0  0
  191.9360  171.7660  140.7330 C   0  0  0  0  0  2  0  0  0  0  0  0
  191.5290  171.5970  141.9410 C   0  0  0  0  0  2  0  0  0  0  0  0
  187.8250  176.4210  140.9180 N   0  0  0  0  0  0  0  0  0  0  0  0
  189.8640  174.8320  144.8880 C   0  0  1  0  0  3  0  0  0  0  0  0
  188.9350  172.5740  138.1120 C   0  0  0  0  0  2  0  0  0  0  0  0
  195.6160  172.2550  138.2740 N   0  0  0  0  0  0  0  0  0  0  0  0
  195.0050  171.4350  139.0300 N   0  0  0  0  0  0  0  0  0  0  0  0
  196.4930  170.0820  136.7370 S   0  0  0  0  0  0  0  0  0  0  0  0
  196.4340  171.8010  137.1970 C   0  0  0  0  0  0  0  0  0  0  0  0
  197.7700  171.9880  135.3270 C   0  0  0  0  0  2  0  0  0  0  0  0
  197.1260  170.6250  135.1190 C   0  0  0  0  0  2  0  0  0  0  0  0
  197.0750  172.6200  136.4310 N   0  0  0  0  0  0  0  0  0  0  0  0
  189.4360  174.1880  146.1990 C   0  0  0  0  0  2  0  0  0  0  0  0
  190.1300  174.8400  147.3880 C   0  0  0  0  0  2  0  0  0  0  0  0
  190.2480  176.3400  147.1580 C   0  0  0  0  0  2  0  0  0  0  0  0
  191.6660  176.8370  147.3990 C   0  0  0  0  0  2  0  0  0  0  0  0
  193.7080  175.7190  146.4290 N   0  0  0  0  0  2  0  0  0  0  0  0
  195.7730  174.4080  145.7760 C   0  0  0  0  0  2  0  0  0  0  0  0
  197.9400  174.9440  142.2930 S   0  0  0  0  0  0  0  0  0  0  0  0
  194.6860  175.4010  145.4260 C   0  0  0  0  0  0  0  0  0  0  0  0
  192.2150  176.9330  145.0860 O   0  0  0  0  0  0  0  0  0  0  0  0
  197.0080  174.5590  144.8760 C   0  0  0  0  0  2  0  0  0  0  0  0
  195.6960  176.3520  142.1650 N   0  0  0  0  0  0  0  0  0  0  0  0
  196.5720  174.5470  143.4160 C   0  0  1  0  0  3  0  0  0  0  0  0
  196.8040  175.9850  141.2970 C   0  0  2  0  0  3  0  0  0  0  0  0
  192.5410  176.5290  146.2350 C   0  0  0  0  0  0  0  0  0  0  0  0
  195.5750  175.6260  143.2200 C   0  0  0  0  0  0  0  0  0  0  0  0
  194.6190  175.9370  144.2380 N   0  0  0  0  0  0  0  0  0  0  0  0
  197.0440  175.5120  138.9610 O   0  0  0  0  0  1  0  0  0  0  0  0
  196.2880  175.2090  140.0910 C   0  0  2  0  0  3  0  0  0  0  0  0
  194.8950  175.5510  139.8460 N   0  0  0  0  0  1  0  0  0  0  0  0
  1 21  2  0  0  0  0
  2 21  1  0  0  0  0
  3 16  1  0  0  0  0
  5 13  1  0  0  0  0
  6  9  1  0  0  0  0
  7 28  1  6  0  0  0
  7 20  1  0  0  0  0
  8  4  1  0  0  0  0
  8 25  1  0  0  0  0
  9 15  2  0  0  0  0
  9  5  1  0  0  0  0
 10 17  1  0  0  0  0
 11 24  1  0  0  0  0
 12 25  1  0  0  0  0
 13  7  1  0  0  0  0
 13 22  1  1  0  0  0
 15 14  1  0  0  0  0
 16  4  1  0  0  0  0
 17 11  1  0  0  0  0
 18  3  2  0  0  0  0
 19 24  1  0  0  0  0
 20 18  1  0  0  0  0
 21 12  1  0  0  0  0
 22 23  1  0  0  0  0
 23  3  1  0  0  0  0
 24  2  1  0  0  0  0
 25 34  1  1  0  0  0
 26 14  1  0  0  0  0
 26 10  1  0  0  0  0
 27 28  2  0  0  0  0
 29 30  1  0  0  0  0
 30 27  1  0  0  0  0
 31 33  1  0  0  0  0
 32 31  1  0  0  0  0
 32 29  1  0  0  0  0
 33 30  2  0  0  0  0
 34 35  1  0  0  0  0
 36 35  1  0  0  0  0
 36 37  1  0  0  0  0
 40 45  1  0  0  0  0
 41 39  1  0  0  0  0
 41 38  1  0  0  0  0
 42 47  2  0  0  0  0
 43 39  1  0  0  0  0
 44 48  2  0  0  0  0
 45 43  1  1  0  0  0
 46 51  1  6  0  0  0
 46 44  1  0  0  0  0
 46 40  1  0  0  0  0
 47 38  1  0  0  0  0
 47 37  1  0  0  0  0
 48 45  1  0  0  0  0
 48 49  1  0  0  0  0
 49 41  2  0  0  0  0
 51 50  1  6  0  0  0
 52 51  1  0  0  0  0
M  END
>  <MODEL>
2

>  <REMARK>
 VINA RESULT:      -6.8      3.467      9.391
  Name = 
  8 active torsions:
  status: ('A' for Active; 'I' for Inactive)
    1  A    between atoms: C_6  and  C_14
    2  A    between atoms: C_6  and  C_21
    3  A    between atoms: C_9  and  N_22
    4  A    between atoms: C_14  and  C_24
    5  A    between atoms: C_17  and  N_41
    6  A    between atoms: C_21  and  C_48
    7  A    between atoms: C_24  and  C_42
    8  A    between atoms: C_32  and  C_40
                            x       y       z     vdW  Elec       q    Type
                         _______ _______ _______ _____ _____    ______ ____

>  <TORSDO>
F 8

$$$$
=
 OpenBabel11042415573D

 52 56  0  0  1  0  0  0  0  0999 V2000
  194.3450  171.1320  146.3920 O   0  0  0  0  0  0  0  0  0  0  0  0
  194.7660  169.6720  144.5510 C   0  0  0  0  0  2  0  0  0  0  0  0
  193.1770  176.6030  144.6180 C   0  0  0  0  0  0  0  0  0  0  0  0
  194.9610  175.3510  145.8440 C   0  0  0  0  0  2  0  0  0  0  0  0
  189.1440  174.0930  143.9520 S   0  0  0  0  0  0  0  0  0  0  0  0
  187.0660  175.2700  142.4220 C   0  0  0  0  0  1  0  0  0  0  0  0
  189.9770  176.5850  145.0970 C   0  0  1  0  0  3  0  0  0  0  0  0
  195.0520  174.0930  144.9870 C   0  0  0  0  0  2  0  0  0  0  0  0
  188.3830  174.5750  142.3910 C   0  0  0  0  0  0  0  0  0  0  0  0
  191.6650  171.6820  141.5640 C   0  0  0  0  0  2  0  0  0  0  0  0
  193.2100  170.2770  142.8980 C   0  0  0  0  0  2  0  0  0  0  0  0
  195.9850  171.8570  144.8910 N   0  0  0  0  0  2  0  0  0  0  0  0
  190.1940  175.5420  144.0310 C   0  0  1  0  0  3  0  0  0  0  0  0
  190.2840  173.6570  141.0250 C   0  0  0  0  0  2  0  0  0  0  0  0
  188.9500  174.3210  141.1980 C   0  0  0  0  0  3  0  0  0  0  0  0
  194.6250  176.5620  144.9800 C   0  0  0  0  0  2  0  0  0  0  0  0
  191.7780  170.7580  142.7580 C   0  0  0  0  0  2  0  0  0  0  0  0
  192.3930  177.4360  145.2670 N   0  0  0  0  0  0  0  0  0  0  0  0
  193.1100  168.1660  143.8940 C   0  0  0  0  0  1  0  0  0  0  0  0
  190.9780  177.7710  144.9890 C   0  0  0  0  0  2  0  0  0  0  0  0
  195.0030  170.9210  145.3380 C   0  0  0  0  0  0  0  0  0  0  0  0
  191.4200  175.4480  143.6400 C   0  0  0  0  0  2  0  0  0  0  0  0
  192.6850  175.6730  143.5790 C   0  0  0  0  0  2  0  0  0  0  0  0
  193.3680  169.5720  144.1620 N   0  0  0  0  0  0  0  0  0  0  0  0
  196.1410  173.1700  145.5050 C   0  0  1  0  0  3  0  0  0  0  0  0
  190.2470  172.2100  141.4790 C   0  0  0  0  0  2  0  0  0  0  0  0
  187.9280  177.3030  146.0470 N   0  0  0  0  0  0  0  0  0  0  0  0
  188.6200  177.1030  145.0000 N   0  0  0  0  0  0  0  0  0  0  0  0
  186.0490  178.7250  144.5310 S   0  0  0  0  0  0  0  0  0  0  0  0
  186.6090  177.8420  145.9720 C   0  0  0  0  0  0  0  0  0  0  0  0
  184.4100  178.1540  146.5900 C   0  0  0  0  0  2  0  0  0  0  0  0
  184.3500  178.3820  145.0870 C   0  0  0  0  0  2  0  0  0  0  0  0
  185.7240  177.6160  146.8840 N   0  0  0  0  0  0  0  0  0  0  0  0
  197.4960  173.7550  145.1300 C   0  0  0  0  0  2  0  0  0  0  0  0
  197.3920  174.6430  143.8960 C   0  0  0  0  0  2  0  0  0  0  0  0
  197.9410  173.9060  142.6820 C   0  0  0  0  0  2  0  0  0  0  0  0
  196.8600  173.1000  141.9760 C   0  0  0  0  0  2  0  0  0  0  0  0
  195.0580  173.7570  140.3390 N   0  0  0  0  0  2  0  0  0  0  0  0
  193.0090  174.3230  138.9650 C   0  0  0  0  0  2  0  0  0  0  0  0
  193.0460  175.5110  135.0020 S   0  0  0  0  0  0  0  0  0  0  0  0
  194.5140  174.2860  139.1190 C   0  0  0  0  0  0  0  0  0  0  0  0
  197.2990  174.3760  140.0180 O   0  0  0  0  0  0  0  0  0  0  0  0
  192.5790  174.3820  137.4910 C   0  0  0  0  0  2  0  0  0  0  0  0
  195.5290  175.4630  135.9340 N   0  0  0  0  0  0  0  0  0  0  0  0
  193.3260  175.5130  136.7950 C   0  0  1  0  0  3  0  0  0  0  0  0
  194.8210  175.8880  134.7360 C   0  0  2  0  0  3  0  0  0  0  0  0
  196.4430  173.7650  140.7130 C   0  0  0  0  0  0  0  0  0  0  0  0
  194.7800  175.2850  136.9660 C   0  0  0  0  0  0  0  0  0  0  0  0
  195.3000  174.7430  138.1840 N   0  0  0  0  0  0  0  0  0  0  0  0
  196.2030  177.8070  135.1220 O   0  0  0  0  0  1  0  0  0  0  0  0
  195.0230  177.3820  134.5140 C   0  0  2  0  0  3  0  0  0  0  0  0
  193.9000  178.1190  135.0720 N   0  0  0  0  0  1  0  0  0  0  0  0
  2 21  1  0  0  0  0
  3 16  1  0  0  0  0
  3 18  2  0  0  0  0
  5 13  1  0  0  0  0
  7 28  1  6  0  0  0
  8 25  1  0  0  0  0
  8  4  1  0  0  0  0
  9  6  1  0  0  0  0
  9  5  1  0  0  0  0
 10 17  1  0  0  0  0
 11 24  1  0  0  0  0
 12 21  1  0  0  0  0
 12 25  1  0  0  0  0
 13 22  1  1  0  0  0
 13  7  1  0  0  0  0
 14 15  1  0  0  0  0
 14 26  1  0  0  0  0
 15  9  2  0  0  0  0
 16  4  1  0  0  0  0
 17 11  1  0  0  0  0
 19 24  1  0  0  0  0
 20  7  1  0  0  0  0
 20 18  1  0  0  0  0
 21  1  2  0  0  0  0
 23 22  1  0  0  0  0
 23  3  1  0  0  0  0
 24  2  1  0  0  0  0
 25 34  1  6  0  0  0
 26 10  1  0  0  0  0
 28 27  2  0  0  0  0
 29 32  1  0  0  0  0
 29 30  1  0  0  0  0
 30 27  1  0  0  0  0
 30 33  2  0  0  0  0
 31 33  1  0  0  0  0
 32 31  1  0  0  0  0
 35 34  1  0  0  0  0
 36 35  1  0  0  0  0
 37 36  1  0  0  0  0
 38 47  1  0  0  0  0
 39 41  1  0  0  0  0
 40 45  1  0  0  0  0
 41 38  1  0  0  0  0
 42 47  2  0  0  0  0
 43 39  1  0  0  0  0
 44 48  2  0  0  0  0
 45 48  1  0  0  0  0
 45 43  1  1  0  0  0
 46 51  1  1  0  0  0
 46 40  1  0  0  0  0
 46 44  1  0  0  0  0
 47 37  1  0  0  0  0
 48 49  1  0  0  0  0
 49 41  2  0  0  0  0
 51 52  1  1  0  0  0
 51 50  1  0  0  0  0
M  END
>  <MODEL>
3

>  <REMARK>
 VINA RESULT:      -6.6      2.642      7.221
  Name = 
  8 active torsions:
  status: ('A' for Active; 'I' for Inactive)
    1  A    between atoms: C_6  and  C_14
    2  A    between atoms: C_6  and  C_21
    3  A    between atoms: C_9  and  N_22
    4  A    between atoms: C_14  and  C_24
    5  A    between atoms: C_17  and  N_41
    6  A    between atoms: C_21  and  C_48
    7  A    between atoms: C_24  and  C_42
    8  A    between atoms: C_32  and  C_40
                            x       y       z     vdW  Elec       q    Type
                         _______ _______ _______ _____ _____    ______ ____

>  <TORSDO>
F 8

$$$$
=
 OpenBabel11042415573D

 52 56  0  0  1  0  0  0  0  0999 V2000
  189.0930  178.8140  141.3380 O   0  0  0  0  0  0  0  0  0  0  0  0
  186.9970  177.6710  141.3970 C   0  0  0  0  0  2  0  0  0  0  0  0
  193.5780  175.2090  142.4950 C   0  0  0  0  0  0  0  0  0  0  0  0
  192.3940  177.1520  143.5330 C   0  0  0  0  0  2  0  0  0  0  0  0
  192.3640  174.4060  137.9250 S   0  0  0  0  0  0  0  0  0  0  0  0
  193.4580  172.1360  136.6240 C   0  0  0  0  0  1  0  0  0  0  0  0
  194.7190  174.8890  139.4850 C   0  0  1  0  0  3  0  0  0  0  0  0
  190.9450  176.7740  143.2490 C   0  0  0  0  0  2  0  0  0  0  0  0
  192.4350  172.6380  137.5830 C   0  0  0  0  0  0  0  0  0  0  0  0
  188.5890  173.5570  139.6300 C   0  0  0  0  0  2  0  0  0  0  0  0
  187.3850  175.5900  140.3780 C   0  0  0  0  0  2  0  0  0  0  0  0
  188.6660  177.6010  143.2910 N   0  0  0  0  0  2  0  0  0  0  0  0
  193.3410  174.2820  139.4210 C   0  0  1  0  0  3  0  0  0  0  0  0
  190.5400  172.1200  139.1520 C   0  0  0  0  0  2  0  0  0  0  0  0
  191.5930  171.7540  138.1490 C   0  0  0  0  0  3  0  0  0  0  0  0
  193.2340  175.9020  143.7720 C   0  0  0  0  0  2  0  0  0  0  0  0
  188.1920  174.9690  139.2530 C   0  0  0  0  0  2  0  0  0  0  0  0
  194.7890  175.3620  142.0070 N   0  0  0  0  0  0  0  0  0  0  0  0
  185.9400  177.1350  139.3880 C   0  0  0  0  0  1  0  0  0  0  0  0
  195.4120  174.6630  140.8600 C   0  0  0  0  0  2  0  0  0  0  0  0
  188.3130  178.0660  141.9870 C   0  0  0  0  0  0  0  0  0  0  0  0
  192.7380  174.2450  140.5610 C   0  0  0  0  0  2  0  0  0  0  0  0
  192.5260  174.4220  141.8170 C   0  0  0  0  0  2  0  0  0  0  0  0
  187.1910  177.0090  140.1170 N   0  0  0  0  0  0  0  0  0  0  0  0
  189.9970  177.7970  143.8510 C   0  0  1  0  0  3  0  0  0  0  0  0
  189.4530  172.9760  138.5290 C   0  0  0  0  0  2  0  0  0  0  0  0
  196.2670  173.2890  138.6710 N   0  0  0  0  0  0  0  0  0  0  0  0
  195.5520  174.3140  138.4380 N   0  0  0  0  0  0  0  0  0  0  0  0
  197.8140  171.0940  137.8710 S   0  0  0  0  0  0  0  0  0  0  0  0
  197.0630  172.6930  137.6480 C   0  0  0  0  0  0  0  0  0  0  0  0
  197.9400  172.4240  135.5340 C   0  0  0  0  0  2  0  0  0  0  0  0
  197.9410  170.9960  136.0580 C   0  0  0  0  0  2  0  0  0  0  0  0
  197.1790  173.2210  136.4760 N   0  0  0  0  0  0  0  0  0  0  0  0
  189.9550  177.5960  145.3600 C   0  0  0  0  0  2  0  0  0  0  0  0
  188.5230  177.4450  145.8580 C   0  0  0  0  0  2  0  0  0  0  0  0
  188.2970  176.0240  146.3550 C   0  0  0  0  0  2  0  0  0  0  0  0
  189.4920  175.5060  147.1430 C   0  0  0  0  0  2  0  0  0  0  0  0
  189.6980  173.9230  145.1900 N   0  0  0  0  0  2  0  0  0  0  0  0
  189.5830  172.4810  143.1130 C   0  0  0  0  0  2  0  0  0  0  0  0
  192.2510  169.4700  142.1470 S   0  0  0  0  0  0  0  0  0  0  0  0
  190.3230  172.9390  144.3510 C   0  0  0  0  0  0  0  0  0  0  0  0
  191.5200  174.3930  146.5920 O   0  0  0  0  0  0  0  0  0  0  0  0
  190.0630  171.1050  142.6270 C   0  0  0  0  0  2  0  0  0  0  0  0
  193.1690  170.8300  144.2300 N   0  0  0  0  0  0  0  0  0  0  0  0
  191.5820  171.1190  142.5010 C   0  0  1  0  0  3  0  0  0  0  0  0
  193.6210  169.7860  143.3240 C   0  0  2  0  0  3  0  0  0  0  0  0
  190.3010  174.5670  146.3210 C   0  0  0  0  0  0  0  0  0  0  0  0
  192.1540  171.5020  143.8130 C   0  0  0  0  0  0  0  0  0  0  0  0
  191.5070  172.4750  144.6400 N   0  0  0  0  0  0  0  0  0  0  0  0
  195.5950  169.1460  142.1250 O   0  0  0  0  0  1  0  0  0  0  0  0
  194.8690  170.2460  142.5800 C   0  0  2  0  0  3  0  0  0  0  0  0
  195.7050  171.0420  143.4660 N   0  0  0  0  0  1  0  0  0  0  0  0
  1 21  2  0  0  0  0
  2 21  1  0  0  0  0
  3 16  1  0  0  0  0
  4 16  1  0  0  0  0
  5 13  1  0  0  0  0
  6  9  1  0  0  0  0
  7 28  1  6  0  0  0
  7 20  1  0  0  0  0
  8  4  1  0  0  0  0
  8 25  1  0  0  0  0
  9  5  1  0  0  0  0
  9 15  2  0  0  0  0
 12 25  1  0  0  0  0
 13  7  1  0  0  0  0
 13 22  1  1  0  0  0
 15 14  1  0  0  0  0
 17 10  1  0  0  0  0
 17 11  1  0  0  0  0
 18  3  2  0  0  0  0
 19 24  1  0  0  0  0
 20 18  1  0  0  0  0
 21 12  1  0  0  0  0
 22 23  1  0  0  0  0
 23  3  1  0  0  0  0
 24 11  1  0  0  0  0
 24  2  1  0  0  0  0
 25 34  1  1  0  0  0
 26 14  1  0  0  0  0
 26 10  1  0  0  0  0
 28 27  2  0  0  0  0
 30 29  1  0  0  0  0
 30 27  1  0  0  0  0
 31 32  1  0  0  0  0
 31 33  1  0  0  0  0
 32 29  1  0  0  0  0
 33 30  2  0  0  0  0
 34 35  1  0  0  0  0
 35 36  1  0  0  0  0
 36 37  1  0  0  0  0
 38 47  1  0  0  0  0
 39 41  1  0  0  0  0
 40 45  1  0  0  0  0
 40 46  1  0  0  0  0
 41 49  2  0  0  0  0
 41 38  1  0  0  0  0
 43 39  1  0  0  0  0
 45 43  1  1  0  0  0
 45 48  1  0  0  0  0
 46 51  1  6  0  0  0
 46 44  1  0  0  0  0
 47 42  2  0  0  0  0
 47 37  1  0  0  0  0
 48 44  2  0  0  0  0
 48 49  1  0  0  0  0
 51 50  1  1  0  0  0
 51 52  1  0  0  0  0
M  END
>  <MODEL>
4

>  <REMARK>
 VINA RESULT:      -6.5      3.004      8.820
  Name = 
  8 active torsions:
  status: ('A' for Active; 'I' for Inactive)
    1  A    between atoms: C_6  and  C_14
    2  A    between atoms: C_6  and  C_21
    3  A    between atoms: C_9  and  N_22
    4  A    between atoms: C_14  and  C_24
    5  A    between atoms: C_17  and  N_41
    6  A    between atoms: C_21  and  C_48
    7  A    between atoms: C_24  and  C_42
    8  A    between atoms: C_32  and  C_40
                            x       y       z     vdW  Elec       q    Type
                         _______ _______ _______ _____ _____    ______ ____

>  <TORSDO>
F 8

$$$$
=
 OpenBabel11042415573D

 52 56  0  0  1  0  0  0  0  0999 V2000
  195.8750  173.7640  141.1220 O   0  0  0  0  0  0  0  0  0  0  0  0
  197.3710  174.2570  142.9160 C   0  0  0  0  0  2  0  0  0  0  0  0
  190.7160  171.7540  143.0680 C   0  0  0  0  0  0  0  0  0  0  0  0
  192.7140  170.9330  141.8080 C   0  0  0  0  0  2  0  0  0  0  0  0
  190.5970  176.5150  143.6390 S   0  0  0  0  0  0  0  0  0  0  0  0
  188.5060  177.6290  145.2000 C   0  0  0  0  0  1  0  0  0  0  0  0
  188.9520  174.4210  142.5780 C   0  0  1  0  0  3  0  0  0  0  0  0
  193.8340  171.5690  142.6240 C   0  0  0  0  0  2  0  0  0  0  0  0
  189.8140  176.9150  145.2130 C   0  0  0  0  0  0  0  0  0  0  0  0
  194.0580  175.7930  145.9570 C   0  0  0  0  0  2  0  0  0  0  0  0
  196.0490  175.2540  144.5830 C   0  0  0  0  0  2  0  0  0  0  0  0
  196.2150  172.0280  142.6510 N   0  0  0  0  0  2  0  0  0  0  0  0
  189.9670  174.8380  143.6110 C   0  0  1  0  0  3  0  0  0  0  0  0
  191.6630  175.8650  146.5550 C   0  0  0  0  0  2  0  0  0  0  0  0
  190.3690  176.6070  146.3990 C   0  0  0  0  0  3  0  0  0  0  0  0
  191.5420  170.5630  142.7090 C   0  0  0  0  0  2  0  0  0  0  0  0
  194.8600  176.1850  144.7340 C   0  0  0  0  0  2  0  0  0  0  0  0
  189.5740  171.9340  142.4430 N   0  0  0  0  0  0  0  0  0  0  0  0
  197.7270  176.4820  143.5190 C   0  0  0  0  0  1  0  0  0  0  0  0
  188.5190  172.9340  142.7270 C   0  0  0  0  0  2  0  0  0  0  0  0
  196.4420  173.3540  142.1710 C   0  0  0  0  0  0  0  0  0  0  0  0
  190.7330  173.8760  144.0030 C   0  0  0  0  0  2  0  0  0  0  0  0
  191.2450  172.6990  144.0750 C   0  0  0  0  0  2  0  0  0  0  0  0
  196.6920  175.4850  143.2980 N   0  0  0  0  0  0  0  0  0  0  0  0
  195.1920  171.1600  142.0800 C   0  0  1  0  0  3  0  0  0  0  0  0
  192.8370  176.6860  146.0540 C   0  0  0  0  0  2  0  0  0  0  0  0
  187.5910  176.2310  141.8780 N   0  0  0  0  0  0  0  0  0  0  0  0
  187.7730  175.2680  142.6880 N   0  0  0  0  0  0  0  0  0  0  0  0
  185.8030  177.9070  140.5190 S   0  0  0  0  0  0  0  0  0  0  0  0
  186.4250  177.0500  141.9500 C   0  0  0  0  0  0  0  0  0  0  0  0
  184.4980  177.9140  142.8740 C   0  0  0  0  0  2  0  0  0  0  0  0
  184.2050  178.0150  141.3840 C   0  0  0  0  0  2  0  0  0  0  0  0
  185.6990  177.1150  143.0160 N   0  0  0  0  0  0  0  0  0  0  0  0
  195.4620  169.7160  142.4780 C   0  0  0  0  0  2  0  0  0  0  0  0
  196.1080  168.9390  141.3380 C   0  0  0  0  0  2  0  0  0  0  0  0
  196.1690  169.8100  140.0900 C   0  0  0  0  0  2  0  0  0  0  0  0
  195.2440  169.2930  138.9970 C   0  0  0  0  0  2  0  0  0  0  0  0
  193.0790  170.5460  138.6810 N   0  0  0  0  0  2  0  0  0  0  0  0
  190.7820  171.6090  138.6560 C   0  0  0  0  0  2  0  0  0  0  0  0
  189.4220  174.2900  135.8130 S   0  0  0  0  0  0  0  0  0  0  0  0
  192.1900  171.5180  138.1090 C   0  0  0  0  0  0  0  0  0  0  0  0
  195.0690  171.2500  137.6570 O   0  0  0  0  0  0  0  0  0  0  0  0
  189.8110  172.2540  137.6550 C   0  0  0  0  0  2  0  0  0  0  0  0
  192.0200  173.8800  135.4710 N   0  0  0  0  0  0  0  0  0  0  0  0
  190.3980  173.5720  137.1640 C   0  0  1  0  0  3  0  0  0  0  0  0
  190.9750  174.7470  134.9510 C   0  0  2  0  0  3  0  0  0  0  0  0
  194.4750  170.4080  138.3830 C   0  0  0  0  0  0  0  0  0  0  0  0
  191.7330  173.2990  136.5830 C   0  0  0  0  0  0  0  0  0  0  0  0
  192.5980  172.3160  137.1610 N   0  0  0  0  0  0  0  0  0  0  0  0
  190.2910  177.0390  134.7990 O   0  0  0  0  0  1  0  0  0  0  0  0
  191.3260  176.2060  135.2210 C   0  0  2  0  0  3  0  0  0  0  0  0
  192.5480  176.5570  134.5130 N   0  0  0  0  0  1  0  0  0  0  0  0
  1 21  2  0  0  0  0
  2 24  1  0  0  0  0
  3 23  1  0  0  0  0
  4  8  1  0  0  0  0
  4 16  1  0  0  0  0
  5  9  1  0  0  0  0
  6  9  1  0  0  0  0
  7 28  1  1  0  0  0
  7 20  1  0  0  0  0
  7 13  1  0  0  0  0
  9 15  2  0  0  0  0
 10 26  1  0  0  0  0
 11 17  1  0  0  0  0
 13  5  1  0  0  0  0
 13 22  1  6  0  0  0
 15 14  1  0  0  0  0
 16  3  1  0  0  0  0
 17 10  1  0  0  0  0
 18 20  1  0  0  0  0
 18  3  2  0  0  0  0
 21 12  1  0  0  0  0
 21  2  1  0  0  0  0
 22 23  1  0  0  0  0
 24 19  1  0  0  0  0
 24 11  1  0  0  0  0
 25 34  1  1  0  0  0
 25  8  1  0  0  0  0
 25 12  1  0  0  0  0
 26 14  1  0  0  0  0
 27 30  1  0  0  0  0
 27 28  2  0  0  0  0
 29 32  1  0  0  0  0
 29 30  1  0  0  0  0
 30 33  2  0  0  0  0
 31 33  1  0  0  0  0
 32 31  1  0  0  0  0
 35 34  1  0  0  0  0
 36 35  1  0  0  0  0
 37 36  1  0  0  0  0
 40 45  1  0  0  0  0
 41 39  1  0  0  0  0
 41 38  1  0  0  0  0
 42 47  2  0  0  0  0
 43 39  1  0  0  0  0
 44 48  2  0  0  0  0
 45 43  1  6  0  0  0
 46 51  1  1  0  0  0
 46 44  1  0  0  0  0
 46 40  1  0  0  0  0
 47 38  1  0  0  0  0
 47 37  1  0  0  0  0
 48 49  1  0  0  0  0
 48 45  1  0  0  0  0
 49 41  2  0  0  0  0
 50 51  1  0  0  0  0
 51 52  1  6  0  0  0
M  END
>  <MODEL>
5

>  <REMARK>
 VINA RESULT:      -6.2      2.671      5.787
  Name = 
  8 active torsions:
  status: ('A' for Active; 'I' for Inactive)
    1  A    between atoms: C_6  and  C_14
    2  A    between atoms: C_6  and  C_21
    3  A    between atoms: C_9  and  N_22
    4  A    between atoms: C_14  and  C_24
    5  A    between atoms: C_17  and  N_41
    6  A    between atoms: C_21  and  C_48
    7  A    between atoms: C_24  and  C_42
    8  A    between atoms: C_32  and  C_40
                            x       y       z     vdW  Elec       q    Type
                         _______ _______ _______ _____ _____    ______ ____

>  <TORSDO>
F 8

$$$$
=
 OpenBabel11042415573D

 52 56  0  0  1  0  0  0  0  0999 V2000
  192.7420  169.0230  142.0030 O   0  0  0  0  0  0  0  0  0  0  0  0
  194.9940  169.0300  141.2070 C   0  0  0  0  0  2  0  0  0  0  0  0
  190.3210  174.3640  141.7570 C   0  0  0  0  0  0  0  0  0  0  0  0
  191.0750  172.7030  143.4690 C   0  0  0  0  0  2  0  0  0  0  0  0
  190.1690  172.6200  137.2910 S   0  0  0  0  0  0  0  0  0  0  0  0
  189.5150  174.3970  135.1780 C   0  0  0  0  0  1  0  0  0  0  0  0
  188.4310  173.9100  139.1710 C   0  0  1  0  0  3  0  0  0  0  0  0
  192.3910  172.2480  142.8490 C   0  0  0  0  0  2  0  0  0  0  0  0
  190.5720  173.9290  136.1180 C   0  0  0  0  0  0  0  0  0  0  0  0
  194.3500  172.3140  137.8330 C   0  0  0  0  0  2  0  0  0  0  0  0
  194.9980  170.4560  139.3400 C   0  0  0  0  0  2  0  0  0  0  0  0
  194.1560  170.5930  143.0060 N   0  0  0  0  0  2  0  0  0  0  0  0
  189.8310  173.7580  138.6330 C   0  0  1  0  0  3  0  0  0  0  0  0
  192.9340  174.1360  136.9530 C   0  0  0  0  0  2  0  0  0  0  0  0
  191.7920  174.4910  136.0480 C   0  0  0  0  0  3  0  0  0  0  0  0
  190.8170  174.1730  143.1520 C   0  0  0  0  0  2  0  0  0  0  0  0
  194.1180  170.8560  138.1700 C   0  0  0  0  0  2  0  0  0  0  0  0
  189.0380  174.5820  141.5730 N   0  0  0  0  0  0  0  0  0  0  0  0
  195.4510  168.1780  139.0850 C   0  0  0  0  0  1  0  0  0  0  0  0
  188.3400  174.9540  140.3210 C   0  0  0  0  0  2  0  0  0  0  0  0
  193.8910  169.5370  142.0810 C   0  0  0  0  0  0  0  0  0  0  0  0
  190.7500  173.9810  139.5100 C   0  0  0  0  0  2  0  0  0  0  0  0
  191.2910  174.2520  140.6460 C   0  0  0  0  0  2  0  0  0  0  0  0
  194.6200  169.1290  139.8050 N   0  0  0  0  0  0  0  0  0  0  0  0
  193.0940  171.2520  143.7550 C   0  0  1  0  0  3  0  0  0  0  0  0
  193.4150  172.7170  136.7110 C   0  0  0  0  0  2  0  0  0  0  0  0
  187.2890  175.5460  137.8920 N   0  0  0  0  0  0  0  0  0  0  0  0
  187.5390  174.3160  138.0940 N   0  0  0  0  0  0  0  0  0  0  0  0
  187.1040  176.7830  135.3850 S   0  0  0  0  0  0  0  0  0  0  0  0
  186.4440  175.9640  136.8210 C   0  0  0  0  0  0  0  0  0  0  0  0
  184.5110  176.0830  135.5720 C   0  0  0  0  0  2  0  0  0  0  0  0
  185.5830  176.2930  134.5130 C   0  0  0  0  0  2  0  0  0  0  0  0
  185.1890  175.6660  136.7830 N   0  0  0  0  0  0  0  0  0  0  0  0
  193.6890  172.0040  144.9380 C   0  0  0  0  0  2  0  0  0  0  0  0
  194.1730  173.3890  144.5250 C   0  0  0  0  0  2  0  0  0  0  0  0
  194.7770  174.1040  145.7270 C   0  0  0  0  0  2  0  0  0  0  0  0
  194.7100  175.6160  145.5740 C   0  0  0  0  0  2  0  0  0  0  0  0
  192.3340  175.6290  146.4190 N   0  0  0  0  0  2  0  0  0  0  0  0
  190.0870  175.4880  147.5770 C   0  0  0  0  0  2  0  0  0  0  0  0
  186.4540  176.4850  145.8680 S   0  0  0  0  0  0  0  0  0  0  0  0
  190.9270  175.9200  146.3950 C   0  0  0  0  0  0  0  0  0  0  0  0
  192.9840  176.8930  144.5520 O   0  0  0  0  0  0  0  0  0  0  0  0
  188.6000  175.3580  147.2140 C   0  0  0  0  0  2  0  0  0  0  0  0
  188.4240  177.2360  144.2580 N   0  0  0  0  0  0  0  0  0  0  0  0
  188.1370  176.6380  146.5280 C   0  0  1  0  0  3  0  0  0  0  0  0
  186.9800  177.3790  144.3550 C   0  0  2  0  0  3  0  0  0  0  0  0
  193.3000  176.0750  145.4570 C   0  0  0  0  0  0  0  0  0  0  0  0
  189.0030  176.8740  145.3490 C   0  0  0  0  0  0  0  0  0  0  0  0
  190.3990  176.5630  145.3900 N   0  0  0  0  0  0  0  0  0  0  0  0
  185.9120  179.1040  145.6310 O   0  0  0  0  0  1  0  0  0  0  0  0
  186.6080  178.8540  144.4490 C   0  0  2  0  0  3  0  0  0  0  0  0
  185.7780  179.2250  143.3130 N   0  0  0  0  0  1  0  0  0  0  0  0
  1 21  2  0  0  0  0
  2 21  1  0  0  0  0
  3 16  1  0  0  0  0
  5 13  1  0  0  0  0
  6  9  1  0  0  0  0
  7 28  1  6  0  0  0
  7 20  1  0  0  0  0
  8  4  1  0  0  0  0
  8 25  1  0  0  0  0
  9  5  1  0  0  0  0
 10 17  1  0  0  0  0
 11 24  1  0  0  0  0
 12 25  1  0  0  0  0
 13  7  1  0  0  0  0
 13 22  1  1  0  0  0
 15  9  2  0  0  0  0
 15 14  1  0  0  0  0
 16  4  1  0  0  0  0
 17 11  1  0  0  0  0
 18  3  2  0  0  0  0
 19 24  1  0  0  0  0
 20 18  1  0  0  0  0
 21 12  1  0  0  0  0
 22 23  1  0  0  0  0
 23  3  1  0  0  0  0
 24  2  1  0  0  0  0
 25 34  1  1  0  0  0
 26 14  1  0  0  0  0
 26 10  1  0  0  0  0
 27 28  2  0  0  0  0
 29 30  1  0  0  0  0
 30 27  1  0  0  0  0
 31 33  1  0  0  0  0
 32 29  1  0  0  0  0
 32 31  1  0  0  0  0
 33 30  2  0  0  0  0
 35 34  1  0  0  0  0
 35 36  1  0  0  0  0
 37 36  1  0  0  0  0
 40 45  1  0  0  0  0
 41 38  1  0  0  0  0
 41 39  1  0  0  0  0
 42 47  2  0  0  0  0
 43 39  1  0  0  0  0
 44 46  1  0  0  0  0
 44 48  2  0  0  0  0
 45 43  1  6  0  0  0
 46 51  1  1  0  0  0
 46 40  1  0  0  0  0
 47 37  1  0  0  0  0
 47 38  1  0  0  0  0
 48 49  1  0  0  0  0
 48 45  1  0  0  0  0
 49 41  2  0  0  0  0
 51 52  1  6  0  0  0
 51 50  1  0  0  0  0
M  END
>  <MODEL>
6

>  <REMARK>
 VINA RESULT:      -6.1      3.567      8.244
  Name = 
  8 active torsions:
  status: ('A' for Active; 'I' for Inactive)
    1  A    between atoms: C_6  and  C_14
    2  A    between atoms: C_6  and  C_21
    3  A    between atoms: C_9  and  N_22
    4  A    between atoms: C_14  and  C_24
    5  A    between atoms: C_17  and  N_41
    6  A    between atoms: C_21  and  C_48
    7  A    between atoms: C_24  and  C_42
    8  A    between atoms: C_32  and  C_40
                            x       y       z     vdW  Elec       q    Type
                         _______ _______ _______ _____ _____    ______ ____

>  <TORSDO>
F 8

$$$$
=
 OpenBabel11042415573D

 52 56  0  0  1  0  0  0  0  0999 V2000
  195.0280  176.0180  140.1290 O   0  0  0  0  0  0  0  0  0  0  0  0
  196.7910  175.1520  141.4860 C   0  0  0  0  0  2  0  0  0  0  0  0
  189.7930  173.9100  141.7410 C   0  0  0  0  0  0  0  0  0  0  0  0
  191.3840  173.7600  139.8170 C   0  0  0  0  0  2  0  0  0  0  0  0
  190.8730  177.3600  144.8940 S   0  0  0  0  0  0  0  0  0  0  0  0
  189.2970  177.5740  147.2430 C   0  0  0  0  0  1  0  0  0  0  0  0
  188.6690  176.5380  143.2560 C   0  0  1  0  0  3  0  0  0  0  0  0
  192.7080  173.6380  140.5630 C   0  0  0  0  0  2  0  0  0  0  0  0
  190.3900  176.8370  146.5500 C   0  0  0  0  0  0  0  0  0  0  0  0
  194.3040  174.9720  145.5310 C   0  0  0  0  0  2  0  0  0  0  0  0
  195.9400  175.1140  143.6760 C   0  0  0  0  0  2  0  0  0  0  0  0
  195.1160  173.6870  140.2920 N   0  0  0  0  0  2  0  0  0  0  0  0
  189.8650  176.1260  144.0760 C   0  0  1  0  0  3  0  0  0  0  0  0
  192.0770  174.9720  146.6000 C   0  0  0  0  0  2  0  0  0  0  0  0
  190.9870  175.8160  147.1920 C   0  0  0  0  0  3  0  0  0  0  0  0
  190.2660  173.0760  140.5970 C   0  0  0  0  0  2  0  0  0  0  0  0
  195.0320  175.9120  144.5930 C   0  0  0  0  0  2  0  0  0  0  0  0
  188.6630  174.5680  141.6100 N   0  0  0  0  0  0  0  0  0  0  0  0
  197.7310  176.5130  143.1310 C   0  0  0  0  0  1  0  0  0  0  0  0
  187.9150  175.3240  142.6410 C   0  0  0  0  0  2  0  0  0  0  0  0
  195.5960  174.9970  140.6020 C   0  0  0  0  0  0  0  0  0  0  0  0
  190.4190  175.0330  143.6710 C   0  0  0  0  0  2  0  0  0  0  0  0
  190.6420  173.9920  142.9490 C   0  0  0  0  0  2  0  0  0  0  0  0
  196.4710  175.9840  142.6350 N   0  0  0  0  0  0  0  0  0  0  0  0
  193.8590  173.4680  139.5880 C   0  0  1  0  0  3  0  0  0  0  0  0
  193.3490  175.7750  146.3910 C   0  0  0  0  0  2  0  0  0  0  0  0
  186.6350  176.7840  144.4470 N   0  0  0  0  0  0  0  0  0  0  0  0
  187.7450  177.2920  144.0910 N   0  0  0  0  0  0  0  0  0  0  0  0
  185.4130  179.2310  145.0570 S   0  0  0  0  0  0  0  0  0  0  0  0
  185.7320  177.4960  145.2930 C   0  0  0  0  0  0  0  0  0  0  0  0
  184.0810  177.7640  146.8790 C   0  0  0  0  0  2  0  0  0  0  0  0
  183.8770  178.9900  146.0020 C   0  0  0  0  0  2  0  0  0  0  0  0
  185.0170  176.8990  146.1860 N   0  0  0  0  0  0  0  0  0  0  0  0
  193.8220  172.0510  139.0310 C   0  0  0  0  0  2  0  0  0  0  0  0
  192.7180  171.2290  139.6850 C   0  0  0  0  0  2  0  0  0  0  0  0
  192.0770  170.3110  138.6520 C   0  0  0  0  0  2  0  0  0  0  0  0
  192.3480  170.7870  137.2320 C   0  0  0  0  0  2  0  0  0  0  0  0
  191.7820  172.9360  136.0400 N   0  0  0  0  0  2  0  0  0  0  0  0
  191.5520  175.0640  134.6870 C   0  0  0  0  0  2  0  0  0  0  0  0
  188.3650  177.6930  134.8960 S   0  0  0  0  0  0  0  0  0  0  0  0
  190.9600  174.0410  135.6320 C   0  0  0  0  0  0  0  0  0  0  0  0
  190.1350  171.6490  137.1050 O   0  0  0  0  0  0  0  0  0  0  0  0
  190.8200  176.4120  134.7590 C   0  0  0  0  0  2  0  0  0  0  0  0
  187.7910  175.4960  136.2670 N   0  0  0  0  0  0  0  0  0  0  0  0
  189.3230  176.1800  134.6010 C   0  0  1  0  0  3  0  0  0  0  0  0
  187.1250  176.7110  135.8250 C   0  0  2  0  0  3  0  0  0  0  0  0
  191.3510  171.8120  136.8170 C   0  0  0  0  0  0  0  0  0  0  0  0
  188.8860  175.2270  135.6470 C   0  0  0  0  0  0  0  0  0  0  0  0
  189.7280  174.1410  136.0490 N   0  0  0  0  0  0  0  0  0  0  0  0
  185.2850  177.5200  134.5190 O   0  0  0  0  0  1  0  0  0  0  0  0
  185.9410  176.3610  134.9300 C   0  0  2  0  0  3  0  0  0  0  0  0
  185.0100  175.5110  135.6560 N   0  0  0  0  0  1  0  0  0  0  0  0
  1 21  2  0  0  0  0
  2 24  1  0  0  0  0
  3 23  1  0  0  0  0
  4  8  1  0  0  0  0
  4 16  1  0  0  0  0
  5  9  1  0  0  0  0
  7 13  1  0  0  0  0
  7 28  1  1  0  0  0
  9 15  2  0  0  0  0
  9  6  1  0  0  0  0
 10 26  1  0  0  0  0
 11 17  1  0  0  0  0
 12 21  1  0  0  0  0
 13 22  1  6  0  0  0
 13  5  1  0  0  0  0
 14 15  1  0  0  0  0
 16  3  1  0  0  0  0
 17 10  1  0  0  0  0
 18  3  2  0  0  0  0
 18 20  1  0  0  0  0
 20  7  1  0  0  0  0
 21  2  1  0  0  0  0
 23 22  1  0  0  0  0
 24 19  1  0  0  0  0
 24 11  1  0  0  0  0
 25 34  1  1  0  0  0
 25 12  1  0  0  0  0
 25  8  1  0  0  0  0
 26 14  1  0  0  0  0
 27 30  1  0  0  0  0
 28 27  2  0  0  0  0
 29 30  1  0  0  0  0
 29 32  1  0  0  0  0
 30 33  2  0  0  0  0
 32 31  1  0  0  0  0
 33 31  1  0  0  0  0
 34 35  1  0  0  0  0
 36 35  1  0  0  0  0
 37 36  1  0  0  0  0
 38 47  1  0  0  0  0
 39 43  1  0  0  0  0
 39 41  1  0  0  0  0
 40 46  1  0  0  0  0
 41 38  1  0  0  0  0
 41 49  2  0  0  0  0
 45 43  1  1  0  0  0
 45 40  1  0  0  0  0
 45 48  1  0  0  0  0
 46 51  1  6  0  0  0
 46 44  1  0  0  0  0
 47 42  2  0  0  0  0
 47 37  1  0  0  0  0
 48 49  1  0  0  0  0
 48 44  2  0  0  0  0
 51 50  1  1  0  0  0
 51 52  1  0  0  0  0
M  END
>  <MODEL>
7

>  <REMARK>
 VINA RESULT:      -6.1      3.171      6.600
  Name = 
  8 active torsions:
  status: ('A' for Active; 'I' for Inactive)
    1  A    between atoms: C_6  and  C_14
    2  A    between atoms: C_6  and  C_21
    3  A    between atoms: C_9  and  N_22
    4  A    between atoms: C_14  and  C_24
    5  A    between atoms: C_17  and  N_41
    6  A    between atoms: C_21  and  C_48
    7  A    between atoms: C_24  and  C_42
    8  A    between atoms: C_32  and  C_40
                            x       y       z     vdW  Elec       q    Type
                         _______ _______ _______ _____ _____    ______ ____

>  <TORSDO>
F 8

$$$$
=
 OpenBabel11042415573D

 52 56  0  0  1  0  0  0  0  0999 V2000
  191.3510  174.4610  145.9630 O   0  0  0  0  0  0  0  0  0  0  0  0
  192.5430  176.5190  146.1720 C   0  0  0  0  0  2  0  0  0  0  0  0
  189.8550  173.3590  140.3960 C   0  0  0  0  0  0  0  0  0  0  0  0
  188.7630  173.9280  142.5730 C   0  0  0  0  0  2  0  0  0  0  0  0
  194.4890  172.1870  140.7920 S   0  0  0  0  0  0  0  0  0  0  0  0
  195.9560  171.6870  138.4150 C   0  0  0  0  0  1  0  0  0  0  0  0
  192.0570  171.0780  139.7550 C   0  0  1  0  0  3  0  0  0  0  0  0
  189.7160  175.0010  143.0870 C   0  0  0  0  0  2  0  0  0  0  0  0
  195.3750  172.7220  139.3160 C   0  0  0  0  0  0  0  0  0  0  0  0
  194.8570  176.2110  142.0330 C   0  0  0  0  0  2  0  0  0  0  0  0
  193.9860  176.6030  144.3200 C   0  0  0  0  0  2  0  0  0  0  0  0
  190.3000  176.3300  145.0290 N   0  0  0  0  0  2  0  0  0  0  0  0
  192.8770  172.3140  140.0210 C   0  0  1  0  0  3  0  0  0  0  0  0
  194.9900  175.1580  139.8030 C   0  0  0  0  0  2  0  0  0  0  0  0
  195.5460  174.0190  139.0020 C   0  0  0  0  0  3  0  0  0  0  0  0
  188.6670  173.9830  141.0520 C   0  0  0  0  0  2  0  0  0  0  0  0
  194.8350  175.6900  143.4550 C   0  0  0  0  0  2  0  0  0  0  0  0
  189.7290  172.1510  139.8930 N   0  0  0  0  0  0  0  0  0  0  0  0
  194.8540  176.4660  146.4850 C   0  0  0  0  0  1  0  0  0  0  0  0
  190.6980  171.3950  139.0670 C   0  0  0  0  0  2  0  0  0  0  0  0
  191.3780  175.6980  145.7210 C   0  0  0  0  0  0  0  0  0  0  0  0
  192.1680  173.3720  140.2270 C   0  0  0  0  0  2  0  0  0  0  0  0
  191.1270  174.1120  140.3840 C   0  0  0  0  0  2  0  0  0  0  0  0
  193.7820  175.9900  145.6250 N   0  0  0  0  0  0  0  0  0  0  0  0
  189.2240  175.5670  144.4080 C   0  0  1  0  0  3  0  0  0  0  0  0
  195.6480  175.2520  141.1670 C   0  0  0  0  0  2  0  0  0  0  0  0
  192.8070  170.3070  137.6430 N   0  0  0  0  0  0  0  0  0  0  0  0
  192.8140  170.1680  138.9070 N   0  0  0  0  0  0  0  0  0  0  0  0
  193.1010  169.1550  135.1060 S   0  0  0  0  0  0  0  0  0  0  0  0
  193.5680  169.4440  136.7990 C   0  0  0  0  0  0  0  0  0  0  0  0
  195.3750  168.1660  136.1550 C   0  0  0  0  0  2  0  0  0  0  0  0
  194.8160  168.6190  134.8140 C   0  0  0  0  0  2  0  0  0  0  0  0
  194.6900  168.9310  137.1790 N   0  0  0  0  0  0  0  0  0  0  0  0
  188.0370  176.4800  144.1350 C   0  0  0  0  0  2  0  0  0  0  0  0
  187.9730  177.6200  145.1440 C   0  0  0  0  0  2  0  0  0  0  0  0
  186.5300  177.8500  145.5720 C   0  0  0  0  0  2  0  0  0  0  0  0
  185.9830  179.1610  145.0260 C   0  0  0  0  0  2  0  0  0  0  0  0
  184.4810  178.6330  143.0700 N   0  0  0  0  0  2  0  0  0  0  0  0
  183.2830  177.9860  140.9360 C   0  0  0  0  0  2  0  0  0  0  0  0
  179.2690  178.6250  140.1630 S   0  0  0  0  0  0  0  0  0  0  0  0
  183.2390  178.4940  142.3610 C   0  0  0  0  0  0  0  0  0  0  0  0
  183.6140  179.0500  145.2110 O   0  0  0  0  0  0  0  0  0  0  0  0
  182.0310  178.3850  140.1400 C   0  0  0  0  0  2  0  0  0  0  0  0
  179.7780  179.1750  142.7080 N   0  0  0  0  0  0  0  0  0  0  0  0
  180.7880  177.9900  140.9270 C   0  0  1  0  0  3  0  0  0  0  0  0
  178.6270  179.0550  141.8270 C   0  0  2  0  0  3  0  0  0  0  0  0
  184.6210  178.9700  144.4570 C   0  0  0  0  0  0  0  0  0  0  0  0
  180.8560  178.6340  142.2600 C   0  0  0  0  0  0  0  0  0  0  0  0
  182.1060  178.7750  142.9430 N   0  0  0  0  0  0  0  0  0  0  0  0
  177.9960  177.6460  143.6590 O   0  0  0  0  0  1  0  0  0  0  0  0
  177.6910  177.9650  142.3370 C   0  0  2  0  0  3  0  0  0  0  0  0
  177.8250  176.7760  141.5100 N   0  0  0  0  0  1  0  0  0  0  0  0
  3 16  1  0  0  0  0
  4  8  1  0  0  0  0
  6  9  1  0  0  0  0
  7 28  1  6  0  0  0
  7 13  1  0  0  0  0
  8 25  1  0  0  0  0
  9  5  1  0  0  0  0
 10 17  1  0  0  0  0
 11 24  1  0  0  0  0
 12 21  1  0  0  0  0
 13 22  1  1  0  0  0
 13  5  1  0  0  0  0
 14 26  1  0  0  0  0
 15  9  2  0  0  0  0
 15 14  1  0  0  0  0
 16  4  1  0  0  0  0
 17 11  1  0  0  0  0
 18  3  2  0  0  0  0
 20  7  1  0  0  0  0
 20 18  1  0  0  0  0
 21  1  2  0  0  0  0
 21  2  1  0  0  0  0
 22 23  1  0  0  0  0
 23  3  1  0  0  0  0
 24  2  1  0  0  0  0
 24 19  1  0  0  0  0
 25 34  1  6  0  0  0
 25 12  1  0  0  0  0
 26 10  1  0  0  0  0
 27 28  2  0  0  0  0
 29 30  1  0  0  0  0
 30 33  2  0  0  0  0
 30 27  1  0  0  0  0
 31 33  1  0  0  0  0
 32 29  1  0  0  0  0
 32 31  1  0  0  0  0
 34 35  1  0  0  0  0
 35 36  1  0  0  0  0
 37 36  1  0  0  0  0
 38 47  1  0  0  0  0
 39 41  1  0  0  0  0
 40 45  1  0  0  0  0
 40 46  1  0  0  0  0
 41 49  2  0  0  0  0
 41 38  1  0  0  0  0
 43 39  1  0  0  0  0
 45 43  1  6  0  0  0
 45 48  1  0  0  0  0
 46 51  1  1  0  0  0
 46 44  1  0  0  0  0
 47 37  1  0  0  0  0
 47 42  2  0  0  0  0
 48 44  2  0  0  0  0
 48 49  1  0  0  0  0
 51 52  1  6  0  0  0
 51 50  1  0  0  0  0
M  END
>  <MODEL>
8

>  <REMARK>
 VINA RESULT:      -5.9      4.921     11.848
  Name = 
  8 active torsions:
  status: ('A' for Active; 'I' for Inactive)
    1  A    between atoms: C_6  and  C_14
    2  A    between atoms: C_6  and  C_21
    3  A    between atoms: C_9  and  N_22
    4  A    between atoms: C_14  and  C_24
    5  A    between atoms: C_17  and  N_41
    6  A    between atoms: C_21  and  C_48
    7  A    between atoms: C_24  and  C_42
    8  A    between atoms: C_32  and  C_40
                            x       y       z     vdW  Elec       q    Type
                         _______ _______ _______ _____ _____    ______ ____

>  <TORSDO>
F 8

$$$$
=
 OpenBabel11042415573D

 52 56  0  0  1  0  0  0  0  0999 V2000
  194.7520  175.7270  142.4290 O   0  0  0  0  0  0  0  0  0  0  0  0
  195.7380  175.8580  144.6000 C   0  0  0  0  0  2  0  0  0  0  0  0
  189.6880  172.7620  142.5040 C   0  0  0  0  0  0  0  0  0  0  0  0
  192.0120  172.5180  141.6120 C   0  0  0  0  0  2  0  0  0  0  0  0
  188.6910  177.1500  144.1640 S   0  0  0  0  0  0  0  0  0  0  0  0
  186.1680  177.5820  145.3870 C   0  0  0  0  0  1  0  0  0  0  0  0
  187.6630  175.2730  142.2580 C   0  0  1  0  0  3  0  0  0  0  0  0
  192.8180  173.0150  142.8070 C   0  0  0  0  0  2  0  0  0  0  0  0
  187.5410  177.0260  145.5460 C   0  0  0  0  0  0  0  0  0  0  0  0
  191.6570  176.1700  147.0140 C   0  0  0  0  0  2  0  0  0  0  0  0
  193.9520  176.2260  146.0810 C   0  0  0  0  0  2  0  0  0  0  0  0
  195.0350  173.6830  143.5270 N   0  0  0  0  0  2  0  0  0  0  0  0
  188.3580  175.4910  143.5770 C   0  0  1  0  0  3  0  0  0  0  0  0
  189.2090  175.8380  147.0050 C   0  0  0  0  0  2  0  0  0  0  0  0
  187.8750  176.4630  146.7220 C   0  0  0  0  0  3  0  0  0  0  0  0
  190.7500  171.8010  142.0820 C   0  0  0  0  0  2  0  0  0  0  0  0
  192.6250  176.9580  146.1570 C   0  0  0  0  0  2  0  0  0  0  0  0
  188.6890  172.9910  141.6810 N   0  0  0  0  0  0  0  0  0  0  0  0
  195.5980  177.8580  145.7910 C   0  0  0  0  0  1  0  0  0  0  0  0
  187.4520  173.7660  141.9320 C   0  0  0  0  0  2  0  0  0  0  0  0
  195.1430  175.1050  143.4530 C   0  0  0  0  0  0  0  0  0  0  0  0
  189.1680  174.5390  143.9000 C   0  0  0  0  0  2  0  0  0  0  0  0
  189.8350  173.4430  143.8080 C   0  0  0  0  0  2  0  0  0  0  0  0
  194.8060  176.8620  145.0890 N   0  0  0  0  0  0  0  0  0  0  0  0
  194.3080  172.9070  142.5300 C   0  0  1  0  0  3  0  0  0  0  0  0
  190.3160  176.8770  147.0220 C   0  0  0  0  0  2  0  0  0  0  0  0
  186.2420  177.1220  141.8350 N   0  0  0  0  0  0  0  0  0  0  0  0
  186.3670  175.9360  142.2770 N   0  0  0  0  0  0  0  0  0  0  0  0
  184.0640  177.9900  140.3010 S   0  0  0  0  0  0  0  0  0  0  0  0
  184.9730  177.7750  141.8160 C   0  0  0  0  0  0  0  0  0  0  0  0
  183.0460  178.6850  142.6940 C   0  0  0  0  0  2  0  0  0  0  0  0
  182.5770  178.2160  141.3250 C   0  0  0  0  0  2  0  0  0  0  0  0
  184.3700  178.1310  142.9000 N   0  0  0  0  0  0  0  0  0  0  0  0
  194.7150  171.4420  142.6200 C   0  0  0  0  0  2  0  0  0  0  0  0
  196.0950  171.2140  142.0170 C   0  0  0  0  0  2  0  0  0  0  0  0
  196.2310  172.0070  140.7240 C   0  0  0  0  0  2  0  0  0  0  0  0
  195.9350  171.1480  139.5030 C   0  0  0  0  0  2  0  0  0  0  0  0
  193.8740  170.6680  138.1310 N   0  0  0  0  0  2  0  0  0  0  0  0
  191.8670  169.8290  136.8370 C   0  0  0  0  0  2  0  0  0  0  0  0
  189.3710  172.1740  134.5150 S   0  0  0  0  0  0  0  0  0  0  0  0
  192.7050  170.9770  137.3550 C   0  0  0  0  0  0  0  0  0  0  0  0
  194.3810  172.8350  138.8740 O   0  0  0  0  0  0  0  0  0  0  0  0
  191.0130  170.2350  135.6260 C   0  0  0  0  0  2  0  0  0  0  0  0
  191.0180  173.7300  135.8950 N   0  0  0  0  0  0  0  0  0  0  0  0
  190.2340  171.5000  135.9630 C   0  0  1  0  0  3  0  0  0  0  0  0
  189.8560  173.8660  135.0290 C   0  0  2  0  0  3  0  0  0  0  0  0
  194.7060  171.6190  138.8090 C   0  0  0  0  0  0  0  0  0  0  0  0
  191.2000  172.5480  136.3680 C   0  0  0  0  0  0  0  0  0  0  0  0
  192.3660  172.2160  137.1290 N   0  0  0  0  0  0  0  0  0  0  0  0
  188.7290  175.9150  135.5520 O   0  0  0  0  0  1  0  0  0  0  0  0
  188.7190  174.5410  135.7860 C   0  0  2  0  0  3  0  0  0  0  0  0
  188.8610  174.2940  137.2130 N   0  0  0  0  0  1  0  0  0  0  0  0
  1 21  2  0  0  0  0
  2 24  1  0  0  0  0
  3 23  1  0  0  0  0
  4 16  1  0  0  0  0
  4  8  1  0  0  0  0
  5  9  1  0  0  0  0
  6  9  1  0  0  0  0
  7 28  1  1  0  0  0
  7 13  1  0  0  0  0
  9 15  2  0  0  0  0
 10 26  1  0  0  0  0
 11 17  1  0  0  0  0
 13 22  1  6  0  0  0
 13  5  1  0  0  0  0
 14 26  1  0  0  0  0
 15 14  1  0  0  0  0
 16  3  1  0  0  0  0
 17 10  1  0  0  0  0
 18 20  1  0  0  0  0
 18  3  2  0  0  0  0
 20  7  1  0  0  0  0
 21 12  1  0  0  0  0
 21  2  1  0  0  0  0
 23 22  1  0  0  0  0
 24 19  1  0  0  0  0
 24 11  1  0  0  0  0
 25 34  1  1  0  0  0
 25  8  1  0  0  0  0
 25 12  1  0  0  0  0
 27 28  2  0  0  0  0
 29 32  1  0  0  0  0
 29 30  1  0  0  0  0
 30 27  1  0  0  0  0
 30 33  2  0  0  0  0
 31 33  1  0  0  0  0
 32 31  1  0  0  0  0
 35 34  1  0  0  0  0
 36 35  1  0  0  0  0
 37 36  1  0  0  0  0
 38 47  1  0  0  0  0
 39 41  1  0  0  0  0
 40 46  1  0  0  0  0
 40 45  1  0  0  0  0
 41 38  1  0  0  0  0
 43 39  1  0  0  0  0
 44 48  2  0  0  0  0
 45 43  1  6  0  0  0
 45 48  1  0  0  0  0
 46 51  1  1  0  0  0
 46 44  1  0  0  0  0
 47 42  2  0  0  0  0
 47 37  1  0  0  0  0
 48 49  1  0  0  0  0
 49 41  2  0  0  0  0
 51 50  1  1  0  0  0
 51 52  1  0  0  0  0
M  END
>  <MODEL>
9

>  <REMARK>
 VINA RESULT:      -5.8      3.021      6.142
  Name = 
  8 active torsions:
  status: ('A' for Active; 'I' for Inactive)
    1  A    between atoms: C_6  and  C_14
    2  A    between atoms: C_6  and  C_21
    3  A    between atoms: C_9  and  N_22
    4  A    between atoms: C_14  and  C_24
    5  A    between atoms: C_17  and  N_41
    6  A    between atoms: C_21  and  C_48
    7  A    between atoms: C_24  and  C_42
    8  A    between atoms: C_32  and  C_40
                            x       y       z     vdW  Elec       q    Type
                         _______ _______ _______ _____ _____    ______ ____

>  <TORSDO>
F 8

$$$$
