=
 OpenBabel11042413563D

 51 53  0  0  1  0  0  0  0  0999 V2000
  184.8620  177.9640  141.6650 C   0  0  0  0  0  0  0  0  0  0  0  0
  184.2600  177.9150  140.3930 C   0  0  0  0  0  3  0  0  0  0  0  0
  182.6870  178.5340  142.6060 C   0  0  0  0  0  3  0  0  0  0  0  0
  182.1110  178.4860  141.3370 C   0  0  0  0  0  3  0  0  0  0  0  0
  184.0570  178.2790  142.7890 C   0  0  0  0  0  0  0  0  0  0  0  0
  182.8980  178.1730  140.2290 C   0  0  0  0  0  3  0  0  0  0  0  0
  186.8110  176.4830  141.5240 C   0  0  0  0  0  3  0  0  0  0  0  0
  186.3220  177.6970  141.7840 C   0  0  0  0  0  0  0  0  0  0  0  0
  187.1960  178.7180  142.1570 O   0  0  0  0  0  1  0  0  0  0  0  0
  188.2670  176.1720  141.6330 C   0  0  0  0  0  2  0  0  0  0  0  0
  189.1270  173.8350  142.0430 C   0  0  0  0  0  0  0  0  0  0  0  0
  188.4540  175.0140  142.4900 N   0  0  0  0  0  2  0  0  0  0  0  0
  189.6170  173.7810  140.8830 O   0  0  0  0  0  0  0  0  0  0  0  0
  189.2730  172.7330  142.9370 N   0  0  0  0  0  2  0  0  0  0  0  0
  195.5550  170.2570  145.0160 C   0  0  1  0  0  3  0  0  0  0  0  0
  193.1990  170.2630  144.0120 C   0  0  2  0  0  3  0  0  0  0  0  0
  193.9400  172.1930  145.4460 C   0  0  0  0  0  2  0  0  0  0  0  0
  193.3570  171.7720  144.0930 C   0  0  2  0  0  3  0  0  0  0  0  0
  194.5740  169.5770  144.0240 C   0  0  1  0  0  3  0  0  0  0  0  0
  192.1650  169.8990  142.5640 S   0  0  0  0  0  0  0  0  0  0  0  0
  195.1410  169.5890  142.7440 O   0  0  0  0  0  1  0  0  0  0  0  0
  190.0110  171.5610  142.5840 C   0  0  0  0  0  3  0  0  0  0  0  0
  194.8250  171.0970  146.0800 C   0  0  0  0  0  2  0  0  0  0  0  0
  191.2790  171.4040  142.9540 C   0  0  0  0  0  0  0  0  0  0  0  0
  191.9990  172.3870  143.8230 C   0  0  0  0  0  2  0  0  0  0  0  0
  196.0640  169.0170  147.0070 O   0  0  0  0  0  1  0  0  0  0  0  0
  196.4670  169.2230  145.6840 C   0  0  2  0  0  3  0  0  0  0  0  0
  197.8200  170.6930  144.7250 C   0  0  0  0  0  1  0  0  0  0  0  0
  197.7910  169.6710  145.6760 O   0  0  0  0  0  0  0  0  0  0  0  0
  184.6230  178.2770  144.1100 N   0  0  0  0  0  2  0  0  0  0  0  0
  185.2820  180.5260  144.2650 O   0  0  0  0  0  0  0  0  0  0  0  0
  185.1420  179.4070  144.8250 C   0  0  0  0  0  0  0  0  0  0  0  0
  185.5520  179.2520  146.2490 C   0  0  0  0  0  2  0  0  0  0  0  0
  185.5330  177.7860  146.6600 C   0  0  0  0  0  2  0  0  0  0  0  0
  186.8670  177.4040  147.2830 C   0  0  0  0  0  2  0  0  0  0  0  0
  187.2580  176.5580  145.0450 O   0  0  0  0  0  1  0  0  0  0  0  0
  187.7280  176.5460  146.3600 C   0  0  1  0  0  3  0  0  0  0  0  0
  189.2260  176.8650  146.4500 C   0  0  1  0  0  3  0  0  0  0  0  0
  189.2580  174.6630  146.6360 C   0  0  0  0  0  1  0  0  0  0  0  0
  189.8800  175.8180  147.1030 O   0  0  0  0  0  0  0  0  0  0  0  0
  189.8760  177.0880  145.0890 C   0  0  0  0  0  2  0  0  0  0  0  0
  191.4450  176.7490  142.7490 O   0  0  0  0  0  0  0  0  0  0  0  0
  191.2040  176.4980  145.0580 N   0  0  0  0  0  2  0  0  0  0  0  0
  191.9620  176.4160  143.8500 C   0  0  0  0  0  0  0  0  0  0  0  0
  193.3510  175.8610  143.8970 C   0  0  0  0  0  2  0  0  0  0  0  0
  195.8000  176.7760  141.3200 O   0  0  0  0  0  0  0  0  0  0  0  0
  196.3700  176.3190  143.5150 N   0  0  0  0  0  2  0  0  0  0  0  0
  195.4120  176.3890  142.4510 C   0  0  0  0  0  0  0  0  0  0  0  0
  194.0320  176.0330  142.6220 N   0  0  0  0  0  2  0  0  0  0  0  0
  196.1650  175.6350  144.7840 C   0  0  0  0  0  2  0  0  0  0  0  0
  196.9210  174.3210  144.7940 C   0  0  0  0  0  1  0  0  0  0  0  0
  1  8  1  0  0  0  0
  1  5  1  0  0  0  0
  2  1  2  0  0  0  0
  3  5  2  0  0  0  0
  4  3  1  0  0  0  0
  5 30  1  0  0  0  0
  6  2  1  0  0  0  0
  6  4  2  0  0  0  0
  7 10  1  0  0  0  0
  7  8  2  0  0  0  0
  8  9  1  0  0  0  0
 10 12  1  0  0  0  0
 11 12  1  0  0  0  0
 11 14  1  0  0  0  0
 13 11  2  0  0  0  0
 15 27  1  1  0  0  0
 15 23  1  0  0  0  0
 16 20  1  6  0  0  0
 16 19  1  0  0  0  0
 16 18  1  0  0  0  0
 17 23  1  0  0  0  0
 18 25  1  1  0  0  0
 18 17  1  0  0  0  0
 19 21  1  6  0  0  0
 19 15  1  0  0  0  0
 20 24  1  0  0  0  0
 22 14  1  0  0  0  0
 22 24  2  0  0  0  0
 24 25  1  0  0  0  0
 27 26  1  1  0  0  0
 28 29  1  0  0  0  0
 29 27  1  0  0  0  0
 30 32  1  0  0  0  0
 31 32  2  0  0  0  0
 32 33  1  0  0  0  0
 33 34  1  0  0  0  0
 34 35  1  0  0  0  0
 37 36  1  6  0  0  0
 37 38  1  0  0  0  0
 37 35  1  0  0  0  0
 38 41  1  6  0  0  0
 38 40  1  0  0  0  0
 39 40  1  0  0  0  0
 42 44  2  0  0  0  0
 43 41  1  0  0  0  0
 44 45  1  0  0  0  0
 44 43  1  0  0  0  0
 46 48  2  0  0  0  0
 47 50  1  0  0  0  0
 48 49  1  0  0  0  0
 48 47  1  0  0  0  0
 49 45  1  0  0  0  0
 50 51  1  0  0  0  0
M  END
>  <MODEL>
1

>  <REMARK>
 VINA RESULT:      -7.0      0.000      0.000
  Name = 
  18 active torsions:
  status: ('A' for Active; 'I' for Inactive)
    1  A    between atoms: C_1  and  C_51
    2  A    between atoms: C_2  and  C_23
    3  A    between atoms: C_2  and  N_49
    4  A    between atoms: C_3  and  C_45
    5  A    between atoms: C_6  and  N_34
    6  A    between atoms: C_6  and  C_41
    7  A    between atoms: N_7  and  C_32
    8  A    between atoms: C_8  and  N_22
    9  A    between atoms: C_13  and  C_17
   10  A    between atoms: C_13  and  C_31
   11  A    between atoms: N_15  and  C_38
   12  A    between atoms: C_17  and  C_47
   13  A    between atoms: C_26  and  N_40
   14  A    between atoms: O_27  and  C_51
   15  A    between atoms: C_28  and  C_29
   16  A    between atoms: C_28  and  O_30
   17  A    between atoms: C_28  and  C_32
   18  A    between atoms: C_29  and  C_31
                            x       y       z     vdW  Elec       q    Type
                         _______ _______ _______ _____ _____    ______ ____

>  <TORSDO>
F 18

$$$$
=
 OpenBabel11042413563D

 51 53  0  0  1  0  0  0  0  0999 V2000
  185.3990  177.9400  143.3260 C   0  0  0  0  0  0  0  0  0  0  0  0
  184.1190  178.3250  142.8830 C   0  0  0  0  0  3  0  0  0  0  0  0
  185.9960  177.4740  141.0090 C   0  0  0  0  0  3  0  0  0  0  0  0
  184.7210  177.8540  140.5920 C   0  0  0  0  0  3  0  0  0  0  0  0
  186.3520  177.5080  142.3680 C   0  0  0  0  0  0  0  0  0  0  0  0
  183.7820  178.2830  141.5290 C   0  0  0  0  0  3  0  0  0  0  0  0
  185.9660  176.8630  145.4550 C   0  0  0  0  0  3  0  0  0  0  0  0
  185.7040  177.9860  144.7830 C   0  0  0  0  0  0  0  0  0  0  0  0
  185.7290  179.2050  145.4600 O   0  0  0  0  0  1  0  0  0  0  0  0
  186.2750  176.8630  146.9150 C   0  0  0  0  0  2  0  0  0  0  0  0
  188.7870  176.6190  146.9490 C   0  0  0  0  0  0  0  0  0  0  0  0
  187.4770  176.0840  147.1570 N   0  0  0  0  0  2  0  0  0  0  0  0
  188.9360  177.8140  146.5780 O   0  0  0  0  0  0  0  0  0  0  0  0
  189.9240  175.7970  147.2040 N   0  0  0  0  0  2  0  0  0  0  0  0
  195.5830  173.5600  143.6120 C   0  0  1  0  0  3  0  0  0  0  0  0
  194.0480  175.1440  144.9140 C   0  0  2  0  0  3  0  0  0  0  0  0
  193.1150  173.0000  143.9850 C   0  0  0  0  0  2  0  0  0  0  0  0
  193.2920  173.8660  145.2360 C   0  0  2  0  0  3  0  0  0  0  0  0
  195.4950  174.8250  144.5080 C   0  0  1  0  0  3  0  0  0  0  0  0
  193.8700  176.2570  146.3380 S   0  0  0  0  0  0  0  0  0  0  0  0
  196.2940  174.6360  145.6410 O   0  0  0  0  0  1  0  0  0  0  0  0
  191.2600  176.2960  147.1020 C   0  0  0  0  0  3  0  0  0  0  0  0
  194.2380  173.2190  142.9460 C   0  0  0  0  0  2  0  0  0  0  0  0
  192.2220  175.5860  146.5200 C   0  0  0  0  0  0  0  0  0  0  0  0
  191.9720  174.2650  145.8650 C   0  0  0  0  0  2  0  0  0  0  0  0
  197.4940  172.5730  142.5480 O   0  0  0  0  0  1  0  0  0  0  0  0
  196.6810  173.7100  142.5540 C   0  0  2  0  0  3  0  0  0  0  0  0
  197.4960  175.5580  141.6410 C   0  0  0  0  0  1  0  0  0  0  0  0
  197.4680  174.8310  142.8330 O   0  0  0  0  0  0  0  0  0  0  0  0
  187.6870  177.1660  142.7760 N   0  0  0  0  0  2  0  0  0  0  0  0
  188.9090  178.6380  141.4150 O   0  0  0  0  0  0  0  0  0  0  0  0
  188.9040  177.7900  142.3450 C   0  0  0  0  0  0  0  0  0  0  0  0
  190.1940  177.4090  142.9870 C   0  0  0  0  0  2  0  0  0  0  0  0
  190.1890  175.9380  143.3770 C   0  0  0  0  0  2  0  0  0  0  0  0
  190.4950  175.0770  142.1600 C   0  0  0  0  0  2  0  0  0  0  0  0
  188.5720  174.2570  140.9330 O   0  0  0  0  0  1  0  0  0  0  0  0
  189.4780  173.9580  141.9540 C   0  0  1  0  0  3  0  0  0  0  0  0
  190.1170  172.5750  141.7840 C   0  0  1  0  0  3  0  0  0  0  0  0
  189.5330  172.0730  143.8550 C   0  0  0  0  0  1  0  0  0  0  0  0
  189.4010  171.6430  142.5370 O   0  0  0  0  0  0  0  0  0  0  0  0
  190.1680  172.1100  140.3320 C   0  0  0  0  0  2  0  0  0  0  0  0
  190.2780  173.8010  138.0560 O   0  0  0  0  0  0  0  0  0  0  0  0
  191.3920  172.5670  139.6950 N   0  0  0  0  0  2  0  0  0  0  0  0
  191.3720  173.4690  138.5890 C   0  0  0  0  0  0  0  0  0  0  0  0
  192.6690  173.9580  138.0220 C   0  0  0  0  0  2  0  0  0  0  0  0
  193.1440  176.9590  135.9620 O   0  0  0  0  0  0  0  0  0  0  0  0
  194.8760  175.5650  136.6020 N   0  0  0  0  0  2  0  0  0  0  0  0
  193.4810  175.8910  136.5320 C   0  0  0  0  0  0  0  0  0  0  0  0
  192.4570  175.0500  137.0830 N   0  0  0  0  0  2  0  0  0  0  0  0
  195.4150  174.2610  136.9620 C   0  0  0  0  0  2  0  0  0  0  0  0
  196.6960  173.9990  136.1940 C   0  0  0  0  0  1  0  0  0  0  0  0
  1  8  1  0  0  0  0
  2  1  1  0  0  0  0
  3  5  1  0  0  0  0
  4  3  2  0  0  0  0
  4  6  1  0  0  0  0
  5 30  1  0  0  0  0
  5  1  2  0  0  0  0
  6  2  2  0  0  0  0
  7 10  1  0  0  0  0
  8  7  2  0  0  0  0
  8  9  1  0  0  0  0
 10 12  1  0  0  0  0
 11 12  1  0  0  0  0
 11 14  1  0  0  0  0
 13 11  2  0  0  0  0
 15 27  1  6  0  0  0
 15 19  1  0  0  0  0
 16 18  1  0  0  0  0
 16 20  1  1  0  0  0
 18 17  1  6  0  0  0
 18 25  1  0  0  0  0
 19 16  1  0  0  0  0
 19 21  1  1  0  0  0
 20 24  1  0  0  0  0
 22 14  1  0  0  0  0
 23 15  1  0  0  0  0
 23 17  1  0  0  0  0
 24 22  2  0  0  0  0
 25 24  1  0  0  0  0
 27 26  1  1  0  0  0
 27 29  1  0  0  0  0
 28 29  1  0  0  0  0
 31 32  2  0  0  0  0
 32 30  1  0  0  0  0
 32 33  1  0  0  0  0
 33 34  1  0  0  0  0
 35 34  1  0  0  0  0
 37 36  1  6  0  0  0
 37 35  1  0  0  0  0
 38 41  1  6  0  0  0
 38 37  1  0  0  0  0
 38 40  1  0  0  0  0
 40 39  1  0  0  0  0
 42 44  2  0  0  0  0
 43 41  1  0  0  0  0
 44 43  1  0  0  0  0
 45 44  1  0  0  0  0
 46 48  2  0  0  0  0
 47 50  1  0  0  0  0
 48 47  1  0  0  0  0
 48 49  1  0  0  0  0
 49 45  1  0  0  0  0
 51 50  1  0  0  0  0
M  END
>  <MODEL>
2

>  <REMARK>
 VINA RESULT:      -6.8      3.240      5.358
  Name = 
  18 active torsions:
  status: ('A' for Active; 'I' for Inactive)
    1  A    between atoms: C_1  and  C_51
    2  A    between atoms: C_2  and  C_23
    3  A    between atoms: C_2  and  N_49
    4  A    between atoms: C_3  and  C_45
    5  A    between atoms: C_6  and  N_34
    6  A    between atoms: C_6  and  C_41
    7  A    between atoms: N_7  and  C_32
    8  A    between atoms: C_8  and  N_22
    9  A    between atoms: C_13  and  C_17
   10  A    between atoms: C_13  and  C_31
   11  A    between atoms: N_15  and  C_38
   12  A    between atoms: C_17  and  C_47
   13  A    between atoms: C_26  and  N_40
   14  A    between atoms: O_27  and  C_51
   15  A    between atoms: C_28  and  C_29
   16  A    between atoms: C_28  and  O_30
   17  A    between atoms: C_28  and  C_32
   18  A    between atoms: C_29  and  C_31
                            x       y       z     vdW  Elec       q    Type
                         _______ _______ _______ _____ _____    ______ ____

>  <TORSDO>
F 18

$$$$
=
 OpenBabel11042413563D

 51 53  0  0  1  0  0  0  0  0999 V2000
  186.9140  177.2670  146.4300 C   0  0  0  0  0  0  0  0  0  0  0  0
  186.3910  178.0450  147.4800 C   0  0  0  0  0  3  0  0  0  0  0  0
  184.9130  177.7740  145.1350 C   0  0  0  0  0  3  0  0  0  0  0  0
  184.4090  178.5370  146.1880 C   0  0  0  0  0  3  0  0  0  0  0  0
  186.1580  177.1310  145.2380 C   0  0  0  0  0  0  0  0  0  0  0  0
  185.1500  178.6750  147.3610 C   0  0  0  0  0  3  0  0  0  0  0  0
  189.3660  177.2670  146.3750 C   0  0  0  0  0  3  0  0  0  0  0  0
  188.2340  176.6010  146.6130 C   0  0  0  0  0  0  0  0  0  0  0  0
  188.3020  175.2780  147.0470 O   0  0  0  0  0  1  0  0  0  0  0  0
  190.7090  176.6390  146.5440 C   0  0  0  0  0  2  0  0  0  0  0  0
  192.8520  176.4020  145.2320 C   0  0  0  0  0  0  0  0  0  0  0  0
  191.5100  176.8790  145.3550 N   0  0  0  0  0  2  0  0  0  0  0  0
  193.3740  175.7190  146.1540 O   0  0  0  0  0  0  0  0  0  0  0  0
  193.5820  176.6760  144.0370 N   0  0  0  0  0  2  0  0  0  0  0  0
  196.6800  173.8640  138.3440 C   0  0  1  0  0  3  0  0  0  0  0  0
  196.4520  174.9740  140.6410 C   0  0  2  0  0  3  0  0  0  0  0  0
  194.4730  174.9210  139.0880 C   0  0  0  0  0  2  0  0  0  0  0  0
  194.9910  174.5840  140.4900 C   0  0  2  0  0  3  0  0  0  0  0  0
  197.3360  174.1070  139.7300 C   0  0  1  0  0  3  0  0  0  0  0  0
  196.8570  174.9000  142.4100 S   0  0  0  0  0  0  0  0  0  0  0  0
  197.6010  172.8720  140.3310 O   0  0  0  0  0  1  0  0  0  0  0  0
  194.8940  176.1550  143.8130 C   0  0  0  0  0  3  0  0  0  0  0  0
  195.5900  174.9020  138.0210 C   0  0  0  0  0  2  0  0  0  0  0  0
  195.1920  175.4830  142.7050 C   0  0  0  0  0  0  0  0  0  0  0  0
  194.2180  175.2900  141.5860 C   0  0  0  0  0  2  0  0  0  0  0  0
  197.4330  174.7930  136.2630 O   0  0  0  0  0  1  0  0  0  0  0  0
  197.7350  173.8330  137.2340 C   0  0  2  0  0  3  0  0  0  0  0  0
  197.2070  172.7620  135.3670 C   0  0  0  0  0  1  0  0  0  0  0  0
  197.7650  172.5710  136.6320 O   0  0  0  0  0  0  0  0  0  0  0  0
  186.6880  176.3950  144.1230 N   0  0  0  0  0  2  0  0  0  0  0  0
  187.2940  178.1770  142.7190 O   0  0  0  0  0  0  0  0  0  0  0  0
  187.3010  176.9390  142.9460 C   0  0  0  0  0  0  0  0  0  0  0  0
  187.9350  176.0230  141.9560 C   0  0  0  0  0  2  0  0  0  0  0  0
  188.2100  174.6610  142.5790 C   0  0  0  0  0  2  0  0  0  0  0  0
  189.2850  173.9350  141.7850 C   0  0  0  0  0  2  0  0  0  0  0  0
  189.1370  172.2470  143.5190 O   0  0  0  0  0  1  0  0  0  0  0  0
  189.9930  172.8540  142.5970 C   0  0  1  0  0  3  0  0  0  0  0  0
  190.7410  171.8310  141.7320 C   0  0  1  0  0  3  0  0  0  0  0  0
  191.2170  171.2970  139.6410 C   0  0  0  0  0  1  0  0  0  0  0  0
  190.2210  171.8580  140.4360 O   0  0  0  0  0  0  0  0  0  0  0  0
  192.2450  172.0790  141.6720 C   0  0  0  0  0  2  0  0  0  0  0  0
  193.6580  170.0580  143.0760 O   0  0  0  0  0  0  0  0  0  0  0  0
  192.7890  172.2250  143.0120 N   0  0  0  0  0  2  0  0  0  0  0  0
  193.5450  171.1850  143.6330 C   0  0  0  0  0  0  0  0  0  0  0  0
  194.1390  171.4230  144.9860 C   0  0  0  0  0  2  0  0  0  0  0  0
  196.4620  174.1110  145.9080 O   0  0  0  0  0  0  0  0  0  0  0  0
  196.9500  171.8640  146.1570 N   0  0  0  0  0  2  0  0  0  0  0  0
  196.0990  172.9260  145.7070 C   0  0  0  0  0  0  0  0  0  0  0  0
  194.8520  172.6910  145.0340 N   0  0  0  0  0  2  0  0  0  0  0  0
  196.8300  170.4680  145.7630 C   0  0  0  0  0  2  0  0  0  0  0  0
  197.9330  170.1070  144.7870 C   0  0  0  0  0  1  0  0  0  0  0  0
  1  8  1  0  0  0  0
  1  2  1  0  0  0  0
  3  5  1  0  0  0  0
  3  4  2  0  0  0  0
  4  6  1  0  0  0  0
  5  1  2  0  0  0  0
  6  2  2  0  0  0  0
  7 10  1  0  0  0  0
  7  8  2  0  0  0  0
  8  9  1  0  0  0  0
 11 12  1  0  0  0  0
 11 13  2  0  0  0  0
 12 10  1  0  0  0  0
 14 11  1  0  0  0  0
 15 27  1  6  0  0  0
 15 19  1  0  0  0  0
 16 20  1  1  0  0  0
 18 17  1  6  0  0  0
 18 16  1  0  0  0  0
 18 25  1  0  0  0  0
 19 21  1  1  0  0  0
 19 16  1  0  0  0  0
 20 24  1  0  0  0  0
 22 14  1  0  0  0  0
 23 15  1  0  0  0  0
 23 17  1  0  0  0  0
 24 22  2  0  0  0  0
 25 24  1  0  0  0  0
 27 26  1  6  0  0  0
 28 29  1  0  0  0  0
 29 27  1  0  0  0  0
 30  5  1  0  0  0  0
 31 32  2  0  0  0  0
 32 30  1  0  0  0  0
 33 34  1  0  0  0  0
 33 32  1  0  0  0  0
 35 34  1  0  0  0  0
 35 37  1  0  0  0  0
 37 36  1  6  0  0  0
 38 41  1  6  0  0  0
 38 37  1  0  0  0  0
 39 40  1  0  0  0  0
 40 38  1  0  0  0  0
 41 43  1  0  0  0  0
 42 44  2  0  0  0  0
 43 44  1  0  0  0  0
 44 45  1  0  0  0  0
 45 49  1  0  0  0  0
 48 46  2  0  0  0  0
 48 47  1  0  0  0  0
 49 48  1  0  0  0  0
 50 47  1  0  0  0  0
 51 50  1  0  0  0  0
M  END
>  <MODEL>
3

>  <REMARK>
 VINA RESULT:      -6.6      3.165      6.322
  Name = 
  18 active torsions:
  status: ('A' for Active; 'I' for Inactive)
    1  A    between atoms: C_1  and  C_51
    2  A    between atoms: C_2  and  C_23
    3  A    between atoms: C_2  and  N_49
    4  A    between atoms: C_3  and  C_45
    5  A    between atoms: C_6  and  N_34
    6  A    between atoms: C_6  and  C_41
    7  A    between atoms: N_7  and  C_32
    8  A    between atoms: C_8  and  N_22
    9  A    between atoms: C_13  and  C_17
   10  A    between atoms: C_13  and  C_31
   11  A    between atoms: N_15  and  C_38
   12  A    between atoms: C_17  and  C_47
   13  A    between atoms: C_26  and  N_40
   14  A    between atoms: O_27  and  C_51
   15  A    between atoms: C_28  and  C_29
   16  A    between atoms: C_28  and  O_30
   17  A    between atoms: C_28  and  C_32
   18  A    between atoms: C_29  and  C_31
                            x       y       z     vdW  Elec       q    Type
                         _______ _______ _______ _____ _____    ______ ____

>  <TORSDO>
F 18

$$$$
=
 OpenBabel11042413563D

 51 53  0  0  1  0  0  0  0  0999 V2000
  186.4050  177.7610  144.8810 C   0  0  0  0  0  0  0  0  0  0  0  0
  185.7070  178.8290  145.4760 C   0  0  0  0  0  3  0  0  0  0  0  0
  184.8320  177.8450  143.0220 C   0  0  0  0  0  3  0  0  0  0  0  0
  184.1510  178.8990  143.6290 C   0  0  0  0  0  3  0  0  0  0  0  0
  185.9570  177.2640  143.6310 C   0  0  0  0  0  0  0  0  0  0  0  0
  184.5900  179.3930  144.8570 C   0  0  0  0  0  3  0  0  0  0  0  0
  188.8060  177.6610  145.3690 C   0  0  0  0  0  3  0  0  0  0  0  0
  187.5800  177.1820  145.5910 C   0  0  0  0  0  0  0  0  0  0  0  0
  187.4100  176.1420  146.5030 O   0  0  0  0  0  1  0  0  0  0  0  0
  190.0110  177.1100  146.0560 C   0  0  0  0  0  2  0  0  0  0  0  0
  191.7010  176.4640  144.2970 C   0  0  0  0  0  0  0  0  0  0  0  0
  190.6480  176.1220  145.2020 N   0  0  0  0  0  2  0  0  0  0  0  0
  192.1370  177.6450  144.2410 O   0  0  0  0  0  0  0  0  0  0  0  0
  192.2800  175.4440  143.4850 N   0  0  0  0  0  2  0  0  0  0  0  0
  193.6700  173.5810  136.8120 C   0  0  1  0  0  3  0  0  0  0  0  0
  193.8240  174.8770  139.0160 C   0  0  2  0  0  3  0  0  0  0  0  0
  191.8450  173.3810  138.5940 C   0  0  0  0  0  2  0  0  0  0  0  0
  192.9910  173.7240  139.5510 C   0  0  2  0  0  3  0  0  0  0  0  0
  194.5590  174.4600  137.7330 C   0  0  1  0  0  3  0  0  0  0  0  0
  194.8910  175.4520  140.3680 S   0  0  0  0  0  0  0  0  0  0  0  0
  195.7290  173.7560  138.0420 O   0  0  0  0  0  1  0  0  0  0  0  0
  193.3940  175.6990  142.6260 C   0  0  0  0  0  3  0  0  0  0  0  0
  192.1710  173.7350  137.1250 C   0  0  0  0  0  2  0  0  0  0  0  0
  193.5300  175.0680  141.4630 C   0  0  0  0  0  0  0  0  0  0  0  0
  192.5050  174.1160  140.9310 C   0  0  0  0  0  2  0  0  0  0  0  0
  193.1900  173.0220  134.5280 O   0  0  0  0  0  1  0  0  0  0  0  0
  193.9420  173.8810  135.3350 C   0  0  2  0  0  3  0  0  0  0  0  0
  195.3930  172.4060  134.5430 C   0  0  0  0  0  1  0  0  0  0  0  0
  195.2990  173.7030  135.0490 O   0  0  0  0  0  0  0  0  0  0  0  0
  186.6810  176.2160  142.9650 N   0  0  0  0  0  2  0  0  0  0  0  0
  188.2380  177.5050  141.7690 O   0  0  0  0  0  0  0  0  0  0  0  0
  187.8340  176.3670  142.1250 C   0  0  0  0  0  0  0  0  0  0  0  0
  188.5520  175.1560  141.6380 C   0  0  0  0  0  2  0  0  0  0  0  0
  188.9820  174.2770  142.8050 C   0  0  0  0  0  2  0  0  0  0  0  0
  189.0610  172.8250  142.3590 C   0  0  0  0  0  2  0  0  0  0  0  0
  189.9250  171.8210  144.3900 O   0  0  0  0  0  1  0  0  0  0  0  0
  190.1910  172.0560  143.0390 C   0  0  1  0  0  3  0  0  0  0  0  0
  190.5970  170.7800  142.2910 C   0  0  1  0  0  3  0  0  0  0  0  0
  191.5360  170.0890  140.4140 C   0  0  0  0  0  1  0  0  0  0  0  0
  190.6690  171.0520  140.9240 O   0  0  0  0  0  0  0  0  0  0  0  0
  191.9330  170.2090  142.7580 C   0  0  0  0  0  2  0  0  0  0  0  0
  194.6970  170.7000  142.3500 O   0  0  0  0  0  0  0  0  0  0  0  0
  192.7060  171.2270  143.4490 N   0  0  0  0  0  2  0  0  0  0  0  0
  194.0820  171.4600  143.1470 C   0  0  0  0  0  0  0  0  0  0  0  0
  194.8040  172.5710  143.8440 C   0  0  0  0  0  2  0  0  0  0  0  0
  197.7540  174.3590  142.5900 O   0  0  0  0  0  0  0  0  0  0  0  0
  196.7090  174.8700  144.5890 N   0  0  0  0  0  2  0  0  0  0  0  0
  196.8650  174.0520  143.4220 C   0  0  0  0  0  0  0  0  0  0  0  0
  196.0510  172.8960  143.1680 N   0  0  0  0  0  2  0  0  0  0  0  0
  195.9410  174.5070  145.7710 C   0  0  0  0  0  2  0  0  0  0  0  0
  194.8950  175.5670  146.0570 C   0  0  0  0  0  1  0  0  0  0  0  0
  1  2  1  0  0  0  0
  1  8  1  0  0  0  0
  3  4  2  0  0  0  0
  3  5  1  0  0  0  0
  4  6  1  0  0  0  0
  5  1  2  0  0  0  0
  6  2  2  0  0  0  0
  7  8  2  0  0  0  0
  7 10  1  0  0  0  0
  8  9  1  0  0  0  0
 11 12  1  0  0  0  0
 12 10  1  0  0  0  0
 13 11  2  0  0  0  0
 14 11  1  0  0  0  0
 15 27  1  6  0  0  0
 15 23  1  0  0  0  0
 15 19  1  0  0  0  0
 16 18  1  0  0  0  0
 16 20  1  1  0  0  0
 18 17  1  6  0  0  0
 18 25  1  0  0  0  0
 19 21  1  1  0  0  0
 19 16  1  0  0  0  0
 20 24  1  0  0  0  0
 22 14  1  0  0  0  0
 23 17  1  0  0  0  0
 24 22  2  0  0  0  0
 25 24  1  0  0  0  0
 27 26  1  6  0  0  0
 28 29  1  0  0  0  0
 29 27  1  0  0  0  0
 30  5  1  0  0  0  0
 31 32  2  0  0  0  0
 32 30  1  0  0  0  0
 33 32  1  0  0  0  0
 33 34  1  0  0  0  0
 35 34  1  0  0  0  0
 35 37  1  0  0  0  0
 37 36  1  1  0  0  0
 38 41  1  1  0  0  0
 38 37  1  0  0  0  0
 39 40  1  0  0  0  0
 40 38  1  0  0  0  0
 41 43  1  0  0  0  0
 42 44  2  0  0  0  0
 44 43  1  0  0  0  0
 44 45  1  0  0  0  0
 46 48  2  0  0  0  0
 47 50  1  0  0  0  0
 48 47  1  0  0  0  0
 49 48  1  0  0  0  0
 49 45  1  0  0  0  0
 50 51  1  0  0  0  0
M  END
>  <MODEL>
4

>  <REMARK>
 VINA RESULT:      -6.4      3.452      6.254
  Name = 
  18 active torsions:
  status: ('A' for Active; 'I' for Inactive)
    1  A    between atoms: C_1  and  C_51
    2  A    between atoms: C_2  and  C_23
    3  A    between atoms: C_2  and  N_49
    4  A    between atoms: C_3  and  C_45
    5  A    between atoms: C_6  and  N_34
    6  A    between atoms: C_6  and  C_41
    7  A    between atoms: N_7  and  C_32
    8  A    between atoms: C_8  and  N_22
    9  A    between atoms: C_13  and  C_17
   10  A    between atoms: C_13  and  C_31
   11  A    between atoms: N_15  and  C_38
   12  A    between atoms: C_17  and  C_47
   13  A    between atoms: C_26  and  N_40
   14  A    between atoms: O_27  and  C_51
   15  A    between atoms: C_28  and  C_29
   16  A    between atoms: C_28  and  O_30
   17  A    between atoms: C_28  and  C_32
   18  A    between atoms: C_29  and  C_31
                            x       y       z     vdW  Elec       q    Type
                         _______ _______ _______ _____ _____    ______ ____

>  <TORSDO>
F 18

$$$$
=
 OpenBabel11042413563D

 51 53  0  0  1  0  0  0  0  0999 V2000
  184.5090  178.3640  143.1810 C   0  0  0  0  0  0  0  0  0  0  0  0
  183.1350  178.3940  142.8750 C   0  0  0  0  0  3  0  0  0  0  0  0
  184.9790  178.2940  140.7900 C   0  0  0  0  0  3  0  0  0  0  0  0
  183.6140  178.3190  140.5090 C   0  0  0  0  0  3  0  0  0  0  0  0
  185.4440  178.3140  142.1160 C   0  0  0  0  0  0  0  0  0  0  0  0
  182.6900  178.3720  141.5520 C   0  0  0  0  0  3  0  0  0  0  0  0
  185.2080  177.2280  145.2380 C   0  0  0  0  0  3  0  0  0  0  0  0
  184.9320  178.3720  144.6090 C   0  0  0  0  0  0  0  0  0  0  0  0
  185.0560  179.5760  145.3010 O   0  0  0  0  0  1  0  0  0  0  0  0
  185.6330  177.1900  146.6680 C   0  0  0  0  0  2  0  0  0  0  0  0
  188.1400  176.9110  146.7720 C   0  0  0  0  0  0  0  0  0  0  0  0
  186.8200  176.3610  146.7990 N   0  0  0  0  0  2  0  0  0  0  0  0
  188.3110  178.1550  146.6670 O   0  0  0  0  0  0  0  0  0  0  0  0
  189.2610  176.0390  146.9040 N   0  0  0  0  0  2  0  0  0  0  0  0
  195.3840  173.5430  144.4140 C   0  0  1  0  0  3  0  0  0  0  0  0
  193.6830  175.2200  145.3380 C   0  0  2  0  0  3  0  0  0  0  0  0
  192.8830  173.0090  144.4400 C   0  0  0  0  0  2  0  0  0  0  0  0
  192.8730  173.9680  145.6350 C   0  0  2  0  0  3  0  0  0  0  0  0
  195.1720  174.8730  145.1870 C   0  0  1  0  0  3  0  0  0  0  0  0
  193.2980  176.4380  146.6300 S   0  0  0  0  0  0  0  0  0  0  0  0
  195.7830  174.7720  146.4420 O   0  0  0  0  0  1  0  0  0  0  0  0
  190.6010  176.5310  146.9730 C   0  0  0  0  0  3  0  0  0  0  0  0
  194.1550  173.1510  143.5750 C   0  0  0  0  0  2  0  0  0  0  0  0
  191.6340  175.7790  146.6030 C   0  0  0  0  0  0  0  0  0  0  0  0
  191.4760  174.4120  146.0180 C   0  0  0  0  0  2  0  0  0  0  0  0
  196.5040  172.7390  142.4490 O   0  0  0  0  0  1  0  0  0  0  0  0
  196.6350  173.6140  143.5320 C   0  0  2  0  0  3  0  0  0  0  0  0
  197.6750  171.8730  144.4240 C   0  0  0  0  0  1  0  0  0  0  0  0
  197.7670  173.2580  144.2700 O   0  0  0  0  0  0  0  0  0  0  0  0
  186.8550  178.3440  142.3880 N   0  0  0  0  0  2  0  0  0  0  0  0
  187.6000  176.7690  140.8140 O   0  0  0  0  0  0  0  0  0  0  0  0
  187.8830  177.6340  141.6830 C   0  0  0  0  0  0  0  0  0  0  0  0
  189.3140  177.9020  142.0020 C   0  0  0  0  0  2  0  0  0  0  0  0
  189.6580  177.4050  143.3990 C   0  0  0  0  0  2  0  0  0  0  0  0
  189.7890  175.8890  143.3930 C   0  0  0  0  0  2  0  0  0  0  0  0
  191.9310  175.5580  142.3090 O   0  0  0  0  0  1  0  0  0  0  0  0
  190.5540  175.3640  142.1810 C   0  0  1  0  0  3  0  0  0  0  0  0
  190.1970  173.9190  141.8120 C   0  0  1  0  0  3  0  0  0  0  0  0
  188.3440  172.7470  142.0950 C   0  0  0  0  0  1  0  0  0  0  0  0
  188.8550  173.8610  141.4320 O   0  0  0  0  0  0  0  0  0  0  0  0
  191.0590  173.3540  140.6890 C   0  0  0  0  0  2  0  0  0  0  0  0
  190.6350  170.7840  139.5630 O   0  0  0  0  0  0  0  0  0  0  0  0
  191.7260  172.1380  141.1220 N   0  0  0  0  0  2  0  0  0  0  0  0
  191.5090  170.8880  140.4670 C   0  0  0  0  0  0  0  0  0  0  0  0
  192.2800  169.6850  140.9160 C   0  0  0  0  0  2  0  0  0  0  0  0
  195.0160  169.7590  143.3620 O   0  0  0  0  0  0  0  0  0  0  0  0
  195.3350  169.3750  141.1030 N   0  0  0  0  0  2  0  0  0  0  0  0
  194.4980  169.7070  142.2180 C   0  0  0  0  0  0  0  0  0  0  0  0
  193.0970  169.9870  142.0830 N   0  0  0  0  0  2  0  0  0  0  0  0
  194.9750  169.5470  139.7030 C   0  0  0  0  0  2  0  0  0  0  0  0
  195.9180  168.7510  138.8220 C   0  0  0  0  0  1  0  0  0  0  0  0
  1  8  1  0  0  0  0
  2  1  1  0  0  0  0
  3  5  1  0  0  0  0
  4  3  2  0  0  0  0
  4  6  1  0  0  0  0
  5 30  1  0  0  0  0
  5  1  2  0  0  0  0
  6  2  2  0  0  0  0
  7 10  1  0  0  0  0
  8  7  2  0  0  0  0
  8  9  1  0  0  0  0
 10 12  1  0  0  0  0
 11 12  1  0  0  0  0
 11 14  1  0  0  0  0
 13 11  2  0  0  0  0
 14 22  1  0  0  0  0
 15 27  1  6  0  0  0
 15 19  1  0  0  0  0
 16 18  1  0  0  0  0
 16 20  1  1  0  0  0
 18 17  1  6  0  0  0
 18 25  1  0  0  0  0
 19 16  1  0  0  0  0
 19 21  1  1  0  0  0
 23 15  1  0  0  0  0
 23 17  1  0  0  0  0
 24 20  1  0  0  0  0
 24 22  2  0  0  0  0
 25 24  1  0  0  0  0
 27 26  1  6  0  0  0
 27 29  1  0  0  0  0
 29 28  1  0  0  0  0
 31 32  2  0  0  0  0
 32 33  1  0  0  0  0
 32 30  1  0  0  0  0
 33 34  1  0  0  0  0
 35 34  1  0  0  0  0
 37 36  1  1  0  0  0
 37 35  1  0  0  0  0
 38 41  1  6  0  0  0
 38 37  1  0  0  0  0
 40 38  1  0  0  0  0
 40 39  1  0  0  0  0
 41 43  1  0  0  0  0
 42 44  2  0  0  0  0
 44 45  1  0  0  0  0
 44 43  1  0  0  0  0
 45 49  1  0  0  0  0
 47 48  1  0  0  0  0
 48 46  2  0  0  0  0
 49 48  1  0  0  0  0
 50 47  1  0  0  0  0
 51 50  1  0  0  0  0
M  END
>  <MODEL>
5

>  <REMARK>
 VINA RESULT:      -6.4      2.778      5.274
  Name = 
  18 active torsions:
  status: ('A' for Active; 'I' for Inactive)
    1  A    between atoms: C_1  and  C_51
    2  A    between atoms: C_2  and  C_23
    3  A    between atoms: C_2  and  N_49
    4  A    between atoms: C_3  and  C_45
    5  A    between atoms: C_6  and  N_34
    6  A    between atoms: C_6  and  C_41
    7  A    between atoms: N_7  and  C_32
    8  A    between atoms: C_8  and  N_22
    9  A    between atoms: C_13  and  C_17
   10  A    between atoms: C_13  and  C_31
   11  A    between atoms: N_15  and  C_38
   12  A    between atoms: C_17  and  C_47
   13  A    between atoms: C_26  and  N_40
   14  A    between atoms: O_27  and  C_51
   15  A    between atoms: C_28  and  C_29
   16  A    between atoms: C_28  and  O_30
   17  A    between atoms: C_28  and  C_32
   18  A    between atoms: C_29  and  C_31
                            x       y       z     vdW  Elec       q    Type
                         _______ _______ _______ _____ _____    ______ ____

>  <TORSDO>
F 18

$$$$
=
 OpenBabel11042413563D

 51 53  0  0  1  0  0  0  0  0999 V2000
  184.4780  178.3720  143.1870 C   0  0  0  0  0  0  0  0  0  0  0  0
  183.1040  178.3450  142.8800 C   0  0  0  0  0  3  0  0  0  0  0  0
  184.9530  178.3270  140.7970 C   0  0  0  0  0  3  0  0  0  0  0  0
  183.5880  178.2960  140.5140 C   0  0  0  0  0  3  0  0  0  0  0  0
  185.4160  178.3620  142.1230 C   0  0  0  0  0  0  0  0  0  0  0  0
  182.6620  178.3080  141.5570 C   0  0  0  0  0  3  0  0  0  0  0  0
  185.2070  177.2580  145.2470 C   0  0  0  0  0  3  0  0  0  0  0  0
  184.8990  178.3930  144.6160 C   0  0  0  0  0  0  0  0  0  0  0  0
  184.9880  179.6020  145.3060 O   0  0  0  0  0  1  0  0  0  0  0  0
  185.6320  177.2340  146.6770 C   0  0  0  0  0  2  0  0  0  0  0  0
  188.1380  176.9420  146.7510 C   0  0  0  0  0  0  0  0  0  0  0  0
  186.8150  176.4030  146.8180 N   0  0  0  0  0  2  0  0  0  0  0  0
  188.3150  178.1800  146.5990 O   0  0  0  0  0  0  0  0  0  0  0  0
  189.2550  176.0660  146.8940 N   0  0  0  0  0  2  0  0  0  0  0  0
  195.3480  173.3570  144.5560 C   0  0  1  0  0  3  0  0  0  0  0  0
  193.6630  175.1070  145.3710 C   0  0  2  0  0  3  0  0  0  0  0  0
  192.8420  172.8470  144.6280 C   0  0  0  0  0  2  0  0  0  0  0  0
  192.8450  173.8850  145.7550 C   0  0  2  0  0  3  0  0  0  0  0  0
  195.1490  174.7380  145.2380 C   0  0  1  0  0  3  0  0  0  0  0  0
  193.2940  176.4120  146.5780 S   0  0  0  0  0  0  0  0  0  0  0  0
  195.7650  174.7170  146.4950 O   0  0  0  0  0  1  0  0  0  0  0  0
  190.6000  176.5510  146.9250 C   0  0  0  0  0  3  0  0  0  0  0  0
  194.1120  172.9190  143.7500 C   0  0  0  0  0  2  0  0  0  0  0  0
  191.6250  175.7680  146.6030 C   0  0  0  0  0  0  0  0  0  0  0  0
  191.4530  174.3650  146.1130 C   0  0  0  0  0  2  0  0  0  0  0  0
  197.4780  174.3580  144.0840 O   0  0  0  0  0  1  0  0  0  0  0  0
  196.5950  173.3580  143.6660 C   0  0  2  0  0  3  0  0  0  0  0  0
  197.2490  174.4110  141.8300 C   0  0  0  0  0  1  0  0  0  0  0  0
  196.2370  173.5940  142.3360 O   0  0  0  0  0  0  0  0  0  0  0  0
  186.8240  178.4500  142.3960 N   0  0  0  0  0  2  0  0  0  0  0  0
  187.6250  176.8370  140.8890 O   0  0  0  0  0  0  0  0  0  0  0  0
  187.8770  177.7460  141.7230 C   0  0  0  0  0  0  0  0  0  0  0  0
  189.2970  178.0740  142.0340 C   0  0  0  0  0  2  0  0  0  0  0  0
  189.6730  177.5800  143.4240 C   0  0  0  0  0  2  0  0  0  0  0  0
  189.7400  176.0600  143.4350 C   0  0  0  0  0  2  0  0  0  0  0  0
  191.9570  175.4570  142.6610 O   0  0  0  0  0  1  0  0  0  0  0  0
  190.6050  175.4960  142.3110 C   0  0  1  0  0  3  0  0  0  0  0  0
  190.1010  174.1540  141.7670 C   0  0  1  0  0  3  0  0  0  0  0  0
  189.4010  172.5070  143.0630 C   0  0  0  0  0  1  0  0  0  0  0  0
  189.0090  173.7310  142.5280 O   0  0  0  0  0  0  0  0  0  0  0  0
  189.6930  174.2140  140.2990 C   0  0  0  0  0  2  0  0  0  0  0  0
  187.8440  172.2820  139.3520 O   0  0  0  0  0  0  0  0  0  0  0  0
  190.0550  172.9810  139.6200 N   0  0  0  0  0  2  0  0  0  0  0  0
  189.0670  172.0830  139.1140 C   0  0  0  0  0  0  0  0  0  0  0  0
  189.5040  170.8650  138.3620 C   0  0  0  0  0  2  0  0  0  0  0  0
  192.4540  168.8450  139.1940 O   0  0  0  0  0  0  0  0  0  0  0  0
  192.3210  170.1930  137.3190 N   0  0  0  0  0  2  0  0  0  0  0  0
  191.7880  169.6970  138.5540 C   0  0  0  0  0  0  0  0  0  0  0  0
  190.5310  170.1340  139.0910 N   0  0  0  0  0  2  0  0  0  0  0  0
  191.8350  171.3670  136.6080 C   0  0  0  0  0  2  0  0  0  0  0  0
  191.0220  170.9420  135.4000 C   0  0  0  0  0  1  0  0  0  0  0  0
  1  8  1  0  0  0  0
  2  1  1  0  0  0  0
  3  5  1  0  0  0  0
  4  3  2  0  0  0  0
  4  6  1  0  0  0  0
  5 30  1  0  0  0  0
  5  1  2  0  0  0  0
  6  2  2  0  0  0  0
  7 10  1  0  0  0  0
  8  7  2  0  0  0  0
  8  9  1  0  0  0  0
 10 12  1  0  0  0  0
 11 12  1  0  0  0  0
 11 14  1  0  0  0  0
 13 11  2  0  0  0  0
 14 22  1  0  0  0  0
 15 27  1  6  0  0  0
 15 19  1  0  0  0  0
 16 18  1  0  0  0  0
 16 20  1  1  0  0  0
 18 17  1  6  0  0  0
 18 25  1  0  0  0  0
 19 16  1  0  0  0  0
 19 21  1  1  0  0  0
 20 24  1  0  0  0  0
 23 15  1  0  0  0  0
 23 17  1  0  0  0  0
 24 22  2  0  0  0  0
 25 24  1  0  0  0  0
 27 26  1  1  0  0  0
 28 29  1  0  0  0  0
 29 27  1  0  0  0  0
 31 32  2  0  0  0  0
 32 33  1  0  0  0  0
 32 30  1  0  0  0  0
 33 34  1  0  0  0  0
 34 35  1  0  0  0  0
 37 36  1  1  0  0  0
 37 35  1  0  0  0  0
 38 41  1  6  0  0  0
 38 37  1  0  0  0  0
 38 40  1  0  0  0  0
 40 39  1  0  0  0  0
 43 41  1  0  0  0  0
 44 42  2  0  0  0  0
 44 43  1  0  0  0  0
 45 49  1  0  0  0  0
 45 44  1  0  0  0  0
 47 48  1  0  0  0  0
 48 49  1  0  0  0  0
 48 46  2  0  0  0  0
 50 47  1  0  0  0  0
 51 50  1  0  0  0  0
M  END
>  <MODEL>
6

>  <REMARK>
 VINA RESULT:      -6.3      3.116      5.728
  Name = 
  18 active torsions:
  status: ('A' for Active; 'I' for Inactive)
    1  A    between atoms: C_1  and  C_51
    2  A    between atoms: C_2  and  C_23
    3  A    between atoms: C_2  and  N_49
    4  A    between atoms: C_3  and  C_45
    5  A    between atoms: C_6  and  N_34
    6  A    between atoms: C_6  and  C_41
    7  A    between atoms: N_7  and  C_32
    8  A    between atoms: C_8  and  N_22
    9  A    between atoms: C_13  and  C_17
   10  A    between atoms: C_13  and  C_31
   11  A    between atoms: N_15  and  C_38
   12  A    between atoms: C_17  and  C_47
   13  A    between atoms: C_26  and  N_40
   14  A    between atoms: O_27  and  C_51
   15  A    between atoms: C_28  and  C_29
   16  A    between atoms: C_28  and  O_30
   17  A    between atoms: C_28  and  C_32
   18  A    between atoms: C_29  and  C_31
                            x       y       z     vdW  Elec       q    Type
                         _______ _______ _______ _____ _____    ______ ____

>  <TORSDO>
F 18

$$$$
=
 OpenBabel11042413563D

 51 53  0  0  1  0  0  0  0  0999 V2000
  187.3000  177.8650  145.4830 C   0  0  0  0  0  0  0  0  0  0  0  0
  186.3220  178.6010  146.1790 C   0  0  0  0  0  3  0  0  0  0  0  0
  186.3440  178.6830  143.3950 C   0  0  0  0  0  3  0  0  0  0  0  0
  185.3810  179.4000  144.1020 C   0  0  0  0  0  3  0  0  0  0  0  0
  187.3080  177.9110  144.0650 C   0  0  0  0  0  0  0  0  0  0  0  0
  185.3710  179.3610  145.4960 C   0  0  0  0  0  3  0  0  0  0  0  0
  188.2370  175.7220  146.2180 C   0  0  0  0  0  3  0  0  0  0  0  0
  188.2820  177.0560  146.2560 C   0  0  0  0  0  0  0  0  0  0  0  0
  189.2660  177.6820  147.0200 O   0  0  0  0  0  1  0  0  0  0  0  0
  189.2000  174.8730  146.9780 C   0  0  0  0  0  2  0  0  0  0  0  0
  190.3140  173.2120  145.4380 C   0  0  0  0  0  0  0  0  0  0  0  0
  190.2920  174.4770  146.1060 N   0  0  0  0  0  2  0  0  0  0  0  0
  189.3530  172.4070  145.5640 O   0  0  0  0  0  0  0  0  0  0  0  0
  191.4200  172.8880  144.5980 N   0  0  0  0  0  2  0  0  0  0  0  0
  190.9670  171.6260  137.6600 C   0  0  1  0  0  3  0  0  0  0  0  0
  191.5020  171.2320  140.1340 C   0  0  2  0  0  3  0  0  0  0  0  0
  190.9960  173.5620  139.3310 C   0  0  0  0  0  2  0  0  0  0  0  0
  190.6360  172.4640  140.3370 C   0  0  2  0  0  3  0  0  0  0  0  0
  191.1910  170.5740  138.7800 C   0  0  1  0  0  3  0  0  0  0  0  0
  191.2780  170.1610  141.5840 S   0  0  0  0  0  0  0  0  0  0  0  0
  190.0550  169.7630  138.8760 O   0  0  0  0  0  1  0  0  0  0  0  0
  191.4640  171.6800  143.8330 C   0  0  0  0  0  3  0  0  0  0  0  0
  191.5720  172.9970  138.0140 C   0  0  0  0  0  2  0  0  0  0  0  0
  191.1490  171.6680  142.5410 C   0  0  0  0  0  0  0  0  0  0  0  0
  190.8090  172.9080  141.7760 C   0  0  0  0  0  2  0  0  0  0  0  0
  192.2170  172.1560  135.6810 O   0  0  0  0  0  1  0  0  0  0  0  0
  191.5170  171.1280  136.3200 C   0  0  2  0  0  3  0  0  0  0  0  0
  189.4030  171.5540  135.8090 C   0  0  0  0  0  1  0  0  0  0  0  0
  190.4690  170.7090  135.4950 O   0  0  0  0  0  0  0  0  0  0  0  0
  188.3290  177.2230  143.3230 N   0  0  0  0  0  2  0  0  0  0  0  0
  190.1710  178.5950  143.8120 O   0  0  0  0  0  0  0  0  0  0  0  0
  189.7270  177.5420  143.2840 C   0  0  0  0  0  0  0  0  0  0  0  0
  190.6710  176.6280  142.5810 C   0  0  0  0  0  2  0  0  0  0  0  0
  191.8460  176.2700  143.4810 C   0  0  0  0  0  2  0  0  0  0  0  0
  193.1300  176.2270  142.6640 C   0  0  0  0  0  2  0  0  0  0  0  0
  194.8290  174.6090  142.0550 O   0  0  0  0  0  1  0  0  0  0  0  0
  194.0840  175.1260  143.1180 C   0  0  1  0  0  3  0  0  0  0  0  0
  194.9640  175.5310  144.3080 C   0  0  1  0  0  3  0  0  0  0  0  0
  194.3590  176.2630  146.3030 C   0  0  0  0  0  1  0  0  0  0  0  0
  194.3450  175.1300  145.4930 O   0  0  0  0  0  0  0  0  0  0  0  0
  196.3660  174.9360  144.2490 C   0  0  0  0  0  2  0  0  0  0  0  0
  197.2280  173.6220  146.6120 O   0  0  0  0  0  0  0  0  0  0  0  0
  196.3170  173.4990  144.4660 N   0  0  0  0  0  2  0  0  0  0  0  0
  196.7100  172.9120  145.7070 C   0  0  0  0  0  0  0  0  0  0  0  0
  196.5700  171.4330  145.8910 C   0  0  0  0  0  2  0  0  0  0  0  0
  195.4620  168.9860  143.3900 O   0  0  0  0  0  0  0  0  0  0  0  0
  195.8670  168.4510  145.6040 N   0  0  0  0  0  2  0  0  0  0  0  0
  195.7510  169.4040  144.5390 C   0  0  0  0  0  0  0  0  0  0  0  0
  195.9460  170.8130  144.7310 N   0  0  0  0  0  2  0  0  0  0  0  0
  195.9100  168.7790  147.0210 C   0  0  0  0  0  2  0  0  0  0  0  0
  194.6440  168.3000  147.7040 C   0  0  0  0  0  1  0  0  0  0  0  0
  1  2  1  0  0  0  0
  1  8  1  0  0  0  0
  3  5  1  0  0  0  0
  3  4  2  0  0  0  0
  4  6  1  0  0  0  0
  5  1  2  0  0  0  0
  6  2  2  0  0  0  0
  7  8  2  0  0  0  0
  7 10  1  0  0  0  0
  8  9  1  0  0  0  0
 11 13  2  0  0  0  0
 11 12  1  0  0  0  0
 12 10  1  0  0  0  0
 14 11  1  0  0  0  0
 15 27  1  6  0  0  0
 15 23  1  0  0  0  0
 15 19  1  0  0  0  0
 16 18  1  0  0  0  0
 16 20  1  1  0  0  0
 18 17  1  6  0  0  0
 18 25  1  0  0  0  0
 19 21  1  1  0  0  0
 19 16  1  0  0  0  0
 20 24  1  0  0  0  0
 22 14  1  0  0  0  0
 23 17  1  0  0  0  0
 24 22  2  0  0  0  0
 25 24  1  0  0  0  0
 27 26  1  6  0  0  0
 29 28  1  0  0  0  0
 29 27  1  0  0  0  0
 30  5  1  0  0  0  0
 32 30  1  0  0  0  0
 32 31  2  0  0  0  0
 33 32  1  0  0  0  0
 33 34  1  0  0  0  0
 35 37  1  0  0  0  0
 35 34  1  0  0  0  0
 37 36  1  6  0  0  0
 37 38  1  0  0  0  0
 38 41  1  6  0  0  0
 38 40  1  0  0  0  0
 40 39  1  0  0  0  0
 41 43  1  0  0  0  0
 43 44  1  0  0  0  0
 44 45  1  0  0  0  0
 44 42  2  0  0  0  0
 46 48  2  0  0  0  0
 47 50  1  0  0  0  0
 48 49  1  0  0  0  0
 48 47  1  0  0  0  0
 49 45  1  0  0  0  0
 50 51  1  0  0  0  0
M  END
>  <MODEL>
7

>  <REMARK>
 VINA RESULT:      -6.2      3.219      6.577
  Name = 
  18 active torsions:
  status: ('A' for Active; 'I' for Inactive)
    1  A    between atoms: C_1  and  C_51
    2  A    between atoms: C_2  and  C_23
    3  A    between atoms: C_2  and  N_49
    4  A    between atoms: C_3  and  C_45
    5  A    between atoms: C_6  and  N_34
    6  A    between atoms: C_6  and  C_41
    7  A    between atoms: N_7  and  C_32
    8  A    between atoms: C_8  and  N_22
    9  A    between atoms: C_13  and  C_17
   10  A    between atoms: C_13  and  C_31
   11  A    between atoms: N_15  and  C_38
   12  A    between atoms: C_17  and  C_47
   13  A    between atoms: C_26  and  N_40
   14  A    between atoms: O_27  and  C_51
   15  A    between atoms: C_28  and  C_29
   16  A    between atoms: C_28  and  O_30
   17  A    between atoms: C_28  and  C_32
   18  A    between atoms: C_29  and  C_31
                            x       y       z     vdW  Elec       q    Type
                         _______ _______ _______ _____ _____    ______ ____

>  <TORSDO>
F 18

$$$$
=
 OpenBabel11042413563D

 51 53  0  0  1  0  0  0  0  0999 V2000
  194.8520  170.4260  145.7660 C   0  0  0  0  0  0  0  0  0  0  0  0
  194.4810  169.3260  146.5620 C   0  0  0  0  0  3  0  0  0  0  0  0
  197.1580  170.0920  146.4850 C   0  0  0  0  0  3  0  0  0  0  0  0
  196.7680  169.0080  147.2710 C   0  0  0  0  0  3  0  0  0  0  0  0
  196.2170  170.8120  145.7290 C   0  0  0  0  0  0  0  0  0  0  0  0
  195.4290  168.6230  147.3080 C   0  0  0  0  0  3  0  0  0  0  0  0
  193.4970  172.4170  145.3080 C   0  0  0  0  0  3  0  0  0  0  0  0
  193.8010  171.1540  145.0030 C   0  0  0  0  0  0  0  0  0  0  0  0
  193.1310  170.5260  143.9530 O   0  0  0  0  0  1  0  0  0  0  0  0
  192.4490  173.1830  144.5700 C   0  0  0  0  0  2  0  0  0  0  0  0
  190.5110  174.4710  145.5460 C   0  0  0  0  0  0  0  0  0  0  0  0
  191.9150  174.2250  145.4300 N   0  0  0  0  0  2  0  0  0  0  0  0
  189.6830  173.7540  144.9230 O   0  0  0  0  0  0  0  0  0  0  0  0
  190.0550  175.5140  146.4070 N   0  0  0  0  0  2  0  0  0  0  0  0
  184.9530  178.2190  142.3370 C   0  0  1  0  0  3  0  0  0  0  0  0
  186.0480  176.9250  144.2570 C   0  0  2  0  0  3  0  0  0  0  0  0
  187.4330  177.5970  142.2660 C   0  0  0  0  0  2  0  0  0  0  0  0
  187.3040  177.6430  143.7920 C   0  0  2  0  0  3  0  0  0  0  0  0
  184.7940  177.6750  143.7820 C   0  0  1  0  0  3  0  0  0  0  0  0
  186.1820  176.6990  146.0540 S   0  0  0  0  0  0  0  0  0  0  0  0
  184.5040  178.7420  144.6400 O   0  0  0  0  0  1  0  0  0  0  0  0
  188.6650  175.7540  146.6380 C   0  0  0  0  0  3  0  0  0  0  0  0
  186.0640  177.4940  141.5570 C   0  0  0  0  0  2  0  0  0  0  0  0
  187.9360  176.4690  145.7860 C   0  0  0  0  0  0  0  0  0  0  0  0
  188.4820  177.0030  144.4990 C   0  0  0  0  0  2  0  0  0  0  0  0
  183.7720  178.7310  140.3110 O   0  0  0  0  0  1  0  0  0  0  0  0
  183.6270  178.1460  141.5730 C   0  0  2  0  0  3  0  0  0  0  0  0
  181.4390  178.4920  141.6230 C   0  0  0  0  0  1  0  0  0  0  0  0
  182.6270  178.8230  142.2770 O   0  0  0  0  0  0  0  0  0  0  0  0
  196.6430  171.8910  144.8800 N   0  0  0  0  0  2  0  0  0  0  0  0
  197.1610  173.5010  146.5090 O   0  0  0  0  0  0  0  0  0  0  0  0
  197.1670  173.1590  145.2980 C   0  0  0  0  0  0  0  0  0  0  0  0
  197.7040  174.1040  144.2790 C   0  0  0  0  0  2  0  0  0  0  0  0
  197.3810  173.6230  142.8720 C   0  0  0  0  0  2  0  0  0  0  0  0
  197.0000  174.8060  141.9930 C   0  0  0  0  0  2  0  0  0  0  0  0
  196.7820  173.3030  140.1030 O   0  0  0  0  0  1  0  0  0  0  0  0
  196.2050  174.3950  140.7570 C   0  0  1  0  0  3  0  0  0  0  0  0
  194.7100  174.1900  141.0320 C   0  0  1  0  0  3  0  0  0  0  0  0
  193.9540  174.5390  138.9850 C   0  0  0  0  0  1  0  0  0  0  0  0
  193.9730  175.0930  140.2630 O   0  0  0  0  0  0  0  0  0  0  0  0
  194.2320  172.7730  140.7330 C   0  0  0  0  0  2  0  0  0  0  0  0
  192.5020  170.7150  139.8230 O   0  0  0  0  0  0  0  0  0  0  0  0
  192.8500  172.6040  141.1510 N   0  0  0  0  0  2  0  0  0  0  0  0
  192.0560  171.5060  140.6990 C   0  0  0  0  0  0  0  0  0  0  0  0
  190.6630  171.3490  141.2220 C   0  0  0  0  0  2  0  0  0  0  0  0
  189.5690  174.8260  141.6560 O   0  0  0  0  0  0  0  0  0  0  0  0
  189.3580  173.6630  139.6680 N   0  0  0  0  0  2  0  0  0  0  0  0
  189.6970  173.7280  141.0590 C   0  0  0  0  0  0  0  0  0  0  0  0
  190.1720  172.5930  141.7990 N   0  0  0  0  0  2  0  0  0  0  0  0
  189.1760  172.4360  138.9060 C   0  0  0  0  0  2  0  0  0  0  0  0
  189.9230  172.5260  137.5890 C   0  0  0  0  0  1  0  0  0  0  0  0
  1  2  1  0  0  0  0
  2  6  2  0  0  0  0
  3  4  2  0  0  0  0
  4  6  1  0  0  0  0
  5  1  2  0  0  0  0
  5  3  1  0  0  0  0
  8  7  2  0  0  0  0
  8  1  1  0  0  0  0
  9  8  1  0  0  0  0
 10  7  1  0  0  0  0
 10 12  1  0  0  0  0
 11 14  1  0  0  0  0
 12 11  1  0  0  0  0
 13 11  2  0  0  0  0
 14 22  1  0  0  0  0
 15 27  1  6  0  0  0
 15 19  1  0  0  0  0
 16 20  1  1  0  0  0
 18 17  1  6  0  0  0
 18 16  1  0  0  0  0
 18 25  1  0  0  0  0
 19 16  1  0  0  0  0
 19 21  1  1  0  0  0
 23 17  1  0  0  0  0
 23 15  1  0  0  0  0
 24 20  1  0  0  0  0
 24 22  2  0  0  0  0
 25 24  1  0  0  0  0
 27 26  1  6  0  0  0
 27 29  1  0  0  0  0
 28 29  1  0  0  0  0
 30 32  1  0  0  0  0
 30  5  1  0  0  0  0
 32 31  2  0  0  0  0
 33 32  1  0  0  0  0
 34 33  1  0  0  0  0
 35 34  1  0  0  0  0
 37 36  1  1  0  0  0
 37 38  1  0  0  0  0
 37 35  1  0  0  0  0
 38 41  1  6  0  0  0
 39 40  1  0  0  0  0
 40 38  1  0  0  0  0
 41 43  1  0  0  0  0
 42 44  2  0  0  0  0
 44 43  1  0  0  0  0
 44 45  1  0  0  0  0
 45 49  1  0  0  0  0
 47 48  1  0  0  0  0
 48 46  2  0  0  0  0
 48 49  1  0  0  0  0
 50 47  1  0  0  0  0
 51 50  1  0  0  0  0
M  END
>  <MODEL>
8

>  <REMARK>
 VINA RESULT:      -6.0      2.804     11.178
  Name = 
  18 active torsions:
  status: ('A' for Active; 'I' for Inactive)
    1  A    between atoms: C_1  and  C_51
    2  A    between atoms: C_2  and  C_23
    3  A    between atoms: C_2  and  N_49
    4  A    between atoms: C_3  and  C_45
    5  A    between atoms: C_6  and  N_34
    6  A    between atoms: C_6  and  C_41
    7  A    between atoms: N_7  and  C_32
    8  A    between atoms: C_8  and  N_22
    9  A    between atoms: C_13  and  C_17
   10  A    between atoms: C_13  and  C_31
   11  A    between atoms: N_15  and  C_38
   12  A    between atoms: C_17  and  C_47
   13  A    between atoms: C_26  and  N_40
   14  A    between atoms: O_27  and  C_51
   15  A    between atoms: C_28  and  C_29
   16  A    between atoms: C_28  and  O_30
   17  A    between atoms: C_28  and  C_32
   18  A    between atoms: C_29  and  C_31
                            x       y       z     vdW  Elec       q    Type
                         _______ _______ _______ _____ _____    ______ ____

>  <TORSDO>
F 18

$$$$
=
 OpenBabel11042413563D

 51 53  0  0  1  0  0  0  0  0999 V2000
  186.0410  178.0040  144.5260 C   0  0  0  0  0  0  0  0  0  0  0  0
  184.6840  178.3670  144.6260 C   0  0  0  0  0  3  0  0  0  0  0  0
  186.2150  178.2150  146.9490 C   0  0  0  0  0  3  0  0  0  0  0  0
  184.8710  178.5780  147.0260 C   0  0  0  0  0  3  0  0  0  0  0  0
  186.8160  177.9270  145.7120 C   0  0  0  0  0  0  0  0  0  0  0  0
  184.1040  178.6510  145.8640 C   0  0  0  0  0  3  0  0  0  0  0  0
  186.7440  176.4720  142.7460 C   0  0  0  0  0  3  0  0  0  0  0  0
  186.6180  177.7270  143.1820 C   0  0  0  0  0  0  0  0  0  0  0  0
  187.0210  178.7780  142.3580 O   0  0  0  0  0  1  0  0  0  0  0  0
  187.3180  176.1490  141.4060 C   0  0  0  0  0  2  0  0  0  0  0  0
  188.6910  174.2610  140.4480 C   0  0  0  0  0  0  0  0  0  0  0  0
  188.3100  175.0970  141.5440 N   0  0  0  0  0  2  0  0  0  0  0  0
  188.1920  174.4400  139.3050 O   0  0  0  0  0  0  0  0  0  0  0  0
  189.6700  173.2440  140.6550 N   0  0  0  0  0  2  0  0  0  0  0  0
  195.9860  172.8030  137.5180 C   0  0  1  0  0  3  0  0  0  0  0  0
  193.6260  172.1290  138.2490 C   0  0  2  0  0  3  0  0  0  0  0  0
  194.7910  174.0280  139.4190 C   0  0  0  0  0  2  0  0  0  0  0  0
  193.5290  173.5860  138.6720 C   0  0  2  0  0  3  0  0  0  0  0  0
  194.7310  171.9470  137.1980 C   0  0  1  0  0  3  0  0  0  0  0  0
  191.9670  171.6010  137.7300 S   0  0  0  0  0  0  0  0  0  0  0  0
  194.2600  172.2870  135.9250 O   0  0  0  0  0  1  0  0  0  0  0  0
  190.1590  172.4330  139.5840 C   0  0  0  0  0  3  0  0  0  0  0  0
  196.0440  173.2280  138.9960 C   0  0  0  0  0  2  0  0  0  0  0  0
  191.3400  172.6700  139.0200 C   0  0  0  0  0  0  0  0  0  0  0  0
  192.2720  173.7360  139.5040 C   0  0  0  0  0  2  0  0  0  0  0  0
  197.9410  172.7840  136.1250 O   0  0  0  0  0  1  0  0  0  0  0  0
  197.2700  172.0680  137.1210 C   0  0  2  0  0  3  0  0  0  0  0  0
  197.4220  169.9140  137.6210 C   0  0  0  0  0  1  0  0  0  0  0  0
  196.9640  170.7920  136.6370 O   0  0  0  0  0  0  0  0  0  0  0  0
  188.1880  177.5000  145.6550 N   0  0  0  0  0  2  0  0  0  0  0  0
  188.0620  175.5750  146.9930 O   0  0  0  0  0  0  0  0  0  0  0  0
  188.7420  176.3090  146.2300 C   0  0  0  0  0  0  0  0  0  0  0  0
  190.1580  175.9440  145.9430 C   0  0  0  0  0  2  0  0  0  0  0  0
  190.9850  175.9410  147.2220 C   0  0  0  0  0  2  0  0  0  0  0  0
  192.4590  175.7660  146.8870 C   0  0  0  0  0  2  0  0  0  0  0  0
  193.2680  177.2370  145.1380 O   0  0  0  0  0  1  0  0  0  0  0  0
  192.7580  175.9630  145.4040 C   0  0  1  0  0  3  0  0  0  0  0  0
  193.6210  174.8480  144.8010 C   0  0  1  0  0  3  0  0  0  0  0  0
  195.7270  174.9510  145.4620 C   0  0  0  0  0  1  0  0  0  0  0  0
  194.8670  175.3710  144.4500 O   0  0  0  0  0  0  0  0  0  0  0  0
  193.8220  173.6670  145.7440 C   0  0  0  0  0  2  0  0  0  0  0  0
  195.4790  171.3660  145.6370 O   0  0  0  0  0  0  0  0  0  0  0  0
  193.4730  172.4220  145.0800 N   0  0  0  0  0  2  0  0  0  0  0  0
  194.3310  171.2810  145.1200 C   0  0  0  0  0  0  0  0  0  0  0  0
  193.8820  170.0070  144.4770 C   0  0  0  0  0  2  0  0  0  0  0  0
  190.8180  170.7840  142.6110 O   0  0  0  0  0  0  0  0  0  0  0  0
  192.8940  170.5600  141.6150 N   0  0  0  0  0  2  0  0  0  0  0  0
  192.0300  170.4880  142.7570 C   0  0  0  0  0  0  0  0  0  0  0  0
  192.4900  170.0890  144.0570 N   0  0  0  0  0  2  0  0  0  0  0  0
  194.2310  169.9900  141.5380 C   0  0  0  0  0  2  0  0  0  0  0  0
  194.3830  169.1950  140.2560 C   0  0  0  0  0  1  0  0  0  0  0  0
  1  2  2  0  0  0  0
  1  5  1  0  0  0  0
  2  6  1  0  0  0  0
  3  4  1  0  0  0  0
  5  3  2  0  0  0  0
  6  4  2  0  0  0  0
  7  8  2  0  0  0  0
  8  1  1  0  0  0  0
  9  8  1  0  0  0  0
 10 12  1  0  0  0  0
 10  7  1  0  0  0  0
 11 14  1  0  0  0  0
 11 12  1  0  0  0  0
 13 11  2  0  0  0  0
 15 27  1  1  0  0  0
 15 23  1  0  0  0  0
 16 20  1  6  0  0  0
 16 18  1  0  0  0  0
 18 17  1  1  0  0  0
 18 25  1  0  0  0  0
 19 21  1  6  0  0  0
 19 15  1  0  0  0  0
 19 16  1  0  0  0  0
 20 24  1  0  0  0  0
 22 14  1  0  0  0  0
 23 17  1  0  0  0  0
 24 25  1  0  0  0  0
 24 22  2  0  0  0  0
 27 26  1  6  0  0  0
 29 27  1  0  0  0  0
 29 28  1  0  0  0  0
 30  5  1  0  0  0  0
 30 32  1  0  0  0  0
 32 31  2  0  0  0  0
 33 32  1  0  0  0  0
 33 34  1  0  0  0  0
 35 34  1  0  0  0  0
 37 36  1  1  0  0  0
 37 35  1  0  0  0  0
 38 37  1  0  0  0  0
 38 41  1  1  0  0  0
 40 38  1  0  0  0  0
 40 39  1  0  0  0  0
 43 44  1  0  0  0  0
 43 41  1  0  0  0  0
 44 42  2  0  0  0  0
 45 44  1  0  0  0  0
 46 48  2  0  0  0  0
 47 48  1  0  0  0  0
 48 49  1  0  0  0  0
 49 45  1  0  0  0  0
 50 47  1  0  0  0  0
 51 50  1  0  0  0  0
M  END
>  <MODEL>
9

>  <REMARK>
 VINA RESULT:      -5.9      3.630      5.847
  Name = 
  18 active torsions:
  status: ('A' for Active; 'I' for Inactive)
    1  A    between atoms: C_1  and  C_51
    2  A    between atoms: C_2  and  C_23
    3  A    between atoms: C_2  and  N_49
    4  A    between atoms: C_3  and  C_45
    5  A    between atoms: C_6  and  N_34
    6  A    between atoms: C_6  and  C_41
    7  A    between atoms: N_7  and  C_32
    8  A    between atoms: C_8  and  N_22
    9  A    between atoms: C_13  and  C_17
   10  A    between atoms: C_13  and  C_31
   11  A    between atoms: N_15  and  C_38
   12  A    between atoms: C_17  and  C_47
   13  A    between atoms: C_26  and  N_40
   14  A    between atoms: O_27  and  C_51
   15  A    between atoms: C_28  and  C_29
   16  A    between atoms: C_28  and  O_30
   17  A    between atoms: C_28  and  C_32
   18  A    between atoms: C_29  and  C_31
                            x       y       z     vdW  Elec       q    Type
                         _______ _______ _______ _____ _____    ______ ____

>  <TORSDO>
F 18

$$$$
