=
 OpenBabel11042413543D

 51 56  0  0  1  0  0  0  0  0999 V2000
  190.1500  172.1120  144.4010 C   0  0  0  0  0  2  0  0  0  0  0  0
  192.9020  174.3770  145.6920 C   0  0  0  0  0  3  0  0  0  0  0  0
  192.3010  170.7820  143.4530 C   0  0  1  0  0  3  0  0  0  0  0  0
  191.8790  176.4060  146.5120 C   0  0  0  0  0  3  0  0  0  0  0  0
  193.0160  175.6230  146.3110 C   0  0  0  0  0  3  0  0  0  0  0  0
  192.6440  171.8720  144.3710 N   0  0  0  0  0  2  0  0  0  0  0  0
  191.6420  173.9210  145.2830 C   0  0  0  0  0  0  0  0  0  0  0  0
  190.6680  171.7830  141.7880 C   0  0  1  0  0  3  0  0  0  0  0  0
  191.4960  172.6360  144.6590 N   0  0  0  0  0  0  0  0  0  0  0  0
  190.4700  173.2600  142.1430 C   0  0  0  0  0  2  0  0  0  0  0  0
  192.0370  171.3020  142.1010 N   0  0  0  0  0  0  0  0  0  0  0  0
  190.5490  174.7110  145.4870 N   0  0  0  0  0  0  0  0  0  0  0  0
  189.7130  172.2080  142.9290 C   0  0  2  0  0  3  0  0  0  0  0  0
  190.6380  175.9340  146.0800 C   0  0  0  0  0  0  0  0  0  0  0  0
  188.2000  176.0710  144.1360 C   0  0  0  0  0  2  0  0  0  0  0  0
  189.4710  176.7360  146.2910 N   0  0  0  0  0  2  0  0  0  0  0  0
  186.3690  176.5780  142.4630 C   0  0  0  0  0  3  0  0  0  0  0  0
  187.2480  177.4320  145.7850 N   0  0  0  0  0  0  0  0  0  0  0  0
  188.2960  176.7240  145.4720 C   0  0  0  0  0  0  0  0  0  0  0  0
  185.4830  177.5660  142.6690 C   0  0  0  0  0  3  0  0  0  0  0  0
  186.9570  176.3250  143.7690 C   0  0  2  0  0  3  0  0  0  0  0  0
  185.5210  177.9820  144.0920 C   0  0  0  0  0  0  0  0  0  0  0  0
  186.3640  177.1750  144.7090 C   0  0  0  0  0  0  0  0  0  0  0  0
  184.9380  179.2140  144.6420 C   0  0  0  0  0  0  0  0  0  0  0  0
  185.3180  180.3350  144.2130 O   0  0  0  0  0  0  0  0  0  0  0  0
  183.9630  179.1530  145.6320 O   0  0  0  0  0  1  0  0  0  0  0  0
  192.8830  168.4670  143.2320 O   0  0  0  0  0  1  0  0  0  0  0  0
  193.4210  169.7400  143.4260 C   0  0  2  0  0  3  0  0  0  0  0  0
  194.2100  169.7600  144.7240 C   0  0  0  0  0  2  0  0  0  0  0  0
  195.1290  168.5540  144.7850 C   0  0  0  0  0  2  0  0  0  0  0  0
  197.1940  171.3530  145.5290 C   0  0  1  0  0  3  0  0  0  0  0  0
  196.9230  169.8480  143.6760 C   0  0  0  0  0  0  0  0  0  0  0  0
  196.7460  169.9950  145.9660 C   0  0  0  0  0  0  0  0  0  0  0  0
  196.5670  169.7040  147.1380 O   0  0  0  0  0  0  0  0  0  0  0  0
  196.5760  169.0170  144.8620 C   0  0  1  0  0  3  0  0  0  0  0  0
  196.9730  169.3930  142.5440 O   0  0  0  0  0  0  0  0  0  0  0  0
  197.2600  171.2760  143.9910 C   0  0  1  0  0  3  0  0  0  0  0  0
  196.2950  172.3230  145.9820 O   0  0  0  0  0  1  0  0  0  0  0  0
  196.2890  172.2240  143.2910 C   0  0  0  0  0  2  0  0  0  0  0  0
  196.8740  172.7400  142.1350 O   0  0  0  0  0  1  0  0  0  0  0  0
  193.0880  172.1920  141.5970 C   0  0  0  0  0  2  0  0  0  0  0  0
  193.3490  171.8810  140.1370 C   0  0  0  0  0  2  0  0  0  0  0  0
  193.1820  173.1400  139.3010 C   0  0  0  0  0  2  0  0  0  0  0  0
  194.9920  172.1510  138.0800 O   0  0  0  0  0  1  0  0  0  0  0  0
  194.3830  173.3680  138.3900 C   0  0  2  0  0  3  0  0  0  0  0  0
  195.3830  174.3130  139.0420 C   0  0  0  0  0  2  0  0  0  0  0  0
  194.6610  175.3960  139.8310 C   0  0  0  0  0  2  0  0  0  0  0  0
  194.6840  175.8000  142.2100 C   0  0  0  0  0  0  0  0  0  0  0  0
  195.3170  175.6030  141.1020 N   0  0  0  0  0  0  0  0  0  0  0  0
  195.4640  176.0000  143.4610 C   0  0  0  0  0  1  0  0  0  0  0  0
  193.1880  175.8540  142.2790 C   0  0  0  0  0  1  0  0  0  0  0  0
  1  9  1  0  0  0  0
  2  5  1  0  0  0  0
  3 28  1  6  0  0  0
  3  6  1  0  0  0  0
  5  4  2  0  0  0  0
  6  9  1  0  0  0  0
  7 12  1  0  0  0  0
  7  2  2  0  0  0  0
  8 11  1  0  0  0  0
  8 10  1  6  0  0  0
  8 13  1  0  0  0  0
  9  7  1  0  0  0  0
 11  3  1  0  0  0  0
 12 14  2  0  0  0  0
 13 10  1  6  0  0  0
 13  1  1  0  0  0  0
 14 16  1  0  0  0  0
 14  4  1  0  0  0  0
 15 19  1  0  0  0  0
 17 20  2  0  0  0  0
 19 18  2  0  0  0  0
 19 16  1  0  0  0  0
 20 22  1  0  0  0  0
 21 17  1  6  0  0  0
 21 15  1  0  0  0  0
 21 23  1  0  0  0  0
 22 24  1  0  0  0  0
 22 23  2  0  0  0  0
 23 18  1  0  0  0  0
 24 26  1  0  0  0  0
 25 24  2  0  0  0  0
 28 27  1  1  0  0  0
 28 29  1  0  0  0  0
 29 30  1  0  0  0  0
 31 33  1  0  0  0  0
 31 38  1  6  0  0  0
 32 37  1  0  0  0  0
 32 35  1  0  0  0  0
 33 34  2  0  0  0  0
 35 30  1  6  0  0  0
 35 33  1  0  0  0  0
 36 32  2  0  0  0  0
 37 39  1  6  0  0  0
 37 31  1  0  0  0  0
 40 39  1  0  0  0  0
 41 11  1  0  0  0  0
 42 41  1  0  0  0  0
 43 42  1  0  0  0  0
 45 44  1  1  0  0  0
 45 46  1  0  0  0  0
 45 43  1  0  0  0  0
 46 47  1  0  0  0  0
 47 49  1  0  0  0  0
 48 51  1  0  0  0  0
 48 50  1  0  0  0  0
 49 48  2  0  0  0  0
M  END
>  <MODEL>
1

>  <REMARK>
 VINA RESULT:      -6.5      0.000      0.000
  Name = 
  14 active torsions:
  status: ('A' for Active; 'I' for Inactive)
    1  A    between atoms: C_3  and  C_33
    2  A    between atoms: C_3  and  C_47
    3  A    between atoms: C_6  and  C_44
    4  A    between atoms: C_7  and  C_40
    5  A    between atoms: C_12  and  C_44
    6  A    between atoms: C_12  and  C_46
    7  A    between atoms: N_14  and  C_51
    8  A    between atoms: N_18  and  C_33
    9  A    between atoms: C_19  and  C_36
   10  A    between atoms: C_30  and  C_46
   11  A    between atoms: N_37  and  C_39
   12  A    between atoms: C_39  and  C_45
   13  A    between atoms: C_45  and  C_49
   14  A    between atoms: C_47  and  C_49
                            x       y       z     vdW  Elec       q    Type
                         _______ _______ _______ _____ _____    ______ ____

>  <TORSDO>
F 14

$$$$
=
 OpenBabel11042413543D

 51 56  0  0  1  0  0  0  0  0999 V2000
  193.7610  176.4790  144.4170 C   0  0  0  0  0  2  0  0  0  0  0  0
  191.7270  174.1060  142.2730 C   0  0  0  0  0  3  0  0  0  0  0  0
  195.7660  175.2650  143.0750 C   0  0  1  0  0  3  0  0  0  0  0  0
  189.4520  174.1280  143.0810 C   0  0  0  0  0  3  0  0  0  0  0  0
  190.4010  173.6850  142.1610 C   0  0  0  0  0  3  0  0  0  0  0  0
  194.4330  174.9300  142.5660 N   0  0  0  0  0  2  0  0  0  0  0  0
  192.0920  174.9770  143.3080 C   0  0  0  0  0  0  0  0  0  0  0  0
  195.6310  174.9510  145.5910 C   0  0  1  0  0  3  0  0  0  0  0  0
  193.4460  175.4370  143.4340 N   0  0  0  0  0  0  0  0  0  0  0  0
  194.2160  174.4790  145.9360 C   0  0  0  0  0  2  0  0  0  0  0  0
  196.0860  174.4600  144.2660 N   0  0  0  0  0  0  0  0  0  0  0  0
  191.1440  175.3880  144.1970 N   0  0  0  0  0  0  0  0  0  0  0  0
  194.4560  175.9540  145.6860 C   0  0  2  0  0  3  0  0  0  0  0  0
  189.8460  174.9830  144.1140 C   0  0  0  0  0  0  0  0  0  0  0  0
  187.6890  177.1590  143.5220 C   0  0  0  0  0  2  0  0  0  0  0  0
  188.8700  175.4410  145.0560 N   0  0  0  0  0  2  0  0  0  0  0  0
  186.1770  179.1780  143.2990 C   0  0  0  0  0  3  0  0  0  0  0  0
  186.9110  176.6520  145.6700 N   0  0  0  0  0  0  0  0  0  0  0  0
  187.8020  176.3510  144.7690 C   0  0  0  0  0  0  0  0  0  0  0  0
  185.5150  179.6790  144.3550 C   0  0  0  0  0  2  0  0  0  0  0  0
  186.5720  177.8390  143.7070 C   0  0  0  0  0  0  0  0  0  0  0  0
  185.5120  178.6880  145.4580 C   0  0  0  0  0  0  0  0  0  0  0  0
  186.0960  177.5970  145.0000 C   0  0  0  0  0  0  0  0  0  0  0  0
  185.1660  178.9660  146.8590 C   0  0  0  0  0  0  0  0  0  0  0  0
  184.0880  178.5290  147.3400 O   0  0  0  0  0  0  0  0  0  0  0  0
  186.0250  179.7070  147.6650 O   0  0  0  0  0  1  0  0  0  0  0  0
  197.2240  176.2980  141.4770 O   0  0  0  0  0  1  0  0  0  0  0  0
  196.8170  175.0620  141.9830 C   0  0  2  0  0  3  0  0  0  0  0  0
  196.2650  174.2130  140.8510 C   0  0  0  0  0  2  0  0  0  0  0  0
  197.4060  173.5440  140.1060 C   0  0  0  0  0  2  0  0  0  0  0  0
  194.9760  174.3190  137.6270 C   0  0  1  0  0  3  0  0  0  0  0  0
  195.7920  172.3220  138.6830 C   0  0  0  0  0  0  0  0  0  0  0  0
  196.4080  174.4430  138.0370 C   0  0  0  0  0  0  0  0  0  0  0  0
  197.0720  175.4470  137.8270 O   0  0  0  0  0  0  0  0  0  0  0  0
  196.9720  173.2300  138.6830 C   0  0  1  0  0  3  0  0  0  0  0  0
  195.8490  171.1680  139.0780 O   0  0  0  0  0  0  0  0  0  0  0  0
  194.5430  172.9210  138.1080 C   0  0  1  0  0  3  0  0  0  0  0  0
  194.2220  175.3460  138.2040 O   0  0  0  0  0  1  0  0  0  0  0  0
  193.4320  172.9530  139.1560 C   0  0  0  0  0  2  0  0  0  0  0  0
  192.5430  171.8990  138.9440 O   0  0  0  0  0  1  0  0  0  0  0  0
  195.8670  173.0220  144.0810 C   0  0  0  0  0  2  0  0  0  0  0  0
  197.1200  172.2690  144.4810 C   0  0  0  0  0  2  0  0  0  0  0  0
  196.9690  171.7270  145.8940 C   0  0  0  0  0  2  0  0  0  0  0  0
  196.6490  169.6530  147.0530 O   0  0  0  0  0  1  0  0  0  0  0  0
  196.3040  170.3550  145.8970 C   0  0  2  0  0  3  0  0  0  0  0  0
  196.6970  169.5630  144.6570 C   0  0  0  0  0  2  0  0  0  0  0  0
  195.4890  168.8410  144.0780 C   0  0  0  0  0  2  0  0  0  0  0  0
  193.5950  170.2350  143.5360 C   0  0  0  0  0  0  0  0  0  0  0  0
  194.2800  169.5630  144.4010 N   0  0  0  0  0  0  0  0  0  0  0  0
  192.3620  170.9390  143.9810 C   0  0  0  0  0  1  0  0  0  0  0  0
  194.0080  170.3470  142.0990 C   0  0  0  0  0  1  0  0  0  0  0  0
  2  7  2  0  0  0  0
  3 28  1  6  0  0  0
  3 11  1  0  0  0  0
  4 14  1  0  0  0  0
  5  2  1  0  0  0  0
  5  4  2  0  0  0  0
  6  3  1  0  0  0  0
  6  9  1  0  0  0  0
  7  9  1  0  0  0  0
  7 12  1  0  0  0  0
  8 13  1  0  0  0  0
  8 10  1  1  0  0  0
  9  1  1  0  0  0  0
 11  8  1  0  0  0  0
 13  1  1  6  0  0  0
 13 10  1  0  0  0  0
 14 12  2  0  0  0  0
 14 16  1  0  0  0  0
 15 21  1  0  0  0  0
 15 19  1  0  0  0  0
 17 21  2  0  0  0  0
 17 20  1  0  0  0  0
 19 16  1  0  0  0  0
 19 18  2  0  0  0  0
 20 22  1  0  0  0  0
 21 23  1  0  0  0  0
 22 24  1  0  0  0  0
 23 22  2  0  0  0  0
 23 18  1  0  0  0  0
 24 25  2  0  0  0  0
 24 26  1  0  0  0  0
 28 27  1  6  0  0  0
 29 28  1  0  0  0  0
 30 29  1  0  0  0  0
 31 33  1  0  0  0  0
 31 37  1  0  0  0  0
 31 38  1  1  0  0  0
 32 36  2  0  0  0  0
 33 35  1  0  0  0  0
 34 33  2  0  0  0  0
 35 32  1  0  0  0  0
 35 30  1  1  0  0  0
 37 32  1  0  0  0  0
 37 39  1  1  0  0  0
 40 39  1  0  0  0  0
 41 11  1  0  0  0  0
 41 42  1  0  0  0  0
 42 43  1  0  0  0  0
 43 45  1  0  0  0  0
 45 44  1  1  0  0  0
 46 45  1  0  0  0  0
 47 49  1  0  0  0  0
 47 46  1  0  0  0  0
 48 50  1  0  0  0  0
 48 49  2  0  0  0  0
 51 48  1  0  0  0  0
M  END
>  <MODEL>
2

>  <REMARK>
 VINA RESULT:      -6.4      1.985      5.750
  Name = 
  14 active torsions:
  status: ('A' for Active; 'I' for Inactive)
    1  A    between atoms: C_3  and  C_33
    2  A    between atoms: C_3  and  C_47
    3  A    between atoms: C_6  and  C_44
    4  A    between atoms: C_7  and  C_40
    5  A    between atoms: C_12  and  C_44
    6  A    between atoms: C_12  and  C_46
    7  A    between atoms: N_14  and  C_51
    8  A    between atoms: N_18  and  C_33
    9  A    between atoms: C_19  and  C_36
   10  A    between atoms: C_30  and  C_46
   11  A    between atoms: N_37  and  C_39
   12  A    between atoms: C_39  and  C_45
   13  A    between atoms: C_45  and  C_49
   14  A    between atoms: C_47  and  C_49
                            x       y       z     vdW  Elec       q    Type
                         _______ _______ _______ _____ _____    ______ ____

>  <TORSDO>
F 14

$$$$
=
 OpenBabel11042413543D

 51 56  0  0  1  0  0  0  0  0999 V2000
  190.2040  172.1290  144.5530 C   0  0  0  0  0  2  0  0  0  0  0  0
  192.9300  174.4380  145.8210 C   0  0  0  0  0  3  0  0  0  0  0  0
  192.3710  170.8000  143.6420 C   0  0  1  0  0  3  0  0  0  0  0  0
  191.8870  176.4730  146.5990 C   0  0  0  0  0  3  0  0  0  0  0  0
  193.0310  175.6950  146.4190 C   0  0  0  0  0  3  0  0  0  0  0  0
  192.7000  171.9080  144.5430 N   0  0  0  0  0  2  0  0  0  0  0  0
  191.6760  173.9650  145.4120 C   0  0  0  0  0  0  0  0  0  0  0  0
  190.7410  171.7590  141.9490 C   0  0  1  0  0  3  0  0  0  0  0  0
  191.5440  172.6680  144.8110 N   0  0  0  0  0  0  0  0  0  0  0  0
  190.5290  173.2390  142.2780 C   0  0  0  0  0  2  0  0  0  0  0  0
  192.1110  171.2930  142.2800 N   0  0  0  0  0  0  0  0  0  0  0  0
  190.5760  174.7490  145.5960 N   0  0  0  0  0  0  0  0  0  0  0  0
  189.7750  172.1950  143.0770 C   0  0  2  0  0  3  0  0  0  0  0  0
  190.6520  175.9830  146.1670 C   0  0  0  0  0  0  0  0  0  0  0  0
  188.2250  176.0680  144.2070 C   0  0  0  0  0  2  0  0  0  0  0  0
  189.4780  176.7800  146.3560 N   0  0  0  0  0  2  0  0  0  0  0  0
  186.4010  176.5300  142.5130 C   0  0  0  0  0  3  0  0  0  0  0  0
  187.2520  177.4500  145.8240 N   0  0  0  0  0  0  0  0  0  0  0  0
  188.3080  176.7450  145.5310 C   0  0  0  0  0  0  0  0  0  0  0  0
  185.5060  177.5160  142.6970 C   0  0  0  0  0  3  0  0  0  0  0  0
  186.9830  176.3060  143.8270 C   0  0  2  0  0  3  0  0  0  0  0  0
  185.5320  177.9570  144.1120 C   0  0  0  0  0  0  0  0  0  0  0  0
  186.3780  177.1670  144.7480 C   0  0  0  0  0  0  0  0  0  0  0  0
  184.9370  179.1940  144.6360 C   0  0  0  0  0  0  0  0  0  0  0  0
  185.3160  180.3110  144.1950 O   0  0  0  0  0  0  0  0  0  0  0  0
  183.9500  179.1430  145.6150 O   0  0  0  0  0  1  0  0  0  0  0  0
  193.2340  168.7690  144.5820 O   0  0  0  0  0  1  0  0  0  0  0  0
  193.4980  169.7660  143.6400 C   0  0  2  0  0  3  0  0  0  0  0  0
  194.8320  170.4190  143.9600 C   0  0  0  0  0  2  0  0  0  0  0  0
  195.9270  169.7930  143.1160 C   0  0  0  0  0  2  0  0  0  0  0  0
  197.5060  172.3480  145.0210 C   0  0  1  0  0  3  0  0  0  0  0  0
  196.9720  171.9970  142.7060 C   0  0  0  0  0  0  0  0  0  0  0  0
  197.5060  170.8980  144.6560 C   0  0  0  0  0  0  0  0  0  0  0  0
  197.7720  170.0150  145.4560 O   0  0  0  0  0  0  0  0  0  0  0  0
  197.1970  170.6220  143.2300 C   0  0  1  0  0  3  0  0  0  0  0  0
  196.7520  172.2260  141.5260 O   0  0  0  0  0  0  0  0  0  0  0  0
  197.0940  173.0840  143.7320 C   0  0  1  0  0  3  0  0  0  0  0  0
  196.6200  172.5760  146.0790 O   0  0  0  0  0  1  0  0  0  0  0  0
  195.7800  173.8510  143.8610 C   0  0  0  0  0  2  0  0  0  0  0  0
  196.0340  175.2070  144.0650 O   0  0  0  0  0  1  0  0  0  0  0  0
  193.1590  172.1820  141.7660 C   0  0  0  0  0  2  0  0  0  0  0  0
  193.3300  171.9480  140.2790 C   0  0  0  0  0  2  0  0  0  0  0  0
  193.7180  170.4990  140.0240 C   0  0  0  0  0  2  0  0  0  0  0  0
  193.3000  170.9060  137.6990 O   0  0  0  0  0  1  0  0  0  0  0  0
  193.1100  169.9800  138.7260 C   0  0  2  0  0  3  0  0  0  0  0  0
  191.6270  169.6830  138.9050 C   0  0  0  0  0  2  0  0  0  0  0  0
  190.8010  170.4420  137.8780 C   0  0  0  0  0  2  0  0  0  0  0  0
  189.4360  172.2690  138.6690 C   0  0  0  0  0  0  0  0  0  0  0  0
  189.6240  171.0020  138.5040 N   0  0  0  0  0  0  0  0  0  0  0  0
  188.1850  172.7330  139.3260 C   0  0  0  0  0  1  0  0  0  0  0  0
  190.4440  173.2910  138.2370 C   0  0  0  0  0  1  0  0  0  0  0  0
  1  9  1  0  0  0  0
  2  5  1  0  0  0  0
  3 28  1  6  0  0  0
  3  6  1  0  0  0  0
  5  4  2  0  0  0  0
  6  9  1  0  0  0  0
  7 12  1  0  0  0  0
  7  2  2  0  0  0  0
  8 10  1  6  0  0  0
  8 11  1  0  0  0  0
  8 13  1  0  0  0  0
  9  7  1  0  0  0  0
 11  3  1  0  0  0  0
 12 14  2  0  0  0  0
 13 10  1  6  0  0  0
 13  1  1  0  0  0  0
 14 16  1  0  0  0  0
 14  4  1  0  0  0  0
 15 19  1  0  0  0  0
 17 20  2  0  0  0  0
 19 18  2  0  0  0  0
 19 16  1  0  0  0  0
 20 22  1  0  0  0  0
 21 17  1  6  0  0  0
 21 15  1  0  0  0  0
 21 23  1  0  0  0  0
 22 24  1  0  0  0  0
 22 23  2  0  0  0  0
 23 18  1  0  0  0  0
 24 26  1  0  0  0  0
 25 24  2  0  0  0  0
 28 29  1  0  0  0  0
 28 27  1  1  0  0  0
 30 29  1  0  0  0  0
 31 38  1  1  0  0  0
 32 35  1  0  0  0  0
 32 37  1  0  0  0  0
 33 31  1  0  0  0  0
 33 34  2  0  0  0  0
 35 30  1  1  0  0  0
 35 33  1  0  0  0  0
 36 32  2  0  0  0  0
 37 39  1  1  0  0  0
 37 31  1  0  0  0  0
 39 40  1  0  0  0  0
 41 11  1  0  0  0  0
 42 41  1  0  0  0  0
 43 42  1  0  0  0  0
 45 44  1  6  0  0  0
 45 46  1  0  0  0  0
 45 43  1  0  0  0  0
 47 49  1  0  0  0  0
 47 46  1  0  0  0  0
 48 50  1  0  0  0  0
 49 48  2  0  0  0  0
 51 48  1  0  0  0  0
M  END
>  <MODEL>
3

>  <REMARK>
 VINA RESULT:      -6.3      1.585      2.743
  Name = 
  14 active torsions:
  status: ('A' for Active; 'I' for Inactive)
    1  A    between atoms: C_3  and  C_33
    2  A    between atoms: C_3  and  C_47
    3  A    between atoms: C_6  and  C_44
    4  A    between atoms: C_7  and  C_40
    5  A    between atoms: C_12  and  C_44
    6  A    between atoms: C_12  and  C_46
    7  A    between atoms: N_14  and  C_51
    8  A    between atoms: N_18  and  C_33
    9  A    between atoms: C_19  and  C_36
   10  A    between atoms: C_30  and  C_46
   11  A    between atoms: N_37  and  C_39
   12  A    between atoms: C_39  and  C_45
   13  A    between atoms: C_45  and  C_49
   14  A    between atoms: C_47  and  C_49
                            x       y       z     vdW  Elec       q    Type
                         _______ _______ _______ _____ _____    ______ ____

>  <TORSDO>
F 14

$$$$
=
 OpenBabel11042413543D

 51 56  0  0  1  0  0  0  0  0999 V2000
  192.9600  175.5510  142.2690 C   0  0  0  0  0  2  0  0  0  0  0  0
  191.3730  172.1510  142.8090 C   0  0  0  0  0  3  0  0  0  0  0  0
  194.3210  174.7700  144.4670 C   0  0  1  0  0  3  0  0  0  0  0  0
  189.4470  171.9850  141.3610 C   0  0  0  0  0  3  0  0  0  0  0  0
  190.3070  171.4100  142.2970 C   0  0  0  0  0  3  0  0  0  0  0  0
  193.4970  173.7090  143.8810 N   0  0  0  0  0  2  0  0  0  0  0  0
  191.5730  173.4670  142.3720 C   0  0  0  0  0  0  0  0  0  0  0  0
  192.8010  176.7950  144.6430 C   0  0  1  0  0  3  0  0  0  0  0  0
  192.6730  174.2450  142.8710 N   0  0  0  0  0  0  0  0  0  0  0  0
  191.4180  176.3990  144.1180 C   0  0  0  0  0  2  0  0  0  0  0  0
  193.5030  175.6660  145.3010 N   0  0  0  0  0  0  0  0  0  0  0  0
  190.7140  174.0040  141.4600 N   0  0  0  0  0  0  0  0  0  0  0  0
  192.5080  176.7480  143.1240 C   0  0  2  0  0  3  0  0  0  0  0  0
  189.6620  173.3040  140.9540 C   0  0  0  0  0  0  0  0  0  0  0  0
  190.3880  173.8110  137.9620 C   0  0  0  0  0  2  0  0  0  0  0  0
  188.7820  173.8910  139.9890 N   0  0  0  0  0  2  0  0  0  0  0  0
  190.9920  174.6390  135.6470 C   0  0  0  0  0  3  0  0  0  0  0  0
  188.1620  174.5020  137.7700 N   0  0  0  0  0  0  0  0  0  0  0  0
  189.0540  174.0250  138.5900 C   0  0  0  0  0  0  0  0  0  0  0  0
  190.1620  175.4290  134.9460 C   0  0  0  0  0  3  0  0  0  0  0  0
  190.1590  174.0500  136.6840 C   0  0  2  0  0  3  0  0  0  0  0  0
  188.8060  175.3870  135.5450 C   0  0  0  0  0  0  0  0  0  0  0  0
  188.8460  174.5100  136.5310 C   0  0  0  0  0  0  0  0  0  0  0  0
  187.7150  176.3300  135.2650 C   0  0  0  0  0  0  0  0  0  0  0  0
  186.5670  175.8980  134.9790 O   0  0  0  0  0  0  0  0  0  0  0  0
  187.9360  177.7020  135.3200 O   0  0  0  0  0  1  0  0  0  0  0  0
  196.6600  174.8260  144.9910 O   0  0  0  0  0  1  0  0  0  0  0  0
  195.4660  174.1630  145.2800 C   0  0  2  0  0  3  0  0  0  0  0  0
  195.6240  172.6840  144.9720 C   0  0  0  0  0  2  0  0  0  0  0  0
  196.8330  172.1320  145.7060 C   0  0  0  0  0  2  0  0  0  0  0  0
  195.8620  169.5990  143.4050 C   0  0  1  0  0  3  0  0  0  0  0  0
  195.8160  169.8780  145.7900 C   0  0  0  0  0  0  0  0  0  0  0  0
  196.9790  170.4650  143.8940 C   0  0  0  0  0  0  0  0  0  0  0  0
  197.8180  170.9450  143.1470 O   0  0  0  0  0  0  0  0  0  0  0  0
  197.0090  170.6610  145.3650 C   0  0  1  0  0  3  0  0  0  0  0  0
  195.5140  169.7230  146.9640 O   0  0  0  0  0  0  0  0  0  0  0  0
  195.0480  169.2500  144.6660 C   0  0  1  0  0  3  0  0  0  0  0  0
  195.1070  170.2850  142.4490 O   0  0  0  0  0  1  0  0  0  0  0  0
  193.6150  169.7780  144.6330 C   0  0  0  0  0  2  0  0  0  0  0  0
  192.7410  168.7670  144.2330 O   0  0  0  0  0  1  0  0  0  0  0  0
  192.6660  174.9600  146.2770 C   0  0  0  0  0  2  0  0  0  0  0  0
  191.9600  175.9720  147.1560 C   0  0  0  0  0  2  0  0  0  0  0  0
  190.8440  175.2920  147.9360 C   0  0  0  0  0  2  0  0  0  0  0  0
  189.1950  174.6300  146.3270 O   0  0  0  0  0  1  0  0  0  0  0  0
  189.4800  175.5730  147.3160 C   0  0  2  0  0  3  0  0  0  0  0  0
  189.4300  176.9810  146.7370 C   0  0  0  0  0  2  0  0  0  0  0  0
  188.0180  177.5430  146.8170 C   0  0  0  0  0  2  0  0  0  0  0  0
  186.1640  177.1850  145.3140 C   0  0  0  0  0  0  0  0  0  0  0  0
  187.3980  177.5090  145.5120 N   0  0  0  0  0  0  0  0  0  0  0  0
  185.6300  177.1870  143.9260 C   0  0  0  0  0  1  0  0  0  0  0  0
  185.2510  176.7880  146.4350 C   0  0  0  0  0  1  0  0  0  0  0  0
  1  9  1  0  0  0  0
  3 28  1  1  0  0  0
  3 11  1  0  0  0  0
  4  5  2  0  0  0  0
  5  2  1  0  0  0  0
  6  3  1  0  0  0  0
  7  2  2  0  0  0  0
  7  9  1  0  0  0  0
  8 10  1  1  0  0  0
  8 11  1  0  0  0  0
  9  6  1  0  0  0  0
 11 41  1  0  0  0  0
 12  7  1  0  0  0  0
 13  1  1  6  0  0  0
 13 10  1  0  0  0  0
 13  8  1  0  0  0  0
 14  4  1  0  0  0  0
 14 12  2  0  0  0  0
 15 19  1  0  0  0  0
 16 14  1  0  0  0  0
 18 19  2  0  0  0  0
 19 16  1  0  0  0  0
 20 22  1  0  0  0  0
 20 17  2  0  0  0  0
 21 17  1  1  0  0  0
 21 15  1  0  0  0  0
 22 23  2  0  0  0  0
 23 21  1  0  0  0  0
 23 18  1  0  0  0  0
 24 26  1  0  0  0  0
 24 22  1  0  0  0  0
 25 24  2  0  0  0  0
 28 27  1  6  0  0  0
 29 28  1  0  0  0  0
 29 30  1  0  0  0  0
 31 38  1  6  0  0  0
 31 33  1  0  0  0  0
 31 37  1  0  0  0  0
 32 36  2  0  0  0  0
 33 35  1  0  0  0  0
 34 33  2  0  0  0  0
 35 30  1  6  0  0  0
 35 32  1  0  0  0  0
 37 39  1  6  0  0  0
 37 32  1  0  0  0  0
 40 39  1  0  0  0  0
 41 42  1  0  0  0  0
 42 43  1  0  0  0  0
 45 44  1  6  0  0  0
 45 43  1  0  0  0  0
 46 47  1  0  0  0  0
 46 45  1  0  0  0  0
 48 49  2  0  0  0  0
 48 51  1  0  0  0  0
 49 47  1  0  0  0  0
 50 48  1  0  0  0  0
M  END
>  <MODEL>
4

>  <REMARK>
 VINA RESULT:      -6.2      3.479      6.993
  Name = 
  14 active torsions:
  status: ('A' for Active; 'I' for Inactive)
    1  A    between atoms: C_3  and  C_33
    2  A    between atoms: C_3  and  C_47
    3  A    between atoms: C_6  and  C_44
    4  A    between atoms: C_7  and  C_40
    5  A    between atoms: C_12  and  C_44
    6  A    between atoms: C_12  and  C_46
    7  A    between atoms: N_14  and  C_51
    8  A    between atoms: N_18  and  C_33
    9  A    between atoms: C_19  and  C_36
   10  A    between atoms: C_30  and  C_46
   11  A    between atoms: N_37  and  C_39
   12  A    between atoms: C_39  and  C_45
   13  A    between atoms: C_45  and  C_49
   14  A    between atoms: C_47  and  C_49
                            x       y       z     vdW  Elec       q    Type
                         _______ _______ _______ _____ _____    ______ ____

>  <TORSDO>
F 14

$$$$
=
 OpenBabel11042413543D

 51 56  0  0  1  0  0  0  0  0999 V2000
  190.3010  172.4300  144.2040 C   0  0  0  0  0  2  0  0  0  0  0  0
  192.9140  175.1350  143.7330 C   0  0  0  0  0  3  0  0  0  0  0  0
  192.5090  170.8860  144.0180 C   0  0  1  0  0  3  0  0  0  0  0  0
  191.7690  177.2200  143.3220 C   0  0  0  0  0  3  0  0  0  0  0  0
  192.9550  176.5120  143.5140 C   0  0  0  0  0  3  0  0  0  0  0  0
  192.8020  172.3180  144.1130 N   0  0  0  0  0  2  0  0  0  0  0  0
  191.6780  174.4750  143.7640 C   0  0  0  0  0  0  0  0  0  0  0  0
  190.7300  170.6730  142.2200 C   0  0  1  0  0  3  0  0  0  0  0  0
  191.6100  173.0610  144.0050 N   0  0  0  0  0  0  0  0  0  0  0  0
  190.4290  172.0740  141.6800 C   0  0  0  0  0  2  0  0  0  0  0  0
  192.1450  170.5180  142.6400 N   0  0  0  0  0  0  0  0  0  0  0  0
  190.5360  175.1920  143.5670 N   0  0  0  0  0  0  0  0  0  0  0  0
  189.7940  171.6390  142.9850 C   0  0  2  0  0  3  0  0  0  0  0  0
  190.5510  176.5350  143.3410 C   0  0  0  0  0  0  0  0  0  0  0  0
  188.2860  176.8070  145.4710 C   0  0  0  0  0  2  0  0  0  0  0  0
  189.3340  177.2630  143.1490 N   0  0  0  0  0  2  0  0  0  0  0  0
  186.2270  176.7590  146.9420 C   0  0  0  0  0  3  0  0  0  0  0  0
  187.2950  178.2380  143.9080 N   0  0  0  0  0  0  0  0  0  0  0  0
  188.3380  177.4960  144.1510 C   0  0  0  0  0  0  0  0  0  0  0  0
  185.0490  177.2470  146.5170 C   0  0  0  0  0  2  0  0  0  0  0  0
  187.2140  177.3280  146.0380 C   0  0  0  0  0  0  0  0  0  0  0  0
  185.2630  178.0970  145.3210 C   0  0  0  0  0  0  0  0  0  0  0  0
  186.5660  178.1590  145.1180 C   0  0  0  0  0  0  0  0  0  0  0  0
  184.2170  178.5530  144.3950 C   0  0  0  0  0  0  0  0  0  0  0  0
  183.3460  179.3750  144.7850 O   0  0  0  0  0  1  0  0  0  0  0  0
  184.1820  178.0880  143.0840 O   0  0  0  0  0  0  0  0  0  0  0  0
  193.2640  168.9140  145.1560 O   0  0  0  0  0  1  0  0  0  0  0  0
  193.7060  170.0660  144.5020 C   0  0  2  0  0  3  0  0  0  0  0  0
  194.5720  170.8800  145.4480 C   0  0  0  0  0  2  0  0  0  0  0  0
  195.4660  169.9530  146.2530 C   0  0  0  0  0  2  0  0  0  0  0  0
  197.6010  172.0380  144.3180 C   0  0  1  0  0  3  0  0  0  0  0  0
  197.3350  169.6750  144.6550 C   0  0  0  0  0  0  0  0  0  0  0  0
  197.0940  171.7170  145.6870 C   0  0  0  0  0  0  0  0  0  0  0  0
  196.8700  172.5760  146.5270 O   0  0  0  0  0  0  0  0  0  0  0  0
  196.9240  170.2680  145.9580 C   0  0  1  0  0  3  0  0  0  0  0  0
  197.4030  168.4690  144.4720 O   0  0  0  0  0  0  0  0  0  0  0  0
  197.7100  170.6760  143.6040 C   0  0  1  0  0  3  0  0  0  0  0  0
  196.7220  172.9150  143.6740 O   0  0  0  0  0  1  0  0  0  0  0  0
  196.7940  170.5490  142.3890 C   0  0  0  0  0  2  0  0  0  0  0  0
  197.4630  169.9010  141.3500 O   0  0  0  0  0  1  0  0  0  0  0  0
  193.0990  170.9950  141.6320 C   0  0  0  0  0  2  0  0  0  0  0  0
  193.4680  169.8500  140.7110 C   0  0  0  0  0  2  0  0  0  0  0  0
  192.8510  170.0700  139.3380 C   0  0  0  0  0  2  0  0  0  0  0  0
  192.3850  168.5260  137.5640 O   0  0  0  0  0  1  0  0  0  0  0  0
  192.0580  168.8500  138.8820 C   0  0  2  0  0  3  0  0  0  0  0  0
  190.5610  169.1010  139.0120 C   0  0  0  0  0  2  0  0  0  0  0  0
  190.0250  169.7930  137.7680 C   0  0  0  0  0  2  0  0  0  0  0  0
  190.2680  172.1880  137.5900 C   0  0  0  0  0  0  0  0  0  0  0  0
  189.6620  171.1580  138.0790 N   0  0  0  0  0  0  0  0  0  0  0  0
  189.8080  173.5480  137.9780 C   0  0  0  0  0  1  0  0  0  0  0  0
  191.4340  172.0630  136.6560 C   0  0  0  0  0  1  0  0  0  0  0  0
  2  7  2  0  0  0  0
  3  6  1  0  0  0  0
  3 28  1  6  0  0  0
  4 14  1  0  0  0  0
  4  5  2  0  0  0  0
  5  2  1  0  0  0  0
  7  9  1  0  0  0  0
  8 10  1  6  0  0  0
  8 11  1  0  0  0  0
  8 13  1  0  0  0  0
  9  6  1  0  0  0  0
  9  1  1  0  0  0  0
 11  3  1  0  0  0  0
 12  7  1  0  0  0  0
 13 10  1  6  0  0  0
 13  1  1  0  0  0  0
 14 12  2  0  0  0  0
 15 21  1  0  0  0  0
 16 14  1  0  0  0  0
 16 19  1  0  0  0  0
 18 19  2  0  0  0  0
 18 23  1  0  0  0  0
 19 15  1  0  0  0  0
 20 17  1  0  0  0  0
 21 17  2  0  0  0  0
 22 20  1  0  0  0  0
 23 22  2  0  0  0  0
 23 21  1  0  0  0  0
 24 25  1  0  0  0  0
 24 22  1  0  0  0  0
 26 24  2  0  0  0  0
 28 27  1  1  0  0  0
 28 29  1  0  0  0  0
 29 30  1  0  0  0  0
 31 38  1  6  0  0  0
 31 33  1  0  0  0  0
 32 35  1  0  0  0  0
 33 35  1  0  0  0  0
 33 34  2  0  0  0  0
 35 30  1  6  0  0  0
 36 32  2  0  0  0  0
 37 39  1  6  0  0  0
 37 31  1  0  0  0  0
 37 32  1  0  0  0  0
 40 39  1  0  0  0  0
 41 11  1  0  0  0  0
 42 41  1  0  0  0  0
 43 42  1  0  0  0  0
 45 44  1  6  0  0  0
 45 46  1  0  0  0  0
 45 43  1  0  0  0  0
 47 49  1  0  0  0  0
 47 46  1  0  0  0  0
 48 50  1  0  0  0  0
 48 49  2  0  0  0  0
 51 48  1  0  0  0  0
M  END
>  <MODEL>
5

>  <REMARK>
 VINA RESULT:      -6.1      2.170      3.361
  Name = 
  14 active torsions:
  status: ('A' for Active; 'I' for Inactive)
    1  A    between atoms: C_3  and  C_33
    2  A    between atoms: C_3  and  C_47
    3  A    between atoms: C_6  and  C_44
    4  A    between atoms: C_7  and  C_40
    5  A    between atoms: C_12  and  C_44
    6  A    between atoms: C_12  and  C_46
    7  A    between atoms: N_14  and  C_51
    8  A    between atoms: N_18  and  C_33
    9  A    between atoms: C_19  and  C_36
   10  A    between atoms: C_30  and  C_46
   11  A    between atoms: N_37  and  C_39
   12  A    between atoms: C_39  and  C_45
   13  A    between atoms: C_45  and  C_49
   14  A    between atoms: C_47  and  C_49
                            x       y       z     vdW  Elec       q    Type
                         _______ _______ _______ _____ _____    ______ ____

>  <TORSDO>
F 14

$$$$
=
 OpenBabel11042413543D

 51 56  0  0  1  0  0  0  0  0999 V2000
  193.2490  174.3270  140.3480 C   0  0  0  0  0  2  0  0  0  0  0  0
  191.0860  172.0320  142.4510 C   0  0  0  0  0  3  0  0  0  0  0  0
  195.1820  173.0000  141.6890 C   0  0  1  0  0  3  0  0  0  0  0  0
  188.7960  172.7710  142.2530 C   0  0  0  0  0  3  0  0  0  0  0  0
  189.7330  171.8640  142.7470 C   0  0  0  0  0  3  0  0  0  0  0  0
  193.8430  172.4380  141.8840 N   0  0  0  0  0  2  0  0  0  0  0  0
  191.4910  173.1110  141.6540 C   0  0  0  0  0  0  0  0  0  0  0  0
  194.9360  175.4960  142.0790 C   0  0  1  0  0  3  0  0  0  0  0  0
  192.8760  173.2950  141.3220 N   0  0  0  0  0  0  0  0  0  0  0  0
  193.4740  175.7810  142.4350 C   0  0  0  0  0  2  0  0  0  0  0  0
  195.3900  174.1680  142.5610 N   0  0  0  0  0  0  0  0  0  0  0  0
  190.5540  173.9850  141.1910 N   0  0  0  0  0  0  0  0  0  0  0  0
  193.8520  175.5950  140.9790 C   0  0  2  0  0  3  0  0  0  0  0  0
  189.2300  173.8480  141.4750 C   0  0  0  0  0  0  0  0  0  0  0  0
  187.6500  175.9040  143.2120 C   0  0  0  0  0  2  0  0  0  0  0  0
  188.2670  174.7760  140.9650 N   0  0  0  0  0  2  0  0  0  0  0  0
  186.0290  177.3140  144.5500 C   0  0  0  0  0  3  0  0  0  0  0  0
  186.8130  176.6560  141.1610 N   0  0  0  0  0  0  0  0  0  0  0  0
  187.6190  175.8030  141.7260 C   0  0  0  0  0  0  0  0  0  0  0  0
  184.9840  177.9250  143.9680 C   0  0  0  0  0  2  0  0  0  0  0  0
  186.9230  176.9800  143.4540 C   0  0  0  0  0  0  0  0  0  0  0  0
  185.1770  177.9530  142.4980 C   0  0  0  0  0  0  0  0  0  0  0  0
  186.3670  177.4360  142.2540 C   0  0  0  0  0  0  0  0  0  0  0  0
  184.1380  178.2510  141.5020 C   0  0  0  0  0  0  0  0  0  0  0  0
  184.4650  178.5950  140.3360 O   0  0  0  0  0  0  0  0  0  0  0  0
  182.7910  178.1500  141.8350 O   0  0  0  0  0  1  0  0  0  0  0  0
  197.4570  172.5400  142.2920 O   0  0  0  0  0  1  0  0  0  0  0  0
  196.2480  171.9330  141.9460 C   0  0  2  0  0  3  0  0  0  0  0  0
  196.4530  171.0670  140.7150 C   0  0  0  0  0  2  0  0  0  0  0  0
  196.2500  171.8990  139.4610 C   0  0  0  0  0  2  0  0  0  0  0  0
  195.4060  171.8750  136.0060 C   0  0  1  0  0  3  0  0  0  0  0  0
  194.3250  171.2370  138.0540 C   0  0  0  0  0  0  0  0  0  0  0  0
  196.3840  171.4270  137.0440 C   0  0  0  0  0  0  0  0  0  0  0  0
  197.5870  171.3780  136.8410 O   0  0  0  0  0  0  0  0  0  0  0  0
  195.7700  171.0050  138.3280 C   0  0  1  0  0  3  0  0  0  0  0  0
  193.4470  170.9470  138.8530 O   0  0  0  0  0  0  0  0  0  0  0  0
  194.0300  171.8030  136.6970 C   0  0  1  0  0  3  0  0  0  0  0  0
  195.7240  173.1660  135.5730 O   0  0  0  0  0  1  0  0  0  0  0  0
  193.3370  173.1590  136.8190 C   0  0  0  0  0  2  0  0  0  0  0  0
  192.2820  173.2410  135.9110 O   0  0  0  0  0  1  0  0  0  0  0  0
  195.0510  173.9210  143.9670 C   0  0  0  0  0  2  0  0  0  0  0  0
  195.9380  174.7710  144.8530 C   0  0  0  0  0  2  0  0  0  0  0  0
  195.2800  174.9680  146.2100 C   0  0  0  0  0  2  0  0  0  0  0  0
  194.2050  176.9950  146.9030 O   0  0  0  0  0  1  0  0  0  0  0  0
  194.0480  175.8600  146.1070 C   0  0  2  0  0  3  0  0  0  0  0  0
  192.7930  175.0960  146.5110 C   0  0  0  0  0  2  0  0  0  0  0  0
  191.6520  175.3930  145.5490 C   0  0  0  0  0  2  0  0  0  0  0  0
  189.4940  176.0470  146.4090 C   0  0  0  0  0  0  0  0  0  0  0  0
  190.3830  175.1370  146.1920 N   0  0  0  0  0  0  0  0  0  0  0  0
  188.2210  175.6690  147.0780 C   0  0  0  0  0  1  0  0  0  0  0  0
  189.7060  177.4820  146.0270 C   0  0  0  0  0  1  0  0  0  0  0  0
  1  9  1  0  0  0  0
  2  5  1  0  0  0  0
  3  6  1  0  0  0  0
  3 28  1  1  0  0  0
  3 11  1  0  0  0  0
  4  5  2  0  0  0  0
  7  2  2  0  0  0  0
  8 10  1  1  0  0  0
  8 11  1  0  0  0  0
  9  7  1  0  0  0  0
  9  6  1  0  0  0  0
 11 41  1  0  0  0  0
 12 14  2  0  0  0  0
 12  7  1  0  0  0  0
 13  1  1  1  0  0  0
 13  8  1  0  0  0  0
 13 10  1  0  0  0  0
 14  4  1  0  0  0  0
 15 21  1  0  0  0  0
 16 14  1  0  0  0  0
 16 19  1  0  0  0  0
 18 19  2  0  0  0  0
 18 23  1  0  0  0  0
 19 15  1  0  0  0  0
 20 17  1  0  0  0  0
 21 17  2  0  0  0  0
 22 20  1  0  0  0  0
 23 22  2  0  0  0  0
 23 21  1  0  0  0  0
 24 26  1  0  0  0  0
 24 22  1  0  0  0  0
 25 24  2  0  0  0  0
 28 27  1  6  0  0  0
 29 28  1  0  0  0  0
 30 29  1  0  0  0  0
 31 38  1  1  0  0  0
 31 37  1  0  0  0  0
 31 33  1  0  0  0  0
 32 35  1  0  0  0  0
 32 36  2  0  0  0  0
 33 35  1  0  0  0  0
 34 33  2  0  0  0  0
 35 30  1  1  0  0  0
 37 39  1  1  0  0  0
 37 32  1  0  0  0  0
 40 39  1  0  0  0  0
 41 42  1  0  0  0  0
 42 43  1  0  0  0  0
 45 43  1  0  0  0  0
 45 46  1  0  0  0  0
 45 44  1  1  0  0  0
 47 49  1  0  0  0  0
 47 46  1  0  0  0  0
 48 50  1  0  0  0  0
 49 48  2  0  0  0  0
 51 48  1  0  0  0  0
M  END
>  <MODEL>
6

>  <REMARK>
 VINA RESULT:      -6.1      2.557      5.996
  Name = 
  14 active torsions:
  status: ('A' for Active; 'I' for Inactive)
    1  A    between atoms: C_3  and  C_33
    2  A    between atoms: C_3  and  C_47
    3  A    between atoms: C_6  and  C_44
    4  A    between atoms: C_7  and  C_40
    5  A    between atoms: C_12  and  C_44
    6  A    between atoms: C_12  and  C_46
    7  A    between atoms: N_14  and  C_51
    8  A    between atoms: N_18  and  C_33
    9  A    between atoms: C_19  and  C_36
   10  A    between atoms: C_30  and  C_46
   11  A    between atoms: N_37  and  C_39
   12  A    between atoms: C_39  and  C_45
   13  A    between atoms: C_45  and  C_49
   14  A    between atoms: C_47  and  C_49
                            x       y       z     vdW  Elec       q    Type
                         _______ _______ _______ _____ _____    ______ ____

>  <TORSDO>
F 14

$$$$
=
 OpenBabel11042413543D

 51 56  0  0  1  0  0  0  0  0999 V2000
  194.0310  176.0540  142.4400 C   0  0  0  0  0  2  0  0  0  0  0  0
  191.7220  173.1190  141.7900 C   0  0  0  0  0  3  0  0  0  0  0  0
  195.8130  174.0350  142.6400 C   0  0  1  0  0  3  0  0  0  0  0  0
  189.4470  173.9270  141.8520 C   0  0  0  0  0  3  0  0  0  0  0  0
  190.3530  172.8860  141.6500 C   0  0  0  0  0  3  0  0  0  0  0  0
  194.5010  173.6110  142.1450 N   0  0  0  0  0  2  0  0  0  0  0  0
  192.1750  174.4020  142.1270 C   0  0  0  0  0  0  0  0  0  0  0  0
  195.3420  175.4400  144.7010 C   0  0  1  0  0  3  0  0  0  0  0  0
  193.5790  174.6700  142.2600 N   0  0  0  0  0  0  0  0  0  0  0  0
  193.8270  175.4750  144.9170 C   0  0  0  0  0  2  0  0  0  0  0  0
  195.8030  174.1600  144.1070 N   0  0  0  0  0  0  0  0  0  0  0  0
  191.2660  175.3980  142.3230 N   0  0  0  0  0  0  0  0  0  0  0  0
  194.4410  176.3960  143.8830 C   0  0  2  0  0  3  0  0  0  0  0  0
  189.9250  175.1920  142.2020 C   0  0  0  0  0  0  0  0  0  0  0  0
  188.6980  175.9840  144.9600 C   0  0  0  0  0  2  0  0  0  0  0  0
  188.9950  176.2610  142.4040 N   0  0  0  0  0  2  0  0  0  0  0  0
  187.3370  176.4540  147.0420 C   0  0  0  0  0  3  0  0  0  0  0  0
  187.7250  177.7470  143.7690 N   0  0  0  0  0  0  0  0  0  0  0  0
  188.5120  176.7130  143.6750 C   0  0  0  0  0  0  0  0  0  0  0  0
  186.2920  177.2970  147.0220 C   0  0  0  0  0  2  0  0  0  0  0  0
  188.0880  176.7620  145.8360 C   0  0  0  0  0  0  0  0  0  0  0  0
  186.3400  178.1230  145.7910 C   0  0  0  0  0  0  0  0  0  0  0  0
  187.4540  177.8080  145.1570 C   0  0  0  0  0  0  0  0  0  0  0  0
  185.2350  178.9310  145.2570 C   0  0  0  0  0  0  0  0  0  0  0  0
  185.4800  179.9600  144.5740 O   0  0  0  0  0  0  0  0  0  0  0  0
  183.9130  178.5650  145.4940 O   0  0  0  0  0  1  0  0  0  0  0  0
  197.9090  173.7350  141.5140 O   0  0  0  0  0  1  0  0  0  0  0  0
  196.8940  173.0520  142.1860 C   0  0  2  0  0  3  0  0  0  0  0  0
  196.3090  171.9910  141.2700 C   0  0  0  0  0  2  0  0  0  0  0  0
  196.8560  172.1670  139.8640 C   0  0  0  0  0  2  0  0  0  0  0  0
  196.0410  172.6160  136.4310 C   0  0  1  0  0  3  0  0  0  0  0  0
  195.8540  173.9230  138.4380 C   0  0  0  0  0  0  0  0  0  0  0  0
  195.8580  171.7630  137.6450 C   0  0  0  0  0  0  0  0  0  0  0  0
  195.7920  170.5450  137.5930 O   0  0  0  0  0  0  0  0  0  0  0  0
  195.7210  172.5190  138.9160 C   0  0  1  0  0  3  0  0  0  0  0  0
  195.7320  174.8870  139.1790 O   0  0  0  0  0  0  0  0  0  0  0  0
  196.0960  174.0620  136.9640 C   0  0  1  0  0  3  0  0  0  0  0  0
  197.2090  172.2460  135.7570 O   0  0  0  0  0  1  0  0  0  0  0  0
  197.4290  174.7590  136.7010 C   0  0  0  0  0  2  0  0  0  0  0  0
  197.2140  176.0990  136.3780 O   0  0  0  0  0  1  0  0  0  0  0  0
  195.2630  172.9820  144.7950 C   0  0  0  0  0  2  0  0  0  0  0  0
  196.2340  172.5430  145.8720 C   0  0  0  0  0  2  0  0  0  0  0  0
  196.8050  171.1750  145.5300 C   0  0  0  0  0  2  0  0  0  0  0  0
  195.5450  169.2990  146.3300 O   0  0  0  0  0  1  0  0  0  0  0  0
  195.6980  170.1650  145.2460 C   0  0  2  0  0  3  0  0  0  0  0  0
  195.9990  169.3800  143.9760 C   0  0  0  0  0  2  0  0  0  0  0  0
  194.7400  168.6990  143.4580 C   0  0  0  0  0  2  0  0  0  0  0  0
  193.4270  169.3910  141.5550 C   0  0  0  0  0  0  0  0  0  0  0  0
  194.5520  169.0050  142.0580 N   0  0  0  0  0  0  0  0  0  0  0  0
  193.3500  169.6820  140.0980 C   0  0  0  0  0  1  0  0  0  0  0  0
  192.1880  169.5400  142.3850 C   0  0  0  0  0  1  0  0  0  0  0  0
  2  7  2  0  0  0  0
  3 28  1  1  0  0  0
  3 11  1  0  0  0  0
  4 14  1  0  0  0  0
  5  2  1  0  0  0  0
  5  4  2  0  0  0  0
  6  9  1  0  0  0  0
  6  3  1  0  0  0  0
  7  9  1  0  0  0  0
  7 12  1  0  0  0  0
  8 10  1  1  0  0  0
  9  1  1  0  0  0  0
 11  8  1  0  0  0  0
 11 41  1  0  0  0  0
 13  1  1  6  0  0  0
 13  8  1  0  0  0  0
 13 10  1  0  0  0  0
 14 12  2  0  0  0  0
 14 16  1  0  0  0  0
 15 21  1  0  0  0  0
 16 19  1  0  0  0  0
 18 23  1  0  0  0  0
 19 18  2  0  0  0  0
 19 15  1  0  0  0  0
 20 17  1  0  0  0  0
 21 17  2  0  0  0  0
 22 20  1  0  0  0  0
 23 22  2  0  0  0  0
 23 21  1  0  0  0  0
 24 26  1  0  0  0  0
 24 22  1  0  0  0  0
 25 24  2  0  0  0  0
 28 27  1  6  0  0  0
 29 28  1  0  0  0  0
 30 29  1  0  0  0  0
 31 38  1  1  0  0  0
 31 37  1  0  0  0  0
 31 33  1  0  0  0  0
 32 35  1  0  0  0  0
 32 36  2  0  0  0  0
 33 35  1  0  0  0  0
 34 33  2  0  0  0  0
 35 30  1  1  0  0  0
 37 39  1  1  0  0  0
 37 32  1  0  0  0  0
 40 39  1  0  0  0  0
 41 42  1  0  0  0  0
 43 42  1  0  0  0  0
 45 43  1  0  0  0  0
 45 44  1  1  0  0  0
 46 45  1  0  0  0  0
 47 46  1  0  0  0  0
 48 49  2  0  0  0  0
 48 51  1  0  0  0  0
 49 47  1  0  0  0  0
 50 48  1  0  0  0  0
M  END
>  <MODEL>
7

>  <REMARK>
 VINA RESULT:      -6.1      2.096      5.861
  Name = 
  14 active torsions:
  status: ('A' for Active; 'I' for Inactive)
    1  A    between atoms: C_3  and  C_33
    2  A    between atoms: C_3  and  C_47
    3  A    between atoms: C_6  and  C_44
    4  A    between atoms: C_7  and  C_40
    5  A    between atoms: C_12  and  C_44
    6  A    between atoms: C_12  and  C_46
    7  A    between atoms: N_14  and  C_51
    8  A    between atoms: N_18  and  C_33
    9  A    between atoms: C_19  and  C_36
   10  A    between atoms: C_30  and  C_46
   11  A    between atoms: N_37  and  C_39
   12  A    between atoms: C_39  and  C_45
   13  A    between atoms: C_45  and  C_49
   14  A    between atoms: C_47  and  C_49
                            x       y       z     vdW  Elec       q    Type
                         _______ _______ _______ _____ _____    ______ ____

>  <TORSDO>
F 14

$$$$
=
 OpenBabel11042413543D

 51 56  0  0  1  0  0  0  0  0999 V2000
  190.0450  172.1600  144.6320 C   0  0  0  0  0  2  0  0  0  0  0  0
  191.8700  175.4520  145.0770 C   0  0  0  0  0  3  0  0  0  0  0  0
  192.5420  171.3760  143.9650 C   0  0  1  0  0  3  0  0  0  0  0  0
  190.2200  177.1920  145.3600 C   0  0  0  0  0  3  0  0  0  0  0  0
  191.5550  176.7900  145.3170 C   0  0  0  0  0  3  0  0  0  0  0  0
  192.4820  172.7300  144.5220 N   0  0  0  0  0  2  0  0  0  0  0  0
  190.8400  174.5210  144.8860 C   0  0  0  0  0  0  0  0  0  0  0  0
  190.7320  171.2900  142.1870 C   0  0  1  0  0  3  0  0  0  0  0  0
  191.1390  173.1360  144.6540 N   0  0  0  0  0  0  0  0  0  0  0  0
  190.0560  172.6630  142.1300 C   0  0  0  0  0  2  0  0  0  0  0  0
  192.1710  171.3800  142.5400 N   0  0  0  0  0  0  0  0  0  0  0  0
  189.5450  174.9440  144.9280 N   0  0  0  0  0  0  0  0  0  0  0  0
  189.6520  171.6910  143.2200 C   0  0  2  0  0  3  0  0  0  0  0  0
  189.2130  176.2460  145.1500 C   0  0  0  0  0  0  0  0  0  0  0  0
  187.4320  176.7940  142.6470 C   0  0  0  0  0  2  0  0  0  0  0  0
  187.8430  176.6580  145.1990 N   0  0  0  0  0  2  0  0  0  0  0  0
  186.0250  177.6560  140.7270 C   0  0  0  0  0  3  0  0  0  0  0  0
  185.7200  177.1080  144.2120 N   0  0  0  0  0  0  0  0  0  0  0  0
  186.9780  176.8020  144.0660 C   0  0  0  0  0  0  0  0  0  0  0  0
  184.8560  178.2830  140.9390 C   0  0  0  0  0  3  0  0  0  0  0  0
  186.3080  176.9630  141.9740 C   0  0  2  0  0  3  0  0  0  0  0  0
  184.4000  178.0340  142.3280 C   0  0  0  0  0  0  0  0  0  0  0  0
  185.2640  177.1980  142.8750 C   0  0  0  0  0  0  0  0  0  0  0  0
  183.3470  178.7790  143.0320 C   0  0  0  0  0  0  0  0  0  0  0  0
  182.1910  178.8500  142.5400 O   0  0  0  0  0  0  0  0  0  0  0  0
  183.6160  179.4050  144.2450 O   0  0  0  0  0  1  0  0  0  0  0  0
  193.8870  169.7390  145.0870 O   0  0  0  0  0  1  0  0  0  0  0  0
  193.9380  170.7830  144.1620 C   0  0  2  0  0  3  0  0  0  0  0  0
  194.9110  171.8420  144.6520 C   0  0  0  0  0  2  0  0  0  0  0  0
  196.3360  171.4010  144.3680 C   0  0  0  0  0  2  0  0  0  0  0  0
  196.4790  174.9020  144.9780 C   0  0  1  0  0  3  0  0  0  0  0  0
  196.8560  173.4580  143.0960 C   0  0  0  0  0  0  0  0  0  0  0  0
  196.9720  173.5530  145.3920 C   0  0  0  0  0  0  0  0  0  0  0  0
  197.1740  173.2530  146.5590 O   0  0  0  0  0  0  0  0  0  0  0  0
  197.2370  172.6210  144.2670 C   0  0  1  0  0  3  0  0  0  0  0  0
  196.9900  173.0780  141.9420 O   0  0  0  0  0  0  0  0  0  0  0  0
  196.3460  174.8250  143.4440 C   0  0  1  0  0  3  0  0  0  0  0  0
  195.2640  175.1840  145.6110 O   0  0  0  0  0  1  0  0  0  0  0  0
  194.9130  175.0070  142.9460 C   0  0  0  0  0  2  0  0  0  0  0  0
  194.9080  175.2040  141.5650 O   0  0  0  0  0  1  0  0  0  0  0  0
  192.8960  172.3790  141.7470 C   0  0  0  0  0  2  0  0  0  0  0  0
  193.7950  171.6720  140.7530 C   0  0  0  0  0  2  0  0  0  0  0  0
  193.4000  170.2070  140.6480 C   0  0  0  0  0  2  0  0  0  0  0  0
  193.3710  170.8700  138.3440 O   0  0  0  0  0  1  0  0  0  0  0  0
  193.0450  169.8280  139.2140 C   0  0  2  0  0  3  0  0  0  0  0  0
  191.5660  169.4810  139.0990 C   0  0  0  0  0  2  0  0  0  0  0  0
  190.9270  170.2400  137.9450 C   0  0  0  0  0  2  0  0  0  0  0  0
  189.5530  172.1300  138.5480 C   0  0  0  0  0  0  0  0  0  0  0  0
  189.6950  170.8580  138.3810 N   0  0  0  0  0  0  0  0  0  0  0  0
  188.2370  172.6570  138.9990 C   0  0  0  0  0  1  0  0  0  0  0  0
  190.6750  173.0980  138.3210 C   0  0  0  0  0  1  0  0  0  0  0  0
  1  9  1  0  0  0  0
  2  5  1  0  0  0  0
  3 28  1  6  0  0  0
  3  6  1  0  0  0  0
  5  4  2  0  0  0  0
  6  9  1  0  0  0  0
  7 12  1  0  0  0  0
  7  2  2  0  0  0  0
  8 10  1  6  0  0  0
  8 11  1  0  0  0  0
  8 13  1  0  0  0  0
  9  7  1  0  0  0  0
 11  3  1  0  0  0  0
 12 14  2  0  0  0  0
 13 10  1  6  0  0  0
 13  1  1  0  0  0  0
 14 16  1  0  0  0  0
 14  4  1  0  0  0  0
 15 19  1  0  0  0  0
 17 20  2  0  0  0  0
 19 18  2  0  0  0  0
 19 16  1  0  0  0  0
 20 22  1  0  0  0  0
 21 17  1  6  0  0  0
 21 15  1  0  0  0  0
 21 23  1  0  0  0  0
 22 23  2  0  0  0  0
 22 24  1  0  0  0  0
 23 18  1  0  0  0  0
 24 26  1  0  0  0  0
 25 24  2  0  0  0  0
 28 29  1  0  0  0  0
 28 27  1  1  0  0  0
 30 29  1  0  0  0  0
 31 33  1  0  0  0  0
 31 38  1  1  0  0  0
 32 37  1  0  0  0  0
 32 35  1  0  0  0  0
 33 34  2  0  0  0  0
 35 30  1  1  0  0  0
 35 33  1  0  0  0  0
 36 32  2  0  0  0  0
 37 39  1  1  0  0  0
 37 31  1  0  0  0  0
 40 39  1  0  0  0  0
 41 11  1  0  0  0  0
 42 41  1  0  0  0  0
 43 42  1  0  0  0  0
 45 44  1  6  0  0  0
 45 43  1  0  0  0  0
 46 45  1  0  0  0  0
 47 49  1  0  0  0  0
 47 46  1  0  0  0  0
 48 50  1  0  0  0  0
 49 48  2  0  0  0  0
 51 48  1  0  0  0  0
M  END
>  <MODEL>
8

>  <REMARK>
 VINA RESULT:      -6.1      1.941      3.333
  Name = 
  14 active torsions:
  status: ('A' for Active; 'I' for Inactive)
    1  A    between atoms: C_3  and  C_33
    2  A    between atoms: C_3  and  C_47
    3  A    between atoms: C_6  and  C_44
    4  A    between atoms: C_7  and  C_40
    5  A    between atoms: C_12  and  C_44
    6  A    between atoms: C_12  and  C_46
    7  A    between atoms: N_14  and  C_51
    8  A    between atoms: N_18  and  C_33
    9  A    between atoms: C_19  and  C_36
   10  A    between atoms: C_30  and  C_46
   11  A    between atoms: N_37  and  C_39
   12  A    between atoms: C_39  and  C_45
   13  A    between atoms: C_45  and  C_49
   14  A    between atoms: C_47  and  C_49
                            x       y       z     vdW  Elec       q    Type
                         _______ _______ _______ _____ _____    ______ ____

>  <TORSDO>
F 14

$$$$
=
 OpenBabel11042413543D

 51 56  0  0  1  0  0  0  0  0999 V2000
  190.6680  172.0360  143.4680 C   0  0  0  0  0  2  0  0  0  0  0  0
  193.1100  174.1600  145.4400 C   0  0  0  0  0  3  0  0  0  0  0  0
  192.9270  171.5160  142.0830 C   0  0  1  0  0  3  0  0  0  0  0  0
  191.8410  175.5670  146.9380 C   0  0  0  0  0  3  0  0  0  0  0  0
  193.0700  175.1150  146.4580 C   0  0  0  0  0  3  0  0  0  0  0  0
  193.1580  172.2630  143.3220 N   0  0  0  0  0  2  0  0  0  0  0  0
  191.9120  173.6600  144.9130 C   0  0  0  0  0  0  0  0  0  0  0  0
  191.0360  172.7280  140.9010 C   0  0  1  0  0  3  0  0  0  0  0  0
  191.9280  172.6660  143.8770 N   0  0  0  0  0  0  0  0  0  0  0  0
  190.6310  173.9310  141.7580 C   0  0  0  0  0  2  0  0  0  0  0  0
  192.4830  172.4160  141.0060 N   0  0  0  0  0  0  0  0  0  0  0  0
  190.7260  174.1250  145.3980 N   0  0  0  0  0  0  0  0  0  0  0  0
  190.1120  172.5560  142.1310 C   0  0  2  0  0  3  0  0  0  0  0  0
  190.6620  175.0630  146.3830 C   0  0  0  0  0  0  0  0  0  0  0  0
  188.5600  176.6440  144.7030 C   0  0  0  0  0  2  0  0  0  0  0  0
  189.4010  175.5240  146.8800 N   0  0  0  0  0  2  0  0  0  0  0  0
  186.9750  178.2660  143.5790 C   0  0  0  0  0  3  0  0  0  0  0  0
  187.2260  176.4650  146.6170 N   0  0  0  0  0  0  0  0  0  0  0  0
  188.3770  176.1470  146.0950 C   0  0  0  0  0  0  0  0  0  0  0  0
  185.9710  178.8500  144.2550 C   0  0  0  0  0  3  0  0  0  0  0  0
  187.3720  177.1350  144.4020 C   0  0  2  0  0  3  0  0  0  0  0  0
  185.7420  178.1270  145.5300 C   0  0  0  0  0  0  0  0  0  0  0  0
  186.5550  177.0870  145.5370 C   0  0  0  0  0  0  0  0  0  0  0  0
  184.9570  178.6250  146.6680 C   0  0  0  0  0  0  0  0  0  0  0  0
  183.7400  178.3210  146.7740 O   0  0  0  0  0  0  0  0  0  0  0  0
  185.5510  179.4270  147.6380 O   0  0  0  0  0  1  0  0  0  0  0  0
  194.0640  169.4070  141.9860 O   0  0  0  0  0  1  0  0  0  0  0  0
  194.1930  170.7620  141.6740 C   0  0  2  0  0  3  0  0  0  0  0  0
  195.4120  171.3280  142.3830 C   0  0  0  0  0  2  0  0  0  0  0  0
  196.5680  171.4410  141.4050 C   0  0  0  0  0  2  0  0  0  0  0  0
  197.4370  173.3630  144.2690 C   0  0  1  0  0  3  0  0  0  0  0  0
  197.3680  173.7310  141.8970 C   0  0  0  0  0  0  0  0  0  0  0  0
  197.6930  172.1090  143.4960 C   0  0  0  0  0  0  0  0  0  0  0  0
  197.9290  171.0380  144.0340 O   0  0  0  0  0  0  0  0  0  0  0  0
  197.6770  172.2800  142.0220 C   0  0  1  0  0  3  0  0  0  0  0  0
  197.3290  174.3060  140.8200 O   0  0  0  0  0  0  0  0  0  0  0  0
  197.1630  174.4410  143.2020 C   0  0  1  0  0  3  0  0  0  0  0  0
  196.3570  173.1790  145.1380 O   0  0  0  0  0  1  0  0  0  0  0  0
  195.7570  175.0310  143.2780 C   0  0  0  0  0  2  0  0  0  0  0  0
  195.8220  176.3840  143.6100 O   0  0  0  0  0  1  0  0  0  0  0  0
  193.3380  173.5960  140.8350 C   0  0  0  0  0  2  0  0  0  0  0  0
  193.4240  173.9420  139.3620 C   0  0  0  0  0  2  0  0  0  0  0  0
  194.6360  173.2650  138.7400 C   0  0  0  0  0  2  0  0  0  0  0  0
  194.7870  173.1520  136.3500 O   0  0  0  0  0  1  0  0  0  0  0  0
  194.2610  172.5070  137.4720 C   0  0  2  0  0  3  0  0  0  0  0  0
  192.7490  172.3760  137.3490 C   0  0  0  0  0  2  0  0  0  0  0  0
  192.3560  170.9270  137.0990 C   0  0  0  0  0  2  0  0  0  0  0  0
  190.9500  169.7790  138.6900 C   0  0  0  0  0  0  0  0  0  0  0  0
  192.1010  170.2600  138.3560 N   0  0  0  0  0  0  0  0  0  0  0  0
  190.8030  169.1090  140.0100 C   0  0  0  0  0  1  0  0  0  0  0  0
  189.7480  169.8860  137.8000 C   0  0  0  0  0  1  0  0  0  0  0  0
  1  9  1  0  0  0  0
  2  5  1  0  0  0  0
  3 28  1  6  0  0  0
  3  6  1  0  0  0  0
  5  4  2  0  0  0  0
  6  9  1  0  0  0  0
  7 12  1  0  0  0  0
  7  2  2  0  0  0  0
  8 11  1  0  0  0  0
  8 10  1  1  0  0  0
  8 13  1  0  0  0  0
  9  7  1  0  0  0  0
 11  3  1  0  0  0  0
 12 14  2  0  0  0  0
 13 10  1  1  0  0  0
 13  1  1  0  0  0  0
 14 16  1  0  0  0  0
 14  4  1  0  0  0  0
 15 19  1  0  0  0  0
 17 20  2  0  0  0  0
 19 18  2  0  0  0  0
 19 16  1  0  0  0  0
 20 22  1  0  0  0  0
 21 17  1  1  0  0  0
 21 15  1  0  0  0  0
 21 23  1  0  0  0  0
 22 23  2  0  0  0  0
 22 24  1  0  0  0  0
 23 18  1  0  0  0  0
 24 25  2  0  0  0  0
 24 26  1  0  0  0  0
 28 27  1  1  0  0  0
 28 29  1  0  0  0  0
 30 29  1  0  0  0  0
 31 38  1  1  0  0  0
 32 35  1  0  0  0  0
 32 37  1  0  0  0  0
 33 34  2  0  0  0  0
 33 31  1  0  0  0  0
 35 30  1  6  0  0  0
 35 33  1  0  0  0  0
 36 32  2  0  0  0  0
 37 39  1  6  0  0  0
 37 31  1  0  0  0  0
 39 40  1  0  0  0  0
 41 11  1  0  0  0  0
 42 41  1  0  0  0  0
 43 42  1  0  0  0  0
 45 44  1  6  0  0  0
 45 43  1  0  0  0  0
 46 45  1  0  0  0  0
 47 46  1  0  0  0  0
 47 49  1  0  0  0  0
 48 50  1  0  0  0  0
 49 48  2  0  0  0  0
 51 48  1  0  0  0  0
M  END
>  <MODEL>
9

>  <REMARK>
 VINA RESULT:      -6.0      1.902      3.282
  Name = 
  14 active torsions:
  status: ('A' for Active; 'I' for Inactive)
    1  A    between atoms: C_3  and  C_33
    2  A    between atoms: C_3  and  C_47
    3  A    between atoms: C_6  and  C_44
    4  A    between atoms: C_7  and  C_40
    5  A    between atoms: C_12  and  C_44
    6  A    between atoms: C_12  and  C_46
    7  A    between atoms: N_14  and  C_51
    8  A    between atoms: N_18  and  C_33
    9  A    between atoms: C_19  and  C_36
   10  A    between atoms: C_30  and  C_46
   11  A    between atoms: N_37  and  C_39
   12  A    between atoms: C_39  and  C_45
   13  A    between atoms: C_45  and  C_49
   14  A    between atoms: C_47  and  C_49
                            x       y       z     vdW  Elec       q    Type
                         _______ _______ _______ _____ _____    ______ ____

>  <TORSDO>
F 14

$$$$
