=
 OpenBabel11042418293D

 30 35  0  0  1  0  0  0  0  0999 V2000
  190.2230  172.2980  140.2600 C   0  0  1  0  0  3  0  0  0  0  0  0
  192.5260  174.5610  142.4270 C   0  0  1  0  0  3  0  0  0  0  0  0
  189.5630  177.6190  145.1250 C   0  0  0  0  0  3  0  0  0  0  0  0
  190.8400  177.2210  144.7280 C   0  0  0  0  0  3  0  0  0  0  0  0
  188.6350  175.7670  143.9440 N   0  0  0  0  0  0  0  0  0  0  0  0
  188.4460  176.8810  144.7050 C   0  0  0  0  0  0  0  0  0  0  0  0
  192.3670  175.6120  143.5170 C   0  0  1  0  0  0  0  0  0  0  0  0
  191.4240  172.9190  139.6810 N   0  0  0  0  0  0  0  0  0  0  0  0
  188.1660  173.2200  141.4380 C   0  0  0  0  0  2  0  0  0  0  0  0
  190.0300  174.1900  142.7350 N   0  0  0  0  0  0  0  0  0  0  0  0
  191.3360  172.7310  141.1400 C   0  0  1  0  0  3  0  0  0  0  0  0
  192.6810  174.1790  143.9000 C   0  0  0  0  0  2  0  0  0  0  0  0
  193.4560  176.4710  143.6750 O   0  0  0  0  0  1  0  0  0  0  0  0
  188.9730  173.1800  142.7360 C   0  0  0  0  0  2  0  0  0  0  0  0
  189.0470  173.2770  140.1820 C   0  0  2  0  0  3  0  0  0  0  0  0
  189.8700  175.3680  143.5330 C   0  0  0  0  0  0  0  0  0  0  0  0
  192.2440  171.8390  139.1640 C   0  0  0  0  0  1  0  0  0  0  0  0
  191.1810  174.1070  141.8120 C   0  0  2  0  0  3  0  0  0  0  0  0
  191.0010  176.0930  143.9200 C   0  0  0  0  0  0  0  0  0  0  0  0
  186.7420  178.6710  142.7060 Cl  0  0  0  0  0  0  0  0  0  0  0  0
  186.6070  176.8890  146.3730 C   0  0  0  0  0  3  0  0  0  0  0  0
  185.3180  177.2230  146.7920 C   0  0  0  0  0  3  0  0  0  0  0  0
  184.9430  178.3790  144.7030 C   0  0  0  0  0  3  0  0  0  0  0  0
  186.2320  178.0470  144.2700 C   0  0  0  0  0  0  0  0  0  0  0  0
  187.0810  177.2850  145.1110 C   0  0  0  0  0  0  0  0  0  0  0  0
  184.4850  177.9660  145.9550 C   0  0  0  0  0  3  0  0  0  0  0  0
  188.2130  172.9870  138.9450 C   0  0  0  0  0  2  0  0  0  0  0  0
  187.4510  175.0870  137.8430 O   0  0  0  0  0  1  0  0  0  0  0  0
  189.3600  174.0350  137.1330 O   0  0  0  0  0  0  0  0  0  0  0  0
  188.3860  174.0660  137.9290 C   0  0  0  0  0  0  0  0  0  0  0  0
  1  8  1  6  0  0  0
  1 11  1  0  0  0  0
  2  7  1  0  0  0  0
  2 12  1  1  0  0  0
  4  3  1  0  0  0  0
  5  6  1  0  0  0  0
  6 25  1  0  0  0  0
  6  3  2  0  0  0  0
  7 13  1  1  0  0  0
  7 12  1  0  0  0  0
  7 19  1  0  0  0  0
  9 14  1  0  0  0  0
 10 14  1  0  0  0  0
 10 16  1  0  0  0  0
 11  8  1  6  0  0  0
 11 18  1  0  0  0  0
 15 27  1  6  0  0  0
 15  1  1  0  0  0  0
 15  9  1  0  0  0  0
 16 19  1  0  0  0  0
 16  5  2  0  0  0  0
 17  8  1  0  0  0  0
 18  2  1  0  0  0  0
 18 10  1  1  0  0  0
 19  4  2  0  0  0  0
 20 24  1  0  0  0  0
 21 22  1  0  0  0  0
 23 26  1  0  0  0  0
 24 23  2  0  0  0  0
 24 25  1  0  0  0  0
 25 21  2  0  0  0  0
 26 22  2  0  0  0  0
 28 30  1  0  0  0  0
 29 30  2  0  0  0  0
 30 27  1  0  0  0  0
M  END
>  <MODEL>
1

>  <REMARK>
 VINA RESULT:      -7.9      0.000      0.000
  Name = 
  3 active torsions:
  status: ('A' for Active; 'I' for Inactive)
    1  A    between atoms: C_10  and  C_25
    2  A    between atoms: C_10  and  C_26
    3  A    between atoms: C_11  and  C_22
                            x       y       z     vdW  Elec       q    Type
                         _______ _______ _______ _____ _____    ______ ____

>  <TORSDO>
F 3

$$$$
=
 OpenBabel11042418293D

 30 35  0  0  1  0  0  0  0  0999 V2000
  185.8970  178.1490  140.7690 C   0  0  1  0  0  3  0  0  0  0  0  0
  184.8410  177.8790  144.5010 C   0  0  1  0  0  3  0  0  0  0  0  0
  188.7070  175.8780  147.0430 C   0  0  0  0  0  3  0  0  0  0  0  0
  187.3910  176.3400  147.0210 C   0  0  0  0  0  3  0  0  0  0  0  0
  188.9930  176.6260  144.7980 N   0  0  0  0  0  0  0  0  0  0  0  0
  189.5070  176.0140  145.9000 C   0  0  0  0  0  0  0  0  0  0  0  0
  185.4800  177.4860  145.8260 C   0  0  1  0  0  0  0  0  0  0  0  0
  184.5640  177.6490  141.1360 N   0  0  0  0  0  0  0  0  0  0  0  0
  188.2650  177.4300  141.3610 C   0  0  0  0  0  2  0  0  0  0  0  0
  187.2010  177.7130  143.5720 N   0  0  0  0  0  0  0  0  0  0  0  0
  185.3100  178.4910  142.0880 C   0  0  1  0  0  3  0  0  0  0  0  0
  185.3790  178.9510  145.4500 C   0  0  0  0  0  2  0  0  0  0  0  0
  184.5830  177.1150  146.8300 O   0  0  0  0  0  1  0  0  0  0  0  0
  188.1430  178.2950  142.6160 C   0  0  0  0  0  2  0  0  0  0  0  0
  186.9050  176.9960  140.7940 C   0  0  2  0  0  3  0  0  0  0  0  0
  187.7070  177.0710  144.7480 C   0  0  0  0  0  0  0  0  0  0  0  0
  183.6000  178.5100  140.4770 C   0  0  0  0  0  1  0  0  0  0  0  0
  185.7550  177.6240  143.2800 C   0  0  2  0  0  3  0  0  0  0  0  0
  186.8780  176.9350  145.8650 C   0  0  0  0  0  0  0  0  0  0  0  0
  190.1120  173.1410  144.6780 Cl  0  0  0  0  0  0  0  0  0  0  0  0
  191.9030  176.3410  146.4660 C   0  0  0  0  0  3  0  0  0  0  0  0
  193.2400  175.9400  146.4670 C   0  0  0  0  0  3  0  0  0  0  0  0
  192.6220  173.8880  145.3500 C   0  0  0  0  0  3  0  0  0  0  0  0
  191.2780  174.2810  145.3400 C   0  0  0  0  0  0  0  0  0  0  0  0
  190.9060  175.5290  145.8990 C   0  0  0  0  0  0  0  0  0  0  0  0
  193.5990  174.7140  145.9070 C   0  0  0  0  0  3  0  0  0  0  0  0
  187.0810  176.4300  139.3940 C   0  0  0  0  0  2  0  0  0  0  0  0
  188.0750  174.5360  140.6700 O   0  0  0  0  0  1  0  0  0  0  0  0
  188.0940  174.5230  138.3780 O   0  0  0  0  0  0  0  0  0  0  0  0
  187.7670  175.1070  139.4430 C   0  0  0  0  0  0  0  0  0  0  0  0
  1 15  1  0  0  0  0
  1  8  1  6  0  0  0
  1 11  1  0  0  0  0
  2 12  1  1  0  0  0
  2  7  1  0  0  0  0
  4  3  1  0  0  0  0
  5  6  1  0  0  0  0
  6  3  2  0  0  0  0
  7 19  1  0  0  0  0
  7 13  1  1  0  0  0
  9 14  1  0  0  0  0
 10 16  1  0  0  0  0
 11  8  1  6  0  0  0
 11 18  1  0  0  0  0
 12  7  1  0  0  0  0
 14 10  1  0  0  0  0
 15 27  1  6  0  0  0
 15  9  1  0  0  0  0
 16  5  2  0  0  0  0
 16 19  1  0  0  0  0
 17  8  1  0  0  0  0
 18 10  1  1  0  0  0
 18  2  1  0  0  0  0
 19  4  2  0  0  0  0
 20 24  1  0  0  0  0
 21 22  1  0  0  0  0
 23 26  1  0  0  0  0
 24 23  2  0  0  0  0
 24 25  1  0  0  0  0
 25  6  1  0  0  0  0
 25 21  2  0  0  0  0
 26 22  2  0  0  0  0
 27 30  1  0  0  0  0
 29 30  2  0  0  0  0
 30 28  1  0  0  0  0
M  END
>  <MODEL>
2

>  <REMARK>
 VINA RESULT:      -7.7      3.205      6.335
  Name = 
  3 active torsions:
  status: ('A' for Active; 'I' for Inactive)
    1  A    between atoms: C_10  and  C_25
    2  A    between atoms: C_10  and  C_26
    3  A    between atoms: C_11  and  C_22
                            x       y       z     vdW  Elec       q    Type
                         _______ _______ _______ _____ _____    ______ ____

>  <TORSDO>
F 3

$$$$
=
 OpenBabel11042418293D

 30 35  0  0  1  0  0  0  0  0999 V2000
  186.5020  177.8420  141.9290 C   0  0  1  0  0  3  0  0  0  0  0  0
  186.0590  177.1690  145.7320 C   0  0  1  0  0  3  0  0  0  0  0  0
  190.3320  175.0990  147.4260 C   0  0  0  0  0  3  0  0  0  0  0  0
  189.0170  175.5040  147.6560 C   0  0  0  0  0  3  0  0  0  0  0  0
  190.2380  176.0710  145.2510 N   0  0  0  0  0  0  0  0  0  0  0  0
  190.9370  175.3780  146.1920 C   0  0  0  0  0  0  0  0  0  0  0  0
  186.9110  176.6780  146.8950 C   0  0  1  0  0  0  0  0  0  0  0  0
  185.2580  177.2520  142.4460 N   0  0  0  0  0  0  0  0  0  0  0  0
  188.9520  177.1700  142.0700 C   0  0  0  0  0  2  0  0  0  0  0  0
  188.2450  177.1930  144.4360 N   0  0  0  0  0  0  0  0  0  0  0  0
  186.1230  178.0300  143.3510 C   0  0  1  0  0  3  0  0  0  0  0  0
  186.7120  178.1670  146.6910 C   0  0  0  0  0  2  0  0  0  0  0  0
  186.1960  176.1750  147.9830 O   0  0  0  0  0  1  0  0  0  0  0  0
  189.0080  177.9040  143.4100 C   0  0  0  0  0  2  0  0  0  0  0  0
  187.5320  176.7350  141.6790 C   0  0  2  0  0  3  0  0  0  0  0  0
  188.9490  176.4640  145.4470 C   0  0  0  0  0  0  0  0  0  0  0  0
  184.1790  178.1320  142.0350 C   0  0  0  0  0  1  0  0  0  0  0  0
  186.7740  177.0720  144.3650 C   0  0  2  0  0  3  0  0  0  0  0  0
  188.3120  176.1850  146.6600 C   0  0  0  0  0  0  0  0  0  0  0  0
  191.4160  172.6910  144.5610 Cl  0  0  0  0  0  0  0  0  0  0  0  0
  193.3830  175.7390  146.4280 C   0  0  0  0  0  3  0  0  0  0  0  0
  194.7130  175.3960  146.1820 C   0  0  0  0  0  3  0  0  0  0  0  0
  193.9810  173.4610  144.9350 C   0  0  0  0  0  3  0  0  0  0  0  0
  192.6430  173.7950  145.1720 C   0  0  0  0  0  0  0  0  0  0  0  0
  192.3310  174.9550  145.9250 C   0  0  0  0  0  0  0  0  0  0  0  0
  195.0120  174.2580  145.4330 C   0  0  0  0  0  3  0  0  0  0  0  0
  187.4970  176.3150  140.2180 C   0  0  0  0  0  2  0  0  0  0  0  0
  188.1720  174.1200  141.1840 O   0  0  0  0  0  1  0  0  0  0  0  0
  188.2770  174.4700  138.9210 O   0  0  0  0  0  0  0  0  0  0  0  0
  187.9930  174.9170  140.0620 C   0  0  0  0  0  0  0  0  0  0  0  0
  1  8  1  6  0  0  0
  1 11  1  0  0  0  0
  2 12  1  1  0  0  0
  2  7  1  0  0  0  0
  3  4  1  0  0  0  0
  5 16  2  0  0  0  0
  5  6  1  0  0  0  0
  6  3  2  0  0  0  0
  7 13  1  1  0  0  0
  9 14  1  0  0  0  0
 10 16  1  0  0  0  0
 11  8  1  6  0  0  0
 11 18  1  0  0  0  0
 12  7  1  0  0  0  0
 14 10  1  0  0  0  0
 15 27  1  6  0  0  0
 15  1  1  0  0  0  0
 15  9  1  0  0  0  0
 16 19  1  0  0  0  0
 17  8  1  0  0  0  0
 18 10  1  1  0  0  0
 18  2  1  0  0  0  0
 19  7  1  0  0  0  0
 19  4  2  0  0  0  0
 20 24  1  0  0  0  0
 22 21  1  0  0  0  0
 23 24  2  0  0  0  0
 23 26  1  0  0  0  0
 24 25  1  0  0  0  0
 25  6  1  0  0  0  0
 25 21  2  0  0  0  0
 26 22  2  0  0  0  0
 29 30  2  0  0  0  0
 30 27  1  0  0  0  0
 30 28  1  0  0  0  0
M  END
>  <MODEL>
3

>  <REMARK>
 VINA RESULT:      -7.6      3.206      6.445
  Name = 
  3 active torsions:
  status: ('A' for Active; 'I' for Inactive)
    1  A    between atoms: C_10  and  C_25
    2  A    between atoms: C_10  and  C_26
    3  A    between atoms: C_11  and  C_22
                            x       y       z     vdW  Elec       q    Type
                         _______ _______ _______ _____ _____    ______ ____

>  <TORSDO>
F 3

$$$$
=
 OpenBabel11042418293D

 30 35  0  0  1  0  0  0  0  0999 V2000
  187.6830  177.6280  143.9260 C   0  0  1  0  0  3  0  0  0  0  0  0
  189.6440  176.3570  147.0330 C   0  0  1  0  0  3  0  0  0  0  0  0
  194.3500  175.3230  145.5520 C   0  0  0  0  0  3  0  0  0  0  0  0
  193.3740  175.3200  146.5470 C   0  0  0  0  0  3  0  0  0  0  0  0
  192.8650  176.5140  144.1170 N   0  0  0  0  0  0  0  0  0  0  0  0
  194.0740  175.9180  144.3120 C   0  0  0  0  0  0  0  0  0  0  0  0
  191.0750  175.9660  147.3780 C   0  0  1  0  0  0  0  0  0  0  0  0
  187.0760  176.6580  144.8500 N   0  0  0  0  0  0  0  0  0  0  0  0
  189.8210  177.6370  142.5480 C   0  0  0  0  0  2  0  0  0  0  0  0
  190.6320  177.1500  144.8290 N   0  0  0  0  0  0  0  0  0  0  0  0
  188.1810  177.5130  145.3190 C   0  0  1  0  0  3  0  0  0  0  0  0
  190.5780  177.3570  147.7170 C   0  0  0  0  0  2  0  0  0  0  0  0
  191.2110  175.1450  148.4990 O   0  0  0  0  0  1  0  0  0  0  0  0
  190.5390  178.1720  143.7870 C   0  0  0  0  0  2  0  0  0  0  0  0
  188.5230  176.8880  142.8800 C   0  0  2  0  0  3  0  0  0  0  0  0
  191.8910  176.5110  145.0690 C   0  0  0  0  0  0  0  0  0  0  0  0
  185.8450  177.2570  145.3330 C   0  0  0  0  0  1  0  0  0  0  0  0
  189.4330  176.6430  145.5280 C   0  0  2  0  0  3  0  0  0  0  0  0
  192.1290  175.9090  146.3080 C   0  0  0  0  0  0  0  0  0  0  0  0
  193.2300  174.9240  141.4120 Cl  0  0  0  0  0  0  0  0  0  0  0  0
  196.3980  176.3500  143.5520 C   0  0  0  0  0  3  0  0  0  0  0  0
  197.3880  176.4040  142.5700 C   0  0  0  0  0  3  0  0  0  0  0  0
  195.8040  175.6000  140.9320 C   0  0  0  0  0  3  0  0  0  0  0  0
  194.8010  175.5450  141.9070 C   0  0  0  0  0  0  0  0  0  0  0  0
  195.0940  175.9310  143.2390 C   0  0  0  0  0  0  0  0  0  0  0  0
  197.0900  176.0310  141.2600 C   0  0  0  0  0  3  0  0  0  0  0  0
  187.7060  176.6730  141.6160 C   0  0  0  0  0  2  0  0  0  0  0  0
  187.8320  174.2140  141.9920 O   0  0  0  0  0  1  0  0  0  0  0  0
  188.0990  175.0780  139.8850 O   0  0  0  0  0  0  0  0  0  0  0  0
  187.8800  175.2830  141.1070 C   0  0  0  0  0  0  0  0  0  0  0  0
  1  8  1  1  0  0  0
  1 11  1  0  0  0  0
  2  7  1  0  0  0  0
  2 12  1  1  0  0  0
  3  4  1  0  0  0  0
  5  6  1  0  0  0  0
  5 16  2  0  0  0  0
  6  3  2  0  0  0  0
  7 12  1  0  0  0  0
  7 13  1  1  0  0  0
  8 17  1  0  0  0  0
  9 15  1  0  0  0  0
  9 14  1  0  0  0  0
 10 16  1  0  0  0  0
 11  8  1  1  0  0  0
 11 18  1  0  0  0  0
 14 10  1  0  0  0  0
 15 27  1  6  0  0  0
 15  1  1  0  0  0  0
 16 19  1  0  0  0  0
 18 10  1  1  0  0  0
 18  2  1  0  0  0  0
 19  4  2  0  0  0  0
 19  7  1  0  0  0  0
 20 24  1  0  0  0  0
 22 21  2  0  0  0  0
 23 26  2  0  0  0  0
 23 24  1  0  0  0  0
 24 25  2  0  0  0  0
 25 21  1  0  0  0  0
 25  6  1  0  0  0  0
 26 22  1  0  0  0  0
 29 30  2  0  0  0  0
 30 27  1  0  0  0  0
 30 28  1  0  0  0  0
M  END
>  <MODEL>
4

>  <REMARK>
 VINA RESULT:      -7.4      3.224      6.974
  Name = 
  3 active torsions:
  status: ('A' for Active; 'I' for Inactive)
    1  A    between atoms: C_10  and  C_25
    2  A    between atoms: C_10  and  C_26
    3  A    between atoms: C_11  and  C_22
                            x       y       z     vdW  Elec       q    Type
                         _______ _______ _______ _____ _____    ______ ____

>  <TORSDO>
F 3

$$$$
=
 OpenBabel11042418293D

 30 35  0  0  1  0  0  0  0  0999 V2000
  191.6670  175.6420  147.4170 C   0  0  1  0  0  3  0  0  0  0  0  0
  188.4210  177.4120  146.2150 C   0  0  1  0  0  3  0  0  0  0  0  0
  187.4180  175.7650  141.5570 C   0  0  0  0  0  3  0  0  0  0  0  0
  187.1190  176.6110  142.6260 C   0  0  0  0  0  3  0  0  0  0  0  0
  189.0710  174.6850  142.8920 N   0  0  0  0  0  0  0  0  0  0  0  0
  188.4250  174.8000  141.6990 C   0  0  0  0  0  0  0  0  0  0  0  0
  187.4870  177.3550  145.0140 C   0  0  1  0  0  0  0  0  0  0  0  0
  191.4710  177.0820  147.6420 N   0  0  0  0  0  0  0  0  0  0  0  0
  191.6670  174.1750  145.3390 C   0  0  0  0  0  2  0  0  0  0  0  0
  189.5030  175.3550  145.1860 N   0  0  0  0  0  0  0  0  0  0  0  0
  190.2990  176.2160  147.4230 C   0  0  1  0  0  3  0  0  0  0  0  0
  187.1270  176.5980  146.2770 C   0  0  0  0  0  2  0  0  0  0  0  0
  186.7040  178.4940  144.8160 O   0  0  0  0  0  1  0  0  0  0  0  0
  190.1490  174.0780  145.4880 C   0  0  0  0  0  2  0  0  0  0  0  0
  192.2620  175.4140  146.0240 C   0  0  2  0  0  3  0  0  0  0  0  0
  188.8060  175.5080  143.9440 C   0  0  0  0  0  0  0  0  0  0  0  0
  191.5750  177.2990  149.0730 C   0  0  0  0  0  1  0  0  0  0  0  0
  189.6880  176.5410  146.0480 C   0  0  2  0  0  3  0  0  0  0  0  0
  187.8200  176.4920  143.8290 C   0  0  0  0  0  0  0  0  0  0  0  0
  189.9070  172.0650  142.3580 Cl  0  0  0  0  0  0  0  0  0  0  0  0
  188.4440  174.2920  139.2680 C   0  0  0  0  0  3  0  0  0  0  0  0
  188.7190  173.4620  138.1800 C   0  0  0  0  0  3  0  0  0  0  0  0
  189.6580  171.8150  139.6770 C   0  0  0  0  0  3  0  0  0  0  0  0
  189.3850  172.6360  140.7770 C   0  0  0  0  0  0  0  0  0  0  0  0
  188.7620  173.8940  140.5780 C   0  0  0  0  0  0  0  0  0  0  0  0
  189.3240  172.2220  138.3850 C   0  0  0  0  0  3  0  0  0  0  0  0
  193.7740  175.2810  146.1210 C   0  0  0  0  0  2  0  0  0  0  0  0
  194.8690  176.5290  144.2650 O   0  0  0  0  0  0  0  0  0  0  0  0
  194.6510  177.4910  146.3350 O   0  0  0  0  0  1  0  0  0  0  0  0
  194.4440  176.5010  145.5860 C   0  0  0  0  0  0  0  0  0  0  0  0
  1 11  1  0  0  0  0
  1  8  1  1  0  0  0
  2 12  1  1  0  0  0
  3  6  2  0  0  0  0
  3  4  1  0  0  0  0
  4 19  2  0  0  0  0
  5 16  2  0  0  0  0
  6  5  1  0  0  0  0
  7 13  1  6  0  0  0
  7  2  1  0  0  0  0
  7 12  1  0  0  0  0
  8 17  1  0  0  0  0
  9 14  1  0  0  0  0
  9 15  1  0  0  0  0
 10 14  1  0  0  0  0
 11  8  1  1  0  0  0
 15 27  1  1  0  0  0
 15  1  1  0  0  0  0
 16 10  1  0  0  0  0
 18 10  1  1  0  0  0
 18  2  1  0  0  0  0
 18 11  1  0  0  0  0
 19 16  1  0  0  0  0
 19  7  1  0  0  0  0
 21 25  1  0  0  0  0
 22 26  1  0  0  0  0
 22 21  2  0  0  0  0
 23 24  1  0  0  0  0
 24 20  1  0  0  0  0
 25 24  2  0  0  0  0
 25  6  1  0  0  0  0
 26 23  2  0  0  0  0
 28 30  2  0  0  0  0
 30 27  1  0  0  0  0
 30 29  1  0  0  0  0
M  END
>  <MODEL>
5

>  <REMARK>
 VINA RESULT:      -7.2      3.198      7.286
  Name = 
  3 active torsions:
  status: ('A' for Active; 'I' for Inactive)
    1  A    between atoms: C_10  and  C_25
    2  A    between atoms: C_10  and  C_26
    3  A    between atoms: C_11  and  C_22
                            x       y       z     vdW  Elec       q    Type
                         _______ _______ _______ _____ _____    ______ ____

>  <TORSDO>
F 3

$$$$
=
 OpenBabel11042418293D

 30 35  0  0  1  0  0  0  0  0999 V2000
  193.7720  175.7490  144.7760 C   0  0  1  0  0  3  0  0  0  0  0  0
  191.9690  173.3960  142.2610 C   0  0  1  0  0  3  0  0  0  0  0  0
  187.1080  174.7250  142.1370 C   0  0  0  0  0  3  0  0  0  0  0  0
  188.1320  173.8650  141.7390 C   0  0  0  0  0  3  0  0  0  0  0  0
  188.7160  176.1170  143.2150 N   0  0  0  0  0  0  0  0  0  0  0  0
  187.4150  175.8580  142.9030 C   0  0  0  0  0  0  0  0  0  0  0  0
  190.5830  173.2550  141.6450 C   0  0  1  0  0  0  0  0  0  0  0  0
  194.0380  174.3030  144.7790 N   0  0  0  0  0  0  0  0  0  0  0  0
  191.6580  177.1430  145.0250 C   0  0  0  0  0  2  0  0  0  0  0  0
  191.0860  175.5890  143.1930 N   0  0  0  0  0  0  0  0  0  0  0  0
  193.4980  174.9380  143.5650 C   0  0  1  0  0  3  0  0  0  0  0  0
  191.6770  173.9640  140.8710 C   0  0  0  0  0  2  0  0  0  0  0  0
  190.2860  171.9900  141.1370 O   0  0  0  0  0  1  0  0  0  0  0  0
  191.4450  176.9680  143.5210 C   0  0  0  0  0  2  0  0  0  0  0  0
  192.5420  176.0480  145.6400 C   0  0  2  0  0  3  0  0  0  0  0  0
  189.7290  175.2840  142.8500 C   0  0  0  0  0  0  0  0  0  0  0  0
  195.4660  174.1430  144.5730 C   0  0  0  0  0  1  0  0  0  0  0  0
  192.0440  174.4770  143.3640 C   0  0  2  0  0  3  0  0  0  0  0  0
  189.4540  174.1360  142.1010 C   0  0  0  0  0  0  0  0  0  0  0  0
  187.0350  176.3670  146.0190 Cl  0  0  0  0  0  0  0  0  0  0  0  0
  185.5240  177.3740  142.3650 C   0  0  0  0  0  3  0  0  0  0  0  0
  184.5180  178.2720  142.7240 C   0  0  0  0  0  3  0  0  0  0  0  0
  185.1130  178.0050  145.0510 C   0  0  0  0  0  3  0  0  0  0  0  0
  186.1270  177.1050  144.7030 C   0  0  0  0  0  0  0  0  0  0  0  0
  186.3460  176.7840  143.3400 C   0  0  0  0  0  0  0  0  0  0  0  0
  184.3140  178.5890  144.0670 C   0  0  0  0  0  3  0  0  0  0  0  0
  192.9770  176.4530  147.0390 C   0  0  0  0  0  2  0  0  0  0  0  0
  191.5020  177.5120  148.7440 O   0  0  0  0  0  1  0  0  0  0  0  0
  191.1680  175.3310  148.1190 O   0  0  0  0  0  0  0  0  0  0  0  0
  191.8260  176.3960  147.9850 C   0  0  0  0  0  0  0  0  0  0  0  0
  1  8  1  1  0  0  0
  1 15  1  0  0  0  0
  2 12  1  6  0  0  0
  2 18  1  0  0  0  0
  3  6  1  0  0  0  0
  4 19  1  0  0  0  0
  4  3  2  0  0  0  0
  6  5  2  0  0  0  0
  6 25  1  0  0  0  0
  7 13  1  6  0  0  0
  7 19  1  0  0  0  0
  7  2  1  0  0  0  0
  9 15  1  0  0  0  0
 10 14  1  0  0  0  0
 11  1  1  0  0  0  0
 11  8  1  1  0  0  0
 12  7  1  0  0  0  0
 14  9  1  0  0  0  0
 15 27  1  1  0  0  0
 16 10  1  0  0  0  0
 16  5  1  0  0  0  0
 17  8  1  0  0  0  0
 18 10  1  6  0  0  0
 18 11  1  0  0  0  0
 19 16  2  0  0  0  0
 21 22  2  0  0  0  0
 21 25  1  0  0  0  0
 22 26  1  0  0  0  0
 24 23  1  0  0  0  0
 24 20  1  0  0  0  0
 25 24  2  0  0  0  0
 26 23  2  0  0  0  0
 27 30  1  0  0  0  0
 30 29  2  0  0  0  0
 30 28  1  0  0  0  0
M  END
>  <MODEL>
6

>  <REMARK>
 VINA RESULT:      -7.2      2.520      5.574
  Name = 
  3 active torsions:
  status: ('A' for Active; 'I' for Inactive)
    1  A    between atoms: C_10  and  C_25
    2  A    between atoms: C_10  and  C_26
    3  A    between atoms: C_11  and  C_22
                            x       y       z     vdW  Elec       q    Type
                         _______ _______ _______ _____ _____    ______ ____

>  <TORSDO>
F 3

$$$$
=
 OpenBabel11042418293D

 30 35  0  0  1  0  0  0  0  0999 V2000
  194.2580  174.7660  143.6550 C   0  0  1  0  0  3  0  0  0  0  0  0
  191.5340  173.0350  141.4860 C   0  0  1  0  0  3  0  0  0  0  0  0
  187.1300  175.2740  142.4910 C   0  0  0  0  0  3  0  0  0  0  0  0
  187.8510  174.2740  141.8390 C   0  0  0  0  0  3  0  0  0  0  0  0
  189.1760  176.2310  143.2550 N   0  0  0  0  0  0  0  0  0  0  0  0
  187.8150  176.2550  143.2230 C   0  0  0  0  0  0  0  0  0  0  0  0
  190.0530  173.2180  141.1830 C   0  0  1  0  0  0  0  0  0  0  0  0
  194.2160  173.3010  143.5320 N   0  0  0  0  0  0  0  0  0  0  0  0
  192.5730  176.5100  144.4240 C   0  0  0  0  0  2  0  0  0  0  0  0
  191.3310  175.2640  142.6910 N   0  0  0  0  0  0  0  0  0  0  0  0
  193.5810  174.1340  142.4950 C   0  0  1  0  0  3  0  0  0  0  0  0
  191.0860  173.7710  140.2220 C   0  0  0  0  0  2  0  0  0  0  0  0
  189.4030  172.0830  140.6940 O   0  0  0  0  0  1  0  0  0  0  0  0
  192.0260  176.5140  142.9970 C   0  0  0  0  0  2  0  0  0  0  0  0
  193.3200  175.2160  144.7790 C   0  0  2  0  0  3  0  0  0  0  0  0
  189.9000  175.2560  142.6380 C   0  0  0  0  0  0  0  0  0  0  0  0
  195.5070  172.8900  143.0110 C   0  0  0  0  0  1  0  0  0  0  0  0
  192.0530  173.9790  142.5960 C   0  0  2  0  0  3  0  0  0  0  0  0
  189.2470  174.2540  141.9150 C   0  0  0  0  0  0  0  0  0  0  0  0
  187.6680  176.1600  146.3980 Cl  0  0  0  0  0  0  0  0  0  0  0  0
  186.4350  178.3190  143.1630 C   0  0  0  0  0  3  0  0  0  0  0  0
  185.7430  179.3620  143.7790 C   0  0  0  0  0  3  0  0  0  0  0  0
  186.2850  178.4390  145.9450 C   0  0  0  0  0  3  0  0  0  0  0  0
  186.9850  177.3890  145.3390 C   0  0  0  0  0  0  0  0  0  0  0  0
  187.0710  177.3250  143.9260 C   0  0  0  0  0  0  0  0  0  0  0  0
  185.6700  179.4240  145.1700 C   0  0  0  0  0  3  0  0  0  0  0  0
  194.1060  175.4030  146.0670 C   0  0  0  0  0  2  0  0  0  0  0  0
  194.9100  177.7540  145.8890 O   0  0  0  0  0  0  0  0  0  0  0  0
  193.3140  177.1900  147.4360 O   0  0  0  0  0  1  0  0  0  0  0  0
  194.0740  176.8290  146.5000 C   0  0  0  0  0  0  0  0  0  0  0  0
  1  8  1  1  0  0  0
  1 15  1  0  0  0  0
  2 12  1  6  0  0  0
  2 18  1  0  0  0  0
  3  6  1  0  0  0  0
  4 19  1  0  0  0  0
  4  3  2  0  0  0  0
  6  5  2  0  0  0  0
  6 25  1  0  0  0  0
  7 13  1  6  0  0  0
  7  2  1  0  0  0  0
  7 19  1  0  0  0  0
  9 15  1  0  0  0  0
 10 14  1  0  0  0  0
 11 18  1  0  0  0  0
 11  8  1  1  0  0  0
 11  1  1  0  0  0  0
 12  7  1  0  0  0  0
 14  9  1  0  0  0  0
 15 27  1  1  0  0  0
 16 10  1  0  0  0  0
 16  5  1  0  0  0  0
 17  8  1  0  0  0  0
 18 10  1  6  0  0  0
 19 16  2  0  0  0  0
 21 22  2  0  0  0  0
 21 25  1  0  0  0  0
 22 26  1  0  0  0  0
 24 23  1  0  0  0  0
 24 20  1  0  0  0  0
 25 24  2  0  0  0  0
 26 23  2  0  0  0  0
 27 30  1  0  0  0  0
 28 30  2  0  0  0  0
 30 29  1  0  0  0  0
M  END
>  <MODEL>
7

>  <REMARK>
 VINA RESULT:      -7.2      2.254      5.361
  Name = 
  3 active torsions:
  status: ('A' for Active; 'I' for Inactive)
    1  A    between atoms: C_10  and  C_25
    2  A    between atoms: C_10  and  C_26
    3  A    between atoms: C_11  and  C_22
                            x       y       z     vdW  Elec       q    Type
                         _______ _______ _______ _____ _____    ______ ____

>  <TORSDO>
F 3

$$$$
=
 OpenBabel11042418293D

 30 35  0  0  1  0  0  0  0  0999 V2000
  187.2390  177.4200  144.5680 C   0  0  1  0  0  3  0  0  0  0  0  0
  189.7380  176.1530  147.2630 C   0  0  1  0  0  3  0  0  0  0  0  0
  194.0940  175.1220  144.9430 C   0  0  0  0  0  3  0  0  0  0  0  0
  193.3160  175.1190  146.1020 C   0  0  0  0  0  3  0  0  0  0  0  0
  192.3690  176.3110  143.8050 N   0  0  0  0  0  0  0  0  0  0  0  0
  193.5940  175.7160  143.7760 C   0  0  0  0  0  0  0  0  0  0  0  0
  191.2080  175.7630  147.3400 C   0  0  1  0  0  0  0  0  0  0  0  0
  186.8130  176.4500  145.5880 N   0  0  0  0  0  0  0  0  0  0  0  0
  189.0880  177.4300  142.8210 C   0  0  0  0  0  2  0  0  0  0  0  0
  190.3040  176.9450  144.9150 N   0  0  0  0  0  0  0  0  0  0  0  0
  187.9840  177.3070  145.8450 C   0  0  1  0  0  3  0  0  0  0  0  0
  190.7810  177.1550  147.7630 C   0  0  0  0  0  2  0  0  0  0  0  0
  191.5490  174.9440  148.4170 O   0  0  0  0  0  1  0  0  0  0  0  0
  190.0210  177.9670  143.9070 C   0  0  0  0  0  2  0  0  0  0  0  0
  187.8730  176.6800  143.3860 C   0  0  2  0  0  3  0  0  0  0  0  0
  191.5870  176.3070  144.9190 C   0  0  0  0  0  0  0  0  0  0  0  0
  185.6910  177.0480  146.2880 C   0  0  0  0  0  1  0  0  0  0  0  0
  189.2540  176.4380  145.8220 C   0  0  2  0  0  3  0  0  0  0  0  0
  192.0490  175.7070  146.0950 C   0  0  0  0  0  0  0  0  0  0  0  0
  196.4420  177.1290  143.8350 Cl  0  0  0  0  0  0  0  0  0  0  0  0
  193.8610  175.1460  141.3740 C   0  0  0  0  0  3  0  0  0  0  0  0
  194.5910  175.1110  140.1850 C   0  0  0  0  0  3  0  0  0  0  0  0
  196.4170  176.2590  141.2740 C   0  0  0  0  0  3  0  0  0  0  0  0
  195.6960  176.2980  142.4740 C   0  0  0  0  0  0  0  0  0  0  0  0
  194.3990  175.7290  142.5340 C   0  0  0  0  0  0  0  0  0  0  0  0
  195.8700  175.6660  140.1360 C   0  0  0  0  0  3  0  0  0  0  0  0
  186.8380  176.4640  142.2930 C   0  0  0  0  0  2  0  0  0  0  0  0
  184.6510  177.5410  142.8050 O   0  0  0  0  0  1  0  0  0  0  0  0
  186.2400  178.6660  141.5940 O   0  0  0  0  0  0  0  0  0  0  0  0
  185.9050  177.6250  142.2160 C   0  0  0  0  0  0  0  0  0  0  0  0
  1  8  1  1  0  0  0
  1 11  1  0  0  0  0
  2  7  1  0  0  0  0
  2 12  1  1  0  0  0
  3  4  1  0  0  0  0
  5 16  2  0  0  0  0
  6  5  1  0  0  0  0
  6  3  2  0  0  0  0
  7 12  1  0  0  0  0
  7 13  1  1  0  0  0
  8 17  1  0  0  0  0
  9 15  1  0  0  0  0
  9 14  1  0  0  0  0
 10 16  1  0  0  0  0
 11  8  1  1  0  0  0
 14 10  1  0  0  0  0
 15 27  1  6  0  0  0
 15  1  1  0  0  0  0
 16 19  1  0  0  0  0
 18 10  1  6  0  0  0
 18 11  1  0  0  0  0
 18  2  1  0  0  0  0
 19  4  2  0  0  0  0
 19  7  1  0  0  0  0
 21 25  1  0  0  0  0
 22 21  2  0  0  0  0
 23 24  1  0  0  0  0
 24 25  2  0  0  0  0
 24 20  1  0  0  0  0
 25  6  1  0  0  0  0
 26 22  1  0  0  0  0
 26 23  2  0  0  0  0
 29 30  2  0  0  0  0
 30 27  1  0  0  0  0
 30 28  1  0  0  0  0
M  END
>  <MODEL>
8

>  <REMARK>
 VINA RESULT:      -7.1      3.833      7.172
  Name = 
  3 active torsions:
  status: ('A' for Active; 'I' for Inactive)
    1  A    between atoms: C_10  and  C_25
    2  A    between atoms: C_10  and  C_26
    3  A    between atoms: C_11  and  C_22
                            x       y       z     vdW  Elec       q    Type
                         _______ _______ _______ _____ _____    ______ ____

>  <TORSDO>
F 3

$$$$
=
 OpenBabel11042418293D

 30 35  0  0  1  0  0  0  0  0999 V2000
  187.4120  177.5530  144.6120 C   0  0  1  0  0  3  0  0  0  0  0  0
  189.8070  176.1800  147.3500 C   0  0  1  0  0  3  0  0  0  0  0  0
  194.2300  175.1760  145.1490 C   0  0  0  0  0  3  0  0  0  0  0  0
  193.4130  175.1450  146.2800 C   0  0  0  0  0  3  0  0  0  0  0  0
  192.5560  176.4160  143.9910 N   0  0  0  0  0  0  0  0  0  0  0  0
  193.7760  175.8110  143.9840 C   0  0  0  0  0  0  0  0  0  0  0  0
  191.2700  175.7720  147.4650 C   0  0  1  0  0  0  0  0  0  0  0  0
  186.9440  176.5570  145.5870 N   0  0  0  0  0  0  0  0  0  0  0  0
  189.3210  177.5980  142.9300 C   0  0  0  0  0  2  0  0  0  0  0  0
  190.4600  177.0370  145.0490 N   0  0  0  0  0  0  0  0  0  0  0  0
  188.1130  177.3940  145.9100 C   0  0  1  0  0  3  0  0  0  0  0  0
  190.8410  177.1550  147.9160 C   0  0  0  0  0  2  0  0  0  0  0  0
  191.5660  174.9170  148.5280 O   0  0  0  0  0  1  0  0  0  0  0  0
  190.2200  178.0920  144.0640 C   0  0  0  0  0  2  0  0  0  0  0  0
  188.0810  176.8430  143.4310 C   0  0  2  0  0  3  0  0  0  0  0  0
  191.7360  176.3870  145.0770 C   0  0  0  0  0  0  0  0  0  0  0  0
  185.8030  177.1440  146.2670 C   0  0  0  0  0  1  0  0  0  0  0  0
  189.3750  176.5130  145.9030 C   0  0  2  0  0  3  0  0  0  0  0  0
  192.1520  175.7460  146.2480 C   0  0  0  0  0  0  0  0  0  0  0  0
  192.6320  174.5590  141.2950 Cl  0  0  0  0  0  0  0  0  0  0  0  0
  195.9080  176.4160  142.8650 C   0  0  0  0  0  3  0  0  0  0  0  0
  196.7360  176.5020  141.7450 C   0  0  0  0  0  3  0  0  0  0  0  0
  195.0250  175.4480  140.4030 C   0  0  0  0  0  3  0  0  0  0  0  0
  194.1840  175.3590  141.5180 C   0  0  0  0  0  0  0  0  0  0  0  0
  194.6230  175.8540  142.7710 C   0  0  0  0  0  0  0  0  0  0  0  0
  196.2930  176.0200  140.5130 C   0  0  0  0  0  3  0  0  0  0  0  0
  187.0820  176.6710  142.2970 C   0  0  0  0  0  2  0  0  0  0  0  0
  186.3270  179.0320  142.0510 O   0  0  0  0  0  0  0  0  0  0  0  0
  184.8580  177.4140  142.7440 O   0  0  0  0  0  1  0  0  0  0  0  0
  186.0200  177.7160  142.3690 C   0  0  0  0  0  0  0  0  0  0  0  0
  1  8  1  1  0  0  0
  1 11  1  0  0  0  0
  2  7  1  0  0  0  0
  2 12  1  1  0  0  0
  3  4  1  0  0  0  0
  5 16  2  0  0  0  0
  6  5  1  0  0  0  0
  6  3  2  0  0  0  0
  7 12  1  0  0  0  0
  7 13  1  1  0  0  0
  8 17  1  0  0  0  0
  9 15  1  0  0  0  0
  9 14  1  0  0  0  0
 10 16  1  0  0  0  0
 11  8  1  1  0  0  0
 14 10  1  0  0  0  0
 15 27  1  6  0  0  0
 15  1  1  0  0  0  0
 16 19  1  0  0  0  0
 18 10  1  1  0  0  0
 18 11  1  0  0  0  0
 18  2  1  0  0  0  0
 19  4  2  0  0  0  0
 19  7  1  0  0  0  0
 20 24  1  0  0  0  0
 22 21  2  0  0  0  0
 23 26  2  0  0  0  0
 23 24  1  0  0  0  0
 24 25  2  0  0  0  0
 25 21  1  0  0  0  0
 25  6  1  0  0  0  0
 26 22  1  0  0  0  0
 27 30  1  0  0  0  0
 28 30  2  0  0  0  0
 30 29  1  0  0  0  0
M  END
>  <MODEL>
9

>  <REMARK>
 VINA RESULT:      -7.1      3.815      7.157
  Name = 
  3 active torsions:
  status: ('A' for Active; 'I' for Inactive)
    1  A    between atoms: C_10  and  C_25
    2  A    between atoms: C_10  and  C_26
    3  A    between atoms: C_11  and  C_22
                            x       y       z     vdW  Elec       q    Type
                         _______ _______ _______ _____ _____    ______ ____

>  <TORSDO>
F 3

$$$$
