=
 OpenBabel11042415253D

 51 59  0  0  1  0  0  0  0  0999 V2000
  196.3650  174.8120  142.9580 C   0  0  0  0  0  0  0  0  0  0  0  0
  191.0280  171.5980  139.3950 C   0  0  0  0  0  2  0  0  0  0  0  0
  192.2650  174.2750  145.2440 C   0  0  0  0  0  2  0  0  0  0  0  0
  190.0830  173.9760  144.0590 C   0  0  0  0  0  2  0  0  0  0  0  0
  197.6450  174.6880  140.8990 C   0  0  0  0  0  3  0  0  0  0  0  0
  192.1440  171.7140  138.3640 C   0  0  1  0  0  3  0  0  0  0  0  0
  190.1440  172.6990  137.4450 C   0  0  2  0  0  3  0  0  0  0  0  0
  188.9160  174.6690  143.3250 C   0  0  1  0  0  3  0  0  0  0  0  0
  197.4230  175.2610  142.1580 C   0  0  0  0  0  3  0  0  0  0  0  0
  195.0140  176.5360  144.0350 C   0  0  0  0  0  2  0  0  0  0  0  0
  195.9330  174.7970  145.4480 C   0  0  1  0  0  3  0  0  0  0  0  0
  193.4630  175.1120  145.3490 N   0  0  1  0  0  0  0  0  0  0  0  0
  188.8460  176.0010  145.4540 C   0  0  1  0  0  3  0  0  0  0  0  0
  196.7940  173.6810  140.4260 C   0  0  0  0  0  0  0  0  0  0  0  0
  189.8790  172.4810  138.9290 C   0  0  2  0  0  3  0  0  0  0  0  0
  186.7640  177.2440  145.4280 C   0  0  2  0  0  3  0  0  0  0  0  0
  195.7510  173.2210  141.2380 C   0  0  0  0  0  3  0  0  0  0  0  0
  196.0280  175.5050  144.1700 N   0  0  0  0  0  0  0  0  0  0  0  0
  191.6450  172.6570  137.2800 C   0  0  0  0  0  2  0  0  0  0  0  0
  194.4870  172.2520  138.4190 C   0  0  0  0  0  0  0  0  0  0  0  0
  195.8620  172.5840  138.4380 N   0  0  0  0  0  0  0  0  0  0  0  0
  195.5400  173.7790  142.4950 C   0  0  0  0  0  3  0  0  0  0  0  0
  190.3610  175.9030  145.7170 C   0  0  1  0  0  3  0  0  0  0  0  0
  191.0460  174.9980  144.6760 C   0  0  1  0  0  3  0  0  0  0  0  0
  193.3300  172.2640  138.9980 N   0  0  0  0  0  0  0  0  0  0  0  0
  189.8800  173.7900  139.7190 C   0  0  0  0  0  2  0  0  0  0  0  0
  189.6280  173.9110  136.9790 O   0  0  0  0  0  1  0  0  0  0  0  0
  196.9460  173.1790  139.0980 N   0  0  0  0  0  2  0  0  0  0  0  0
  194.5530  174.1430  145.5500 C   0  0  0  0  0  2  0  0  0  0  0  0
  188.1590  177.2080  146.0420 C   0  0  0  0  0  2  0  0  0  0  0  0
  188.5450  176.0120  143.9720 C   0  0  2  0  0  3  0  0  0  0  0  0
  189.2810  174.8920  141.8640 C   0  0  0  0  0  2  0  0  0  0  0  0
  186.7860  176.4110  143.7970 S   0  0  0  0  0  0  0  0  0  0  0  0
  193.6510  175.8490  144.0840 C   0  0  0  0  0  2  0  0  0  0  0  0
  195.3160  171.9260  137.3190 N   0  0  0  0  0  2  0  0  0  0  0  0
  190.9550  177.1660  145.6810 O   0  0  0  0  0  1  0  0  0  0  0  0
  189.3190  173.5710  141.1130 C   0  0  0  0  0  2  0  0  0  0  0  0
  185.9410  179.0420  144.1280 C   0  0  0  0  0  2  0  0  0  0  0  0
  186.3170  178.6040  145.2720 N   0  0  0  0  0  0  0  0  0  0  0  0
  197.0320  173.7580  145.6250 C   0  0  0  0  0  2  0  0  0  0  0  0
  196.4440  172.4530  146.1370 C   0  0  0  0  0  2  0  0  0  0  0  0
  197.0070  171.2760  145.3590 C   0  0  0  0  0  2  0  0  0  0  0  0
  194.1720  170.1400  143.6240 C   0  0  0  0  0  0  0  0  0  0  0  0
  195.0930  169.9660  142.6990 C   0  0  0  0  0  0  0  0  0  0  0  0
  195.3480  169.2950  140.4410 N   0  0  0  0  0  1  0  0  0  0  0  0
  193.2470  169.3190  141.4540 N   0  0  0  0  0  0  0  0  0  0  0  0
  194.6580  170.6370  144.7630 N   0  0  0  0  0  0  0  0  0  0  0  0
  195.9830  170.7230  144.4250 C   0  0  0  0  0  0  0  0  0  0  0  0
  192.6910  169.7470  142.9890 S   0  0  0  0  0  0  0  0  0  0  0  0
  194.6030  169.5050  141.4740 C   0  0  0  0  0  0  0  0  0  0  0  0
  196.2970  170.3300  143.1500 N   0  0  0  0  0  2  0  0  0  0  0  0
  1 18  1  0  0  0  0
  3 12  1  0  0  0  0
  5  9  1  0  0  0  0
  6 19  1  6  0  0  0
  6 25  1  0  0  0  0
  6  2  1  0  0  0  0
  7 27  1  1  0  0  0
  7 15  1  0  0  0  0
  8 32  1  6  0  0  0
  8 31  1  0  0  0  0
  8  4  1  0  0  0  0
  9  1  2  0  0  0  0
 10 34  1  0  0  0  0
 10 18  1  0  0  0  0
 11 29  1  0  0  0  0
 11 40  1  6  0  0  0
 12 34  1  6  0  0  0
 12 29  1  0  0  0  0
 13 23  1  0  0  0  0
 13 30  1  6  0  0  0
 14  5  2  0  0  0  0
 14 17  1  0  0  0  0
 15  2  1  1  0  0  0
 15 26  1  0  0  0  0
 16 39  1  6  0  0  0
 16 30  1  0  0  0  0
 17 22  2  0  0  0  0
 18 11  1  0  0  0  0
 19  7  1  0  0  0  0
 20 21  1  0  0  0  0
 20 25  2  0  0  0  0
 21 28  1  0  0  0  0
 22  1  1  0  0  0  0
 23 36  1  6  0  0  0
 24  4  1  1  0  0  0
 24  3  1  0  0  0  0
 24 23  1  0  0  0  0
 26 37  1  0  0  0  0
 28 14  1  0  0  0  0
 31 33  1  1  0  0  0
 31 13  1  0  0  0  0
 33 16  1  0  0  0  0
 35 20  1  0  0  0  0
 35 21  1  0  0  0  0
 37 32  1  0  0  0  0
 38 39  2  0  0  0  0
 40 41  1  0  0  0  0
 42 41  1  0  0  0  0
 43 47  1  0  0  0  0
 44 51  1  0  0  0  0
 44 43  2  0  0  0  0
 45 50  1  0  0  0  0
 46 50  2  0  0  0  0
 46 49  1  0  0  0  0
 48 47  2  0  0  0  0
 48 42  1  0  0  0  0
 49 43  1  0  0  0  0
 50 44  1  0  0  0  0
 51 48  1  0  0  0  0
M  END
>  <MODEL>
1

>  <REMARK>
 VINA RESULT:      -8.0      0.000      0.000
  Name = 
  5 active torsions:
  status: ('A' for Active; 'I' for Inactive)
    1  A    between atoms: C_12  and  C_35
    2  A    between atoms: C_15  and  C_35
    3  A    between atoms: C_15  and  C_36
    4  A    between atoms: C_20  and  N_51
    5  A    between atoms: C_34  and  C_36
                            x       y       z     vdW  Elec       q    Type
                         _______ _______ _______ _____ _____    ______ ____

>  <TORSDO>
F 5

$$$$
=
 OpenBabel11042415253D

 51 59  0  0  1  0  0  0  0  0999 V2000
  193.1410  174.6500  144.9130 C   0  0  0  0  0  0  0  0  0  0  0  0
  195.0640  168.2570  142.2780 C   0  0  0  0  0  2  0  0  0  0  0  0
  190.0610  172.4810  142.0600 C   0  0  0  0  0  2  0  0  0  0  0  0
  190.7480  170.7380  140.4030 C   0  0  0  0  0  2  0  0  0  0  0  0
  195.3590  174.7710  145.8930 C   0  0  0  0  0  3  0  0  0  0  0  0
  196.2930  168.7250  143.0470 C   0  0  1  0  0  3  0  0  0  0  0  0
  196.9610  168.1660  140.7990 C   0  0  2  0  0  3  0  0  0  0  0  0
  191.3480  170.4580  139.0100 C   0  0  1  0  0  3  0  0  0  0  0  0
  194.1890  175.4050  145.4550 C   0  0  0  0  0  3  0  0  0  0  0  0
  192.1180  175.5210  142.8760 C   0  0  0  0  0  2  0  0  0  0  0  0
  190.6450  174.9960  144.7250 C   0  0  1  0  0  3  0  0  0  0  0  0
  190.3220  173.8410  142.5410 N   0  0  1  0  0  0  0  0  0  0  0  0
  189.4860  171.9890  138.3000 C   0  0  1  0  0  3  0  0  0  0  0  0
  195.4930  173.3830  145.7690 C   0  0  0  0  0  0  0  0  0  0  0  0
  195.4380  168.2030  140.8040 C   0  0  2  0  0  3  0  0  0  0  0  0
  189.3150  171.8030  135.8880 C   0  0  2  0  0  3  0  0  0  0  0  0
  194.4350  172.6300  145.2480 C   0  0  0  0  0  3  0  0  0  0  0  0
  192.0140  175.3040  144.3080 N   0  0  0  0  0  0  0  0  0  0  0  0
  197.3990  168.9320  142.0250 C   0  0  0  0  0  2  0  0  0  0  0  0
  196.7700  170.4760  144.6250 C   0  0  0  0  0  0  0  0  0  0  0  0
  197.0670  171.5130  145.5410 N   0  0  0  0  0  0  0  0  0  0  0  0
  193.2670  173.2580  144.8260 C   0  0  0  0  0  3  0  0  0  0  0  0
  189.5030  172.8210  139.5960 C   0  0  1  0  0  3  0  0  0  0  0  0
  190.4970  172.2360  140.6180 C   0  0  1  0  0  3  0  0  0  0  0  0
  195.9920  169.9770  143.7200 N   0  0  0  0  0  0  0  0  0  0  0  0
  194.8820  169.4310  140.0840 C   0  0  0  0  0  2  0  0  0  0  0  0
  197.5080  168.7270  139.6420 O   0  0  0  0  0  1  0  0  0  0  0  0
  196.7280  172.7500  146.1070 N   0  0  0  0  0  2  0  0  0  0  0  0
  190.1790  173.7300  144.0020 C   0  0  0  0  0  2  0  0  0  0  0  0
  188.9790  172.7030  137.0720 C   0  0  0  0  0  2  0  0  0  0  0  0
  190.8660  171.4720  137.9600 C   0  0  2  0  0  3  0  0  0  0  0  0
  192.8690  170.4870  139.0840 C   0  0  0  0  0  2  0  0  0  0  0  0
  190.7650  170.7620  136.2960 S   0  0  0  0  0  0  0  0  0  0  0  0
  191.7010  174.2250  142.1830 C   0  0  0  0  0  2  0  0  0  0  0  0
  197.9410  170.4150  145.4190 N   0  0  0  0  0  2  0  0  0  0  0  0
  189.8530  174.1470  139.3310 O   0  0  0  0  0  1  0  0  0  0  0  0
  193.3910  169.2800  139.8450 C   0  0  0  0  0  2  0  0  0  0  0  0
  190.7130  173.2190  134.6060 C   0  0  0  0  0  2  0  0  0  0  0  0
  189.5990  172.5940  134.7190 N   0  0  0  0  0  0  0  0  0  0  0  0
  190.5160  174.8290  146.2330 C   0  0  0  0  0  2  0  0  0  0  0  0
  189.2090  175.4340  146.7190 C   0  0  0  0  0  2  0  0  0  0  0  0
  189.2320  176.9450  146.5620 C   0  0  0  0  0  2  0  0  0  0  0  0
  185.9660  178.0860  145.9580 C   0  0  0  0  0  0  0  0  0  0  0  0
  186.4860  178.2310  144.7560 C   0  0  0  0  0  0  0  0  0  0  0  0
  185.9570  179.0410  142.5940 N   0  0  0  0  0  1  0  0  0  0  0  0
  184.3860  179.1110  144.3160 N   0  0  0  0  0  0  0  0  0  0  0  0
  186.8300  177.5970  146.8490 N   0  0  0  0  0  0  0  0  0  0  0  0
  187.9260  177.4420  146.0410 C   0  0  0  0  0  0  0  0  0  0  0  0
  184.4100  178.6630  145.9430 S   0  0  0  0  0  0  0  0  0  0  0  0
  185.6230  178.8000  143.8170 C   0  0  0  0  0  0  0  0  0  0  0  0
  187.7620  177.8350  144.7390 N   0  0  0  0  0  2  0  0  0  0  0  0
  1  9  1  0  0  0  0
  2  6  1  0  0  0  0
  6 19  1  6  0  0  0
  6 25  1  0  0  0  0
  7 27  1  6  0  0  0
  7 15  1  0  0  0  0
  7 19  1  0  0  0  0
  8 32  1  1  0  0  0
  8  4  1  0  0  0  0
  9  5  2  0  0  0  0
 10 18  1  0  0  0  0
 11 40  1  1  0  0  0
 12  3  1  6  0  0  0
 12 29  1  0  0  0  0
 13 30  1  6  0  0  0
 13 23  1  0  0  0  0
 14  5  1  0  0  0  0
 14 28  1  0  0  0  0
 15 26  1  6  0  0  0
 15  2  1  0  0  0  0
 16 39  1  6  0  0  0
 16 33  1  0  0  0  0
 16 30  1  0  0  0  0
 17 14  2  0  0  0  0
 18 11  1  0  0  0  0
 18  1  1  0  0  0  0
 20 35  1  0  0  0  0
 20 21  1  0  0  0  0
 21 28  1  0  0  0  0
 22  1  2  0  0  0  0
 22 17  1  0  0  0  0
 23 36  1  6  0  0  0
 23 24  1  0  0  0  0
 24  4  1  6  0  0  0
 24  3  1  0  0  0  0
 25 20  2  0  0  0  0
 29 11  1  0  0  0  0
 31 33  1  6  0  0  0
 31 13  1  0  0  0  0
 31  8  1  0  0  0  0
 32 37  1  0  0  0  0
 34 12  1  0  0  0  0
 34 10  1  0  0  0  0
 35 21  1  0  0  0  0
 37 26  1  0  0  0  0
 38 39  2  0  0  0  0
 40 41  1  0  0  0  0
 42 41  1  0  0  0  0
 43 47  1  0  0  0  0
 44 43  2  0  0  0  0
 45 50  1  0  0  0  0
 46 49  1  0  0  0  0
 48 42  1  0  0  0  0
 48 47  2  0  0  0  0
 49 43  1  0  0  0  0
 50 46  2  0  0  0  0
 50 44  1  0  0  0  0
 51 44  1  0  0  0  0
 51 48  1  0  0  0  0
M  END
>  <MODEL>
2

>  <REMARK>
 VINA RESULT:      -7.4      3.039      8.293
  Name = 
  5 active torsions:
  status: ('A' for Active; 'I' for Inactive)
    1  A    between atoms: C_12  and  C_35
    2  A    between atoms: C_15  and  C_35
    3  A    between atoms: C_15  and  C_36
    4  A    between atoms: C_20  and  N_51
    5  A    between atoms: C_34  and  C_36
                            x       y       z     vdW  Elec       q    Type
                         _______ _______ _______ _____ _____    ______ ____

>  <TORSDO>
F 5

$$$$
=
 OpenBabel11042415253D

 51 59  0  0  1  0  0  0  0  0999 V2000
  195.0900  174.6020  142.9140 C   0  0  0  0  0  0  0  0  0  0  0  0
  190.0350  171.6530  138.7580 C   0  0  0  0  0  2  0  0  0  0  0  0
  190.6780  174.5330  144.6060 C   0  0  0  0  0  2  0  0  0  0  0  0
  188.6660  174.3530  143.1330 C   0  0  0  0  0  2  0  0  0  0  0  0
  196.6280  174.2590  141.0680 C   0  0  0  0  0  3  0  0  0  0  0  0
  191.2900  171.6190  137.8950 C   0  0  1  0  0  3  0  0  0  0  0  0
  189.5350  172.7150  136.6560 C   0  0  2  0  0  3  0  0  0  0  0  0
  187.6800  175.0990  142.2090 C   0  0  1  0  0  3  0  0  0  0  0  0
  196.2850  174.9160  142.2570 C   0  0  0  0  0  3  0  0  0  0  0  0
  193.7610  176.4880  143.7110 C   0  0  0  0  0  2  0  0  0  0  0  0
  194.3130  174.7580  145.3140 C   0  0  1  0  0  3  0  0  0  0  0  0
  191.9200  175.2720  144.8480 N   0  0  1  0  0  0  0  0  0  0  0  0
  187.4330  176.5470  144.2480 C   0  0  1  0  0  3  0  0  0  0  0  0
  195.7640  173.3020  140.5210 C   0  0  0  0  0  0  0  0  0  0  0  0
  189.0470  172.6020  138.0940 C   0  0  2  0  0  3  0  0  0  0  0  0
  185.4960  177.9560  143.8690 C   0  0  2  0  0  3  0  0  0  0  0  0
  194.5810  172.9750  141.1930 C   0  0  0  0  0  3  0  0  0  0  0  0
  194.6500  175.3860  144.0350 N   0  0  0  0  0  0  0  0  0  0  0  0
  191.0350  172.5390  136.7110 C   0  0  0  0  0  2  0  0  0  0  0  0
  193.6410  171.9630  138.2650 C   0  0  0  0  0  0  0  0  0  0  0  0
  195.0250  172.1790  138.4670 N   0  0  0  0  0  0  0  0  0  0  0  0
  194.2470  173.6170  142.3810 C   0  0  0  0  0  3  0  0  0  0  0  0
  188.8820  176.3380  144.7300 C   0  0  1  0  0  3  0  0  0  0  0  0
  189.6210  175.3230  143.8380 C   0  0  1  0  0  3  0  0  0  0  0  0
  192.4210  172.1030  138.6700 N   0  0  0  0  0  0  0  0  0  0  0  0
  189.0550  173.9470  138.8210 C   0  0  0  0  0  2  0  0  0  0  0  0
  189.2010  173.9390  136.0710 O   0  0  0  0  0  1  0  0  0  0  0  0
  196.0550  172.7170  139.2510 N   0  0  0  0  0  2  0  0  0  0  0  0
  192.8800  174.2280  145.2440 C   0  0  0  0  0  2  0  0  0  0  0  0
  186.7820  177.8380  144.6790 C   0  0  0  0  0  2  0  0  0  0  0  0
  187.3450  176.5020  142.7390 C   0  0  2  0  0  3  0  0  0  0  0  0
  188.2650  175.2110  140.8080 C   0  0  0  0  0  2  0  0  0  0  0  0
  185.6710  177.0360  142.2960 S   0  0  0  0  0  0  0  0  0  0  0  0
  192.3490  175.9210  143.5920 C   0  0  0  0  0  2  0  0  0  0  0  0
  194.5830  171.5080  137.3100 N   0  0  0  0  0  2  0  0  0  0  0  0
  189.5860  177.5440  144.7270 O   0  0  0  0  0  1  0  0  0  0  0  0
  188.2880  173.8530  140.1270 C   0  0  0  0  0  2  0  0  0  0  0  0
  185.3370  180.2310  144.5040 C   0  0  0  0  0  2  0  0  0  0  0  0
  185.2000  179.3380  143.5940 N   0  0  0  0  0  0  0  0  0  0  0  0
  195.2780  173.6430  145.6910 C   0  0  0  0  0  2  0  0  0  0  0  0
  196.6200  174.2260  146.1050 C   0  0  0  0  0  2  0  0  0  0  0  0
  197.7550  173.4850  145.4180 C   0  0  0  0  0  2  0  0  0  0  0  0
  196.7910  170.5920  143.6760 C   0  0  0  0  0  0  0  0  0  0  0  0
  196.7120  170.1510  144.9150 C   0  0  0  0  0  0  0  0  0  0  0  0
  196.2710  168.1830  146.1580 N   0  0  0  0  0  1  0  0  0  0  0  0
  196.1880  168.1720  143.8270 N   0  0  0  0  0  0  0  0  0  0  0  0
  197.1730  171.8680  143.5950 N   0  0  0  0  0  0  0  0  0  0  0  0
  197.2960  172.1530  144.9300 C   0  0  0  0  0  0  0  0  0  0  0  0
  196.4600  169.3400  142.6390 S   0  0  0  0  0  0  0  0  0  0  0  0
  196.3750  168.8010  145.0290 C   0  0  0  0  0  0  0  0  0  0  0  0
  197.0330  171.1140  145.7840 N   0  0  0  0  0  2  0  0  0  0  0  0
  1 18  1  0  0  0  0
  3 12  1  0  0  0  0
  5  9  1  0  0  0  0
  6 19  1  6  0  0  0
  6 25  1  0  0  0  0
  6  2  1  0  0  0  0
  7 27  1  1  0  0  0
  7 19  1  0  0  0  0
  7 15  1  0  0  0  0
  8 32  1  6  0  0  0
  8 31  1  0  0  0  0
  8  4  1  0  0  0  0
  9  1  2  0  0  0  0
 10 18  1  0  0  0  0
 11 40  1  6  0  0  0
 12 34  1  6  0  0  0
 12 29  1  0  0  0  0
 13 30  1  6  0  0  0
 13 23  1  0  0  0  0
 14  5  2  0  0  0  0
 14 17  1  0  0  0  0
 15  2  1  1  0  0  0
 15 26  1  0  0  0  0
 16 39  1  6  0  0  0
 16 30  1  0  0  0  0
 17 22  2  0  0  0  0
 18 11  1  0  0  0  0
 20 21  1  0  0  0  0
 20 25  2  0  0  0  0
 21 28  1  0  0  0  0
 22  1  1  0  0  0  0
 23 36  1  6  0  0  0
 24  4  1  1  0  0  0
 24  3  1  0  0  0  0
 24 23  1  0  0  0  0
 26 37  1  0  0  0  0
 28 14  1  0  0  0  0
 29 11  1  0  0  0  0
 31 33  1  1  0  0  0
 31 13  1  0  0  0  0
 33 16  1  0  0  0  0
 34 10  1  0  0  0  0
 35 20  1  0  0  0  0
 35 21  1  0  0  0  0
 37 32  1  0  0  0  0
 39 38  2  0  0  0  0
 40 41  1  0  0  0  0
 42 41  1  0  0  0  0
 43 44  2  0  0  0  0
 44 50  1  0  0  0  0
 44 51  1  0  0  0  0
 46 50  2  0  0  0  0
 47 43  1  0  0  0  0
 47 48  2  0  0  0  0
 48 42  1  0  0  0  0
 48 51  1  0  0  0  0
 49 43  1  0  0  0  0
 49 46  1  0  0  0  0
 50 45  1  0  0  0  0
M  END
>  <MODEL>
3

>  <REMARK>
 VINA RESULT:      -7.1      1.616      2.039
  Name = 
  5 active torsions:
  status: ('A' for Active; 'I' for Inactive)
    1  A    between atoms: C_12  and  C_35
    2  A    between atoms: C_15  and  C_35
    3  A    between atoms: C_15  and  C_36
    4  A    between atoms: C_20  and  N_51
    5  A    between atoms: C_34  and  C_36
                            x       y       z     vdW  Elec       q    Type
                         _______ _______ _______ _____ _____    ______ ____

>  <TORSDO>
F 5

$$$$
=
 OpenBabel11042415253D

 51 59  0  0  1  0  0  0  0  0999 V2000
  190.1880  171.8350  139.7590 C   0  0  0  0  0  0  0  0  0  0  0  0
  194.5000  176.3670  143.2780 C   0  0  0  0  0  2  0  0  0  0  0  0
  188.3780  176.0290  140.9710 C   0  0  0  0  0  2  0  0  0  0  0  0
  189.3030  177.4130  142.8370 C   0  0  0  0  0  2  0  0  0  0  0  0
  191.9860  170.2110  139.9060 C   0  0  0  0  0  3  0  0  0  0  0  0
  195.3310  175.0970  143.1400 C   0  0  1  0  0  3  0  0  0  0  0  0
  195.2710  175.7270  145.4660 C   0  0  2  0  0  3  0  0  0  0  0  0
  189.3500  177.6450  144.3620 C   0  0  1  0  0  3  0  0  0  0  0  0
  190.6280  170.5060  139.7260 C   0  0  0  0  0  3  0  0  0  0  0  0
  188.1670  172.2770  141.0530 C   0  0  0  0  0  2  0  0  0  0  0  0
  188.2120  173.0540  138.7600 C   0  0  1  0  0  3  0  0  0  0  0  0
  187.8830  174.7000  140.6010 N   0  0  1  0  0  0  0  0  0  0  0  0
  186.8560  177.7150  144.0620 C   0  0  1  0  0  3  0  0  0  0  0  0
  192.9030  171.2410  140.1420 C   0  0  0  0  0  0  0  0  0  0  0  0
  194.2220  176.5740  144.7600 C   0  0  2  0  0  3  0  0  0  0  0  0
  185.9320  178.5800  146.1300 C   0  0  2  0  0  3  0  0  0  0  0  0
  192.4620  172.5700  140.1520 C   0  0  0  0  0  3  0  0  0  0  0  0
  188.7830  172.1340  139.7460 N   0  0  0  0  0  0  0  0  0  0  0  0
  195.5560  174.5630  144.5460 C   0  0  0  0  0  2  0  0  0  0  0  0
  195.1570  173.0560  141.8790 C   0  0  0  0  0  0  0  0  0  0  0  0
  195.0560  171.8450  141.1560 N   0  0  0  0  0  0  0  0  0  0  0  0
  191.1160  172.8650  139.9590 C   0  0  0  0  0  3  0  0  0  0  0  0
  186.8410  176.7230  142.8820 C   0  0  1  0  0  3  0  0  0  0  0  0
  188.2730  176.3410  142.4620 C   0  0  1  0  0  3  0  0  0  0  0  0
  194.5970  174.1250  142.3470 N   0  0  0  0  0  0  0  0  0  0  0  0
  192.7960  176.1280  145.0850 C   0  0  0  0  0  2  0  0  0  0  0  0
  194.8440  175.2760  146.7180 O   0  0  0  0  0  1  0  0  0  0  0  0
  194.2650  170.9340  140.4410 N   0  0  0  0  0  2  0  0  0  0  0  0
  188.4170  174.4910  139.2450 C   0  0  0  0  0  2  0  0  0  0  0  0
  185.5930  177.7690  144.8840 C   0  0  0  0  0  2  0  0  0  0  0  0
  187.9840  177.4080  145.0230 C   0  0  2  0  0  3  0  0  0  0  0  0
  190.3870  176.7270  144.9950 C   0  0  0  0  0  2  0  0  0  0  0  0
  187.7240  178.4460  146.4840 S   0  0  0  0  0  0  0  0  0  0  0  0
  188.4350  173.7000  141.5360 C   0  0  0  0  0  2  0  0  0  0  0  0
  196.2910  172.2240  141.7180 N   0  0  0  0  0  2  0  0  0  0  0  0
  186.1410  175.5620  143.2170 O   0  0  0  0  0  1  0  0  0  0  0  0
  191.7930  177.1660  144.6170 C   0  0  0  0  0  2  0  0  0  0  0  0
  185.7330  177.3830  148.1630 C   0  0  0  0  0  2  0  0  0  0  0  0
  185.1770  178.1050  147.2600 N   0  0  0  0  0  0  0  0  0  0  0  0
  188.8090  172.8680  137.3720 C   0  0  0  0  0  2  0  0  0  0  0  0
  189.4520  174.1610  136.8980 C   0  0  0  0  0  2  0  0  0  0  0  0
  190.4590  173.8800  135.7950 C   0  0  0  0  0  2  0  0  0  0  0  0
  193.5820  174.4230  137.3070 C   0  0  0  0  0  0  0  0  0  0  0  0
  193.7280  173.1710  136.9230 C   0  0  0  0  0  0  0  0  0  0  0  0
  195.2530  171.3620  137.0360 N   0  0  0  0  0  1  0  0  0  0  0  0
  195.7590  173.4190  138.0110 N   0  0  0  0  0  0  0  0  0  0  0  0
  192.3950  174.9370  136.9850 N   0  0  0  0  0  0  0  0  0  0  0  0
  191.8470  173.8590  136.3420 C   0  0  0  0  0  0  0  0  0  0  0  0
  194.9340  174.8850  138.1510 S   0  0  0  0  0  0  0  0  0  0  0  0
  194.9370  172.5860  137.3020 C   0  0  0  0  0  0  0  0  0  0  0  0
  192.6320  172.7370  136.2910 N   0  0  0  0  0  2  0  0  0  0  0  0
  1 22  1  0  0  0  0
  5 14  2  0  0  0  0
  6  2  1  1  0  0  0
  6 19  1  0  0  0  0
  7 27  1  1  0  0  0
  8  4  1  6  0  0  0
  8 32  1  0  0  0  0
  8 31  1  0  0  0  0
  9  1  2  0  0  0  0
  9  5  1  0  0  0  0
 10 34  1  0  0  0  0
 11 40  1  6  0  0  0
 11 29  1  0  0  0  0
 11 18  1  0  0  0  0
 12 29  1  6  0  0  0
 12  3  1  0  0  0  0
 12 34  1  0  0  0  0
 13 30  1  1  0  0  0
 13 31  1  0  0  0  0
 14 17  1  0  0  0  0
 14 28  1  0  0  0  0
 15  2  1  6  0  0  0
 15 26  1  0  0  0  0
 15  7  1  0  0  0  0
 16 33  1  0  0  0  0
 16 39  1  1  0  0  0
 18  1  1  0  0  0  0
 18 10  1  0  0  0  0
 19  7  1  0  0  0  0
 20 25  2  0  0  0  0
 21 35  1  0  0  0  0
 21 20  1  0  0  0  0
 22 17  2  0  0  0  0
 23 36  1  1  0  0  0
 23 13  1  0  0  0  0
 24  3  1  6  0  0  0
 24  4  1  0  0  0  0
 24 23  1  0  0  0  0
 25  6  1  0  0  0  0
 28 21  1  0  0  0  0
 30 16  1  0  0  0  0
 31 33  1  1  0  0  0
 35 20  1  0  0  0  0
 37 32  1  0  0  0  0
 37 26  1  0  0  0  0
 39 38  2  0  0  0  0
 41 40  1  0  0  0  0
 42 48  1  0  0  0  0
 42 41  1  0  0  0  0
 43 49  1  0  0  0  0
 44 50  1  0  0  0  0
 44 43  2  0  0  0  0
 45 50  1  0  0  0  0
 46 49  1  0  0  0  0
 47 43  1  0  0  0  0
 48 47  2  0  0  0  0
 50 46  2  0  0  0  0
 51 48  1  0  0  0  0
 51 44  1  0  0  0  0
M  END
>  <MODEL>
4

>  <REMARK>
 VINA RESULT:      -6.7      2.612      6.835
  Name = 
  5 active torsions:
  status: ('A' for Active; 'I' for Inactive)
    1  A    between atoms: C_12  and  C_35
    2  A    between atoms: C_15  and  C_35
    3  A    between atoms: C_15  and  C_36
    4  A    between atoms: C_20  and  N_51
    5  A    between atoms: C_34  and  C_36
                            x       y       z     vdW  Elec       q    Type
                         _______ _______ _______ _____ _____    ______ ____

>  <TORSDO>
F 5

$$$$
=
 OpenBabel11042415253D

 51 59  0  0  1  0  0  0  0  0999 V2000
  189.1710  174.3390  142.9620 C   0  0  0  0  0  0  0  0  0  0  0  0
  194.1970  173.4690  137.9130 C   0  0  0  0  0  2  0  0  0  0  0  0
  193.6720  174.2420  144.3970 C   0  0  0  0  0  2  0  0  0  0  0  0
  195.4950  173.1680  143.0640 C   0  0  0  0  0  2  0  0  0  0  0  0
  187.5290  174.0310  141.2010 C   0  0  0  0  0  3  0  0  0  0  0  0
  192.8830  173.3450  137.1520 C   0  0  1  0  0  3  0  0  0  0  0  0
  194.2260  171.3970  136.6890 C   0  0  2  0  0  3  0  0  0  0  0  0
  196.1970  171.8490  142.6790 C   0  0  1  0  0  3  0  0  0  0  0  0
  187.8680  174.0190  142.5600 C   0  0  0  0  0  3  0  0  0  0  0  0
  190.1760  172.8820  144.6420 C   0  0  0  0  0  2  0  0  0  0  0  0
  190.1730  175.2620  145.0910 C   0  0  1  0  0  3  0  0  0  0  0  0
  192.3430  174.0440  144.9820 N   0  0  1  0  0  0  0  0  0  0  0  0
  196.3830  171.6420  145.1760 C   0  0  1  0  0  3  0  0  0  0  0  0
  188.4970  174.3400  140.2390 C   0  0  0  0  0  0  0  0  0  0  0  0
  194.8910  172.1160  137.8560 C   0  0  2  0  0  3  0  0  0  0  0  0
  197.9410  169.8360  145.6100 C   0  0  2  0  0  3  0  0  0  0  0  0
  189.7930  174.6810  140.6460 C   0  0  0  0  0  3  0  0  0  0  0  0
  189.5710  174.1650  144.3310 N   0  0  0  0  0  0  0  0  0  0  0  0
  192.8100  171.9180  136.6320 C   0  0  0  0  0  2  0  0  0  0  0  0
  190.5700  173.7960  137.6310 C   0  0  0  0  0  0  0  0  0  0  0  0
  189.2040  174.0420  137.9070 N   0  0  0  0  0  0  0  0  0  0  0  0
  190.1260  174.6840  141.9970 C   0  0  0  0  0  3  0  0  0  0  0  0
  195.0720  172.3990  145.4650 C   0  0  1  0  0  3  0  0  0  0  0  0
  194.4520  172.9510  144.1670 C   0  0  1  0  0  3  0  0  0  0  0  0
  191.7760  173.6060  138.0570 N   0  0  0  0  0  0  0  0  0  0  0  0
  194.6970  171.3800  139.1810 C   0  0  0  0  0  2  0  0  0  0  0  0
  194.2380  170.0070  136.8380 O   0  0  0  0  0  1  0  0  0  0  0  0
  188.1850  174.2390  138.8490 N   0  0  0  0  0  2  0  0  0  0  0  0
  191.6660  175.3320  144.7630 C   0  0  0  0  0  2  0  0  0  0  0  0
  196.8070  170.6470  146.2270 C   0  0  0  0  0  2  0  0  0  0  0  0
  196.3030  170.8850  143.8700 C   0  0  2  0  0  3  0  0  0  0  0  0
  195.4430  171.1720  141.5420 C   0  0  0  0  0  2  0  0  0  0  0  0
  197.7720  169.8280  143.7860 S   0  0  0  0  0  0  0  0  0  0  0  0
  191.6510  172.9620  144.2530 C   0  0  0  0  0  2  0  0  0  0  0  0
  189.6340  173.9000  136.5730 N   0  0  0  0  0  2  0  0  0  0  0  0
  194.1440  171.5640  146.0920 O   0  0  0  0  0  1  0  0  0  0  0  0
  195.6140  171.9500  140.2480 C   0  0  0  0  0  2  0  0  0  0  0  0
  197.2050  168.1710  147.1230 C   0  0  0  0  0  2  0  0  0  0  0  0
  197.9190  168.4840  146.1050 N   0  0  0  0  0  0  0  0  0  0  0  0
  189.5020  176.6010  144.8170 C   0  0  0  0  0  2  0  0  0  0  0  0
  190.5420  177.6450  144.4440 C   0  0  0  0  0  2  0  0  0  0  0  0
  190.1200  178.3910  143.1900 C   0  0  0  0  0  2  0  0  0  0  0  0
  186.6380  177.9370  143.1160 C   0  0  0  0  0  0  0  0  0  0  0  0
  186.9110  177.8310  141.8320 C   0  0  0  0  0  0  0  0  0  0  0  0
  185.8540  177.5650  139.7280 N   0  0  0  0  0  1  0  0  0  0  0  0
  184.6040  177.6460  141.6950 N   0  0  0  0  0  0  0  0  0  0  0  0
  187.7190  178.1540  143.8670 N   0  0  0  0  0  0  0  0  0  0  0  0
  188.6790  178.1460  142.8900 C   0  0  0  0  0  0  0  0  0  0  0  0
  184.9940  177.8450  143.3250 S   0  0  0  0  0  0  0  0  0  0  0  0
  185.7910  177.6660  141.0140 C   0  0  0  0  0  0  0  0  0  0  0  0
  188.2230  177.9620  141.6120 N   0  0  0  0  0  2  0  0  0  0  0  0
  1 18  1  0  0  0  0
  3 12  1  0  0  0  0
  5  9  2  0  0  0  0
  6 19  1  1  0  0  0
  6  2  1  0  0  0  0
  6 25  1  0  0  0  0
  7 27  1  1  0  0  0
  7 15  1  0  0  0  0
  8 32  1  6  0  0  0
  8  4  1  0  0  0  0
  8 31  1  0  0  0  0
  9  1  1  0  0  0  0
 11 40  1  6  0  0  0
 12 34  1  6  0  0  0
 13 23  1  0  0  0  0
 13 30  1  1  0  0  0
 14 17  2  0  0  0  0
 14  5  1  0  0  0  0
 15  2  1  1  0  0  0
 15 26  1  0  0  0  0
 16 39  1  1  0  0  0
 16 30  1  0  0  0  0
 17 22  1  0  0  0  0
 18 10  1  0  0  0  0
 18 11  1  0  0  0  0
 19  7  1  0  0  0  0
 20 21  1  0  0  0  0
 20 25  2  0  0  0  0
 21 28  1  0  0  0  0
 22  1  2  0  0  0  0
 23 36  1  6  0  0  0
 24  4  1  6  0  0  0
 24  3  1  0  0  0  0
 24 23  1  0  0  0  0
 26 37  1  0  0  0  0
 28 14  1  0  0  0  0
 29 12  1  0  0  0  0
 29 11  1  0  0  0  0
 31 33  1  6  0  0  0
 31 13  1  0  0  0  0
 33 16  1  0  0  0  0
 34 10  1  0  0  0  0
 35 20  1  0  0  0  0
 35 21  1  0  0  0  0
 37 32  1  0  0  0  0
 39 38  2  0  0  0  0
 41 40  1  0  0  0  0
 42 41  1  0  0  0  0
 43 49  1  0  0  0  0
 43 47  1  0  0  0  0
 44 43  2  0  0  0  0
 45 50  1  0  0  0  0
 46 49  1  0  0  0  0
 48 42  1  0  0  0  0
 48 47  2  0  0  0  0
 50 46  2  0  0  0  0
 50 44  1  0  0  0  0
 51 44  1  0  0  0  0
 51 48  1  0  0  0  0
M  END
>  <MODEL>
5

>  <REMARK>
 VINA RESULT:      -6.2      2.850      8.444
  Name = 
  5 active torsions:
  status: ('A' for Active; 'I' for Inactive)
    1  A    between atoms: C_12  and  C_35
    2  A    between atoms: C_15  and  C_35
    3  A    between atoms: C_15  and  C_36
    4  A    between atoms: C_20  and  N_51
    5  A    between atoms: C_34  and  C_36
                            x       y       z     vdW  Elec       q    Type
                         _______ _______ _______ _____ _____    ______ ____

>  <TORSDO>
F 5

$$$$
=
 OpenBabel11042415253D

 51 59  0  0  1  0  0  0  0  0999 V2000
  191.7910  170.3160  139.8200 C   0  0  0  0  0  0  0  0  0  0  0  0
  196.4520  174.6350  143.1580 C   0  0  0  0  0  2  0  0  0  0  0  0
  190.2800  174.6450  140.9640 C   0  0  0  0  0  2  0  0  0  0  0  0
  191.3260  176.0080  142.7800 C   0  0  0  0  0  2  0  0  0  0  0  0
  193.4820  168.5820  139.9750 C   0  0  0  0  0  3  0  0  0  0  0  0
  197.1960  173.3120  143.0360 C   0  0  1  0  0  3  0  0  0  0  0  0
  197.2200  173.9960  145.3480 C   0  0  2  0  0  3  0  0  0  0  0  0
  191.4160  176.2710  144.2980 C   0  0  1  0  0  3  0  0  0  0  0  0
  192.1440  168.9610  139.8120 C   0  0  0  0  0  3  0  0  0  0  0  0
  189.8270  170.9170  141.1380 C   0  0  0  0  0  2  0  0  0  0  0  0
  189.8800  171.6380  138.8270 C   0  0  1  0  0  3  0  0  0  0  0  0
  189.6920  173.3440  140.6330 N   0  0  1  0  0  0  0  0  0  0  0  0
  188.9270  176.4960  144.0390 C   0  0  1  0  0  3  0  0  0  0  0  0
  194.4690  169.5560  140.1720 C   0  0  0  0  0  0  0  0  0  0  0  0
  196.2150  174.8940  144.6390 C   0  0  2  0  0  3  0  0  0  0  0  0
  188.0990  177.4660  146.1010 C   0  0  2  0  0  3  0  0  0  0  0  0
  194.1150  170.9100  140.1580 C   0  0  0  0  0  3  0  0  0  0  0  0
  190.4080  170.7060  139.8240 N   0  0  0  0  0  0  0  0  0  0  0  0
  197.4110  172.7960  144.4510 C   0  0  0  0  0  2  0  0  0  0  0  0
  196.8670  171.2580  141.8270 C   0  0  0  0  0  0  0  0  0  0  0  0
  196.6740  170.0400  141.1340 N   0  0  0  0  0  0  0  0  0  0  0  0
  192.7880  171.2880  139.9810 C   0  0  0  0  0  3  0  0  0  0  0  0
  188.8260  175.4810  142.8830 C   0  0  1  0  0  3  0  0  0  0  0  0
  190.2220  174.9970  142.4480 C   0  0  1  0  0  3  0  0  0  0  0  0
  196.3870  172.3720  142.2790 N   0  0  0  0  0  0  0  0  0  0  0  0
  194.7700  174.5490  144.9980 C   0  0  0  0  0  2  0  0  0  0  0  0
  196.7870  173.6020  146.6170 O   0  0  0  0  0  1  0  0  0  0  0  0
  195.8140  169.1670  140.4550 N   0  0  0  0  0  2  0  0  0  0  0  0
  190.1870  173.0690  139.2740 C   0  0  0  0  0  2  0  0  0  0  0  0
  187.6850  176.6510  144.8810 C   0  0  0  0  0  2  0  0  0  0  0  0
  190.0500  176.1380  144.9870 C   0  0  2  0  0  3  0  0  0  0  0  0
  192.4030  175.3020  144.9350 C   0  0  0  0  0  2  0  0  0  0  0  0
  189.8840  177.2240  146.4280 S   0  0  0  0  0  0  0  0  0  0  0  0
  190.1960  172.3310  141.5830 C   0  0  0  0  0  2  0  0  0  0  0  0
  197.9410  170.3500  141.6660 N   0  0  0  0  0  2  0  0  0  0  0  0
  188.0590  174.3760  143.2570 O   0  0  0  0  0  1  0  0  0  0  0  0
  193.8270  175.6390  144.5230 C   0  0  0  0  0  2  0  0  0  0  0  0
  186.0580  177.1790  147.2660 C   0  0  0  0  0  2  0  0  0  0  0  0
  187.3350  177.0670  147.2550 N   0  0  0  0  0  0  0  0  0  0  0  0
  190.4380  171.3820  137.4330 C   0  0  0  0  0  2  0  0  0  0  0  0
  190.6400  172.6970  136.6980 C   0  0  0  0  0  2  0  0  0  0  0  0
  191.9620  172.6900  135.9500 C   0  0  0  0  0  2  0  0  0  0  0  0
  194.0920  174.3640  138.1860 C   0  0  0  0  0  0  0  0  0  0  0  0
  194.8870  173.3880  137.7990 C   0  0  0  0  0  0  0  0  0  0  0  0
  197.0360  172.4770  138.2050 N   0  0  0  0  0  1  0  0  0  0  0  0
  196.3010  174.3700  139.3520 N   0  0  0  0  0  0  0  0  0  0  0  0
  192.8900  174.3240  137.6090 N   0  0  0  0  0  0  0  0  0  0  0  0
  193.0580  173.2220  136.8120 C   0  0  0  0  0  0  0  0  0  0  0  0
  194.8680  175.2610  139.3470 S   0  0  0  0  0  0  0  0  0  0  0  0
  196.1300  173.3680  138.4350 C   0  0  0  0  0  0  0  0  0  0  0  0
  194.2760  172.6020  136.9080 N   0  0  0  0  0  2  0  0  0  0  0  0
  1 18  1  0  0  0  0
  1 22  1  0  0  0  0
  5 14  2  0  0  0  0
  6  2  1  1  0  0  0
  6 19  1  0  0  0  0
  7 27  1  1  0  0  0
  8  4  1  6  0  0  0
  8 32  1  0  0  0  0
  8 31  1  0  0  0  0
  9  1  2  0  0  0  0
  9  5  1  0  0  0  0
 10 34  1  0  0  0  0
 11 40  1  6  0  0  0
 11 29  1  0  0  0  0
 11 18  1  0  0  0  0
 12 29  1  6  0  0  0
 12  3  1  0  0  0  0
 12 34  1  0  0  0  0
 13 30  1  1  0  0  0
 13 31  1  0  0  0  0
 14 28  1  0  0  0  0
 15  2  1  6  0  0  0
 15 26  1  0  0  0  0
 15  7  1  0  0  0  0
 16 33  1  0  0  0  0
 16 39  1  1  0  0  0
 17 14  1  0  0  0  0
 18 10  1  0  0  0  0
 19  7  1  0  0  0  0
 20 25  2  0  0  0  0
 21 35  1  0  0  0  0
 21 20  1  0  0  0  0
 22 17  2  0  0  0  0
 23 36  1  1  0  0  0
 23 13  1  0  0  0  0
 24  3  1  6  0  0  0
 24  4  1  0  0  0  0
 24 23  1  0  0  0  0
 25  6  1  0  0  0  0
 28 21  1  0  0  0  0
 30 16  1  0  0  0  0
 31 33  1  1  0  0  0
 35 20  1  0  0  0  0
 37 32  1  0  0  0  0
 37 26  1  0  0  0  0
 39 38  2  0  0  0  0
 41 40  1  0  0  0  0
 42 41  1  0  0  0  0
 42 48  1  0  0  0  0
 43 49  1  0  0  0  0
 44 43  2  0  0  0  0
 44 50  1  0  0  0  0
 45 50  1  0  0  0  0
 47 43  1  0  0  0  0
 48 51  1  0  0  0  0
 48 47  2  0  0  0  0
 49 46  1  0  0  0  0
 50 46  2  0  0  0  0
 51 44  1  0  0  0  0
M  END
>  <MODEL>
6

>  <REMARK>
 VINA RESULT:      -6.1      2.434      6.581
  Name = 
  5 active torsions:
  status: ('A' for Active; 'I' for Inactive)
    1  A    between atoms: C_12  and  C_35
    2  A    between atoms: C_15  and  C_35
    3  A    between atoms: C_15  and  C_36
    4  A    between atoms: C_20  and  N_51
    5  A    between atoms: C_34  and  C_36
                            x       y       z     vdW  Elec       q    Type
                         _______ _______ _______ _____ _____    ______ ____

>  <TORSDO>
F 5

$$$$
=
 OpenBabel11042415253D

 51 59  0  0  1  0  0  0  0  0999 V2000
  191.8760  170.4430  139.7530 C   0  0  0  0  0  0  0  0  0  0  0  0
  195.3020  175.7320  143.1900 C   0  0  0  0  0  2  0  0  0  0  0  0
  189.5340  174.5050  140.3380 C   0  0  0  0  0  2  0  0  0  0  0  0
  190.1050  176.1510  142.1320 C   0  0  0  0  0  2  0  0  0  0  0  0
  193.8010  169.0480  140.2450 C   0  0  0  0  0  3  0  0  0  0  0  0
  196.2660  174.5550  143.2670 C   0  0  1  0  0  3  0  0  0  0  0  0
  195.8900  175.3870  145.4980 C   0  0  2  0  0  3  0  0  0  0  0  0
  189.9630  176.5280  143.6210 C   0  0  1  0  0  3  0  0  0  0  0  0
  192.4480  169.1740  139.9020 C   0  0  0  0  0  3  0  0  0  0  0  0
  189.6920  170.7770  140.7890 C   0  0  0  0  0  2  0  0  0  0  0  0
  189.9090  171.3380  138.4430 C   0  0  1  0  0  3  0  0  0  0  0  0
  189.2170  173.1020  140.0610 N   0  0  1  0  0  0  0  0  0  0  0  0
  187.5220  176.2920  143.0720 C   0  0  1  0  0  3  0  0  0  0  0  0
  194.5790  170.1920  140.4620 C   0  0  0  0  0  0  0  0  0  0  0  0
  194.8440  176.0440  144.6070 C   0  0  2  0  0  3  0  0  0  0  0  0
  186.2950  177.2390  144.9370 C   0  0  2  0  0  3  0  0  0  0  0  0
  194.0090  171.4590  140.2900 C   0  0  0  0  0  3  0  0  0  0  0  0
  190.4580  170.5830  139.5700 N   0  0  0  0  0  0  0  0  0  0  0  0
  196.3890  174.1820  144.7360 C   0  0  0  0  0  2  0  0  0  0  0  0
  196.4360  172.3980  142.2150 C   0  0  0  0  0  0  0  0  0  0  0  0
  196.5370  171.1210  141.6150 N   0  0  0  0  0  0  0  0  0  0  0  0
  192.6690  171.5840  139.9360 C   0  0  0  0  0  3  0  0  0  0  0  0
  187.7350  175.2000  142.0060 C   0  0  1  0  0  3  0  0  0  0  0  0
  189.2360  174.9410  141.7700 C   0  0  1  0  0  3  0  0  0  0  0  0
  195.7250  173.4380  142.5110 N   0  0  0  0  0  0  0  0  0  0  0  0
  193.4440  175.4740  144.8340 C   0  0  0  0  0  2  0  0  0  0  0  0
  195.3760  175.0100  146.7420 O   0  0  0  0  0  1  0  0  0  0  0  0
  195.9250  170.0660  140.9240 N   0  0  0  0  0  2  0  0  0  0  0  0
  189.9140  172.8270  138.7940 C   0  0  0  0  0  2  0  0  0  0  0  0
  186.1770  176.2830  143.7550 C   0  0  0  0  0  2  0  0  0  0  0  0
  188.5630  176.2030  144.1650 C   0  0  2  0  0  3  0  0  0  0  0  0
  191.0110  175.7930  144.4460 C   0  0  0  0  0  2  0  0  0  0  0  0
  188.0420  177.3380  145.4780 S   0  0  0  0  0  0  0  0  0  0  0  0
  189.7610  172.2600  141.1450 C   0  0  0  0  0  2  0  0  0  0  0  0
  197.6590  171.6850  142.2530 N   0  0  0  0  0  2  0  0  0  0  0  0
  187.1230  174.0050  142.3890 O   0  0  0  0  0  1  0  0  0  0  0  0
  192.3980  176.3470  144.1650 C   0  0  0  0  0  2  0  0  0  0  0  0
  184.6400  177.5870  146.5930 C   0  0  0  0  0  2  0  0  0  0  0  0
  185.4730  176.7900  146.0300 N   0  0  0  0  0  0  0  0  0  0  0  0
  190.6690  171.0900  137.1470 C   0  0  0  0  0  2  0  0  0  0  0  0
  189.6960  170.9030  135.9940 C   0  0  0  0  0  2  0  0  0  0  0  0
  190.2800  171.4670  134.7100 C   0  0  0  0  0  2  0  0  0  0  0  0
  190.8860  174.9260  134.6530 C   0  0  0  0  0  0  0  0  0  0  0  0
  189.5730  174.9250  134.7580 C   0  0  0  0  0  0  0  0  0  0  0  0
  187.7160  176.3950  134.8020 N   0  0  0  0  0  1  0  0  0  0  0  0
  189.8900  177.2170  134.6020 N   0  0  0  0  0  0  0  0  0  0  0  0
  191.4120  173.7010  134.6180 N   0  0  0  0  0  0  0  0  0  0  0  0
  190.2670  172.9590  134.7350 C   0  0  0  0  0  0  0  0  0  0  0  0
  191.4130  176.4940  134.5130 S   0  0  0  0  0  0  0  0  0  0  0  0
  188.9900  176.1940  134.7330 C   0  0  0  0  0  0  0  0  0  0  0  0
  189.1010  173.6760  134.8110 N   0  0  0  0  0  2  0  0  0  0  0  0
  1  9  2  0  0  0  0
  1 22  1  0  0  0  0
  5 14  2  0  0  0  0
  6  2  1  1  0  0  0
  6 19  1  0  0  0  0
  7 27  1  1  0  0  0
  8  4  1  6  0  0  0
  8 31  1  0  0  0  0
  8 32  1  0  0  0  0
  9  5  1  0  0  0  0
 10 34  1  0  0  0  0
 11 40  1  6  0  0  0
 11 29  1  0  0  0  0
 11 18  1  0  0  0  0
 12 29  1  6  0  0  0
 12  3  1  0  0  0  0
 12 34  1  0  0  0  0
 13 30  1  1  0  0  0
 13 31  1  0  0  0  0
 14 28  1  0  0  0  0
 15  2  1  6  0  0  0
 15 26  1  0  0  0  0
 15  7  1  0  0  0  0
 16 33  1  0  0  0  0
 16 39  1  1  0  0  0
 17 14  1  0  0  0  0
 18  1  1  0  0  0  0
 18 10  1  0  0  0  0
 19  7  1  0  0  0  0
 20 35  1  0  0  0  0
 20 25  2  0  0  0  0
 21 20  1  0  0  0  0
 21 35  1  0  0  0  0
 22 17  2  0  0  0  0
 23 36  1  1  0  0  0
 23 13  1  0  0  0  0
 24  3  1  6  0  0  0
 24 23  1  0  0  0  0
 24  4  1  0  0  0  0
 25  6  1  0  0  0  0
 28 21  1  0  0  0  0
 30 16  1  0  0  0  0
 31 33  1  1  0  0  0
 37 32  1  0  0  0  0
 37 26  1  0  0  0  0
 39 38  2  0  0  0  0
 41 40  1  0  0  0  0
 42 48  1  0  0  0  0
 42 41  1  0  0  0  0
 43 44  2  0  0  0  0
 44 51  1  0  0  0  0
 46 50  2  0  0  0  0
 47 43  1  0  0  0  0
 47 48  2  0  0  0  0
 48 51  1  0  0  0  0
 49 46  1  0  0  0  0
 49 43  1  0  0  0  0
 50 44  1  0  0  0  0
 50 45  1  0  0  0  0
M  END
>  <MODEL>
7

>  <REMARK>
 VINA RESULT:      -5.6      3.247      7.626
  Name = 
  5 active torsions:
  status: ('A' for Active; 'I' for Inactive)
    1  A    between atoms: C_12  and  C_35
    2  A    between atoms: C_15  and  C_35
    3  A    between atoms: C_15  and  C_36
    4  A    between atoms: C_20  and  N_51
    5  A    between atoms: C_34  and  C_36
                            x       y       z     vdW  Elec       q    Type
                         _______ _______ _______ _____ _____    ______ ____

>  <TORSDO>
F 5

$$$$
=
 OpenBabel11042415253D

 51 59  0  0  1  0  0  0  0  0999 V2000
  189.8930  171.0280  138.5710 C   0  0  0  0  0  0  0  0  0  0  0  0
  195.0450  172.2430  143.4190 C   0  0  0  0  0  2  0  0  0  0  0  0
  189.7450  175.1440  140.8880 C   0  0  0  0  0  2  0  0  0  0  0  0
  190.8390  175.4860  143.1100 C   0  0  0  0  0  2  0  0  0  0  0  0
  190.8440  168.8100  138.3040 C   0  0  0  0  0  3  0  0  0  0  0  0
  195.3100  170.8190  142.9470 C   0  0  1  0  0  3  0  0  0  0  0  0
  195.1420  170.8130  145.3520 C   0  0  2  0  0  3  0  0  0  0  0  0
  190.7350  175.2880  144.6370 C   0  0  1  0  0  3  0  0  0  0  0  0
  189.7650  169.6930  138.1680 C   0  0  0  0  0  3  0  0  0  0  0  0
  188.0410  171.9530  139.8630 C   0  0  0  0  0  2  0  0  0  0  0  0
  188.7530  173.1810  137.9000 C   0  0  1  0  0  3  0  0  0  0  0  0
  188.8240  174.2940  140.1280 N   0  0  1  0  0  0  0  0  0  0  0  0
  188.5570  176.4900  144.2780 C   0  0  1  0  0  3  0  0  0  0  0  0
  192.0480  169.2540  138.8650 C   0  0  0  0  0  0  0  0  0  0  0  0
  194.6440  172.1740  144.8850 C   0  0  2  0  0  3  0  0  0  0  0  0
  187.7430  177.1220  146.4730 C   0  0  2  0  0  3  0  0  0  0  0  0
  192.1790  170.5950  139.2460 C   0  0  0  0  0  3  0  0  0  0  0  0
  188.7460  171.8920  138.5940 N   0  0  0  0  0  0  0  0  0  0  0  0
  195.0780  169.9090  144.1430 C   0  0  0  0  0  2  0  0  0  0  0  0
  194.5350  169.4340  141.1390 C   0  0  0  0  0  0  0  0  0  0  0  0
  194.0740  168.6050  140.0900 N   0  0  0  0  0  0  0  0  0  0  0  0
  191.1120  171.4750  139.0980 C   0  0  0  0  0  3  0  0  0  0  0  0
  188.3330  175.9290  142.8600 C   0  0  1  0  0  3  0  0  0  0  0  0
  189.5400  175.0890  142.4000 C   0  0  1  0  0  3  0  0  0  0  0  0
  194.3840  170.4860  141.8770 N   0  0  0  0  0  0  0  0  0  0  0  0
  193.1270  172.3150  145.0120 C   0  0  0  0  0  2  0  0  0  0  0  0
  194.3780  170.2920  146.4000 O   0  0  0  0  0  1  0  0  0  0  0  0
  193.1080  168.3300  139.1120 N   0  0  0  0  0  2  0  0  0  0  0  0
  189.4360  174.2200  138.7910 C   0  0  0  0  0  2  0  0  0  0  0  0
  187.3090  176.8730  145.0320 C   0  0  0  0  0  2  0  0  0  0  0  0
  189.3020  175.5020  145.1480 C   0  0  2  0  0  3  0  0  0  0  0  0
  191.2050  173.8890  145.0120 C   0  0  0  0  0  2  0  0  0  0  0  0
  189.2520  176.1510  146.8390 S   0  0  0  0  0  0  0  0  0  0  0  0
  188.7760  172.9550  140.7500 C   0  0  0  0  0  2  0  0  0  0  0  0
  195.2520  168.2660  140.7840 N   0  0  0  0  0  2  0  0  0  0  0  0
  187.1840  175.1360  142.8150 O   0  0  0  0  0  1  0  0  0  0  0  0
  192.7090  173.7630  144.8310 C   0  0  0  0  0  2  0  0  0  0  0  0
  185.8960  177.6360  147.8610 C   0  0  0  0  0  2  0  0  0  0  0  0
  186.6940  176.7510  147.3860 N   0  0  0  0  0  0  0  0  0  0  0  0
  189.4360  173.1090  136.5410 C   0  0  0  0  0  2  0  0  0  0  0  0
  190.2890  174.3470  136.3150 C   0  0  0  0  0  2  0  0  0  0  0  0
  191.7100  173.9520  135.9500 C   0  0  0  0  0  2  0  0  0  0  0  0
  193.0480  177.1040  135.1670 C   0  0  0  0  0  0  0  0  0  0  0  0
  194.1570  176.3980  135.2510 C   0  0  0  0  0  0  0  0  0  0  0  0
  196.5130  176.6280  135.1480 N   0  0  0  0  0  1  0  0  0  0  0  0
  195.1150  178.4730  134.8580 N   0  0  0  0  0  0  0  0  0  0  0  0
  191.9480  176.3840  135.3940 N   0  0  0  0  0  0  0  0  0  0  0  0
  192.5200  175.1560  135.6030 C   0  0  0  0  0  0  0  0  0  0  0  0
  193.4420  178.6920  134.8880 S   0  0  0  0  0  0  0  0  0  0  0  0
  195.3290  177.1390  135.0800 C   0  0  0  0  0  0  0  0  0  0  0  0
  193.8880  175.1210  135.5370 N   0  0  0  0  0  2  0  0  0  0  0  0
  1 18  1  0  0  0  0
  1 22  1  0  0  0  0
  5 14  2  0  0  0  0
  6  2  1  1  0  0  0
  6 19  1  0  0  0  0
  7 27  1  1  0  0  0
  8  4  1  6  0  0  0
  8 32  1  0  0  0  0
  8 31  1  0  0  0  0
  9  5  1  0  0  0  0
  9  1  2  0  0  0  0
 10 34  1  0  0  0  0
 11 40  1  6  0  0  0
 11 18  1  0  0  0  0
 11 29  1  0  0  0  0
 12 29  1  6  0  0  0
 12 34  1  0  0  0  0
 12  3  1  0  0  0  0
 13 30  1  1  0  0  0
 13 31  1  0  0  0  0
 14 28  1  0  0  0  0
 14 17  1  0  0  0  0
 15  2  1  6  0  0  0
 15 26  1  0  0  0  0
 15  7  1  0  0  0  0
 16 33  1  0  0  0  0
 16 39  1  1  0  0  0
 18 10  1  0  0  0  0
 19  7  1  0  0  0  0
 20 25  2  0  0  0  0
 21 35  1  0  0  0  0
 21 20  1  0  0  0  0
 22 17  2  0  0  0  0
 23 36  1  1  0  0  0
 23 13  1  0  0  0  0
 24  3  1  6  0  0  0
 24 23  1  0  0  0  0
 24  4  1  0  0  0  0
 25  6  1  0  0  0  0
 28 21  1  0  0  0  0
 30 16  1  0  0  0  0
 31 33  1  1  0  0  0
 35 20  1  0  0  0  0
 37 32  1  0  0  0  0
 37 26  1  0  0  0  0
 39 38  2  0  0  0  0
 41 40  1  0  0  0  0
 42 41  1  0  0  0  0
 43 44  2  0  0  0  0
 43 47  1  0  0  0  0
 44 51  1  0  0  0  0
 46 49  1  0  0  0  0
 46 50  2  0  0  0  0
 47 48  2  0  0  0  0
 48 42  1  0  0  0  0
 49 43  1  0  0  0  0
 50 45  1  0  0  0  0
 50 44  1  0  0  0  0
 51 48  1  0  0  0  0
M  END
>  <MODEL>
8

>  <REMARK>
 VINA RESULT:      -5.5      3.412      7.626
  Name = 
  5 active torsions:
  status: ('A' for Active; 'I' for Inactive)
    1  A    between atoms: C_12  and  C_35
    2  A    between atoms: C_15  and  C_35
    3  A    between atoms: C_15  and  C_36
    4  A    between atoms: C_20  and  N_51
    5  A    between atoms: C_34  and  C_36
                            x       y       z     vdW  Elec       q    Type
                         _______ _______ _______ _____ _____    ______ ____

>  <TORSDO>
F 5

$$$$
=
 OpenBabel11042415253D

 51 59  0  0  1  0  0  0  0  0999 V2000
  191.9690  175.4580  144.5880 C   0  0  0  0  0  0  0  0  0  0  0  0
  195.4190  171.9630  139.3540 C   0  0  0  0  0  2  0  0  0  0  0  0
  189.3260  173.5270  141.1800 C   0  0  0  0  0  2  0  0  0  0  0  0
  190.2220  173.0050  138.9050 C   0  0  0  0  0  2  0  0  0  0  0  0
  194.1560  176.0730  145.4450 C   0  0  0  0  0  3  0  0  0  0  0  0
  196.5370  172.5470  140.2080 C   0  0  1  0  0  3  0  0  0  0  0  0
  196.8820  173.2270  137.9210 C   0  0  2  0  0  3  0  0  0  0  0  0
  190.5830  173.5560  137.5100 C   0  0  1  0  0  3  0  0  0  0  0  0
  192.7750  176.2960  145.3690 C   0  0  0  0  0  3  0  0  0  0  0  0
  190.3120  176.5580  143.1740 C   0  0  0  0  0  2  0  0  0  0  0  0
  189.5280  174.8100  144.6560 C   0  0  1  0  0  3  0  0  0  0  0  0
  189.1880  174.5710  142.1990 N   0  0  1  0  0  0  0  0  0  0  0  0
  188.2000  174.3480  137.6070 C   0  0  1  0  0  3  0  0  0  0  0  0
  194.7380  175.0260  144.7220 C   0  0  0  0  0  0  0  0  0  0  0  0
  195.4780  172.6420  137.9930 C   0  0  2  0  0  3  0  0  0  0  0  0
  187.6130  175.0620  135.3650 C   0  0  2  0  0  3  0  0  0  0  0  0
  193.9270  174.1770  143.9600 C   0  0  0  0  0  3  0  0  0  0  0  0
  190.5860  175.7800  144.3690 N   0  0  0  0  0  0  0  0  0  0  0  0
  197.2670  173.5630  139.3430 C   0  0  0  0  0  2  0  0  0  0  0  0
  196.6860  173.5770  142.3760 C   0  0  0  0  0  0  0  0  0  0  0  0
  196.7830  174.2000  143.6430 N   0  0  0  0  0  0  0  0  0  0  0  0
  192.5530  174.3900  143.8950 C   0  0  0  0  0  3  0  0  0  0  0  0
  188.1910  174.5410  139.1360 C   0  0  1  0  0  3  0  0  0  0  0  0
  189.5140  174.0600  139.7620 C   0  0  1  0  0  3  0  0  0  0  0  0
  195.9630  173.2020  141.3710 N   0  0  0  0  0  0  0  0  0  0  0  0
  194.3930  173.7150  137.9040 C   0  0  0  0  0  2  0  0  0  0  0  0
  196.9490  174.3630  137.1090 O   0  0  0  0  0  1  0  0  0  0  0  0
  196.1580  174.8690  144.7050 N   0  0  0  0  0  2  0  0  0  0  0  0
  189.3960  173.8550  143.4690 C   0  0  0  0  0  2  0  0  0  0  0  0
  187.2350  175.2130  136.8340 C   0  0  0  0  0  2  0  0  0  0  0  0
  189.5730  174.6090  137.0280 C   0  0  2  0  0  3  0  0  0  0  0  0
  191.9780  174.1650  137.5370 C   0  0  0  0  0  2  0  0  0  0  0  0
  189.3870  174.6270  135.2260 S   0  0  0  0  0  0  0  0  0  0  0  0
  190.2410  175.5860  141.9980 C   0  0  0  0  0  2  0  0  0  0  0  0
  197.9410  173.6910  143.0230 N   0  0  0  0  0  2  0  0  0  0  0  0
  187.9940  175.8840  139.4660 O   0  0  0  0  0  1  0  0  0  0  0  0
  193.0340  173.0810  137.6740 C   0  0  0  0  0  2  0  0  0  0  0  0
  188.0540  177.3380  134.8840 C   0  0  0  0  0  2  0  0  0  0  0  0
  187.3570  176.2870  134.6520 N   0  0  0  0  0  0  0  0  0  0  0  0
  189.7770  174.0340  145.9420 C   0  0  0  0  0  2  0  0  0  0  0  0
  189.6610  174.9570  147.1440 C   0  0  0  0  0  2  0  0  0  0  0  0
  188.2250  175.0080  147.6380 C   0  0  0  0  0  2  0  0  0  0  0  0
  186.8960  177.5710  145.6390 C   0  0  0  0  0  0  0  0  0  0  0  0
  186.0440  177.5980  146.6430 C   0  0  0  0  0  0  0  0  0  0  0  0
  184.0540  178.6660  147.3580 N   0  0  0  0  0  1  0  0  0  0  0  0
  185.0420  179.2150  145.3180 N   0  0  0  0  0  0  0  0  0  0  0  0
  187.8490  176.6500  145.7830 N   0  0  0  0  0  0  0  0  0  0  0  0
  187.4880  176.1370  147.0010 C   0  0  0  0  0  0  0  0  0  0  0  0
  186.4060  178.6640  144.4900 S   0  0  0  0  0  0  0  0  0  0  0  0
  184.9970  178.5100  146.4910 C   0  0  0  0  0  0  0  0  0  0  0  0
  186.3670  176.6860  147.5660 N   0  0  0  0  0  2  0  0  0  0  0  0
  1  9  1  0  0  0  0
  2  6  1  0  0  0  0
  6 19  1  6  0  0  0
  6 25  1  0  0  0  0
  7 27  1  6  0  0  0
  7 15  1  0  0  0  0
  7 19  1  0  0  0  0
  8 32  1  1  0  0  0
  8  4  1  0  0  0  0
  9  5  2  0  0  0  0
 10 18  1  0  0  0  0
 11 40  1  1  0  0  0
 12  3  1  6  0  0  0
 12 29  1  0  0  0  0
 13 30  1  6  0  0  0
 13 23  1  0  0  0  0
 14  5  1  0  0  0  0
 15 26  1  1  0  0  0
 15  2  1  0  0  0  0
 16 39  1  6  0  0  0
 16 30  1  0  0  0  0
 17 14  2  0  0  0  0
 18  1  1  0  0  0  0
 18 11  1  0  0  0  0
 20 35  1  0  0  0  0
 20 21  1  0  0  0  0
 21 28  1  0  0  0  0
 22 17  1  0  0  0  0
 22  1  2  0  0  0  0
 23 36  1  6  0  0  0
 23 24  1  0  0  0  0
 24  4  1  6  0  0  0
 24  3  1  0  0  0  0
 25 20  2  0  0  0  0
 28 14  1  0  0  0  0
 29 11  1  0  0  0  0
 31 33  1  6  0  0  0
 31  8  1  0  0  0  0
 31 13  1  0  0  0  0
 32 37  1  0  0  0  0
 33 16  1  0  0  0  0
 34 12  1  0  0  0  0
 34 10  1  0  0  0  0
 35 21  1  0  0  0  0
 37 26  1  0  0  0  0
 39 38  2  0  0  0  0
 40 41  1  0  0  0  0
 41 42  1  0  0  0  0
 43 47  1  0  0  0  0
 43 44  2  0  0  0  0
 44 51  1  0  0  0  0
 46 50  2  0  0  0  0
 47 48  2  0  0  0  0
 48 51  1  0  0  0  0
 48 42  1  0  0  0  0
 49 46  1  0  0  0  0
 49 43  1  0  0  0  0
 50 44  1  0  0  0  0
 50 45  1  0  0  0  0
M  END
>  <MODEL>
9

>  <REMARK>
 VINA RESULT:      -5.4      2.982      7.856
  Name = 
  5 active torsions:
  status: ('A' for Active; 'I' for Inactive)
    1  A    between atoms: C_12  and  C_35
    2  A    between atoms: C_15  and  C_35
    3  A    between atoms: C_15  and  C_36
    4  A    between atoms: C_20  and  N_51
    5  A    between atoms: C_34  and  C_36
                            x       y       z     vdW  Elec       q    Type
                         _______ _______ _______ _____ _____    ______ ____

>  <TORSDO>
F 5

$$$$
