=
 OpenBabel11042415013D

 33 36  0  0  1  0  0  0  0  0999 V2000
  189.5760  176.9710  142.8960 C   0  0  1  0  0  3  0  0  0  0  0  0
  191.4620  178.0610  143.8910 O   0  0  0  0  0  1  0  0  0  0  0  0
  191.1020  177.1120  142.9280 C   0  0  1  0  0  3  0  0  0  0  0  0
  193.6470  175.3890  141.5400 C   0  0  0  0  0  0  0  0  0  0  0  0
  194.8710  175.8140  140.8550 C   0  0  0  0  0  3  0  0  0  0  0  0
  192.8200  174.6530  140.8580 N   0  0  0  0  0  2  0  0  0  0  0  0
  191.5750  174.1960  141.4010 C   0  0  0  0  0  3  0  0  0  0  0  0
  195.5510  176.3620  143.8350 C   0  0  0  0  0  3  0  0  0  0  0  0
  196.0150  176.2320  141.3870 C   0  0  0  0  0  3  0  0  0  0  0  0
  196.3880  176.3640  142.8010 C   0  0  0  0  0  0  0  0  0  0  0  0
  191.7870  175.7680  143.2420 C   0  0  2  0  0  3  0  0  0  0  0  0
  193.2570  175.8150  142.9030 C   0  0  1  0  0  3  0  0  0  0  0  0
  197.7660  176.5760  143.0820 N   0  0  0  0  0  1  0  0  0  0  0  0
  194.0910  176.2080  143.8640 C   0  0  0  0  0  3  0  0  0  0  0  0
  191.1250  174.6740  142.5220 N   0  0  0  0  0  0  0  0  0  0  0  0
  188.5940  176.0160  144.8320 N   0  0  0  0  0  0  0  0  0  0  0  0
  189.0360  177.0550  144.2470 N   0  0  0  0  0  0  0  0  0  0  0  0
  188.6370  175.2330  147.1860 C   0  0  0  0  0  1  0  0  0  0  0  0
  188.0650  176.0690  146.1330 N   0  0  0  0  0  0  0  0  0  0  0  0
  184.6600  177.8810  145.8940 C   0  0  0  0  0  2  0  0  0  0  0  0
  185.6290  176.7060  145.7750 C   0  0  0  0  0  2  0  0  0  0  0  0
  187.1310  177.9570  147.3110 C   0  0  0  0  0  3  0  0  0  0  0  0
  186.0530  178.9550  147.6320 C   0  0  0  0  0  2  0  0  0  0  0  0
  186.9780  176.9690  146.4120 C   0  0  0  0  0  0  0  0  0  0  0  0
  184.6680  178.4050  147.3210 C   0  0  0  0  0  2  0  0  0  0  0  0
  188.9930  178.0290  142.0780 N   0  0  0  0  0  2  0  0  0  0  0  0
  184.8980  178.1740  141.0190 C   0  0  0  0  0  0  0  0  0  0  0  0
  185.8400  177.6510  140.1290 C   0  0  0  0  0  3  0  0  0  0  0  0
  186.6550  178.6050  142.6270 C   0  0  0  0  0  3  0  0  0  0  0  0
  187.6060  178.0870  141.7340 C   0  0  0  0  0  0  0  0  0  0  0  0
  185.3050  178.6490  142.2680 C   0  0  0  0  0  3  0  0  0  0  0  0
  187.1920  177.6070  140.4870 C   0  0  0  0  0  3  0  0  0  0  0  0
  183.5570  178.2190  140.6620 O   0  0  0  0  0  1  0  0  0  0  0  0
  1 26  1  6  0  0  0
  1  3  1  0  0  0  0
  1 17  1  0  0  0  0
  3  2  1  1  0  0  0
  4 12  1  0  0  0  0
  5  9  1  0  0  0  0
  5  4  2  0  0  0  0
  6  7  1  0  0  0  0
  6  4  1  0  0  0  0
  7 15  2  0  0  0  0
  8 14  2  0  0  0  0
  9 10  2  0  0  0  0
 10 13  1  0  0  0  0
 10  8  1  0  0  0  0
 11  3  1  6  0  0  0
 12 11  1  0  0  0  0
 12 14  1  1  0  0  0
 15 11  1  0  0  0  0
 16 19  1  0  0  0  0
 17 16  2  0  0  0  0
 19 24  1  0  0  0  0
 19 18  1  0  0  0  0
 20 25  1  0  0  0  0
 21 20  1  0  0  0  0
 21 24  1  0  0  0  0
 22 23  1  0  0  0  0
 24 22  2  0  0  0  0
 25 23  1  0  0  0  0
 27 31  1  0  0  0  0
 28 32  1  0  0  0  0
 28 27  2  0  0  0  0
 30 26  1  0  0  0  0
 30 29  1  0  0  0  0
 31 29  2  0  0  0  0
 32 30  2  0  0  0  0
 33 27  1  0  0  0  0
M  END
>  <MODEL>
1

>  <REMARK>
 VINA RESULT:      -8.2      0.000      0.000
  Name = 
  7 active torsions:
  status: ('A' for Active; 'I' for Inactive)
    1  A    between atoms: N_6  and  N_24
    2  A    between atoms: N_6  and  C_26
    3  A    between atoms: C_17  and  C_23
    4  A    between atoms: C_18  and  N_19
    5  A    between atoms: N_19  and  C_22
    6  A    between atoms: C_22  and  C_23
    7  A    between atoms: C_22  and  N_25
                            x       y       z     vdW  Elec       q    Type
                         _______ _______ _______ _____ _____    ______ ____

>  <TORSDO>
F 7

$$$$
=
 OpenBabel11042415013D

 33 36  0  0  1  0  0  0  0  0999 V2000
  189.2790  175.4480  146.2190 C   0  0  1  0  0  3  0  0  0  0  0  0
  188.8640  177.7640  145.7730 O   0  0  0  0  0  1  0  0  0  0  0  0
  188.4960  176.7060  146.6110 C   0  0  1  0  0  3  0  0  0  0  0  0
  185.9000  178.5550  145.5100 C   0  0  0  0  0  0  0  0  0  0  0  0
  185.7790  179.5520  144.4440 C   0  0  0  0  0  3  0  0  0  0  0  0
  185.6290  178.9550  146.7180 N   0  0  0  0  0  2  0  0  0  0  0  0
  185.7370  178.0860  147.8540 C   0  0  0  0  0  3  0  0  0  0  0  0
  185.8410  176.8830  142.8570 C   0  0  0  0  0  3  0  0  0  0  0  0
  185.6320  179.3530  143.1380 C   0  0  0  0  0  3  0  0  0  0  0  0
  185.5240  178.0910  142.3970 C   0  0  0  0  0  0  0  0  0  0  0  0
  186.9760  176.4760  146.5200 C   0  0  2  0  0  3  0  0  0  0  0  0
  186.3910  177.1730  145.3150 C   0  0  1  0  0  3  0  0  0  0  0  0
  185.1010  178.1780  141.0410 N   0  0  0  0  0  1  0  0  0  0  0  0
  186.3380  176.4810  144.1790 C   0  0  0  0  0  3  0  0  0  0  0  0
  186.3140  176.9270  147.7500 N   0  0  0  0  0  0  0  0  0  0  0  0
  189.4990  174.6730  143.9890 N   0  0  0  0  0  0  0  0  0  0  0  0
  189.7680  175.5670  144.8510 N   0  0  0  0  0  0  0  0  0  0  0  0
  189.0070  174.9540  141.5730 C   0  0  0  0  0  1  0  0  0  0  0  0
  189.9600  174.7610  142.6640 N   0  0  0  0  0  0  0  0  0  0  0  0
  193.4890  173.3260  142.0160 C   0  0  0  0  0  2  0  0  0  0  0  0
  191.9630  173.3640  141.9560 C   0  0  0  0  0  2  0  0  0  0  0  0
  192.1320  175.7930  142.4550 C   0  0  0  0  0  3  0  0  0  0  0  0
  193.6180  175.7860  142.2300 C   0  0  0  0  0  2  0  0  0  0  0  0
  191.3730  174.6840  142.4070 C   0  0  0  0  0  0  0  0  0  0  0  0
  194.0540  174.5920  141.3910 C   0  0  0  0  0  2  0  0  0  0  0  0
  190.4120  175.2630  147.1200 N   0  0  0  0  0  2  0  0  0  0  0  0
  194.4540  175.3570  145.8680 C   0  0  0  0  0  0  0  0  0  0  0  0
  193.8790  176.4710  146.4860 C   0  0  0  0  0  3  0  0  0  0  0  0
  192.3590  174.1610  146.0740 C   0  0  0  0  0  3  0  0  0  0  0  0
  191.7760  175.2800  146.6890 C   0  0  0  0  0  0  0  0  0  0  0  0
  193.6950  174.2020  145.6630 C   0  0  0  0  0  3  0  0  0  0  0  0
  192.5420  176.4310  146.8970 C   0  0  0  0  0  3  0  0  0  0  0  0
  195.7790  175.3980  145.4590 O   0  0  0  0  0  1  0  0  0  0  0  0
  1 17  1  6  0  0  0
  1  3  1  0  0  0  0
  1 26  1  0  0  0  0
  3  2  1  6  0  0  0
  4  6  1  0  0  0  0
  5  4  2  0  0  0  0
  6  7  1  0  0  0  0
  8 14  2  0  0  0  0
  9  5  1  0  0  0  0
 10  8  1  0  0  0  0
 10  9  2  0  0  0  0
 11  3  1  1  0  0  0
 11 15  1  0  0  0  0
 12 14  1  1  0  0  0
 12  4  1  0  0  0  0
 12 11  1  0  0  0  0
 13 10  1  0  0  0  0
 15  7  2  0  0  0  0
 16 17  2  0  0  0  0
 18 19  1  0  0  0  0
 19 16  1  0  0  0  0
 21 20  1  0  0  0  0
 21 24  1  0  0  0  0
 23 22  1  0  0  0  0
 24 22  2  0  0  0  0
 24 19  1  0  0  0  0
 25 20  1  0  0  0  0
 25 23  1  0  0  0  0
 27 28  1  0  0  0  0
 28 32  2  0  0  0  0
 29 30  2  0  0  0  0
 30 32  1  0  0  0  0
 30 26  1  0  0  0  0
 31 27  2  0  0  0  0
 31 29  1  0  0  0  0
 33 27  1  0  0  0  0
M  END
>  <MODEL>
2

>  <REMARK>
 VINA RESULT:      -8.0      2.658      8.597
  Name = 
  7 active torsions:
  status: ('A' for Active; 'I' for Inactive)
    1  A    between atoms: N_6  and  N_24
    2  A    between atoms: N_6  and  C_26
    3  A    between atoms: C_17  and  C_23
    4  A    between atoms: C_18  and  N_19
    5  A    between atoms: N_19  and  C_22
    6  A    between atoms: C_22  and  C_23
    7  A    between atoms: C_22  and  N_25
                            x       y       z     vdW  Elec       q    Type
                         _______ _______ _______ _____ _____    ______ ____

>  <TORSDO>
F 7

$$$$
=
 OpenBabel11042415013D

 33 36  0  0  1  0  0  0  0  0999 V2000
  189.8460  176.6830  143.0530 C   0  0  1  0  0  3  0  0  0  0  0  0
  191.8540  177.2110  144.2460 O   0  0  0  0  0  1  0  0  0  0  0  0
  191.3780  176.6990  143.0340 C   0  0  1  0  0  3  0  0  0  0  0  0
  190.0610  173.5940  143.0230 C   0  0  0  0  0  0  0  0  0  0  0  0
  188.7430  173.0820  142.6400 C   0  0  0  0  0  2  0  0  0  0  0  0
  190.4310  173.3980  144.2540 N   0  0  0  0  0  2  0  0  0  0  0  0
  191.6840  173.8750  144.7630 C   0  0  0  0  0  3  0  0  0  0  0  0
  190.0810  173.6030  139.8860 C   0  0  0  0  0  3  0  0  0  0  0  0
  188.2810  172.8150  141.4230 C   0  0  0  0  0  3  0  0  0  0  0  0
  188.9580  172.9310  140.1260 C   0  0  0  0  0  0  0  0  0  0  0  0
  191.9550  175.2890  142.8050 C   0  0  2  0  0  3  0  0  0  0  0  0
  190.9420  174.3890  142.1370 C   0  0  0  0  0  0  0  0  0  0  0  0
  188.3170  172.3200  139.0120 N   0  0  0  0  0  1  0  0  0  0  0  0
  190.9390  174.3600  140.8060 C   0  0  0  0  0  3  0  0  0  0  0  0
  192.4060  174.7070  144.0740 N   0  0  0  0  0  0  0  0  0  0  0  0
  188.4840  175.9990  144.8690 N   0  0  0  0  0  0  0  0  0  0  0  0
  189.3590  176.8040  144.4210 N   0  0  0  0  0  0  0  0  0  0  0  0
  188.5960  175.2900  147.2450 C   0  0  0  0  0  1  0  0  0  0  0  0
  187.9950  176.0950  146.1830 N   0  0  0  0  0  0  0  0  0  0  0  0
  184.6080  177.9430  145.9640 C   0  0  0  0  0  2  0  0  0  0  0  0
  185.5630  176.7560  145.8450 C   0  0  0  0  0  2  0  0  0  0  0  0
  187.0930  178.0010  147.3570 C   0  0  0  0  0  3  0  0  0  0  0  0
  186.0290  179.0130  147.6810 C   0  0  0  0  0  2  0  0  0  0  0  0
  186.9210  177.0090  146.4660 C   0  0  0  0  0  0  0  0  0  0  0  0
  184.6350  178.4760  147.3880 C   0  0  0  0  0  2  0  0  0  0  0  0
  189.3240  177.7890  142.2560 N   0  0  0  0  0  2  0  0  0  0  0  0
  185.2500  178.1670  141.1730 C   0  0  0  0  0  0  0  0  0  0  0  0
  186.1580  177.5520  140.3070 C   0  0  0  0  0  3  0  0  0  0  0  0
  187.0290  178.5380  142.7740 C   0  0  0  0  0  3  0  0  0  0  0  0
  187.9450  177.9270  141.9040 C   0  0  0  0  0  0  0  0  0  0  0  0
  185.6850  178.6590  142.4070 C   0  0  0  0  0  3  0  0  0  0  0  0
  187.5020  177.4300  140.6730 C   0  0  0  0  0  3  0  0  0  0  0  0
  183.9160  178.2880  140.8090 O   0  0  0  0  0  1  0  0  0  0  0  0
  1 26  1  6  0  0  0
  1 17  1  0  0  0  0
  3  1  1  0  0  0  0
  3  2  1  1  0  0  0
  4  6  1  0  0  0  0
  5  4  1  0  0  0  0
  6  7  1  0  0  0  0
  8 10  1  0  0  0  0
  8 14  2  0  0  0  0
  9  5  1  0  0  0  0
 10  9  2  0  0  0  0
 11  3  1  1  0  0  0
 11 15  1  0  0  0  0
 12 11  1  0  0  0  0
 12  4  2  0  0  0  0
 13 10  1  0  0  0  0
 14 12  1  0  0  0  0
 15  7  2  0  0  0  0
 16 19  1  0  0  0  0
 17 16  2  0  0  0  0
 19 24  1  0  0  0  0
 19 18  1  0  0  0  0
 20 25  1  0  0  0  0
 21 20  1  0  0  0  0
 21 24  1  0  0  0  0
 22 23  1  0  0  0  0
 24 22  2  0  0  0  0
 25 23  1  0  0  0  0
 27 31  1  0  0  0  0
 28 32  1  0  0  0  0
 28 27  2  0  0  0  0
 30 26  1  0  0  0  0
 30 29  1  0  0  0  0
 31 29  2  0  0  0  0
 32 30  2  0  0  0  0
 33 27  1  0  0  0  0
M  END
>  <MODEL>
3

>  <REMARK>
 VINA RESULT:      -7.7      2.007      3.724
  Name = 
  7 active torsions:
  status: ('A' for Active; 'I' for Inactive)
    1  A    between atoms: N_6  and  N_24
    2  A    between atoms: N_6  and  C_26
    3  A    between atoms: C_17  and  C_23
    4  A    between atoms: C_18  and  N_19
    5  A    between atoms: N_19  and  C_22
    6  A    between atoms: C_22  and  C_23
    7  A    between atoms: C_22  and  N_25
                            x       y       z     vdW  Elec       q    Type
                         _______ _______ _______ _____ _____    ______ ____

>  <TORSDO>
F 7

$$$$
=
 OpenBabel11042415013D

 33 36  0  0  1  0  0  0  0  0999 V2000
  191.0590  175.9790  145.6440 C   0  0  1  0  0  3  0  0  0  0  0  0
  189.9250  177.8840  144.7380 O   0  0  0  0  0  1  0  0  0  0  0  0
  189.8340  176.8970  145.7260 C   0  0  1  0  0  3  0  0  0  0  0  0
  186.6750  177.7370  144.8980 C   0  0  0  0  0  0  0  0  0  0  0  0
  186.1260  178.7770  144.0230 C   0  0  0  0  0  3  0  0  0  0  0  0
  186.3230  177.7790  146.1490 N   0  0  0  0  0  2  0  0  0  0  0  0
  186.8120  176.8390  147.1140 C   0  0  0  0  0  3  0  0  0  0  0  0
  187.1600  176.6700  141.9890 C   0  0  0  0  0  3  0  0  0  0  0  0
  186.0110  178.7680  142.6990 C   0  0  0  0  0  3  0  0  0  0  0  0
  186.3740  177.7160  141.7420 C   0  0  0  0  0  0  0  0  0  0  0  0
  188.5240  176.1070  145.5510 C   0  0  2  0  0  3  0  0  0  0  0  0
  187.6600  176.7170  144.4740 C   0  0  1  0  0  3  0  0  0  0  0  0
  185.8920  177.8650  140.4120 N   0  0  0  0  0  1  0  0  0  0  0  0
  187.8320  176.2710  143.2310 C   0  0  0  0  0  3  0  0  0  0  0  0
  187.7920  176.0380  146.8220 N   0  0  0  0  0  0  0  0  0  0  0  0
  191.1520  173.7460  144.8530 N   0  0  0  0  0  0  0  0  0  0  0  0
  190.8540  174.9600  144.6230 N   0  0  0  0  0  0  0  0  0  0  0  0
  191.6880  171.4770  144.0030 C   0  0  0  0  0  1  0  0  0  0  0  0
  190.9690  172.7440  143.8850 N   0  0  0  0  0  0  0  0  0  0  0  0
  189.4810  174.0450  140.5640 C   0  0  0  0  0  2  0  0  0  0  0  0
  190.5810  173.5620  141.5090 C   0  0  0  0  0  2  0  0  0  0  0  0
  188.7740  172.5700  142.8970 C   0  0  0  0  0  3  0  0  0  0  0  0
  187.7500  172.8050  141.8210 C   0  0  0  0  0  2  0  0  0  0  0  0
  190.0520  172.9750  142.8010 C   0  0  0  0  0  0  0  0  0  0  0  0
  188.4010  172.9800  140.4550 C   0  0  0  0  0  2  0  0  0  0  0  0
  192.2470  176.7590  145.3150 N   0  0  0  0  0  2  0  0  0  0  0  0
  196.0760  175.0320  144.7940 C   0  0  0  0  0  0  0  0  0  0  0  0
  195.4360  174.9720  146.0350 C   0  0  0  0  0  3  0  0  0  0  0  0
  194.1850  176.2340  143.8770 C   0  0  0  0  0  3  0  0  0  0  0  0
  193.5420  176.1830  145.1240 C   0  0  0  0  0  0  0  0  0  0  0  0
  195.4500  175.6620  143.7140 C   0  0  0  0  0  3  0  0  0  0  0  0
  194.1710  175.5450  146.1980 C   0  0  0  0  0  3  0  0  0  0  0  0
  197.3320  174.4640  144.6330 O   0  0  0  0  0  1  0  0  0  0  0  0
  1 17  1  6  0  0  0
  1  3  1  0  0  0  0
  3  2  1  6  0  0  0
  4  6  1  0  0  0  0
  5  4  2  0  0  0  0
  6  7  1  0  0  0  0
  8 14  2  0  0  0  0
  9  5  1  0  0  0  0
 10  8  1  0  0  0  0
 10  9  2  0  0  0  0
 11  3  1  1  0  0  0
 11 15  1  0  0  0  0
 12 14  1  1  0  0  0
 12  4  1  0  0  0  0
 12 11  1  0  0  0  0
 13 10  1  0  0  0  0
 15  7  2  0  0  0  0
 17 16  2  0  0  0  0
 19 18  1  0  0  0  0
 19 16  1  0  0  0  0
 20 21  1  0  0  0  0
 21 24  1  0  0  0  0
 23 22  1  0  0  0  0
 24 22  2  0  0  0  0
 24 19  1  0  0  0  0
 25 20  1  0  0  0  0
 25 23  1  0  0  0  0
 26  1  1  0  0  0  0
 27 28  1  0  0  0  0
 28 32  2  0  0  0  0
 29 30  2  0  0  0  0
 30 26  1  0  0  0  0
 30 32  1  0  0  0  0
 31 29  1  0  0  0  0
 31 27  2  0  0  0  0
 33 27  1  0  0  0  0
M  END
>  <MODEL>
4

>  <REMARK>
 VINA RESULT:      -7.7      2.609      8.116
  Name = 
  7 active torsions:
  status: ('A' for Active; 'I' for Inactive)
    1  A    between atoms: N_6  and  N_24
    2  A    between atoms: N_6  and  C_26
    3  A    between atoms: C_17  and  C_23
    4  A    between atoms: C_18  and  N_19
    5  A    between atoms: N_19  and  C_22
    6  A    between atoms: C_22  and  C_23
    7  A    between atoms: C_22  and  N_25
                            x       y       z     vdW  Elec       q    Type
                         _______ _______ _______ _____ _____    ______ ____

>  <TORSDO>
F 7

$$$$
=
 OpenBabel11042415013D

 33 36  0  0  1  0  0  0  0  0999 V2000
  190.1160  175.8080  145.2000 C   0  0  1  0  0  3  0  0  0  0  0  0
  189.2410  178.0340  145.3180 O   0  0  0  0  0  1  0  0  0  0  0  0
  189.1830  176.7790  145.9330 C   0  0  1  0  0  3  0  0  0  0  0  0
  186.1890  178.2090  145.3310 C   0  0  0  0  0  0  0  0  0  0  0  0
  185.7730  179.2900  144.4340 C   0  0  0  0  0  3  0  0  0  0  0  0
  185.9840  178.3920  146.6020 N   0  0  0  0  0  2  0  0  0  0  0  0
  186.3710  177.4250  147.5870 C   0  0  0  0  0  3  0  0  0  0  0  0
  186.1460  176.9060  142.4780 C   0  0  0  0  0  3  0  0  0  0  0  0
  185.5230  179.2320  143.1290 C   0  0  0  0  0  3  0  0  0  0  0  0
  185.5660  178.0770  142.2250 C   0  0  0  0  0  0  0  0  0  0  0  0
  187.7290  176.2690  145.9360 C   0  0  2  0  0  3  0  0  0  0  0  0
  186.9000  176.9850  144.8970 C   0  0  1  0  0  3  0  0  0  0  0  0
  184.9890  178.2500  140.9370 N   0  0  0  0  0  1  0  0  0  0  0  0
  186.8490  176.4450  143.6810 C   0  0  0  0  0  3  0  0  0  0  0  0
  187.1340  176.4230  147.2690 N   0  0  0  0  0  0  0  0  0  0  0  0
  192.4730  175.5480  145.1660 N   0  0  0  0  0  0  0  0  0  0  0  0
  191.4240  175.7860  145.8430 N   0  0  0  0  0  0  0  0  0  0  0  0
  194.2240  176.6740  146.5170 C   0  0  0  0  0  1  0  0  0  0  0  0
  193.7450  175.5180  145.7610 N   0  0  0  0  0  0  0  0  0  0  0  0
  196.8090  173.2030  145.3230 C   0  0  0  0  0  2  0  0  0  0  0  0
  196.0530  174.4510  145.7790 C   0  0  0  0  0  2  0  0  0  0  0  0
  193.9660  173.1280  145.5100 C   0  0  0  0  0  3  0  0  0  0  0  0
  194.7400  171.8500  145.3430 C   0  0  0  0  0  2  0  0  0  0  0  0
  194.5500  174.3320  145.6370 C   0  0  0  0  0  0  0  0  0  0  0  0
  196.1480  171.9660  145.9110 C   0  0  0  0  0  2  0  0  0  0  0  0
  189.5500  174.4640  145.2140 N   0  0  0  0  0  2  0  0  0  0  0  0
  190.1820  171.6060  142.1560 C   0  0  0  0  0  0  0  0  0  0  0  0
  190.7290  171.4140  143.4280 C   0  0  0  0  0  3  0  0  0  0  0  0
  189.2040  173.6940  142.8930 C   0  0  0  0  0  3  0  0  0  0  0  0
  189.7570  173.5090  144.1690 C   0  0  0  0  0  0  0  0  0  0  0  0
  189.4190  172.7450  141.8890 C   0  0  0  0  0  3  0  0  0  0  0  0
  190.5150  172.3630  144.4330 C   0  0  0  0  0  3  0  0  0  0  0  0
  190.3970  170.6640  141.1600 O   0  0  0  0  0  1  0  0  0  0  0  0
  1 26  1  1  0  0  0
  1 17  1  0  0  0  0
  1  3  1  0  0  0  0
  3  2  1  6  0  0  0
  4  6  1  0  0  0  0
  5  4  2  0  0  0  0
  6  7  1  0  0  0  0
  8 14  2  0  0  0  0
  9  5  1  0  0  0  0
 10  8  1  0  0  0  0
 10  9  2  0  0  0  0
 11  3  1  1  0  0  0
 11 15  1  0  0  0  0
 12 14  1  1  0  0  0
 12  4  1  0  0  0  0
 12 11  1  0  0  0  0
 13 10  1  0  0  0  0
 15  7  2  0  0  0  0
 16 19  1  0  0  0  0
 16 17  2  0  0  0  0
 19 18  1  0  0  0  0
 20 21  1  0  0  0  0
 20 25  1  0  0  0  0
 22 24  2  0  0  0  0
 23 22  1  0  0  0  0
 23 25  1  0  0  0  0
 24 19  1  0  0  0  0
 24 21  1  0  0  0  0
 27 28  1  0  0  0  0
 28 32  2  0  0  0  0
 29 30  2  0  0  0  0
 30 32  1  0  0  0  0
 30 26  1  0  0  0  0
 31 27  2  0  0  0  0
 31 29  1  0  0  0  0
 33 27  1  0  0  0  0
M  END
>  <MODEL>
5

>  <REMARK>
 VINA RESULT:      -7.6      3.149      8.367
  Name = 
  7 active torsions:
  status: ('A' for Active; 'I' for Inactive)
    1  A    between atoms: N_6  and  N_24
    2  A    between atoms: N_6  and  C_26
    3  A    between atoms: C_17  and  C_23
    4  A    between atoms: C_18  and  N_19
    5  A    between atoms: N_19  and  C_22
    6  A    between atoms: C_22  and  C_23
    7  A    between atoms: C_22  and  N_25
                            x       y       z     vdW  Elec       q    Type
                         _______ _______ _______ _____ _____    ______ ____

>  <TORSDO>
F 7

$$$$
=
 OpenBabel11042415013D

 33 36  0  0  1  0  0  0  0  0999 V2000
  189.5340  175.4890  146.0920 C   0  0  1  0  0  3  0  0  0  0  0  0
  189.0070  177.7710  145.5920 O   0  0  0  0  0  1  0  0  0  0  0  0
  188.6960  176.7190  146.4600 C   0  0  1  0  0  3  0  0  0  0  0  0
  185.9900  178.4740  145.4750 C   0  0  0  0  0  0  0  0  0  0  0  0
  185.7990  179.5010  144.4480 C   0  0  0  0  0  3  0  0  0  0  0  0
  185.7240  178.8160  146.7020 N   0  0  0  0  0  2  0  0  0  0  0  0
  185.8980  177.9140  147.8030 C   0  0  0  0  0  3  0  0  0  0  0  0
  185.9600  176.8950  142.7650 C   0  0  0  0  0  3  0  0  0  0  0  0
  185.6350  179.3410  143.1390 C   0  0  0  0  0  3  0  0  0  0  0  0
  185.5740  178.1020  142.3540 C   0  0  0  0  0  0  0  0  0  0  0  0
  187.1870  176.4160  146.3890 C   0  0  2  0  0  3  0  0  0  0  0  0
  186.5450  177.1250  145.2210 C   0  0  1  0  0  3  0  0  0  0  0  0
  185.1200  178.2150  141.0110 N   0  0  0  0  0  1  0  0  0  0  0  0
  186.5030  176.4720  144.0610 C   0  0  0  0  0  3  0  0  0  0  0  0
  186.5290  176.7900  147.6460 N   0  0  0  0  0  0  0  0  0  0  0  0
  190.0600  174.6710  143.9290 N   0  0  0  0  0  0  0  0  0  0  0  0
  190.0850  175.6400  144.7520 N   0  0  0  0  0  0  0  0  0  0  0  0
  191.8010  175.5720  142.4080 C   0  0  0  0  0  1  0  0  0  0  0  0
  190.5880  174.7890  142.6330 N   0  0  0  0  0  0  0  0  0  0  0  0
  187.8670  173.0400  140.5170 C   0  0  0  0  0  2  0  0  0  0  0  0
  188.4210  174.0350  141.5370 C   0  0  0  0  0  2  0  0  0  0  0  0
  190.6490  173.6590  140.5010 C   0  0  0  0  0  3  0  0  0  0  0  0
  190.0410  172.9140  139.3450 C   0  0  0  0  0  2  0  0  0  0  0  0
  189.9330  174.1120  141.5450 C   0  0  0  0  0  0  0  0  0  0  0  0
  188.5630  173.2430  139.1800 C   0  0  0  0  0  2  0  0  0  0  0  0
  190.6250  175.3240  147.0460 N   0  0  0  0  0  2  0  0  0  0  0  0
  194.7060  175.2840  145.9240 C   0  0  0  0  0  0  0  0  0  0  0  0
  193.9170  174.1420  145.7630 C   0  0  0  0  0  3  0  0  0  0  0  0
  192.8000  176.4730  146.8280 C   0  0  0  0  0  3  0  0  0  0  0  0
  192.0060  175.3260  146.6740 C   0  0  0  0  0  0  0  0  0  0  0  0
  194.1480  176.4500  146.4550 C   0  0  0  0  0  3  0  0  0  0  0  0
  192.5690  174.1640  146.1360 C   0  0  0  0  0  3  0  0  0  0  0  0
  196.0440  175.2610  145.5550 O   0  0  0  0  0  1  0  0  0  0  0  0
  1 17  1  6  0  0  0
  1  3  1  0  0  0  0
  1 26  1  0  0  0  0
  3  2  1  6  0  0  0
  4  6  1  0  0  0  0
  5  4  2  0  0  0  0
  6  7  1  0  0  0  0
  8 14  2  0  0  0  0
  9  5  1  0  0  0  0
 10  8  1  0  0  0  0
 10  9  2  0  0  0  0
 11  3  1  1  0  0  0
 11 15  1  0  0  0  0
 12 14  1  1  0  0  0
 12  4  1  0  0  0  0
 12 11  1  0  0  0  0
 13 10  1  0  0  0  0
 15  7  2  0  0  0  0
 16 17  2  0  0  0  0
 18 19  1  0  0  0  0
 19 16  1  0  0  0  0
 20 21  1  0  0  0  0
 21 24  1  0  0  0  0
 22 24  2  0  0  0  0
 23 22  1  0  0  0  0
 24 19  1  0  0  0  0
 25 23  1  0  0  0  0
 25 20  1  0  0  0  0
 27 31  1  0  0  0  0
 28 27  2  0  0  0  0
 28 32  1  0  0  0  0
 30 29  1  0  0  0  0
 30 26  1  0  0  0  0
 31 29  2  0  0  0  0
 32 30  2  0  0  0  0
 33 27  1  0  0  0  0
M  END
>  <MODEL>
6

>  <REMARK>
 VINA RESULT:      -7.5      2.797      8.465
  Name = 
  7 active torsions:
  status: ('A' for Active; 'I' for Inactive)
    1  A    between atoms: N_6  and  N_24
    2  A    between atoms: N_6  and  C_26
    3  A    between atoms: C_17  and  C_23
    4  A    between atoms: C_18  and  N_19
    5  A    between atoms: N_19  and  C_22
    6  A    between atoms: C_22  and  C_23
    7  A    between atoms: C_22  and  N_25
                            x       y       z     vdW  Elec       q    Type
                         _______ _______ _______ _____ _____    ______ ____

>  <TORSDO>
F 7

$$$$
=
 OpenBabel11042415013D

 33 36  0  0  1  0  0  0  0  0999 V2000
  188.7860  174.6540  141.9950 C   0  0  1  0  0  3  0  0  0  0  0  0
  186.6530  175.0330  143.0160 O   0  0  0  0  0  1  0  0  0  0  0  0
  187.4510  175.4040  141.9280 C   0  0  1  0  0  3  0  0  0  0  0  0
  185.5080  178.0400  142.7350 C   0  0  0  0  0  0  0  0  0  0  0  0
  184.4420  178.2150  143.7240 C   0  0  0  0  0  2  0  0  0  0  0  0
  185.1870  178.2260  141.4890 N   0  0  0  0  0  2  0  0  0  0  0  0
  186.1280  178.0570  140.4210 C   0  0  0  0  0  3  0  0  0  0  0  0
  187.0020  178.2920  145.4810 C   0  0  0  0  0  3  0  0  0  0  0  0
  184.5530  178.4480  145.0280 C   0  0  0  0  0  3  0  0  0  0  0  0
  185.7630  178.6220  145.8410 C   0  0  0  0  0  0  0  0  0  0  0  0
  187.6600  176.9300  141.9350 C   0  0  2  0  0  3  0  0  0  0  0  0
  186.8800  177.5810  143.0510 C   0  0  0  0  0  0  0  0  0  0  0  0
  185.5830  179.1300  147.1570 N   0  0  0  0  0  1  0  0  0  0  0  0
  187.4950  177.7170  144.2240 C   0  0  0  0  0  3  0  0  0  0  0  0
  187.2840  177.5050  140.6380 N   0  0  0  0  0  0  0  0  0  0  0  0
  188.3330  174.0590  139.7450 N   0  0  0  0  0  0  0  0  0  0  0  0
  189.1970  174.2390  140.6600 N   0  0  0  0  0  0  0  0  0  0  0  0
  189.3190  172.3480  138.2420 C   0  0  0  0  0  1  0  0  0  0  0  0
  188.7020  173.6570  138.4500 N   0  0  0  0  0  0  0  0  0  0  0  0
  189.1450  175.6070  135.1430 C   0  0  0  0  0  2  0  0  0  0  0  0
  189.3140  174.4330  136.1070 C   0  0  0  0  0  2  0  0  0  0  0  0
  187.3730  175.3520  137.3610 C   0  0  0  0  0  3  0  0  0  0  0  0
  187.0550  176.3200  136.2550 C   0  0  0  0  0  2  0  0  0  0  0  0
  188.4420  174.5360  137.3420 C   0  0  0  0  0  0  0  0  0  0  0  0
  187.6640  175.8810  134.9300 C   0  0  0  0  0  2  0  0  0  0  0  0
  189.8140  175.5150  142.5700 N   0  0  0  0  0  2  0  0  0  0  0  0
  190.8570  175.4240  146.6710 C   0  0  0  0  0  0  0  0  0  0  0  0
  189.9990  174.4580  146.1380 C   0  0  0  0  0  3  0  0  0  0  0  0
  191.0410  176.4630  144.4920 C   0  0  0  0  0  3  0  0  0  0  0  0
  190.1740  175.4990  143.9540 C   0  0  0  0  0  0  0  0  0  0  0  0
  191.3790  176.4260  145.8480 C   0  0  0  0  0  3  0  0  0  0  0  0
  189.6600  174.4950  144.7810 C   0  0  0  0  0  3  0  0  0  0  0  0
  191.1920  175.3870  148.0170 O   0  0  0  0  0  1  0  0  0  0  0  0
  1 17  1  6  0  0  0
  1 26  1  0  0  0  0
  3  1  1  0  0  0  0
  3  2  1  1  0  0  0
  4 12  2  0  0  0  0
  4  5  1  0  0  0  0
  5  9  1  0  0  0  0
  6  4  1  0  0  0  0
  7 15  2  0  0  0  0
  7  6  1  0  0  0  0
  8 10  1  0  0  0  0
  9 10  2  0  0  0  0
 10 13  1  0  0  0  0
 11  3  1  6  0  0  0
 11 12  1  0  0  0  0
 12 14  1  0  0  0  0
 14  8  2  0  0  0  0
 15 11  1  0  0  0  0
 16 17  2  0  0  0  0
 18 19  1  0  0  0  0
 19 16  1  0  0  0  0
 20 21  1  0  0  0  0
 21 24  1  0  0  0  0
 23 22  1  0  0  0  0
 24 22  2  0  0  0  0
 24 19  1  0  0  0  0
 25 20  1  0  0  0  0
 25 23  1  0  0  0  0
 26 30  1  0  0  0  0
 27 33  1  0  0  0  0
 28 27  1  0  0  0  0
 29 31  1  0  0  0  0
 30 29  2  0  0  0  0
 30 32  1  0  0  0  0
 31 27  2  0  0  0  0
 32 28  2  0  0  0  0
M  END
>  <MODEL>
7

>  <REMARK>
 VINA RESULT:      -7.4      3.350      8.522
  Name = 
  7 active torsions:
  status: ('A' for Active; 'I' for Inactive)
    1  A    between atoms: N_6  and  N_24
    2  A    between atoms: N_6  and  C_26
    3  A    between atoms: C_17  and  C_23
    4  A    between atoms: C_18  and  N_19
    5  A    between atoms: N_19  and  C_22
    6  A    between atoms: C_22  and  C_23
    7  A    between atoms: C_22  and  N_25
                            x       y       z     vdW  Elec       q    Type
                         _______ _______ _______ _____ _____    ______ ____

>  <TORSDO>
F 7

$$$$
=
 OpenBabel11042415013D

 33 36  0  0  1  0  0  0  0  0999 V2000
  189.1260  176.4010  144.0010 C   0  0  1  0  0  3  0  0  0  0  0  0
  190.8990  175.8760  142.4790 O   0  0  0  0  0  1  0  0  0  0  0  0
  189.5060  175.9060  142.6010 C   0  0  1  0  0  3  0  0  0  0  0  0
  190.7720  173.0590  141.3110 C   0  0  0  0  0  0  0  0  0  0  0  0
  192.1100  172.4650  141.3540 C   0  0  0  0  0  3  0  0  0  0  0  0
  190.2930  173.3400  140.1350 N   0  0  0  0  0  2  0  0  0  0  0  0
  189.0090  173.9510  139.9570 C   0  0  0  0  0  3  0  0  0  0  0  0
  191.0250  171.8690  144.2030 C   0  0  0  0  0  3  0  0  0  0  0  0
  192.6730  171.7620  142.3320 C   0  0  0  0  0  3  0  0  0  0  0  0
  192.1130  171.3610  143.6280 C   0  0  0  0  0  0  0  0  0  0  0  0
  188.9300  174.5050  142.3220 C   0  0  2  0  0  3  0  0  0  0  0  0
  189.9830  173.4380  142.5060 C   0  0  1  0  0  3  0  0  0  0  0  0
  192.8390  170.3840  144.3650 N   0  0  0  0  0  1  0  0  0  0  0  0
  190.1020  172.9030  143.7190 C   0  0  0  0  0  3  0  0  0  0  0  0
  188.3620  174.4430  140.9710 N   0  0  0  0  0  0  0  0  0  0  0  0
  190.3400  176.0720  146.0120 N   0  0  0  0  0  0  0  0  0  0  0  0
  190.3200  176.5330  144.8270 N   0  0  0  0  0  0  0  0  0  0  0  0
  191.3520  176.7610  148.1700 C   0  0  0  0  0  1  0  0  0  0  0  0
  191.4760  176.1890  146.8300 N   0  0  0  0  0  0  0  0  0  0  0  0
  195.0910  176.1640  145.4660 C   0  0  0  0  0  2  0  0  0  0  0  0
  193.9080  176.6860  146.2800 C   0  0  0  0  0  2  0  0  0  0  0  0
  192.9190  174.4170  146.0560 C   0  0  0  0  0  3  0  0  0  0  0  0
  194.2030  173.8570  145.5110 C   0  0  0  0  0  2  0  0  0  0  0  0
  192.7440  175.7190  146.3420 C   0  0  0  0  0  0  0  0  0  0  0  0
  195.3970  174.7310  145.8740 C   0  0  0  0  0  2  0  0  0  0  0  0
  188.4580  177.6940  143.9100 N   0  0  0  0  0  2  0  0  0  0  0  0
  184.6700  178.4530  145.6410 C   0  0  0  0  0  0  0  0  0  0  0  0
  185.4440  177.3740  146.0780 C   0  0  0  0  0  3  0  0  0  0  0  0
  186.3970  179.0490  144.0520 C   0  0  0  0  0  3  0  0  0  0  0  0
  187.1750  177.9620  144.4830 C   0  0  0  0  0  0  0  0  0  0  0  0
  185.1470  179.2910  144.6300 C   0  0  0  0  0  3  0  0  0  0  0  0
  186.6950  177.1310  145.5010 C   0  0  0  0  0  3  0  0  0  0  0  0
  183.4290  178.6920  146.2140 O   0  0  0  0  0  1  0  0  0  0  0  0
  1 26  1  6  0  0  0
  1 17  1  0  0  0  0
  3  2  1  1  0  0  0
  3  1  1  0  0  0  0
  4  5  2  0  0  0  0
  4 12  1  0  0  0  0
  5  9  1  0  0  0  0
  6  4  1  0  0  0  0
  7  6  1  0  0  0  0
  7 15  2  0  0  0  0
  9 10  2  0  0  0  0
 10  8  1  0  0  0  0
 10 13  1  0  0  0  0
 11 12  1  0  0  0  0
 11  3  1  6  0  0  0
 12 14  1  6  0  0  0
 14  8  2  0  0  0  0
 15 11  1  0  0  0  0
 16 19  1  0  0  0  0
 17 16  2  0  0  0  0
 19 18  1  0  0  0  0
 20 25  1  0  0  0  0
 20 21  1  0  0  0  0
 21 24  1  0  0  0  0
 22 24  2  0  0  0  0
 23 25  1  0  0  0  0
 23 22  1  0  0  0  0
 24 19  1  0  0  0  0
 26 30  1  0  0  0  0
 27 28  1  0  0  0  0
 27 33  1  0  0  0  0
 29 30  2  0  0  0  0
 29 31  1  0  0  0  0
 30 32  1  0  0  0  0
 31 27  2  0  0  0  0
 32 28  2  0  0  0  0
M  END
>  <MODEL>
8

>  <REMARK>
 VINA RESULT:      -7.4      2.960      5.400
  Name = 
  7 active torsions:
  status: ('A' for Active; 'I' for Inactive)
    1  A    between atoms: N_6  and  N_24
    2  A    between atoms: N_6  and  C_26
    3  A    between atoms: C_17  and  C_23
    4  A    between atoms: C_18  and  N_19
    5  A    between atoms: N_19  and  C_22
    6  A    between atoms: C_22  and  C_23
    7  A    between atoms: C_22  and  N_25
                            x       y       z     vdW  Elec       q    Type
                         _______ _______ _______ _____ _____    ______ ____

>  <TORSDO>
F 7

$$$$
=
 OpenBabel11042415013D

 33 36  0  0  1  0  0  0  0  0999 V2000
  188.8340  174.8250  141.5300 C   0  0  1  0  0  3  0  0  0  0  0  0
  186.7860  174.9660  142.7630 O   0  0  0  0  0  1  0  0  0  0  0  0
  187.4770  175.5210  141.6800 C   0  0  1  0  0  3  0  0  0  0  0  0
  185.6650  177.8830  143.2650 C   0  0  0  0  0  0  0  0  0  0  0  0
  184.8160  177.8420  144.4570 C   0  0  0  0  0  2  0  0  0  0  0  0
  185.0950  178.2390  142.1520 N   0  0  0  0  0  2  0  0  0  0  0  0
  185.8060  178.2910  140.9090 C   0  0  0  0  0  3  0  0  0  0  0  0
  187.6740  177.8010  145.6720 C   0  0  0  0  0  3  0  0  0  0  0  0
  185.1810  177.8790  145.7350 C   0  0  0  0  0  3  0  0  0  0  0  0
  186.5240  177.9970  146.3140 C   0  0  0  0  0  0  0  0  0  0  0  0
  187.6420  177.0380  141.8930 C   0  0  2  0  0  3  0  0  0  0  0  0
  187.0850  177.4630  143.2300 C   0  0  0  0  0  0  0  0  0  0  0  0
  186.6000  178.2870  147.7050 N   0  0  0  0  0  1  0  0  0  0  0  0
  187.9190  177.4550  144.2670 C   0  0  0  0  0  3  0  0  0  0  0  0
  186.9970  177.7810  140.8040 N   0  0  0  0  0  0  0  0  0  0  0  0
  190.4130  173.7420  142.9300 N   0  0  0  0  0  0  0  0  0  0  0  0
  189.2950  174.3380  142.8240 N   0  0  0  0  0  0  0  0  0  0  0  0
  191.4430  171.9150  144.2550 C   0  0  0  0  0  1  0  0  0  0  0  0
  190.8790  173.2610  144.1640 N   0  0  0  0  0  0  0  0  0  0  0  0
  191.9370  175.6470  147.0150 C   0  0  0  0  0  2  0  0  0  0  0  0
  191.9850  175.0310  145.6170 C   0  0  0  0  0  2  0  0  0  0  0  0
  189.6920  174.1780  146.0540 C   0  0  0  0  0  3  0  0  0  0  0  0
  189.5610  175.0220  147.2920 C   0  0  0  0  0  2  0  0  0  0  0  0
  190.8160  174.1150  145.3200 C   0  0  0  0  0  0  0  0  0  0  0  0
  190.5410  176.1870  147.2850 C   0  0  0  0  0  2  0  0  0  0  0  0
  188.7200  173.7010  140.6060 N   0  0  0  0  0  2  0  0  0  0  0  0
  189.8930  173.8790  136.5430 C   0  0  0  0  0  0  0  0  0  0  0  0
  190.8010  173.4720  137.5240 C   0  0  0  0  0  3  0  0  0  0  0  0
  188.1910  174.1700  138.2400 C   0  0  0  0  0  3  0  0  0  0  0  0
  189.1020  173.7690  139.2290 C   0  0  0  0  0  0  0  0  0  0  0  0
  188.5870  174.2260  136.9000 C   0  0  0  0  0  3  0  0  0  0  0  0
  190.4050  173.4160  138.8650 C   0  0  0  0  0  3  0  0  0  0  0  0
  190.2880  173.9350  135.2140 O   0  0  0  0  0  1  0  0  0  0  0  0
  1 26  1  6  0  0  0
  1  3  1  0  0  0  0
  1 17  1  0  0  0  0
  3  2  1  1  0  0  0
  4  5  1  0  0  0  0
  5  9  1  0  0  0  0
  6  4  1  0  0  0  0
  7  6  1  0  0  0  0
  8 10  1  0  0  0  0
  9 10  2  0  0  0  0
 10 13  1  0  0  0  0
 11  3  1  6  0  0  0
 11 12  1  0  0  0  0
 12  4  2  0  0  0  0
 12 14  1  0  0  0  0
 14  8  2  0  0  0  0
 15  7  2  0  0  0  0
 15 11  1  0  0  0  0
 16 19  1  0  0  0  0
 17 16  2  0  0  0  0
 19 18  1  0  0  0  0
 19 24  1  0  0  0  0
 20 25  1  0  0  0  0
 21 20  1  0  0  0  0
 22 23  1  0  0  0  0
 24 21  1  0  0  0  0
 24 22  2  0  0  0  0
 25 23  1  0  0  0  0
 27 31  2  0  0  0  0
 27 28  1  0  0  0  0
 28 32  2  0  0  0  0
 29 30  2  0  0  0  0
 30 26  1  0  0  0  0
 31 29  1  0  0  0  0
 32 30  1  0  0  0  0
 33 27  1  0  0  0  0
M  END
>  <MODEL>
9

>  <REMARK>
 VINA RESULT:      -7.3      3.319      7.052
  Name = 
  7 active torsions:
  status: ('A' for Active; 'I' for Inactive)
    1  A    between atoms: N_6  and  N_24
    2  A    between atoms: N_6  and  C_26
    3  A    between atoms: C_17  and  C_23
    4  A    between atoms: C_18  and  N_19
    5  A    between atoms: N_19  and  C_22
    6  A    between atoms: C_22  and  C_23
    7  A    between atoms: C_22  and  N_25
                            x       y       z     vdW  Elec       q    Type
                         _______ _______ _______ _____ _____    ______ ____

>  <TORSDO>
F 7

$$$$
