=
 OpenBabel11042417173D

 31 35  0  0  1  0  0  0  0  0999 V2000
  191.3970  177.0210  144.3550 O   0  0  0  0  0  0  0  0  0  0  0  0
  190.6680  176.0570  143.9920 C   0  0  0  0  0  0  0  0  0  0  0  0
  189.2530  176.1120  144.2150 N   0  0  0  0  0  2  0  0  0  0  0  0
  183.9660  178.8950  144.6800 N   0  0  0  0  0  0  0  0  0  0  0  0
  188.1720  176.6700  146.3060 C   0  0  0  0  0  2  0  0  0  0  0  0
  184.9040  178.3600  146.8110 C   0  0  0  0  0  3  0  0  0  0  0  0
  185.2430  178.7520  142.7110 N   0  0  0  0  0  0  0  0  0  0  0  0
  186.2330  178.1150  144.7990 C   0  0  0  0  0  0  0  0  0  0  0  0
  187.2890  177.6650  147.0410 C   0  0  0  0  0  2  0  0  0  0  0  0
  187.5210  178.0150  142.7460 C   0  0  0  0  0  0  0  0  0  0  0  0
  187.4310  177.7600  144.1350 C   0  0  0  0  0  0  0  0  0  0  0  0
  188.7840  177.8300  141.9750 C   0  0  0  0  0  1  0  0  0  0  0  0
  183.8300  178.7870  146.0280 C   0  0  0  0  0  3  0  0  0  0  0  0
  186.1090  178.0180  146.1960 C   0  0  0  0  0  0  0  0  0  0  0  0
  185.1320  178.5850  144.0520 C   0  0  0  0  0  0  0  0  0  0  0  0
  186.4050  178.4940  142.0560 C   0  0  0  0  0  3  0  0  0  0  0  0
  188.6070  177.2030  144.9350 C   0  0  2  0  0  3  0  0  0  0  0  0
  191.2860  174.8070  143.4000 C   0  0  1  0  0  0  0  0  0  0  0  0
  190.8370  173.5710  144.1890 C   0  0  0  0  0  1  0  0  0  0  0  0
  190.7940  174.6620  141.9450 C   0  0  1  0  0  3  0  0  0  0  0  0
  191.8550  174.3330  141.0740 O   0  0  0  0  0  0  0  0  0  0  0  0
  191.4240  173.2560  140.2740 C   0  0  0  0  0  2  0  0  0  0  0  0
  189.6880  173.6340  141.7990 C   0  0  0  0  0  2  0  0  0  0  0  0
  189.9390  173.0650  140.4460 C   0  0  0  0  0  2  0  0  0  0  0  0
  192.7560  174.9020  143.3950 N   0  0  0  0  0  2  0  0  0  0  0  0
  193.3570  174.0120  144.3930 C   0  0  0  0  0  2  0  0  0  0  0  0
  193.3990  175.4220  146.4790 C   0  0  0  0  0  2  0  0  0  0  0  0
  194.0850  176.7330  146.7860 C   0  0  0  0  0  2  0  0  0  0  0  0
  194.2250  174.7920  145.3740 C   0  0  0  0  0  3  0  0  0  0  0  0
  194.9820  175.9150  144.6820 C   0  0  0  0  0  2  0  0  0  0  0  0
  194.7100  177.1780  145.4800 C   0  0  0  0  0  2  0  0  0  0  0  0
  2  3  1  0  0  0  0
  2  1  2  0  0  0  0
  4 13  1  0  0  0  0
  5  9  1  0  0  0  0
  7 15  1  0  0  0  0
  8 14  2  0  0  0  0
 10 11  2  0  0  0  0
 11  8  1  0  0  0  0
 11 17  1  0  0  0  0
 12 10  1  0  0  0  0
 13  6  2  0  0  0  0
 14  6  1  0  0  0  0
 14  9  1  0  0  0  0
 15  4  2  0  0  0  0
 15  8  1  0  0  0  0
 16  7  2  0  0  0  0
 16 10  1  0  0  0  0
 17  3  1  6  0  0  0
 17  5  1  0  0  0  0
 18  2  1  0  0  0  0
 18 19  1  1  0  0  0
 20 18  1  1  0  0  0
 21 20  1  0  0  0  0
 22 24  1  0  0  0  0
 22 21  1  0  0  0  0
 23 20  1  0  0  0  0
 24 23  1  0  0  0  0
 25 18  1  0  0  0  0
 25 26  1  0  0  0  0
 26 29  1  0  0  0  0
 27 28  1  0  0  0  0
 29 27  1  0  0  0  0
 30 29  1  0  0  0  0
 30 31  1  0  0  0  0
 31 28  1  0  0  0  0
M  END
>  <MODEL>
1

>  <REMARK>
 VINA RESULT:      -7.9      0.000      0.000
  Name = 
  6 active torsions:
  status: ('A' for Active; 'I' for Inactive)
    1  A    between atoms: C_1  and  C_10
    2  A    between atoms: C_1  and  N_20
    3  A    between atoms: C_1  and  C_27
    4  A    between atoms: C_13  and  N_20
    5  A    between atoms: C_13  and  C_22
    6  A    between atoms: C_26  and  N_28
                            x       y       z     vdW  Elec       q    Type
                         _______ _______ _______ _____ _____    ______ ____

>  <TORSDO>
F 6

$$$$
=
 OpenBabel11042417173D

 31 35  0  0  1  0  0  0  0  0999 V2000
  191.8570  177.1970  145.0860 O   0  0  0  0  0  0  0  0  0  0  0  0
  191.2200  176.2460  144.5540 C   0  0  0  0  0  0  0  0  0  0  0  0
  189.7870  176.2810  144.5170 N   0  0  0  0  0  2  0  0  0  0  0  0
  184.2690  178.6180  144.5350 N   0  0  0  0  0  0  0  0  0  0  0  0
  188.5210  176.8020  146.5120 C   0  0  0  0  0  2  0  0  0  0  0  0
  185.0970  178.2230  146.7420 C   0  0  0  0  0  3  0  0  0  0  0  0
  185.6880  178.5300  142.6620 N   0  0  0  0  0  0  0  0  0  0  0  0
  186.5790  178.0360  144.8320 C   0  0  0  0  0  0  0  0  0  0  0  0
  187.5100  177.7390  147.1530 C   0  0  0  0  0  2  0  0  0  0  0  0
  188.0110  177.9890  142.8740 C   0  0  0  0  0  0  0  0  0  0  0  0
  187.8460  177.7650  144.2620 C   0  0  0  0  0  0  0  0  0  0  0  0
  189.3360  177.8910  142.1960 C   0  0  0  0  0  1  0  0  0  0  0  0
  184.0490  178.5360  145.8750 C   0  0  0  0  0  3  0  0  0  0  0  0
  186.3670  177.9670  146.2200 C   0  0  0  0  0  0  0  0  0  0  0  0
  185.4980  178.3910  143.9980 C   0  0  0  0  0  0  0  0  0  0  0  0
  186.9100  178.3530  142.0960 C   0  0  0  0  0  3  0  0  0  0  0  0
  189.0050  177.3330  145.1570 C   0  0  2  0  0  3  0  0  0  0  0  0
  191.9550  175.0290  144.0280 C   0  0  1  0  0  0  0  0  0  0  0  0
  192.6180  175.3530  142.6840 C   0  0  0  0  0  1  0  0  0  0  0  0
  193.0590  174.6530  145.0380 C   0  0  1  0  0  3  0  0  0  0  0  0
  192.8510  173.3610  145.5690 O   0  0  0  0  0  0  0  0  0  0  0  0
  194.0770  172.6720  145.4890 C   0  0  0  0  0  2  0  0  0  0  0  0
  194.4520  174.7330  144.4420 C   0  0  0  0  0  2  0  0  0  0  0  0
  195.1780  173.6420  145.1500 C   0  0  0  0  0  2  0  0  0  0  0  0
  191.0380  173.8860  143.8810 N   0  0  0  0  0  2  0  0  0  0  0  0
  191.2250  173.2060  142.5970 C   0  0  0  0  0  2  0  0  0  0  0  0
  189.8410  174.0950  140.6900 C   0  0  0  0  0  2  0  0  0  0  0  0
  188.3910  174.5120  140.6170 C   0  0  0  0  0  2  0  0  0  0  0  0
  189.9110  173.1000  141.8330 C   0  0  0  0  0  3  0  0  0  0  0  0
  188.7150  173.3670  142.7340 C   0  0  0  0  0  2  0  0  0  0  0  0
  187.8710  174.4200  142.0370 C   0  0  0  0  0  2  0  0  0  0  0  0
  2  1  2  0  0  0  0
  3  2  1  0  0  0  0
  4 13  1  0  0  0  0
  5  9  1  0  0  0  0
  7 15  1  0  0  0  0
  8 14  2  0  0  0  0
 10 11  2  0  0  0  0
 11  8  1  0  0  0  0
 11 17  1  0  0  0  0
 12 10  1  0  0  0  0
 13  6  2  0  0  0  0
 14  6  1  0  0  0  0
 14  9  1  0  0  0  0
 15  4  2  0  0  0  0
 15  8  1  0  0  0  0
 16  7  2  0  0  0  0
 16 10  1  0  0  0  0
 17  3  1  6  0  0  0
 17  5  1  0  0  0  0
 18 19  1  6  0  0  0
 18  2  1  0  0  0  0
 20 18  1  6  0  0  0
 20 21  1  0  0  0  0
 22 21  1  0  0  0  0
 23 20  1  0  0  0  0
 23 24  1  0  0  0  0
 24 22  1  0  0  0  0
 25 18  1  0  0  0  0
 26 25  1  0  0  0  0
 27 29  1  0  0  0  0
 28 27  1  0  0  0  0
 28 31  1  0  0  0  0
 29 26  1  0  0  0  0
 29 30  1  0  0  0  0
 31 30  1  0  0  0  0
M  END
>  <MODEL>
2

>  <REMARK>
 VINA RESULT:      -7.8      1.436      3.818
  Name = 
  6 active torsions:
  status: ('A' for Active; 'I' for Inactive)
    1  A    between atoms: C_1  and  C_10
    2  A    between atoms: C_1  and  N_20
    3  A    between atoms: C_1  and  C_27
    4  A    between atoms: C_13  and  N_20
    5  A    between atoms: C_13  and  C_22
    6  A    between atoms: C_26  and  N_28
                            x       y       z     vdW  Elec       q    Type
                         _______ _______ _______ _____ _____    ______ ____

>  <TORSDO>
F 6

$$$$
=
 OpenBabel11042417173D

 31 35  0  0  1  0  0  0  0  0999 V2000
  190.6880  174.5820  142.4580 O   0  0  0  0  0  0  0  0  0  0  0  0
  191.1550  175.3950  143.3030 C   0  0  0  0  0  0  0  0  0  0  0  0
  190.2930  176.3680  143.9060 N   0  0  0  0  0  2  0  0  0  0  0  0
  185.2720  179.1150  145.6830 N   0  0  0  0  0  0  0  0  0  0  0  0
  188.8270  177.6290  142.4530 C   0  0  0  0  0  2  0  0  0  0  0  0
  185.7000  179.4190  143.3520 C   0  0  0  0  0  3  0  0  0  0  0  0
  186.4550  177.5230  146.9460 N   0  0  0  0  0  0  0  0  0  0  0  0
  187.0040  177.8270  144.6330 C   0  0  0  0  0  0  0  0  0  0  0  0
  187.3920  178.0330  142.1530 C   0  0  0  0  0  2  0  0  0  0  0  0
  188.1750  176.1750  145.9680 C   0  0  0  0  0  0  0  0  0  0  0  0
  188.0340  176.8630  144.7400 C   0  0  0  0  0  0  0  0  0  0  0  0
  189.1170  175.0320  146.1470 C   0  0  0  0  0  1  0  0  0  0  0  0
  184.9940  179.7460  144.5110 C   0  0  0  0  0  3  0  0  0  0  0  0
  186.7120  178.4600  143.4120 C   0  0  0  0  0  0  0  0  0  0  0  0
  186.2410  178.1640  145.7700 C   0  0  0  0  0  0  0  0  0  0  0  0
  187.3830  176.5380  147.0600 C   0  0  0  0  0  3  0  0  0  0  0  0
  188.8950  176.5330  143.5230 C   0  0  2  0  0  3  0  0  0  0  0  0
  192.6370  175.4060  143.6200 C   0  0  1  0  0  0  0  0  0  0  0  0
  193.4390  175.8200  142.3800 C   0  0  0  0  0  1  0  0  0  0  0  0
  192.8900  176.4450  144.7320 C   0  0  1  0  0  3  0  0  0  0  0  0
  192.5110  175.9460  145.9970 O   0  0  0  0  0  0  0  0  0  0  0  0
  193.5710  176.2100  146.8870 C   0  0  0  0  0  2  0  0  0  0  0  0
  194.3330  176.9090  144.7860 C   0  0  0  0  0  2  0  0  0  0  0  0
  194.5480  177.1570  146.2390 C   0  0  0  0  0  2  0  0  0  0  0  0
  193.0810  174.0850  144.0960 N   0  0  0  0  0  2  0  0  0  0  0  0
  194.0580  173.4830  143.1850 C   0  0  0  0  0  2  0  0  0  0  0  0
  195.1880  173.2680  145.4250 C   0  0  0  0  0  2  0  0  0  0  0  0
  196.5550  173.7020  145.9010 C   0  0  0  0  0  2  0  0  0  0  0  0
  195.3300  173.0870  143.9250 C   0  0  0  0  0  3  0  0  0  0  0  0
  196.5200  173.9230  143.4830 C   0  0  0  0  0  2  0  0  0  0  0  0
  197.1600  174.4730  144.7460 C   0  0  0  0  0  2  0  0  0  0  0  0
  1  2  2  0  0  0  0
  2 18  1  0  0  0  0
  2  3  1  0  0  0  0
  4 15  2  0  0  0  0
  5 17  1  0  0  0  0
  6 14  1  0  0  0  0
  6 13  2  0  0  0  0
  7 16  2  0  0  0  0
  8 11  1  0  0  0  0
  8 15  1  0  0  0  0
  9  5  1  0  0  0  0
  9 14  1  0  0  0  0
 10 12  1  0  0  0  0
 10 16  1  0  0  0  0
 11 10  2  0  0  0  0
 13  4  1  0  0  0  0
 14  8  2  0  0  0  0
 15  7  1  0  0  0  0
 17  3  1  1  0  0  0
 17 11  1  0  0  0  0
 18 19  1  6  0  0  0
 18 25  1  0  0  0  0
 20 18  1  6  0  0  0
 20 23  1  0  0  0  0
 20 21  1  0  0  0  0
 21 22  1  0  0  0  0
 23 24  1  0  0  0  0
 24 22  1  0  0  0  0
 26 29  1  0  0  0  0
 26 25  1  0  0  0  0
 27 28  1  0  0  0  0
 29 27  1  0  0  0  0
 30 29  1  0  0  0  0
 30 31  1  0  0  0  0
 31 28  1  0  0  0  0
M  END
>  <MODEL>
3

>  <REMARK>
 VINA RESULT:      -7.7      1.709      3.884
  Name = 
  6 active torsions:
  status: ('A' for Active; 'I' for Inactive)
    1  A    between atoms: C_1  and  C_10
    2  A    between atoms: C_1  and  N_20
    3  A    between atoms: C_1  and  C_27
    4  A    between atoms: C_13  and  N_20
    5  A    between atoms: C_13  and  C_22
    6  A    between atoms: C_26  and  N_28
                            x       y       z     vdW  Elec       q    Type
                         _______ _______ _______ _____ _____    ______ ____

>  <TORSDO>
F 6

$$$$
=
 OpenBabel11042417173D

 31 35  0  0  1  0  0  0  0  0999 V2000
  190.0930  173.4640  143.8190 O   0  0  0  0  0  0  0  0  0  0  0  0
  190.7080  174.4430  144.3250 C   0  0  0  0  0  0  0  0  0  0  0  0
  190.0300  175.6920  144.5090 N   0  0  0  0  0  2  0  0  0  0  0  0
  185.4330  179.4520  145.3110 N   0  0  0  0  0  0  0  0  0  0  0  0
  188.7400  176.6870  142.7210 C   0  0  0  0  0  2  0  0  0  0  0  0
  185.8860  179.0480  143.0000 C   0  0  0  0  0  3  0  0  0  0  0  0
  186.3980  178.1270  146.9970 N   0  0  0  0  0  0  0  0  0  0  0  0
  186.9710  177.7110  144.7060 C   0  0  0  0  0  0  0  0  0  0  0  0
  187.3700  177.1770  142.2780 C   0  0  0  0  0  2  0  0  0  0  0  0
  187.9160  176.3490  146.4780 C   0  0  0  0  0  0  0  0  0  0  0  0
  187.8630  176.6870  145.1040 C   0  0  0  0  0  0  0  0  0  0  0  0
  188.6970  175.1860  146.9900 C   0  0  0  0  0  1  0  0  0  0  0  0
  185.2370  179.7680  144.0030 C   0  0  0  0  0  3  0  0  0  0  0  0
  186.7600  178.0170  143.3510 C   0  0  0  0  0  0  0  0  0  0  0  0
  186.2660  178.4430  145.6840 C   0  0  0  0  0  0  0  0  0  0  0  0
  187.1870  177.0980  147.4040 C   0  0  0  0  0  3  0  0  0  0  0  0
  188.6650  175.9260  144.0510 C   0  0  2  0  0  3  0  0  0  0  0  0
  192.1820  174.3320  144.6600 C   0  0  1  0  0  0  0  0  0  0  0  0
  192.4080  174.6300  146.1480 C   0  0  0  0  0  1  0  0  0  0  0  0
  192.6390  172.8860  144.3790 C   0  0  1  0  0  3  0  0  0  0  0  0
  193.1510  172.7550  143.0690 O   0  0  0  0  0  0  0  0  0  0  0  0
  194.3740  172.0630  143.1640 C   0  0  0  0  0  2  0  0  0  0  0  0
  193.6710  172.3910  145.3730 C   0  0  0  0  0  2  0  0  0  0  0  0
  194.5210  171.4870  144.5480 C   0  0  0  0  0  2  0  0  0  0  0  0
  192.9790  175.2510  143.8300 N   0  0  0  0  0  2  0  0  0  0  0  0
  193.6420  176.2750  144.6420 C   0  0  0  0  0  2  0  0  0  0  0  0
  195.5080  175.7940  143.0210 C   0  0  0  0  0  2  0  0  0  0  0  0
  196.7990  175.0260  143.1820 C   0  0  0  0  0  2  0  0  0  0  0  0
  195.1500  176.2640  144.4180 C   0  0  0  0  0  3  0  0  0  0  0  0
  195.8560  175.3400  145.3980 C   0  0  0  0  0  2  0  0  0  0  0  0
  196.7410  174.4240  144.5710 C   0  0  0  0  0  2  0  0  0  0  0  0
  1  2  2  0  0  0  0
  2  3  1  0  0  0  0
  2 18  1  0  0  0  0
  4 15  2  0  0  0  0
  5 17  1  0  0  0  0
  6 14  1  0  0  0  0
  6 13  2  0  0  0  0
  7 16  2  0  0  0  0
  8 11  1  0  0  0  0
  8 15  1  0  0  0  0
  9  5  1  0  0  0  0
  9 14  1  0  0  0  0
 10 12  1  0  0  0  0
 10 16  1  0  0  0  0
 11 10  2  0  0  0  0
 13  4  1  0  0  0  0
 14  8  2  0  0  0  0
 15  7  1  0  0  0  0
 17  3  1  1  0  0  0
 17 11  1  0  0  0  0
 18 19  1  1  0  0  0
 20 18  1  1  0  0  0
 20 23  1  0  0  0  0
 21 22  1  0  0  0  0
 21 20  1  0  0  0  0
 22 24  1  0  0  0  0
 24 23  1  0  0  0  0
 25 26  1  0  0  0  0
 25 18  1  0  0  0  0
 27 28  1  0  0  0  0
 27 29  1  0  0  0  0
 28 31  1  0  0  0  0
 29 26  1  0  0  0  0
 29 30  1  0  0  0  0
 31 30  1  0  0  0  0
M  END
>  <MODEL>
4

>  <REMARK>
 VINA RESULT:      -7.3      1.972      3.508
  Name = 
  6 active torsions:
  status: ('A' for Active; 'I' for Inactive)
    1  A    between atoms: C_1  and  C_10
    2  A    between atoms: C_1  and  N_20
    3  A    between atoms: C_1  and  C_27
    4  A    between atoms: C_13  and  N_20
    5  A    between atoms: C_13  and  C_22
    6  A    between atoms: C_26  and  N_28
                            x       y       z     vdW  Elec       q    Type
                         _______ _______ _______ _____ _____    ______ ____

>  <TORSDO>
F 6

$$$$
=
 OpenBabel11042417173D

 31 35  0  0  1  0  0  0  0  0999 V2000
  190.8710  175.6720  145.8090 O   0  0  0  0  0  0  0  0  0  0  0  0
  190.1940  175.1550  144.8770 C   0  0  0  0  0  0  0  0  0  0  0  0
  188.9340  175.7310  144.5090 N   0  0  0  0  0  2  0  0  0  0  0  0
  184.0390  179.1870  144.4920 N   0  0  0  0  0  0  0  0  0  0  0  0
  187.6390  176.2890  146.4740 C   0  0  0  0  0  2  0  0  0  0  0  0
  184.5770  178.3810  146.6760 C   0  0  0  0  0  3  0  0  0  0  0  0
  185.5620  179.0020  142.7110 N   0  0  0  0  0  0  0  0  0  0  0  0
  186.1440  178.0910  144.8510 C   0  0  0  0  0  0  0  0  0  0  0  0
  186.7930  177.3460  147.1670 C   0  0  0  0  0  2  0  0  0  0  0  0
  187.6960  177.9530  142.9910 C   0  0  0  0  0  0  0  0  0  0  0  0
  187.3710  177.6180  144.3270 C   0  0  0  0  0  0  0  0  0  0  0  0
  189.0250  177.6470  142.3860 C   0  0  0  0  0  1  0  0  0  0  0  0
  183.6940  179.0070  145.7950 C   0  0  0  0  0  3  0  0  0  0  0  0
  185.8050  177.9170  146.2040 C   0  0  0  0  0  0  0  0  0  0  0  0
  185.2350  178.7600  144.0050 C   0  0  0  0  0  0  0  0  0  0  0  0
  186.7640  178.6290  142.2000 C   0  0  0  0  0  3  0  0  0  0  0  0
  188.3350  176.8490  145.2280 C   0  0  2  0  0  3  0  0  0  0  0  0
  190.6640  173.8820  144.2020 C   0  0  1  0  0  0  0  0  0  0  0  0
  190.1410  172.6570  144.9630 C   0  0  0  0  0  1  0  0  0  0  0  0
  190.0890  173.8490  142.7720 C   0  0  1  0  0  3  0  0  0  0  0  0
  190.9850  174.4260  141.8440 O   0  0  0  0  0  0  0  0  0  0  0  0
  191.0880  173.5410  140.7530 C   0  0  0  0  0  2  0  0  0  0  0  0
  189.7290  172.4480  142.3150 C   0  0  0  0  0  2  0  0  0  0  0  0
  190.0120  172.4910  140.8540 C   0  0  0  0  0  2  0  0  0  0  0  0
  192.1340  173.8430  144.1230 N   0  0  0  0  0  2  0  0  0  0  0  0
  192.6860  172.7260  144.8960 C   0  0  0  0  0  2  0  0  0  0  0  0
  194.0260  172.5390  142.7710 C   0  0  0  0  0  2  0  0  0  0  0  0
  194.0450  171.4820  141.6920 C   0  0  0  0  0  2  0  0  0  0  0  0
  193.5450  171.8220  144.0190 C   0  0  0  0  0  3  0  0  0  0  0  0
  192.7790  170.5910  143.5620 C   0  0  0  0  0  2  0  0  0  0  0  0
  192.9400  170.5130  142.0540 C   0  0  0  0  0  2  0  0  0  0  0  0
  2  1  2  0  0  0  0
  3  2  1  0  0  0  0
  4 13  1  0  0  0  0
  5  9  1  0  0  0  0
  7 15  1  0  0  0  0
  8 14  2  0  0  0  0
 10 11  2  0  0  0  0
 11  8  1  0  0  0  0
 11 17  1  0  0  0  0
 12 10  1  0  0  0  0
 13  6  2  0  0  0  0
 14  6  1  0  0  0  0
 14  9  1  0  0  0  0
 15  4  2  0  0  0  0
 15  8  1  0  0  0  0
 16  7  2  0  0  0  0
 16 10  1  0  0  0  0
 17  3  1  6  0  0  0
 17  5  1  0  0  0  0
 18  2  1  0  0  0  0
 18 19  1  1  0  0  0
 20 18  1  1  0  0  0
 21 20  1  0  0  0  0
 22 24  1  0  0  0  0
 22 21  1  0  0  0  0
 23 20  1  0  0  0  0
 24 23  1  0  0  0  0
 25 18  1  0  0  0  0
 25 26  1  0  0  0  0
 27 29  1  0  0  0  0
 28 31  1  0  0  0  0
 28 27  1  0  0  0  0
 29 26  1  0  0  0  0
 30 29  1  0  0  0  0
 31 30  1  0  0  0  0
M  END
>  <MODEL>
5

>  <REMARK>
 VINA RESULT:      -7.3      1.783      2.563
  Name = 
  6 active torsions:
  status: ('A' for Active; 'I' for Inactive)
    1  A    between atoms: C_1  and  C_10
    2  A    between atoms: C_1  and  N_20
    3  A    between atoms: C_1  and  C_27
    4  A    between atoms: C_13  and  N_20
    5  A    between atoms: C_13  and  C_22
    6  A    between atoms: C_26  and  N_28
                            x       y       z     vdW  Elec       q    Type
                         _______ _______ _______ _____ _____    ______ ____

>  <TORSDO>
F 6

$$$$
=
 OpenBabel11042417173D

 31 35  0  0  1  0  0  0  0  0999 V2000
  190.3300  177.5770  145.0550 O   0  0  0  0  0  0  0  0  0  0  0  0
  189.4810  176.6440  145.0820 C   0  0  0  0  0  0  0  0  0  0  0  0
  189.9090  175.3010  145.3440 N   0  0  0  0  0  2  0  0  0  0  0  0
  195.2120  175.9890  142.6390 N   0  0  0  0  0  0  0  0  0  0  0  0
  191.9580  175.9200  146.4720 C   0  0  0  0  0  2  0  0  0  0  0  0
  195.3250  176.4210  144.9870 C   0  0  0  0  0  3  0  0  0  0  0  0
  193.3330  174.9560  141.6740 N   0  0  0  0  0  0  0  0  0  0  0  0
  193.3310  175.4340  144.0240 C   0  0  0  0  0  0  0  0  0  0  0  0
  193.4690  175.7590  146.5170 C   0  0  0  0  0  2  0  0  0  0  0  0
  191.4290  174.3410  142.9890 C   0  0  0  0  0  0  0  0  0  0  0  0
  192.0170  174.9230  144.1370 C   0  0  0  0  0  0  0  0  0  0  0  0
  190.1170  173.6320  143.0290 C   0  0  0  0  0  1  0  0  0  0  0  0
  195.8950  176.4660  143.7140 C   0  0  0  0  0  3  0  0  0  0  0  0
  194.0360  175.9070  145.1440 C   0  0  0  0  0  0  0  0  0  0  0  0
  193.9620  175.4670  142.7620 C   0  0  0  0  0  0  0  0  0  0  0  0
  192.1030  174.3890  141.7660 C   0  0  0  0  0  3  0  0  0  0  0  0
  191.3120  174.9320  145.4920 C   0  0  2  0  0  3  0  0  0  0  0  0
  188.0270  176.9190  144.7580 C   0  0  1  0  0  0  0  0  0  0  0  0
  187.5140  175.9020  143.7300 C   0  0  0  0  0  1  0  0  0  0  0  0
  187.2010  176.7610  146.0510 C   0  0  1  0  0  3  0  0  0  0  0  0
  187.4810  177.7970  146.9690 O   0  0  0  0  0  0  0  0  0  0  0  0
  186.2470  178.2980  147.4260 C   0  0  0  0  0  2  0  0  0  0  0  0
  185.7080  176.7100  145.7930 C   0  0  0  0  0  2  0  0  0  0  0  0
  185.1390  177.3710  147.0000 C   0  0  0  0  0  2  0  0  0  0  0  0
  187.8540  178.2890  144.2490 N   0  0  0  0  0  2  0  0  0  0  0  0
  187.4410  178.2950  142.8430 C   0  0  0  0  0  2  0  0  0  0  0  0
  185.6100  179.6080  143.9690 C   0  0  0  0  0  2  0  0  0  0  0  0
  184.1060  179.5060  143.8780 C   0  0  0  0  0  2  0  0  0  0  0  0
  186.1260  179.0430  142.6580 C   0  0  0  0  0  3  0  0  0  0  0  0
  185.0380  178.1380  142.1020 C   0  0  0  0  0  2  0  0  0  0  0  0
  183.8340  178.2920  143.0140 C   0  0  0  0  0  2  0  0  0  0  0  0
  1  2  2  0  0  0  0
  2  3  1  0  0  0  0
  4 15  2  0  0  0  0
  4 13  1  0  0  0  0
  5  9  1  0  0  0  0
  6 14  1  0  0  0  0
  7 16  2  0  0  0  0
  7 15  1  0  0  0  0
  8 11  1  0  0  0  0
  8 14  2  0  0  0  0
 10 12  1  0  0  0  0
 10 11  2  0  0  0  0
 11 17  1  0  0  0  0
 13  6  2  0  0  0  0
 14  9  1  0  0  0  0
 15  8  1  0  0  0  0
 16 10  1  0  0  0  0
 17  3  1  6  0  0  0
 17  5  1  0  0  0  0
 18 19  1  6  0  0  0
 18  2  1  0  0  0  0
 20 18  1  6  0  0  0
 20 21  1  0  0  0  0
 21 22  1  0  0  0  0
 23 20  1  0  0  0  0
 23 24  1  0  0  0  0
 24 22  1  0  0  0  0
 25 18  1  0  0  0  0
 26 25  1  0  0  0  0
 28 27  1  0  0  0  0
 29 26  1  0  0  0  0
 29 27  1  0  0  0  0
 30 29  1  0  0  0  0
 30 31  1  0  0  0  0
 31 28  1  0  0  0  0
M  END
>  <MODEL>
6

>  <REMARK>
 VINA RESULT:      -7.2      1.863      7.818
  Name = 
  6 active torsions:
  status: ('A' for Active; 'I' for Inactive)
    1  A    between atoms: C_1  and  C_10
    2  A    between atoms: C_1  and  N_20
    3  A    between atoms: C_1  and  C_27
    4  A    between atoms: C_13  and  N_20
    5  A    between atoms: C_13  and  C_22
    6  A    between atoms: C_26  and  N_28
                            x       y       z     vdW  Elec       q    Type
                         _______ _______ _______ _____ _____    ______ ____

>  <TORSDO>
F 6

$$$$
=
 OpenBabel11042417173D

 31 35  0  0  1  0  0  0  0  0999 V2000
  190.0790  175.3820  142.3830 O   0  0  0  0  0  0  0  0  0  0  0  0
  190.0560  175.6050  143.6250 C   0  0  0  0  0  0  0  0  0  0  0  0
  190.9650  174.9120  144.4890 N   0  0  0  0  0  2  0  0  0  0  0  0
  196.0910  172.1810  145.9660 N   0  0  0  0  0  0  0  0  0  0  0  0
  191.3080  172.5180  144.4530 C   0  0  0  0  0  2  0  0  0  0  0  0
  194.3790  170.6320  145.3500 C   0  0  0  0  0  3  0  0  0  0  0  0
  195.8640  174.4840  145.5510 N   0  0  0  0  0  0  0  0  0  0  0  0
  194.0640  173.0070  144.9800 C   0  0  0  0  0  0  0  0  0  0  0  0
  192.2970  171.3900  144.2040 C   0  0  0  0  0  2  0  0  0  0  0  0
  193.8890  175.3870  144.5420 C   0  0  0  0  0  0  0  0  0  0  0  0
  193.2870  174.1060  144.5450 C   0  0  0  0  0  0  0  0  0  0  0  0
  193.2240  176.5870  143.9580 C   0  0  0  0  0  1  0  0  0  0  0  0
  195.6320  170.9030  145.9010 C   0  0  0  0  0  3  0  0  0  0  0  0
  193.5890  171.6870  144.8910 C   0  0  0  0  0  0  0  0  0  0  0  0
  195.3520  173.2290  145.5130 C   0  0  0  0  0  0  0  0  0  0  0  0
  195.1730  175.5490  145.0690 C   0  0  0  0  0  3  0  0  0  0  0  0
  191.8730  173.8740  144.0150 C   0  0  2  0  0  3  0  0  0  0  0  0
  189.0180  176.5360  144.2180 C   0  0  1  0  0  0  0  0  0  0  0  0
  189.7010  177.7650  144.8330 C   0  0  0  0  0  1  0  0  0  0  0  0
  188.0870  177.0130  143.0850 C   0  0  1  0  0  3  0  0  0  0  0  0
  187.0630  176.0740  142.8320 O   0  0  0  0  0  0  0  0  0  0  0  0
  185.8470  176.7830  142.7780 C   0  0  0  0  0  2  0  0  0  0  0  0
  187.4660  178.3690  143.3650 C   0  0  0  0  0  2  0  0  0  0  0  0
  186.1290  178.2620  142.7190 C   0  0  0  0  0  2  0  0  0  0  0  0
  188.2100  175.8410  145.2340 N   0  0  0  0  0  2  0  0  0  0  0  0
  188.3040  176.4990  146.5410 C   0  0  0  0  0  2  0  0  0  0  0  0
  185.8300  176.5690  146.0750 C   0  0  0  0  0  2  0  0  0  0  0  0
  184.7910  177.6310  146.3510 C   0  0  0  0  0  2  0  0  0  0  0  0
  186.9210  176.8060  147.1030 C   0  0  0  0  0  3  0  0  0  0  0  0
  186.8070  178.2550  147.5520 C   0  0  0  0  0  2  0  0  0  0  0  0
  185.5580  178.8170  146.8960 C   0  0  0  0  0  2  0  0  0  0  0  0
  1  2  2  0  0  0  0
  2 18  1  0  0  0  0
  2  3  1  0  0  0  0
  6 13  2  0  0  0  0
  8 15  1  0  0  0  0
  9  5  1  0  0  0  0
  9 14  1  0  0  0  0
 10 11  2  0  0  0  0
 10 16  1  0  0  0  0
 11  8  1  0  0  0  0
 12 10  1  0  0  0  0
 13  4  1  0  0  0  0
 14  8  2  0  0  0  0
 14  6  1  0  0  0  0
 15  7  1  0  0  0  0
 15  4  2  0  0  0  0
 16  7  2  0  0  0  0
 17  5  1  0  0  0  0
 17  3  1  1  0  0  0
 17 11  1  0  0  0  0
 18 19  1  1  0  0  0
 18 25  1  0  0  0  0
 20 23  1  0  0  0  0
 20 18  1  1  0  0  0
 21 20  1  0  0  0  0
 22 21  1  0  0  0  0
 24 22  1  0  0  0  0
 24 23  1  0  0  0  0
 25 26  1  0  0  0  0
 26 29  1  0  0  0  0
 27 28  1  0  0  0  0
 27 29  1  0  0  0  0
 28 31  1  0  0  0  0
 29 30  1  0  0  0  0
 31 30  1  0  0  0  0
M  END
>  <MODEL>
7

>  <REMARK>
 VINA RESULT:      -7.2      2.200      8.029
  Name = 
  6 active torsions:
  status: ('A' for Active; 'I' for Inactive)
    1  A    between atoms: C_1  and  C_10
    2  A    between atoms: C_1  and  N_20
    3  A    between atoms: C_1  and  C_27
    4  A    between atoms: C_13  and  N_20
    5  A    between atoms: C_13  and  C_22
    6  A    between atoms: C_26  and  N_28
                            x       y       z     vdW  Elec       q    Type
                         _______ _______ _______ _____ _____    ______ ____

>  <TORSDO>
F 6

$$$$
=
 OpenBabel11042417173D

 31 35  0  0  1  0  0  0  0  0999 V2000
  190.4710  177.4720  142.9550 O   0  0  0  0  0  0  0  0  0  0  0  0
  190.7500  176.2900  143.3000 C   0  0  0  0  0  0  0  0  0  0  0  0
  189.6970  175.3360  143.4860 N   0  0  0  0  0  2  0  0  0  0  0  0
  185.7550  179.3890  145.4740 N   0  0  0  0  0  0  0  0  0  0  0  0
  188.0900  176.4910  142.0930 C   0  0  0  0  0  2  0  0  0  0  0  0
  185.5920  179.0410  143.1160 C   0  0  0  0  0  3  0  0  0  0  0  0
  186.9950  177.9340  146.8420 N   0  0  0  0  0  0  0  0  0  0  0  0
  186.9520  177.5640  144.4740 C   0  0  0  0  0  0  0  0  0  0  0  0
  186.6980  177.0960  142.0120 C   0  0  0  0  0  2  0  0  0  0  0  0
  188.1910  176.0710  145.9290 C   0  0  0  0  0  0  0  0  0  0  0  0
  187.8300  176.4640  144.6190 C   0  0  0  0  0  0  0  0  0  0  0  0
  188.9780  174.8360  146.2100 C   0  0  0  0  0  1  0  0  0  0  0  0
  185.2690  179.7690  144.2620 C   0  0  0  0  0  3  0  0  0  0  0  0
  186.4390  177.9370  143.2190 C   0  0  0  0  0  0  0  0  0  0  0  0
  186.5700  178.3090  145.6100 C   0  0  0  0  0  0  0  0  0  0  0  0
  187.7750  176.8360  147.0210 C   0  0  0  0  0  3  0  0  0  0  0  0
  188.2840  175.6870  143.3850 C   0  0  2  0  0  3  0  0  0  0  0  0
  192.1820  175.8960  143.6010 C   0  0  1  0  0  0  0  0  0  0  0  0
  193.0620  176.1240  142.3650 C   0  0  0  0  0  1  0  0  0  0  0  0
  192.7040  176.7910  144.7430 C   0  0  1  0  0  3  0  0  0  0  0  0
  191.9460  176.6160  145.9210 O   0  0  0  0  0  0  0  0  0  0  0  0
  192.8540  176.4420  146.9830 C   0  0  0  0  0  2  0  0  0  0  0  0
  194.1710  176.5560  145.0510 C   0  0  0  0  0  2  0  0  0  0  0  0
  194.2440  176.7910  146.5190 C   0  0  0  0  0  2  0  0  0  0  0  0
  192.2590  174.4890  144.0290 N   0  0  0  0  0  2  0  0  0  0  0  0
  192.7920  173.6300  142.9670 C   0  0  0  0  0  2  0  0  0  0  0  0
  190.9300  172.5790  141.6360 C   0  0  0  0  0  2  0  0  0  0  0  0
  189.6920  171.8300  142.0690 C   0  0  0  0  0  2  0  0  0  0  0  0
  191.9220  172.3950  142.7690 C   0  0  0  0  0  3  0  0  0  0  0  0
  191.1190  172.0680  144.0190 C   0  0  0  0  0  2  0  0  0  0  0  0
  189.6730  171.9180  143.5810 C   0  0  0  0  0  2  0  0  0  0  0  0
  1  2  2  0  0  0  0
  2  3  1  0  0  0  0
  2 18  1  0  0  0  0
  4 15  2  0  0  0  0
  5 17  1  0  0  0  0
  6 14  1  0  0  0  0
  6 13  2  0  0  0  0
  7 16  2  0  0  0  0
  8 11  1  0  0  0  0
  8 15  1  0  0  0  0
  9  5  1  0  0  0  0
  9 14  1  0  0  0  0
 10 12  1  0  0  0  0
 10 16  1  0  0  0  0
 11 10  2  0  0  0  0
 13  4  1  0  0  0  0
 14  8  2  0  0  0  0
 15  7  1  0  0  0  0
 17  3  1  1  0  0  0
 17 11  1  0  0  0  0
 18 19  1  6  0  0  0
 18 25  1  0  0  0  0
 20 18  1  6  0  0  0
 20 23  1  0  0  0  0
 20 21  1  0  0  0  0
 21 22  1  0  0  0  0
 23 24  1  0  0  0  0
 24 22  1  0  0  0  0
 26 25  1  0  0  0  0
 27 28  1  0  0  0  0
 27 29  1  0  0  0  0
 28 31  1  0  0  0  0
 29 26  1  0  0  0  0
 29 30  1  0  0  0  0
 31 30  1  0  0  0  0
M  END
>  <MODEL>
8

>  <REMARK>
 VINA RESULT:      -7.2      1.639      4.489
  Name = 
  6 active torsions:
  status: ('A' for Active; 'I' for Inactive)
    1  A    between atoms: C_1  and  C_10
    2  A    between atoms: C_1  and  N_20
    3  A    between atoms: C_1  and  C_27
    4  A    between atoms: C_13  and  N_20
    5  A    between atoms: C_13  and  C_22
    6  A    between atoms: C_26  and  N_28
                            x       y       z     vdW  Elec       q    Type
                         _______ _______ _______ _____ _____    ______ ____

>  <TORSDO>
F 6

$$$$
=
 OpenBabel11042417173D

 31 35  0  0  1  0  0  0  0  0999 V2000
  190.3380  175.7870  146.8000 O   0  0  0  0  0  0  0  0  0  0  0  0
  190.4130  175.7520  145.5410 C   0  0  0  0  0  0  0  0  0  0  0  0
  191.5420  175.1320  144.9120 N   0  0  0  0  0  2  0  0  0  0  0  0
  196.6160  172.0420  144.1240 N   0  0  0  0  0  0  0  0  0  0  0  0
  193.6870  175.7500  145.8440 C   0  0  0  0  0  2  0  0  0  0  0  0
  196.9390  173.9980  145.4580 C   0  0  0  0  0  3  0  0  0  0  0  0
  194.4610  171.2410  143.6300 N   0  0  0  0  0  0  0  0  0  0  0  0
  194.6980  173.2590  144.9020 C   0  0  0  0  0  0  0  0  0  0  0  0
  195.0040  175.2490  146.4150 C   0  0  0  0  0  2  0  0  0  0  0  0
  192.4960  172.3760  144.3950 C   0  0  0  0  0  0  0  0  0  0  0  0
  193.2920  173.4070  144.9490 C   0  0  0  0  0  0  0  0  0  0  0  0
  191.0110  172.3470  144.5270 C   0  0  0  0  0  1  0  0  0  0  0  0
  197.4540  172.9270  144.7260 C   0  0  0  0  0  3  0  0  0  0  0  0
  195.5560  174.1690  145.5440 C   0  0  0  0  0  0  0  0  0  0  0  0
  195.2640  172.1720  144.2030 C   0  0  0  0  0  0  0  0  0  0  0  0
  193.1080  171.3140  143.7250 C   0  0  0  0  0  3  0  0  0  0  0  0
  192.6780  174.6100  145.6630 C   0  0  2  0  0  3  0  0  0  0  0  0
  189.3610  176.4340  144.6900 C   0  0  1  0  0  0  0  0  0  0  0  0
  189.6780  177.9300  144.5570 C   0  0  0  0  0  1  0  0  0  0  0  0
  189.3880  175.8040  143.2830 C   0  0  1  0  0  3  0  0  0  0  0  0
  188.6790  174.5830  143.2530 O   0  0  0  0  0  0  0  0  0  0  0  0
  187.8270  174.6180  142.1330 C   0  0  0  0  0  2  0  0  0  0  0  0
  188.8380  176.7290  142.2140 C   0  0  0  0  0  2  0  0  0  0  0  0
  188.1980  175.7850  141.2550 C   0  0  0  0  0  2  0  0  0  0  0  0
  188.0190  176.2480  145.2680 N   0  0  0  0  0  2  0  0  0  0  0  0
  187.4730  177.5070  145.7830 C   0  0  0  0  0  2  0  0  0  0  0  0
  185.7340  176.7920  144.1070 C   0  0  0  0  0  2  0  0  0  0  0  0
  184.9730  177.5730  143.0620 C   0  0  0  0  0  2  0  0  0  0  0  0
  186.1130  177.8110  145.1650 C   0  0  0  0  0  3  0  0  0  0  0  0
  186.0920  179.1780  144.4990 C   0  0  0  0  0  2  0  0  0  0  0  0
  185.5580  178.9690  143.0930 C   0  0  0  0  0  2  0  0  0  0  0  0
  2  1  2  0  0  0  0
  3  2  1  0  0  0  0
  4 15  2  0  0  0  0
  4 13  1  0  0  0  0
  5  9  1  0  0  0  0
  6 14  1  0  0  0  0
  7 16  2  0  0  0  0
  7 15  1  0  0  0  0
  8 11  1  0  0  0  0
  8 14  2  0  0  0  0
 10 12  1  0  0  0  0
 10 11  2  0  0  0  0
 11 17  1  0  0  0  0
 13  6  2  0  0  0  0
 14  9  1  0  0  0  0
 15  8  1  0  0  0  0
 16 10  1  0  0  0  0
 17  3  1  6  0  0  0
 17  5  1  0  0  0  0
 18 19  1  6  0  0  0
 18 25  1  0  0  0  0
 18  2  1  0  0  0  0
 20 18  1  1  0  0  0
 21 20  1  0  0  0  0
 22 21  1  0  0  0  0
 23 20  1  0  0  0  0
 24 22  1  0  0  0  0
 24 23  1  0  0  0  0
 25 26  1  0  0  0  0
 27 29  1  0  0  0  0
 28 31  1  0  0  0  0
 28 27  1  0  0  0  0
 29 26  1  0  0  0  0
 30 29  1  0  0  0  0
 31 30  1  0  0  0  0
M  END
>  <MODEL>
9

>  <REMARK>
 VINA RESULT:      -7.1      2.264      8.151
  Name = 
  6 active torsions:
  status: ('A' for Active; 'I' for Inactive)
    1  A    between atoms: C_1  and  C_10
    2  A    between atoms: C_1  and  N_20
    3  A    between atoms: C_1  and  C_27
    4  A    between atoms: C_13  and  N_20
    5  A    between atoms: C_13  and  C_22
    6  A    between atoms: C_26  and  N_28
                            x       y       z     vdW  Elec       q    Type
                         _______ _______ _______ _____ _____    ______ ____

>  <TORSDO>
F 6

$$$$
