=
 OpenBabel11042416293D

 29 32  0  0  1  0  0  0  0  0999 V2000
  189.5980  177.9840  144.7540 C   0  0  0  0  0  2  0  0  0  0  0  0
  191.3170  171.5930  143.7830 S   0  0  0  0  0  0  0  0  0  0  0  0
  193.0210  174.0480  145.2030 S   0  0  0  0  0  0  0  0  0  0  0  0
  191.1880  173.3020  143.2900 C   0  0  0  0  0  0  0  0  0  0  0  0
  191.6900  175.9910  143.3710 S   0  0  0  0  0  0  0  0  0  0  0  0
  189.5840  172.3310  141.8200 C   0  0  0  0  0  2  0  0  0  0  0  0
  191.7040  175.2950  147.3330 C   0  0  0  0  0  3  0  0  0  0  0  0
  190.3960  177.0770  145.6370 C   0  0  0  0  0  0  0  0  0  0  0  0
  190.1400  177.0600  147.0130 C   0  0  0  0  0  3  0  0  0  0  0  0
  190.2520  173.5420  142.2540 N   0  0  0  0  0  2  0  0  0  0  0  0
  190.4680  171.1560  142.2270 C   0  0  0  0  0  2  0  0  0  0  0  0
  190.7960  176.1830  147.8240 N   0  0  0  0  0  0  0  0  0  0  0  0
  192.0100  175.3050  145.9730 C   0  0  0  0  0  0  0  0  0  0  0  0
  191.9710  174.2720  143.7710 C   0  0  0  0  0  0  0  0  0  0  0  0
  191.3650  176.2030  145.1230 C   0  0  0  0  0  0  0  0  0  0  0  0
  186.6700  175.8470  143.4440 C   0  0  0  0  0  2  0  0  0  0  0  0
  185.5280  176.6450  143.6050 O   0  0  0  0  0  0  0  0  0  0  0  0
  185.3600  176.7620  144.9900 C   0  0  0  0  0  2  0  0  0  0  0  0
  185.8560  178.1220  145.4930 C   0  0  1  0  0  3  0  0  0  0  0  0
  187.1410  178.6120  144.8160 C   0  0  0  0  0  2  0  0  0  0  0  0
  184.8540  179.0780  145.3280 O   0  0  0  0  0  1  0  0  0  0  0  0
  187.9320  176.7110  143.3130 C   0  0  2  0  0  3  0  0  0  0  0  0
  188.1620  177.4870  144.6230 C   0  0  1  0  0  3  0  0  0  0  0  0
  189.0920  178.2540  141.8600 O   0  0  0  0  0  1  0  0  0  0  0  0
  187.8730  177.6000  142.0570 C   0  0  1  0  0  3  0  0  0  0  0  0
  187.5530  176.7670  140.8220 C   0  0  0  0  0  2  0  0  0  0  0  0
  186.3150  177.1000  138.8130 O   0  0  0  0  0  0  0  0  0  0  0  0
  186.4750  177.4130  140.0210 C   0  0  0  0  0  0  0  0  0  0  0  0
  185.6250  178.3340  140.6170 O   0  0  0  0  0  1  0  0  0  0  0  0
  1  8  1  0  0  0  0
  3 13  1  0  0  0  0
  4 14  2  0  0  0  0
  4  2  1  0  0  0  0
  5 14  1  0  0  0  0
  5 15  1  0  0  0  0
  6 11  1  0  0  0  0
  6 10  1  0  0  0  0
  7 12  1  0  0  0  0
  8  9  1  0  0  0  0
  9 12  2  0  0  0  0
 10  4  1  0  0  0  0
 11  2  1  0  0  0  0
 13  7  2  0  0  0  0
 14  3  1  0  0  0  0
 15  8  2  0  0  0  0
 15 13  1  0  0  0  0
 16 17  1  0  0  0  0
 17 18  1  0  0  0  0
 18 19  1  0  0  0  0
 19 21  1  6  0  0  0
 20 19  1  0  0  0  0
 22 25  1  6  0  0  0
 22 16  1  0  0  0  0
 22 23  1  0  0  0  0
 23  1  1  6  0  0  0
 23 20  1  0  0  0  0
 25 24  1  6  0  0  0
 26 25  1  0  0  0  0
 27 28  2  0  0  0  0
 28 29  1  0  0  0  0
 28 26  1  0  0  0  0
M  END
>  <MODEL>
1

>  <REMARK>
 VINA RESULT:      -6.5      0.000      0.000
  Name = 
  5 active torsions:
  status: ('A' for Active; 'I' for Inactive)
    1  A    between atoms: C_4  and  C_23
    2  A    between atoms: C_10  and  C_15
    3  A    between atoms: C_15  and  C_28
    4  A    between atoms: C_23  and  C_24
    5  A    between atoms: C_24  and  C_26
                            x       y       z     vdW  Elec       q    Type
                         _______ _______ _______ _____ _____    ______ ____

>  <TORSDO>
F 5

$$$$
=
 OpenBabel11042416293D

 29 32  0  0  1  0  0  0  0  0999 V2000
  190.8930  174.7710  145.7810 C   0  0  0  0  0  2  0  0  0  0  0  0
  196.7320  171.5100  145.7960 S   0  0  0  0  0  0  0  0  0  0  0  0
  195.9090  174.3650  144.3410 S   0  0  0  0  0  0  0  0  0  0  0  0
  195.1050  171.8630  145.1580 C   0  0  0  0  0  0  0  0  0  0  0  0
  193.1280  173.3460  143.9830 S   0  0  0  0  0  0  0  0  0  0  0  0
  194.7260  169.6930  146.0650 C   0  0  0  0  0  2  0  0  0  0  0  0
  194.8780  176.3000  146.0800 C   0  0  0  0  0  3  0  0  0  0  0  0
  192.2810  175.3250  145.8160 C   0  0  0  0  0  0  0  0  0  0  0  0
  192.5800  176.3750  146.6920 C   0  0  0  0  0  3  0  0  0  0  0  0
  194.1600  170.8270  145.3630 N   0  0  0  0  0  2  0  0  0  0  0  0
  196.2390  169.7550  145.8800 C   0  0  0  0  0  2  0  0  0  0  0  0
  193.8570  176.8390  146.8010 N   0  0  0  0  0  0  0  0  0  0  0  0
  194.6150  175.2750  145.1710 C   0  0  0  0  0  0  0  0  0  0  0  0
  194.8080  172.9600  144.4540 C   0  0  0  0  0  0  0  0  0  0  0  0
  193.3140  174.7920  145.0290 C   0  0  0  0  0  0  0  0  0  0  0  0
  188.7700  177.6750  144.3970 C   0  0  0  0  0  2  0  0  0  0  0  0
  187.8840  177.0850  143.4840 O   0  0  0  0  0  0  0  0  0  0  0  0
  188.6930  176.6340  142.4340 C   0  0  0  0  0  2  0  0  0  0  0  0
  188.9280  175.1230  142.5280 C   0  0  1  0  0  3  0  0  0  0  0  0
  189.1380  174.6070  143.9550 C   0  0  0  0  0  2  0  0  0  0  0  0
  187.8580  174.4440  141.9450 O   0  0  0  0  0  1  0  0  0  0  0  0
  189.2220  176.6630  145.4590 C   0  0  2  0  0  3  0  0  0  0  0  0
  190.0280  175.5370  144.7850 C   0  0  1  0  0  3  0  0  0  0  0  0
  188.4640  175.2610  147.2750 O   0  0  0  0  0  1  0  0  0  0  0  0
  188.0330  176.1680  146.3030 C   0  0  1  0  0  3  0  0  0  0  0  0
  187.3370  177.3360  146.9900 C   0  0  0  0  0  2  0  0  0  0  0  0
  185.4110  176.5060  145.8580 O   0  0  0  0  0  0  0  0  0  0  0  0
  185.8760  177.3170  146.7000 C   0  0  0  0  0  0  0  0  0  0  0  0
  185.0210  178.1710  147.3840 O   0  0  0  0  0  1  0  0  0  0  0  0
  1  8  1  0  0  0  0
  2 11  1  0  0  0  0
  3 14  1  0  0  0  0
  3 13  1  0  0  0  0
  4 10  1  0  0  0  0
  4  2  1  0  0  0  0
  5 14  1  0  0  0  0
  5 15  1  0  0  0  0
  7 12  1  0  0  0  0
  8  9  1  0  0  0  0
  9 12  2  0  0  0  0
 10  6  1  0  0  0  0
 11  6  1  0  0  0  0
 13  7  2  0  0  0  0
 14  4  2  0  0  0  0
 15 13  1  0  0  0  0
 15  8  2  0  0  0  0
 16 22  1  0  0  0  0
 17 16  1  0  0  0  0
 18 19  1  0  0  0  0
 18 17  1  0  0  0  0
 19 21  1  1  0  0  0
 19 20  1  0  0  0  0
 20 23  1  0  0  0  0
 22 25  1  6  0  0  0
 23 22  1  0  0  0  0
 23  1  1  1  0  0  0
 25 26  1  0  0  0  0
 25 24  1  1  0  0  0
 27 28  2  0  0  0  0
 28 26  1  0  0  0  0
 28 29  1  0  0  0  0
M  END
>  <MODEL>
2

>  <REMARK>
 VINA RESULT:      -6.3      3.123      4.746
  Name = 
  5 active torsions:
  status: ('A' for Active; 'I' for Inactive)
    1  A    between atoms: C_4  and  C_23
    2  A    between atoms: C_10  and  C_15
    3  A    between atoms: C_15  and  C_28
    4  A    between atoms: C_23  and  C_24
    5  A    between atoms: C_24  and  C_26
                            x       y       z     vdW  Elec       q    Type
                         _______ _______ _______ _____ _____    ______ ____

>  <TORSDO>
F 5

$$$$
=
 OpenBabel11042416293D

 29 32  0  0  1  0  0  0  0  0999 V2000
  190.0520  174.5730  144.4640 C   0  0  0  0  0  2  0  0  0  0  0  0
  184.5700  178.3870  144.1020 S   0  0  0  0  0  0  0  0  0  0  0  0
  187.2340  178.3220  142.1400 S   0  0  0  0  0  0  0  0  0  0  0  0
  186.2150  178.0100  144.6780 C   0  0  0  0  0  0  0  0  0  0  0  0
  188.9080  177.5640  144.4910 S   0  0  0  0  0  0  0  0  0  0  0  0
  184.9970  177.7320  146.7070 C   0  0  0  0  0  2  0  0  0  0  0  0
  187.8060  175.8140  141.0410 C   0  0  0  0  0  3  0  0  0  0  0  0
  189.3190  175.0560  143.2540 C   0  0  0  0  0  0  0  0  0  0  0  0
  189.0750  174.1690  142.1990 C   0  0  0  0  0  3  0  0  0  0  0  0
  186.2910  177.6920  146.0570 N   0  0  0  0  0  2  0  0  0  0  0  0
  184.0860  178.6030  145.8480 C   0  0  0  0  0  2  0  0  0  0  0  0
  188.3360  174.5640  141.1240 N   0  0  0  0  0  0  0  0  0  0  0  0
  188.0550  176.7380  142.0560 C   0  0  0  0  0  0  0  0  0  0  0  0
  187.3080  178.1140  143.9160 C   0  0  0  0  0  0  0  0  0  0  0  0
  188.8200  176.3640  143.1600 C   0  0  0  0  0  0  0  0  0  0  0  0
  193.7260  174.5630  143.2990 C   0  0  0  0  0  2  0  0  0  0  0  0
  194.4650  175.0310  144.3950 O   0  0  0  0  0  0  0  0  0  0  0  0
  194.0860  176.3700  144.5420 C   0  0  0  0  0  2  0  0  0  0  0  0
  193.0850  176.5390  145.6900 C   0  0  1  0  0  3  0  0  0  0  0  0
  192.0460  175.4170  145.7880 C   0  0  0  0  0  2  0  0  0  0  0  0
  193.7710  176.6390  146.9010 O   0  0  0  0  0  1  0  0  0  0  0  0
  192.4070  173.9230  143.7550 C   0  0  2  0  0  3  0  0  0  0  0  0
  191.5180  174.9930  144.4140 C   0  0  1  0  0  3  0  0  0  0  0  0
  191.5790  171.8040  144.5670 O   0  0  0  0  0  1  0  0  0  0  0  0
  192.6610  172.6850  144.6340 C   0  0  1  0  0  3  0  0  0  0  0  0
  193.9220  171.9560  144.1880 C   0  0  0  0  0  2  0  0  0  0  0  0
  194.5290  170.4280  145.9130 O   0  0  0  0  0  1  0  0  0  0  0  0
  194.7330  171.5430  145.3670 C   0  0  0  0  0  0  0  0  0  0  0  0
  195.7380  172.3740  145.8430 O   0  0  0  0  0  0  0  0  0  0  0  0
  2  4  1  0  0  0  0
  2 11  1  0  0  0  0
  3 14  1  0  0  0  0
  4 10  1  0  0  0  0
  7 12  2  0  0  0  0
  7 13  1  0  0  0  0
  8  1  1  0  0  0  0
  9  8  2  0  0  0  0
 10  6  1  0  0  0  0
 11  6  1  0  0  0  0
 12  9  1  0  0  0  0
 13  3  1  0  0  0  0
 13 15  2  0  0  0  0
 14  5  1  0  0  0  0
 14  4  2  0  0  0  0
 15  8  1  0  0  0  0
 15  5  1  0  0  0  0
 16 22  1  0  0  0  0
 16 17  1  0  0  0  0
 17 18  1  0  0  0  0
 18 19  1  0  0  0  0
 19 20  1  0  0  0  0
 19 21  1  1  0  0  0
 22 23  1  0  0  0  0
 22 25  1  1  0  0  0
 23  1  1  1  0  0  0
 23 20  1  0  0  0  0
 25 24  1  6  0  0  0
 26 25  1  0  0  0  0
 26 28  1  0  0  0  0
 28 29  2  0  0  0  0
 28 27  1  0  0  0  0
M  END
>  <MODEL>
3

>  <REMARK>
 VINA RESULT:      -6.2      4.359      7.802
  Name = 
  5 active torsions:
  status: ('A' for Active; 'I' for Inactive)
    1  A    between atoms: C_4  and  C_23
    2  A    between atoms: C_10  and  C_15
    3  A    between atoms: C_15  and  C_28
    4  A    between atoms: C_23  and  C_24
    5  A    between atoms: C_24  and  C_26
                            x       y       z     vdW  Elec       q    Type
                         _______ _______ _______ _____ _____    ______ ____

>  <TORSDO>
F 5

$$$$
=
 OpenBabel11042416293D

 29 32  0  0  1  0  0  0  0  0999 V2000
  189.8670  177.9160  144.9500 C   0  0  0  0  0  2  0  0  0  0  0  0
  193.0330  172.4210  142.8240 S   0  0  0  0  0  0  0  0  0  0  0  0
  193.8790  174.5620  145.2010 S   0  0  0  0  0  0  0  0  0  0  0  0
  192.6500  174.1620  142.7700 C   0  0  0  0  0  0  0  0  0  0  0  0
  192.5560  176.7480  143.6600 S   0  0  0  0  0  0  0  0  0  0  0  0
  191.6010  173.4510  140.7530 C   0  0  0  0  0  2  0  0  0  0  0  0
  191.9410  174.9160  147.1880 C   0  0  0  0  0  3  0  0  0  0  0  0
  190.6470  176.9130  145.7390 C   0  0  0  0  0  0  0  0  0  0  0  0
  190.1380  176.4510  146.9580 C   0  0  0  0  0  3  0  0  0  0  0  0
  191.9050  174.5610  141.6330 N   0  0  0  0  0  2  0  0  0  0  0  0
  192.6140  172.3490  141.0500 C   0  0  0  0  0  2  0  0  0  0  0  0
  190.7910  175.4770  147.6520 N   0  0  0  0  0  0  0  0  0  0  0  0
  192.4980  175.3730  145.9940 C   0  0  0  0  0  0  0  0  0  0  0  0
  193.1050  175.0480  143.6620 C   0  0  0  0  0  0  0  0  0  0  0  0
  191.8590  176.3800  145.2710 C   0  0  0  0  0  0  0  0  0  0  0  0
  186.5360  177.3470  143.0960 C   0  0  0  0  0  2  0  0  0  0  0  0
  186.4530  175.9600  142.8980 O   0  0  0  0  0  0  0  0  0  0  0  0
  187.4800  175.6630  141.9940 C   0  0  0  0  0  2  0  0  0  0  0  0
  188.6900  175.0560  142.7120 C   0  0  1  0  0  3  0  0  0  0  0  0
  189.0030  175.6990  144.0680 C   0  0  0  0  0  2  0  0  0  0  0  0
  188.4950  173.6860  142.8860 O   0  0  0  0  0  1  0  0  0  0  0  0
  187.4160  177.6780  144.3090 C   0  0  2  0  0  3  0  0  0  0  0  0
  188.8610  177.2230  144.0360 C   0  0  1  0  0  3  0  0  0  0  0  0
  187.1600  177.9150  146.7000 O   0  0  0  0  0  1  0  0  0  0  0  0
  186.8130  177.1140  145.6090 C   0  0  1  0  0  3  0  0  0  0  0  0
  185.2950  177.0400  145.5120 C   0  0  0  0  0  2  0  0  0  0  0  0
  184.2710  178.2910  147.2630 O   0  0  0  0  0  1  0  0  0  0  0  0
  184.6740  178.2740  146.0710 C   0  0  0  0  0  0  0  0  0  0  0  0
  184.5720  179.4160  145.2890 O   0  0  0  0  0  0  0  0  0  0  0  0
  1  8  1  0  0  0  0
  3 13  1  0  0  0  0
  4  2  1  0  0  0  0
  4 14  2  0  0  0  0
  5 14  1  0  0  0  0
  5 15  1  0  0  0  0
  6 11  1  0  0  0  0
  6 10  1  0  0  0  0
  7 12  1  0  0  0  0
  8  9  1  0  0  0  0
  9 12  2  0  0  0  0
 10  4  1  0  0  0  0
 11  2  1  0  0  0  0
 13  7  2  0  0  0  0
 14  3  1  0  0  0  0
 15  8  2  0  0  0  0
 15 13  1  0  0  0  0
 16 22  1  0  0  0  0
 17 16  1  0  0  0  0
 18 19  1  0  0  0  0
 18 17  1  0  0  0  0
 19 21  1  1  0  0  0
 19 20  1  0  0  0  0
 22 25  1  1  0  0  0
 23 20  1  0  0  0  0
 23 22  1  0  0  0  0
 23  1  1  1  0  0  0
 25 24  1  1  0  0  0
 26 25  1  0  0  0  0
 26 28  1  0  0  0  0
 28 27  1  0  0  0  0
 29 28  2  0  0  0  0
M  END
>  <MODEL>
4

>  <REMARK>
 VINA RESULT:      -6.1      1.835      3.474
  Name = 
  5 active torsions:
  status: ('A' for Active; 'I' for Inactive)
    1  A    between atoms: C_4  and  C_23
    2  A    between atoms: C_10  and  C_15
    3  A    between atoms: C_15  and  C_28
    4  A    between atoms: C_23  and  C_24
    5  A    between atoms: C_24  and  C_26
                            x       y       z     vdW  Elec       q    Type
                         _______ _______ _______ _____ _____    ______ ____

>  <TORSDO>
F 5

$$$$
=
 OpenBabel11042416293D

 29 32  0  0  1  0  0  0  0  0999 V2000
  188.0140  174.1880  142.2660 C   0  0  0  0  0  2  0  0  0  0  0  0
  194.6420  175.0650  142.0960 S   0  0  0  0  0  0  0  0  0  0  0  0
  192.8130  172.5490  140.9690 S   0  0  0  0  0  0  0  0  0  0  0  0
  193.1250  174.5240  142.8600 C   0  0  0  0  0  0  0  0  0  0  0  0
  190.8570  173.0240  143.1720 S   0  0  0  0  0  0  0  0  0  0  0  0
  193.6520  176.3750  144.2640 C   0  0  0  0  0  2  0  0  0  0  0  0
  190.8130  173.2870  139.1580 C   0  0  0  0  0  3  0  0  0  0  0  0
  188.9880  173.8030  141.1990 C   0  0  0  0  0  0  0  0  0  0  0  0
  188.6700  174.0480  139.8580 C   0  0  0  0  0  3  0  0  0  0  0  0
  192.7300  175.2930  143.9820 N   0  0  0  0  0  2  0  0  0  0  0  0
  194.9850  176.0130  143.6170 C   0  0  0  0  0  2  0  0  0  0  0  0
  189.5770  173.7830  138.8760 N   0  0  0  0  0  0  0  0  0  0  0  0
  191.1550  172.9980  140.4790 C   0  0  0  0  0  0  0  0  0  0  0  0
  192.4570  173.4280  142.4870 C   0  0  0  0  0  0  0  0  0  0  0  0
  190.2400  173.2450  141.5020 C   0  0  0  0  0  0  0  0  0  0  0  0
  188.6980  177.9800  142.3550 C   0  0  0  0  0  2  0  0  0  0  0  0
  187.4910  178.5650  142.7650 O   0  0  0  0  0  0  0  0  0  0  0  0
  186.6000  178.3360  141.7110 C   0  0  0  0  0  2  0  0  0  0  0  0
  185.6510  177.1760  142.0320 C   0  0  1  0  0  3  0  0  0  0  0  0
  186.3150  176.0050  142.7650 C   0  0  0  0  0  2  0  0  0  0  0  0
  184.5770  177.6440  142.7890 O   0  0  0  0  0  1  0  0  0  0  0  0
  188.8070  176.5330  142.8550 C   0  0  2  0  0  3  0  0  0  0  0  0
  187.7020  175.6800  142.2040 C   0  0  1  0  0  3  0  0  0  0  0  0
  189.0650  175.1670  144.8310 O   0  0  0  0  0  1  0  0  0  0  0  0
  188.8250  176.4720  144.3930 C   0  0  1  0  0  3  0  0  0  0  0  0
  189.9030  177.3890  144.9560 C   0  0  0  0  0  2  0  0  0  0  0  0
  189.1590  177.5600  147.2130 O   0  0  0  0  0  1  0  0  0  0  0  0
  190.0590  177.1760  146.4220 C   0  0  0  0  0  0  0  0  0  0  0  0
  191.1810  176.5220  146.9130 O   0  0  0  0  0  0  0  0  0  0  0  0
  2  4  1  0  0  0  0
  2 11  1  0  0  0  0
  3 14  1  0  0  0  0
  4 10  1  0  0  0  0
  7 13  1  0  0  0  0
  8 15  1  0  0  0  0
  8  1  1  0  0  0  0
  9  8  2  0  0  0  0
 10  6  1  0  0  0  0
 11  6  1  0  0  0  0
 12  7  2  0  0  0  0
 12  9  1  0  0  0  0
 13  3  1  0  0  0  0
 13 15  2  0  0  0  0
 14  4  2  0  0  0  0
 14  5  1  0  0  0  0
 15  5  1  0  0  0  0
 16 17  1  0  0  0  0
 16 22  1  0  0  0  0
 18 19  1  0  0  0  0
 18 17  1  0  0  0  0
 19 20  1  0  0  0  0
 19 21  1  1  0  0  0
 22 25  1  1  0  0  0
 23  1  1  1  0  0  0
 23 20  1  0  0  0  0
 23 22  1  0  0  0  0
 25 24  1  6  0  0  0
 25 26  1  0  0  0  0
 26 28  1  0  0  0  0
 28 29  2  0  0  0  0
 28 27  1  0  0  0  0
M  END
>  <MODEL>
5

>  <REMARK>
 VINA RESULT:      -6.0      2.610      5.346
  Name = 
  5 active torsions:
  status: ('A' for Active; 'I' for Inactive)
    1  A    between atoms: C_4  and  C_23
    2  A    between atoms: C_10  and  C_15
    3  A    between atoms: C_15  and  C_28
    4  A    between atoms: C_23  and  C_24
    5  A    between atoms: C_24  and  C_26
                            x       y       z     vdW  Elec       q    Type
                         _______ _______ _______ _____ _____    ______ ____

>  <TORSDO>
F 5

$$$$
=
 OpenBabel11042416293D

 29 32  0  0  1  0  0  0  0  0999 V2000
  187.8260  174.8170  142.6450 C   0  0  0  0  0  2  0  0  0  0  0  0
  194.0090  172.5250  143.7640 S   0  0  0  0  0  0  0  0  0  0  0  0
  191.4640  171.0770  142.2240 S   0  0  0  0  0  0  0  0  0  0  0  0
  192.3020  172.7900  144.2080 C   0  0  0  0  0  0  0  0  0  0  0  0
  189.5840  172.5270  144.0310 S   0  0  0  0  0  0  0  0  0  0  0  0
  193.3590  174.2670  145.7500 C   0  0  0  0  0  2  0  0  0  0  0  0
  190.4060  172.5490  140.0930 C   0  0  0  0  0  3  0  0  0  0  0  0
  188.6880  173.9660  141.7690 C   0  0  0  0  0  0  0  0  0  0  0  0
  188.7730  174.2520  140.4010 C   0  0  0  0  0  3  0  0  0  0  0  0
  192.1100  173.7180  145.2610 N   0  0  0  0  0  2  0  0  0  0  0  0
  194.4660  173.2940  145.3550 C   0  0  0  0  0  2  0  0  0  0  0  0
  189.6160  173.5420  139.6000 N   0  0  0  0  0  0  0  0  0  0  0  0
  190.3250  172.2110  141.4440 C   0  0  0  0  0  0  0  0  0  0  0  0
  191.2840  172.1070  143.6760 C   0  0  0  0  0  0  0  0  0  0  0  0
  189.4590  172.9120  142.2830 C   0  0  0  0  0  0  0  0  0  0  0  0
  188.7780  176.7780  145.8230 C   0  0  0  0  0  2  0  0  0  0  0  0
  189.6570  177.7820  145.3910 O   0  0  0  0  0  0  0  0  0  0  0  0
  190.8060  177.1010  144.9710 C   0  0  0  0  0  2  0  0  0  0  0  0
  190.8580  176.9940  143.4440 C   0  0  1  0  0  3  0  0  0  0  0  0
  189.5010  176.7180  142.7860 C   0  0  0  0  0  2  0  0  0  0  0  0
  191.3990  178.1630  142.9080 O   0  0  0  0  0  1  0  0  0  0  0  0
  187.8460  176.3340  144.6870 C   0  0  2  0  0  3  0  0  0  0  0  0
  188.6770  175.6870  143.5640 C   0  0  1  0  0  3  0  0  0  0  0  0
  185.8630  177.0040  143.4810 O   0  0  0  0  0  1  0  0  0  0  0  0
  186.9460  177.4910  144.2170 C   0  0  1  0  0  3  0  0  0  0  0  0
  186.4190  178.2820  145.4080 C   0  0  0  0  0  2  0  0  0  0  0  0
  184.1810  179.0960  145.5020 O   0  0  0  0  0  1  0  0  0  0  0  0
  185.3230  179.1980  144.9840 C   0  0  0  0  0  0  0  0  0  0  0  0
  185.5700  180.1870  144.0420 O   0  0  0  0  0  0  0  0  0  0  0  0
  2  4  1  0  0  0  0
  2 11  1  0  0  0  0
  3 14  1  0  0  0  0
  4 10  1  0  0  0  0
  7 13  1  0  0  0  0
  8 15  1  0  0  0  0
  8  1  1  0  0  0  0
  9  8  2  0  0  0  0
 10  6  1  0  0  0  0
 11  6  1  0  0  0  0
 12  7  2  0  0  0  0
 12  9  1  0  0  0  0
 13  3  1  0  0  0  0
 13 15  2  0  0  0  0
 14  5  1  0  0  0  0
 14  4  2  0  0  0  0
 15  5  1  0  0  0  0
 17 16  1  0  0  0  0
 18 17  1  0  0  0  0
 19 21  1  6  0  0  0
 19 18  1  0  0  0  0
 20 19  1  0  0  0  0
 20 23  1  0  0  0  0
 22 25  1  6  0  0  0
 22 16  1  0  0  0  0
 23  1  1  6  0  0  0
 23 22  1  0  0  0  0
 25 24  1  1  0  0  0
 25 26  1  0  0  0  0
 28 26  1  0  0  0  0
 28 27  1  0  0  0  0
 29 28  2  0  0  0  0
M  END
>  <MODEL>
6

>  <REMARK>
 VINA RESULT:      -5.9      2.249      5.001
  Name = 
  5 active torsions:
  status: ('A' for Active; 'I' for Inactive)
    1  A    between atoms: C_4  and  C_23
    2  A    between atoms: C_10  and  C_15
    3  A    between atoms: C_15  and  C_28
    4  A    between atoms: C_23  and  C_24
    5  A    between atoms: C_24  and  C_26
                            x       y       z     vdW  Elec       q    Type
                         _______ _______ _______ _____ _____    ______ ____

>  <TORSDO>
F 5

$$$$
=
 OpenBabel11042416293D

 29 32  0  0  1  0  0  0  0  0999 V2000
  190.2270  173.8910  144.9550 C   0  0  0  0  0  2  0  0  0  0  0  0
  185.2470  178.3550  145.0480 S   0  0  0  0  0  0  0  0  0  0  0  0
  187.6510  177.9170  142.8180 S   0  0  0  0  0  0  0  0  0  0  0  0
  186.8860  177.7870  145.4590 C   0  0  0  0  0  0  0  0  0  0  0  0
  189.4680  177.0030  145.0010 S   0  0  0  0  0  0  0  0  0  0  0  0
  185.8750  177.7060  147.6140 C   0  0  0  0  0  2  0  0  0  0  0  0
  187.7870  175.3340  141.7500 C   0  0  0  0  0  3  0  0  0  0  0  0
  189.4290  174.4380  143.8140 C   0  0  0  0  0  0  0  0  0  0  0  0
  188.9640  173.5670  142.8220 C   0  0  0  0  0  3  0  0  0  0  0  0
  187.0750  177.4910  146.8310 N   0  0  0  0  0  2  0  0  0  0  0  0
  184.9880  178.6670  146.8270 C   0  0  0  0  0  2  0  0  0  0  0  0
  188.1660  174.0290  141.8180 N   0  0  0  0  0  0  0  0  0  0  0  0
  188.2570  176.2400  142.7000 C   0  0  0  0  0  0  0  0  0  0  0  0
  187.8940  177.7370  144.5820 C   0  0  0  0  0  0  0  0  0  0  0  0
  189.0880  175.7960  143.7290 C   0  0  0  0  0  0  0  0  0  0  0  0
  193.9560  172.9850  145.3090 C   0  0  0  0  0  2  0  0  0  0  0  0
  194.5620  173.4370  144.1270 O   0  0  0  0  0  0  0  0  0  0  0  0
  194.0380  172.6230  143.1170 C   0  0  0  0  0  2  0  0  0  0  0  0
  192.9450  173.3530  142.3300 C   0  0  1  0  0  3  0  0  0  0  0  0
  192.0220  174.2210  143.1920 C   0  0  0  0  0  2  0  0  0  0  0  0
  193.5280  174.1440  141.3390 O   0  0  0  0  0  1  0  0  0  0  0  0
  192.6820  173.7830  145.6150 C   0  0  2  0  0  3  0  0  0  0  0  0
  191.6410  173.5360  144.5080 C   0  0  1  0  0  3  0  0  0  0  0  0
  192.2650  175.7550  146.9480 O   0  0  0  0  0  1  0  0  0  0  0  0
  192.9980  175.2700  145.8610 C   0  0  1  0  0  3  0  0  0  0  0  0
  194.4830  175.4660  146.1370 C   0  0  0  0  0  2  0  0  0  0  0  0
  195.4350  176.5850  144.2610 O   0  0  0  0  0  0  0  0  0  0  0  0
  194.9900  176.6780  145.4350 C   0  0  0  0  0  0  0  0  0  0  0  0
  194.9390  177.9160  146.0610 O   0  0  0  0  0  1  0  0  0  0  0  0
  2  4  1  0  0  0  0
  2 11  1  0  0  0  0
  3 14  1  0  0  0  0
  4 10  1  0  0  0  0
  7 12  2  0  0  0  0
  7 13  1  0  0  0  0
  8  1  1  0  0  0  0
  9  8  2  0  0  0  0
 10  6  1  0  0  0  0
 11  6  1  0  0  0  0
 12  9  1  0  0  0  0
 13  3  1  0  0  0  0
 13 15  2  0  0  0  0
 14  5  1  0  0  0  0
 14  4  2  0  0  0  0
 15  8  1  0  0  0  0
 15  5  1  0  0  0  0
 16 22  1  0  0  0  0
 17 16  1  0  0  0  0
 18 17  1  0  0  0  0
 19 21  1  6  0  0  0
 19 18  1  0  0  0  0
 19 20  1  0  0  0  0
 20 23  1  0  0  0  0
 22 25  1  6  0  0  0
 23  1  1  1  0  0  0
 23 22  1  0  0  0  0
 25 26  1  0  0  0  0
 25 24  1  1  0  0  0
 27 28  2  0  0  0  0
 28 29  1  0  0  0  0
 28 26  1  0  0  0  0
M  END
>  <MODEL>
7

>  <REMARK>
 VINA RESULT:      -5.9      4.000      7.637
  Name = 
  5 active torsions:
  status: ('A' for Active; 'I' for Inactive)
    1  A    between atoms: C_4  and  C_23
    2  A    between atoms: C_10  and  C_15
    3  A    between atoms: C_15  and  C_28
    4  A    between atoms: C_23  and  C_24
    5  A    between atoms: C_24  and  C_26
                            x       y       z     vdW  Elec       q    Type
                         _______ _______ _______ _____ _____    ______ ____

>  <TORSDO>
F 5

$$$$
=
 OpenBabel11042416293D

 29 32  0  0  1  0  0  0  0  0999 V2000
  189.7680  176.4500  143.0890 C   0  0  0  0  0  2  0  0  0  0  0  0
  195.8720  173.7200  143.2510 S   0  0  0  0  0  0  0  0  0  0  0  0
  192.9620  172.4450  144.1720 S   0  0  0  0  0  0  0  0  0  0  0  0
  194.5400  174.6880  143.9350 C   0  0  0  0  0  0  0  0  0  0  0  0
  192.0450  175.1770  144.9480 S   0  0  0  0  0  0  0  0  0  0  0  0
  196.1230  176.4160  143.5100 C   0  0  0  0  0  2  0  0  0  0  0  0
  191.0040  172.4570  142.1730 C   0  0  0  0  0  3  0  0  0  0  0  0
  190.1740  175.0330  142.8340 C   0  0  0  0  0  0  0  0  0  0  0  0
  189.6240  174.3460  141.7450 C   0  0  0  0  0  3  0  0  0  0  0  0
  194.8090  176.0760  144.0170 N   0  0  0  0  0  2  0  0  0  0  0  0
  196.9680  175.1470  143.5560 C   0  0  0  0  0  2  0  0  0  0  0  0
  190.0410  173.0840  141.4450 N   0  0  0  0  0  0  0  0  0  0  0  0
  191.5530  173.0950  143.2850 C   0  0  0  0  0  0  0  0  0  0  0  0
  193.4170  174.1570  144.4290 C   0  0  0  0  0  0  0  0  0  0  0  0
  191.1320  174.3800  143.6250 C   0  0  0  0  0  0  0  0  0  0  0  0
  186.4030  176.3940  144.9670 C   0  0  0  0  0  2  0  0  0  0  0  0
  186.5930  177.2060  146.0950 O   0  0  0  0  0  0  0  0  0  0  0  0
  187.5150  176.5120  146.8880 C   0  0  0  0  0  2  0  0  0  0  0  0
  188.9200  177.1090  146.7520 C   0  0  1  0  0  3  0  0  0  0  0  0
  189.2830  177.5420  145.3270 C   0  0  0  0  0  2  0  0  0  0  0  0
  189.0540  178.1970  147.6130 O   0  0  0  0  0  1  0  0  0  0  0  0
  187.3590  176.7910  143.8340 C   0  0  2  0  0  3  0  0  0  0  0  0
  188.8120  176.5350  144.2750 C   0  0  1  0  0  3  0  0  0  0  0  0
  187.8230  178.5040  142.1950 O   0  0  0  0  0  1  0  0  0  0  0  0
  187.0920  178.2290  143.3530 C   0  0  1  0  0  3  0  0  0  0  0  0
  185.6100  178.4330  143.0640 C   0  0  0  0  0  2  0  0  0  0  0  0
  185.5660  180.4920  144.2620 O   0  0  0  0  0  0  0  0  0  0  0  0
  185.0120  179.3840  144.0420 C   0  0  0  0  0  0  0  0  0  0  0  0
  183.8260  179.0630  144.6860 O   0  0  0  0  0  1  0  0  0  0  0  0
  2 11  1  0  0  0  0
  2  4  1  0  0  0  0
  3 14  1  0  0  0  0
  4 10  1  0  0  0  0
  4 14  2  0  0  0  0
  6 11  1  0  0  0  0
  6 10  1  0  0  0  0
  7 13  1  0  0  0  0
  8  1  1  0  0  0  0
  8 15  1  0  0  0  0
  9  8  2  0  0  0  0
 12  9  1  0  0  0  0
 12  7  2  0  0  0  0
 13 15  2  0  0  0  0
 13  3  1  0  0  0  0
 14  5  1  0  0  0  0
 15  5  1  0  0  0  0
 16 17  1  0  0  0  0
 17 18  1  0  0  0  0
 19 18  1  0  0  0  0
 19 21  1  1  0  0  0
 20 19  1  0  0  0  0
 22 25  1  1  0  0  0
 22 23  1  0  0  0  0
 22 16  1  0  0  0  0
 23  1  1  6  0  0  0
 23 20  1  0  0  0  0
 25 24  1  6  0  0  0
 26 25  1  0  0  0  0
 26 28  1  0  0  0  0
 28 27  2  0  0  0  0
 28 29  1  0  0  0  0
M  END
>  <MODEL>
8

>  <REMARK>
 VINA RESULT:      -5.9      2.509      4.236
  Name = 
  5 active torsions:
  status: ('A' for Active; 'I' for Inactive)
    1  A    between atoms: C_4  and  C_23
    2  A    between atoms: C_10  and  C_15
    3  A    between atoms: C_15  and  C_28
    4  A    between atoms: C_23  and  C_24
    5  A    between atoms: C_24  and  C_26
                            x       y       z     vdW  Elec       q    Type
                         _______ _______ _______ _____ _____    ______ ____

>  <TORSDO>
F 5

$$$$
=
 OpenBabel11042416293D

 29 32  0  0  1  0  0  0  0  0999 V2000
  188.9410  173.9960  143.1530 C   0  0  0  0  0  2  0  0  0  0  0  0
  195.4180  175.6650  143.1720 S   0  0  0  0  0  0  0  0  0  0  0  0
  193.9560  172.8790  142.1480 S   0  0  0  0  0  0  0  0  0  0  0  0
  193.9430  174.9910  143.9130 C   0  0  0  0  0  0  0  0  0  0  0  0
  191.8600  173.2470  144.2400 S   0  0  0  0  0  0  0  0  0  0  0  0
  194.1810  176.9760  145.2090 C   0  0  0  0  0  2  0  0  0  0  0  0
  191.9660  173.2540  140.2180 C   0  0  0  0  0  3  0  0  0  0  0  0
  190.0020  173.6680  142.1510 C   0  0  0  0  0  0  0  0  0  0  0  0
  189.7180  173.7890  140.7860 C   0  0  0  0  0  3  0  0  0  0  0  0
  193.4090  175.7740  144.9660 N   0  0  0  0  0  2  0  0  0  0  0  0
  195.5760  176.7410  144.6370 C   0  0  0  0  0  2  0  0  0  0  0  0
  190.6930  173.5760  139.8580 N   0  0  0  0  0  0  0  0  0  0  0  0
  192.2800  173.0910  141.5670 C   0  0  0  0  0  0  0  0  0  0  0  0
  193.4290  173.8010  143.5890 C   0  0  0  0  0  0  0  0  0  0  0  0
  191.2970  173.2880  142.5370 C   0  0  0  0  0  0  0  0  0  0  0  0
  189.1030  177.7700  143.9200 C   0  0  0  0  0  2  0  0  0  0  0  0
  187.8020  178.2490  143.7010 O   0  0  0  0  0  0  0  0  0  0  0  0
  187.5970  178.1210  142.3220 C   0  0  0  0  0  2  0  0  0  0  0  0
  186.7370  176.8930  142.0040 C   0  0  1  0  0  3  0  0  0  0  0  0
  187.0520  175.6650  142.8660 C   0  0  0  0  0  2  0  0  0  0  0  0
  185.3870  177.2170  142.1380 O   0  0  0  0  0  1  0  0  0  0  0  0
  189.0870  176.2760  144.2730 C   0  0  2  0  0  3  0  0  0  0  0  0
  188.5560  175.4700  143.0730 C   0  0  1  0  0  3  0  0  0  0  0  0
  188.9410  174.9950  146.3150 O   0  0  0  0  0  1  0  0  0  0  0  0
  188.3300  176.0200  145.5880 C   0  0  1  0  0  3  0  0  0  0  0  0
  188.2940  177.2800  146.4440 C   0  0  0  0  0  2  0  0  0  0  0  0
  185.9650  176.7910  146.5820 O   0  0  0  0  0  0  0  0  0  0  0  0
  186.9170  177.5200  146.9620 C   0  0  0  0  0  0  0  0  0  0  0  0
  186.6910  178.5280  147.8890 O   0  0  0  0  0  1  0  0  0  0  0  0
  2  4  1  0  0  0  0
  2 11  1  0  0  0  0
  3 14  1  0  0  0  0
  4 10  1  0  0  0  0
  7 13  1  0  0  0  0
  8 15  1  0  0  0  0
  8  1  1  0  0  0  0
  9  8  2  0  0  0  0
 10  6  1  0  0  0  0
 11  6  1  0  0  0  0
 12  7  2  0  0  0  0
 12  9  1  0  0  0  0
 13  3  1  0  0  0  0
 13 15  2  0  0  0  0
 14  4  2  0  0  0  0
 14  5  1  0  0  0  0
 15  5  1  0  0  0  0
 16 22  1  0  0  0  0
 17 16  1  0  0  0  0
 18 17  1  0  0  0  0
 19 21  1  1  0  0  0
 19 18  1  0  0  0  0
 19 20  1  0  0  0  0
 20 23  1  0  0  0  0
 22 25  1  1  0  0  0
 23  1  1  1  0  0  0
 23 22  1  0  0  0  0
 25 24  1  1  0  0  0
 25 26  1  0  0  0  0
 26 28  1  0  0  0  0
 27 28  2  0  0  0  0
 28 29  1  0  0  0  0
M  END
>  <MODEL>
9

>  <REMARK>
 VINA RESULT:      -5.9      2.415      5.207
  Name = 
  5 active torsions:
  status: ('A' for Active; 'I' for Inactive)
    1  A    between atoms: C_4  and  C_23
    2  A    between atoms: C_10  and  C_15
    3  A    between atoms: C_15  and  C_28
    4  A    between atoms: C_23  and  C_24
    5  A    between atoms: C_24  and  C_26
                            x       y       z     vdW  Elec       q    Type
                         _______ _______ _______ _____ _____    ______ ____

>  <TORSDO>
F 5

$$$$
