=
 OpenBabel11042416243D

 38 42  0  0  1  0  0  0  0  0999 V2000
  189.0820  174.5340  140.7420 C   0  0  0  0  0  3  0  0  0  0  0  0
  190.1730  173.2330  143.2160 C   0  0  0  0  0  0  0  0  0  0  0  0
  190.2510  176.5590  146.2440 C   0  0  2  0  0  3  0  0  0  0  0  0
  188.7330  176.6540  145.8900 C   0  0  1  0  0  3  0  0  0  0  0  0
  190.0900  174.2820  145.2920 C   0  0  1  0  0  3  0  0  0  0  0  0
  191.1030  171.6370  139.8940 N   0  0  0  0  0  1  0  0  0  0  0  0
  190.7720  173.3350  144.4720 O   0  0  0  0  0  0  0  0  0  0  0  0
  190.9850  175.3770  145.6860 N   0  0  0  0  0  0  0  0  0  0  0  0
  190.6370  172.2870  142.1770 C   0  0  0  0  0  0  0  0  0  0  0  0
  190.5480  172.5480  140.8380 C   0  0  0  0  0  0  0  0  0  0  0  0
  188.2610  174.1710  141.9280 C   0  0  0  0  0  2  0  0  0  0  0  0
  188.4290  175.9560  144.5920 C   0  0  0  0  0  0  0  0  0  0  0  0
  189.0610  174.8080  144.3560 C   0  0  0  0  0  0  0  0  0  0  0  0
  189.1460  174.0590  143.1120 C   0  0  0  0  0  0  0  0  0  0  0  0
  190.0540  173.7920  140.2990 N   0  0  0  0  0  0  0  0  0  0  0  0
  190.4910  176.7720  147.6120 O   0  0  0  0  0  1  0  0  0  0  0  0
  187.8540  176.0990  146.9770 C   0  0  0  0  0  3  0  0  0  0  0  0
  186.9540  176.7920  147.6100 N   0  0  0  0  0  0  0  0  0  0  0  0
  186.5970  178.1630  147.3730 C   0  0  0  0  0  0  0  0  0  0  0  0
  186.9840  179.0830  148.1460 O   0  0  0  0  0  0  0  0  0  0  0  0
  184.3330  178.6010  146.4750 C   0  0  0  0  0  2  0  0  0  0  0  0
  184.8810  177.3630  145.8010 C   0  0  0  0  0  2  0  0  0  0  0  0
  185.8140  178.5110  146.1480 C   0  0  0  0  0  3  0  0  0  0  0  0
  187.5380  176.4910  143.6570 O   0  0  0  0  0  0  0  0  0  0  0  0
  187.7690  177.7420  143.0250 C   0  0  0  0  0  1  0  0  0  0  0  0
  192.5580  170.8960  143.0060 C   0  0  0  0  0  2  0  0  0  0  0  0
  191.2670  171.0610  142.7350 C   0  0  0  0  0  3  0  0  0  0  0  0
  191.9610  174.8360  146.6310 C   0  0  0  0  0  2  0  0  0  0  0  0
  195.1460  173.9840  143.7500 C   0  0  0  0  0  2  0  0  0  0  0  0
  195.0920  173.3080  145.1150 C   0  0  1  0  0  3  0  0  0  0  0  0
  193.3470  174.7990  146.0030 C   0  0  1  0  0  3  0  0  0  0  0  0
  193.6840  173.3560  145.6730 C   0  0  0  0  0  2  0  0  0  0  0  0
  193.4040  175.7150  144.7660 C   0  0  1  0  0  3  0  0  0  0  0  0
  193.7340  177.1330  145.2030 C   0  0  0  0  0  1  0  0  0  0  0  0
  194.4780  175.9550  142.6800 O   0  0  0  0  0  0  0  0  0  0  0  0
  194.3690  175.2730  143.6840 C   0  0  0  0  0  0  0  0  0  0  0  0
  195.5230  171.9150  144.9830 C   0  0  0  0  0  0  0  0  0  0  0  0
  195.8640  170.8140  144.8790 N   0  0  0  0  0  0  0  0  0  0  0  0
  1 11  1  0  0  0  0
  2  7  1  0  0  0  0
  3 16  1  1  0  0  0
  4  3  1  0  0  0  0
  4 17  1  1  0  0  0
  5 13  1  6  0  0  0
  5  8  1  0  0  0  0
  6 10  1  0  0  0  0
  7  5  1  0  0  0  0
  8  3  1  0  0  0  0
  8 28  1  0  0  0  0
  9 27  1  0  0  0  0
  9  2  1  0  0  0  0
 10  9  2  0  0  0  0
 11 14  1  0  0  0  0
 12  4  1  0  0  0  0
 13 12  2  0  0  0  0
 14  2  2  0  0  0  0
 14 13  1  0  0  0  0
 15  1  2  0  0  0  0
 15 10  1  0  0  0  0
 17 18  2  0  0  0  0
 19 18  1  0  0  0  0
 19 20  2  0  0  0  0
 22 23  1  0  0  0  0
 22 21  1  0  0  0  0
 23 21  1  0  0  0  0
 23 19  1  0  0  0  0
 24 12  1  0  0  0  0
 25 24  1  0  0  0  0
 27 26  2  0  0  0  0
 29 30  1  0  0  0  0
 30 37  1  6  0  0  0
 30 32  1  0  0  0  0
 31 28  1  6  0  0  0
 32 31  1  0  0  0  0
 33 34  1  1  0  0  0
 33 31  1  0  0  0  0
 35 36  2  0  0  0  0
 36 29  1  0  0  0  0
 36 33  1  0  0  0  0
 38 37  3  0  0  0  0
M  END
>  <MODEL>
1

>  <REMARK>
 VINA RESULT:      -7.1      0.000      0.000
  Name = 
  8 active torsions:
  status: ('A' for Active; 'I' for Inactive)
    1  A    between atoms: C_1  and  C_13
    2  A    between atoms: C_3  and  N_20
    3  A    between atoms: C_3  and  C_37
    4  A    between atoms: O_6  and  C_33
    5  A    between atoms: C_7  and  C_12
    6  A    between atoms: C_16  and  C_32
    7  A    between atoms: C_22  and  C_27
    8  A    between atoms: N_23  and  C_32
                            x       y       z     vdW  Elec       q    Type
                         _______ _______ _______ _____ _____    ______ ____

>  <TORSDO>
F 8

$$$$
=
 OpenBabel11042416243D

 38 42  0  0  1  0  0  0  0  0999 V2000
  194.7500  175.9150  143.5350 C   0  0  0  0  0  3  0  0  0  0  0  0
  192.1000  175.1330  144.7030 C   0  0  0  0  0  0  0  0  0  0  0  0
  189.4830  174.4650  141.1060 C   0  0  2  0  0  3  0  0  0  0  0  0
  190.6110  173.4570  140.7160 C   0  0  1  0  0  3  0  0  0  0  0  0
  190.3960  174.2390  143.3920 C   0  0  1  0  0  3  0  0  0  0  0  0
  194.3870  177.2250  146.9030 N   0  0  0  0  0  1  0  0  0  0  0  0
  190.7200  174.9740  144.5720 O   0  0  0  0  0  0  0  0  0  0  0  0
  189.5630  175.0400  142.4880 N   0  0  0  0  0  0  0  0  0  0  0  0
  192.7250  175.8080  145.8620 C   0  0  0  0  0  0  0  0  0  0  0  0
  193.8910  176.5180  145.7700 C   0  0  0  0  0  0  0  0  0  0  0  0
  194.2140  174.5270  143.5380 C   0  0  0  0  0  2  0  0  0  0  0  0
  191.8720  173.7180  141.4950 C   0  0  0  0  0  0  0  0  0  0  0  0
  191.7370  174.0480  142.7780 C   0  0  0  0  0  0  0  0  0  0  0  0
  192.7390  174.5800  143.6870 C   0  0  0  0  0  0  0  0  0  0  0  0
  194.5970  176.7360  144.5310 N   0  0  0  0  0  0  0  0  0  0  0  0
  188.2060  173.9870  140.7700 O   0  0  0  0  0  1  0  0  0  0  0  0
  190.1920  172.0250  140.9040 C   0  0  0  0  0  3  0  0  0  0  0  0
  190.4440  171.0750  140.0520 N   0  0  0  0  0  0  0  0  0  0  0  0
  191.1890  171.1880  138.8300 C   0  0  0  0  0  0  0  0  0  0  0  0
  192.4490  171.1150  138.8230 O   0  0  0  0  0  0  0  0  0  0  0  0
  189.8510  169.9880  137.1290 C   0  0  0  0  0  2  0  0  0  0  0  0
  191.1290  170.4680  136.4780 C   0  0  0  0  0  2  0  0  0  0  0  0
  190.4520  171.3220  137.5360 C   0  0  0  0  0  3  0  0  0  0  0  0
  193.1350  173.6400  140.9020 O   0  0  0  0  0  0  0  0  0  0  0  0
  193.4990  174.4470  139.7910 C   0  0  0  0  0  1  0  0  0  0  0  0
  191.1590  176.6410  147.6420 C   0  0  0  0  0  2  0  0  0  0  0  0
  191.9290  175.6940  147.1120 C   0  0  0  0  0  3  0  0  0  0  0  0
  188.2430  175.1790  143.1040 C   0  0  0  0  0  2  0  0  0  0  0  0
  185.6280  178.6730  143.4450 C   0  0  0  0  0  2  0  0  0  0  0  0
  186.0820  178.1370  142.0930 C   0  0  1  0  0  3  0  0  0  0  0  0
  187.7780  176.6260  143.0430 C   0  0  1  0  0  3  0  0  0  0  0  0
  186.5060  176.6870  142.2150 C   0  0  0  0  0  2  0  0  0  0  0  0
  187.5850  177.1920  144.4620 C   0  0  1  0  0  3  0  0  0  0  0  0
  188.9110  177.7290  144.9760 C   0  0  0  0  0  1  0  0  0  0  0  0
  186.3140  178.7620  145.6810 O   0  0  0  0  0  0  0  0  0  0  0  0
  186.5150  178.2580  144.5890 C   0  0  0  0  0  0  0  0  0  0  0  0
  184.9830  178.2490  141.1320 C   0  0  0  0  0  0  0  0  0  0  0  0
  184.1140  178.3380  140.3730 N   0  0  0  0  0  0  0  0  0  0  0  0
  1 11  1  0  0  0  0
  1 15  2  0  0  0  0
  2  9  1  0  0  0  0
  3 16  1  1  0  0  0
  3  8  1  0  0  0  0
  4 17  1  1  0  0  0
  4  3  1  0  0  0  0
  4 12  1  0  0  0  0
  5 13  1  6  0  0  0
  5  7  1  0  0  0  0
  7  2  1  0  0  0  0
  8 28  1  0  0  0  0
  8  5  1  0  0  0  0
  9 27  1  0  0  0  0
 10  9  2  0  0  0  0
 10  6  1  0  0  0  0
 11 14  1  0  0  0  0
 12 13  2  0  0  0  0
 13 14  1  0  0  0  0
 14  2  2  0  0  0  0
 15 10  1  0  0  0  0
 18 17  2  0  0  0  0
 19 18  1  0  0  0  0
 20 19  2  0  0  0  0
 21 23  1  0  0  0  0
 22 21  1  0  0  0  0
 22 23  1  0  0  0  0
 23 19  1  0  0  0  0
 24 12  1  0  0  0  0
 25 24  1  0  0  0  0
 27 26  2  0  0  0  0
 29 36  1  0  0  0  0
 30 37  1  6  0  0  0
 30 32  1  0  0  0  0
 30 29  1  0  0  0  0
 31 28  1  1  0  0  0
 31 33  1  0  0  0  0
 32 31  1  0  0  0  0
 33 36  1  0  0  0  0
 33 34  1  6  0  0  0
 36 35  2  0  0  0  0
 38 37  3  0  0  0  0
M  END
>  <MODEL>
2

>  <REMARK>
 VINA RESULT:      -7.0      2.826      8.385
  Name = 
  8 active torsions:
  status: ('A' for Active; 'I' for Inactive)
    1  A    between atoms: C_1  and  C_13
    2  A    between atoms: C_3  and  N_20
    3  A    between atoms: C_3  and  C_37
    4  A    between atoms: O_6  and  C_33
    5  A    between atoms: C_7  and  C_12
    6  A    between atoms: C_16  and  C_32
    7  A    between atoms: C_22  and  C_27
    8  A    between atoms: N_23  and  C_32
                            x       y       z     vdW  Elec       q    Type
                         _______ _______ _______ _____ _____    ______ ____

>  <TORSDO>
F 8

$$$$
=
 OpenBabel11042416243D

 38 42  0  0  1  0  0  0  0  0999 V2000
  194.7080  175.5790  146.3480 C   0  0  0  0  0  3  0  0  0  0  0  0
  193.7720  175.8120  143.5070 C   0  0  0  0  0  0  0  0  0  0  0  0
  189.3550  174.9940  143.7510 C   0  0  2  0  0  3  0  0  0  0  0  0
  189.3900  176.1760  144.7710 C   0  0  1  0  0  3  0  0  0  0  0  0
  191.5100  175.9170  142.9650 C   0  0  1  0  0  3  0  0  0  0  0  0
  197.4290  174.9210  144.0330 N   0  0  0  0  0  1  0  0  0  0  0  0
  192.8170  175.5520  142.5240 O   0  0  0  0  0  0  0  0  0  0  0  0
  190.6170  174.7520  142.9790 N   0  0  0  0  0  0  0  0  0  0  0  0
  195.2200  175.5830  143.3040 C   0  0  0  0  0  0  0  0  0  0  0  0
  196.0660  175.2210  144.3160 C   0  0  0  0  0  0  0  0  0  0  0  0
  193.9400  176.7340  145.8130 C   0  0  0  0  0  2  0  0  0  0  0  0
  190.7900  176.4360  145.2590 C   0  0  0  0  0  0  0  0  0  0  0  0
  191.7730  176.3450  144.3650 C   0  0  0  0  0  0  0  0  0  0  0  0
  193.2080  176.3050  144.5960 C   0  0  0  0  0  0  0  0  0  0  0  0
  195.6300  174.9640  145.6670 N   0  0  0  0  0  0  0  0  0  0  0  0
  188.2040  175.0210  142.9480 O   0  0  0  0  0  1  0  0  0  0  0  0
  188.8130  177.4430  144.2030 C   0  0  0  0  0  3  0  0  0  0  0  0
  187.7360  178.0170  144.6530 N   0  0  0  0  0  0  0  0  0  0  0  0
  186.9390  177.6000  145.7720 C   0  0  0  0  0  0  0  0  0  0  0  0
  187.3550  177.7330  146.9570 O   0  0  0  0  0  0  0  0  0  0  0  0
  184.5950  178.2030  145.2590 C   0  0  0  0  0  2  0  0  0  0  0  0
  184.6320  177.5560  146.6250 C   0  0  0  0  0  2  0  0  0  0  0  0
  185.5640  177.0650  145.5310 C   0  0  0  0  0  3  0  0  0  0  0  0
  191.0610  176.7410  146.5960 O   0  0  0  0  0  0  0  0  0  0  0  0
  190.8140  175.8170  147.6460 C   0  0  0  0  0  1  0  0  0  0  0  0
  196.0920  176.8280  141.3040 C   0  0  0  0  0  2  0  0  0  0  0  0
  195.6450  175.7190  141.8860 C   0  0  0  0  0  3  0  0  0  0  0  0
  190.3510  174.3780  141.5900 C   0  0  0  0  0  2  0  0  0  0  0  0
  191.4380  170.1680  141.0810 C   0  0  0  0  0  2  0  0  0  0  0  0
  192.1640  171.0730  142.0690 C   0  0  1  0  0  3  0  0  0  0  0  0
  191.1600  173.1490  141.2060 C   0  0  1  0  0  3  0  0  0  0  0  0
  191.2970  172.2620  142.4310 C   0  0  0  0  0  2  0  0  0  0  0  0
  190.5030  172.4180  140.0200 C   0  0  1  0  0  3  0  0  0  0  0  0
  190.9830  173.0360  138.7170 C   0  0  0  0  0  1  0  0  0  0  0  0
  190.2400  170.2740  139.0730 O   0  0  0  0  0  0  0  0  0  0  0  0
  190.7210  170.9190  139.9890 C   0  0  0  0  0  0  0  0  0  0  0  0
  192.4860  170.3130  143.2770 C   0  0  0  0  0  0  0  0  0  0  0  0
  192.7400  169.7110  144.2330 N   0  0  0  0  0  0  0  0  0  0  0  0
  2 14  2  0  0  0  0
  3 16  1  6  0  0  0
  3  4  1  0  0  0  0
  4 17  1  6  0  0  0
  4 12  1  0  0  0  0
  5  7  1  1  0  0  0
  5  8  1  0  0  0  0
  5 13  1  0  0  0  0
  6 10  1  0  0  0  0
  7  2  1  0  0  0  0
  8  3  1  0  0  0  0
  9  2  1  0  0  0  0
  9 10  2  0  0  0  0
 10 15  1  0  0  0  0
 11  1  1  0  0  0  0
 12 24  1  0  0  0  0
 13 14  1  0  0  0  0
 13 12  2  0  0  0  0
 14 11  1  0  0  0  0
 15  1  2  0  0  0  0
 17 18  2  0  0  0  0
 18 19  1  0  0  0  0
 19 20  2  0  0  0  0
 21 23  1  0  0  0  0
 21 22  1  0  0  0  0
 23 19  1  0  0  0  0
 23 22  1  0  0  0  0
 24 25  1  0  0  0  0
 26 27  2  0  0  0  0
 27  9  1  0  0  0  0
 28  8  1  0  0  0  0
 29 30  1  0  0  0  0
 30 32  1  0  0  0  0
 30 37  1  1  0  0  0
 31 28  1  1  0  0  0
 31 32  1  0  0  0  0
 33 34  1  6  0  0  0
 33 31  1  0  0  0  0
 35 36  2  0  0  0  0
 36 33  1  0  0  0  0
 36 29  1  0  0  0  0
 37 38  3  0  0  0  0
M  END
>  <MODEL>
3

>  <REMARK>
 VINA RESULT:      -7.0      2.191      5.181
  Name = 
  8 active torsions:
  status: ('A' for Active; 'I' for Inactive)
    1  A    between atoms: C_1  and  C_13
    2  A    between atoms: C_3  and  N_20
    3  A    between atoms: C_3  and  C_37
    4  A    between atoms: O_6  and  C_33
    5  A    between atoms: C_7  and  C_12
    6  A    between atoms: C_16  and  C_32
    7  A    between atoms: C_22  and  C_27
    8  A    between atoms: N_23  and  C_32
                            x       y       z     vdW  Elec       q    Type
                         _______ _______ _______ _____ _____    ______ ____

>  <TORSDO>
F 8

$$$$
=
 OpenBabel11042416243D

 38 42  0  0  1  0  0  0  0  0999 V2000
  189.6750  173.7730  138.3660 C   0  0  0  0  0  3  0  0  0  0  0  0
  189.6790  172.9110  141.2390 C   0  0  0  0  0  0  0  0  0  0  0  0
  188.8270  176.6990  143.5090 C   0  0  2  0  0  3  0  0  0  0  0  0
  187.5600  176.7310  142.5960 C   0  0  1  0  0  3  0  0  0  0  0  0
  188.8910  174.2950  142.9370 C   0  0  1  0  0  3  0  0  0  0  0  0
  191.6820  170.7780  138.8120 N   0  0  0  0  0  1  0  0  0  0  0  0
  189.7700  173.2250  142.5950 O   0  0  0  0  0  0  0  0  0  0  0  0
  189.6410  175.4420  143.4630 N   0  0  0  0  0  0  0  0  0  0  0  0
  190.4380  171.8030  140.6160 C   0  0  0  0  0  0  0  0  0  0  0  0
  190.8720  171.8350  139.3200 C   0  0  0  0  0  0  0  0  0  0  0  0
  188.4490  173.6140  139.1930 C   0  0  0  0  0  2  0  0  0  0  0  0
  187.7210  175.8230  141.4060 C   0  0  0  0  0  0  0  0  0  0  0  0
  188.3220  174.6530  141.6110 C   0  0  0  0  0  0  0  0  0  0  0  0
  188.8190  173.7050  140.6260 C   0  0  0  0  0  0  0  0  0  0  0  0
  190.6940  172.9690  138.4460 N   0  0  0  0  0  0  0  0  0  0  0  0
  188.5510  177.1410  144.8140 O   0  0  0  0  0  1  0  0  0  0  0  0
  186.3050  176.3650  143.3410 C   0  0  0  0  0  3  0  0  0  0  0  0
  185.4740  177.2340  143.8360 N   0  0  0  0  0  0  0  0  0  0  0  0
  185.5560  178.6640  143.7300 C   0  0  0  0  0  0  0  0  0  0  0  0
  185.9420  179.2200  142.6650 O   0  0  0  0  0  0  0  0  0  0  0  0
  185.6890  178.9830  146.1810 C   0  0  0  0  0  2  0  0  0  0  0  0
  184.2540  178.6710  145.8180 C   0  0  0  0  0  2  0  0  0  0  0  0
  185.1060  179.5080  144.8800 C   0  0  0  0  0  3  0  0  0  0  0  0
  187.2790  176.1910  140.1330 O   0  0  0  0  0  0  0  0  0  0  0  0
  186.6930  177.4590  139.8740 C   0  0  0  0  0  1  0  0  0  0  0  0
  191.8680  170.5170  142.2330 C   0  0  0  0  0  2  0  0  0  0  0  0
  190.7360  170.6910  141.5560 C   0  0  0  0  0  3  0  0  0  0  0  0
  190.1580  175.0710  144.7800 C   0  0  0  0  0  2  0  0  0  0  0  0
  194.2610  176.5590  144.4460 C   0  0  0  0  0  2  0  0  0  0  0  0
  193.6660  175.6000  143.4220 C   0  0  1  0  0  3  0  0  0  0  0  0
  191.6790  175.0760  144.7760 C   0  0  1  0  0  3  0  0  0  0  0  0
  192.1530  175.6610  143.4570 C   0  0  0  0  0  2  0  0  0  0  0  0
  192.2200  175.8510  145.9930 C   0  0  1  0  0  3  0  0  0  0  0  0
  192.3110  174.9150  147.1870 C   0  0  0  0  0  1  0  0  0  0  0  0
  194.0500  177.1610  146.6970 O   0  0  0  0  0  0  0  0  0  0  0  0
  193.5530  176.5380  145.7750 C   0  0  0  0  0  0  0  0  0  0  0  0
  194.1420  175.9610  142.0860 C   0  0  0  0  0  0  0  0  0  0  0  0
  194.5190  176.2470  141.0280 N   0  0  0  0  0  0  0  0  0  0  0  0
  1 15  2  0  0  0  0
  1 11  1  0  0  0  0
  2  7  1  0  0  0  0
  3 16  1  1  0  0  0
  4 17  1  1  0  0  0
  4  3  1  0  0  0  0
  5 13  1  6  0  0  0
  5  8  1  0  0  0  0
  6 10  1  0  0  0  0
  7  5  1  0  0  0  0
  8  3  1  0  0  0  0
  8 28  1  0  0  0  0
  9  2  1  0  0  0  0
  9 27  1  0  0  0  0
 10  9  2  0  0  0  0
 11 14  1  0  0  0  0
 12 13  2  0  0  0  0
 12  4  1  0  0  0  0
 14  2  2  0  0  0  0
 14 13  1  0  0  0  0
 15 10  1  0  0  0  0
 17 18  2  0  0  0  0
 19 18  1  0  0  0  0
 19 23  1  0  0  0  0
 20 19  2  0  0  0  0
 22 21  1  0  0  0  0
 23 22  1  0  0  0  0
 23 21  1  0  0  0  0
 24 12  1  0  0  0  0
 25 24  1  0  0  0  0
 27 26  2  0  0  0  0
 29 36  1  0  0  0  0
 30 37  1  6  0  0  0
 30 32  1  0  0  0  0
 30 29  1  0  0  0  0
 31 28  1  6  0  0  0
 31 33  1  0  0  0  0
 32 31  1  0  0  0  0
 33 34  1  1  0  0  0
 36 33  1  0  0  0  0
 36 35  2  0  0  0  0
 38 37  3  0  0  0  0
M  END
>  <MODEL>
4

>  <REMARK>
 VINA RESULT:      -6.9      2.399      3.132
  Name = 
  8 active torsions:
  status: ('A' for Active; 'I' for Inactive)
    1  A    between atoms: C_1  and  C_13
    2  A    between atoms: C_3  and  N_20
    3  A    between atoms: C_3  and  C_37
    4  A    between atoms: O_6  and  C_33
    5  A    between atoms: C_7  and  C_12
    6  A    between atoms: C_16  and  C_32
    7  A    between atoms: C_22  and  C_27
    8  A    between atoms: N_23  and  C_32
                            x       y       z     vdW  Elec       q    Type
                         _______ _______ _______ _____ _____    ______ ____

>  <TORSDO>
F 8

$$$$
=
 OpenBabel11042416243D

 38 42  0  0  1  0  0  0  0  0999 V2000
  188.9330  174.1910  140.3240 C   0  0  0  0  0  3  0  0  0  0  0  0
  190.2170  172.7460  142.6190 C   0  0  0  0  0  0  0  0  0  0  0  0
  190.8380  175.9550  145.7100 C   0  0  2  0  0  3  0  0  0  0  0  0
  189.2980  176.1480  145.5360 C   0  0  1  0  0  3  0  0  0  0  0  0
  190.4330  173.7260  144.7200 C   0  0  1  0  0  3  0  0  0  0  0  0
  190.6670  171.2150  139.1690 N   0  0  0  0  0  1  0  0  0  0  0  0
  190.9590  172.7710  143.8000 O   0  0  0  0  0  0  0  0  0  0  0  0
  191.4310  174.7540  145.0370 N   0  0  0  0  0  0  0  0  0  0  0  0
  190.5030  171.8110  141.5080 C   0  0  0  0  0  0  0  0  0  0  0  0
  190.2780  172.1240  140.1950 C   0  0  0  0  0  0  0  0  0  0  0  0
  188.2310  173.8340  141.5860 C   0  0  0  0  0  2  0  0  0  0  0  0
  188.8070  175.5140  144.2610 C   0  0  0  0  0  0  0  0  0  0  0  0
  189.3380  174.3400  143.9220 C   0  0  0  0  0  0  0  0  0  0  0  0
  189.2370  173.6320  142.6570 C   0  0  0  0  0  0  0  0  0  0  0  0
  189.8020  173.4110  139.7510 N   0  0  0  0  0  0  0  0  0  0  0  0
  191.2430  176.1060  147.0460 O   0  0  0  0  0  1  0  0  0  0  0  0
  188.5150  175.6060  146.7000 C   0  0  0  0  0  3  0  0  0  0  0  0
  187.6260  176.2890  147.3600 N   0  0  0  0  0  0  0  0  0  0  0  0
  187.1930  177.6310  147.0880 C   0  0  0  0  0  0  0  0  0  0  0  0
  187.7120  178.6190  147.6790 O   0  0  0  0  0  0  0  0  0  0  0  0
  184.7980  178.0910  146.6670 C   0  0  0  0  0  2  0  0  0  0  0  0
  185.1360  176.7430  146.0720 C   0  0  0  0  0  2  0  0  0  0  0  0
  186.1600  177.8640  146.0330 C   0  0  0  0  0  3  0  0  0  0  0  0
  187.8500  176.1310  143.4510 O   0  0  0  0  0  0  0  0  0  0  0  0
  188.0840  177.3860  142.8290 C   0  0  0  0  0  1  0  0  0  0  0  0
  192.4180  170.2670  142.0160 C   0  0  0  0  0  2  0  0  0  0  0  0
  191.1170  170.5330  141.9550 C   0  0  0  0  0  3  0  0  0  0  0  0
  192.4740  174.1260  145.8490 C   0  0  0  0  0  2  0  0  0  0  0  0
  196.6730  173.9120  144.6310 C   0  0  0  0  0  2  0  0  0  0  0  0
  195.6800  174.8370  143.9380 C   0  0  1  0  0  3  0  0  0  0  0  0
  193.7020  173.8290  145.0010 C   0  0  1  0  0  3  0  0  0  0  0  0
  194.4960  175.1140  144.8420 C   0  0  0  0  0  2  0  0  0  0  0  0
  194.5330  172.6960  145.6310 C   0  0  1  0  0  3  0  0  0  0  0  0
  193.9920  171.3540  145.1650 C   0  0  0  0  0  1  0  0  0  0  0  0
  196.7450  171.9000  145.8240 O   0  0  0  0  0  0  0  0  0  0  0  0
  196.0230  172.7700  145.3670 C   0  0  0  0  0  0  0  0  0  0  0  0
  196.3450  176.0960  143.5980 C   0  0  0  0  0  0  0  0  0  0  0  0
  196.8710  177.0910  143.3290 N   0  0  0  0  0  0  0  0  0  0  0  0
  1 11  1  0  0  0  0
  2 14  2  0  0  0  0
  2  7  1  0  0  0  0
  3 16  1  1  0  0  0
  4  3  1  0  0  0  0
  4 17  1  1  0  0  0
  5  7  1  6  0  0  0
  5  8  1  0  0  0  0
  6 10  1  0  0  0  0
  8  3  1  0  0  0  0
  8 28  1  0  0  0  0
  9 27  1  0  0  0  0
  9  2  1  0  0  0  0
 10  9  2  0  0  0  0
 11 14  1  0  0  0  0
 12  4  1  0  0  0  0
 13 12  2  0  0  0  0
 13  5  1  0  0  0  0
 14 13  1  0  0  0  0
 15 10  1  0  0  0  0
 15  1  2  0  0  0  0
 17 18  2  0  0  0  0
 19 18  1  0  0  0  0
 19 20  2  0  0  0  0
 22 21  1  0  0  0  0
 23 22  1  0  0  0  0
 23 21  1  0  0  0  0
 23 19  1  0  0  0  0
 24 12  1  0  0  0  0
 25 24  1  0  0  0  0
 27 26  2  0  0  0  0
 29 36  1  0  0  0  0
 30 37  1  1  0  0  0
 30 29  1  0  0  0  0
 30 32  1  0  0  0  0
 31 33  1  0  0  0  0
 31 28  1  1  0  0  0
 32 31  1  0  0  0  0
 33 34  1  6  0  0  0
 36 33  1  0  0  0  0
 36 35  2  0  0  0  0
 38 37  3  0  0  0  0
M  END
>  <MODEL>
5

>  <REMARK>
 VINA RESULT:      -6.9      1.698      2.202
  Name = 
  8 active torsions:
  status: ('A' for Active; 'I' for Inactive)
    1  A    between atoms: C_1  and  C_13
    2  A    between atoms: C_3  and  N_20
    3  A    between atoms: C_3  and  C_37
    4  A    between atoms: O_6  and  C_33
    5  A    between atoms: C_7  and  C_12
    6  A    between atoms: C_16  and  C_32
    7  A    between atoms: C_22  and  C_27
    8  A    between atoms: N_23  and  C_32
                            x       y       z     vdW  Elec       q    Type
                         _______ _______ _______ _____ _____    ______ ____

>  <TORSDO>
F 8

$$$$
=
 OpenBabel11042416243D

 38 42  0  0  1  0  0  0  0  0999 V2000
  194.4260  175.8310  146.2730 C   0  0  0  0  0  3  0  0  0  0  0  0
  193.3870  176.1560  143.4780 C   0  0  0  0  0  0  0  0  0  0  0  0
  188.9900  175.2860  143.8480 C   0  0  2  0  0  3  0  0  0  0  0  0
  189.0510  176.4310  144.9080 C   0  0  1  0  0  3  0  0  0  0  0  0
  191.1070  176.2570  143.0200 C   0  0  1  0  0  3  0  0  0  0  0  0
  197.0690  175.2830  143.8420 N   0  0  0  0  0  1  0  0  0  0  0  0
  192.4000  175.9220  142.5200 O   0  0  0  0  0  0  0  0  0  0  0  0
  190.2250  175.0840  143.0240 N   0  0  0  0  0  0  0  0  0  0  0  0
  194.8290  175.9480  143.2150 C   0  0  0  0  0  0  0  0  0  0  0  0
  195.7140  175.5590  144.1830 C   0  0  0  0  0  0  0  0  0  0  0  0
  193.6290  176.9970  145.8080 C   0  0  0  0  0  2  0  0  0  0  0  0
  190.4650  176.6870  145.3550 C   0  0  0  0  0  0  0  0  0  0  0  0
  191.4160  176.6380  144.4240 C   0  0  0  0  0  0  0  0  0  0  0  0
  192.8580  176.6050  144.6030 C   0  0  0  0  0  0  0  0  0  0  0  0
  195.3280  175.2500  145.5390 N   0  0  0  0  0  0  0  0  0  0  0  0
  187.8100  175.3300  143.0870 O   0  0  0  0  0  1  0  0  0  0  0  0
  188.4430  177.7120  144.4060 C   0  0  0  0  0  3  0  0  0  0  0  0
  187.4130  178.2910  144.9510 N   0  0  0  0  0  0  0  0  0  0  0  0
  186.7080  177.8670  146.1280 C   0  0  0  0  0  0  0  0  0  0  0  0
  187.2610  177.8820  147.2630 O   0  0  0  0  0  0  0  0  0  0  0  0
  184.4380  178.6370  145.5140 C   0  0  0  0  0  2  0  0  0  0  0  0
  184.4410  178.2900  146.9860 C   0  0  0  0  0  2  0  0  0  0  0  0
  185.2710  177.4690  146.0140 C   0  0  0  0  0  3  0  0  0  0  0  0
  190.7810  176.9480  146.6910 O   0  0  0  0  0  0  0  0  0  0  0  0
  190.7930  175.9250  147.6770 C   0  0  0  0  0  1  0  0  0  0  0  0
  195.2020  175.2020  140.8460 C   0  0  0  0  0  2  0  0  0  0  0  0
  195.2030  176.1390  141.7890 C   0  0  0  0  0  3  0  0  0  0  0  0
  189.9130  174.7570  141.6320 C   0  0  0  0  0  2  0  0  0  0  0  0
  192.6450  171.3530  141.2920 C   0  0  0  0  0  2  0  0  0  0  0  0
  192.1840  172.1410  140.0710 C   0  0  1  0  0  3  0  0  0  0  0  0
  190.4280  173.3690  141.2840 C   0  0  1  0  0  3  0  0  0  0  0  0
  191.7090  173.5200  140.4820 C   0  0  0  0  0  2  0  0  0  0  0  0
  190.6280  172.5300  142.5600 C   0  0  1  0  0  3  0  0  0  0  0  0
  189.3170  171.8560  142.9310 C   0  0  0  0  0  1  0  0  0  0  0  0
  191.9410  170.7850  143.4500 O   0  0  0  0  0  0  0  0  0  0  0  0
  191.7320  171.4960  142.4820 C   0  0  0  0  0  0  0  0  0  0  0  0
  193.2950  172.2640  139.1260 C   0  0  0  0  0  0  0  0  0  0  0  0
  194.1740  172.3610  138.3780 N   0  0  0  0  0  0  0  0  0  0  0  0
  2 14  2  0  0  0  0
  3 16  1  6  0  0  0
  3  4  1  0  0  0  0
  4 17  1  6  0  0  0
  4 12  1  0  0  0  0
  5  7  1  6  0  0  0
  5  8  1  0  0  0  0
  5 13  1  0  0  0  0
  6 10  1  0  0  0  0
  7  2  1  0  0  0  0
  8  3  1  0  0  0  0
  9  2  1  0  0  0  0
  9 10  2  0  0  0  0
 10 15  1  0  0  0  0
 11  1  1  0  0  0  0
 12 24  1  0  0  0  0
 13 14  1  0  0  0  0
 13 12  2  0  0  0  0
 14 11  1  0  0  0  0
 15  1  2  0  0  0  0
 17 18  2  0  0  0  0
 18 19  1  0  0  0  0
 19 20  2  0  0  0  0
 21 23  1  0  0  0  0
 21 22  1  0  0  0  0
 23 19  1  0  0  0  0
 23 22  1  0  0  0  0
 24 25  1  0  0  0  0
 26 27  2  0  0  0  0
 27  9  1  0  0  0  0
 28  8  1  0  0  0  0
 29 36  1  0  0  0  0
 30 37  1  6  0  0  0
 30 32  1  0  0  0  0
 30 29  1  0  0  0  0
 31 28  1  1  0  0  0
 31 33  1  0  0  0  0
 32 31  1  0  0  0  0
 33 34  1  6  0  0  0
 36 33  1  0  0  0  0
 36 35  2  0  0  0  0
 38 37  3  0  0  0  0
M  END
>  <MODEL>
6

>  <REMARK>
 VINA RESULT:      -6.8      2.048      5.026
  Name = 
  8 active torsions:
  status: ('A' for Active; 'I' for Inactive)
    1  A    between atoms: C_1  and  C_13
    2  A    between atoms: C_3  and  N_20
    3  A    between atoms: C_3  and  C_37
    4  A    between atoms: O_6  and  C_33
    5  A    between atoms: C_7  and  C_12
    6  A    between atoms: C_16  and  C_32
    7  A    between atoms: C_22  and  C_27
    8  A    between atoms: N_23  and  C_32
                            x       y       z     vdW  Elec       q    Type
                         _______ _______ _______ _____ _____    ______ ____

>  <TORSDO>
F 8

$$$$
=
 OpenBabel11042416243D

 38 42  0  0  1  0  0  0  0  0999 V2000
  188.5670  173.5130  139.6320 C   0  0  0  0  0  3  0  0  0  0  0  0
  190.3450  172.2180  141.6730 C   0  0  0  0  0  0  0  0  0  0  0  0
  191.2630  175.5350  144.5700 C   0  0  2  0  0  3  0  0  0  0  0  0
  189.7070  175.6120  144.6740 C   0  0  1  0  0  3  0  0  0  0  0  0
  190.8580  173.2600  143.6910 C   0  0  1  0  0  3  0  0  0  0  0  0
  190.2860  170.6440  138.2140 N   0  0  0  0  0  1  0  0  0  0  0  0
  191.2820  172.3240  142.7010 O   0  0  0  0  0  0  0  0  0  0  0  0
  191.8160  174.3640  143.8140 N   0  0  0  0  0  0  0  0  0  0  0  0
  190.4980  171.2810  140.5380 C   0  0  0  0  0  0  0  0  0  0  0  0
  190.0200  171.5460  139.2840 C   0  0  0  0  0  0  0  0  0  0  0  0
  188.1300  173.1350  141.0030 C   0  0  0  0  0  2  0  0  0  0  0  0
  189.0460  174.9140  143.5150 C   0  0  0  0  0  0  0  0  0  0  0  0
  189.5950  173.7750  143.0970 C   0  0  0  0  0  0  0  0  0  0  0  0
  189.3230  173.0310  141.8780 C   0  0  0  0  0  0  0  0  0  0  0  0
  189.3760  172.7850  138.9200 N   0  0  0  0  0  0  0  0  0  0  0  0
  191.8880  175.7470  145.8100 O   0  0  0  0  0  1  0  0  0  0  0  0
  189.1880  175.0420  145.9650 C   0  0  0  0  0  3  0  0  0  0  0  0
  188.6580  175.7560  146.9140 N   0  0  0  0  0  0  0  0  0  0  0  0
  188.4240  177.1730  146.9000 C   0  0  0  0  0  0  0  0  0  0  0  0
  189.2860  177.9830  147.3390 O   0  0  0  0  0  0  0  0  0  0  0  0
  186.1660  178.0730  147.3650 C   0  0  0  0  0  2  0  0  0  0  0  0
  186.0130  176.7660  146.6190 C   0  0  0  0  0  2  0  0  0  0  0  0
  187.1660  177.6980  146.2850 C   0  0  0  0  0  3  0  0  0  0  0  0
  187.9160  175.4410  142.8830 O   0  0  0  0  0  0  0  0  0  0  0  0
  187.8420  176.8010  142.4800 C   0  0  0  0  0  1  0  0  0  0  0  0
  190.8160  168.9880  141.5150 C   0  0  0  0  0  2  0  0  0  0  0  0
  191.2760  170.0620  140.8800 C   0  0  0  0  0  3  0  0  0  0  0  0
  193.0310  173.8330  144.4310 C   0  0  0  0  0  2  0  0  0  0  0  0
  195.7020  176.2060  141.9010 C   0  0  0  0  0  2  0  0  0  0  0  0
  195.0200  174.9430  141.3900 C   0  0  1  0  0  3  0  0  0  0  0  0
  194.2560  174.2200  143.6150 C   0  0  1  0  0  3  0  0  0  0  0  0
  193.7960  174.6270  142.2260 C   0  0  0  0  0  2  0  0  0  0  0  0
  195.0480  175.3340  144.3240 C   0  0  1  0  0  3  0  0  0  0  0  0
  196.0140  174.7110  145.3190 C   0  0  0  0  0  1  0  0  0  0  0  0
  196.4560  177.1760  143.8920 O   0  0  0  0  0  0  0  0  0  0  0  0
  195.7960  176.2760  143.4020 C   0  0  0  0  0  0  0  0  0  0  0  0
  194.6260  175.1360  139.9930 C   0  0  0  0  0  0  0  0  0  0  0  0
  194.3140  175.2880  138.8890 N   0  0  0  0  0  0  0  0  0  0  0  0
  1 11  1  0  0  0  0
  2 14  2  0  0  0  0
  2  7  1  0  0  0  0
  3  4  1  0  0  0  0
  3 16  1  1  0  0  0
  4 17  1  1  0  0  0
  5  7  1  6  0  0  0
  5  8  1  0  0  0  0
  6 10  1  0  0  0  0
  8 28  1  0  0  0  0
  8  3  1  0  0  0  0
  9 27  1  0  0  0  0
  9  2  1  0  0  0  0
 10  9  2  0  0  0  0
 11 14  1  0  0  0  0
 12  4  1  0  0  0  0
 13 12  2  0  0  0  0
 13  5  1  0  0  0  0
 14 13  1  0  0  0  0
 15 10  1  0  0  0  0
 15  1  2  0  0  0  0
 17 18  2  0  0  0  0
 19 18  1  0  0  0  0
 19 20  2  0  0  0  0
 22 21  1  0  0  0  0
 23 22  1  0  0  0  0
 23 19  1  0  0  0  0
 23 21  1  0  0  0  0
 24 12  1  0  0  0  0
 25 24  1  0  0  0  0
 27 26  2  0  0  0  0
 29 36  1  0  0  0  0
 30 37  1  6  0  0  0
 30 29  1  0  0  0  0
 30 32  1  0  0  0  0
 31 33  1  0  0  0  0
 31 28  1  1  0  0  0
 32 31  1  0  0  0  0
 33 34  1  1  0  0  0
 36 35  2  0  0  0  0
 36 33  1  0  0  0  0
 38 37  3  0  0  0  0
M  END
>  <MODEL>
7

>  <REMARK>
 VINA RESULT:      -6.7      1.925      2.698
  Name = 
  8 active torsions:
  status: ('A' for Active; 'I' for Inactive)
    1  A    between atoms: C_1  and  C_13
    2  A    between atoms: C_3  and  N_20
    3  A    between atoms: C_3  and  C_37
    4  A    between atoms: O_6  and  C_33
    5  A    between atoms: C_7  and  C_12
    6  A    between atoms: C_16  and  C_32
    7  A    between atoms: C_22  and  C_27
    8  A    between atoms: N_23  and  C_32
                            x       y       z     vdW  Elec       q    Type
                         _______ _______ _______ _____ _____    ______ ____

>  <TORSDO>
F 8

$$$$
=
 OpenBabel11042416243D

 38 42  0  0  1  0  0  0  0  0999 V2000
  189.3310  173.8230  139.2780 C   0  0  0  0  0  3  0  0  0  0  0  0
  189.7240  173.0750  142.1570 C   0  0  0  0  0  0  0  0  0  0  0  0
  188.8530  176.8790  144.3940 C   0  0  2  0  0  3  0  0  0  0  0  0
  187.4920  176.7850  143.6330 C   0  0  1  0  0  3  0  0  0  0  0  0
  189.0320  174.4650  143.8910 C   0  0  1  0  0  3  0  0  0  0  0  0
  191.5940  170.9970  139.5810 N   0  0  0  0  0  1  0  0  0  0  0  0
  189.9450  173.4470  143.4830 O   0  0  0  0  0  0  0  0  0  0  0  0
  189.7490  175.6820  144.2920 N   0  0  0  0  0  0  0  0  0  0  0  0
  190.4890  172.0010  141.4840 C   0  0  0  0  0  0  0  0  0  0  0  0
  190.7700  172.0130  140.1460 C   0  0  0  0  0  0  0  0  0  0  0  0
  188.2220  173.6090  140.2460 C   0  0  0  0  0  2  0  0  0  0  0  0
  187.5850  175.8460  142.4600 C   0  0  0  0  0  0  0  0  0  0  0  0
  188.2910  174.7290  142.6290 C   0  0  0  0  0  0  0  0  0  0  0  0
  188.7430  173.7820  141.6230 C   0  0  0  0  0  0  0  0  0  0  0  0
  190.4100  173.0970  139.2640 N   0  0  0  0  0  0  0  0  0  0  0  0
  188.6940  177.3500  145.7070 O   0  0  0  0  0  1  0  0  0  0  0  0
  186.3610  176.3610  144.5280 C   0  0  0  0  0  3  0  0  0  0  0  0
  185.1820  176.9120  144.5220 N   0  0  0  0  0  0  0  0  0  0  0  0
  184.7260  177.9620  143.6560 C   0  0  0  0  0  0  0  0  0  0  0  0
  184.5080  177.7510  142.4300 O   0  0  0  0  0  0  0  0  0  0  0  0
  185.6970  180.1550  144.2650 C   0  0  0  0  0  2  0  0  0  0  0  0
  185.2100  179.4820  145.5290 C   0  0  0  0  0  2  0  0  0  0  0  0
  184.4350  179.3100  144.2340 C   0  0  0  0  0  3  0  0  0  0  0  0
  186.9760  176.1320  141.2350 O   0  0  0  0  0  0  0  0  0  0  0  0
  187.2030  177.3530  140.5470 C   0  0  0  0  0  1  0  0  0  0  0  0
  192.1380  170.9450  143.0580 C   0  0  0  0  0  2  0  0  0  0  0  0
  190.9740  170.9490  142.4170 C   0  0  0  0  0  3  0  0  0  0  0  0
  190.4370  175.3990  145.5510 C   0  0  0  0  0  2  0  0  0  0  0  0
  194.3300  174.3280  143.8590 C   0  0  0  0  0  2  0  0  0  0  0  0
  193.9180  173.9020  145.2630 C   0  0  1  0  0  3  0  0  0  0  0  0
  191.9430  175.3700  145.3400 C   0  0  1  0  0  3  0  0  0  0  0  0
  192.4080  173.9260  145.4000 C   0  0  0  0  0  2  0  0  0  0  0  0
  192.3160  176.0550  144.0110 C   0  0  1  0  0  3  0  0  0  0  0  0
  192.4610  177.5510  144.2380 C   0  0  0  0  0  1  0  0  0  0  0  0
  193.9240  176.0140  142.2860 O   0  0  0  0  0  0  0  0  0  0  0  0
  193.5600  175.5130  143.3370 C   0  0  0  0  0  0  0  0  0  0  0  0
  194.4140  172.5510  145.5250 C   0  0  0  0  0  0  0  0  0  0  0  0
  194.8080  171.4820  145.7320 N   0  0  0  0  0  0  0  0  0  0  0  0
  1 11  1  0  0  0  0
  2  7  1  0  0  0  0
  3 16  1  1  0  0  0
  4  3  1  0  0  0  0
  4 17  1  1  0  0  0
  5 13  1  6  0  0  0
  5  8  1  0  0  0  0
  6 10  1  0  0  0  0
  7  5  1  0  0  0  0
  8  3  1  0  0  0  0
  8 28  1  0  0  0  0
  9  2  1  0  0  0  0
  9 27  1  0  0  0  0
 10  9  2  0  0  0  0
 11 14  1  0  0  0  0
 12 13  2  0  0  0  0
 12  4  1  0  0  0  0
 14  2  2  0  0  0  0
 14 13  1  0  0  0  0
 15  1  2  0  0  0  0
 15 10  1  0  0  0  0
 18 17  2  0  0  0  0
 19 23  1  0  0  0  0
 19 18  1  0  0  0  0
 20 19  2  0  0  0  0
 21 22  1  0  0  0  0
 23 21  1  0  0  0  0
 23 22  1  0  0  0  0
 24 12  1  0  0  0  0
 25 24  1  0  0  0  0
 27 26  2  0  0  0  0
 29 30  1  0  0  0  0
 30 32  1  0  0  0  0
 30 37  1  6  0  0  0
 31 32  1  0  0  0  0
 31 28  1  6  0  0  0
 33 34  1  1  0  0  0
 33 31  1  0  0  0  0
 35 36  2  0  0  0  0
 36 29  1  0  0  0  0
 36 33  1  0  0  0  0
 37 38  3  0  0  0  0
M  END
>  <MODEL>
8

>  <REMARK>
 VINA RESULT:      -6.6      1.671      2.197
  Name = 
  8 active torsions:
  status: ('A' for Active; 'I' for Inactive)
    1  A    between atoms: C_1  and  C_13
    2  A    between atoms: C_3  and  N_20
    3  A    between atoms: C_3  and  C_37
    4  A    between atoms: O_6  and  C_33
    5  A    between atoms: C_7  and  C_12
    6  A    between atoms: C_16  and  C_32
    7  A    between atoms: C_22  and  C_27
    8  A    between atoms: N_23  and  C_32
                            x       y       z     vdW  Elec       q    Type
                         _______ _______ _______ _____ _____    ______ ____

>  <TORSDO>
F 8

$$$$
=
 OpenBabel11042416243D

 38 42  0  0  1  0  0  0  0  0999 V2000
  192.5010  175.5280  146.5170 C   0  0  0  0  0  3  0  0  0  0  0  0
  192.2540  175.7060  143.5320 C   0  0  0  0  0  0  0  0  0  0  0  0
  187.8150  175.6200  142.8060 C   0  0  2  0  0  3  0  0  0  0  0  0
  187.8310  176.8500  143.7680 C   0  0  1  0  0  3  0  0  0  0  0  0
  190.2140  176.1310  142.4940 C   0  0  1  0  0  3  0  0  0  0  0  0
  195.5050  174.2840  144.8950 N   0  0  0  0  0  1  0  0  0  0  0  0
  191.5040  175.5330  142.3690 O   0  0  0  0  0  0  0  0  0  0  0  0
  189.1540  175.1270  142.3460 N   0  0  0  0  0  0  0  0  0  0  0  0
  193.6510  175.2360  143.6670 C   0  0  0  0  0  0  0  0  0  0  0  0
  194.1840  174.8160  144.8550 C   0  0  0  0  0  0  0  0  0  0  0  0
  192.0750  176.7500  145.7850 C   0  0  0  0  0  2  0  0  0  0  0  0
  189.1160  176.9180  144.5490 C   0  0  0  0  0  0  0  0  0  0  0  0
  190.2380  176.6090  143.9010 C   0  0  0  0  0  0  0  0  0  0  0  0
  191.5610  176.3580  144.4500 C   0  0  0  0  0  0  0  0  0  0  0  0
  193.4300  174.7280  146.0810 N   0  0  0  0  0  0  0  0  0  0  0  0
  186.8860  175.7730  141.7640 O   0  0  0  0  0  1  0  0  0  0  0  0
  187.6150  178.1500  143.0430 C   0  0  0  0  0  3  0  0  0  0  0  0
  186.5220  178.8520  143.1180 N   0  0  0  0  0  0  0  0  0  0  0  0
  185.3670  178.5650  143.9210 C   0  0  0  0  0  0  0  0  0  0  0  0
  184.4660  177.7800  143.5140 O   0  0  0  0  0  0  0  0  0  0  0  0
  185.4580  178.0740  146.3440 C   0  0  0  0  0  2  0  0  0  0  0  0
  184.0660  178.5600  146.0090 C   0  0  0  0  0  2  0  0  0  0  0  0
  185.2670  179.1520  145.2920 C   0  0  0  0  0  3  0  0  0  0  0  0
  189.1400  177.2700  145.9010 O   0  0  0  0  0  0  0  0  0  0  0  0
  188.6730  176.3940  146.9170 C   0  0  0  0  0  1  0  0  0  0  0  0
  194.7660  176.2570  141.6610 C   0  0  0  0  0  2  0  0  0  0  0  0
  194.3890  175.2020  142.3770 C   0  0  0  0  0  3  0  0  0  0  0  0
  189.1340  174.7030  140.9460 C   0  0  0  0  0  2  0  0  0  0  0  0
  191.7320  171.1790  140.9770 C   0  0  0  0  0  2  0  0  0  0  0  0
  191.1440  171.7340  139.6860 C   0  0  1  0  0  3  0  0  0  0  0  0
  189.5740  173.2510  140.8230 C   0  0  1  0  0  3  0  0  0  0  0  0
  190.7510  173.1870  139.8660 C   0  0  0  0  0  2  0  0  0  0  0  0
  189.9080  172.6690  142.2090 C   0  0  1  0  0  3  0  0  0  0  0  0
  188.6380  172.1400  142.8540 C   0  0  0  0  0  1  0  0  0  0  0  0
  191.2830  171.0740  143.2720 O   0  0  0  0  0  0  0  0  0  0  0  0
  190.9730  171.5910  142.2120 C   0  0  0  0  0  0  0  0  0  0  0  0
  192.1350  171.6210  138.6140 C   0  0  0  0  0  0  0  0  0  0  0  0
  192.9180  171.5320  137.7670 N   0  0  0  0  0  0  0  0  0  0  0  0
  2  9  1  0  0  0  0
  2 14  2  0  0  0  0
  3 16  1  6  0  0  0
  3  4  1  0  0  0  0
  4 17  1  6  0  0  0
  4 12  1  0  0  0  0
  5  7  1  1  0  0  0
  5 13  1  0  0  0  0
  7  2  1  0  0  0  0
  8  5  1  0  0  0  0
  8  3  1  0  0  0  0
  9 10  2  0  0  0  0
 10  6  1  0  0  0  0
 10 15  1  0  0  0  0
 11  1  1  0  0  0  0
 12 24  1  0  0  0  0
 13 14  1  0  0  0  0
 13 12  2  0  0  0  0
 14 11  1  0  0  0  0
 15  1  2  0  0  0  0
 17 18  2  0  0  0  0
 18 19  1  0  0  0  0
 19 23  1  0  0  0  0
 20 19  2  0  0  0  0
 22 21  1  0  0  0  0
 23 22  1  0  0  0  0
 23 21  1  0  0  0  0
 24 25  1  0  0  0  0
 26 27  2  0  0  0  0
 27  9  1  0  0  0  0
 28  8  1  0  0  0  0
 29 36  1  0  0  0  0
 30 37  1  6  0  0  0
 30 32  1  0  0  0  0
 30 29  1  0  0  0  0
 31 28  1  1  0  0  0
 31 33  1  0  0  0  0
 32 31  1  0  0  0  0
 33 36  1  0  0  0  0
 33 34  1  6  0  0  0
 36 35  2  0  0  0  0
 38 37  3  0  0  0  0
M  END
>  <MODEL>
9

>  <REMARK>
 VINA RESULT:      -6.5      2.052      5.158
  Name = 
  8 active torsions:
  status: ('A' for Active; 'I' for Inactive)
    1  A    between atoms: C_1  and  C_13
    2  A    between atoms: C_3  and  N_20
    3  A    between atoms: C_3  and  C_37
    4  A    between atoms: O_6  and  C_33
    5  A    between atoms: C_7  and  C_12
    6  A    between atoms: C_16  and  C_32
    7  A    between atoms: C_22  and  C_27
    8  A    between atoms: N_23  and  C_32
                            x       y       z     vdW  Elec       q    Type
                         _______ _______ _______ _____ _____    ______ ____

>  <TORSDO>
F 8

$$$$
