=
 OpenBabel11042417213D

 26 29  0  0  1  0  0  0  0  0999 V2000
  190.7050  175.5280  143.4550 C   0  0  1  0  0  3  0  0  0  0  0  0
  191.9220  176.2650  147.4120 S   0  0  0  0  0  0  0  0  0  0  0  0
  189.8690  174.5360  143.0940 C   0  0  1  0  0  3  0  0  0  0  0  0
  193.1730  174.2020  145.8340 C   0  0  2  0  0  3  0  0  0  0  0  0
  190.2120  176.9030  143.9160 C   0  0  1  0  0  3  0  0  0  0  0  0
  190.1090  173.1960  143.6690 C   0  0  0  0  0  0  0  0  0  0  0  0
  193.3080  175.6520  146.3570 C   0  0  0  0  0  2  0  0  0  0  0  0
  191.9730  175.1830  144.0200 N   0  0  0  0  0  2  0  0  0  0  0  0
  188.5830  175.8850  141.3740 C   0  0  0  0  0  1  0  0  0  0  0  0
  194.5230  173.7370  145.3260 C   0  0  0  0  0  1  0  0  0  0  0  0
  189.2320  176.6140  146.6330 C   0  0  0  0  0  2  0  0  0  0  0  0
  188.7300  174.7170  142.2300 N   0  0  0  0  0  0  0  0  0  0  0  0
  188.6940  177.0310  144.1920 C   0  0  0  0  0  2  0  0  0  0  0  0
  189.2510  172.2130  143.3900 C   0  0  0  0  0  3  0  0  0  0  0  0
  187.8930  173.5850  141.9590 C   0  0  0  0  0  3  0  0  0  0  0  0
  191.1360  173.0140  144.7540 C   0  0  0  0  0  2  0  0  0  0  0  0
  188.1430  172.4270  142.5000 N   0  0  0  0  0  0  0  0  0  0  0  0
  190.6390  176.3940  146.1140 C   0  0  1  0  0  3  0  0  0  0  0  0
  192.1680  174.1110  144.7240 C   0  0  2  0  0  3  0  0  0  0  0  0
  190.9320  177.3190  145.0790 O   0  0  0  0  0  0  0  0  0  0  0  0
  188.2830  176.2990  145.4780 C   0  0  2  0  0  3  0  0  0  0  0  0
  185.7820  176.9530  146.1400 C   0  0  0  0  0  0  0  0  0  0  0  0
  186.9120  176.6570  145.8410 C   0  0  0  0  0  0  0  0  0  0  0  0
  184.4680  177.2980  146.4860 N   0  0  0  0  0  2  0  0  0  0  0  0
  184.0570  178.5880  146.4340 O   0  0  0  0  0  0  0  0  0  0  0  0
  184.1020  178.9260  145.0800 C   0  0  0  0  0  1  0  0  0  0  0  0
  1  5  1  0  0  0  0
  1  8  1  1  0  0  0
  3  1  1  0  0  0  0
  3  6  1  1  0  0  0
  4 10  1  6  0  0  0
  4  7  1  0  0  0  0
  5 13  1  1  0  0  0
  5 20  1  0  0  0  0
  6 16  1  0  0  0  0
  7  2  1  0  0  0  0
  8 19  1  0  0  0  0
  9 12  1  0  0  0  0
 12  3  1  0  0  0  0
 13 21  1  0  0  0  0
 14  6  2  0  0  0  0
 15 12  1  0  0  0  0
 15 17  2  0  0  0  0
 17 14  1  0  0  0  0
 18 11  1  1  0  0  0
 18  2  1  0  0  0  0
 19 16  1  1  0  0  0
 19  4  1  0  0  0  0
 20 18  1  0  0  0  0
 21 23  1  1  0  0  0
 21 11  1  0  0  0  0
 22 24  1  0  0  0  0
 23 22  3  0  0  0  0
 25 24  1  0  0  0  0
 26 25  1  0  0  0  0
M  END
>  <MODEL>
1

>  <REMARK>
 VINA RESULT:      -7.0      0.000      0.000
  Name = 
  3 active torsions:
  status: ('A' for Active; 'I' for Inactive)
    1  A    between atoms: C_7  and  N_9
    2  A    between atoms: N_9  and  O_14
    3  A    between atoms: C_12  and  C_26
                            x       y       z     vdW  Elec       q    Type
                         _______ _______ _______ _____ _____    ______ ____

>  <TORSDO>
F 3

$$$$
=
 OpenBabel11042417213D

 26 29  0  0  1  0  0  0  0  0999 V2000
  189.3540  177.4520  144.2160 C   0  0  1  0  0  3  0  0  0  0  0  0
  186.2180  177.2700  141.4210 S   0  0  0  0  0  0  0  0  0  0  0  0
  189.4810  176.6160  145.2640 C   0  0  1  0  0  3  0  0  0  0  0  0
  185.8530  178.5450  143.9810 C   0  0  2  0  0  3  0  0  0  0  0  0
  189.9010  177.1260  142.8220 C   0  0  1  0  0  3  0  0  0  0  0  0
  188.2750  176.3420  146.0720 C   0  0  0  0  0  0  0  0  0  0  0  0
  186.1270  178.7830  142.4770 C   0  0  0  0  0  2  0  0  0  0  0  0
  188.2210  178.3240  144.1700 N   0  0  0  0  0  2  0  0  0  0  0  0
  191.9990  176.3600  145.0950 C   0  0  0  0  0  1  0  0  0  0  0  0
  185.4370  179.8570  144.6170 C   0  0  0  0  0  1  0  0  0  0  0  0
  188.1110  175.1870  141.6130 C   0  0  0  0  0  2  0  0  0  0  0  0
  190.7050  175.9350  145.6070 N   0  0  0  0  0  0  0  0  0  0  0  0
  190.3930  175.6760  142.6010 C   0  0  0  0  0  2  0  0  0  0  0  0
  188.3540  175.4590  147.0680 C   0  0  0  0  0  3  0  0  0  0  0  0
  190.6940  175.0370  146.7250 C   0  0  0  0  0  3  0  0  0  0  0  0
  186.9310  176.8400  145.6120 C   0  0  0  0  0  2  0  0  0  0  0  0
  189.6000  174.8220  147.3970 N   0  0  0  0  0  0  0  0  0  0  0  0
  187.8030  176.6060  142.0470 C   0  0  1  0  0  3  0  0  0  0  0  0
  187.0690  178.0190  144.6830 C   0  0  2  0  0  3  0  0  0  0  0  0
  188.9260  177.4440  141.8260 O   0  0  0  0  0  0  0  0  0  0  0  0
  189.2260  174.6800  142.5270 C   0  0  2  0  0  3  0  0  0  0  0  0
  190.1030  172.3080  141.6750 C   0  0  0  0  0  0  0  0  0  0  0  0
  189.7070  173.3790  142.0600 C   0  0  0  0  0  0  0  0  0  0  0  0
  190.5660  171.0630  141.2270 N   0  0  0  0  0  2  0  0  0  0  0  0
  190.5670  169.9900  142.0540 O   0  0  0  0  0  0  0  0  0  0  0  0
  190.9050  168.9070  141.2390 C   0  0  0  0  0  1  0  0  0  0  0  0
  1  8  1  6  0  0  0
  1  3  1  0  0  0  0
  2 18  1  0  0  0  0
  2  7  1  0  0  0  0
  3 12  1  0  0  0  0
  3  6  1  6  0  0  0
  4 10  1  1  0  0  0
  4 19  1  0  0  0  0
  5 13  1  1  0  0  0
  5  1  1  0  0  0  0
  6 14  2  0  0  0  0
  7  4  1  0  0  0  0
  8 19  1  0  0  0  0
  9 12  1  0  0  0  0
 11 21  1  0  0  0  0
 12 15  1  0  0  0  0
 14 17  1  0  0  0  0
 15 17  2  0  0  0  0
 16  6  1  0  0  0  0
 18 11  1  6  0  0  0
 19 16  1  6  0  0  0
 20 18  1  0  0  0  0
 20  5  1  0  0  0  0
 21 23  1  6  0  0  0
 21 13  1  0  0  0  0
 22 23  3  0  0  0  0
 24 22  1  0  0  0  0
 24 25  1  0  0  0  0
 26 25  1  0  0  0  0
M  END
>  <MODEL>
2

>  <REMARK>
 VINA RESULT:      -6.9      3.141      6.762
  Name = 
  3 active torsions:
  status: ('A' for Active; 'I' for Inactive)
    1  A    between atoms: C_7  and  N_9
    2  A    between atoms: N_9  and  O_14
    3  A    between atoms: C_12  and  C_26
                            x       y       z     vdW  Elec       q    Type
                         _______ _______ _______ _____ _____    ______ ____

>  <TORSDO>
F 3

$$$$
=
 OpenBabel11042417213D

 26 29  0  0  1  0  0  0  0  0999 V2000
  188.9970  177.5540  144.6860 C   0  0  1  0  0  3  0  0  0  0  0  0
  184.9440  177.8590  143.6080 S   0  0  0  0  0  0  0  0  0  0  0  0
  189.5530  176.4570  145.2330 C   0  0  1  0  0  3  0  0  0  0  0  0
  185.7830  178.2140  146.3430 C   0  0  2  0  0  3  0  0  0  0  0  0
  188.8620  177.7520  143.1730 C   0  0  1  0  0  3  0  0  0  0  0  0
  188.8220  175.7940  146.3320 C   0  0  0  0  0  0  0  0  0  0  0  0
  185.3700  178.9430  145.0420 C   0  0  0  0  0  2  0  0  0  0  0  0
  187.9840  178.2470  145.4220 N   0  0  0  0  0  2  0  0  0  0  0  0
  191.7280  176.5860  143.9350 C   0  0  0  0  0  1  0  0  0  0  0  0
  185.7260  179.1990  147.4940 C   0  0  0  0  0  1  0  0  0  0  0  0
  186.6720  176.0770  142.2660 C   0  0  0  0  0  2  0  0  0  0  0  0
  190.7830  175.8630  144.7730 N   0  0  0  0  0  0  0  0  0  0  0  0
  189.1680  176.5170  142.2900 C   0  0  0  0  0  2  0  0  0  0  0  0
  189.3100  174.6610  146.8400 C   0  0  0  0  0  3  0  0  0  0  0  0
  191.2450  174.6670  145.4150 C   0  0  0  0  0  3  0  0  0  0  0  0
  187.4260  176.2370  146.6840 C   0  0  0  0  0  2  0  0  0  0  0  0
  190.5560  174.1170  146.3740 N   0  0  0  0  0  0  0  0  0  0  0  0
  186.6250  177.2380  143.2380 C   0  0  1  0  0  3  0  0  0  0  0  0
  187.1700  177.6540  146.2400 C   0  0  2  0  0  3  0  0  0  0  0  0
  187.5560  178.2390  142.8560 O   0  0  0  0  0  0  0  0  0  0  0  0
  188.0620  175.4560  142.3900 C   0  0  2  0  0  3  0  0  0  0  0  0
  188.4100  173.5980  140.5050 C   0  0  0  0  0  0  0  0  0  0  0  0
  188.2530  174.4370  141.3570 C   0  0  0  0  0  0  0  0  0  0  0  0
  188.5950  172.6230  139.5150 N   0  0  0  0  0  2  0  0  0  0  0  0
  188.2750  172.8810  138.2250 O   0  0  0  0  0  0  0  0  0  0  0  0
  189.2590  173.7660  137.7790 C   0  0  0  0  0  1  0  0  0  0  0  0
  1  3  1  0  0  0  0
  1  8  1  1  0  0  0
  2  7  1  0  0  0  0
  3  6  1  6  0  0  0
  4 10  1  1  0  0  0
  5 13  1  6  0  0  0
  5  1  1  0  0  0  0
  6 16  1  0  0  0  0
  6 14  2  0  0  0  0
  7  4  1  0  0  0  0
  8 19  1  0  0  0  0
  9 12  1  0  0  0  0
 11 21  1  0  0  0  0
 12  3  1  0  0  0  0
 12 15  1  0  0  0  0
 13 21  1  0  0  0  0
 15 17  2  0  0  0  0
 17 14  1  0  0  0  0
 18 11  1  6  0  0  0
 18  2  1  0  0  0  0
 19  4  1  0  0  0  0
 19 16  1  6  0  0  0
 20  5  1  0  0  0  0
 20 18  1  0  0  0  0
 21 23  1  6  0  0  0
 22 23  3  0  0  0  0
 24 22  1  0  0  0  0
 25 24  1  0  0  0  0
 26 25  1  0  0  0  0
M  END
>  <MODEL>
3

>  <REMARK>
 VINA RESULT:      -6.8      3.106      6.265
  Name = 
  3 active torsions:
  status: ('A' for Active; 'I' for Inactive)
    1  A    between atoms: C_7  and  N_9
    2  A    between atoms: N_9  and  O_14
    3  A    between atoms: C_12  and  C_26
                            x       y       z     vdW  Elec       q    Type
                         _______ _______ _______ _____ _____    ______ ____

>  <TORSDO>
F 3

$$$$
=
 OpenBabel11042417213D

 26 29  0  0  1  0  0  0  0  0999 V2000
  191.7440  175.2840  143.3890 C   0  0  1  0  0  3  0  0  0  0  0  0
  193.5710  176.7480  146.8820 S   0  0  0  0  0  0  0  0  0  0  0  0
  190.9660  174.1860  143.3470 C   0  0  1  0  0  3  0  0  0  0  0  0
  194.7260  174.5550  145.4100 C   0  0  2  0  0  3  0  0  0  0  0  0
  191.2010  176.6750  143.7310 C   0  0  1  0  0  3  0  0  0  0  0  0
  191.4450  172.9800  144.0530 C   0  0  0  0  0  0  0  0  0  0  0  0
  194.8010  176.0770  145.6780 C   0  0  0  0  0  2  0  0  0  0  0  0
  193.1230  175.1320  143.7400 N   0  0  0  0  0  2  0  0  0  0  0  0
  189.2560  175.1340  141.7320 C   0  0  0  0  0  1  0  0  0  0  0  0
  196.0040  174.1160  144.7220 C   0  0  0  0  0  1  0  0  0  0  0  0
  190.7630  176.7600  146.6000 C   0  0  0  0  0  2  0  0  0  0  0  0
  189.6770  174.1360  142.7040 N   0  0  0  0  0  0  0  0  0  0  0  0
  189.7530  176.7310  144.2750 C   0  0  0  0  0  2  0  0  0  0  0  0
  190.6590  171.9030  144.0940 C   0  0  0  0  0  3  0  0  0  0  0  0
  188.9290  172.9150  142.7690 C   0  0  0  0  0  3  0  0  0  0  0  0
  192.6650  173.0560  144.9330 C   0  0  0  0  0  2  0  0  0  0  0  0
  189.3920  171.8840  143.4150 N   0  0  0  0  0  0  0  0  0  0  0  0
  192.0690  176.5650  145.8540 C   0  0  1  0  0  3  0  0  0  0  0  0
  193.5530  174.2090  144.5420 C   0  0  2  0  0  3  0  0  0  0  0  0
  192.0720  177.3280  144.6580 O   0  0  0  0  0  0  0  0  0  0  0  0
  189.6600  176.1900  145.7100 C   0  0  2  0  0  3  0  0  0  0  0  0
  187.2650  176.7530  146.7430 C   0  0  0  0  0  0  0  0  0  0  0  0
  188.3470  176.4980  146.2770 C   0  0  0  0  0  0  0  0  0  0  0  0
  186.0050  177.0480  147.2830 N   0  0  0  0  0  2  0  0  0  0  0  0
  184.8950  177.0010  146.5100 O   0  0  0  0  0  0  0  0  0  0  0  0
  184.4380  178.3190  146.4540 C   0  0  0  0  0  1  0  0  0  0  0  0
  1  5  1  0  0  0  0
  1  8  1  1  0  0  0
  3  1  1  0  0  0  0
  3  6  1  1  0  0  0
  4 10  1  6  0  0  0
  4  7  1  0  0  0  0
  5 13  1  1  0  0  0
  5 20  1  0  0  0  0
  6 14  2  0  0  0  0
  6 16  1  0  0  0  0
  7  2  1  0  0  0  0
  8 19  1  0  0  0  0
  9 12  1  0  0  0  0
 12 15  1  0  0  0  0
 12  3  1  0  0  0  0
 13 21  1  0  0  0  0
 15 17  2  0  0  0  0
 17 14  1  0  0  0  0
 18 11  1  1  0  0  0
 18  2  1  0  0  0  0
 19 16  1  1  0  0  0
 19  4  1  0  0  0  0
 20 18  1  0  0  0  0
 21 23  1  1  0  0  0
 21 11  1  0  0  0  0
 22 24  1  0  0  0  0
 23 22  3  0  0  0  0
 25 24  1  0  0  0  0
 26 25  1  0  0  0  0
M  END
>  <MODEL>
4

>  <REMARK>
 VINA RESULT:      -6.4      1.275      1.462
  Name = 
  3 active torsions:
  status: ('A' for Active; 'I' for Inactive)
    1  A    between atoms: C_7  and  N_9
    2  A    between atoms: N_9  and  O_14
    3  A    between atoms: C_12  and  C_26
                            x       y       z     vdW  Elec       q    Type
                         _______ _______ _______ _____ _____    ______ ____

>  <TORSDO>
F 3

$$$$
=
 OpenBabel11042417213D

 26 29  0  0  1  0  0  0  0  0999 V2000
  190.4590  177.1550  144.0330 C   0  0  1  0  0  3  0  0  0  0  0  0
  187.0110  175.3520  142.4410 S   0  0  0  0  0  0  0  0  0  0  0  0
  190.9240  176.9300  145.2770 C   0  0  1  0  0  3  0  0  0  0  0  0
  186.8190  177.6350  144.1900 C   0  0  2  0  0  3  0  0  0  0  0  0
  190.8250  176.2710  142.8370 C   0  0  1  0  0  3  0  0  0  0  0  0
  189.9480  176.9430  146.3860 C   0  0  0  0  0  0  0  0  0  0  0  0
  186.7880  177.1640  142.7170 C   0  0  0  0  0  2  0  0  0  0  0  0
  189.1810  177.7790  143.8840 N   0  0  0  0  0  2  0  0  0  0  0  0
  193.3790  176.8890  144.6390 C   0  0  0  0  0  1  0  0  0  0  0  0
  186.2550  179.0400  144.2670 C   0  0  0  0  0  1  0  0  0  0  0  0
  189.2940  173.8150  143.0650 C   0  0  0  0  0  2  0  0  0  0  0  0
  192.3000  176.6230  145.5800 N   0  0  0  0  0  0  0  0  0  0  0  0
  191.5590  174.9480  143.1610 C   0  0  0  0  0  2  0  0  0  0  0  0
  190.3670  176.6470  147.6160 C   0  0  0  0  0  3  0  0  0  0  0  0
  192.6560  176.3610  146.9430 C   0  0  0  0  0  3  0  0  0  0  0  0
  188.4730  177.0220  146.0910 C   0  0  0  0  0  2  0  0  0  0  0  0
  191.7540  176.3750  147.8820 N   0  0  0  0  0  0  0  0  0  0  0  0
  188.7790  175.2310  142.8950 C   0  0  1  0  0  3  0  0  0  0  0  0
  188.2150  177.6320  144.7370 C   0  0  2  0  0  3  0  0  0  0  0  0
  189.6560  175.9780  142.0670 O   0  0  0  0  0  0  0  0  0  0  0  0
  190.6230  173.9190  143.8110 C   0  0  2  0  0  3  0  0  0  0  0  0
  191.8120  171.5310  143.9010 C   0  0  0  0  0  0  0  0  0  0  0  0
  191.2750  172.6100  143.8610 C   0  0  0  0  0  0  0  0  0  0  0  0
  192.4350  170.2760  143.9470 N   0  0  0  0  0  2  0  0  0  0  0  0
  193.5260  170.0760  144.7240 O   0  0  0  0  0  0  0  0  0  0  0  0
  193.5120  168.7120  145.0210 C   0  0  0  0  0  1  0  0  0  0  0  0
  1  8  1  1  0  0  0
  1  3  1  0  0  0  0
  2  7  1  0  0  0  0
  2 18  1  0  0  0  0
  3 12  1  0  0  0  0
  3  6  1  6  0  0  0
  4 10  1  6  0  0  0
  4 19  1  0  0  0  0
  5 13  1  1  0  0  0
  5  1  1  0  0  0  0
  6 14  2  0  0  0  0
  7  4  1  0  0  0  0
  8 19  1  0  0  0  0
  9 12  1  0  0  0  0
 11 21  1  0  0  0  0
 12 15  1  0  0  0  0
 13 21  1  0  0  0  0
 14 17  1  0  0  0  0
 15 17  2  0  0  0  0
 16  6  1  0  0  0  0
 18 11  1  6  0  0  0
 19 16  1  6  0  0  0
 20  5  1  0  0  0  0
 20 18  1  0  0  0  0
 21 23  1  6  0  0  0
 22 24  1  0  0  0  0
 23 22  3  0  0  0  0
 24 25  1  0  0  0  0
 25 26  1  0  0  0  0
M  END
>  <MODEL>
5

>  <REMARK>
 VINA RESULT:      -6.0      3.052      6.913
  Name = 
  3 active torsions:
  status: ('A' for Active; 'I' for Inactive)
    1  A    between atoms: C_7  and  N_9
    2  A    between atoms: N_9  and  O_14
    3  A    between atoms: C_12  and  C_26
                            x       y       z     vdW  Elec       q    Type
                         _______ _______ _______ _____ _____    ______ ____

>  <TORSDO>
F 3

$$$$
=
 OpenBabel11042417213D

 26 29  0  0  1  0  0  0  0  0999 V2000
  186.8770  176.1270  144.6510 C   0  0  1  0  0  3  0  0  0  0  0  0
  187.4940  178.4530  148.0990 S   0  0  0  0  0  0  0  0  0  0  0  0
  187.1410  176.5470  143.4000 C   0  0  1  0  0  3  0  0  0  0  0  0
  185.1440  178.8110  146.4680 C   0  0  2  0  0  3  0  0  0  0  0  0
  187.9340  175.4770  145.5500 C   0  0  1  0  0  3  0  0  0  0  0  0
  186.6920  177.9020  143.0220 C   0  0  0  0  0  0  0  0  0  0  0  0
  185.7010  178.1680  147.7600 C   0  0  0  0  0  2  0  0  0  0  0  0
  185.8610  176.8020  145.3990 N   0  0  0  0  0  2  0  0  0  0  0  0
  188.0920  174.3440  142.5760 C   0  0  0  0  0  1  0  0  0  0  0  0
  183.6300  178.8100  146.5330 C   0  0  0  0  0  1  0  0  0  0  0  0
  189.6700  177.5890  146.5250 C   0  0  0  0  0  2  0  0  0  0  0  0
  187.8820  175.7770  142.4310 N   0  0  0  0  0  0  0  0  0  0  0  0
  189.3970  175.5460  145.0500 C   0  0  0  0  0  2  0  0  0  0  0  0
  187.0080  178.3730  141.8160 C   0  0  0  0  0  3  0  0  0  0  0  0
  188.1320  176.3590  141.1450 C   0  0  0  0  0  3  0  0  0  0  0  0
  186.1280  178.8280  144.0680 C   0  0  0  0  0  2  0  0  0  0  0  0
  187.7230  177.5630  140.8670 N   0  0  0  0  0  0  0  0  0  0  0  0
  188.1850  177.4090  146.7660 C   0  0  1  0  0  3  0  0  0  0  0  0
  185.5870  178.0610  145.2470 C   0  0  2  0  0  3  0  0  0  0  0  0
  187.8660  176.0300  146.8670 O   0  0  0  0  0  0  0  0  0  0  0  0
  189.9730  176.9650  145.1640 C   0  0  2  0  0  3  0  0  0  0  0  0
  192.6080  176.9170  144.7430 C   0  0  0  0  0  0  0  0  0  0  0  0
  191.4180  176.9380  144.9330 C   0  0  0  0  0  0  0  0  0  0  0  0
  193.9930  176.8920  144.5240 N   0  0  0  0  0  2  0  0  0  0  0  0
  194.8560  176.9360  145.5670 O   0  0  0  0  0  0  0  0  0  0  0  0
  194.6940  175.7130  146.2210 C   0  0  0  0  0  1  0  0  0  0  0  0
  1  8  1  1  0  0  0
  1  5  1  0  0  0  0
  3  6  1  1  0  0  0
  3  1  1  0  0  0  0
  4 10  1  1  0  0  0
  4  7  1  0  0  0  0
  5 13  1  6  0  0  0
  5 20  1  0  0  0  0
  6 16  1  0  0  0  0
  7  2  1  0  0  0  0
 12  9  1  0  0  0  0
 12  3  1  0  0  0  0
 13 21  1  0  0  0  0
 14  6  2  0  0  0  0
 15 12  1  0  0  0  0
 17 15  2  0  0  0  0
 17 14  1  0  0  0  0
 18 11  1  1  0  0  0
 18 20  1  0  0  0  0
 18  2  1  0  0  0  0
 19 16  1  1  0  0  0
 19  8  1  0  0  0  0
 19  4  1  0  0  0  0
 21 23  1  1  0  0  0
 21 11  1  0  0  0  0
 22 23  3  0  0  0  0
 24 22  1  0  0  0  0
 24 25  1  0  0  0  0
 25 26  1  0  0  0  0
M  END
>  <MODEL>
6

>  <REMARK>
 VINA RESULT:      -6.0      2.398      6.453
  Name = 
  3 active torsions:
  status: ('A' for Active; 'I' for Inactive)
    1  A    between atoms: C_7  and  N_9
    2  A    between atoms: N_9  and  O_14
    3  A    between atoms: C_12  and  C_26
                            x       y       z     vdW  Elec       q    Type
                         _______ _______ _______ _____ _____    ______ ____

>  <TORSDO>
F 3

$$$$
=
 OpenBabel11042417213D

 26 29  0  0  1  0  0  0  0  0999 V2000
  192.4450  176.5580  144.4490 C   0  0  1  0  0  3  0  0  0  0  0  0
  188.5980  176.4080  146.1380 S   0  0  0  0  0  0  0  0  0  0  0  0
  193.2680  175.4960  144.3470 C   0  0  1  0  0  3  0  0  0  0  0  0
  190.9440  176.5840  147.8040 C   0  0  2  0  0  3  0  0  0  0  0  0
  191.3880  176.8940  143.3940 C   0  0  1  0  0  3  0  0  0  0  0  0
  193.4110  174.6250  145.5310 C   0  0  0  0  0  0  0  0  0  0  0  0
  189.7780  177.3810  147.1720 C   0  0  0  0  0  2  0  0  0  0  0  0
  192.0850  177.0200  145.7540 N   0  0  0  0  0  2  0  0  0  0  0  0
  194.1490  176.0640  142.0380 C   0  0  0  0  0  1  0  0  0  0  0  0
  191.5760  177.4220  148.8970 C   0  0  0  0  0  1  0  0  0  0  0  0
  189.1840  175.0370  143.7420 C   0  0  0  0  0  2  0  0  0  0  0  0
  193.9660  175.1310  143.1400 N   0  0  0  0  0  0  0  0  0  0  0  0
  191.1280  175.8160  142.3140 C   0  0  0  0  0  2  0  0  0  0  0  0
  194.1570  173.5240  145.4340 C   0  0  0  0  0  3  0  0  0  0  0  0
  194.7780  173.9500  143.1520 C   0  0  0  0  0  3  0  0  0  0  0  0
  192.5230  174.8290  146.7300 C   0  0  0  0  0  2  0  0  0  0  0  0
  194.8620  173.2100  144.2200 N   0  0  0  0  0  0  0  0  0  0  0  0
  189.7050  176.0710  144.7210 C   0  0  1  0  0  3  0  0  0  0  0  0
  191.9860  176.2360  146.7820 C   0  0  2  0  0  3  0  0  0  0  0  0
  190.1500  177.2260  144.0280 O   0  0  0  0  0  0  0  0  0  0  0  0
  190.3730  174.6060  142.8850 C   0  0  2  0  0  3  0  0  0  0  0  0
  189.5490  173.0260  140.8990 C   0  0  0  0  0  0  0  0  0  0  0  0
  189.9210  173.7400  141.7960 C   0  0  0  0  0  0  0  0  0  0  0  0
  189.1170  172.1940  139.8570 N   0  0  0  0  0  2  0  0  0  0  0  0
  188.0110  172.5050  139.1390 O   0  0  0  0  0  0  0  0  0  0  0  0
  188.3780  173.6140  138.3740 C   0  0  0  0  0  1  0  0  0  0  0  0
  1  8  1  1  0  0  0
  2  7  1  0  0  0  0
  3  1  1  0  0  0  0
  3  6  1  6  0  0  0
  4 10  1  1  0  0  0
  5 13  1  6  0  0  0
  5 20  1  0  0  0  0
  5  1  1  0  0  0  0
  6 16  1  0  0  0  0
  7  4  1  0  0  0  0
  8 19  1  0  0  0  0
  9 12  1  0  0  0  0
 12 15  1  0  0  0  0
 12  3  1  0  0  0  0
 13 21  1  0  0  0  0
 14  6  2  0  0  0  0
 15 17  2  0  0  0  0
 17 14  1  0  0  0  0
 18 11  1  6  0  0  0
 18  2  1  0  0  0  0
 19 16  1  6  0  0  0
 19  4  1  0  0  0  0
 20 18  1  0  0  0  0
 21 23  1  6  0  0  0
 21 11  1  0  0  0  0
 22 23  3  0  0  0  0
 24 22  1  0  0  0  0
 25 24  1  0  0  0  0
 26 25  1  0  0  0  0
M  END
>  <MODEL>
7

>  <REMARK>
 VINA RESULT:      -5.8      3.098      5.363
  Name = 
  3 active torsions:
  status: ('A' for Active; 'I' for Inactive)
    1  A    between atoms: C_7  and  N_9
    2  A    between atoms: N_9  and  O_14
    3  A    between atoms: C_12  and  C_26
                            x       y       z     vdW  Elec       q    Type
                         _______ _______ _______ _____ _____    ______ ____

>  <TORSDO>
F 3

$$$$
=
 OpenBabel11042417213D

 26 29  0  0  1  0  0  0  0  0999 V2000
  192.3890  174.0760  145.4960 C   0  0  1  0  0  3  0  0  0  0  0  0
  195.0090  174.9330  142.3210 S   0  0  0  0  0  0  0  0  0  0  0  0
  191.9370  174.9940  146.3720 C   0  0  1  0  0  3  0  0  0  0  0  0
  195.9970  174.5720  145.0050 C   0  0  2  0  0  3  0  0  0  0  0  0
  191.7050  173.8010  144.1530 C   0  0  1  0  0  3  0  0  0  0  0  0
  192.9190  175.9390  146.9410 C   0  0  0  0  0  0  0  0  0  0  0  0
  195.8060  173.8970  143.6260 C   0  0  0  0  0  2  0  0  0  0  0  0
  193.7900  173.7910  145.4670 N   0  0  0  0  0  2  0  0  0  0  0  0
  189.5680  174.0970  146.4980 C   0  0  0  0  0  1  0  0  0  0  0  0
  196.9800  173.7540  145.8190 C   0  0  0  0  0  1  0  0  0  0  0  0
  192.3890  175.9820  142.3630 C   0  0  0  0  0  2  0  0  0  0  0  0
  190.5510  175.1420  146.7400 N   0  0  0  0  0  0  0  0  0  0  0  0
  190.6060  174.8040  143.7260 C   0  0  0  0  0  2  0  0  0  0  0  0
  192.4870  176.9070  147.7500 C   0  0  0  0  0  3  0  0  0  0  0  0
  190.1960  176.1900  147.6520 C   0  0  0  0  0  3  0  0  0  0  0  0
  194.3270  175.9750  146.4080 C   0  0  0  0  0  2  0  0  0  0  0  0
  191.1000  177.0030  148.1170 N   0  0  0  0  0  0  0  0  0  0  0  0
  193.3170  174.9770  143.0160 C   0  0  1  0  0  3  0  0  0  0  0  0
  194.7000  174.6710  145.7500 C   0  0  2  0  0  3  0  0  0  0  0  0
  192.6830  173.7120  143.1140 O   0  0  0  0  0  0  0  0  0  0  0  0
  191.1990  176.1570  143.3040 C   0  0  2  0  0  3  0  0  0  0  0  0
  189.3200  177.6530  142.1410 C   0  0  0  0  0  0  0  0  0  0  0  0
  190.1690  176.9770  142.6660 C   0  0  0  0  0  0  0  0  0  0  0  0
  188.3340  178.4410  141.5310 N   0  0  0  0  0  2  0  0  0  0  0  0
  187.0570  178.0000  141.4410 O   0  0  0  0  0  0  0  0  0  0  0  0
  186.3790  178.6400  142.4800 C   0  0  0  0  0  1  0  0  0  0  0  0
  1  8  1  6  0  0  0
  1  3  1  0  0  0  0
  2 18  1  0  0  0  0
  2  7  1  0  0  0  0
  3 12  1  0  0  0  0
  3  6  1  6  0  0  0
  4 19  1  0  0  0  0
  4 10  1  1  0  0  0
  5 13  1  6  0  0  0
  5  1  1  0  0  0  0
  6 14  2  0  0  0  0
  7  4  1  0  0  0  0
  8 19  1  0  0  0  0
  9 12  1  0  0  0  0
 11 21  1  0  0  0  0
 12 15  1  0  0  0  0
 14 17  1  0  0  0  0
 15 17  2  0  0  0  0
 16  6  1  0  0  0  0
 18 11  1  6  0  0  0
 18 20  1  0  0  0  0
 19 16  1  6  0  0  0
 20  5  1  0  0  0  0
 21 23  1  6  0  0  0
 21 13  1  0  0  0  0
 22 23  3  0  0  0  0
 24 22  1  0  0  0  0
 25 24  1  0  0  0  0
 25 26  1  0  0  0  0
M  END
>  <MODEL>
8

>  <REMARK>
 VINA RESULT:      -5.8      3.281      4.828
  Name = 
  3 active torsions:
  status: ('A' for Active; 'I' for Inactive)
    1  A    between atoms: C_7  and  N_9
    2  A    between atoms: N_9  and  O_14
    3  A    between atoms: C_12  and  C_26
                            x       y       z     vdW  Elec       q    Type
                         _______ _______ _______ _____ _____    ______ ____

>  <TORSDO>
F 3

$$$$
=
 OpenBabel11042417213D

 26 29  0  0  1  0  0  0  0  0999 V2000
  190.9070  176.3750  143.7020 C   0  0  1  0  0  3  0  0  0  0  0  0
  188.3240  173.6760  141.7730 S   0  0  0  0  0  0  0  0  0  0  0  0
  191.1220  176.3970  145.0310 C   0  0  1  0  0  3  0  0  0  0  0  0
  187.3010  176.0310  143.0820 C   0  0  2  0  0  3  0  0  0  0  0  0
  191.6960  175.4730  142.7470 C   0  0  1  0  0  3  0  0  0  0  0  0
  189.9430  176.3080  145.9170 C   0  0  0  0  0  0  0  0  0  0  0  0
  187.6900  175.4090  141.7200 C   0  0  0  0  0  2  0  0  0  0  0  0
  189.5950  176.6730  143.2160 N   0  0  0  0  0  2  0  0  0  0  0  0
  193.6140  176.8450  144.8900 C   0  0  0  0  0  1  0  0  0  0  0  0
  186.4660  177.2710  142.8340 C   0  0  0  0  0  1  0  0  0  0  0  0
  190.6730  172.7740  143.0510 C   0  0  0  0  0  2  0  0  0  0  0  0
  192.4300  176.4440  145.6350 N   0  0  0  0  0  0  0  0  0  0  0  0
  192.5890  174.3940  143.4050 C   0  0  0  0  0  2  0  0  0  0  0  0
  190.1310  176.2480  147.2360 C   0  0  0  0  0  3  0  0  0  0  0  0
  192.5210  176.4180  147.0660 C   0  0  0  0  0  3  0  0  0  0  0  0
  188.5840  176.0180  145.3360 C   0  0  0  0  0  2  0  0  0  0  0  0
  191.4500  176.3280  147.8010 N   0  0  0  0  0  0  0  0  0  0  0  0
  189.9370  174.0080  142.5700 C   0  0  1  0  0  3  0  0  0  0  0  0
  188.5140  176.4040  143.8810 C   0  0  2  0  0  3  0  0  0  0  0  0
  190.8080  174.8420  141.8220 O   0  0  0  0  0  0  0  0  0  0  0  0
  191.7570  173.2550  144.0130 C   0  0  2  0  0  3  0  0  0  0  0  0
  193.3480  171.2240  144.6940 C   0  0  0  0  0  0  0  0  0  0  0  0
  192.6300  172.1420  144.3860 C   0  0  0  0  0  0  0  0  0  0  0  0
  194.1820  170.1550  145.0500 N   0  0  0  0  0  2  0  0  0  0  0  0
  195.0680  170.2810  146.0670 O   0  0  0  0  0  0  0  0  0  0  0  0
  194.8660  169.1520  146.8630 C   0  0  0  0  0  1  0  0  0  0  0  0
  1  8  1  1  0  0  0
  1  3  1  0  0  0  0
  2 18  1  0  0  0  0
  3 12  1  0  0  0  0
  3  6  1  1  0  0  0
  4 10  1  6  0  0  0
  4 19  1  0  0  0  0
  5 13  1  1  0  0  0
  5  1  1  0  0  0  0
  6 14  2  0  0  0  0
  7  2  1  0  0  0  0
  7  4  1  0  0  0  0
  8 19  1  0  0  0  0
  9 12  1  0  0  0  0
 11 21  1  0  0  0  0
 12 15  1  0  0  0  0
 13 21  1  0  0  0  0
 14 17  1  0  0  0  0
 15 17  2  0  0  0  0
 16  6  1  0  0  0  0
 18 11  1  6  0  0  0
 19 16  1  1  0  0  0
 20 18  1  0  0  0  0
 20  5  1  0  0  0  0
 21 23  1  6  0  0  0
 22 24  1  0  0  0  0
 23 22  3  0  0  0  0
 24 25  1  0  0  0  0
 25 26  1  0  0  0  0
M  END
>  <MODEL>
9

>  <REMARK>
 VINA RESULT:      -5.7      3.241      7.144
  Name = 
  3 active torsions:
  status: ('A' for Active; 'I' for Inactive)
    1  A    between atoms: C_7  and  N_9
    2  A    between atoms: N_9  and  O_14
    3  A    between atoms: C_12  and  C_26
                            x       y       z     vdW  Elec       q    Type
                         _______ _______ _______ _____ _____    ______ ____

>  <TORSDO>
F 3

$$$$
