=
 OpenBabel11042416063D

 34 37  0  0  1  0  0  0  0  0999 V2000
  188.6840  175.6880  142.5170 C   0  0  0  0  0  0  0  0  0  0  0  0
  190.2940  173.7460  142.7490 C   0  0  1  0  0  3  0  0  0  0  0  0
  190.0020  175.0880  146.0440 C   0  0  0  0  0  0  0  0  0  0  0  0
  189.9330  177.3840  147.1100 C   0  0  2  0  0  3  0  0  0  0  0  0
  188.8320  175.9690  144.0040 C   0  0  1  0  0  3  0  0  0  0  0  0
  191.9900  175.9150  147.2400 C   0  0  0  0  0  1  0  0  0  0  0  0
  187.5590  176.8230  146.3590 C   0  0  2  0  0  3  0  0  0  0  0  0
  190.1840  175.5510  144.6180 C   0  0  2  0  0  3  0  0  0  0  0  0
  190.4700  175.9400  147.1930 C   0  0  2  0  0  3  0  0  0  0  0  0
  185.4320  178.5270  140.7440 O   0  0  0  0  0  0  0  0  0  0  0  0
  190.6210  178.2110  148.0000 O   0  0  0  0  0  1  0  0  0  0  0  0
  189.4520  174.0230  146.2780 O   0  0  0  0  0  0  0  0  0  0  0  0
  188.5860  177.4310  144.3950 C   0  0  0  0  0  2  0  0  0  0  0  0
  188.4390  177.4780  147.4260 C   0  0  0  0  0  2  0  0  0  0  0  0
  187.5960  176.0450  140.3790 C   0  0  0  0  0  0  0  0  0  0  0  0
  187.7680  176.3690  141.6950 C   0  0  0  0  0  0  0  0  0  0  0  0
  189.3770  174.5970  141.9280 C   0  0  0  0  0  0  0  0  0  0  0  0
  186.3040  177.6270  140.8560 C   0  0  0  0  0  0  0  0  0  0  0  0
  186.6680  176.8340  139.8180 N   0  0  0  0  0  2  0  0  0  0  0  0
  187.4320  177.6010  145.1880 O   0  0  0  0  0  0  0  0  0  0  0  0
  189.1860  174.2740  140.5670 C   0  0  0  0  0  3  0  0  0  0  0  0
  186.9450  177.3790  142.0230 N   0  0  0  0  0  2  0  0  0  0  0  0
  191.0580  174.6350  143.7320 C   0  0  1  0  0  3  0  0  0  0  0  0
  188.2900  175.0050  139.7720 C   0  0  0  0  0  3  0  0  0  0  0  0
  192.1150  172.8610  144.9500 O   0  0  0  0  0  0  0  0  0  0  0  0
  193.7250  175.9560  143.8490 C   0  0  0  0  0  1  0  0  0  0  0  0
  193.5060  174.6470  144.4420 N   0  0  0  0  0  2  0  0  0  0  0  0
  192.2400  173.9870  144.4000 C   0  0  0  0  0  0  0  0  0  0  0  0
  189.5320  172.6850  143.4260 C   0  0  0  0  0  0  0  0  0  0  0  0
  188.9340  171.8500  143.9590 N   0  0  0  0  0  0  0  0  0  0  0  0
  186.1840  176.4700  146.9230 C   0  0  0  0  0  2  0  0  0  0  0  0
  185.0400  177.0080  146.0710 C   0  0  0  0  0  2  0  0  0  0  0  0
  183.8100  179.0170  145.7530 O   0  0  0  0  0  1  0  0  0  0  0  0
  184.4170  178.2250  146.7270 C   0  0  0  0  0  2  0  0  0  0  0  0
  1  5  1  0  0  0  0
  2 29  1  1  0  0  0
  2 23  1  0  0  0  0
  3 12  2  0  0  0  0
  3  9  1  0  0  0  0
  4  9  1  0  0  0  0
  4 14  1  0  0  0  0
  4 11  1  1  0  0  0
  5 13  1  6  0  0  0
  5  8  1  0  0  0  0
  7 31  1  1  0  0  0
  7 14  1  0  0  0  0
  8  3  1  1  0  0  0
  9  6  1  6  0  0  0
 10 18  2  0  0  0  0
 13 20  1  0  0  0  0
 15 16  1  0  0  0  0
 16 22  1  0  0  0  0
 16  1  2  0  0  0  0
 17  1  1  0  0  0  0
 17  2  1  0  0  0  0
 18 22  1  0  0  0  0
 19 15  1  0  0  0  0
 19 18  1  0  0  0  0
 20  7  1  0  0  0  0
 21 17  2  0  0  0  0
 23 28  1  1  0  0  0
 23  8  1  0  0  0  0
 24 15  2  0  0  0  0
 24 21  1  0  0  0  0
 26 27  1  0  0  0  0
 28 27  1  0  0  0  0
 28 25  2  0  0  0  0
 29 30  3  0  0  0  0
 32 34  1  0  0  0  0
 32 31  1  0  0  0  0
 33 34  1  0  0  0  0
M  END
>  <MODEL>
1

>  <REMARK>
 VINA RESULT:      -7.3      0.000      0.000
  Name = 
  5 active torsions:
  status: ('A' for Active; 'I' for Inactive)
    1  A    between atoms: C_2  and  C_8
    2  A    between atoms: C_9  and  C_11
    3  A    between atoms: C_9  and  C_29
    4  A    between atoms: C_16  and  C_32
    5  A    between atoms: C_29  and  C_33
                            x       y       z     vdW  Elec       q    Type
                         _______ _______ _______ _____ _____    ______ ____

>  <TORSDO>
F 5

$$$$
=
 OpenBabel11042416063D

 34 37  0  0  1  0  0  0  0  0999 V2000
  190.3920  174.1760  142.0940 C   0  0  0  0  0  0  0  0  0  0  0  0
  188.8090  175.7540  143.2850 C   0  0  1  0  0  3  0  0  0  0  0  0
  192.0640  176.7230  144.3870 C   0  0  0  0  0  0  0  0  0  0  0  0
  194.1920  175.5630  145.1220 C   0  0  2  0  0  3  0  0  0  0  0  0
  191.5650  174.8520  142.7870 C   0  0  1  0  0  3  0  0  0  0  0  0
  192.6400  176.6790  146.7820 C   0  0  0  0  0  1  0  0  0  0  0  0
  194.2380  175.6910  142.5740 C   0  0  2  0  0  3  0  0  0  0  0  0
  191.2420  175.4760  144.1610 C   0  0  2  0  0  3  0  0  0  0  0  0
  193.2040  176.7220  145.3690 C   0  0  2  0  0  3  0  0  0  0  0  0
  192.0230  171.0470  139.0390 O   0  0  0  0  0  0  0  0  0  0  0  0
  195.0480  175.4110  146.2150 O   0  0  0  0  0  1  0  0  0  0  0  0
  191.8220  177.7400  143.7560 O   0  0  0  0  0  0  0  0  0  0  0  0
  192.7900  173.9510  142.9720 C   0  0  0  0  0  2  0  0  0  0  0  0
  195.0460  175.7720  143.8710 C   0  0  0  0  0  2  0  0  0  0  0  0
  189.4860  172.6550  140.4370 C   0  0  0  0  0  0  0  0  0  0  0  0
  190.5520  173.1920  141.1020 C   0  0  0  0  0  0  0  0  0  0  0  0
  189.0680  174.6360  142.3260 C   0  0  0  0  0  0  0  0  0  0  0  0
  191.2450  171.7740  139.7090 C   0  0  0  0  0  0  0  0  0  0  0  0
  189.9000  171.7450  139.5420 N   0  0  0  0  0  2  0  0  0  0  0  0
  193.9000  174.3700  142.2090 O   0  0  0  0  0  0  0  0  0  0  0  0
  187.9780  174.0730  141.6270 C   0  0  0  0  0  3  0  0  0  0  0  0
  191.6900  172.6440  140.6480 N   0  0  0  0  0  2  0  0  0  0  0  0
  189.7380  175.6060  144.4910 C   0  0  1  0  0  3  0  0  0  0  0  0
  188.1790  173.0640  140.6720 C   0  0  0  0  0  3  0  0  0  0  0  0
  189.3210  177.7070  145.5690 O   0  0  0  0  0  0  0  0  0  0  0  0
  189.2250  174.4220  147.1760 C   0  0  0  0  0  1  0  0  0  0  0  0
  189.1480  175.8570  146.9580 N   0  0  0  0  0  2  0  0  0  0  0  0
  189.3870  176.4540  145.6830 C   0  0  0  0  0  0  0  0  0  0  0  0
  188.9690  177.0520  142.6100 C   0  0  0  0  0  0  0  0  0  0  0  0
  189.0950  178.0710  142.0780 N   0  0  0  0  0  0  0  0  0  0  0  0
  194.9640  176.3960  141.4300 C   0  0  0  0  0  2  0  0  0  0  0  0
  196.4730  176.4590  141.6360 C   0  0  0  0  0  2  0  0  0  0  0  0
  196.2950  175.3930  139.5190 O   0  0  0  0  0  1  0  0  0  0  0  0
  197.1900  175.6850  140.5470 C   0  0  0  0  0  2  0  0  0  0  0  0
  1 17  1  0  0  0  0
  1  5  1  0  0  0  0
  2 29  1  6  0  0  0
  2 23  1  0  0  0  0
  3  9  1  0  0  0  0
  4  9  1  0  0  0  0
  4 11  1  1  0  0  0
  5 13  1  1  0  0  0
  5  8  1  0  0  0  0
  7 31  1  6  0  0  0
  7 14  1  0  0  0  0
  8  3  1  6  0  0  0
  8 23  1  0  0  0  0
  9  6  1  1  0  0  0
 10 18  2  0  0  0  0
 12  3  2  0  0  0  0
 14  4  1  0  0  0  0
 15 24  2  0  0  0  0
 15 16  1  0  0  0  0
 16  1  2  0  0  0  0
 17  2  1  0  0  0  0
 18 22  1  0  0  0  0
 19 18  1  0  0  0  0
 19 15  1  0  0  0  0
 20  7  1  0  0  0  0
 20 13  1  0  0  0  0
 21 17  2  0  0  0  0
 22 16  1  0  0  0  0
 23 28  1  1  0  0  0
 24 21  1  0  0  0  0
 25 28  2  0  0  0  0
 27 26  1  0  0  0  0
 28 27  1  0  0  0  0
 30 29  3  0  0  0  0
 31 32  1  0  0  0  0
 33 34  1  0  0  0  0
 34 32  1  0  0  0  0
M  END
>  <MODEL>
2

>  <REMARK>
 VINA RESULT:      -6.8      3.001      6.583
  Name = 
  5 active torsions:
  status: ('A' for Active; 'I' for Inactive)
    1  A    between atoms: C_2  and  C_8
    2  A    between atoms: C_9  and  C_11
    3  A    between atoms: C_9  and  C_29
    4  A    between atoms: C_16  and  C_32
    5  A    between atoms: C_29  and  C_33
                            x       y       z     vdW  Elec       q    Type
                         _______ _______ _______ _____ _____    ______ ____

>  <TORSDO>
F 5

$$$$
=
 OpenBabel11042416063D

 34 37  0  0  1  0  0  0  0  0999 V2000
  190.1170  175.2530  142.4470 C   0  0  0  0  0  0  0  0  0  0  0  0
  191.4630  173.2790  141.6090 C   0  0  1  0  0  3  0  0  0  0  0  0
  193.1030  174.2930  144.6140 C   0  0  0  0  0  0  0  0  0  0  0  0
  193.7750  176.4740  145.7120 C   0  0  2  0  0  3  0  0  0  0  0  0
  191.0700  175.3850  143.6250 C   0  0  1  0  0  3  0  0  0  0  0  0
  195.4710  174.9740  144.5800 C   0  0  0  0  0  1  0  0  0  0  0  0
  191.3450  176.0180  146.3480 C   0  0  2  0  0  3  0  0  0  0  0  0
  192.5070  174.8920  143.3620 C   0  0  2  0  0  3  0  0  0  0  0  0
  194.1760  175.0220  145.3770 C   0  0  2  0  0  3  0  0  0  0  0  0
  186.6140  178.2930  142.9720 O   0  0  0  0  0  0  0  0  0  0  0  0
  194.8880  177.2010  146.1380 O   0  0  0  0  0  1  0  0  0  0  0  0
  192.7030  173.2160  145.0290 O   0  0  0  0  0  0  0  0  0  0  0  0
  191.1710  176.8040  144.1950 C   0  0  0  0  0  2  0  0  0  0  0  0
  192.7050  176.5540  146.8030 C   0  0  0  0  0  2  0  0  0  0  0  0
  188.0640  175.8330  141.2920 C   0  0  0  0  0  0  0  0  0  0  0  0
  188.9470  176.0230  142.3180 C   0  0  0  0  0  0  0  0  0  0  0  0
  190.3050  174.2180  141.4930 C   0  0  0  0  0  0  0  0  0  0  0  0
  187.3460  177.3760  142.5180 C   0  0  0  0  0  0  0  0  0  0  0  0
  187.0330  176.6850  141.3940 N   0  0  0  0  0  2  0  0  0  0  0  0
  190.6500  176.9090  145.5020 O   0  0  0  0  0  0  0  0  0  0  0  0
  189.3810  174.0320  140.4410 C   0  0  0  0  0  3  0  0  0  0  0  0
  188.5030  177.0050  143.1190 N   0  0  0  0  0  2  0  0  0  0  0  0
  192.6950  174.0570  142.0750 C   0  0  1  0  0  3  0  0  0  0  0  0
  188.2460  174.8490  140.3270 C   0  0  0  0  0  3  0  0  0  0  0  0
  194.1520  172.1880  142.4380 O   0  0  0  0  0  0  0  0  0  0  0  0
  195.0210  175.2630  140.6580 C   0  0  0  0  0  1  0  0  0  0  0  0
  195.1040  173.9380  141.2500 N   0  0  0  0  0  2  0  0  0  0  0  0
  194.0060  173.3320  141.9330 C   0  0  0  0  0  0  0  0  0  0  0  0
  191.1280  172.1660  142.5110 C   0  0  0  0  0  0  0  0  0  0  0  0
  190.8640  171.2910  143.2210 N   0  0  0  0  0  0  0  0  0  0  0  0
  190.4810  175.6280  147.5460 C   0  0  0  0  0  2  0  0  0  0  0  0
  189.2270  174.8590  147.1460 C   0  0  0  0  0  2  0  0  0  0  0  0
  187.5540  176.1890  146.1050 O   0  0  0  0  0  1  0  0  0  0  0  0
  187.9930  175.7190  147.3410 C   0  0  0  0  0  2  0  0  0  0  0  0
  1  5  1  0  0  0  0
  2 23  1  0  0  0  0
  2 29  1  1  0  0  0
  3 12  2  0  0  0  0
  3  9  1  0  0  0  0
  4 11  1  1  0  0  0
  4 14  1  0  0  0  0
  5 13  1  6  0  0  0
  7 14  1  0  0  0  0
  7 31  1  1  0  0  0
  8  5  1  0  0  0  0
  8  3  1  1  0  0  0
  9  6  1  6  0  0  0
  9  4  1  0  0  0  0
 13 20  1  0  0  0  0
 15 19  1  0  0  0  0
 15 16  2  0  0  0  0
 16  1  1  0  0  0  0
 16 22  1  0  0  0  0
 17  2  1  0  0  0  0
 17  1  2  0  0  0  0
 18 10  2  0  0  0  0
 18 22  1  0  0  0  0
 19 18  1  0  0  0  0
 20  7  1  0  0  0  0
 21 17  1  0  0  0  0
 23 28  1  1  0  0  0
 23  8  1  0  0  0  0
 24 21  2  0  0  0  0
 24 15  1  0  0  0  0
 26 27  1  0  0  0  0
 27 28  1  0  0  0  0
 28 25  2  0  0  0  0
 29 30  3  0  0  0  0
 32 34  1  0  0  0  0
 32 31  1  0  0  0  0
 33 34  1  0  0  0  0
M  END
>  <MODEL>
3

>  <REMARK>
 VINA RESULT:      -6.8      2.017      3.161
  Name = 
  5 active torsions:
  status: ('A' for Active; 'I' for Inactive)
    1  A    between atoms: C_2  and  C_8
    2  A    between atoms: C_9  and  C_11
    3  A    between atoms: C_9  and  C_29
    4  A    between atoms: C_16  and  C_32
    5  A    between atoms: C_29  and  C_33
                            x       y       z     vdW  Elec       q    Type
                         _______ _______ _______ _____ _____    ______ ____

>  <TORSDO>
F 5

$$$$
=
 OpenBabel11042416063D

 34 37  0  0  1  0  0  0  0  0999 V2000
  190.2510  175.2470  142.5220 C   0  0  0  0  0  0  0  0  0  0  0  0
  191.2560  173.2720  141.2950 C   0  0  1  0  0  3  0  0  0  0  0  0
  193.7420  174.2330  143.6700 C   0  0  0  0  0  0  0  0  0  0  0  0
  194.7420  176.3940  144.5340 C   0  0  2  0  0  3  0  0  0  0  0  0
  191.5180  175.3550  143.3560 C   0  0  1  0  0  3  0  0  0  0  0  0
  195.9960  174.8950  142.9260 C   0  0  0  0  0  1  0  0  0  0  0  0
  192.6140  175.9500  145.8740 C   0  0  2  0  0  3  0  0  0  0  0  0
  192.8020  174.8540  142.6640 C   0  0  2  0  0  3  0  0  0  0  0  0
  195.0050  174.9430  144.0790 C   0  0  2  0  0  3  0  0  0  0  0  0
  187.1090  178.3090  144.1150 O   0  0  0  0  0  0  0  0  0  0  0  0
  195.9410  177.1060  144.6090 O   0  0  0  0  0  1  0  0  0  0  0  0
  193.4740  173.1550  144.1770 O   0  0  0  0  0  0  0  0  0  0  0  0
  191.8040  176.7660  143.8830 C   0  0  0  0  0  2  0  0  0  0  0  0
  194.0540  176.4690  145.8990 C   0  0  0  0  0  2  0  0  0  0  0  0
  187.9520  175.8590  142.0510 C   0  0  0  0  0  0  0  0  0  0  0  0
  189.1060  176.0290  142.7620 C   0  0  0  0  0  0  0  0  0  0  0  0
  190.1280  174.2230  141.5460 C   0  0  0  0  0  0  0  0  0  0  0  0
  187.6580  177.3920  143.4520 C   0  0  0  0  0  0  0  0  0  0  0  0
  187.0110  176.7180  142.4700 N   0  0  0  0  0  2  0  0  0  0  0  0
  191.7060  176.8580  145.2870 O   0  0  0  0  0  0  0  0  0  0  0  0
  188.9270  174.0590  140.8220 C   0  0  0  0  0  3  0  0  0  0  0  0
  188.9380  177.0040  143.6690 N   0  0  0  0  0  2  0  0  0  0  0  0
  192.5800  174.0340  141.3730 C   0  0  1  0  0  3  0  0  0  0  0  0
  187.8200  174.8870  141.0670 C   0  0  0  0  0  3  0  0  0  0  0  0
  194.0480  172.1430  141.2490 O   0  0  0  0  0  0  0  0  0  0  0  0
  194.3980  175.2510  139.3510 C   0  0  0  0  0  1  0  0  0  0  0  0
  194.6320  173.9110  139.8650 N   0  0  0  0  0  2  0  0  0  0  0  0
  193.7770  173.3000  140.8330 C   0  0  0  0  0  0  0  0  0  0  0  0
  191.1970  172.1500  142.2460 C   0  0  0  0  0  0  0  0  0  0  0  0
  191.1520  171.2690  142.9930 N   0  0  0  0  0  0  0  0  0  0  0  0
  192.1500  175.5530  147.2730 C   0  0  0  0  0  2  0  0  0  0  0  0
  190.7290  176.0120  147.5780 C   0  0  0  0  0  2  0  0  0  0  0  0
  188.5400  175.4870  146.8120 O   0  0  0  0  0  1  0  0  0  0  0  0
  189.7340  174.9150  147.2480 C   0  0  0  0  0  2  0  0  0  0  0  0
  1 16  1  0  0  0  0
  1  5  1  0  0  0  0
  2 23  1  0  0  0  0
  2 17  1  0  0  0  0
  2 29  1  1  0  0  0
  3  9  1  0  0  0  0
  3 12  2  0  0  0  0
  4 11  1  1  0  0  0
  4 14  1  0  0  0  0
  5 13  1  6  0  0  0
  7 14  1  0  0  0  0
  7 31  1  1  0  0  0
  8  5  1  0  0  0  0
  8  3  1  1  0  0  0
  9  6  1  6  0  0  0
  9  4  1  0  0  0  0
 13 20  1  0  0  0  0
 15 19  1  0  0  0  0
 15 16  2  0  0  0  0
 16 22  1  0  0  0  0
 17  1  2  0  0  0  0
 18 22  1  0  0  0  0
 18 10  2  0  0  0  0
 19 18  1  0  0  0  0
 20  7  1  0  0  0  0
 21 24  2  0  0  0  0
 21 17  1  0  0  0  0
 23 28  1  1  0  0  0
 23  8  1  0  0  0  0
 24 15  1  0  0  0  0
 26 27  1  0  0  0  0
 27 28  1  0  0  0  0
 28 25  2  0  0  0  0
 29 30  3  0  0  0  0
 31 32  1  0  0  0  0
 33 34  1  0  0  0  0
 34 32  1  0  0  0  0
M  END
>  <MODEL>
4

>  <REMARK>
 VINA RESULT:      -6.3      2.393      4.154
  Name = 
  5 active torsions:
  status: ('A' for Active; 'I' for Inactive)
    1  A    between atoms: C_2  and  C_8
    2  A    between atoms: C_9  and  C_11
    3  A    between atoms: C_9  and  C_29
    4  A    between atoms: C_16  and  C_32
    5  A    between atoms: C_29  and  C_33
                            x       y       z     vdW  Elec       q    Type
                         _______ _______ _______ _____ _____    ______ ____

>  <TORSDO>
F 5

$$$$
=
 OpenBabel11042416063D

 34 37  0  0  1  0  0  0  0  0999 V2000
  191.0630  174.5370  142.3510 C   0  0  0  0  0  0  0  0  0  0  0  0
  192.0790  172.2890  141.7760 C   0  0  1  0  0  3  0  0  0  0  0  0
  194.6150  173.9920  143.6230 C   0  0  0  0  0  0  0  0  0  0  0  0
  195.5850  176.3300  143.7160 C   0  0  2  0  0  3  0  0  0  0  0  0
  192.3530  174.9240  143.0560 C   0  0  1  0  0  3  0  0  0  0  0  0
  196.8250  174.4150  142.6180 C   0  0  0  0  0  1  0  0  0  0  0  0
  193.5150  176.3050  145.2090 C   0  0  2  0  0  3  0  0  0  0  0  0
  193.6270  174.2460  142.5090 C   0  0  2  0  0  3  0  0  0  0  0  0
  195.8710  174.8140  143.7350 C   0  0  2  0  0  3  0  0  0  0  0  0
  187.8950  177.9010  143.0100 O   0  0  0  0  0  0  0  0  0  0  0  0
  196.7670  177.0460  143.5130 O   0  0  0  0  0  1  0  0  0  0  0  0
  194.3930  173.1280  144.4560 O   0  0  0  0  0  0  0  0  0  0  0  0
  192.6190  176.4320  143.0960 C   0  0  0  0  0  2  0  0  0  0  0  0
  194.9410  176.8260  145.0120 C   0  0  0  0  0  2  0  0  0  0  0  0
  188.7340  174.9330  141.8000 C   0  0  0  0  0  0  0  0  0  0  0  0
  189.9060  175.3370  142.3740 C   0  0  0  0  0  0  0  0  0  0  0  0
  190.9350  173.2530  141.7560 C   0  0  0  0  0  0  0  0  0  0  0  0
  188.4460  176.8280  142.6520 C   0  0  0  0  0  0  0  0  0  0  0  0
  187.7850  175.8670  141.9610 N   0  0  0  0  0  2  0  0  0  0  0  0
  192.5650  176.9660  144.4010 O   0  0  0  0  0  0  0  0  0  0  0  0
  189.7160  172.8500  141.1700 C   0  0  0  0  0  3  0  0  0  0  0  0
  189.7420  176.5480  142.9310 N   0  0  0  0  0  2  0  0  0  0  0  0
  193.3850  173.0550  141.5550 C   0  0  1  0  0  3  0  0  0  0  0  0
  188.5960  173.6960  141.1810 C   0  0  0  0  0  3  0  0  0  0  0  0
  194.8890  171.2360  141.9730 O   0  0  0  0  0  0  0  0  0  0  0  0
  195.1220  173.6110  139.2010 C   0  0  0  0  0  1  0  0  0  0  0  0
  195.3980  172.4980  140.0940 N   0  0  0  0  0  2  0  0  0  0  0  0
  194.5830  172.2050  141.2300 C   0  0  0  0  0  0  0  0  0  0  0  0
  192.0810  171.5270  143.0350 C   0  0  0  0  0  0  0  0  0  0  0  0
  192.0830  170.9290  144.0250 N   0  0  0  0  0  0  0  0  0  0  0  0
  193.1070  176.3670  146.6790 C   0  0  0  0  0  2  0  0  0  0  0  0
  192.0970  175.2910  147.0590 C   0  0  0  0  0  2  0  0  0  0  0  0
  189.8220  174.9160  147.6380 O   0  0  0  0  0  1  0  0  0  0  0  0
  190.7680  175.9190  147.4330 C   0  0  0  0  0  2  0  0  0  0  0  0
  1 16  1  0  0  0  0
  1  5  1  0  0  0  0
  2 29  1  1  0  0  0
  3  9  1  0  0  0  0
  3 12  2  0  0  0  0
  4 11  1  1  0  0  0
  4  9  1  0  0  0  0
  4 14  1  0  0  0  0
  5 13  1  6  0  0  0
  7 31  1  1  0  0  0
  8  5  1  0  0  0  0
  8  3  1  1  0  0  0
  9  6  1  6  0  0  0
 13 20  1  0  0  0  0
 14  7  1  0  0  0  0
 15 19  1  0  0  0  0
 15 16  2  0  0  0  0
 16 22  1  0  0  0  0
 17  2  1  0  0  0  0
 17  1  2  0  0  0  0
 18 22  1  0  0  0  0
 18 10  2  0  0  0  0
 19 18  1  0  0  0  0
 20  7  1  0  0  0  0
 21 24  2  0  0  0  0
 21 17  1  0  0  0  0
 23 28  1  1  0  0  0
 23  2  1  0  0  0  0
 23  8  1  0  0  0  0
 24 15  1  0  0  0  0
 26 27  1  0  0  0  0
 27 28  1  0  0  0  0
 28 25  2  0  0  0  0
 29 30  3  0  0  0  0
 31 32  1  0  0  0  0
 32 34  1  0  0  0  0
 34 33  1  0  0  0  0
M  END
>  <MODEL>
5

>  <REMARK>
 VINA RESULT:      -6.3      2.807      4.896
  Name = 
  5 active torsions:
  status: ('A' for Active; 'I' for Inactive)
    1  A    between atoms: C_2  and  C_8
    2  A    between atoms: C_9  and  C_11
    3  A    between atoms: C_9  and  C_29
    4  A    between atoms: C_16  and  C_32
    5  A    between atoms: C_29  and  C_33
                            x       y       z     vdW  Elec       q    Type
                         _______ _______ _______ _____ _____    ______ ____

>  <TORSDO>
F 5

$$$$
=
 OpenBabel11042416063D

 34 37  0  0  1  0  0  0  0  0999 V2000
  193.0040  175.5330  143.9290 C   0  0  0  0  0  0  0  0  0  0  0  0
  191.2430  176.6590  145.3600 C   0  0  1  0  0  3  0  0  0  0  0  0
  189.4620  174.1910  143.4940 C   0  0  0  0  0  0  0  0  0  0  0  0
  189.4320  173.3340  141.1110 C   0  0  2  0  0  3  0  0  0  0  0  0
  191.9270  174.6410  143.3310 C   0  0  1  0  0  3  0  0  0  0  0  0
  187.6070  174.8410  142.0090 C   0  0  0  0  0  1  0  0  0  0  0  0
  191.2880  172.0890  142.3440 C   0  0  2  0  0  3  0  0  0  0  0  0
  190.5130  175.2570  143.2950 C   0  0  2  0  0  3  0  0  0  0  0  0
  188.6000  173.7390  142.3460 C   0  0  2  0  0  3  0  0  0  0  0  0
  197.1720  174.1730  142.3280 O   0  0  0  0  0  0  0  0  0  0  0  0
  188.6110  173.2190  139.9870 O   0  0  0  0  0  1  0  0  0  0  0  0
  189.3160  173.6700  144.5890 O   0  0  0  0  0  0  0  0  0  0  0  0
  192.2410  174.1370  141.9180 C   0  0  0  0  0  2  0  0  0  0  0  0
  190.1680  172.0070  141.3040 C   0  0  0  0  0  2  0  0  0  0  0  0
  195.3300  176.1310  144.2650 C   0  0  0  0  0  0  0  0  0  0  0  0
  194.3740  175.3700  143.6550 C   0  0  0  0  0  0  0  0  0  0  0  0
  192.6640  176.4870  144.9240 C   0  0  0  0  0  0  0  0  0  0  0  0
  196.2740  174.7860  142.9620 C   0  0  0  0  0  0  0  0  0  0  0  0
  196.5530  175.7810  143.8390 N   0  0  0  0  0  2  0  0  0  0  0  0
  192.4440  172.7420  141.8650 O   0  0  0  0  0  0  0  0  0  0  0  0
  193.6650  177.2640  145.5470 C   0  0  0  0  0  3  0  0  0  0  0  0
  194.9580  174.4960  142.8180 N   0  0  0  0  0  2  0  0  0  0  0  0
  190.3270  176.5360  144.1420 C   0  0  1  0  0  3  0  0  0  0  0  0
  195.0180  177.0960  145.2160 C   0  0  0  0  0  3  0  0  0  0  0  0
  188.2710  176.6290  145.3730 O   0  0  0  0  0  0  0  0  0  0  0  0
  188.9290  178.2890  142.1800 C   0  0  0  0  0  1  0  0  0  0  0  0
  188.2670  177.8370  143.3920 N   0  0  0  0  0  2  0  0  0  0  0  0
  188.9110  176.9980  144.3520 C   0  0  0  0  0  0  0  0  0  0  0  0
  190.9130  175.6840  146.4120 C   0  0  0  0  0  0  0  0  0  0  0  0
  190.6540  174.9190  147.2400 N   0  0  0  0  0  0  0  0  0  0  0  0
  191.6370  170.7040  142.8850 C   0  0  0  0  0  2  0  0  0  0  0  0
  193.1280  170.5330  143.1570 C   0  0  0  0  0  2  0  0  0  0  0  0
  193.7930  172.0020  144.9030 O   0  0  0  0  0  1  0  0  0  0  0  0
  193.4170  170.6870  144.6380 C   0  0  0  0  0  2  0  0  0  0  0  0
  1 17  1  0  0  0  0
  2 29  1  1  0  0  0
  3 12  2  0  0  0  0
  4 11  1  6  0  0  0
  4 14  1  0  0  0  0
  4  9  1  0  0  0  0
  5 13  1  6  0  0  0
  5  1  1  0  0  0  0
  7 31  1  6  0  0  0
  8  5  1  0  0  0  0
  8  3  1  1  0  0  0
  8 23  1  0  0  0  0
  9  6  1  6  0  0  0
  9  3  1  0  0  0  0
 10 18  2  0  0  0  0
 14  7  1  0  0  0  0
 15 24  2  0  0  0  0
 16  1  2  0  0  0  0
 16 15  1  0  0  0  0
 17  2  1  0  0  0  0
 17 21  2  0  0  0  0
 18 19  1  0  0  0  0
 19 15  1  0  0  0  0
 20 13  1  0  0  0  0
 20  7  1  0  0  0  0
 22 18  1  0  0  0  0
 22 16  1  0  0  0  0
 23 28  1  1  0  0  0
 23  2  1  0  0  0  0
 24 21  1  0  0  0  0
 26 27  1  0  0  0  0
 27 28  1  0  0  0  0
 28 25  2  0  0  0  0
 29 30  3  0  0  0  0
 31 32  1  0  0  0  0
 32 34  1  0  0  0  0
 34 33  1  0  0  0  0
M  END
>  <MODEL>
6

>  <REMARK>
 VINA RESULT:      -6.1      2.709      7.460
  Name = 
  5 active torsions:
  status: ('A' for Active; 'I' for Inactive)
    1  A    between atoms: C_2  and  C_8
    2  A    between atoms: C_9  and  C_11
    3  A    between atoms: C_9  and  C_29
    4  A    between atoms: C_16  and  C_32
    5  A    between atoms: C_29  and  C_33
                            x       y       z     vdW  Elec       q    Type
                         _______ _______ _______ _____ _____    ______ ____

>  <TORSDO>
F 5

$$$$
=
 OpenBabel11042416063D

 34 37  0  0  1  0  0  0  0  0999 V2000
  191.6870  174.6500  145.3480 C   0  0  0  0  0  0  0  0  0  0  0  0
  194.2010  174.5330  145.0640 C   0  0  1  0  0  3  0  0  0  0  0  0
  192.8910  172.4630  142.4660 C   0  0  0  0  0  0  0  0  0  0  0  0
  191.0640  170.7260  142.2260 C   0  0  2  0  0  3  0  0  0  0  0  0
  191.5240  173.7070  144.1670 C   0  0  1  0  0  3  0  0  0  0  0  0
  193.5100  170.0820  142.3300 C   0  0  0  0  0  1  0  0  0  0  0  0
  189.9800  173.0170  141.9230 C   0  0  2  0  0  3  0  0  0  0  0  0
  192.6980  172.7320  143.9400 C   0  0  2  0  0  3  0  0  0  0  0  0
  192.5100  171.1340  141.8730 C   0  0  2  0  0  3  0  0  0  0  0  0
  187.4730  176.0960  146.7390 O   0  0  0  0  0  0  0  0  0  0  0  0
  190.8510  169.3790  141.9270 O   0  0  0  0  0  1  0  0  0  0  0  0
  193.3420  173.3340  141.7380 O   0  0  0  0  0  0  0  0  0  0  0  0
  190.2390  172.8720  144.2020 C   0  0  0  0  0  2  0  0  0  0  0  0
  190.0180  171.5540  141.4760 C   0  0  0  0  0  2  0  0  0  0  0  0
  190.7750  176.1770  146.9970 C   0  0  0  0  0  0  0  0  0  0  0  0
  190.6000  175.2720  145.9890 C   0  0  0  0  0  0  0  0  0  0  0  0
  192.9840  175.0590  145.7570 C   0  0  0  0  0  0  0  0  0  0  0  0
  188.7190  175.9530  146.6450 C   0  0  0  0  0  0  0  0  0  0  0  0
  189.5900  176.6270  147.4360 N   0  0  0  0  0  2  0  0  0  0  0  0
  189.3400  173.2040  143.1670 O   0  0  0  0  0  0  0  0  0  0  0  0
  193.1470  175.9980  146.7990 C   0  0  0  0  0  3  0  0  0  0  0  0
  189.2890  175.1170  145.7430 N   0  0  0  0  0  2  0  0  0  0  0  0
  193.9880  173.0560  144.7280 C   0  0  1  0  0  3  0  0  0  0  0  0
  192.0340  176.5660  147.4380 C   0  0  0  0  0  3  0  0  0  0  0  0
  195.9780  172.7620  143.4240 O   0  0  0  0  0  0  0  0  0  0  0  0
  194.7220  170.4460  145.9610 C   0  0  0  0  0  1  0  0  0  0  0  0
  195.5500  171.0520  144.9310 N   0  0  0  0  0  2  0  0  0  0  0  0
  195.2260  172.3030  144.3230 C   0  0  0  0  0  0  0  0  0  0  0  0
  194.4980  175.3430  143.8720 C   0  0  0  0  0  0  0  0  0  0  0  0
  194.7320  175.9810  142.9350 N   0  0  0  0  0  0  0  0  0  0  0  0
  189.3440  173.9010  140.8520 C   0  0  0  0  0  2  0  0  0  0  0  0
  188.0460  174.5520  141.3170 C   0  0  0  0  0  2  0  0  0  0  0  0
  189.0900  176.4190  142.3530 O   0  0  0  0  0  1  0  0  0  0  0  0
  188.1920  176.0610  141.3490 C   0  0  0  0  0  2  0  0  0  0  0  0
  1 17  2  0  0  0  0
  1 16  1  0  0  0  0
  2 29  1  6  0  0  0
  2 17  1  0  0  0  0
  4 11  1  6  0  0  0
  5 13  1  1  0  0  0
  5  1  1  0  0  0  0
  7 31  1  6  0  0  0
  7 20  1  0  0  0  0
  8  3  1  6  0  0  0
  8  5  1  0  0  0  0
  8 23  1  0  0  0  0
  9  4  1  0  0  0  0
  9  6  1  1  0  0  0
  9  3  1  0  0  0  0
 12  3  2  0  0  0  0
 14  7  1  0  0  0  0
 14  4  1  0  0  0  0
 15 19  1  0  0  0  0
 15 24  1  0  0  0  0
 16 15  2  0  0  0  0
 17 21  1  0  0  0  0
 18 10  2  0  0  0  0
 18 19  1  0  0  0  0
 20 13  1  0  0  0  0
 21 24  2  0  0  0  0
 22 16  1  0  0  0  0
 22 18  1  0  0  0  0
 23 28  1  6  0  0  0
 23  2  1  0  0  0  0
 25 28  2  0  0  0  0
 27 26  1  0  0  0  0
 28 27  1  0  0  0  0
 30 29  3  0  0  0  0
 31 32  1  0  0  0  0
 32 34  1  0  0  0  0
 34 33  1  0  0  0  0
M  END
>  <MODEL>
7

>  <REMARK>
 VINA RESULT:      -6.1      2.777      6.369
  Name = 
  5 active torsions:
  status: ('A' for Active; 'I' for Inactive)
    1  A    between atoms: C_2  and  C_8
    2  A    between atoms: C_9  and  C_11
    3  A    between atoms: C_9  and  C_29
    4  A    between atoms: C_16  and  C_32
    5  A    between atoms: C_29  and  C_33
                            x       y       z     vdW  Elec       q    Type
                         _______ _______ _______ _____ _____    ______ ____

>  <TORSDO>
F 5

$$$$
=
 OpenBabel11042416063D

 34 37  0  0  1  0  0  0  0  0999 V2000
  192.4060  175.1160  143.3610 C   0  0  0  0  0  0  0  0  0  0  0  0
  189.9870  174.9390  144.0920 C   0  0  1  0  0  3  0  0  0  0  0  0
  190.1490  173.1220  141.0240 C   0  0  0  0  0  0  0  0  0  0  0  0
  191.2290  173.4150  138.7510 C   0  0  2  0  0  3  0  0  0  0  0  0
  192.0760  174.3000  142.1220 C   0  0  1  0  0  3  0  0  0  0  0  0
  188.7480  173.7750  139.1050 C   0  0  0  0  0  1  0  0  0  0  0  0
  192.9720  172.3650  140.2920 C   0  0  2  0  0  3  0  0  0  0  0  0
  190.6220  174.4250  141.6230 C   0  0  2  0  0  3  0  0  0  0  0  0
  189.9730  172.9810  139.5360 C   0  0  2  0  0  3  0  0  0  0  0  0
  197.0090  175.8740  143.5090 O   0  0  0  0  0  0  0  0  0  0  0  0
  190.9290  173.5630  137.3950 O   0  0  0  0  0  1  0  0  0  0  0  0
  189.9250  172.1610  141.7430 O   0  0  0  0  0  0  0  0  0  0  0  0
  192.9940  174.5740  140.9260 C   0  0  0  0  0  2  0  0  0  0  0  0
  192.3800  172.4160  138.8810 C   0  0  0  0  0  2  0  0  0  0  0  0
  193.9980  176.1630  144.8610 C   0  0  0  0  0  0  0  0  0  0  0  0
  193.7160  175.4980  143.7020 C   0  0  0  0  0  0  0  0  0  0  0  0
  191.3930  175.3990  144.3160 C   0  0  0  0  0  0  0  0  0  0  0  0
  195.7870  175.8580  143.8100 C   0  0  0  0  0  0  0  0  0  0  0  0
  195.3140  176.4080  144.9560 N   0  0  0  0  0  2  0  0  0  0  0  0
  193.8020  173.4680  140.5880 O   0  0  0  0  0  0  0  0  0  0  0  0
  191.7020  176.0850  145.5110 C   0  0  0  0  0  3  0  0  0  0  0  0
  194.8510  175.2870  143.0150 N   0  0  0  0  0  2  0  0  0  0  0  0
  189.6390  175.0930  142.6100 C   0  0  1  0  0  3  0  0  0  0  0  0
  193.0180  176.4820  145.7940 C   0  0  0  0  0  3  0  0  0  0  0  0
  187.5880  173.8730  142.3880 O   0  0  0  0  0  0  0  0  0  0  0  0
  188.0570  177.4230  141.6390 C   0  0  0  0  0  1  0  0  0  0  0  0
  187.4450  176.1150  141.8120 N   0  0  0  0  0  2  0  0  0  0  0  0
  188.1760  174.9810  142.2780 C   0  0  0  0  0  0  0  0  0  0  0  0
  189.8220  173.5560  144.5660 C   0  0  0  0  0  0  0  0  0  0  0  0
  189.6910  172.4690  144.9380 N   0  0  0  0  0  0  0  0  0  0  0  0
  193.7170  171.0530  140.5260 C   0  0  0  0  0  2  0  0  0  0  0  0
  194.1070  170.8460  141.9860 C   0  0  0  0  0  2  0  0  0  0  0  0
  193.1280  171.3870  144.0830 O   0  0  0  0  0  1  0  0  0  0  0  0
  192.8700  170.7700  142.8600 C   0  0  0  0  0  2  0  0  0  0  0  0
  1 16  2  0  0  0  0
  1 17  1  0  0  0  0
  2 17  1  0  0  0  0
  2 29  1  6  0  0  0
  3 12  2  0  0  0  0
  4 11  1  6  0  0  0
  4 14  1  0  0  0  0
  4  9  1  0  0  0  0
  5 13  1  6  0  0  0
  5  1  1  0  0  0  0
  7 31  1  6  0  0  0
  7 20  1  0  0  0  0
  8  3  1  1  0  0  0
  8  5  1  0  0  0  0
  8 23  1  0  0  0  0
  9  6  1  6  0  0  0
  9  3  1  0  0  0  0
 10 18  2  0  0  0  0
 14  7  1  0  0  0  0
 15 19  1  0  0  0  0
 15 24  2  0  0  0  0
 16 15  1  0  0  0  0
 17 21  2  0  0  0  0
 18 19  1  0  0  0  0
 20 13  1  0  0  0  0
 21 24  1  0  0  0  0
 22 16  1  0  0  0  0
 22 18  1  0  0  0  0
 23 28  1  1  0  0  0
 23  2  1  0  0  0  0
 26 27  1  0  0  0  0
 27 28  1  0  0  0  0
 28 25  2  0  0  0  0
 29 30  3  0  0  0  0
 31 32  1  0  0  0  0
 32 34  1  0  0  0  0
 34 33  1  0  0  0  0
M  END
>  <MODEL>
8

>  <REMARK>
 VINA RESULT:      -5.7      3.317      7.878
  Name = 
  5 active torsions:
  status: ('A' for Active; 'I' for Inactive)
    1  A    between atoms: C_2  and  C_8
    2  A    between atoms: C_9  and  C_11
    3  A    between atoms: C_9  and  C_29
    4  A    between atoms: C_16  and  C_32
    5  A    between atoms: C_29  and  C_33
                            x       y       z     vdW  Elec       q    Type
                         _______ _______ _______ _____ _____    ______ ____

>  <TORSDO>
F 5

$$$$
=
 OpenBabel11042416063D

 34 37  0  0  1  0  0  0  0  0999 V2000
  190.5870  174.8160  142.2590 C   0  0  0  0  0  0  0  0  0  0  0  0
  191.0060  172.8030  140.7810 C   0  0  1  0  0  3  0  0  0  0  0  0
  194.2530  173.8700  141.8140 C   0  0  0  0  0  0  0  0  0  0  0  0
  195.4790  176.0680  142.0910 C   0  0  2  0  0  3  0  0  0  0  0  0
  192.0870  174.9650  142.4580 C   0  0  1  0  0  3  0  0  0  0  0  0
  195.9480  174.5170  140.1460 C   0  0  0  0  0  1  0  0  0  0  0  0
  194.1510  175.6620  144.2330 C   0  0  2  0  0  3  0  0  0  0  0  0
  192.9560  174.4450  141.2950 C   0  0  2  0  0  3  0  0  0  0  0  0
  195.5520  174.6030  141.6130 C   0  0  2  0  0  3  0  0  0  0  0  0
  188.3750  177.9170  144.9570 O   0  0  0  0  0  0  0  0  0  0  0  0
  196.5760  176.7900  141.6170 O   0  0  0  0  0  1  0  0  0  0  0  0
  194.2540  172.8100  142.4200 O   0  0  0  0  0  0  0  0  0  0  0  0
  192.5410  176.3960  142.7640 C   0  0  0  0  0  2  0  0  0  0  0  0
  195.4480  176.1910  143.6160 C   0  0  0  0  0  2  0  0  0  0  0  0
  188.2970  175.3950  142.8100 C   0  0  0  0  0  0  0  0  0  0  0  0
  189.6410  175.5990  142.9450 C   0  0  0  0  0  0  0  0  0  0  0  0
  190.0770  173.7550  141.4650 C   0  0  0  0  0  0  0  0  0  0  0  0
  188.6040  176.9780  144.1510 C   0  0  0  0  0  0  0  0  0  0  0  0
  187.6100  176.2630  143.5680 N   0  0  0  0  0  2  0  0  0  0  0  0
  193.0580  176.5410  144.0680 O   0  0  0  0  0  0  0  0  0  0  0  0
  188.6850  173.5550  141.3380 C   0  0  0  0  0  3  0  0  0  0  0  0
  189.8600  176.6070  143.8050 N   0  0  0  0  0  2  0  0  0  0  0  0
  192.2170  173.5750  140.2540 C   0  0  1  0  0  3  0  0  0  0  0  0
  187.7740  174.3850  142.0110 C   0  0  0  0  0  3  0  0  0  0  0  0
  193.5500  171.7010  139.5760 O   0  0  0  0  0  0  0  0  0  0  0  0
  192.9050  174.7000  137.5830 C   0  0  0  0  0  1  0  0  0  0  0  0
  193.3930  173.3960  137.9990 N   0  0  0  0  0  2  0  0  0  0  0  0
  193.0790  172.8290  139.2720 C   0  0  0  0  0  0  0  0  0  0  0  0
  191.3890  171.7170  141.6980 C   0  0  0  0  0  0  0  0  0  0  0  0
  191.6920  170.8650  142.4190 N   0  0  0  0  0  0  0  0  0  0  0  0
  194.3460  175.3160  145.7070 C   0  0  0  0  0  2  0  0  0  0  0  0
  195.6960  174.6660  145.9890 C   0  0  0  0  0  2  0  0  0  0  0  0
  196.8160  172.5750  146.1380 O   0  0  0  0  0  1  0  0  0  0  0  0
  195.6420  173.1800  145.6930 C   0  0  0  0  0  2  0  0  0  0  0  0
  1  5  1  0  0  0  0
  1 16  1  0  0  0  0
  2 17  1  0  0  0  0
  2 29  1  1  0  0  0
  3 12  2  0  0  0  0
  4 11  1  1  0  0  0
  4 14  1  0  0  0  0
  5 13  1  6  0  0  0
  7 31  1  1  0  0  0
  8  3  1  1  0  0  0
  8  5  1  0  0  0  0
  9  6  1  6  0  0  0
  9  3  1  0  0  0  0
  9  4  1  0  0  0  0
 13 20  1  0  0  0  0
 14  7  1  0  0  0  0
 15 16  2  0  0  0  0
 15 19  1  0  0  0  0
 16 22  1  0  0  0  0
 17  1  2  0  0  0  0
 18 10  2  0  0  0  0
 19 18  1  0  0  0  0
 20  7  1  0  0  0  0
 21 17  1  0  0  0  0
 21 24  2  0  0  0  0
 22 18  1  0  0  0  0
 23 28  1  1  0  0  0
 23  2  1  0  0  0  0
 23  8  1  0  0  0  0
 24 15  1  0  0  0  0
 26 27  1  0  0  0  0
 27 28  1  0  0  0  0
 28 25  2  0  0  0  0
 29 30  3  0  0  0  0
 31 32  1  0  0  0  0
 34 32  1  0  0  0  0
 34 33  1  0  0  0  0
M  END
>  <MODEL>
9

>  <REMARK>
 VINA RESULT:      -5.7      3.274      6.354
  Name = 
  5 active torsions:
  status: ('A' for Active; 'I' for Inactive)
    1  A    between atoms: C_2  and  C_8
    2  A    between atoms: C_9  and  C_11
    3  A    between atoms: C_9  and  C_29
    4  A    between atoms: C_16  and  C_32
    5  A    between atoms: C_29  and  C_33
                            x       y       z     vdW  Elec       q    Type
                         _______ _______ _______ _____ _____    ______ ____

>  <TORSDO>
F 5

$$$$
