=
 OpenBabel11042413503D

 25 26  0  0  1  0  0  0  0  0999 V2000
  187.1540  176.7660  145.0270 C   0  0  2  0  0  0  0  0  0  0  0  0
  188.5010  176.0770  144.8220 C   0  0  1  0  0  3  0  0  0  0  0  0
  188.4000  177.5950  144.7990 C   0  0  0  0  0  2  0  0  0  0  0  0
  186.5910  176.8980  146.4470 C   0  0  0  0  0  2  0  0  0  0  0  0
  185.0690  176.9150  146.4630 C   0  0  0  0  0  2  0  0  0  0  0  0
  185.7130  179.1090  147.4080 C   0  0  0  0  0  1  0  0  0  0  0  0
  184.5550  178.2660  146.9220 C   0  0  0  0  0  2  0  0  0  0  0  0
  189.0920  175.6530  146.0910 N   0  0  0  0  0  2  0  0  0  0  0  0
  190.2140  174.7380  145.8700 C   0  0  2  0  0  3  0  0  0  0  0  0
  191.5280  175.4920  145.6920 C   0  0  0  0  0  2  0  0  0  0  0  0
  193.0690  173.6920  144.8990 C   0  0  0  0  0  3  0  0  0  0  0  0
  192.2490  172.8020  144.3370 C   0  0  0  0  0  3  0  0  0  0  0  0
  192.6950  174.5870  146.0400 C   0  0  1  0  0  3  0  0  0  0  0  0
  189.9360  173.7910  144.7080 C   0  0  0  0  0  2  0  0  0  0  0  0
  190.8660  172.6690  144.6850 N   0  0  0  0  0  2  0  0  0  0  0  0
  193.8400  175.4020  146.4060 N   0  0  0  0  0  2  0  0  0  0  0  0
  194.7010  177.5590  145.9340 N   0  0  0  0  0  1  0  0  0  0  0  0
  193.9720  176.4300  145.3890 C   0  0  0  0  0  2  0  0  0  0  0  0
  186.2160  176.7940  143.8190 C   0  0  0  0  0  2  0  0  0  0  0  0
  186.2160  178.1120  143.0310 C   0  0  2  0  0  3  0  0  0  0  0  0
  185.4890  180.1530  144.0250 O   0  0  0  0  0  1  0  0  0  0  0  0
  183.8090  178.7490  143.3550 O   0  0  0  0  0  0  0  0  0  0  0  0
  185.1570  179.0650  143.4870 C   0  0  0  0  0  0  0  0  0  0  0  0
  186.1950  177.9160  141.5470 C   0  0  0  0  0  3  0  0  0  0  0  0
  187.2820  177.6990  140.9030 N   0  0  0  0  0  2  0  0  0  0  0  0
  1 19  1  6  0  0  0
  1  4  1  0  0  0  0
  2  1  1  0  0  0  0
  2  8  1  1  0  0  0
  3  2  1  0  0  0  0
  3  1  1  0  0  0  0
  4  5  1  0  0  0  0
  5  7  1  0  0  0  0
  7  6  1  0  0  0  0
  9  8  1  6  0  0  0
 10  9  1  0  0  0  0
 10 13  1  0  0  0  0
 11 13  1  0  0  0  0
 12 15  1  0  0  0  0
 12 11  2  0  0  0  0
 13 16  1  6  0  0  0
 14  9  1  0  0  0  0
 15 14  1  0  0  0  0
 18 17  1  0  0  0  0
 18 16  1  0  0  0  0
 20 24  1  6  0  0  0
 20 23  1  0  0  0  0
 20 19  1  0  0  0  0
 22 23  2  0  0  0  0
 23 21  1  0  0  0  0
 25 24  2  0  0  0  0
M  END
>  <MODEL>
1

>  <REMARK>
 VINA RESULT:      -6.0      0.000      0.000
  Name = 
  11 active torsions:
  status: ('A' for Active; 'I' for Inactive)
    1  A    between atoms: C_2  and  C_4
    2  A    between atoms: C_2  and  C_24
    3  A    between atoms: C_4  and  C_19
    4  A    between atoms: C_6  and  C_10
    5  A    between atoms: C_7  and  N_14
    6  A    between atoms: C_8  and  N_14
    7  A    between atoms: C_9  and  C_10
    8  A    between atoms: C_10  and  C_19
    9  A    between atoms: N_13  and  C_17
   10  A    between atoms: N_13  and  C_25
   11  A    between atoms: C_18  and  C_24
                            x       y       z     vdW  Elec       q    Type
                         _______ _______ _______ _____ _____    ______ ____

>  <TORSDO>
F 11

$$$$
=
 OpenBabel11042413503D

 25 26  0  0  1  0  0  0  0  0999 V2000
  187.1020  176.8130  144.8290 C   0  0  2  0  0  0  0  0  0  0  0  0
  188.4620  176.1900  144.5240 C   0  0  1  0  0  3  0  0  0  0  0  0
  188.2850  177.7010  144.5110 C   0  0  0  0  0  2  0  0  0  0  0  0
  186.6380  176.9190  146.2850 C   0  0  0  0  0  2  0  0  0  0  0  0
  185.1210  176.8850  146.4100 C   0  0  0  0  0  2  0  0  0  0  0  0
  185.7530  179.0690  147.3870 C   0  0  0  0  0  1  0  0  0  0  0  0
  184.5960  178.2150  146.9160 C   0  0  0  0  0  2  0  0  0  0  0  0
  189.1630  175.7970  145.7460 N   0  0  0  0  0  2  0  0  0  0  0  0
  190.5710  176.2000  145.6970 C   0  0  2  0  0  3  0  0  0  0  0  0
  191.2670  175.6620  144.4510 C   0  0  0  0  0  2  0  0  0  0  0  0
  193.6700  176.1410  144.9380 C   0  0  0  0  0  3  0  0  0  0  0  0
  193.7180  176.1810  146.2710 C   0  0  0  0  0  3  0  0  0  0  0  0
  192.4740  176.5200  144.1210 C   0  0  1  0  0  3  0  0  0  0  0  0
  191.3040  175.8100  146.9760 C   0  0  0  0  0  2  0  0  0  0  0  0
  192.5890  176.4880  147.0960 N   0  0  0  0  0  2  0  0  0  0  0  0
  192.7900  176.3780  142.7110 N   0  0  0  0  0  2  0  0  0  0  0  0
  194.7660  176.4810  141.4050 N   0  0  0  0  0  1  0  0  0  0  0  0
  194.1800  175.9630  142.6270 C   0  0  0  0  0  2  0  0  0  0  0  0
  186.0770  176.7930  143.6920 C   0  0  0  0  0  2  0  0  0  0  0  0
  185.9880  178.0930  142.8790 C   0  0  2  0  0  3  0  0  0  0  0  0
  185.5030  180.1460  143.9890 O   0  0  0  0  0  1  0  0  0  0  0  0
  183.6780  178.8510  143.5040 O   0  0  0  0  0  0  0  0  0  0  0  0
  185.0470  179.0910  143.4770 C   0  0  0  0  0  0  0  0  0  0  0  0
  185.7180  177.8660  141.4240 C   0  0  0  0  0  3  0  0  0  0  0  0
  186.6820  177.6410  140.6110 N   0  0  0  0  0  2  0  0  0  0  0  0
  1 19  1  6  0  0  0
  1  4  1  0  0  0  0
  2  1  1  0  0  0  0
  2  8  1  1  0  0  0
  3  2  1  0  0  0  0
  3  1  1  0  0  0  0
  4  5  1  0  0  0  0
  5  7  1  0  0  0  0
  7  6  1  0  0  0  0
  9  8  1  1  0  0  0
  9 14  1  0  0  0  0
 10  9  1  0  0  0  0
 11 12  2  0  0  0  0
 12 15  1  0  0  0  0
 13 16  1  6  0  0  0
 13 10  1  0  0  0  0
 13 11  1  0  0  0  0
 14 15  1  0  0  0  0
 17 18  1  0  0  0  0
 18 16  1  0  0  0  0
 20 24  1  6  0  0  0
 20 23  1  0  0  0  0
 20 19  1  0  0  0  0
 23 22  2  0  0  0  0
 23 21  1  0  0  0  0
 25 24  2  0  0  0  0
M  END
>  <MODEL>
2

>  <REMARK>
 VINA RESULT:      -5.9      1.543      2.155
  Name = 
  11 active torsions:
  status: ('A' for Active; 'I' for Inactive)
    1  A    between atoms: C_2  and  C_4
    2  A    between atoms: C_2  and  C_24
    3  A    between atoms: C_4  and  C_19
    4  A    between atoms: C_6  and  C_10
    5  A    between atoms: C_7  and  N_14
    6  A    between atoms: C_8  and  N_14
    7  A    between atoms: C_9  and  C_10
    8  A    between atoms: C_10  and  C_19
    9  A    between atoms: N_13  and  C_17
   10  A    between atoms: N_13  and  C_25
   11  A    between atoms: C_18  and  C_24
                            x       y       z     vdW  Elec       q    Type
                         _______ _______ _______ _____ _____    ______ ____

>  <TORSDO>
F 11

$$$$
=
 OpenBabel11042413503D

 25 26  0  0  1  0  0  0  0  0999 V2000
  187.1430  176.7860  144.8810 C   0  0  2  0  0  0  0  0  0  0  0  0
  188.4970  176.1360  144.6060 C   0  0  1  0  0  3  0  0  0  0  0  0
  188.3510  177.6500  144.5900 C   0  0  0  0  0  2  0  0  0  0  0  0
  186.6500  176.9010  146.3280 C   0  0  0  0  0  2  0  0  0  0  0  0
  185.1310  176.8690  146.4220 C   0  0  0  0  0  2  0  0  0  0  0  0
  185.7390  179.0790  147.3530 C   0  0  0  0  0  1  0  0  0  0  0  0
  184.5940  178.2140  146.8730 C   0  0  0  0  0  2  0  0  0  0  0  0
  189.1640  175.7300  145.8430 N   0  0  0  0  0  2  0  0  0  0  0  0
  190.6150  175.6500  145.6570 C   0  0  2  0  0  3  0  0  0  0  0  0
  191.0610  174.2310  145.3180 C   0  0  0  0  0  2  0  0  0  0  0  0
  193.5460  174.3930  145.5290 C   0  0  0  0  0  3  0  0  0  0  0  0
  193.7230  175.4090  146.3750 C   0  0  0  0  0  3  0  0  0  0  0  0
  192.3900  174.2680  144.5850 C   0  0  1  0  0  3  0  0  0  0  0  0
  191.3600  176.2120  146.8610 C   0  0  0  0  0  2  0  0  0  0  0  0
  192.7670  176.4580  146.5660 N   0  0  0  0  0  2  0  0  0  0  0  0
  192.5380  173.0540  143.8020 N   0  0  0  0  0  2  0  0  0  0  0  0
  192.7550  170.7250  144.1840 N   0  0  0  0  0  1  0  0  0  0  0  0
  193.0920  172.0430  144.6860 C   0  0  0  0  0  2  0  0  0  0  0  0
  186.1440  176.7860  143.7220 C   0  0  0  0  0  2  0  0  0  0  0  0
  186.0720  178.1000  142.9310 C   0  0  2  0  0  3  0  0  0  0  0  0
  183.8130  178.7500  143.3230 O   0  0  0  0  0  0  0  0  0  0  0  0
  185.3900  180.2430  144.0470 O   0  0  0  0  0  1  0  0  0  0  0  0
  185.0310  179.0390  143.4520 C   0  0  0  0  0  0  0  0  0  0  0  0
  185.9560  177.8960  141.4520 C   0  0  0  0  0  3  0  0  0  0  0  0
  186.9750  177.5380  140.7620 N   0  0  0  0  0  2  0  0  0  0  0  0
  1 19  1  6  0  0  0
  1  4  1  0  0  0  0
  2  1  1  0  0  0  0
  2  8  1  1  0  0  0
  3  2  1  0  0  0  0
  3  1  1  0  0  0  0
  4  5  1  0  0  0  0
  5  7  1  0  0  0  0
  7  6  1  0  0  0  0
  9  8  1  1  0  0  0
  9 14  1  0  0  0  0
 10  9  1  0  0  0  0
 11 12  2  0  0  0  0
 12 15  1  0  0  0  0
 13 16  1  1  0  0  0
 13 10  1  0  0  0  0
 13 11  1  0  0  0  0
 15 14  1  0  0  0  0
 16 18  1  0  0  0  0
 17 18  1  0  0  0  0
 20 24  1  6  0  0  0
 20 23  1  0  0  0  0
 20 19  1  0  0  0  0
 21 23  2  0  0  0  0
 23 22  1  0  0  0  0
 25 24  2  0  0  0  0
M  END
>  <MODEL>
3

>  <REMARK>
 VINA RESULT:      -5.7      0.967      2.471
  Name = 
  11 active torsions:
  status: ('A' for Active; 'I' for Inactive)
    1  A    between atoms: C_2  and  C_4
    2  A    between atoms: C_2  and  C_24
    3  A    between atoms: C_4  and  C_19
    4  A    between atoms: C_6  and  C_10
    5  A    between atoms: C_7  and  N_14
    6  A    between atoms: C_8  and  N_14
    7  A    between atoms: C_9  and  C_10
    8  A    between atoms: C_10  and  C_19
    9  A    between atoms: N_13  and  C_17
   10  A    between atoms: N_13  and  C_25
   11  A    between atoms: C_18  and  C_24
                            x       y       z     vdW  Elec       q    Type
                         _______ _______ _______ _____ _____    ______ ____

>  <TORSDO>
F 11

$$$$
=
 OpenBabel11042413503D

 25 26  0  0  1  0  0  0  0  0999 V2000
  190.0730  175.4750  145.9630 C   0  0  2  0  0  0  0  0  0  0  0  0
  188.5460  175.4740  145.9410 C   0  0  1  0  0  3  0  0  0  0  0  0
  189.3050  174.5450  146.8770 C   0  0  0  0  0  2  0  0  0  0  0  0
  190.8090  176.5910  146.7130 C   0  0  0  0  0  2  0  0  0  0  0  0
  192.1260  176.1120  147.3070 C   0  0  0  0  0  2  0  0  0  0  0  0
  194.3700  175.6770  146.3580 C   0  0  0  0  0  1  0  0  0  0  0  0
  193.3000  176.7270  146.5690 C   0  0  0  0  0  2  0  0  0  0  0  0
  187.9930  176.5870  146.7130 N   0  0  0  0  0  2  0  0  0  0  0  0
  186.7710  177.1040  146.0910 C   0  0  2  0  0  3  0  0  0  0  0  0
  187.0830  178.1450  145.0210 C   0  0  0  0  0  2  0  0  0  0  0  0
  184.8240  179.0970  144.5360 C   0  0  0  0  0  3  0  0  0  0  0  0
  184.1410  178.8730  145.6600 C   0  0  0  0  0  3  0  0  0  0  0  0
  185.9350  178.2290  144.0320 C   0  0  1  0  0  3  0  0  0  0  0  0
  185.7970  177.6310  147.1370 C   0  0  0  0  0  2  0  0  0  0  0  0
  184.4610  177.8290  146.5870 N   0  0  0  0  0  2  0  0  0  0  0  0
  186.4270  178.7610  142.7730 N   0  0  0  0  0  2  0  0  0  0  0  0
  186.6940  176.8350  141.4160 N   0  0  0  0  0  1  0  0  0  0  0  0
  185.8330  177.9640  141.7130 C   0  0  0  0  0  2  0  0  0  0  0  0
  190.7660  174.7210  144.8260 C   0  0  0  0  0  2  0  0  0  0  0  0
  191.3180  175.6100  143.7030 C   0  0  2  0  0  3  0  0  0  0  0  0
  189.8700  177.1890  142.6570 O   0  0  0  0  0  1  0  0  0  0  0  0
  189.7260  175.0540  141.8420 O   0  0  0  0  0  0  0  0  0  0  0  0
  190.2760  175.9990  142.7010 C   0  0  0  0  0  0  0  0  0  0  0  0
  192.5430  175.0490  143.0500 C   0  0  0  0  0  3  0  0  0  0  0  0
  193.5230  175.8150  142.7390 N   0  0  0  0  0  2  0  0  0  0  0  0
  1 19  1  6  0  0  0
  1  4  1  0  0  0  0
  1  3  1  0  0  0  0
  2  1  1  0  0  0  0
  2  8  1  1  0  0  0
  2  3  1  0  0  0  0
  4  5  1  0  0  0  0
  6  7  1  0  0  0  0
  7  5  1  0  0  0  0
  9  8  1  1  0  0  0
  9 14  1  0  0  0  0
 10  9  1  0  0  0  0
 11 12  2  0  0  0  0
 12 15  1  0  0  0  0
 13 16  1  6  0  0  0
 13 11  1  0  0  0  0
 13 10  1  0  0  0  0
 15 14  1  0  0  0  0
 17 18  1  0  0  0  0
 18 16  1  0  0  0  0
 20 24  1  6  0  0  0
 20 19  1  0  0  0  0
 21 23  1  0  0  0  0
 22 23  2  0  0  0  0
 23 20  1  0  0  0  0
 25 24  2  0  0  0  0
M  END
>  <MODEL>
4

>  <REMARK>
 VINA RESULT:      -5.6      2.596      6.937
  Name = 
  11 active torsions:
  status: ('A' for Active; 'I' for Inactive)
    1  A    between atoms: C_2  and  C_4
    2  A    between atoms: C_2  and  C_24
    3  A    between atoms: C_4  and  C_19
    4  A    between atoms: C_6  and  C_10
    5  A    between atoms: C_7  and  N_14
    6  A    between atoms: C_8  and  N_14
    7  A    between atoms: C_9  and  C_10
    8  A    between atoms: C_10  and  C_19
    9  A    between atoms: N_13  and  C_17
   10  A    between atoms: N_13  and  C_25
   11  A    between atoms: C_18  and  C_24
                            x       y       z     vdW  Elec       q    Type
                         _______ _______ _______ _____ _____    ______ ____

>  <TORSDO>
F 11

$$$$
=
 OpenBabel11042413503D

 25 26  0  0  1  0  0  0  0  0999 V2000
  190.9330  176.3530  144.6720 C   0  0  2  0  0  0  0  0  0  0  0  0
  190.0630  176.1340  143.4370 C   0  0  1  0  0  3  0  0  0  0  0  0
  190.7620  174.9600  144.1050 C   0  0  0  0  0  2  0  0  0  0  0  0
  190.2600  176.5380  146.0370 C   0  0  0  0  0  2  0  0  0  0  0  0
  190.3280  175.2780  146.8880 C   0  0  0  0  0  2  0  0  0  0  0  0
  191.5290  176.8880  148.3320 C   0  0  0  0  0  1  0  0  0  0  0  0
  191.3710  175.4260  147.9790 C   0  0  0  0  0  2  0  0  0  0  0  0
  188.6400  176.1030  143.7750 N   0  0  0  0  0  2  0  0  0  0  0  0
  187.8670  176.9690  142.8820 C   0  0  2  0  0  3  0  0  0  0  0  0
  186.6310  177.5320  143.5750 C   0  0  0  0  0  2  0  0  0  0  0  0
  185.3680  178.5410  141.6700 C   0  0  0  0  0  3  0  0  0  0  0  0
  185.7930  177.8490  140.6110 C   0  0  0  0  0  3  0  0  0  0  0  0
  186.1920  178.8130  142.8900 C   0  0  1  0  0  3  0  0  0  0  0  0
  187.5180  176.2540  141.5820 C   0  0  0  0  0  2  0  0  0  0  0  0
  187.0590  177.1820  140.5560 N   0  0  0  0  0  2  0  0  0  0  0  0
  185.4190  179.6140  143.8230 N   0  0  0  0  0  2  0  0  0  0  0  0
  183.9500  178.8650  145.5270 N   0  0  0  0  0  1  0  0  0  0  0  0
  184.1930  178.8830  144.0970 C   0  0  0  0  0  2  0  0  0  0  0  0
  192.3370  176.9080  144.4220 C   0  0  0  0  0  2  0  0  0  0  0  0
  193.4780  175.9080  144.6590 C   0  0  2  0  0  3  0  0  0  0  0  0
  194.9180  175.3890  146.4860 O   0  0  0  0  0  1  0  0  0  0  0  0
  194.5400  177.6220  146.1540 O   0  0  0  0  0  0  0  0  0  0  0  0
  194.3590  176.2880  145.8070 C   0  0  0  0  0  0  0  0  0  0  0  0
  194.2670  175.6040  143.4220 C   0  0  0  0  0  3  0  0  0  0  0  0
  195.3370  176.2570  143.1570 N   0  0  0  0  0  2  0  0  0  0  0  0
  1 19  1  6  0  0  0
  1  4  1  0  0  0  0
  2  8  1  1  0  0  0
  2  3  1  0  0  0  0
  2  1  1  0  0  0  0
  3  1  1  0  0  0  0
  4  5  1  0  0  0  0
  5  7  1  0  0  0  0
  7  6  1  0  0  0  0
  9 10  1  0  0  0  0
  9  8  1  1  0  0  0
 11 13  1  0  0  0  0
 12 11  2  0  0  0  0
 13 10  1  0  0  0  0
 13 16  1  1  0  0  0
 14  9  1  0  0  0  0
 15 12  1  0  0  0  0
 15 14  1  0  0  0  0
 16 18  1  0  0  0  0
 18 17  1  0  0  0  0
 19 20  1  0  0  0  0
 20 24  1  6  0  0  0
 20 23  1  0  0  0  0
 23 22  2  0  0  0  0
 23 21  1  0  0  0  0
 25 24  2  0  0  0  0
M  END
>  <MODEL>
5

>  <REMARK>
 VINA RESULT:      -5.4      3.703      7.608
  Name = 
  11 active torsions:
  status: ('A' for Active; 'I' for Inactive)
    1  A    between atoms: C_2  and  C_4
    2  A    between atoms: C_2  and  C_24
    3  A    between atoms: C_4  and  C_19
    4  A    between atoms: C_6  and  C_10
    5  A    between atoms: C_7  and  N_14
    6  A    between atoms: C_8  and  N_14
    7  A    between atoms: C_9  and  C_10
    8  A    between atoms: C_10  and  C_19
    9  A    between atoms: N_13  and  C_17
   10  A    between atoms: N_13  and  C_25
   11  A    between atoms: C_18  and  C_24
                            x       y       z     vdW  Elec       q    Type
                         _______ _______ _______ _____ _____    ______ ____

>  <TORSDO>
F 11

$$$$
=
 OpenBabel11042413503D

 25 26  0  0  1  0  0  0  0  0999 V2000
  188.4180  176.9290  145.1020 C   0  0  2  0  0  0  0  0  0  0  0  0
  189.7950  176.2930  144.9260 C   0  0  1  0  0  3  0  0  0  0  0  0
  189.6520  177.6450  145.6090 C   0  0  0  0  0  2  0  0  0  0  0  0
  187.5030  176.4300  146.2250 C   0  0  0  0  0  2  0  0  0  0  0  0
  186.5910  177.5280  146.7550 C   0  0  0  0  0  2  0  0  0  0  0  0
  184.3370  178.4510  146.3220 C   0  0  0  0  0  1  0  0  0  0  0  0
  185.1360  177.1800  146.5090 C   0  0  0  0  0  2  0  0  0  0  0  0
  190.0510  175.2670  145.9370 N   0  0  0  0  0  2  0  0  0  0  0  0
  191.2560  174.4990  145.6140 C   0  0  2  0  0  3  0  0  0  0  0  0
  192.4790  175.4000  145.4820 C   0  0  0  0  0  2  0  0  0  0  0  0
  194.1770  173.8500  144.5030 C   0  0  0  0  0  3  0  0  0  0  0  0
  193.4380  172.9310  143.8780 C   0  0  0  0  0  3  0  0  0  0  0  0
  193.7430  174.5960  145.7270 C   0  0  1  0  0  3  0  0  0  0  0  0
  191.0460  173.6340  144.3770 C   0  0  0  0  0  2  0  0  0  0  0  0
  192.0870  172.6230  144.2360 N   0  0  0  0  0  2  0  0  0  0  0  0
  194.8060  175.4930  146.1450 N   0  0  0  0  0  2  0  0  0  0  0  0
  195.0370  177.8200  145.7600 N   0  0  0  0  0  1  0  0  0  0  0  0
  194.2030  176.7970  146.3610 C   0  0  0  0  0  2  0  0  0  0  0  0
  187.8250  177.6120  143.8670 C   0  0  0  0  0  2  0  0  0  0  0  0
  186.7750  176.7830  143.1130 C   0  0  2  0  0  3  0  0  0  0  0  0
  187.8680  174.9470  142.0570 O   0  0  0  0  0  1  0  0  0  0  0  0
  187.3110  176.6740  140.6620 O   0  0  0  0  0  0  0  0  0  0  0  0
  187.3380  176.0790  141.9180 C   0  0  0  0  0  0  0  0  0  0  0  0
  185.5370  177.5570  142.7780 C   0  0  0  0  0  3  0  0  0  0  0  0
  185.5130  178.8320  142.9050 N   0  0  0  0  0  2  0  0  0  0  0  0
  1 19  1  6  0  0  0
  1  3  1  0  0  0  0
  1  4  1  0  0  0  0
  2  1  1  0  0  0  0
  2  3  1  0  0  0  0
  2  8  1  1  0  0  0
  4  5  1  0  0  0  0
  6  7  1  0  0  0  0
  7  5  1  0  0  0  0
  9  8  1  6  0  0  0
 10  9  1  0  0  0  0
 10 13  1  0  0  0  0
 11 13  1  0  0  0  0
 12 15  1  0  0  0  0
 12 11  2  0  0  0  0
 13 16  1  6  0  0  0
 14  9  1  0  0  0  0
 15 14  1  0  0  0  0
 16 18  1  0  0  0  0
 17 18  1  0  0  0  0
 20 24  1  6  0  0  0
 20 19  1  0  0  0  0
 22 23  2  0  0  0  0
 23 21  1  0  0  0  0
 23 20  1  0  0  0  0
 24 25  2  0  0  0  0
M  END
>  <MODEL>
6

>  <REMARK>
 VINA RESULT:      -5.3      1.917      2.191
  Name = 
  11 active torsions:
  status: ('A' for Active; 'I' for Inactive)
    1  A    between atoms: C_2  and  C_4
    2  A    between atoms: C_2  and  C_24
    3  A    between atoms: C_4  and  C_19
    4  A    between atoms: C_6  and  C_10
    5  A    between atoms: C_7  and  N_14
    6  A    between atoms: C_8  and  N_14
    7  A    between atoms: C_9  and  C_10
    8  A    between atoms: C_10  and  C_19
    9  A    between atoms: N_13  and  C_17
   10  A    between atoms: N_13  and  C_25
   11  A    between atoms: C_18  and  C_24
                            x       y       z     vdW  Elec       q    Type
                         _______ _______ _______ _____ _____    ______ ____

>  <TORSDO>
F 11

$$$$
=
 OpenBabel11042413503D

 25 26  0  0  1  0  0  0  0  0999 V2000
  188.9500  176.9850  144.5170 C   0  0  2  0  0  0  0  0  0  0  0  0
  190.0010  176.4180  143.5660 C   0  0  1  0  0  3  0  0  0  0  0  0
  189.7930  177.9210  143.6780 C   0  0  0  0  0  2  0  0  0  0  0  0
  189.2630  177.0650  146.0150 C   0  0  0  0  0  2  0  0  0  0  0  0
  188.3900  176.1270  146.8370 C   0  0  0  0  0  2  0  0  0  0  0  0
  190.5810  175.3060  147.6390 C   0  0  0  0  0  1  0  0  0  0  0  0
  189.1740  174.9000  147.2610 C   0  0  0  0  0  2  0  0  0  0  0  0
  191.2270  176.0470  144.2730 N   0  0  0  0  0  2  0  0  0  0  0  0
  191.6390  174.6830  143.9320 C   0  0  2  0  0  3  0  0  0  0  0  0
  190.4660  173.7100  143.9920 C   0  0  0  0  0  2  0  0  0  0  0  0
  191.6070  171.4940  143.8160 C   0  0  0  0  0  3  0  0  0  0  0  0
  192.8360  171.7360  144.2780 C   0  0  0  0  0  3  0  0  0  0  0  0
  190.7500  172.5040  143.1170 C   0  0  1  0  0  3  0  0  0  0  0  0
  192.8080  174.2250  144.7970 C   0  0  0  0  0  2  0  0  0  0  0  0
  193.4480  173.0310  144.2590 N   0  0  0  0  0  2  0  0  0  0  0  0
  189.4930  171.8840  142.7340 N   0  0  0  0  0  2  0  0  0  0  0  0
  187.4500  172.8370  142.0020 N   0  0  0  0  0  1  0  0  0  0  0  0
  188.8750  172.7510  141.7460 C   0  0  0  0  0  2  0  0  0  0  0  0
  187.4990  176.9300  144.0330 C   0  0  0  0  0  2  0  0  0  0  0  0
  186.7400  178.2620  144.1160 C   0  0  2  0  0  3  0  0  0  0  0  0
  185.5170  179.4210  145.8010 O   0  0  0  0  0  1  0  0  0  0  0  0
  185.1940  177.1550  145.7550 O   0  0  0  0  0  0  0  0  0  0  0  0
  185.7770  178.3160  145.2600 C   0  0  0  0  0  0  0  0  0  0  0  0
  186.0980  178.6600  142.8230 C   0  0  0  0  0  3  0  0  0  0  0  0
  184.8730  178.3650  142.5870 N   0  0  0  0  0  2  0  0  0  0  0  0
  1 19  1  6  0  0  0
  1  4  1  0  0  0  0
  2  3  1  0  0  0  0
  2  8  1  1  0  0  0
  2  1  1  0  0  0  0
  3  1  1  0  0  0  0
  4  5  1  0  0  0  0
  5  7  1  0  0  0  0
  7  6  1  0  0  0  0
  9 10  1  0  0  0  0
  9  8  1  1  0  0  0
  9 14  1  0  0  0  0
 11 12  2  0  0  0  0
 13 16  1  1  0  0  0
 13 11  1  0  0  0  0
 13 10  1  0  0  0  0
 15 12  1  0  0  0  0
 15 14  1  0  0  0  0
 18 17  1  0  0  0  0
 18 16  1  0  0  0  0
 19 20  1  0  0  0  0
 20 24  1  6  0  0  0
 20 23  1  0  0  0  0
 23 22  2  0  0  0  0
 23 21  1  0  0  0  0
 25 24  2  0  0  0  0
M  END
>  <MODEL>
7

>  <REMARK>
 VINA RESULT:      -5.3      2.143      3.919
  Name = 
  11 active torsions:
  status: ('A' for Active; 'I' for Inactive)
    1  A    between atoms: C_2  and  C_4
    2  A    between atoms: C_2  and  C_24
    3  A    between atoms: C_4  and  C_19
    4  A    between atoms: C_6  and  C_10
    5  A    between atoms: C_7  and  N_14
    6  A    between atoms: C_8  and  N_14
    7  A    between atoms: C_9  and  C_10
    8  A    between atoms: C_10  and  C_19
    9  A    between atoms: N_13  and  C_17
   10  A    between atoms: N_13  and  C_25
   11  A    between atoms: C_18  and  C_24
                            x       y       z     vdW  Elec       q    Type
                         _______ _______ _______ _____ _____    ______ ____

>  <TORSDO>
F 11

$$$$
=
 OpenBabel11042413503D

 25 26  0  0  1  0  0  0  0  0999 V2000
  190.3060  175.4360  144.8210 C   0  0  2  0  0  0  0  0  0  0  0  0
  188.8260  175.8020  144.7400 C   0  0  1  0  0  3  0  0  0  0  0  0
  189.3410  174.9200  145.8670 C   0  0  0  0  0  2  0  0  0  0  0  0
  191.3000  176.4650  145.3700 C   0  0  0  0  0  2  0  0  0  0  0  0
  191.9650  175.9940  146.6560 C   0  0  0  0  0  2  0  0  0  0  0  0
  193.8720  176.7870  145.2940 C   0  0  0  0  0  1  0  0  0  0  0  0
  193.4730  175.9640  146.4990 C   0  0  0  0  0  2  0  0  0  0  0  0
  188.5700  177.1460  145.2590 N   0  0  0  0  0  2  0  0  0  0  0  0
  187.1510  177.3270  145.5750 C   0  0  2  0  0  3  0  0  0  0  0  0
  186.4580  178.2250  144.5560 C   0  0  0  0  0  2  0  0  0  0  0  0
  184.2540  178.6620  145.6480 C   0  0  0  0  0  3  0  0  0  0  0  0
  184.5090  178.4980  146.9470 C   0  0  0  0  0  3  0  0  0  0  0  0
  184.9680  177.9420  144.5460 C   0  0  1  0  0  3  0  0  0  0  0  0
  186.9610  177.8260  147.0020 C   0  0  0  0  0  2  0  0  0  0  0  0
  185.5800  177.6900  147.4480 N   0  0  0  0  0  2  0  0  0  0  0  0
  184.4120  178.3490  143.2670 N   0  0  0  0  0  2  0  0  0  0  0  0
  185.1990  178.2900  141.0320 N   0  0  0  0  0  1  0  0  0  0  0  0
  185.5330  178.6570  142.3950 C   0  0  0  0  0  2  0  0  0  0  0  0
  190.7820  174.3270  143.8810 C   0  0  0  0  0  2  0  0  0  0  0  0
  190.7830  172.9180  144.4920 C   0  0  2  0  0  3  0  0  0  0  0  0
  193.1130  172.8700  144.9910 O   0  0  0  0  0  1  0  0  0  0  0  0
  192.3260  171.0420  143.8580 O   0  0  0  0  0  0  0  0  0  0  0  0
  192.1340  172.2740  144.4720 C   0  0  0  0  0  0  0  0  0  0  0  0
  189.7260  172.0240  143.9220 C   0  0  0  0  0  3  0  0  0  0  0  0
  189.0570  172.3830  142.8890 N   0  0  0  0  0  2  0  0  0  0  0  0
  1 19  1  6  0  0  0
  1  4  1  0  0  0  0
  1  3  1  0  0  0  0
  2  1  1  0  0  0  0
  2  8  1  1  0  0  0
  2  3  1  0  0  0  0
  4  5  1  0  0  0  0
  6  7  1  0  0  0  0
  7  5  1  0  0  0  0
  9  8  1  6  0  0  0
  9 14  1  0  0  0  0
 10  9  1  0  0  0  0
 11 12  2  0  0  0  0
 12 15  1  0  0  0  0
 13 16  1  6  0  0  0
 13 10  1  0  0  0  0
 13 11  1  0  0  0  0
 14 15  1  0  0  0  0
 17 18  1  0  0  0  0
 18 16  1  0  0  0  0
 20 19  1  6  0  0  0
 22 23  2  0  0  0  0
 23 20  1  0  0  0  0
 23 21  1  0  0  0  0
 24 20  1  0  0  0  0
 25 24  2  0  0  0  0
M  END
>  <MODEL>
8

>  <REMARK>
 VINA RESULT:      -5.3      3.725      7.713
  Name = 
  11 active torsions:
  status: ('A' for Active; 'I' for Inactive)
    1  A    between atoms: C_2  and  C_4
    2  A    between atoms: C_2  and  C_24
    3  A    between atoms: C_4  and  C_19
    4  A    between atoms: C_6  and  C_10
    5  A    between atoms: C_7  and  N_14
    6  A    between atoms: C_8  and  N_14
    7  A    between atoms: C_9  and  C_10
    8  A    between atoms: C_10  and  C_19
    9  A    between atoms: N_13  and  C_17
   10  A    between atoms: N_13  and  C_25
   11  A    between atoms: C_18  and  C_24
                            x       y       z     vdW  Elec       q    Type
                         _______ _______ _______ _____ _____    ______ ____

>  <TORSDO>
F 11

$$$$
=
 OpenBabel11042413503D

 25 26  0  0  1  0  0  0  0  0999 V2000
  187.4820  177.4360  143.7760 C   0  0  2  0  0  0  0  0  0  0  0  0
  188.7270  176.7360  143.2370 C   0  0  1  0  0  3  0  0  0  0  0  0
  188.8570  177.9170  144.1870 C   0  0  0  0  0  2  0  0  0  0  0  0
  186.6990  176.7880  144.9240 C   0  0  0  0  0  2  0  0  0  0  0  0
  186.9960  177.4430  146.2650 C   0  0  0  0  0  2  0  0  0  0  0  0
  184.5470  177.3550  146.5990 C   0  0  0  0  0  1  0  0  0  0  0  0
  185.8910  177.1490  147.2610 C   0  0  0  0  0  2  0  0  0  0  0  0
  189.0110  175.4990  143.9640 N   0  0  0  0  0  2  0  0  0  0  0  0
  190.0060  175.7240  145.0160 C   0  0  2  0  0  3  0  0  0  0  0  0
  191.4130  175.3690  144.5440 C   0  0  0  0  0  2  0  0  0  0  0  0
  192.7170  175.4330  146.6740 C   0  0  0  0  0  3  0  0  0  0  0  0
  191.7980  175.1940  147.6120 C   0  0  0  0  0  3  0  0  0  0  0  0
  192.4400  176.1180  145.3720 C   0  0  1  0  0  3  0  0  0  0  0  0
  189.6300  174.9920  146.2990 C   0  0  0  0  0  2  0  0  0  0  0  0
  190.4030  175.4650  147.4410 N   0  0  0  0  0  2  0  0  0  0  0  0
  193.6750  176.2290  144.6150 N   0  0  0  0  0  2  0  0  0  0  0  0
  194.9390  177.8570  145.7860 N   0  0  0  0  0  1  0  0  0  0  0  0
  194.7450  176.4350  145.5760 C   0  0  0  0  0  2  0  0  0  0  0  0
  186.7900  178.4160  142.8270 C   0  0  0  0  0  2  0  0  0  0  0  0
  185.3440  178.0530  142.4630 C   0  0  2  0  0  3  0  0  0  0  0  0
  183.9780  178.6170  140.5930 O   0  0  0  0  0  1  0  0  0  0  0  0
  185.9960  177.6700  140.0690 O   0  0  0  0  0  0  0  0  0  0  0  0
  185.0710  178.1400  140.9950 C   0  0  0  0  0  0  0  0  0  0  0  0
  184.3240  178.7970  143.2690 C   0  0  0  0  0  3  0  0  0  0  0  0
  184.6850  179.7260  144.0760 N   0  0  0  0  0  2  0  0  0  0  0  0
  1 19  1  6  0  0  0
  1  3  1  0  0  0  0
  1  4  1  0  0  0  0
  2  1  1  0  0  0  0
  2  8  1  1  0  0  0
  2  3  1  0  0  0  0
  4  5  1  0  0  0  0
  5  7  1  0  0  0  0
  6  7  1  0  0  0  0
  9  8  1  6  0  0  0
  9 14  1  0  0  0  0
 10  9  1  0  0  0  0
 10 13  1  0  0  0  0
 11 12  2  0  0  0  0
 13 16  1  6  0  0  0
 13 11  1  0  0  0  0
 14 15  1  0  0  0  0
 15 12  1  0  0  0  0
 16 18  1  0  0  0  0
 18 17  1  0  0  0  0
 20 19  1  6  0  0  0
 20 24  1  0  0  0  0
 21 23  1  0  0  0  0
 22 23  2  0  0  0  0
 23 20  1  0  0  0  0
 24 25  2  0  0  0  0
M  END
>  <MODEL>
9

>  <REMARK>
 VINA RESULT:      -5.3      1.948      2.464
  Name = 
  11 active torsions:
  status: ('A' for Active; 'I' for Inactive)
    1  A    between atoms: C_2  and  C_4
    2  A    between atoms: C_2  and  C_24
    3  A    between atoms: C_4  and  C_19
    4  A    between atoms: C_6  and  C_10
    5  A    between atoms: C_7  and  N_14
    6  A    between atoms: C_8  and  N_14
    7  A    between atoms: C_9  and  C_10
    8  A    between atoms: C_10  and  C_19
    9  A    between atoms: N_13  and  C_17
   10  A    between atoms: N_13  and  C_25
   11  A    between atoms: C_18  and  C_24
                            x       y       z     vdW  Elec       q    Type
                         _______ _______ _______ _____ _____    ______ ____

>  <TORSDO>
F 11

$$$$
