=
 OpenBabel11042418533D

 26 29  0  0  0  0  0  0  0  0999 V2000
  186.7070  178.0110  143.0150 C   0  0  0  0  0  0  0  0  0  0  0  0
  182.7080  178.4080  141.2000 C   0  0  0  0  0  0  0  0  0  0  0  0
  183.1390  178.6620  142.4640 N   0  0  0  0  0  0  0  0  0  0  0  0
  187.8160  177.9810  143.7690 N   0  0  0  0  0  0  0  0  0  0  0  0
  188.7590  177.5300  142.8980 C   0  0  0  0  0  0  0  0  0  0  0  0
  184.4430  178.3420  142.3840 C   0  0  0  0  0  0  0  0  0  0  0  0
  186.9980  177.5900  141.7370 C   0  0  0  0  0  0  0  0  0  0  0  0
  184.7440  177.9190  141.1100 C   0  0  0  0  0  0  0  0  0  0  0  0
  188.2980  177.2780  141.6430 N   0  0  0  0  0  2  0  0  0  0  0  0
  183.6570  177.9670  140.3900 O   0  0  0  0  0  0  0  0  0  0  0  0
  185.4120  178.4020  143.3990 C   0  0  0  0  0  0  0  0  0  0  0  0
  181.2990  178.6100  140.7700 C   0  0  0  0  0  1  0  0  0  0  0  0
  186.0320  177.5230  140.7230 C   0  0  0  0  0  3  0  0  0  0  0  0
  190.1610  177.3300  143.2770 C   0  0  0  0  0  0  0  0  0  0  0  0
  192.1490  177.5510  144.2480 N   0  0  0  0  0  0  0  0  0  0  0  0
  191.0700  176.2820  142.7370 C   0  0  0  0  0  3  0  0  0  0  0  0
  190.8250  178.0550  144.1600 C   0  0  0  0  0  2  0  0  0  0  0  0
  192.2990  176.5660  143.4610 N   0  0  0  0  0  0  0  0  0  0  0  0
  185.0990  178.8860  144.7760 C   0  0  0  0  0  2  0  0  0  0  0  0
  184.7820  177.7080  145.6810 C   0  0  0  0  0  2  0  0  0  0  0  0
  185.7790  177.6420  146.8220 C   0  0  0  0  0  2  0  0  0  0  0  0
  188.0430  176.5340  146.8000 C   0  0  0  0  0  0  0  0  0  0  0  0
  188.6150  177.6310  147.0390 O   0  0  0  0  0  0  0  0  0  0  0  0
  186.6220  176.4660  146.6790 N   0  0  0  0  0  2  0  0  0  0  0  0
  189.4580  174.3810  146.5240 N   0  0  0  0  0  0  0  0  0  0  0  0
  188.8260  175.3420  146.6480 C   0  0  0  0  0  0  0  0  0  0  0  0
  1 11  1  0  0  0  0
  1  4  1  0  0  0  0
  2  3  2  0  0  0  0
  5 14  1  0  0  0  0
  5  4  2  0  0  0  0
  6  3  1  0  0  0  0
  6 11  2  0  0  0  0
  7  1  2  0  0  0  0
  8  6  1  0  0  0  0
  9  7  1  0  0  0  0
  9  5  1  0  0  0  0
 10  8  1  0  0  0  0
 10  2  1  0  0  0  0
 11 19  1  0  0  0  0
 12  2  1  0  0  0  0
 13  8  2  0  0  0  0
 13  7  1  0  0  0  0
 14 17  1  0  0  0  0
 16 14  2  0  0  0  0
 16 18  1  0  0  0  0
 17 15  1  0  0  0  0
 18 15  2  0  0  0  0
 19 20  1  0  0  0  0
 20 21  1  0  0  0  0
 22 23  2  0  0  0  0
 24 22  1  0  0  0  0
 24 21  1  0  0  0  0
 25 26  3  0  0  0  0
 26 22  1  0  0  0  0
M  END
>  <MODEL>
1

>  <REMARK>
 VINA RESULT:      -6.8      0.000      0.000
  Name = 
  6 active torsions:
  status: ('A' for Active; 'I' for Inactive)
    1  A    between atoms: C_3  and  C_10
    2  A    between atoms: C_5  and  C_17
    3  A    between atoms: C_5  and  C_18
    4  A    between atoms: C_6  and  C_25
    5  A    between atoms: C_17  and  N_26
    6  A    between atoms: C_18  and  C_21
                            x       y       z     vdW  Elec       q    Type
                         _______ _______ _______ _____ _____    ______ ____

>  <TORSDO>
F 6

$$$$
=
 OpenBabel11042418533D

 26 29  0  0  0  0  0  0  0  0999 V2000
  189.3790  177.2000  145.2340 C   0  0  0  0  0  0  0  0  0  0  0  0
  193.5310  175.9570  146.0440 C   0  0  0  0  0  0  0  0  0  0  0  0
  192.8910  176.2080  144.8710 N   0  0  0  0  0  0  0  0  0  0  0  0
  188.1870  177.5820  144.7530 N   0  0  0  0  0  0  0  0  0  0  0  0
  187.4420  177.7340  145.8810 C   0  0  0  0  0  0  0  0  0  0  0  0
  191.6570  176.5360  145.2900 C   0  0  0  0  0  0  0  0  0  0  0  0
  189.3290  177.1340  146.6090 C   0  0  0  0  0  0  0  0  0  0  0  0
  191.5970  176.4730  146.6640 C   0  0  0  0  0  0  0  0  0  0  0  0
  188.1050  177.4690  147.0390 N   0  0  0  0  0  2  0  0  0  0  0  0
  192.7670  176.1120  147.1140 O   0  0  0  0  0  0  0  0  0  0  0  0
  190.5460  176.8990  144.5120 C   0  0  0  0  0  0  0  0  0  0  0  0
  194.9570  175.5440  146.1150 C   0  0  0  0  0  1  0  0  0  0  0  0
  190.4350  176.7670  147.3900 C   0  0  0  0  0  3  0  0  0  0  0  0
  186.0370  178.1510  145.8560 C   0  0  0  0  0  0  0  0  0  0  0  0
  183.9220  178.5220  146.4370 N   0  0  0  0  0  0  0  0  0  0  0  0
  185.3450  178.8210  144.7210 C   0  0  0  0  0  3  0  0  0  0  0  0
  185.1740  177.9920  146.8450 C   0  0  0  0  0  2  0  0  0  0  0  0
  184.0030  178.9860  145.2580 N   0  0  0  0  0  0  0  0  0  0  0  0
  190.6110  176.9960  143.0230 C   0  0  0  0  0  2  0  0  0  0  0  0
  190.5560  175.6080  142.4090 C   0  0  0  0  0  2  0  0  0  0  0  0
  189.1150  175.1560  142.2670 C   0  0  0  0  0  2  0  0  0  0  0  0
  186.9760  176.4170  141.8340 C   0  0  0  0  0  0  0  0  0  0  0  0
  186.3810  175.7790  142.7430 O   0  0  0  0  0  0  0  0  0  0  0  0
  188.3490  176.1570  141.5420 N   0  0  0  0  0  2  0  0  0  0  0  0
  185.6970  178.2200  140.4820 N   0  0  0  0  0  0  0  0  0  0  0  0
  186.2680  177.4150  141.0860 C   0  0  0  0  0  0  0  0  0  0  0  0
  1  7  1  0  0  0  0
  2 12  1  0  0  0  0
  2 10  1  0  0  0  0
  3  6  1  0  0  0  0
  3  2  2  0  0  0  0
  4  1  1  0  0  0  0
  4  5  2  0  0  0  0
  5  9  1  0  0  0  0
  6  8  2  0  0  0  0
  7  9  1  0  0  0  0
  7 13  2  0  0  0  0
  8 10  1  0  0  0  0
  8 13  1  0  0  0  0
 11  1  2  0  0  0  0
 11  6  1  0  0  0  0
 14  5  1  0  0  0  0
 14 17  1  0  0  0  0
 15 17  1  0  0  0  0
 16 18  1  0  0  0  0
 16 14  2  0  0  0  0
 18 15  2  0  0  0  0
 19 11  1  0  0  0  0
 20 19  1  0  0  0  0
 21 20  1  0  0  0  0
 22 23  2  0  0  0  0
 24 22  1  0  0  0  0
 24 21  1  0  0  0  0
 25 26  3  0  0  0  0
 26 22  1  0  0  0  0
M  END
>  <MODEL>
2

>  <REMARK>
 VINA RESULT:      -6.7      2.448      7.600
  Name = 
  6 active torsions:
  status: ('A' for Active; 'I' for Inactive)
    1  A    between atoms: C_3  and  C_10
    2  A    between atoms: C_5  and  C_17
    3  A    between atoms: C_5  and  C_18
    4  A    between atoms: C_6  and  C_25
    5  A    between atoms: C_17  and  N_26
    6  A    between atoms: C_18  and  C_21
                            x       y       z     vdW  Elec       q    Type
                         _______ _______ _______ _____ _____    ______ ____

>  <TORSDO>
F 6

$$$$
=
 OpenBabel11042418533D

 26 29  0  0  0  0  0  0  0  0999 V2000
  190.3120  176.3620  145.5160 C   0  0  0  0  0  0  0  0  0  0  0  0
  186.0760  177.2960  146.3090 C   0  0  0  0  0  0  0  0  0  0  0  0
  186.9270  177.7640  145.3560 N   0  0  0  0  0  0  0  0  0  0  0  0
  191.5760  176.2320  145.0860 N   0  0  0  0  0  0  0  0  0  0  0  0
  192.0950  175.3190  145.9500 C   0  0  0  0  0  0  0  0  0  0  0  0
  188.0620  177.1050  145.6470 C   0  0  0  0  0  0  0  0  0  0  0  0
  190.1020  175.5440  146.6040 C   0  0  0  0  0  0  0  0  0  0  0  0
  187.8620  176.2830  146.7320 C   0  0  0  0  0  0  0  0  0  0  0  0
  191.2250  174.8730  146.8960 N   0  0  0  0  0  2  0  0  0  0  0  0
  186.6260  176.4160  147.1300 O   0  0  0  0  0  0  0  0  0  0  0  0
  189.3010  177.1840  144.9910 C   0  0  0  0  0  0  0  0  0  0  0  0
  184.6600  177.7360  146.4140 C   0  0  0  0  0  1  0  0  0  0  0  0
  188.8670  175.4650  147.2650 C   0  0  0  0  0  3  0  0  0  0  0  0
  193.4820  174.8490  145.8730 C   0  0  0  0  0  0  0  0  0  0  0  0
  195.2770  173.5750  145.5560 N   0  0  0  0  0  0  0  0  0  0  0  0
  194.6930  175.6490  146.2010 C   0  0  0  0  0  2  0  0  0  0  0  0
  193.8600  173.6400  145.4980 C   0  0  0  0  0  3  0  0  0  0  0  0
  195.7530  174.6860  145.9460 N   0  0  0  0  0  0  0  0  0  0  0  0
  189.5180  178.0510  143.7950 C   0  0  0  0  0  2  0  0  0  0  0  0
  189.1670  177.2880  142.5300 C   0  0  0  0  0  2  0  0  0  0  0  0
  188.3660  178.1700  141.5910 C   0  0  0  0  0  2  0  0  0  0  0  0
  185.8800  178.0060  141.2080 C   0  0  0  0  0  0  0  0  0  0  0  0
  186.0580  177.6600  140.0100 O   0  0  0  0  0  0  0  0  0  0  0  0
  186.9940  178.2770  142.0600 N   0  0  0  0  0  2  0  0  0  0  0  0
  183.4710  178.2290  142.1380 N   0  0  0  0  0  0  0  0  0  0  0  0
  184.5470  178.1290  141.7230 C   0  0  0  0  0  0  0  0  0  0  0  0
  1  7  1  0  0  0  0
  2 12  1  0  0  0  0
  2 10  1  0  0  0  0
  3  6  1  0  0  0  0
  3  2  2  0  0  0  0
  4  1  1  0  0  0  0
  4  5  2  0  0  0  0
  5  9  1  0  0  0  0
  6  8  2  0  0  0  0
  7  9  1  0  0  0  0
  7 13  2  0  0  0  0
  8 10  1  0  0  0  0
  8 13  1  0  0  0  0
 11  1  2  0  0  0  0
 11  6  1  0  0  0  0
 14  5  1  0  0  0  0
 14 16  1  0  0  0  0
 15 18  2  0  0  0  0
 17 15  1  0  0  0  0
 17 14  2  0  0  0  0
 18 16  1  0  0  0  0
 19 11  1  0  0  0  0
 20 19  1  0  0  0  0
 21 24  1  0  0  0  0
 21 20  1  0  0  0  0
 22 26  1  0  0  0  0
 22 24  1  0  0  0  0
 23 22  2  0  0  0  0
 26 25  3  0  0  0  0
M  END
>  <MODEL>
3

>  <REMARK>
 VINA RESULT:      -6.7      2.498      5.899
  Name = 
  6 active torsions:
  status: ('A' for Active; 'I' for Inactive)
    1  A    between atoms: C_3  and  C_10
    2  A    between atoms: C_5  and  C_17
    3  A    between atoms: C_5  and  C_18
    4  A    between atoms: C_6  and  C_25
    5  A    between atoms: C_17  and  N_26
    6  A    between atoms: C_18  and  C_21
                            x       y       z     vdW  Elec       q    Type
                         _______ _______ _______ _____ _____    ______ ____

>  <TORSDO>
F 6

$$$$
=
 OpenBabel11042418533D

 26 29  0  0  0  0  0  0  0  0999 V2000
  189.0540  177.3300  144.0820 C   0  0  0  0  0  0  0  0  0  0  0  0
  193.0500  176.4800  145.7390 C   0  0  0  0  0  0  0  0  0  0  0  0
  191.8630  176.7150  146.3580 N   0  0  0  0  0  0  0  0  0  0  0  0
  187.7660  177.5900  143.8120 N   0  0  0  0  0  0  0  0  0  0  0  0
  187.7430  177.6140  142.4520 C   0  0  0  0  0  0  0  0  0  0  0  0
  191.0370  176.9060  145.3150 C   0  0  0  0  0  0  0  0  0  0  0  0
  189.7620  177.2050  142.9070 C   0  0  0  0  0  0  0  0  0  0  0  0
  191.7350  176.7830  144.1360 C   0  0  0  0  0  0  0  0  0  0  0  0
  188.9450  177.3840  141.8600 N   0  0  0  0  0  2  0  0  0  0  0  0
  192.9810  176.5190  144.4180 O   0  0  0  0  0  0  0  0  0  0  0  0
  189.6620  177.1910  145.3410 C   0  0  0  0  0  0  0  0  0  0  0  0
  194.3090  176.2060  146.4810 C   0  0  0  0  0  1  0  0  0  0  0  0
  191.1360  176.9260  142.8770 C   0  0  0  0  0  3  0  0  0  0  0  0
  186.5210  177.8690  141.6820 C   0  0  0  0  0  0  0  0  0  0  0  0
  185.0420  177.9820  140.0250 N   0  0  0  0  0  0  0  0  0  0  0  0
  185.2720  178.4840  142.2060 C   0  0  0  0  0  2  0  0  0  0  0  0
  186.3520  177.5860  140.4020 C   0  0  0  0  0  3  0  0  0  0  0  0
  184.4300  178.4830  141.0190 N   0  0  0  0  0  0  0  0  0  0  0  0
  188.8920  177.2990  146.6160 C   0  0  0  0  0  2  0  0  0  0  0  0
  188.0310  176.0620  146.8090 C   0  0  0  0  0  2  0  0  0  0  0  0
  186.7810  176.4120  147.5930 C   0  0  0  0  0  2  0  0  0  0  0  0
  185.3170  178.2890  146.7640 C   0  0  0  0  0  0  0  0  0  0  0  0
  185.8020  179.0820  147.6140 O   0  0  0  0  0  0  0  0  0  0  0  0
  185.7620  176.9340  146.6960 N   0  0  0  0  0  2  0  0  0  0  0  0
  183.4920  179.1230  145.1230 N   0  0  0  0  0  0  0  0  0  0  0  0
  184.3070  178.7500  145.8550 C   0  0  0  0  0  0  0  0  0  0  0  0
  1 11  1  0  0  0  0
  2  3  2  0  0  0  0
  2 12  1  0  0  0  0
  4  1  1  0  0  0  0
  5  4  2  0  0  0  0
  6 11  2  0  0  0  0
  6  3  1  0  0  0  0
  7  1  2  0  0  0  0
  8 10  1  0  0  0  0
  8  6  1  0  0  0  0
  9  5  1  0  0  0  0
  9  7  1  0  0  0  0
 10  2  1  0  0  0  0
 11 19  1  0  0  0  0
 13  7  1  0  0  0  0
 13  8  2  0  0  0  0
 14 16  1  0  0  0  0
 14  5  1  0  0  0  0
 15 17  1  0  0  0  0
 15 18  2  0  0  0  0
 17 14  2  0  0  0  0
 18 16  1  0  0  0  0
 19 20  1  0  0  0  0
 20 21  1  0  0  0  0
 22 23  2  0  0  0  0
 24 22  1  0  0  0  0
 24 21  1  0  0  0  0
 25 26  3  0  0  0  0
 26 22  1  0  0  0  0
M  END
>  <MODEL>
4

>  <REMARK>
 VINA RESULT:      -6.6      2.319      6.525
  Name = 
  6 active torsions:
  status: ('A' for Active; 'I' for Inactive)
    1  A    between atoms: C_3  and  C_10
    2  A    between atoms: C_5  and  C_17
    3  A    between atoms: C_5  and  C_18
    4  A    between atoms: C_6  and  C_25
    5  A    between atoms: C_17  and  N_26
    6  A    between atoms: C_18  and  C_21
                            x       y       z     vdW  Elec       q    Type
                         _______ _______ _______ _____ _____    ______ ____

>  <TORSDO>
F 6

$$$$
=
 OpenBabel11042418533D

 26 29  0  0  0  0  0  0  0  0999 V2000
  189.6050  177.3620  144.4140 C   0  0  0  0  0  0  0  0  0  0  0  0
  185.5710  178.0360  146.0600 C   0  0  0  0  0  0  0  0  0  0  0  0
  186.0310  178.0970  144.7820 N   0  0  0  0  0  0  0  0  0  0  0  0
  190.7270  177.1970  143.6970 N   0  0  0  0  0  0  0  0  0  0  0  0
  191.6460  176.8730  144.6450 C   0  0  0  0  0  0  0  0  0  0  0  0
  187.3320  177.7970  144.9390 C   0  0  0  0  0  0  0  0  0  0  0  0
  189.8670  177.1370  145.7480 C   0  0  0  0  0  0  0  0  0  0  0  0
  187.6030  177.5700  146.2690 C   0  0  0  0  0  0  0  0  0  0  0  0
  191.1590  176.8260  145.9150 N   0  0  0  0  0  2  0  0  0  0  0  0
  186.5000  177.7230  146.9490 O   0  0  0  0  0  0  0  0  0  0  0  0
  188.3250  177.7070  143.9500 C   0  0  0  0  0  0  0  0  0  0  0  0
  184.1530  178.2970  146.4220 C   0  0  0  0  0  1  0  0  0  0  0  0
  188.8790  177.2310  146.7400 C   0  0  0  0  0  3  0  0  0  0  0  0
  193.0510  176.5960  144.3300 C   0  0  0  0  0  0  0  0  0  0  0  0
  194.9050  175.9710  143.2730 N   0  0  0  0  0  0  0  0  0  0  0  0
  194.2110  176.8350  145.2310 C   0  0  0  0  0  2  0  0  0  0  0  0
  193.4930  176.0900  143.1920 C   0  0  0  0  0  3  0  0  0  0  0  0
  195.3170  176.3820  144.4020 N   0  0  0  0  0  0  0  0  0  0  0  0
  188.0320  177.9240  142.5020 C   0  0  0  0  0  2  0  0  0  0  0  0
  187.2310  176.7560  141.9530 C   0  0  0  0  0  2  0  0  0  0  0  0
  188.1650  175.6790  141.4320 C   0  0  0  0  0  2  0  0  0  0  0  0
  189.5270  173.9530  142.6640 C   0  0  0  0  0  0  0  0  0  0  0  0
  190.5700  174.2880  142.0400 O   0  0  0  0  0  0  0  0  0  0  0  0
  188.2850  174.6100  142.4100 N   0  0  0  0  0  2  0  0  0  0  0  0
  189.6370  172.0550  144.4250 N   0  0  0  0  0  0  0  0  0  0  0  0
  189.5880  172.9030  143.6390 C   0  0  0  0  0  0  0  0  0  0  0  0
  1  7  1  0  0  0  0
  2 12  1  0  0  0  0
  2 10  1  0  0  0  0
  3  6  1  0  0  0  0
  3  2  2  0  0  0  0
  4  1  1  0  0  0  0
  4  5  2  0  0  0  0
  5  9  1  0  0  0  0
  6  8  2  0  0  0  0
  7  9  1  0  0  0  0
  7 13  2  0  0  0  0
  8 13  1  0  0  0  0
  8 10  1  0  0  0  0
 11  1  2  0  0  0  0
 11  6  1  0  0  0  0
 14  5  1  0  0  0  0
 14 16  1  0  0  0  0
 15 18  2  0  0  0  0
 17 15  1  0  0  0  0
 17 14  2  0  0  0  0
 18 16  1  0  0  0  0
 19 11  1  0  0  0  0
 20 19  1  0  0  0  0
 21 20  1  0  0  0  0
 21 24  1  0  0  0  0
 22 26  1  0  0  0  0
 23 22  2  0  0  0  0
 24 22  1  0  0  0  0
 26 25  3  0  0  0  0
M  END
>  <MODEL>
5

>  <REMARK>
 VINA RESULT:      -6.4      2.882      4.696
  Name = 
  6 active torsions:
  status: ('A' for Active; 'I' for Inactive)
    1  A    between atoms: C_3  and  C_10
    2  A    between atoms: C_5  and  C_17
    3  A    between atoms: C_5  and  C_18
    4  A    between atoms: C_6  and  C_25
    5  A    between atoms: C_17  and  N_26
    6  A    between atoms: C_18  and  C_21
                            x       y       z     vdW  Elec       q    Type
                         _______ _______ _______ _____ _____    ______ ____

>  <TORSDO>
F 6

$$$$
=
 OpenBabel11042418533D

 26 29  0  0  0  0  0  0  0  0999 V2000
  189.3830  177.1040  145.1150 C   0  0  0  0  0  0  0  0  0  0  0  0
  193.5170  175.8800  146.0380 C   0  0  0  0  0  0  0  0  0  0  0  0
  192.8790  176.0290  144.8460 N   0  0  0  0  0  0  0  0  0  0  0  0
  188.1960  177.4570  144.6000 N   0  0  0  0  0  0  0  0  0  0  0  0
  187.4560  177.7270  145.7090 C   0  0  0  0  0  0  0  0  0  0  0  0
  191.6510  176.4130  145.2330 C   0  0  0  0  0  0  0  0  0  0  0  0
  189.3350  177.1700  146.4900 C   0  0  0  0  0  0  0  0  0  0  0  0
  191.5920  176.4830  146.6060 C   0  0  0  0  0  0  0  0  0  0  0  0
  188.1170  177.5630  146.8860 N   0  0  0  0  0  2  0  0  0  0  0  0
  192.7580  176.1480  147.0880 O   0  0  0  0  0  0  0  0  0  0  0  0
  190.5440  176.7180  144.4240 C   0  0  0  0  0  0  0  0  0  0  0  0
  194.9380  175.4540  146.1470 C   0  0  0  0  0  1  0  0  0  0  0  0
  190.4360  176.8620  147.3020 C   0  0  0  0  0  3  0  0  0  0  0  0
  186.0570  178.1610  145.6450 C   0  0  0  0  0  0  0  0  0  0  0  0
  184.0330  178.8910  146.2090 N   0  0  0  0  0  0  0  0  0  0  0  0
  185.2220  178.2350  144.4150 C   0  0  0  0  0  3  0  0  0  0  0  0
  185.3300  178.5530  146.6770 C   0  0  0  0  0  2  0  0  0  0  0  0
  183.9590  178.7180  144.9530 N   0  0  0  0  0  0  0  0  0  0  0  0
  190.6080  176.6720  142.9330 C   0  0  0  0  0  2  0  0  0  0  0  0
  190.5380  175.2330  142.4540 C   0  0  0  0  0  2  0  0  0  0  0  0
  189.0920  174.8010  142.3050 C   0  0  0  0  0  2  0  0  0  0  0  0
  188.7240  173.9980  139.9440 C   0  0  0  0  0  0  0  0  0  0  0  0
  189.1880  172.8610  140.2270 O   0  0  0  0  0  0  0  0  0  0  0  0
  188.6450  175.0190  140.9390 N   0  0  0  0  0  2  0  0  0  0  0  0
  187.9050  174.4880  137.5350 N   0  0  0  0  0  0  0  0  0  0  0  0
  188.2700  174.2690  138.6110 C   0  0  0  0  0  0  0  0  0  0  0  0
  1  7  1  0  0  0  0
  2 12  1  0  0  0  0
  2 10  1  0  0  0  0
  3  6  1  0  0  0  0
  3  2  2  0  0  0  0
  4  1  1  0  0  0  0
  4  5  2  0  0  0  0
  5  9  1  0  0  0  0
  6  8  2  0  0  0  0
  7  9  1  0  0  0  0
  7 13  2  0  0  0  0
  8 10  1  0  0  0  0
  8 13  1  0  0  0  0
 11  1  2  0  0  0  0
 11  6  1  0  0  0  0
 14  5  1  0  0  0  0
 14 17  1  0  0  0  0
 15 17  1  0  0  0  0
 16 18  1  0  0  0  0
 16 14  2  0  0  0  0
 18 15  2  0  0  0  0
 19 11  1  0  0  0  0
 20 19  1  0  0  0  0
 21 20  1  0  0  0  0
 22 23  2  0  0  0  0
 22 24  1  0  0  0  0
 24 21  1  0  0  0  0
 25 26  3  0  0  0  0
 26 22  1  0  0  0  0
M  END
>  <MODEL>
6

>  <REMARK>
 VINA RESULT:      -6.1      3.138      7.878
  Name = 
  6 active torsions:
  status: ('A' for Active; 'I' for Inactive)
    1  A    between atoms: C_3  and  C_10
    2  A    between atoms: C_5  and  C_17
    3  A    between atoms: C_5  and  C_18
    4  A    between atoms: C_6  and  C_25
    5  A    between atoms: C_17  and  N_26
    6  A    between atoms: C_18  and  C_21
                            x       y       z     vdW  Elec       q    Type
                         _______ _______ _______ _____ _____    ______ ____

>  <TORSDO>
F 6

$$$$
=
 OpenBabel11042418533D

 26 29  0  0  0  0  0  0  0  0999 V2000
  188.5610  175.7210  143.5370 C   0  0  0  0  0  0  0  0  0  0  0  0
  185.3680  177.9150  145.6420 C   0  0  0  0  0  0  0  0  0  0  0  0
  186.6390  177.6160  146.0210 N   0  0  0  0  0  0  0  0  0  0  0  0
  189.6680  175.1070  143.0940 N   0  0  0  0  0  0  0  0  0  0  0  0
  189.2950  174.6680  141.8610 C   0  0  0  0  0  0  0  0  0  0  0  0
  187.0960  176.9360  144.9540 C   0  0  0  0  0  0  0  0  0  0  0  0
  187.5690  175.6420  142.5840 C   0  0  0  0  0  0  0  0  0  0  0  0
  186.1120  176.8520  143.9960 C   0  0  0  0  0  0  0  0  0  0  0  0
  188.0170  174.9760  141.5120 N   0  0  0  0  0  2  0  0  0  0  0  0
  185.0480  177.4640  144.4400 O   0  0  0  0  0  0  0  0  0  0  0  0
  188.3670  176.3690  144.7690 C   0  0  0  0  0  0  0  0  0  0  0  0
  184.4270  178.6790  146.5040 C   0  0  0  0  0  1  0  0  0  0  0  0
  186.2970  176.2030  142.7680 C   0  0  0  0  0  3  0  0  0  0  0  0
  190.1960  173.9230  140.9760 C   0  0  0  0  0  0  0  0  0  0  0  0
  190.9780  172.6370  139.3390 N   0  0  0  0  0  0  0  0  0  0  0  0
  191.6780  173.8560  141.0960 C   0  0  0  0  0  2  0  0  0  0  0  0
  189.8200  173.1990  139.9360 C   0  0  0  0  0  3  0  0  0  0  0  0
  192.0180  172.9940  139.9740 N   0  0  0  0  0  0  0  0  0  0  0  0
  189.4480  176.4800  145.7920 C   0  0  0  0  0  2  0  0  0  0  0  0
  189.4060  175.2820  146.7250 C   0  0  0  0  0  2  0  0  0  0  0  0
  190.6120  175.2930  147.6450 C   0  0  0  0  0  2  0  0  0  0  0  0
  192.8470  175.7730  146.5840 C   0  0  0  0  0  0  0  0  0  0  0  0
  193.1080  174.5430  146.5080 O   0  0  0  0  0  0  0  0  0  0  0  0
  191.6120  176.2210  147.1440 N   0  0  0  0  0  2  0  0  0  0  0  0
  194.5680  177.5080  145.7200 N   0  0  0  0  0  0  0  0  0  0  0  0
  193.7990  176.7340  146.1060 C   0  0  0  0  0  0  0  0  0  0  0  0
  1 11  1  0  0  0  0
  2  3  2  0  0  0  0
  2 12  1  0  0  0  0
  4  1  1  0  0  0  0
  5  4  2  0  0  0  0
  6  3  1  0  0  0  0
  7 13  1  0  0  0  0
  7  1  2  0  0  0  0
  8 10  1  0  0  0  0
  8  6  1  0  0  0  0
  9  5  1  0  0  0  0
  9  7  1  0  0  0  0
 10  2  1  0  0  0  0
 11  6  2  0  0  0  0
 11 19  1  0  0  0  0
 13  8  2  0  0  0  0
 14 16  1  0  0  0  0
 14  5  1  0  0  0  0
 15 17  1  0  0  0  0
 15 18  2  0  0  0  0
 17 14  2  0  0  0  0
 18 16  1  0  0  0  0
 19 20  1  0  0  0  0
 20 21  1  0  0  0  0
 22 24  1  0  0  0  0
 23 22  2  0  0  0  0
 24 21  1  0  0  0  0
 25 26  3  0  0  0  0
 26 22  1  0  0  0  0
M  END
>  <MODEL>
7

>  <REMARK>
 VINA RESULT:      -5.9      3.074      4.690
  Name = 
  6 active torsions:
  status: ('A' for Active; 'I' for Inactive)
    1  A    between atoms: C_3  and  C_10
    2  A    between atoms: C_5  and  C_17
    3  A    between atoms: C_5  and  C_18
    4  A    between atoms: C_6  and  C_25
    5  A    between atoms: C_17  and  N_26
    6  A    between atoms: C_18  and  C_21
                            x       y       z     vdW  Elec       q    Type
                         _______ _______ _______ _____ _____    ______ ____

>  <TORSDO>
F 6

$$$$
=
 OpenBabel11042418533D

 26 29  0  0  0  0  0  0  0  0999 V2000
  188.8140  175.4700  143.4450 C   0  0  0  0  0  0  0  0  0  0  0  0
  192.3440  172.9240  144.1500 C   0  0  0  0  0  0  0  0  0  0  0  0
  191.5680  173.6280  145.0170 N   0  0  0  0  0  0  0  0  0  0  0  0
  187.7370  176.2690  143.4750 N   0  0  0  0  0  0  0  0  0  0  0  0
  187.3830  176.3460  142.1630 C   0  0  0  0  0  0  0  0  0  0  0  0
  190.6680  174.1910  144.1930 C   0  0  0  0  0  0  0  0  0  0  0  0
  189.0790  175.0910  142.1480 C   0  0  0  0  0  0  0  0  0  0  0  0
  190.9250  173.8180  142.8930 C   0  0  0  0  0  0  0  0  0  0  0  0
  188.1810  175.6380  141.3180 N   0  0  0  0  0  2  0  0  0  0  0  0
  191.9680  173.0330  142.8860 O   0  0  0  0  0  0  0  0  0  0  0  0
  189.6010  175.0400  144.5270 C   0  0  0  0  0  0  0  0  0  0  0  0
  193.5090  172.1090  144.5860 C   0  0  0  0  0  1  0  0  0  0  0  0
  190.1470  174.2470  141.8090 C   0  0  0  0  0  3  0  0  0  0  0  0
  186.2360  177.1270  141.6930 C   0  0  0  0  0  0  0  0  0  0  0  0
  184.8340  178.2740  140.4020 N   0  0  0  0  0  0  0  0  0  0  0  0
  185.0800  177.5660  142.5230 C   0  0  0  0  0  2  0  0  0  0  0  0
  186.0590  177.5580  140.4560 C   0  0  0  0  0  3  0  0  0  0  0  0
  184.2800  178.2860  141.5440 N   0  0  0  0  0  0  0  0  0  0  0  0
  189.2990  175.4270  145.9370 C   0  0  0  0  0  2  0  0  0  0  0  0
  189.7430  176.8580  146.1900 C   0  0  0  0  0  2  0  0  0  0  0  0
  188.7950  177.5360  147.1600 C   0  0  0  0  0  2  0  0  0  0  0  0
  186.3970  178.3090  147.2330 C   0  0  0  0  0  0  0  0  0  0  0  0
  186.5730  178.8460  148.3580 O   0  0  0  0  0  0  0  0  0  0  0  0
  187.4680  177.6350  146.5730 N   0  0  0  0  0  2  0  0  0  0  0  0
  184.0680  178.4280  146.1020 N   0  0  0  0  0  0  0  0  0  0  0  0
  185.1070  178.3750  146.6070 C   0  0  0  0  0  0  0  0  0  0  0  0
  1  4  1  0  0  0  0
  1 11  1  0  0  0  0
  2 12  1  0  0  0  0
  2  3  2  0  0  0  0
  5  4  2  0  0  0  0
  6 11  2  0  0  0  0
  6  3  1  0  0  0  0
  7  1  2  0  0  0  0
  8  6  1  0  0  0  0
  9  7  1  0  0  0  0
  9  5  1  0  0  0  0
 10  8  1  0  0  0  0
 10  2  1  0  0  0  0
 11 19  1  0  0  0  0
 13  7  1  0  0  0  0
 13  8  2  0  0  0  0
 14  5  1  0  0  0  0
 14 16  1  0  0  0  0
 15 17  1  0  0  0  0
 15 18  2  0  0  0  0
 17 14  2  0  0  0  0
 18 16  1  0  0  0  0
 19 20  1  0  0  0  0
 20 21  1  0  0  0  0
 22 23  2  0  0  0  0
 24 21  1  0  0  0  0
 24 22  1  0  0  0  0
 25 26  3  0  0  0  0
 26 22  1  0  0  0  0
M  END
>  <MODEL>
8

>  <REMARK>
 VINA RESULT:      -5.9      2.708      6.592
  Name = 
  6 active torsions:
  status: ('A' for Active; 'I' for Inactive)
    1  A    between atoms: C_3  and  C_10
    2  A    between atoms: C_5  and  C_17
    3  A    between atoms: C_5  and  C_18
    4  A    between atoms: C_6  and  C_25
    5  A    between atoms: C_17  and  N_26
    6  A    between atoms: C_18  and  C_21
                            x       y       z     vdW  Elec       q    Type
                         _______ _______ _______ _____ _____    ______ ____

>  <TORSDO>
F 6

$$$$
=
 OpenBabel11042418533D

 26 29  0  0  0  0  0  0  0  0999 V2000
  189.5820  176.9330  144.9990 C   0  0  0  0  0  0  0  0  0  0  0  0
  185.4850  178.2270  145.9910 C   0  0  0  0  0  0  0  0  0  0  0  0
  186.0480  177.8940  144.7990 N   0  0  0  0  0  0  0  0  0  0  0  0
  190.7420  176.5200  144.4680 N   0  0  0  0  0  0  0  0  0  0  0  0
  191.5600  176.4480  145.5530 C   0  0  0  0  0  0  0  0  0  0  0  0
  187.3090  177.5980  145.1580 C   0  0  0  0  0  0  0  0  0  0  0  0
  189.7220  177.0960  146.3600 C   0  0  0  0  0  0  0  0  0  0  0  0
  187.4590  177.7570  146.5170 C   0  0  0  0  0  0  0  0  0  0  0  0
  190.9730  176.7930  146.7300 N   0  0  0  0  0  2  0  0  0  0  0  0
  186.3180  178.1480  147.0170 O   0  0  0  0  0  0  0  0  0  0  0  0
  188.3680  177.1820  144.3360 C   0  0  0  0  0  0  0  0  0  0  0  0
  184.0640  178.6420  146.1270 C   0  0  0  0  0  1  0  0  0  0  0  0
  188.6680  177.5170  147.1840 C   0  0  0  0  0  3  0  0  0  0  0  0
  192.9630  176.0310  145.4650 C   0  0  0  0  0  0  0  0  0  0  0  0
  195.0150  175.3600  145.9980 N   0  0  0  0  0  0  0  0  0  0  0  0
  193.7600  175.9100  144.2140 C   0  0  0  0  0  3  0  0  0  0  0  0
  193.7280  175.7010  146.4910 C   0  0  0  0  0  2  0  0  0  0  0  0
  195.0470  175.4720  144.7340 N   0  0  0  0  0  0  0  0  0  0  0  0
  188.2060  176.9790  142.8650 C   0  0  0  0  0  2  0  0  0  0  0  0
  187.4320  175.7000  142.6000 C   0  0  0  0  0  2  0  0  0  0  0  0
  188.3270  174.6780  141.9250 C   0  0  0  0  0  2  0  0  0  0  0  0
  188.5700  173.8400  139.5600 C   0  0  0  0  0  0  0  0  0  0  0  0
  188.7700  172.6640  139.9650 O   0  0  0  0  0  0  0  0  0  0  0  0
  188.3400  174.9000  140.4880 N   0  0  0  0  0  2  0  0  0  0  0  0
  188.5770  174.3400  137.0170 N   0  0  0  0  0  0  0  0  0  0  0  0
  188.5740  174.1170  138.1520 C   0  0  0  0  0  0  0  0  0  0  0  0
  1  7  1  0  0  0  0
  2 12  1  0  0  0  0
  2 10  1  0  0  0  0
  3  6  1  0  0  0  0
  3  2  2  0  0  0  0
  4  1  1  0  0  0  0
  4  5  2  0  0  0  0
  5  9  1  0  0  0  0
  6  8  2  0  0  0  0
  7  9  1  0  0  0  0
  7 13  2  0  0  0  0
  8 10  1  0  0  0  0
  8 13  1  0  0  0  0
 11  1  2  0  0  0  0
 11  6  1  0  0  0  0
 14  5  1  0  0  0  0
 14 17  1  0  0  0  0
 15 17  1  0  0  0  0
 16 18  1  0  0  0  0
 16 14  2  0  0  0  0
 18 15  2  0  0  0  0
 19 11  1  0  0  0  0
 20 19  1  0  0  0  0
 21 20  1  0  0  0  0
 22 23  2  0  0  0  0
 22 24  1  0  0  0  0
 24 21  1  0  0  0  0
 25 26  3  0  0  0  0
 26 22  1  0  0  0  0
M  END
>  <MODEL>
9

>  <REMARK>
 VINA RESULT:      -5.9      3.176      5.678
  Name = 
  6 active torsions:
  status: ('A' for Active; 'I' for Inactive)
    1  A    between atoms: C_3  and  C_10
    2  A    between atoms: C_5  and  C_17
    3  A    between atoms: C_5  and  C_18
    4  A    between atoms: C_6  and  C_25
    5  A    between atoms: C_17  and  N_26
    6  A    between atoms: C_18  and  C_21
                            x       y       z     vdW  Elec       q    Type
                         _______ _______ _______ _____ _____    ______ ____

>  <TORSDO>
F 6

$$$$
