=
 OpenBabel11042415333D

 47 51  0  0  1  0  0  0  0  0999 V2000
  190.4390  176.0810  146.3370 C   0  0  0  0  0  2  0  0  0  0  0  0
  191.8220  175.5570  145.9250 C   0  0  2  0  0  3  0  0  0  0  0  0
  188.9310  176.5060  142.7670 C   0  0  2  0  0  3  0  0  0  0  0  0
  189.7720  174.2620  142.5030 C   0  0  0  0  0  3  0  0  0  0  0  0
  190.0150  177.3440  145.5930 C   0  0  0  0  0  2  0  0  0  0  0  0
  187.0480  177.6550  143.1170 C   0  0  0  0  0  0  0  0  0  0  0  0
  192.9370  176.5770  146.0700 C   0  0  0  0  0  2  0  0  0  0  0  0
  193.4470  175.1280  144.2840 C   0  0  2  0  0  3  0  0  0  0  0  0
  187.6960  174.9250  141.3530 C   0  0  0  0  0  3  0  0  0  0  0  0
  188.5280  173.9480  141.7570 C   0  0  0  0  0  3  0  0  0  0  0  0
  188.0450  176.3800  141.5690 C   0  0  1  0  0  3  0  0  0  0  0  0
  188.5610  177.1950  145.1870 C   0  0  0  0  0  2  0  0  0  0  0  0
  186.8700  177.1540  141.9400 N   0  0  0  0  0  0  0  0  0  0  0  0
  189.9750  175.4940  142.9910 C   0  0  0  0  0  0  0  0  0  0  0  0
  191.9450  175.0070  144.5120 C   0  0  2  0  0  3  0  0  0  0  0  0
  191.2180  175.8640  143.5830 N   0  0  0  0  0  2  0  0  0  0  0  0
  188.3280  177.2510  143.6990 C   0  0  1  0  0  3  0  0  0  0  0  0
  193.9280  176.2960  145.0290 N   0  0  0  0  0  0  0  0  0  0  0  0
  194.4800  176.2980  142.3310 C   0  0  0  0  0  3  0  0  0  0  0  0
  193.6840  174.0360  142.0090 C   0  0  0  0  0  3  0  0  0  0  0  0
  193.8610  175.1520  142.8400 C   0  0  0  0  0  0  0  0  0  0  0  0
  194.9060  176.3370  141.0000 C   0  0  0  0  0  3  0  0  0  0  0  0
  194.7230  175.2220  140.1660 C   0  0  0  0  0  0  0  0  0  0  0  0
  194.1110  174.0740  140.6790 C   0  0  0  0  0  3  0  0  0  0  0  0
  195.1400  175.2290  138.8320 O   0  0  0  0  0  0  0  0  0  0  0  0
  196.4020  174.7220  138.4200 C   0  0  0  0  0  2  0  0  0  0  0  0
  197.9320  175.5470  136.7940 O   0  0  0  0  0  1  0  0  0  0  0  0
  195.7340  175.4860  136.1470 O   0  0  0  0  0  0  0  0  0  0  0  0
  196.7400  175.2600  137.0760 C   0  0  0  0  0  0  0  0  0  0  0  0
  185.9320  179.7160  143.4850 O   0  0  0  0  0  0  0  0  0  0  0  0
  185.1430  177.9090  144.7280 N   0  0  0  0  0  2  0  0  0  0  0  0
  186.0290  178.4930  143.7720 C   0  0  0  0  0  0  0  0  0  0  0  0
  184.1020  178.6820  145.3890 C   0  0  0  0  0  2  0  0  0  0  0  0
  184.2410  178.5600  146.8960 C   0  0  0  0  0  2  0  0  0  0  0  0
  186.0970  177.6040  148.0340 O   0  0  0  0  0  1  0  0  0  0  0  0
  185.6940  178.7210  147.3040 C   0  0  0  0  0  2  0  0  0  0  0  0
  195.2300  176.0110  145.6450 C   0  0  0  0  0  2  0  0  0  0  0  0
  195.3660  174.5720  146.1530 C   0  0  0  0  0  2  0  0  0  0  0  0
  196.6610  173.9610  145.6470 C   0  0  0  0  0  2  0  0  0  0  0  0
  197.3720  173.2830  143.3510 C   0  0  0  0  0  1  0  0  0  0  0  0
  196.3970  173.0160  144.4840 C   0  0  1  0  0  3  0  0  0  0  0  0
  197.5750  171.0890  145.1890 O   0  0  0  0  0  0  0  0  0  0  0  0
  196.4910  171.5920  144.9310 C   0  0  0  0  0  0  0  0  0  0  0  0
  194.9370  169.4490  143.8750 O   0  0  0  0  0  0  0  0  0  0  0  0
  194.9940  169.9320  146.4460 O   0  0  0  0  0  1  0  0  0  0  0  0
  194.9990  170.6160  145.0980 P   0  0  0  0  0  0  0  0  0  0  0  0
  193.6490  171.6280  144.9770 O   0  0  0  0  0  1  0  0  0  0  0  0
  2  7  1  6  0  0  0
  2  1  1  0  0  0  0
  3 14  1  1  0  0  0
  3 17  1  0  0  0  0
  4 14  2  0  0  0  0
  5  1  1  0  0  0  0
  6 17  1  0  0  0  0
  6 32  1  0  0  0  0
  8 21  1  6  0  0  0
  8 15  1  0  0  0  0
  8 18  1  0  0  0  0
  9 10  2  0  0  0  0
 10  4  1  0  0  0  0
 11  9  1  1  0  0  0
 11 13  1  0  0  0  0
 11  3  1  0  0  0  0
 12  5  1  0  0  0  0
 13  6  2  0  0  0  0
 14 16  1  0  0  0  0
 15 16  1  6  0  0  0
 15  2  1  0  0  0  0
 17 12  1  1  0  0  0
 18 37  1  0  0  0  0
 18  7  1  0  0  0  0
 19 21  1  0  0  0  0
 20 21  2  0  0  0  0
 22 19  2  0  0  0  0
 23 24  2  0  0  0  0
 23 22  1  0  0  0  0
 24 20  1  0  0  0  0
 25 23  1  0  0  0  0
 26 25  1  0  0  0  0
 27 29  1  0  0  0  0
 28 29  2  0  0  0  0
 29 26  1  0  0  0  0
 30 32  2  0  0  0  0
 31 33  1  0  0  0  0
 32 31  1  0  0  0  0
 33 34  1  0  0  0  0
 34 36  1  0  0  0  0
 36 35  1  0  0  0  0
 37 38  1  0  0  0  0
 39 38  1  0  0  0  0
 41 40  1  6  0  0  0
 41 43  1  0  0  0  0
 41 39  1  0  0  0  0
 43 46  1  0  0  0  0
 43 42  2  0  0  0  0
 44 46  2  0  0  0  0
 46 45  1  0  0  0  0
 47 46  1  0  0  0  0
M  END
>  <MODEL>
1

>  <REMARK>
 VINA RESULT:      -7.0      0.000      0.000
  Name = 
  14 active torsions:
  status: ('A' for Active; 'I' for Inactive)
    1  A    between atoms: N_9  and  C_14
    2  A    between atoms: C_10  and  C_14
    3  A    between atoms: C_10  and  C_47
    4  A    between atoms: C_13  and  C_39
    5  A    between atoms: C_16  and  C_26
    6  A    between atoms: C_22  and  C_34
    7  A    between atoms: C_22  and  C_36
    8  A    between atoms: C_23  and  C_24
    9  A    between atoms: C_24  and  O_30
   10  A    between atoms: C_27  and  C_34
   11  A    between atoms: C_27  and  P_40
   12  A    between atoms: O_30  and  C_32
   13  A    between atoms: C_36  and  C_37
   14  A    between atoms: C_37  and  N_46
                            x       y       z     vdW  Elec       q    Type
                         _______ _______ _______ _____ _____    ______ ____

>  <TORSDO>
F 14

$$$$
=
 OpenBabel11042415333D

 47 51  0  0  1  0  0  0  0  0999 V2000
  194.5770  175.1750  146.1250 C   0  0  0  0  0  2  0  0  0  0  0  0
  193.3410  176.0830  146.0960 C   0  0  2  0  0  3  0  0  0  0  0  0
  194.2530  173.6960  142.5320 C   0  0  2  0  0  3  0  0  0  0  0  0
  193.9960  176.0230  141.9550 C   0  0  0  0  0  3  0  0  0  0  0  0
  194.2990  173.7450  145.6720 C   0  0  0  0  0  2  0  0  0  0  0  0
  195.7350  172.0250  142.5080 C   0  0  0  0  0  0  0  0  0  0  0  0
  192.1700  175.5590  146.9090 C   0  0  0  0  0  2  0  0  0  0  0  0
  191.3460  176.8000  145.0840 C   0  0  2  0  0  3  0  0  0  0  0  0
  195.1330  174.5000  140.3860 C   0  0  0  0  0  3  0  0  0  0  0  0
  194.8390  175.7580  140.7620 C   0  0  0  0  0  3  0  0  0  0  0  0
  194.5440  173.3150  141.1160 C   0  0  1  0  0  3  0  0  0  0  0  0
  195.4250  173.3050  144.7550 C   0  0  0  0  0  2  0  0  0  0  0  0
  195.5180  172.2420  141.2530 N   0  0  0  0  0  0  0  0  0  0  0  0
  193.7080  175.0350  142.8120 C   0  0  0  0  0  0  0  0  0  0  0  0
  192.7760  176.4160  144.7240 C   0  0  2  0  0  3  0  0  0  0  0  0
  192.7860  175.2240  143.8830 N   0  0  0  0  0  2  0  0  0  0  0  0
  194.9780  172.9400  143.3620 C   0  0  1  0  0  3  0  0  0  0  0  0
  190.9420  176.0080  146.2500 N   0  0  0  0  0  0  0  0  0  0  0  0
  189.6960  175.4910  143.7350 C   0  0  0  0  0  3  0  0  0  0  0  0
  190.0750  177.8050  143.1350 C   0  0  0  0  0  3  0  0  0  0  0  0
  190.3650  176.7000  143.9490 C   0  0  0  0  0  0  0  0  0  0  0  0
  188.7540  175.3800  142.7080 C   0  0  0  0  0  3  0  0  0  0  0  0
  188.4670  176.4830  141.8880 C   0  0  0  0  0  0  0  0  0  0  0  0
  189.1320  177.6940  142.1090 C   0  0  0  0  0  3  0  0  0  0  0  0
  187.5300  176.4040  140.8550 O   0  0  0  0  0  0  0  0  0  0  0  0
  187.0480  177.5510  140.1670 C   0  0  0  0  0  2  0  0  0  0  0  0
  186.0480  178.8450  141.8960 O   0  0  0  0  0  1  0  0  0  0  0  0
  184.5890  177.7840  140.4810 O   0  0  0  0  0  0  0  0  0  0  0  0
  185.8760  178.1100  140.8890 C   0  0  0  0  0  0  0  0  0  0  0  0
  197.9200  171.1640  142.8450 O   0  0  0  0  0  0  0  0  0  0  0  0
  196.1770  169.7990  143.5760 N   0  0  0  0  0  2  0  0  0  0  0  0
  196.6780  170.9930  142.9710 C   0  0  0  0  0  0  0  0  0  0  0  0
  197.0610  168.7570  144.0740 C   0  0  0  0  0  2  0  0  0  0  0  0
  196.6270  168.3270  145.4630 C   0  0  0  0  0  2  0  0  0  0  0  0
  196.9430  168.8820  147.7530 O   0  0  0  0  0  1  0  0  0  0  0  0
  197.5690  168.8960  146.5080 C   0  0  0  0  0  2  0  0  0  0  0  0
  190.1500  176.8260  147.1770 C   0  0  0  0  0  2  0  0  0  0  0  0
  188.8240  177.3140  146.5850 C   0  0  0  0  0  2  0  0  0  0  0  0
  187.7520  176.2530  146.7640 C   0  0  0  0  0  2  0  0  0  0  0  0
  186.4160  178.1550  147.6780 C   0  0  0  0  0  1  0  0  0  0  0  0
  186.3700  176.8860  146.8450 C   0  0  1  0  0  3  0  0  0  0  0  0
  186.1540  176.4760  144.5250 O   0  0  0  0  0  0  0  0  0  0  0  0
  185.8440  177.1770  145.4760 C   0  0  0  0  0  0  0  0  0  0  0  0
  185.6360  179.9900  145.0610 O   0  0  0  0  0  1  0  0  0  0  0  0
  183.9170  178.3390  143.9820 O   0  0  0  0  0  0  0  0  0  0  0  0
  184.7390  178.5650  145.2300 P   0  0  0  0  0  0  0  0  0  0  0  0
  183.7090  178.7070  146.5640 O   0  0  0  0  0  1  0  0  0  0  0  0
  2  1  1  6  0  0  0
  2  7  1  0  0  0  0
  3 14  1  6  0  0  0
  3 17  1  0  0  0  0
  4 14  2  0  0  0  0
  5  1  1  0  0  0  0
  6 32  1  0  0  0  0
  6 17  1  0  0  0  0
  8 21  1  6  0  0  0
  8 18  1  0  0  0  0
  9 10  2  0  0  0  0
 10  4  1  0  0  0  0
 11  9  1  6  0  0  0
 11 13  1  0  0  0  0
 11  3  1  0  0  0  0
 12  5  1  0  0  0  0
 13  6  2  0  0  0  0
 14 16  1  0  0  0  0
 15 16  1  6  0  0  0
 15  8  1  0  0  0  0
 15  2  1  0  0  0  0
 17 12  1  6  0  0  0
 18  7  1  0  0  0  0
 18 37  1  0  0  0  0
 19 21  1  0  0  0  0
 20 21  2  0  0  0  0
 22 19  2  0  0  0  0
 23 24  2  0  0  0  0
 23 22  1  0  0  0  0
 24 20  1  0  0  0  0
 25 23  1  0  0  0  0
 26 25  1  0  0  0  0
 26 29  1  0  0  0  0
 28 29  2  0  0  0  0
 29 27  1  0  0  0  0
 30 32  2  0  0  0  0
 31 33  1  0  0  0  0
 32 31  1  0  0  0  0
 33 34  1  0  0  0  0
 34 36  1  0  0  0  0
 36 35  1  0  0  0  0
 38 39  1  0  0  0  0
 38 37  1  0  0  0  0
 39 41  1  0  0  0  0
 41 40  1  1  0  0  0
 42 43  2  0  0  0  0
 43 41  1  0  0  0  0
 44 46  1  0  0  0  0
 45 46  2  0  0  0  0
 46 43  1  0  0  0  0
 46 47  1  0  0  0  0
M  END
>  <MODEL>
2

>  <REMARK>
 VINA RESULT:      -6.5      3.455      9.749
  Name = 
  14 active torsions:
  status: ('A' for Active; 'I' for Inactive)
    1  A    between atoms: N_9  and  C_14
    2  A    between atoms: C_10  and  C_14
    3  A    between atoms: C_10  and  C_47
    4  A    between atoms: C_13  and  C_39
    5  A    between atoms: C_16  and  C_26
    6  A    between atoms: C_22  and  C_34
    7  A    between atoms: C_22  and  C_36
    8  A    between atoms: C_23  and  C_24
    9  A    between atoms: C_24  and  O_30
   10  A    between atoms: C_27  and  C_34
   11  A    between atoms: C_27  and  P_40
   12  A    between atoms: O_30  and  C_32
   13  A    between atoms: C_36  and  C_37
   14  A    between atoms: C_37  and  N_46
                            x       y       z     vdW  Elec       q    Type
                         _______ _______ _______ _____ _____    ______ ____

>  <TORSDO>
F 14

$$$$
=
 OpenBabel11042415333D

 47 51  0  0  1  0  0  0  0  0999 V2000
  190.4150  172.3080  144.7320 C   0  0  0  0  0  2  0  0  0  0  0  0
  191.4970  171.7970  143.7720 C   0  0  2  0  0  3  0  0  0  0  0  0
  189.4880  175.5770  142.8220 C   0  0  2  0  0  3  0  0  0  0  0  0
  189.3740  174.0600  140.9520 C   0  0  0  0  0  3  0  0  0  0  0  0
  190.5940  173.7670  145.1390 C   0  0  0  0  0  2  0  0  0  0  0  0
  188.2050  176.6950  144.2690 C   0  0  0  0  0  0  0  0  0  0  0  0
  192.9140  171.9620  144.2930 C   0  0  0  0  0  2  0  0  0  0  0  0
  192.9350  172.1210  141.9430 C   0  0  2  0  0  3  0  0  0  0  0  0
  187.8360  175.9820  141.0530 C   0  0  0  0  0  3  0  0  0  0  0  0
  188.1700  174.8020  140.5010 C   0  0  0  0  0  3  0  0  0  0  0  0
  188.7220  176.6320  142.0900 C   0  0  1  0  0  3  0  0  0  0  0  0
  189.2390  174.4480  145.0870 C   0  0  0  0  0  2  0  0  0  0  0  0
  187.9330  177.2600  143.1400 N   0  0  0  0  0  0  0  0  0  0  0  0
  190.0160  174.4280  142.0690 C   0  0  0  0  0  0  0  0  0  0  0  0
  191.4990  172.3930  142.3730 C   0  0  2  0  0  3  0  0  0  0  0  0
  191.2530  173.8290  142.4480 N   0  0  0  0  0  2  0  0  0  0  0  0
  189.1650  175.6010  144.1190 C   0  0  1  0  0  3  0  0  0  0  0  0
  193.7860  172.1760  143.1360 N   0  0  0  0  0  0  0  0  0  0  0  0
  192.9330  172.8210  139.5420 C   0  0  0  0  0  3  0  0  0  0  0  0
  194.3550  174.0340  141.0790 C   0  0  0  0  0  3  0  0  0  0  0  0
  193.4350  173.0050  140.8340 C   0  0  0  0  0  0  0  0  0  0  0  0
  193.3560  173.6500  138.4990 C   0  0  0  0  0  3  0  0  0  0  0  0
  194.2820  174.6770  138.7410 C   0  0  0  0  0  0  0  0  0  0  0  0
  194.7770  174.8640  140.0360 C   0  0  0  0  0  3  0  0  0  0  0  0
  194.7220  175.5230  137.7200 O   0  0  0  0  0  0  0  0  0  0  0  0
  195.4890  175.0590  136.6160 C   0  0  0  0  0  2  0  0  0  0  0  0
  197.6390  175.4440  137.5610 O   0  0  0  0  0  1  0  0  0  0  0  0
  197.1690  176.6240  135.6530 O   0  0  0  0  0  0  0  0  0  0  0  0
  196.8280  175.7030  136.6340 C   0  0  0  0  0  0  0  0  0  0  0  0
  188.2460  177.6310  146.4490 O   0  0  0  0  0  0  0  0  0  0  0  0
  186.1540  176.9330  145.6930 N   0  0  0  0  0  2  0  0  0  0  0  0
  187.5620  177.1110  145.5270 C   0  0  0  0  0  0  0  0  0  0  0  0
  185.4610  177.3470  146.9030 C   0  0  0  0  0  2  0  0  0  0  0  0
  184.7660  178.6770  146.6750 C   0  0  0  0  0  2  0  0  0  0  0  0
  184.7770  179.7490  144.5530 O   0  0  0  0  0  1  0  0  0  0  0  0
  184.1700  178.7270  145.2800 C   0  0  0  0  0  2  0  0  0  0  0  0
  194.8110  171.1270  143.0840 C   0  0  0  0  0  2  0  0  0  0  0  0
  195.9960  171.3800  144.0200 C   0  0  0  0  0  2  0  0  0  0  0  0
  196.4870  172.8090  143.8650 C   0  0  0  0  0  2  0  0  0  0  0  0
  197.0810  173.5570  146.1730 C   0  0  0  0  0  1  0  0  0  0  0  0
  196.0610  173.6610  145.0520 C   0  0  1  0  0  3  0  0  0  0  0  0
  196.7390  175.6600  143.9850 O   0  0  0  0  0  0  0  0  0  0  0  0
  195.8810  175.0870  144.6390 C   0  0  0  0  0  0  0  0  0  0  0  0
  194.7680  177.5350  145.5850 O   0  0  0  0  0  1  0  0  0  0  0  0
  193.4490  176.0120  143.9150 O   0  0  0  0  0  0  0  0  0  0  0  0
  194.3860  175.9590  145.0990 P   0  0  0  0  0  0  0  0  0  0  0  0
  193.6330  175.1470  146.3770 O   0  0  0  0  0  1  0  0  0  0  0  0
  1  5  1  0  0  0  0
  2  7  1  1  0  0  0
  2  1  1  0  0  0  0
  3 14  1  6  0  0  0
  3 17  1  0  0  0  0
  4 14  2  0  0  0  0
  6 32  1  0  0  0  0
  8 21  1  6  0  0  0
  8 15  1  0  0  0  0
  8 18  1  0  0  0  0
 10  4  1  0  0  0  0
 10  9  2  0  0  0  0
 11  9  1  6  0  0  0
 11  3  1  0  0  0  0
 11 13  1  0  0  0  0
 12  5  1  0  0  0  0
 13  6  2  0  0  0  0
 14 16  1  0  0  0  0
 15 16  1  1  0  0  0
 15  2  1  0  0  0  0
 17  6  1  0  0  0  0
 17 12  1  6  0  0  0
 18  7  1  0  0  0  0
 19 21  1  0  0  0  0
 21 20  2  0  0  0  0
 22 23  1  0  0  0  0
 22 19  2  0  0  0  0
 23 24  2  0  0  0  0
 24 20  1  0  0  0  0
 25 23  1  0  0  0  0
 26 29  1  0  0  0  0
 26 25  1  0  0  0  0
 28 29  2  0  0  0  0
 29 27  1  0  0  0  0
 31 33  1  0  0  0  0
 32 31  1  0  0  0  0
 32 30  2  0  0  0  0
 34 33  1  0  0  0  0
 35 36  1  0  0  0  0
 36 34  1  0  0  0  0
 37 18  1  0  0  0  0
 37 38  1  0  0  0  0
 39 38  1  0  0  0  0
 39 41  1  0  0  0  0
 41 40  1  1  0  0  0
 42 43  2  0  0  0  0
 43 41  1  0  0  0  0
 43 46  1  0  0  0  0
 45 46  2  0  0  0  0
 46 44  1  0  0  0  0
 46 47  1  0  0  0  0
M  END
>  <MODEL>
3

>  <REMARK>
 VINA RESULT:      -6.5      2.382      3.354
  Name = 
  14 active torsions:
  status: ('A' for Active; 'I' for Inactive)
    1  A    between atoms: N_9  and  C_14
    2  A    between atoms: C_10  and  C_14
    3  A    between atoms: C_10  and  C_47
    4  A    between atoms: C_13  and  C_39
    5  A    between atoms: C_16  and  C_26
    6  A    between atoms: C_22  and  C_34
    7  A    between atoms: C_22  and  C_36
    8  A    between atoms: C_23  and  C_24
    9  A    between atoms: C_24  and  O_30
   10  A    between atoms: C_27  and  C_34
   11  A    between atoms: C_27  and  P_40
   12  A    between atoms: O_30  and  C_32
   13  A    between atoms: C_36  and  C_37
   14  A    between atoms: C_37  and  N_46
                            x       y       z     vdW  Elec       q    Type
                         _______ _______ _______ _____ _____    ______ ____

>  <TORSDO>
F 14

$$$$
=
 OpenBabel11042415333D

 47 51  0  0  1  0  0  0  0  0999 V2000
  188.0240  173.0640  140.5280 C   0  0  0  0  0  2  0  0  0  0  0  0
  187.9100  174.0800  141.6720 C   0  0  2  0  0  3  0  0  0  0  0  0
  191.7450  172.0400  141.0740 C   0  0  2  0  0  3  0  0  0  0  0  0
  191.0000  171.7970  143.3540 C   0  0  0  0  0  3  0  0  0  0  0  0
  189.2430  173.2780  139.6360 C   0  0  0  0  0  2  0  0  0  0  0  0
  192.2470  170.8590  139.2450 C   0  0  0  0  0  0  0  0  0  0  0  0
  187.9000  175.5280  141.2150 C   0  0  0  0  0  2  0  0  0  0  0  0
  188.8940  175.4010  143.3470 C   0  0  2  0  0  3  0  0  0  0  0  0
  192.7320  170.2810  142.4740 C   0  0  0  0  0  3  0  0  0  0  0  0
  191.8350  170.5720  143.4330 C   0  0  0  0  0  3  0  0  0  0  0  0
  192.9800  171.2360  141.3280 C   0  0  1  0  0  3  0  0  0  0  0  0
  189.8740  171.9270  139.3560 C   0  0  0  0  0  2  0  0  0  0  0  0
  193.1760  170.5200  140.0770 N   0  0  0  0  0  0  0  0  0  0  0  0
  190.9530  172.5110  142.2210 C   0  0  0  0  0  0  0  0  0  0  0  0
  188.9690  173.9960  142.7610 C   0  0  2  0  0  3  0  0  0  0  0  0
  190.2770  173.7650  142.1600 N   0  0  0  0  0  2  0  0  0  0  0  0
  191.2960  171.8000  139.8380 C   0  0  1  0  0  3  0  0  0  0  0  0
  188.5300  176.3260  142.2690 N   0  0  0  0  0  0  0  0  0  0  0  0
  190.4770  175.1670  145.2690 C   0  0  0  0  0  3  0  0  0  0  0  0
  190.9470  176.8630  143.6080 C   0  0  0  0  0  3  0  0  0  0  0  0
  190.1240  175.8360  144.0930 C   0  0  0  0  0  0  0  0  0  0  0  0
  191.6340  175.5280  145.9640 C   0  0  0  0  0  3  0  0  0  0  0  0
  192.4560  176.5610  145.4840 C   0  0  0  0  0  0  0  0  0  0  0  0
  192.1050  177.2240  144.3030 C   0  0  0  0  0  3  0  0  0  0  0  0
  193.6200  176.9440  146.1550 O   0  0  0  0  0  0  0  0  0  0  0  0
  194.6660  176.0310  146.4590 C   0  0  0  0  0  2  0  0  0  0  0  0
  195.7870  174.4970  145.0250 O   0  0  0  0  0  1  0  0  0  0  0  0
  195.6920  176.6640  144.2810 O   0  0  0  0  0  0  0  0  0  0  0  0
  195.3980  175.6790  145.2150 C   0  0  0  0  0  0  0  0  0  0  0  0
  191.9720  169.0670  137.7140 O   0  0  0  0  0  0  0  0  0  0  0  0
  192.3200  171.1640  136.7570 N   0  0  0  0  0  2  0  0  0  0  0  0
  192.1730  170.3000  137.8850 C   0  0  0  0  0  0  0  0  0  0  0  0
  192.2330  170.6720  135.3910 C   0  0  0  0  0  2  0  0  0  0  0  0
  191.5060  171.6820  134.5210 C   0  0  0  0  0  2  0  0  0  0  0  0
  189.3030  171.4700  135.3890 O   0  0  0  0  0  1  0  0  0  0  0  0
  190.3870  172.3420  135.3040 C   0  0  0  0  0  2  0  0  0  0  0  0
  187.5860  177.3380  142.7580 C   0  0  0  0  0  2  0  0  0  0  0  0
  186.1170  176.9610  142.5450 C   0  0  0  0  0  2  0  0  0  0  0  0
  185.3060  177.3050  143.7820 C   0  0  0  0  0  2  0  0  0  0  0  0
  185.5260  179.7920  143.8640 C   0  0  0  0  0  1  0  0  0  0  0  0
  185.9220  178.4830  144.5250 C   0  0  1  0  0  3  0  0  0  0  0  0
  184.3870  178.8370  146.2890 O   0  0  0  0  0  0  0  0  0  0  0  0
  185.5060  178.4740  145.9610 C   0  0  0  0  0  0  0  0  0  0  0  0
  186.9140  179.1480  148.3460 O   0  0  0  0  0  1  0  0  0  0  0  0
  186.0990  176.7010  147.9100 O   0  0  0  0  0  1  0  0  0  0  0  0
  186.6610  177.9180  147.2130 P   0  0  0  0  0  0  0  0  0  0  0  0
  188.1320  177.5180  146.4820 O   0  0  0  0  0  0  0  0  0  0  0  0
  2  1  1  6  0  0  0
  2 15  1  0  0  0  0
  3 11  1  0  0  0  0
  3 14  1  1  0  0  0
  4 10  1  0  0  0  0
  5  1  1  0  0  0  0
  6 17  1  0  0  0  0
  6 13  2  0  0  0  0
  7  2  1  0  0  0  0
  7 18  1  0  0  0  0
  8 21  1  6  0  0  0
  9 10  2  0  0  0  0
 11  9  1  1  0  0  0
 12  5  1  0  0  0  0
 13 11  1  0  0  0  0
 14  4  2  0  0  0  0
 15 16  1  6  0  0  0
 15  8  1  0  0  0  0
 16 14  1  0  0  0  0
 17 12  1  1  0  0  0
 17  3  1  0  0  0  0
 18 37  1  0  0  0  0
 18  8  1  0  0  0  0
 19 22  1  0  0  0  0
 20 21  1  0  0  0  0
 20 24  2  0  0  0  0
 21 19  2  0  0  0  0
 23 22  2  0  0  0  0
 23 25  1  0  0  0  0
 24 23  1  0  0  0  0
 25 26  1  0  0  0  0
 27 29  1  0  0  0  0
 28 29  2  0  0  0  0
 29 26  1  0  0  0  0
 30 32  2  0  0  0  0
 31 32  1  0  0  0  0
 32  6  1  0  0  0  0
 33 31  1  0  0  0  0
 34 36  1  0  0  0  0
 34 33  1  0  0  0  0
 36 35  1  0  0  0  0
 38 37  1  0  0  0  0
 38 39  1  0  0  0  0
 39 41  1  0  0  0  0
 41 40  1  6  0  0  0
 41 43  1  0  0  0  0
 43 42  2  0  0  0  0
 43 46  1  0  0  0  0
 46 45  1  0  0  0  0
 46 44  1  0  0  0  0
 47 46  2  0  0  0  0
M  END
>  <MODEL>
4

>  <REMARK>
 VINA RESULT:      -6.2      3.984      9.399
  Name = 
  14 active torsions:
  status: ('A' for Active; 'I' for Inactive)
    1  A    between atoms: N_9  and  C_14
    2  A    between atoms: C_10  and  C_14
    3  A    between atoms: C_10  and  C_47
    4  A    between atoms: C_13  and  C_39
    5  A    between atoms: C_16  and  C_26
    6  A    between atoms: C_22  and  C_34
    7  A    between atoms: C_22  and  C_36
    8  A    between atoms: C_23  and  C_24
    9  A    between atoms: C_24  and  O_30
   10  A    between atoms: C_27  and  C_34
   11  A    between atoms: C_27  and  P_40
   12  A    between atoms: O_30  and  C_32
   13  A    between atoms: C_36  and  C_37
   14  A    between atoms: C_37  and  N_46
                            x       y       z     vdW  Elec       q    Type
                         _______ _______ _______ _____ _____    ______ ____

>  <TORSDO>
F 14

$$$$
=
 OpenBabel11042415333D

 47 51  0  0  1  0  0  0  0  0999 V2000
  188.3280  173.2310  139.8850 C   0  0  0  0  0  2  0  0  0  0  0  0
  187.9950  174.0840  141.1160 C   0  0  2  0  0  3  0  0  0  0  0  0
  191.9800  172.2740  140.8550 C   0  0  2  0  0  3  0  0  0  0  0  0
  190.9250  171.7100  142.9490 C   0  0  0  0  0  3  0  0  0  0  0  0
  189.6500  173.6020  139.2210 C   0  0  0  0  0  2  0  0  0  0  0  0
  192.8050  171.3600  138.9920 C   0  0  0  0  0  0  0  0  0  0  0  0
  187.9740  175.5790  140.8450 C   0  0  0  0  0  2  0  0  0  0  0  0
  188.6520  175.2090  143.0710 C   0  0  2  0  0  3  0  0  0  0  0  0
  192.8460  170.3840  142.1590 C   0  0  0  0  0  3  0  0  0  0  0  0
  191.8050  170.5150  143.0010 C   0  0  0  0  0  3  0  0  0  0  0  0
  193.2070  171.4870  141.1920 C   0  0  1  0  0  3  0  0  0  0  0  0
  190.3880  172.3220  138.8740 C   0  0  0  0  0  2  0  0  0  0  0  0
  193.6200  170.9480  139.9060 N   0  0  0  0  0  0  0  0  0  0  0  0
  191.0050  172.5640  141.9190 C   0  0  0  0  0  0  0  0  0  0  0  0
  188.8870  173.8960  142.3330 C   0  0  2  0  0  3  0  0  0  0  0  0
  190.2800  173.7910  141.9120 N   0  0  0  0  0  2  0  0  0  0  0  0
  191.7300  172.1820  139.5460 C   0  0  1  0  0  3  0  0  0  0  0  0
  188.4000  176.2530  142.0730 N   0  0  0  0  0  0  0  0  0  0  0  0
  190.0190  174.7270  145.1090 C   0  0  0  0  0  3  0  0  0  0  0  0
  190.4970  176.7500  143.8710 C   0  0  0  0  0  3  0  0  0  0  0  0
  189.7360  175.5850  144.0420 C   0  0  0  0  0  0  0  0  0  0  0  0
  191.0430  175.0360  146.0080 C   0  0  0  0  0  3  0  0  0  0  0  0
  191.8020  176.2050  145.8420 C   0  0  0  0  0  0  0  0  0  0  0  0
  191.5230  177.0590  144.7690 C   0  0  0  0  0  3  0  0  0  0  0  0
  192.8350  176.5400  146.7220 O   0  0  0  0  0  0  0  0  0  0  0  0
  194.1580  176.0400  146.5790 C   0  0  0  0  0  2  0  0  0  0  0  0
  195.2790  176.1870  144.4840 O   0  0  0  0  0  0  0  0  0  0  0  0
  195.0950  178.1520  145.6510 O   0  0  0  0  0  1  0  0  0  0  0  0
  194.8610  176.7910  145.5060 C   0  0  0  0  0  0  0  0  0  0  0  0
  192.4400  169.9180  137.1430 O   0  0  0  0  0  0  0  0  0  0  0  0
  193.6950  171.8310  136.6950 N   0  0  0  0  0  2  0  0  0  0  0  0
  192.9600  170.9810  137.5770 C   0  0  0  0  0  0  0  0  0  0  0  0
  193.8610  171.5200  135.2830 C   0  0  0  0  0  2  0  0  0  0  0  0
  195.3280  171.2930  134.9700 C   0  0  0  0  0  2  0  0  0  0  0  0
  197.4570  172.1820  135.5470 O   0  0  0  0  0  1  0  0  0  0  0  0
  196.1980  171.8830  136.0650 C   0  0  0  0  0  2  0  0  0  0  0  0
  187.3420  177.1600  142.5350 C   0  0  0  0  0  2  0  0  0  0  0  0
  186.1870  176.4450  143.2430 C   0  0  0  0  0  2  0  0  0  0  0  0
  185.1480  177.4550  143.6960 C   0  0  0  0  0  2  0  0  0  0  0  0
  185.3720  179.9170  144.0550 C   0  0  0  0  0  1  0  0  0  0  0  0
  185.7830  178.5410  144.5520 C   0  0  1  0  0  3  0  0  0  0  0  0
  184.2600  178.5820  146.3620 O   0  0  0  0  0  0  0  0  0  0  0  0
  185.4030  178.3680  145.9880 C   0  0  0  0  0  0  0  0  0  0  0  0
  186.9000  179.0510  148.3160 O   0  0  0  0  0  1  0  0  0  0  0  0
  186.1550  176.5830  147.8700 O   0  0  0  0  0  1  0  0  0  0  0  0
  186.6370  177.8340  147.1710 P   0  0  0  0  0  0  0  0  0  0  0  0
  188.0850  177.5030  146.3620 O   0  0  0  0  0  0  0  0  0  0  0  0
  2  1  1  6  0  0  0
  2 15  1  0  0  0  0
  3 11  1  0  0  0  0
  3 14  1  1  0  0  0
  4 10  1  0  0  0  0
  5  1  1  0  0  0  0
  6 17  1  0  0  0  0
  6 13  2  0  0  0  0
  7  2  1  0  0  0  0
  7 18  1  0  0  0  0
  8 21  1  6  0  0  0
  9 10  2  0  0  0  0
 11  9  1  1  0  0  0
 12  5  1  0  0  0  0
 13 11  1  0  0  0  0
 14  4  2  0  0  0  0
 15 16  1  6  0  0  0
 15  8  1  0  0  0  0
 16 14  1  0  0  0  0
 17 12  1  1  0  0  0
 17  3  1  0  0  0  0
 18 37  1  0  0  0  0
 18  8  1  0  0  0  0
 19 22  1  0  0  0  0
 20 21  1  0  0  0  0
 20 24  2  0  0  0  0
 21 19  2  0  0  0  0
 23 22  2  0  0  0  0
 23 25  1  0  0  0  0
 24 23  1  0  0  0  0
 26 25  1  0  0  0  0
 27 29  2  0  0  0  0
 29 28  1  0  0  0  0
 29 26  1  0  0  0  0
 30 32  2  0  0  0  0
 31 32  1  0  0  0  0
 32  6  1  0  0  0  0
 33 31  1  0  0  0  0
 34 33  1  0  0  0  0
 34 36  1  0  0  0  0
 35 36  1  0  0  0  0
 37 38  1  0  0  0  0
 38 39  1  0  0  0  0
 39 41  1  0  0  0  0
 41 40  1  6  0  0  0
 41 43  1  0  0  0  0
 43 42  2  0  0  0  0
 43 46  1  0  0  0  0
 46 45  1  0  0  0  0
 46 44  1  0  0  0  0
 47 46  2  0  0  0  0
M  END
>  <MODEL>
5

>  <REMARK>
 VINA RESULT:      -6.2      3.669      9.828
  Name = 
  14 active torsions:
  status: ('A' for Active; 'I' for Inactive)
    1  A    between atoms: N_9  and  C_14
    2  A    between atoms: C_10  and  C_14
    3  A    between atoms: C_10  and  C_47
    4  A    between atoms: C_13  and  C_39
    5  A    between atoms: C_16  and  C_26
    6  A    between atoms: C_22  and  C_34
    7  A    between atoms: C_22  and  C_36
    8  A    between atoms: C_23  and  C_24
    9  A    between atoms: C_24  and  O_30
   10  A    between atoms: C_27  and  C_34
   11  A    between atoms: C_27  and  P_40
   12  A    between atoms: O_30  and  C_32
   13  A    between atoms: C_36  and  C_37
   14  A    between atoms: C_37  and  N_46
                            x       y       z     vdW  Elec       q    Type
                         _______ _______ _______ _____ _____    ______ ____

>  <TORSDO>
F 14

$$$$
=
 OpenBabel11042415333D

 47 51  0  0  1  0  0  0  0  0999 V2000
  194.2130  176.1310  146.2430 C   0  0  0  0  0  2  0  0  0  0  0  0
  192.8960  176.8700  145.9670 C   0  0  2  0  0  3  0  0  0  0  0  0
  194.1890  173.7870  143.1280 C   0  0  2  0  0  3  0  0  0  0  0  0
  193.7330  175.8600  141.9830 C   0  0  0  0  0  3  0  0  0  0  0  0
  194.0940  174.6130  146.1570 C   0  0  0  0  0  2  0  0  0  0  0  0
  195.8250  172.3260  143.5480 C   0  0  0  0  0  0  0  0  0  0  0  0
  191.7480  176.4430  146.8640 C   0  0  0  0  0  2  0  0  0  0  0  0
  190.8870  177.1020  144.7720 C   0  0  2  0  0  3  0  0  0  0  0  0
  195.0790  174.1240  140.8660 C   0  0  0  0  0  3  0  0  0  0  0  0
  194.6480  175.3980  140.9100 C   0  0  0  0  0  3  0  0  0  0  0  0
  194.5760  173.1010  141.8570 C   0  0  1  0  0  3  0  0  0  0  0  0
  195.2960  174.0810  145.3990 C   0  0  0  0  0  2  0  0  0  0  0  0
  195.6420  172.2030  142.2750 N   0  0  0  0  0  0  0  0  0  0  0  0
  193.5050  175.0880  143.0550 C   0  0  0  0  0  0  0  0  0  0  0  0
  192.3610  176.7930  144.5450 C   0  0  2  0  0  3  0  0  0  0  0  0
  192.5240  175.4390  144.0290 N   0  0  0  0  0  2  0  0  0  0  0  0
  194.9480  173.3390  144.1330 C   0  0  1  0  0  3  0  0  0  0  0  0
  190.5110  176.5840  146.0920 N   0  0  0  0  0  0  0  0  0  0  0  0
  189.4470  177.5550  142.7780 C   0  0  0  0  0  3  0  0  0  0  0  0
  189.6700  175.2630  143.5230 C   0  0  0  0  0  3  0  0  0  0  0  0
  189.9700  176.6240  143.6810 C   0  0  0  0  0  0  0  0  0  0  0  0
  188.6190  177.1340  141.7340 C   0  0  0  0  0  3  0  0  0  0  0  0
  188.3120  175.7730  141.5780 C   0  0  0  0  0  0  0  0  0  0  0  0
  188.8420  174.8420  142.4780 C   0  0  0  0  0  3  0  0  0  0  0  0
  187.4890  175.3200  140.5440 O   0  0  0  0  0  0  0  0  0  0  0  0
  187.9950  174.9390  139.2710 C   0  0  0  0  0  2  0  0  0  0  0  0
  189.7500  173.3680  138.9270 O   0  0  0  0  0  0  0  0  0  0  0  0
  187.8390  172.5280  139.8750 O   0  0  0  0  0  1  0  0  0  0  0  0
  188.5870  173.5780  139.3580 C   0  0  0  0  0  0  0  0  0  0  0  0
  197.9340  172.0780  144.6070 O   0  0  0  0  0  0  0  0  0  0  0  0
  196.5820  170.1790  144.6000 N   0  0  0  0  0  2  0  0  0  0  0  0
  196.8430  171.5450  144.2710 C   0  0  0  0  0  0  0  0  0  0  0  0
  197.5400  169.3650  145.3340 C   0  0  0  0  0  2  0  0  0  0  0  0
  196.8320  168.1950  145.9910 C   0  0  0  0  0  2  0  0  0  0  0  0
  195.6020  168.2790  148.0240 O   0  0  0  0  0  1  0  0  0  0  0  0
  195.5680  168.6680  146.6860 C   0  0  0  0  0  2  0  0  0  0  0  0
  189.6050  177.5180  146.7710 C   0  0  0  0  0  2  0  0  0  0  0  0
  188.1840  176.9740  146.9490 C   0  0  0  0  0  2  0  0  0  0  0  0
  187.3210  177.3720  145.7640 C   0  0  0  0  0  2  0  0  0  0  0  0
  185.6580  176.6460  147.4810 C   0  0  0  0  0  1  0  0  0  0  0  0
  185.8540  177.0700  146.0350 C   0  0  1  0  0  3  0  0  0  0  0  0
  184.3920  178.8430  146.6010 O   0  0  0  0  0  0  0  0  0  0  0  0
  185.0050  178.2610  145.7190 C   0  0  0  0  0  0  0  0  0  0  0  0
  185.5920  180.3790  143.9040 O   0  0  0  0  0  1  0  0  0  0  0  0
  185.6230  177.8840  143.1170 O   0  0  0  0  0  0  0  0  0  0  0  0
  184.8930  178.8430  144.0290 P   0  0  0  0  0  0  0  0  0  0  0  0
  183.2680  178.9280  143.5710 O   0  0  0  0  0  1  0  0  0  0  0  0
  2  1  1  6  0  0  0
  2  7  1  0  0  0  0
  3 14  1  6  0  0  0
  3 17  1  0  0  0  0
  4 14  2  0  0  0  0
  5  1  1  0  0  0  0
  6 17  1  0  0  0  0
  6 32  1  0  0  0  0
  8 21  1  6  0  0  0
  8 18  1  0  0  0  0
  9 10  2  0  0  0  0
 10  4  1  0  0  0  0
 11  9  1  6  0  0  0
 11 13  1  0  0  0  0
 11  3  1  0  0  0  0
 12  5  1  0  0  0  0
 13  6  2  0  0  0  0
 14 16  1  0  0  0  0
 15 16  1  1  0  0  0
 15  8  1  0  0  0  0
 15  2  1  0  0  0  0
 17 12  1  6  0  0  0
 18 37  1  0  0  0  0
 18  7  1  0  0  0  0
 19 21  1  0  0  0  0
 20 21  2  0  0  0  0
 22 19  2  0  0  0  0
 23 22  1  0  0  0  0
 23 24  2  0  0  0  0
 24 20  1  0  0  0  0
 25 23  1  0  0  0  0
 26 29  1  0  0  0  0
 26 25  1  0  0  0  0
 27 29  2  0  0  0  0
 29 28  1  0  0  0  0
 31 33  1  0  0  0  0
 32 31  1  0  0  0  0
 32 30  2  0  0  0  0
 33 34  1  0  0  0  0
 34 36  1  0  0  0  0
 36 35  1  0  0  0  0
 37 38  1  0  0  0  0
 39 41  1  0  0  0  0
 39 38  1  0  0  0  0
 41 40  1  1  0  0  0
 43 41  1  0  0  0  0
 43 42  2  0  0  0  0
 44 46  1  0  0  0  0
 45 46  2  0  0  0  0
 46 43  1  0  0  0  0
 47 46  1  0  0  0  0
M  END
>  <MODEL>
6

>  <REMARK>
 VINA RESULT:      -6.2      3.328      9.490
  Name = 
  14 active torsions:
  status: ('A' for Active; 'I' for Inactive)
    1  A    between atoms: N_9  and  C_14
    2  A    between atoms: C_10  and  C_14
    3  A    between atoms: C_10  and  C_47
    4  A    between atoms: C_13  and  C_39
    5  A    between atoms: C_16  and  C_26
    6  A    between atoms: C_22  and  C_34
    7  A    between atoms: C_22  and  C_36
    8  A    between atoms: C_23  and  C_24
    9  A    between atoms: C_24  and  O_30
   10  A    between atoms: C_27  and  C_34
   11  A    between atoms: C_27  and  P_40
   12  A    between atoms: O_30  and  C_32
   13  A    between atoms: C_36  and  C_37
   14  A    between atoms: C_37  and  N_46
                            x       y       z     vdW  Elec       q    Type
                         _______ _______ _______ _____ _____    ______ ____

>  <TORSDO>
F 14

$$$$
=
 OpenBabel11042415333D

 47 51  0  0  1  0  0  0  0  0999 V2000
  188.2540  173.0310  141.1370 C   0  0  0  0  0  2  0  0  0  0  0  0
  188.8720  173.0810  142.5410 C   0  0  2  0  0  3  0  0  0  0  0  0
  191.5400  173.4270  139.0790 C   0  0  2  0  0  3  0  0  0  0  0  0
  192.2880  171.6740  140.5560 C   0  0  0  0  0  3  0  0  0  0  0  0
  188.7110  174.1640  140.2250 C   0  0  0  0  0  2  0  0  0  0  0  0
  190.8240  173.7930  136.9950 C   0  0  0  0  0  0  0  0  0  0  0  0
  188.6350  174.3900  143.2740 C   0  0  0  0  0  2  0  0  0  0  0  0
  190.6960  173.4810  143.9660 C   0  0  2  0  0  3  0  0  0  0  0  0
  193.1130  171.7420  138.2360 C   0  0  0  0  0  3  0  0  0  0  0  0
  192.9700  171.0630  139.3880 C   0  0  0  0  0  3  0  0  0  0  0  0
  192.6610  173.1790  138.1210 C   0  0  1  0  0  3  0  0  0  0  0  0
  189.0130  173.5850  138.8550 C   0  0  0  0  0  2  0  0  0  0  0  0
  192.0550  173.4390  136.8240 N   0  0  0  0  0  0  0  0  0  0  0  0
  191.5980  172.8140  140.4160 C   0  0  0  0  0  0  0  0  0  0  0  0
  190.3670  172.8190  142.6330 C   0  0  2  0  0  3  0  0  0  0  0  0
  191.0560  173.4990  141.5430 N   0  0  0  0  0  2  0  0  0  0  0  0
  190.4390  173.7740  138.4060 C   0  0  1  0  0  3  0  0  0  0  0  0
  189.7900  174.6210  144.1430 N   0  0  0  0  0  0  0  0  0  0  0  0
  193.0980  172.8430  144.2460 C   0  0  0  0  0  3  0  0  0  0  0  0
  192.5510  175.1980  144.1480 C   0  0  0  0  0  3  0  0  0  0  0  0
  192.1410  173.8570  144.1390 C   0  0  0  0  0  0  0  0  0  0  0  0
  194.4520  173.1640  144.3740 C   0  0  0  0  0  3  0  0  0  0  0  0
  194.8630  174.5060  144.3900 C   0  0  0  0  0  0  0  0  0  0  0  0
  193.9050  175.5190  144.2760 C   0  0  0  0  0  3  0  0  0  0  0  0
  196.2100  174.8590  144.5150 O   0  0  0  0  0  0  0  0  0  0  0  0
  197.1250  174.7900  143.4300 C   0  0  0  0  0  2  0  0  0  0  0  0
  197.1890  177.1580  143.2010 O   0  0  0  0  0  1  0  0  0  0  0  0
  196.7840  175.9850  141.2730 O   0  0  0  0  0  0  0  0  0  0  0  0
  197.0510  176.0430  142.6340 C   0  0  0  0  0  0  0  0  0  0  0  0
  189.6460  173.2470  135.0100 O   0  0  0  0  0  0  0  0  0  0  0  0
  189.4100  175.4460  135.7470 N   0  0  0  0  0  2  0  0  0  0  0  0
  189.9410  174.1240  135.8650 C   0  0  0  0  0  0  0  0  0  0  0  0
  188.5130  175.8240  134.6650 C   0  0  0  0  0  2  0  0  0  0  0  0
  187.0980  175.9770  135.1920 C   0  0  0  0  0  2  0  0  0  0  0  0
  185.8310  176.1280  137.1980 O   0  0  0  0  0  1  0  0  0  0  0  0
  187.0640  175.7240  136.6880 C   0  0  0  0  0  2  0  0  0  0  0  0
  189.3520  174.7150  145.5410 C   0  0  0  0  0  2  0  0  0  0  0  0
  189.1290  176.1530  146.0190 C   0  0  0  0  0  2  0  0  0  0  0  0
  187.6440  176.4710  146.0400 C   0  0  0  0  0  2  0  0  0  0  0  0
  188.4700  177.9110  144.1730 C   0  0  0  0  0  1  0  0  0  0  0  0
  187.3320  177.6650  145.1480 C   0  0  1  0  0  3  0  0  0  0  0  0
  185.8530  176.4150  143.7890 O   0  0  0  0  0  0  0  0  0  0  0  0
  186.0490  177.4480  144.4100 C   0  0  0  0  0  0  0  0  0  0  0  0
  183.6760  178.4550  143.1930 O   0  0  0  0  0  0  0  0  0  0  0  0
  184.0610  178.6660  145.7730 O   0  0  0  0  0  1  0  0  0  0  0  0
  184.7830  178.7150  144.4460 P   0  0  0  0  0  0  0  0  0  0  0  0
  185.5020  180.2330  144.2530 O   0  0  0  0  0  1  0  0  0  0  0  0
  2  1  1  6  0  0  0
  2 15  1  0  0  0  0
  2  7  1  0  0  0  0
  3 14  1  6  0  0  0
  5  1  1  0  0  0  0
  6 17  1  0  0  0  0
  7 18  1  0  0  0  0
  8 21  1  6  0  0  0
  8 18  1  0  0  0  0
  9 10  2  0  0  0  0
 10  4  1  0  0  0  0
 11  9  1  6  0  0  0
 11  3  1  0  0  0  0
 12  5  1  0  0  0  0
 13  6  2  0  0  0  0
 13 11  1  0  0  0  0
 14  4  2  0  0  0  0
 14 16  1  0  0  0  0
 15 16  1  6  0  0  0
 15  8  1  0  0  0  0
 17 12  1  6  0  0  0
 17  3  1  0  0  0  0
 18 37  1  0  0  0  0
 19 22  1  0  0  0  0
 20 24  2  0  0  0  0
 21 20  1  0  0  0  0
 21 19  2  0  0  0  0
 22 23  2  0  0  0  0
 23 25  1  0  0  0  0
 24 23  1  0  0  0  0
 26 25  1  0  0  0  0
 28 29  2  0  0  0  0
 29 27  1  0  0  0  0
 29 26  1  0  0  0  0
 30 32  2  0  0  0  0
 31 32  1  0  0  0  0
 32  6  1  0  0  0  0
 33 34  1  0  0  0  0
 33 31  1  0  0  0  0
 34 36  1  0  0  0  0
 36 35  1  0  0  0  0
 37 38  1  0  0  0  0
 38 39  1  0  0  0  0
 41 40  1  6  0  0  0
 41 39  1  0  0  0  0
 42 43  2  0  0  0  0
 43 46  1  0  0  0  0
 43 41  1  0  0  0  0
 44 46  2  0  0  0  0
 46 45  1  0  0  0  0
 47 46  1  0  0  0  0
M  END
>  <MODEL>
7

>  <REMARK>
 VINA RESULT:      -6.0      4.026      8.155
  Name = 
  14 active torsions:
  status: ('A' for Active; 'I' for Inactive)
    1  A    between atoms: N_9  and  C_14
    2  A    between atoms: C_10  and  C_14
    3  A    between atoms: C_10  and  C_47
    4  A    between atoms: C_13  and  C_39
    5  A    between atoms: C_16  and  C_26
    6  A    between atoms: C_22  and  C_34
    7  A    between atoms: C_22  and  C_36
    8  A    between atoms: C_23  and  C_24
    9  A    between atoms: C_24  and  O_30
   10  A    between atoms: C_27  and  C_34
   11  A    between atoms: C_27  and  P_40
   12  A    between atoms: O_30  and  C_32
   13  A    between atoms: C_36  and  C_37
   14  A    between atoms: C_37  and  N_46
                            x       y       z     vdW  Elec       q    Type
                         _______ _______ _______ _____ _____    ______ ____

>  <TORSDO>
F 14

$$$$
=
 OpenBabel11042415333D

 47 51  0  0  1  0  0  0  0  0999 V2000
  189.3770  174.9850  141.6180 C   0  0  0  0  0  2  0  0  0  0  0  0
  190.3570  173.8990  141.1560 C   0  0  2  0  0  3  0  0  0  0  0  0
  190.2080  174.8860  145.4250 C   0  0  2  0  0  3  0  0  0  0  0  0
  192.4690  175.0260  144.5990 C   0  0  0  0  0  3  0  0  0  0  0  0
  188.5110  174.5660  142.8020 C   0  0  0  0  0  2  0  0  0  0  0  0
  188.5900  176.1130  146.3570 C   0  0  0  0  0  0  0  0  0  0  0  0
  189.6960  172.5780  140.8020 C   0  0  0  0  0  2  0  0  0  0  0  0
  191.8610  172.1570  141.6290 C   0  0  2  0  0  3  0  0  0  0  0  0
  191.8840  176.1170  146.7290 C   0  0  0  0  0  3  0  0  0  0  0  0
  192.7560  175.9590  145.7170 C   0  0  0  0  0  3  0  0  0  0  0  0
  190.6240  175.2870  146.8050 C   0  0  1  0  0  3  0  0  0  0  0  0
  188.4530  175.7200  143.7850 C   0  0  0  0  0  2  0  0  0  0  0  0
  189.4980  176.0780  147.2760 N   0  0  0  0  0  0  0  0  0  0  0  0
  191.2440  174.5030  144.4530 C   0  0  0  0  0  0  0  0  0  0  0  0
  191.4870  173.5520  142.1140 C   0  0  2  0  0  3  0  0  0  0  0  0
  190.9760  173.4960  143.4790 N   0  0  0  0  0  2  0  0  0  0  0  0
  189.0030  175.3960  145.1510 C   0  0  1  0  0  3  0  0  0  0  0  0
  190.6470  171.5110  141.1180 N   0  0  0  0  0  0  0  0  0  0  0  0
  192.0410  170.0760  143.0040 C   0  0  0  0  0  3  0  0  0  0  0  0
  193.8070  171.7200  143.1920 C   0  0  0  0  0  3  0  0  0  0  0  0
  192.5830  171.3140  142.6420 C   0  0  0  0  0  0  0  0  0  0  0  0
  192.7070  169.2570  143.9190 C   0  0  0  0  0  3  0  0  0  0  0  0
  193.9300  169.6650  144.4760 C   0  0  0  0  0  0  0  0  0  0  0  0
  194.4740  170.9000  144.1070 C   0  0  0  0  0  3  0  0  0  0  0  0
  194.6210  168.8670  145.3910 O   0  0  0  0  0  0  0  0  0  0  0  0
  194.9240  169.2990  146.7110 C   0  0  0  0  0  2  0  0  0  0  0  0
  196.8830  168.5490  147.8370 O   0  0  0  0  0  1  0  0  0  0  0  0
  197.2270  170.0520  146.1390 O   0  0  0  0  0  0  0  0  0  0  0  0
  196.3950  169.2630  146.9220 C   0  0  0  0  0  0  0  0  0  0  0  0
  186.5160  176.5010  147.4420 O   0  0  0  0  0  0  0  0  0  0  0  0
  187.0170  177.9460  145.6820 N   0  0  0  0  0  2  0  0  0  0  0  0
  187.3230  176.8410  146.5350 C   0  0  0  0  0  0  0  0  0  0  0  0
  185.7920  178.7170  145.8270 C   0  0  0  0  0  2  0  0  0  0  0  0
  185.4790  179.4440  144.5320 C   0  0  0  0  0  2  0  0  0  0  0  0
  186.5030  179.0340  142.4250 O   0  0  0  0  0  1  0  0  0  0  0  0
  185.6110  178.4980  143.3530 C   0  0  0  0  0  2  0  0  0  0  0  0
  190.9480  170.7370  139.9080 C   0  0  0  0  0  2  0  0  0  0  0  0
  189.7980  170.7090  138.8960 C   0  0  0  0  0  2  0  0  0  0  0  0
  190.1990  169.9000  137.6750 C   0  0  0  0  0  2  0  0  0  0  0  0
  191.5470  169.8990  135.5720 C   0  0  0  0  0  1  0  0  0  0  0  0
  190.9720  170.7590  136.6840 C   0  0  1  0  0  3  0  0  0  0  0  0
  189.1080  171.5410  135.4550 O   0  0  0  0  0  0  0  0  0  0  0  0
  190.0930  171.8280  136.1180 C   0  0  0  0  0  0  0  0  0  0  0  0
  189.0590  174.4520  136.5320 O   0  0  0  0  0  1  0  0  0  0  0  0
  191.2540  173.6670  137.7190 O   0  0  0  0  0  1  0  0  0  0  0  0
  190.4860  173.5490  136.4240 P   0  0  0  0  0  0  0  0  0  0  0  0
  191.4310  174.1440  135.1530 O   0  0  0  0  0  0  0  0  0  0  0  0
  1  5  1  0  0  0  0
  2  7  1  1  0  0  0
  2  1  1  0  0  0  0
  2 15  1  0  0  0  0
  3 14  1  6  0  0  0
  3 11  1  0  0  0  0
  4 10  1  0  0  0  0
  5 12  1  0  0  0  0
  6 32  1  0  0  0  0
  6 13  2  0  0  0  0
  7 18  1  0  0  0  0
  8 15  1  0  0  0  0
  8 21  1  1  0  0  0
 10  9  2  0  0  0  0
 11  9  1  6  0  0  0
 11 13  1  0  0  0  0
 14  4  2  0  0  0  0
 15 16  1  1  0  0  0
 16 14  1  0  0  0  0
 17 12  1  6  0  0  0
 17  3  1  0  0  0  0
 17  6  1  0  0  0  0
 18  8  1  0  0  0  0
 19 22  1  0  0  0  0
 20 24  2  0  0  0  0
 21 19  2  0  0  0  0
 21 20  1  0  0  0  0
 22 23  2  0  0  0  0
 23 25  1  0  0  0  0
 24 23  1  0  0  0  0
 25 26  1  0  0  0  0
 26 29  1  0  0  0  0
 28 29  2  0  0  0  0
 29 27  1  0  0  0  0
 31 33  1  0  0  0  0
 31 32  1  0  0  0  0
 32 30  2  0  0  0  0
 34 33  1  0  0  0  0
 35 36  1  0  0  0  0
 36 34  1  0  0  0  0
 37 18  1  0  0  0  0
 38 37  1  0  0  0  0
 39 38  1  0  0  0  0
 41 40  1  6  0  0  0
 41 39  1  0  0  0  0
 42 43  2  0  0  0  0
 43 46  1  0  0  0  0
 43 41  1  0  0  0  0
 46 44  1  0  0  0  0
 46 45  1  0  0  0  0
 47 46  2  0  0  0  0
M  END
>  <MODEL>
8

>  <REMARK>
 VINA RESULT:      -5.9      3.717      7.380
  Name = 
  14 active torsions:
  status: ('A' for Active; 'I' for Inactive)
    1  A    between atoms: N_9  and  C_14
    2  A    between atoms: C_10  and  C_14
    3  A    between atoms: C_10  and  C_47
    4  A    between atoms: C_13  and  C_39
    5  A    between atoms: C_16  and  C_26
    6  A    between atoms: C_22  and  C_34
    7  A    between atoms: C_22  and  C_36
    8  A    between atoms: C_23  and  C_24
    9  A    between atoms: C_24  and  O_30
   10  A    between atoms: C_27  and  C_34
   11  A    between atoms: C_27  and  P_40
   12  A    between atoms: O_30  and  C_32
   13  A    between atoms: C_36  and  C_37
   14  A    between atoms: C_37  and  N_46
                            x       y       z     vdW  Elec       q    Type
                         _______ _______ _______ _____ _____    ______ ____

>  <TORSDO>
F 14

$$$$
=
 OpenBabel11042415333D

 47 51  0  0  1  0  0  0  0  0999 V2000
  192.0700  177.1080  142.7670 C   0  0  0  0  0  2  0  0  0  0  0  0
  193.2440  176.1300  142.6340 C   0  0  2  0  0  3  0  0  0  0  0  0
  190.1410  175.2640  145.6080 C   0  0  2  0  0  3  0  0  0  0  0  0
  192.3250  175.2460  146.6290 C   0  0  0  0  0  3  0  0  0  0  0  0
  190.7020  176.4320  142.7480 C   0  0  0  0  0  2  0  0  0  0  0  0
  188.1680  176.3090  145.6790 C   0  0  0  0  0  0  0  0  0  0  0  0
  193.1790  175.2510  141.3970 C   0  0  0  0  0  2  0  0  0  0  0  0
  194.2640  174.0710  143.1240 C   0  0  2  0  0  3  0  0  0  0  0  0
  190.3220  175.4530  148.0490 C   0  0  0  0  0  3  0  0  0  0  0  0
  191.6580  175.5450  147.9210 C   0  0  0  0  0  3  0  0  0  0  0  0
  189.4660  174.9570  146.9070 C   0  0  1  0  0  3  0  0  0  0  0  0
  189.8440  177.0580  143.8310 C   0  0  0  0  0  2  0  0  0  0  0  0
  188.2200  175.7030  146.8190 N   0  0  0  0  0  0  0  0  0  0  0  0
  191.6010  175.1070  145.5100 C   0  0  0  0  0  0  0  0  0  0  0  0
  193.4740  175.1840  143.8020 C   0  0  2  0  0  3  0  0  0  0  0  0
  192.1960  174.6780  144.2870 N   0  0  0  0  0  2  0  0  0  0  0  0
  189.3760  176.0870  144.8840 C   0  0  1  0  0  3  0  0  0  0  0  0
  193.8080  173.9720  141.7330 N   0  0  0  0  0  0  0  0  0  0  0  0
  193.3140  171.7770  143.4230 C   0  0  0  0  0  3  0  0  0  0  0  0
  195.1210  172.4590  144.8820 C   0  0  0  0  0  3  0  0  0  0  0  0
  194.2280  172.7500  143.8400 C   0  0  0  0  0  0  0  0  0  0  0  0
  193.2810  170.5280  144.0490 C   0  0  0  0  0  3  0  0  0  0  0  0
  194.1700  170.2370  145.0970 C   0  0  0  0  0  0  0  0  0  0  0  0
  195.0890  171.2100  145.5080 C   0  0  0  0  0  3  0  0  0  0  0  0
  194.1630  168.9980  145.7410 O   0  0  0  0  0  0  0  0  0  0  0  0
  195.3440  168.2350  145.9500 C   0  0  0  0  0  2  0  0  0  0  0  0
  196.8710  168.1820  147.7760 O   0  0  0  0  0  0  0  0  0  0  0  0
  194.6490  168.1660  148.3390 O   0  0  0  0  0  1  0  0  0  0  0  0
  195.6700  168.2080  147.4000 C   0  0  0  0  0  0  0  0  0  0  0  0
  186.7530  178.1950  145.9440 O   0  0  0  0  0  0  0  0  0  0  0  0
  186.2260  176.7830  144.1650 N   0  0  0  0  0  2  0  0  0  0  0  0
  187.0240  177.1510  145.2920 C   0  0  0  0  0  0  0  0  0  0  0  0
  185.0980  177.5880  143.7220 C   0  0  0  0  0  2  0  0  0  0  0  0
  185.2440  177.9210  142.2480 C   0  0  0  0  0  2  0  0  0  0  0  0
  187.4140  178.2410  141.3310 O   0  0  0  0  0  1  0  0  0  0  0  0
  186.4870  177.2610  141.6810 C   0  0  0  0  0  2  0  0  0  0  0  0
  194.9450  173.7250  140.8370 C   0  0  0  0  0  2  0  0  0  0  0  0
  194.5460  173.0900  139.5020 C   0  0  0  0  0  2  0  0  0  0  0  0
  193.9320  171.7210  139.7380 C   0  0  0  0  0  2  0  0  0  0  0  0
  192.5630  170.0800  138.4450 C   0  0  0  0  0  1  0  0  0  0  0  0
  192.6880  171.5290  138.8830 C   0  0  1  0  0  3  0  0  0  0  0  0
  191.2100  171.4900  140.7300 O   0  0  0  0  0  0  0  0  0  0  0  0
  191.4650  171.9570  139.6300 C   0  0  0  0  0  0  0  0  0  0  0  0
  191.1710  174.0110  137.6760 O   0  0  0  0  0  0  0  0  0  0  0  0
  189.1550  172.4770  138.3320 O   0  0  0  0  0  1  0  0  0  0  0  0
  190.3670  173.1730  138.9070 P   0  0  0  0  0  0  0  0  0  0  0  0
  189.8750  174.2650  140.1000 O   0  0  0  0  0  1  0  0  0  0  0  0
  2  7  1  6  0  0  0
  2  1  1  0  0  0  0
  2 15  1  0  0  0  0
  3 14  1  1  0  0  0
  3 11  1  0  0  0  0
  4 10  1  0  0  0  0
  5  1  1  0  0  0  0
  5 12  1  0  0  0  0
  6 13  2  0  0  0  0
  7 18  1  0  0  0  0
  8 15  1  0  0  0  0
  8 21  1  1  0  0  0
 10  9  2  0  0  0  0
 11  9  1  1  0  0  0
 13 11  1  0  0  0  0
 14  4  2  0  0  0  0
 15 16  1  6  0  0  0
 16 14  1  0  0  0  0
 17 12  1  1  0  0  0
 17  3  1  0  0  0  0
 17  6  1  0  0  0  0
 18  8  1  0  0  0  0
 19 21  2  0  0  0  0
 19 22  1  0  0  0  0
 20 24  2  0  0  0  0
 21 20  1  0  0  0  0
 22 23  2  0  0  0  0
 23 24  1  0  0  0  0
 23 25  1  0  0  0  0
 25 26  1  0  0  0  0
 26 29  1  0  0  0  0
 29 27  2  0  0  0  0
 29 28  1  0  0  0  0
 31 32  1  0  0  0  0
 32  6  1  0  0  0  0
 32 30  2  0  0  0  0
 33 31  1  0  0  0  0
 34 33  1  0  0  0  0
 35 36  1  0  0  0  0
 36 34  1  0  0  0  0
 37 18  1  0  0  0  0
 38 39  1  0  0  0  0
 38 37  1  0  0  0  0
 41 40  1  1  0  0  0
 41 43  1  0  0  0  0
 41 39  1  0  0  0  0
 43 42  2  0  0  0  0
 44 46  2  0  0  0  0
 45 46  1  0  0  0  0
 46 43  1  0  0  0  0
 46 47  1  0  0  0  0
M  END
>  <MODEL>
9

>  <REMARK>
 VINA RESULT:      -5.8      2.986      6.468
  Name = 
  14 active torsions:
  status: ('A' for Active; 'I' for Inactive)
    1  A    between atoms: N_9  and  C_14
    2  A    between atoms: C_10  and  C_14
    3  A    between atoms: C_10  and  C_47
    4  A    between atoms: C_13  and  C_39
    5  A    between atoms: C_16  and  C_26
    6  A    between atoms: C_22  and  C_34
    7  A    between atoms: C_22  and  C_36
    8  A    between atoms: C_23  and  C_24
    9  A    between atoms: C_24  and  O_30
   10  A    between atoms: C_27  and  C_34
   11  A    between atoms: C_27  and  P_40
   12  A    between atoms: O_30  and  C_32
   13  A    between atoms: C_36  and  C_37
   14  A    between atoms: C_37  and  N_46
                            x       y       z     vdW  Elec       q    Type
                         _______ _______ _______ _____ _____    ______ ____

>  <TORSDO>
F 14

$$$$
