=
 OpenBabel11042418253D

 28 31  0  0  1  0  0  0  0  0999 V2000
  185.2060  178.3020  143.1150 C   0  0  0  0  0  0  0  0  0  0  0  0
  189.5130  177.0440  144.0990 N   0  0  0  0  0  0  0  0  0  0  0  0
  184.4320  178.4730  146.6320 C   0  0  0  0  0  3  0  0  0  0  0  0
  189.6940  177.4030  142.7210 C   0  0  0  0  0  0  0  0  0  0  0  0
  188.6240  177.4500  141.8090 O   0  0  0  0  0  0  0  0  0  0  0  0
  188.2370  177.1510  145.9180 C   0  0  0  0  0  0  0  0  0  0  0  0
  189.3480  177.6770  146.3210 N   0  0  0  0  0  0  0  0  0  0  0  0
  186.6380  178.5250  142.7180 C   0  0  0  0  0  2  0  0  0  0  0  0
  186.9670  177.2100  146.6400 C   0  0  2  0  0  3  0  0  0  0  0  0
  184.8130  177.5130  145.5740 C   0  0  0  0  0  0  0  0  0  0  0  0
  188.2970  176.7100  144.6170 O   0  0  0  0  0  0  0  0  0  0  0  0
  184.9520  177.9300  144.3420 C   0  0  0  0  0  0  0  0  0  0  0  0
  185.8020  176.4890  146.0190 C   0  0  0  0  0  2  0  0  0  0  0  0
  187.2510  177.2500  142.1460 C   0  0  0  0  0  2  0  0  0  0  0  0
  186.7230  178.2470  147.4620 C   0  0  0  0  0  2  0  0  0  0  0  0
  185.3420  178.7850  147.5730 C   0  0  0  0  0  3  0  0  0  0  0  0
  190.8460  177.6980  142.3100 O   0  0  0  0  0  0  0  0  0  0  0  0
  190.2910  177.6170  145.1960 C   0  0  1  0  0  3  0  0  0  0  0  0
  193.7960  176.1800  145.2030 C   0  0  0  0  0  3  0  0  0  0  0  0
  191.3400  175.6880  146.4460 C   0  0  0  0  0  3  0  0  0  0  0  0
  193.6730  175.1290  146.1160 C   0  0  0  0  0  0  0  0  0  0  0  0
  192.4450  174.8840  146.7380 C   0  0  0  0  0  3  0  0  0  0  0  0
  191.4600  176.7440  145.5300 C   0  0  0  0  0  0  0  0  0  0  0  0
  194.7440  174.3500  146.4000 F   0  0  0  0  0  0  0  0  0  0  0  0
  192.6920  176.9850  144.9100 C   0  0  0  0  0  3  0  0  0  0  0  0
  184.1220  178.4190  142.1270 C   0  0  0  0  0  0  0  0  0  0  0  0
  182.9190  178.3970  142.5010 O   0  0  0  0  0  1  0  0  0  0  0  0
  184.4110  178.5500  140.7730 O   0  0  0  0  0  0  0  0  0  0  0  0
  1 12  2  0  0  0  0
  2 11  1  0  0  0  0
  2 18  1  0  0  0  0
  3 16  2  0  0  0  0
  4  2  1  0  0  0  0
  5 14  1  0  0  0  0
  5  4  1  0  0  0  0
  6  7  2  0  0  0  0
  6  9  1  0  0  0  0
  8  1  1  0  0  0  0
  9 13  1  6  0  0  0
  9 15  1  0  0  0  0
 10 13  1  0  0  0  0
 10  3  1  0  0  0  0
 11  6  1  0  0  0  0
 12 10  2  0  0  0  0
 14  8  1  0  0  0  0
 15 16  1  0  0  0  0
 17  4  2  0  0  0  0
 18 23  1  1  0  0  0
 18  7  1  0  0  0  0
 19 21  1  0  0  0  0
 20 22  1  0  0  0  0
 21 24  1  0  0  0  0
 21 22  2  0  0  0  0
 23 20  2  0  0  0  0
 25 19  2  0  0  0  0
 25 23  1  0  0  0  0
 26 27  1  0  0  0  0
 26  1  1  0  0  0  0
 28 26  2  0  0  0  0
M  END
>  <MODEL>
1

>  <REMARK>
 VINA RESULT:      -9.0      0.000      0.000
  Name = 
  2 active torsions:
  status: ('A' for Active; 'I' for Inactive)
    1  A    between atoms: C_1  and  C_20
    2  A    between atoms: C_24  and  C_26
                            x       y       z     vdW  Elec       q    Type
                         _______ _______ _______ _____ _____    ______ ____

>  <TORSDO>
F 2

$$$$
=
 OpenBabel11042418253D

 28 31  0  0  1  0  0  0  0  0999 V2000
  185.4720  177.8950  144.6170 C   0  0  0  0  0  0  0  0  0  0  0  0
  189.3150  175.5790  145.6040 N   0  0  0  0  0  0  0  0  0  0  0  0
  186.2880  177.7900  141.1070 C   0  0  0  0  0  3  0  0  0  0  0  0
  188.6260  175.4120  146.8520 C   0  0  0  0  0  0  0  0  0  0  0  0
  187.5900  176.2720  147.2610 O   0  0  0  0  0  0  0  0  0  0  0  0
  189.2000  176.1300  143.4520 C   0  0  0  0  0  0  0  0  0  0  0  0
  189.6580  174.9210  143.4100 N   0  0  0  0  0  0  0  0  0  0  0  0
  186.0150  176.7910  145.4790 C   0  0  0  0  0  2  0  0  0  0  0  0
  188.6860  176.8750  142.3040 C   0  0  2  0  0  3  0  0  0  0  0  0
  186.7630  178.3470  142.3910 C   0  0  0  0  0  0  0  0  0  0  0  0
  189.0260  176.5900  144.7360 O   0  0  0  0  0  0  0  0  0  0  0  0
  186.0670  178.1460  143.4800 C   0  0  0  0  0  0  0  0  0  0  0  0
  188.2440  178.2910  142.5590 C   0  0  0  0  0  2  0  0  0  0  0  0
  187.0430  177.3280  146.4720 C   0  0  0  0  0  2  0  0  0  0  0  0
  188.1450  176.2060  141.2710 C   0  0  0  0  0  2  0  0  0  0  0  0
  186.9890  176.7900  140.5420 C   0  0  0  0  0  3  0  0  0  0  0  0
  188.9460  174.4570  147.6060 O   0  0  0  0  0  0  0  0  0  0  0  0
  189.8170  174.4670  144.7990 C   0  0  1  0  0  3  0  0  0  0  0  0
  193.1870  172.7410  144.9170 C   0  0  0  0  0  3  0  0  0  0  0  0
  192.0210  175.1010  145.8590 C   0  0  0  0  0  3  0  0  0  0  0  0
  193.9450  173.6450  145.6670 C   0  0  0  0  0  0  0  0  0  0  0  0
  193.3620  174.8250  146.1380 C   0  0  0  0  0  3  0  0  0  0  0  0
  191.2570  174.1970  145.1070 C   0  0  0  0  0  0  0  0  0  0  0  0
  195.2450  173.3770  145.9360 F   0  0  0  0  0  0  0  0  0  0  0  0
  191.8450  173.0170  144.6380 C   0  0  0  0  0  3  0  0  0  0  0  0
  184.3500  178.7280  145.0770 C   0  0  0  0  0  0  0  0  0  0  0  0
  183.6920  179.4160  144.2510 O   0  0  0  0  0  0  0  0  0  0  0  0
  184.0070  178.7710  146.4240 O   0  0  0  0  0  1  0  0  0  0  0  0
  1 26  1  0  0  0  0
  1  8  1  0  0  0  0
  2  4  1  0  0  0  0
  3 10  1  0  0  0  0
  4  5  1  0  0  0  0
  4 17  2  0  0  0  0
  6 11  1  0  0  0  0
  7  6  2  0  0  0  0
  7 18  1  0  0  0  0
  8 14  1  0  0  0  0
  9 15  1  1  0  0  0
  9 13  1  0  0  0  0
  9  6  1  0  0  0  0
 10 13  1  0  0  0  0
 10 12  2  0  0  0  0
 11  2  1  0  0  0  0
 12  1  2  0  0  0  0
 14  5  1  0  0  0  0
 16  3  2  0  0  0  0
 16 15  1  0  0  0  0
 18 23  1  1  0  0  0
 18  2  1  0  0  0  0
 19 21  1  0  0  0  0
 20 22  1  0  0  0  0
 21 24  1  0  0  0  0
 21 22  2  0  0  0  0
 23 20  2  0  0  0  0
 25 19  2  0  0  0  0
 25 23  1  0  0  0  0
 26 28  1  0  0  0  0
 27 26  2  0  0  0  0
M  END
>  <MODEL>
2

>  <REMARK>
 VINA RESULT:      -8.7      1.947      4.011
  Name = 
  2 active torsions:
  status: ('A' for Active; 'I' for Inactive)
    1  A    between atoms: C_1  and  C_20
    2  A    between atoms: C_24  and  C_26
                            x       y       z     vdW  Elec       q    Type
                         _______ _______ _______ _____ _____    ______ ____

>  <TORSDO>
F 2

$$$$
=
 OpenBabel11042418253D

 28 31  0  0  1  0  0  0  0  0999 V2000
  187.1780  177.7490  145.2060 C   0  0  0  0  0  0  0  0  0  0  0  0
  191.2080  175.7190  146.0640 N   0  0  0  0  0  0  0  0  0  0  0  0
  187.4060  176.7790  141.7410 C   0  0  0  0  0  3  0  0  0  0  0  0
  190.7410  175.8690  147.4130 C   0  0  0  0  0  0  0  0  0  0  0  0
  189.7580  176.8100  147.7690 O   0  0  0  0  0  0  0  0  0  0  0  0
  190.7200  175.7250  143.8940 C   0  0  0  0  0  0  0  0  0  0  0  0
  191.2070  174.5400  144.0710 N   0  0  0  0  0  0  0  0  0  0  0  0
  187.8930  176.8870  146.2060 C   0  0  0  0  0  2  0  0  0  0  0  0
  189.9980  176.1690  142.7030 C   0  0  2  0  0  3  0  0  0  0  0  0
  188.0670  177.6310  142.7520 C   0  0  0  0  0  0  0  0  0  0  0  0
  190.7450  176.4880  145.0380 O   0  0  0  0  0  0  0  0  0  0  0  0
  187.5670  177.7090  143.9590 C   0  0  0  0  0  0  0  0  0  0  0  0
  189.5560  177.6070  142.6770 C   0  0  0  0  0  2  0  0  0  0  0  0
  189.0520  177.6440  146.8510 C   0  0  0  0  0  2  0  0  0  0  0  0
  189.3180  175.2700  141.9700 C   0  0  0  0  0  2  0  0  0  0  0  0
  188.0370  175.6660  141.3270 C   0  0  0  0  0  3  0  0  0  0  0  0
  191.2140  175.1260  148.3120 O   0  0  0  0  0  0  0  0  0  0  0  0
  191.6080  174.4400  145.4810 C   0  0  1  0  0  3  0  0  0  0  0  0
  195.0020  172.7580  145.5100 C   0  0  0  0  0  3  0  0  0  0  0  0
  193.9410  175.3140  145.9060 C   0  0  0  0  0  3  0  0  0  0  0  0
  195.8490  173.8270  145.8170 C   0  0  0  0  0  0  0  0  0  0  0  0
  195.3180  175.1050  146.0150 C   0  0  0  0  0  3  0  0  0  0  0  0
  193.0880  174.2440  145.5980 C   0  0  0  0  0  0  0  0  0  0  0  0
  197.1840  173.6240  145.9220 F   0  0  0  0  0  0  0  0  0  0  0  0
  193.6240  172.9660  145.4010 C   0  0  0  0  0  3  0  0  0  0  0  0
  186.1180  178.6780  145.6310 C   0  0  0  0  0  0  0  0  0  0  0  0
  185.7420  179.6040  144.8650 O   0  0  0  0  0  0  0  0  0  0  0  0
  185.5250  178.5480  146.8820 O   0  0  0  0  0  1  0  0  0  0  0  0
  1 26  1  0  0  0  0
  1  8  1  0  0  0  0
  2  4  1  0  0  0  0
  3 10  1  0  0  0  0
  4  5  1  0  0  0  0
  4 17  2  0  0  0  0
  6  7  2  0  0  0  0
  6 11  1  0  0  0  0
  7 18  1  0  0  0  0
  8 14  1  0  0  0  0
  9 15  1  1  0  0  0
  9  6  1  0  0  0  0
 10 12  2  0  0  0  0
 11  2  1  0  0  0  0
 12  1  2  0  0  0  0
 13  9  1  0  0  0  0
 13 10  1  0  0  0  0
 14  5  1  0  0  0  0
 16  3  2  0  0  0  0
 16 15  1  0  0  0  0
 18 23  1  6  0  0  0
 18  2  1  0  0  0  0
 19 21  1  0  0  0  0
 20 22  1  0  0  0  0
 21 24  1  0  0  0  0
 21 22  2  0  0  0  0
 23 20  2  0  0  0  0
 25 19  2  0  0  0  0
 25 23  1  0  0  0  0
 26 28  1  0  0  0  0
 27 26  2  0  0  0  0
M  END
>  <MODEL>
3

>  <REMARK>
 VINA RESULT:      -8.3      2.352      4.501
  Name = 
  2 active torsions:
  status: ('A' for Active; 'I' for Inactive)
    1  A    between atoms: C_1  and  C_20
    2  A    between atoms: C_24  and  C_26
                            x       y       z     vdW  Elec       q    Type
                         _______ _______ _______ _____ _____    ______ ____

>  <TORSDO>
F 2

$$$$
=
 OpenBabel11042418253D

 28 31  0  0  1  0  0  0  0  0999 V2000
  192.8490  173.8360  144.9850 C   0  0  0  0  0  0  0  0  0  0  0  0
  189.1040  176.3720  145.7880 N   0  0  0  0  0  0  0  0  0  0  0  0
  191.5790  172.9580  141.7270 C   0  0  0  0  0  3  0  0  0  0  0  0
  189.9460  176.8760  146.8360 C   0  0  0  0  0  0  0  0  0  0  0  0
  191.0500  176.1560  147.3270 O   0  0  0  0  0  0  0  0  0  0  0  0
  188.9530  175.2380  143.8810 C   0  0  0  0  0  0  0  0  0  0  0  0
  188.4580  176.3900  143.5640 N   0  0  0  0  0  0  0  0  0  0  0  0
  192.3930  175.1430  145.5680 C   0  0  0  0  0  2  0  0  0  0  0  0
  189.3330  174.1950  142.9290 C   0  0  2  0  0  3  0  0  0  0  0  0
  191.2920  172.7890  143.1670 C   0  0  0  0  0  0  0  0  0  0  0  0
  189.3060  175.1550  145.2070 O   0  0  0  0  0  0  0  0  0  0  0  0
  192.1190  173.2810  144.0530 C   0  0  0  0  0  0  0  0  0  0  0  0
  189.8450  172.9040  143.5090 C   0  0  0  0  0  2  0  0  0  0  0  0
  191.5190  174.9160  146.8000 C   0  0  0  0  0  2  0  0  0  0  0  0
  189.7150  174.5420  141.6870 C   0  0  0  0  0  2  0  0  0  0  0  0
  190.7820  173.7650  141.0040 C   0  0  0  0  0  3  0  0  0  0  0  0
  189.7000  178.0080  147.3290 O   0  0  0  0  0  0  0  0  0  0  0  0
  188.4700  177.2170  144.7790 C   0  0  1  0  0  3  0  0  0  0  0  0
  185.1610  179.0500  144.9800 C   0  0  0  0  0  3  0  0  0  0  0  0
  186.3810  176.8190  146.1430 C   0  0  0  0  0  3  0  0  0  0  0  0
  184.4720  178.2920  145.9310 C   0  0  0  0  0  0  0  0  0  0  0  0
  185.0810  177.1770  146.5130 C   0  0  0  0  0  3  0  0  0  0  0  0
  187.0760  177.5770  145.1890 C   0  0  0  0  0  0  0  0  0  0  0  0
  183.2120  178.6390  146.2890 F   0  0  0  0  0  0  0  0  0  0  0  0
  186.4610  178.6920  144.6090 C   0  0  0  0  0  3  0  0  0  0  0  0
  194.0460  173.1550  145.5050 C   0  0  0  0  0  0  0  0  0  0  0  0
  194.0230  171.9140  145.7250 O   0  0  0  0  0  0  0  0  0  0  0  0
  195.2100  173.8700  145.7630 O   0  0  0  0  0  1  0  0  0  0  0  0
  1 26  1  0  0  0  0
  1  8  1  0  0  0  0
  2  4  1  0  0  0  0
  3 10  1  0  0  0  0
  4  5  1  0  0  0  0
  4 17  2  0  0  0  0
  6 11  1  0  0  0  0
  7  6  2  0  0  0  0
  7 18  1  0  0  0  0
  8 14  1  0  0  0  0
  9 15  1  6  0  0  0
  9 13  1  0  0  0  0
  9  6  1  0  0  0  0
 10 13  1  0  0  0  0
 10 12  2  0  0  0  0
 11  2  1  0  0  0  0
 12  1  2  0  0  0  0
 14  5  1  0  0  0  0
 16 15  1  0  0  0  0
 16  3  2  0  0  0  0
 18 23  1  1  0  0  0
 18  2  1  0  0  0  0
 19 21  1  0  0  0  0
 20 22  1  0  0  0  0
 21 24  1  0  0  0  0
 21 22  2  0  0  0  0
 23 20  2  0  0  0  0
 25 19  2  0  0  0  0
 25 23  1  0  0  0  0
 26 27  2  0  0  0  0
 26 28  1  0  0  0  0
M  END
>  <MODEL>
4

>  <REMARK>
 VINA RESULT:      -8.0      3.895      7.816
  Name = 
  2 active torsions:
  status: ('A' for Active; 'I' for Inactive)
    1  A    between atoms: C_1  and  C_20
    2  A    between atoms: C_24  and  C_26
                            x       y       z     vdW  Elec       q    Type
                         _______ _______ _______ _____ _____    ______ ____

>  <TORSDO>
F 2

$$$$
=
 OpenBabel11042418253D

 28 31  0  0  1  0  0  0  0  0999 V2000
  187.1920  177.4160  145.8320 C   0  0  0  0  0  0  0  0  0  0  0  0
  191.5900  176.1210  145.5400 N   0  0  0  0  0  0  0  0  0  0  0  0
  186.7500  176.7720  142.3120 C   0  0  0  0  0  3  0  0  0  0  0  0
  191.4380  176.0780  146.9670 C   0  0  0  0  0  0  0  0  0  0  0  0
  190.4260  176.7880  147.6370 O   0  0  0  0  0  0  0  0  0  0  0  0
  190.6080  176.2000  143.5460 C   0  0  0  0  0  0  0  0  0  0  0  0
  191.3120  175.1170  143.4720 N   0  0  0  0  0  0  0  0  0  0  0  0
  188.2570  176.6300  146.5420 C   0  0  0  0  0  2  0  0  0  0  0  0
  189.5600  176.5890  142.6020 C   0  0  2  0  0  3  0  0  0  0  0  0
  187.4810  177.6530  143.2460 C   0  0  0  0  0  0  0  0  0  0  0  0
  190.7760  176.8640  144.7380 O   0  0  0  0  0  0  0  0  0  0  0  0
  187.2760  177.5440  144.5330 C   0  0  0  0  0  0  0  0  0  0  0  0
  188.8930  177.9160  142.8430 C   0  0  0  0  0  2  0  0  0  0  0  0
  189.3940  177.5410  147.0010 C   0  0  0  0  0  2  0  0  0  0  0  0
  188.8840  175.6360  141.9370 C   0  0  0  0  0  2  0  0  0  0  0  0
  187.4410  175.8320  141.6420 C   0  0  0  0  0  3  0  0  0  0  0  0
  192.2270  175.3710  147.6460 O   0  0  0  0  0  0  0  0  0  0  0  0
  192.0460  174.9880  144.7370 C   0  0  1  0  0  3  0  0  0  0  0  0
  195.5210  176.4160  144.2470 C   0  0  0  0  0  3  0  0  0  0  0  0
  194.2910  173.9060  144.3140 C   0  0  0  0  0  3  0  0  0  0  0  0
  196.2820  175.2590  144.0590 C   0  0  0  0  0  0  0  0  0  0  0  0
  195.6670  174.0040  144.0930 C   0  0  0  0  0  3  0  0  0  0  0  0
  193.5230  175.0650  144.5030 C   0  0  0  0  0  0  0  0  0  0  0  0
  197.6160  175.3540  143.8450 F   0  0  0  0  0  0  0  0  0  0  0  0
  194.1440  176.3190  144.4680 C   0  0  0  0  0  3  0  0  0  0  0  0
  186.1250  178.0940  146.5850 C   0  0  0  0  0  0  0  0  0  0  0  0
  185.3980  178.9530  146.0190 O   0  0  0  0  0  0  0  0  0  0  0  0
  185.9110  177.7980  147.9270 O   0  0  0  0  0  1  0  0  0  0  0  0
  1  8  1  0  0  0  0
  1 26  1  0  0  0  0
  2  4  1  0  0  0  0
  3 10  1  0  0  0  0
  4  5  1  0  0  0  0
  4 17  2  0  0  0  0
  6 11  1  0  0  0  0
  7  6  2  0  0  0  0
  7 18  1  0  0  0  0
  8 14  1  0  0  0  0
  9 15  1  1  0  0  0
  9 13  1  0  0  0  0
  9  6  1  0  0  0  0
 10 12  2  0  0  0  0
 11  2  1  0  0  0  0
 12  1  2  0  0  0  0
 13 10  1  0  0  0  0
 14  5  1  0  0  0  0
 16 15  1  0  0  0  0
 16  3  2  0  0  0  0
 18 23  1  6  0  0  0
 18  2  1  0  0  0  0
 19 25  1  0  0  0  0
 20 23  1  0  0  0  0
 21 22  1  0  0  0  0
 21 19  2  0  0  0  0
 22 20  2  0  0  0  0
 24 21  1  0  0  0  0
 25 23  2  0  0  0  0
 26 28  1  0  0  0  0
 27 26  2  0  0  0  0
M  END
>  <MODEL>
5

>  <REMARK>
 VINA RESULT:      -7.9      2.426      4.493
  Name = 
  2 active torsions:
  status: ('A' for Active; 'I' for Inactive)
    1  A    between atoms: C_1  and  C_20
    2  A    between atoms: C_24  and  C_26
                            x       y       z     vdW  Elec       q    Type
                         _______ _______ _______ _____ _____    ______ ____

>  <TORSDO>
F 2

$$$$
=
 OpenBabel11042418253D

 28 31  0  0  1  0  0  0  0  0999 V2000
  192.2550  173.5120  145.0050 C   0  0  0  0  0  0  0  0  0  0  0  0
  188.5910  175.2390  142.8370 N   0  0  0  0  0  0  0  0  0  0  0  0
  192.1620  176.2330  147.3680 C   0  0  0  0  0  3  0  0  0  0  0  0
  188.5850  173.9190  142.2710 C   0  0  0  0  0  0  0  0  0  0  0  0
  189.7310  173.1030  142.2530 O   0  0  0  0  0  0  0  0  0  0  0  0
  189.3320  176.5950  144.4360 C   0  0  0  0  0  0  0  0  0  0  0  0
  188.0480  176.6660  144.5780 N   0  0  0  0  0  0  0  0  0  0  0  0
  190.9560  173.1250  144.3560 C   0  0  0  0  0  2  0  0  0  0  0  0
  190.3140  177.0890  145.4010 C   0  0  2  0  0  3  0  0  0  0  0  0
  192.3840  175.9500  145.9350 C   0  0  0  0  0  0  0  0  0  0  0  0
  189.7090  175.7980  143.3810 O   0  0  0  0  0  0  0  0  0  0  0  0
  192.3640  174.7140  145.5090 C   0  0  0  0  0  0  0  0  0  0  0  0
  191.7630  176.9520  145.0210 C   0  0  0  0  0  2  0  0  0  0  0  0
  190.9800  173.4310  142.8610 C   0  0  0  0  0  2  0  0  0  0  0  0
  189.9890  177.1420  146.7050 C   0  0  0  0  0  2  0  0  0  0  0  0
  191.0260  176.8570  147.7310 C   0  0  0  0  0  3  0  0  0  0  0  0
  187.5170  173.4660  141.7840 O   0  0  0  0  0  0  0  0  0  0  0  0
  187.4480  175.8300  143.5290 C   0  0  1  0  0  3  0  0  0  0  0  0
  184.6110  177.9290  142.1520 C   0  0  0  0  0  3  0  0  0  0  0  0
  187.0870  176.9530  141.2950 C   0  0  0  0  0  3  0  0  0  0  0  0
  185.0680  178.2170  140.8630 C   0  0  0  0  0  0  0  0  0  0  0  0
  186.3050  177.7290  140.4340 C   0  0  0  0  0  3  0  0  0  0  0  0
  186.6320  176.6630  142.5900 C   0  0  0  0  0  0  0  0  0  0  0  0
  184.3100  178.9690  140.0300 F   0  0  0  0  0  0  0  0  0  0  0  0
  185.3920  177.1530  143.0140 C   0  0  0  0  0  3  0  0  0  0  0  0
  193.4040  172.5930  145.0020 C   0  0  0  0  0  0  0  0  0  0  0  0
  193.2510  171.3880  144.6650 O   0  0  0  0  0  0  0  0  0  0  0  0
  194.6670  173.0400  145.3750 O   0  0  0  0  0  1  0  0  0  0  0  0
  1 12  2  0  0  0  0
  2 11  1  0  0  0  0
  2 18  1  0  0  0  0
  3 16  2  0  0  0  0
  4  2  1  0  0  0  0
  5  4  1  0  0  0  0
  5 14  1  0  0  0  0
  6  7  2  0  0  0  0
  6  9  1  0  0  0  0
  8  1  1  0  0  0  0
  9 13  1  1  0  0  0
  9 15  1  0  0  0  0
 10  3  1  0  0  0  0
 11  6  1  0  0  0  0
 12 10  2  0  0  0  0
 13 10  1  0  0  0  0
 14  8  1  0  0  0  0
 15 16  1  0  0  0  0
 17  4  2  0  0  0  0
 18 23  1  6  0  0  0
 18  7  1  0  0  0  0
 19 25  1  0  0  0  0
 20 23  1  0  0  0  0
 21 19  2  0  0  0  0
 22 21  1  0  0  0  0
 22 20  2  0  0  0  0
 23 25  2  0  0  0  0
 24 21  1  0  0  0  0
 26  1  1  0  0  0  0
 26 28  1  0  0  0  0
 27 26  2  0  0  0  0
M  END
>  <MODEL>
6

>  <REMARK>
 VINA RESULT:      -7.9      3.777      7.529
  Name = 
  2 active torsions:
  status: ('A' for Active; 'I' for Inactive)
    1  A    between atoms: C_1  and  C_20
    2  A    between atoms: C_24  and  C_26
                            x       y       z     vdW  Elec       q    Type
                         _______ _______ _______ _____ _____    ______ ____

>  <TORSDO>
F 2

$$$$
=
 OpenBabel11042418253D

 28 31  0  0  1  0  0  0  0  0999 V2000
  188.5200  175.9990  143.4060 C   0  0  0  0  0  0  0  0  0  0  0  0
  192.4800  173.7760  144.0950 N   0  0  0  0  0  0  0  0  0  0  0  0
  188.6550  177.3180  146.7580 C   0  0  0  0  0  3  0  0  0  0  0  0
  192.4180  173.6860  142.6630 C   0  0  0  0  0  0  0  0  0  0  0  0
  191.2120  173.8210  141.9520 O   0  0  0  0  0  0  0  0  0  0  0  0
  191.7320  174.7460  145.9510 C   0  0  0  0  0  0  0  0  0  0  0  0
  193.0010  174.9890  145.9970 N   0  0  0  0  0  0  0  0  0  0  0  0
  189.8280  175.6560  142.7520 C   0  0  0  0  0  2  0  0  0  0  0  0
  190.7220  175.3830  146.7950 C   0  0  2  0  0  3  0  0  0  0  0  0
  188.5250  176.0460  146.0180 C   0  0  0  0  0  0  0  0  0  0  0  0
  191.3740  173.9830  144.8650 O   0  0  0  0  0  0  0  0  0  0  0  0
  188.4730  176.0600  144.7110 C   0  0  0  0  0  0  0  0  0  0  0  0
  189.3010  174.9210  146.6160 C   0  0  0  0  0  2  0  0  0  0  0  0
  189.9510  174.1500  142.5330 C   0  0  0  0  0  2  0  0  0  0  0  0
  190.9440  176.6210  147.2700 C   0  0  0  0  0  2  0  0  0  0  0  0
  189.8070  177.5700  147.4060 C   0  0  0  0  0  3  0  0  0  0  0  0
  193.4790  173.4910  142.0150 O   0  0  0  0  0  0  0  0  0  0  0  0
  193.6100  174.3480  144.8240 C   0  0  1  0  0  3  0  0  0  0  0  0
  194.9900  170.9350  145.7200 C   0  0  0  0  0  3  0  0  0  0  0  0
  195.9010  173.5740  145.5570 C   0  0  0  0  0  3  0  0  0  0  0  0
  196.3190  171.2370  146.0320 C   0  0  0  0  0  0  0  0  0  0  0  0
  196.7750  172.5560  145.9500 C   0  0  0  0  0  3  0  0  0  0  0  0
  194.5670  173.2750  145.2430 C   0  0  0  0  0  0  0  0  0  0  0  0
  197.1660  170.2500  146.4120 F   0  0  0  0  0  0  0  0  0  0  0  0
  194.1160  171.9530  145.3270 C   0  0  0  0  0  3  0  0  0  0  0  0
  187.3000  176.1820  142.6030 C   0  0  0  0  0  0  0  0  0  0  0  0
  186.1650  176.0820  143.1420 O   0  0  0  0  0  1  0  0  0  0  0  0
  187.3840  176.4620  141.2440 O   0  0  0  0  0  0  0  0  0  0  0  0
  1 12  2  0  0  0  0
  2 18  1  0  0  0  0
  2 11  1  0  0  0  0
  3 16  2  0  0  0  0
  4  2  1  0  0  0  0
  5 14  1  0  0  0  0
  5  4  1  0  0  0  0
  6  7  2  0  0  0  0
  6  9  1  0  0  0  0
  8  1  1  0  0  0  0
  9 13  1  6  0  0  0
  9 15  1  0  0  0  0
 10 13  1  0  0  0  0
 10  3  1  0  0  0  0
 11  6  1  0  0  0  0
 12 10  2  0  0  0  0
 14  8  1  0  0  0  0
 15 16  1  0  0  0  0
 17  4  2  0  0  0  0
 18 23  1  1  0  0  0
 18  7  1  0  0  0  0
 19 21  1  0  0  0  0
 20 22  1  0  0  0  0
 21 24  1  0  0  0  0
 22 21  2  0  0  0  0
 23 25  1  0  0  0  0
 23 20  2  0  0  0  0
 25 19  2  0  0  0  0
 26 27  1  0  0  0  0
 26  1  1  0  0  0  0
 28 26  2  0  0  0  0
M  END
>  <MODEL>
7

>  <REMARK>
 VINA RESULT:      -7.8      3.073      4.471
  Name = 
  2 active torsions:
  status: ('A' for Active; 'I' for Inactive)
    1  A    between atoms: C_1  and  C_20
    2  A    between atoms: C_24  and  C_26
                            x       y       z     vdW  Elec       q    Type
                         _______ _______ _______ _____ _____    ______ ____

>  <TORSDO>
F 2

$$$$
=
 OpenBabel11042418253D

 28 31  0  0  1  0  0  0  0  0999 V2000
  192.2860  173.4390  143.6340 C   0  0  0  0  0  0  0  0  0  0  0  0
  188.8780  176.2310  144.9340 N   0  0  0  0  0  0  0  0  0  0  0  0
  190.5590  172.7370  140.5480 C   0  0  0  0  0  3  0  0  0  0  0  0
  189.8790  176.6460  145.8760 C   0  0  0  0  0  0  0  0  0  0  0  0
  190.9760  175.8330  146.2150 O   0  0  0  0  0  0  0  0  0  0  0  0
  188.4040  175.1570  143.0450 C   0  0  0  0  0  0  0  0  0  0  0  0
  187.9660  176.3510  142.8090 N   0  0  0  0  0  0  0  0  0  0  0  0
  192.0080  174.7630  144.2880 C   0  0  0  0  0  2  0  0  0  0  0  0
  188.5820  174.1110  142.0380 C   0  0  2  0  0  3  0  0  0  0  0  0
  190.4400  172.5560  142.0100 C   0  0  0  0  0  0  0  0  0  0  0  0
  188.9110  175.0170  144.3150 O   0  0  0  0  0  0  0  0  0  0  0  0
  191.4050  172.9630  142.7930 C   0  0  0  0  0  0  0  0  0  0  0  0
  189.0590  172.7720  142.5310 C   0  0  0  0  0  2  0  0  0  0  0  0
  191.2790  174.5740  145.6160 C   0  0  0  0  0  2  0  0  0  0  0  0
  188.8330  174.4580  140.7640 C   0  0  0  0  0  2  0  0  0  0  0  0
  189.7440  173.6190  139.9410 C   0  0  0  0  0  3  0  0  0  0  0  0
  189.7850  177.7810  146.4110 O   0  0  0  0  0  0  0  0  0  0  0  0
  188.1920  177.1460  144.0240 C   0  0  1  0  0  3  0  0  0  0  0  0
  185.1120  179.2460  144.7000 C   0  0  0  0  0  3  0  0  0  0  0  0
  186.2370  176.8480  145.5960 C   0  0  0  0  0  3  0  0  0  0  0  0
  184.4630  178.4930  145.6830 C   0  0  0  0  0  0  0  0  0  0  0  0
  185.0250  177.2950  146.1310 C   0  0  0  0  0  3  0  0  0  0  0  0
  186.8910  177.6000  144.6100 C   0  0  0  0  0  0  0  0  0  0  0  0
  183.2890  178.9260  146.2010 F   0  0  0  0  0  0  0  0  0  0  0  0
  186.3240  178.7990  144.1640 C   0  0  0  0  0  3  0  0  0  0  0  0
  193.4810  172.6570  143.9910 C   0  0  0  0  0  0  0  0  0  0  0  0
  194.5790  172.8770  143.4120 O   0  0  0  0  0  0  0  0  0  0  0  0
  193.4110  171.6660  144.9630 O   0  0  0  0  0  1  0  0  0  0  0  0
  1 26  1  0  0  0  0
  1  8  1  0  0  0  0
  2  4  1  0  0  0  0
  3 10  1  0  0  0  0
  4  5  1  0  0  0  0
  4 17  2  0  0  0  0
  6 11  1  0  0  0  0
  7  6  2  0  0  0  0
  7 18  1  0  0  0  0
  8 14  1  0  0  0  0
  9 15  1  6  0  0  0
  9 13  1  0  0  0  0
  9  6  1  0  0  0  0
 10 13  1  0  0  0  0
 10 12  2  0  0  0  0
 11  2  1  0  0  0  0
 12  1  2  0  0  0  0
 14  5  1  0  0  0  0
 16  3  2  0  0  0  0
 16 15  1  0  0  0  0
 18 23  1  1  0  0  0
 18  2  1  0  0  0  0
 19 21  1  0  0  0  0
 20 22  1  0  0  0  0
 21 22  2  0  0  0  0
 21 24  1  0  0  0  0
 23 20  2  0  0  0  0
 25 23  1  0  0  0  0
 25 19  2  0  0  0  0
 26 28  1  0  0  0  0
 27 26  2  0  0  0  0
M  END
>  <MODEL>
8

>  <REMARK>
 VINA RESULT:      -7.8      4.044      7.701
  Name = 
  2 active torsions:
  status: ('A' for Active; 'I' for Inactive)
    1  A    between atoms: C_1  and  C_20
    2  A    between atoms: C_24  and  C_26
                            x       y       z     vdW  Elec       q    Type
                         _______ _______ _______ _____ _____    ______ ____

>  <TORSDO>
F 2

$$$$
=
 OpenBabel11042418253D

 28 31  0  0  1  0  0  0  0  0999 V2000
  186.3250  177.8700  146.3510 C   0  0  0  0  0  0  0  0  0  0  0  0
  189.1950  175.2730  143.8780 N   0  0  0  0  0  0  0  0  0  0  0  0
  184.5470  178.7920  143.3540 C   0  0  0  0  0  3  0  0  0  0  0  0
  189.4980  174.7600  145.1850 C   0  0  0  0  0  0  0  0  0  0  0  0
  189.2260  175.4850  146.3590 O   0  0  0  0  0  0  0  0  0  0  0  0
  187.8060  176.4400  142.5920 C   0  0  0  0  0  0  0  0  0  0  0  0
  187.8320  175.2870  142.0060 N   0  0  0  0  0  0  0  0  0  0  0  0
  187.0360  176.5470  146.3450 C   0  0  0  0  0  2  0  0  0  0  0  0
  186.8440  177.5050  142.3120 C   0  0  2  0  0  3  0  0  0  0  0  0
  185.8650  178.9310  144.0080 C   0  0  0  0  0  0  0  0  0  0  0  0
  188.6400  176.5020  143.6840 O   0  0  0  0  0  0  0  0  0  0  0  0
  186.0480  178.4330  145.2040 C   0  0  0  0  0  0  0  0  0  0  0  0
  187.0180  178.7910  143.0730 C   0  0  0  0  0  2  0  0  0  0  0  0
  188.5500  176.7400  146.4090 C   0  0  0  0  0  2  0  0  0  0  0  0
  185.6210  177.1860  141.8530 C   0  0  0  0  0  2  0  0  0  0  0  0
  184.4450  177.9880  142.2800 C   0  0  0  0  0  3  0  0  0  0  0  0
  190.0130  173.6160  145.2900 O   0  0  0  0  0  0  0  0  0  0  0  0
  188.7670  174.4380  142.7580 C   0  0  1  0  0  3  0  0  0  0  0  0
  192.2480  174.4070  141.2640 C   0  0  0  0  0  3  0  0  0  0  0  0
  189.8400  173.0190  140.9640 C   0  0  0  0  0  3  0  0  0  0  0  0
  192.1480  173.3750  140.3270 C   0  0  0  0  0  0  0  0  0  0  0  0
  190.9440  172.6810  140.1760 C   0  0  0  0  0  3  0  0  0  0  0  0
  189.9360  174.0540  141.9050 C   0  0  0  0  0  0  0  0  0  0  0  0
  193.2190  173.0480  139.5640 F   0  0  0  0  0  0  0  0  0  0  0  0
  191.1440  174.7460  142.0520 C   0  0  0  0  0  3  0  0  0  0  0  0
  186.0190  178.5570  147.6160 C   0  0  0  0  0  0  0  0  0  0  0  0
  184.8250  178.6750  148.0010 O   0  0  0  0  0  0  0  0  0  0  0  0
  187.0410  179.0860  148.3970 O   0  0  0  0  0  1  0  0  0  0  0  0
  1 26  1  0  0  0  0
  2  4  1  0  0  0  0
  3 10  1  0  0  0  0
  4 17  2  0  0  0  0
  4  5  1  0  0  0  0
  5 14  1  0  0  0  0
  6 11  1  0  0  0  0
  7  6  2  0  0  0  0
  7 18  1  0  0  0  0
  8  1  1  0  0  0  0
  8 14  1  0  0  0  0
  9 15  1  1  0  0  0
  9  6  1  0  0  0  0
  9 13  1  0  0  0  0
 10 12  2  0  0  0  0
 11  2  1  0  0  0  0
 12  1  2  0  0  0  0
 13 10  1  0  0  0  0
 15 16  1  0  0  0  0
 16  3  2  0  0  0  0
 18 23  1  6  0  0  0
 18  2  1  0  0  0  0
 19 25  1  0  0  0  0
 20 23  1  0  0  0  0
 21 19  2  0  0  0  0
 22 21  1  0  0  0  0
 22 20  2  0  0  0  0
 23 25  2  0  0  0  0
 24 21  1  0  0  0  0
 26 27  2  0  0  0  0
 26 28  1  0  0  0  0
M  END
>  <MODEL>
9

>  <REMARK>
 VINA RESULT:      -7.7      3.161      4.864
  Name = 
  2 active torsions:
  status: ('A' for Active; 'I' for Inactive)
    1  A    between atoms: C_1  and  C_20
    2  A    between atoms: C_24  and  C_26
                            x       y       z     vdW  Elec       q    Type
                         _______ _______ _______ _____ _____    ______ ____

>  <TORSDO>
F 2

$$$$
