=
 OpenBabel11042419073D

 57 60  0  0  1  0  0  0  0  0999 V2000
  189.3180  177.8580  143.3020 C   0  0  0  0  0  2  0  0  0  0  0  0
  190.7740  176.3430  144.5740 C   0  0  2  0  0  3  0  0  0  0  0  0
  188.1720  174.6190  141.6850 O   0  0  0  0  0  0  0  0  0  0  0  0
  188.6170  172.4050  142.3360 C   0  0  0  0  0  2  0  0  0  0  0  0
  189.9450  174.1590  143.4590 C   0  0  1  0  0  3  0  0  0  0  0  0
  188.9250  176.4110  143.1110 C   0  0  1  0  0  3  0  0  0  0  0  0
  188.4090  176.0310  141.7300 C   0  0  2  0  0  3  0  0  0  0  0  0
  190.2080  175.6680  143.3460 C   0  0  1  0  0  3  0  0  0  0  0  0
  188.9070  173.6930  142.4440 C   0  0  0  0  0  0  0  0  0  0  0  0
  190.3680  177.8130  144.4080 C   0  0  0  0  0  2  0  0  0  0  0  0
  187.0090  177.2980  140.2740 O   0  0  0  0  0  0  0  0  0  0  0  0
  186.1070  176.8660  142.3840 N   0  0  0  0  0  2  0  0  0  0  0  0
  187.1460  176.7620  141.4060 C   0  0  0  0  0  0  0  0  0  0  0  0
  184.9580  177.5350  142.1210 O   0  0  0  0  0  0  0  0  0  0  0  0
  184.9770  178.6320  142.9870 C   0  0  0  0  0  2  0  0  0  0  0  0
  183.8330  178.8490  145.1640 C   0  0  0  0  0  1  0  0  0  0  0  0
  184.9670  178.1620  144.4330 C   0  0  2  0  0  3  0  0  0  0  0  0
  186.2780  178.5050  145.1260 C   0  0  0  0  0  2  0  0  0  0  0  0
  187.1110  176.3660  145.7760 O   0  0  0  0  0  0  0  0  0  0  0  0
  186.6400  177.4750  146.1470 C   0  0  0  0  0  0  0  0  0  0  0  0
  186.4640  177.7310  147.5420 N   0  0  0  0  0  2  0  0  0  0  0  0
  187.0150  179.5310  148.6520 C   0  0  0  0  0  1  0  0  0  0  0  0
  185.9510  178.9010  147.9920 O   0  0  0  0  0  0  0  0  0  0  0  0
  192.1680  176.2200  144.6050 O   0  0  0  0  0  0  0  0  0  0  0  0
  192.4570  175.6070  145.8320 C   0  0  2  0  0  3  0  0  0  0  0  0
  191.6080  176.2950  147.7630 C   0  0  0  0  0  1  0  0  0  0  0  0
  191.3040  175.5480  146.6210 O   0  0  0  0  0  0  0  0  0  0  0  0
  193.5630  176.3590  146.5640 C   0  0  0  0  0  2  0  0  0  0  0  0
  194.6230  176.8730  145.6040 C   0  0  0  0  0  1  0  0  0  0  0  0
  191.1370  173.3930  143.4320 O   0  0  0  0  0  0  0  0  0  0  0  0
  191.8710  173.7280  142.2780 C   0  0  0  0  0  2  0  0  0  0  0  0
  192.0950  171.4540  140.3220 F   0  0  0  0  0  0  0  0  0  0  0  0
  193.9340  170.5470  141.5530 C   0  0  2  0  0  3  0  0  0  0  0  0
  195.3510  172.5500  141.2090 O   0  0  0  0  0  0  0  0  0  0  0  0
  192.6700  171.3980  141.5820 C   0  0  1  0  0  3  0  0  0  0  0  0
  195.0600  171.2320  140.7560 C   0  0  2  0  0  3  0  0  0  0  0  0
  194.1980  173.3860  141.2210 C   0  0  2  0  0  3  0  0  0  0  0  0
  193.6630  169.2740  141.0440 O   0  0  0  0  0  1  0  0  0  0  0  0
  193.0600  172.7910  142.0660 C   0  0  1  0  0  3  0  0  0  0  0  0
  194.2780  174.9900  139.6870 C   0  0  0  0  0  1  0  0  0  0  0  0
  193.7840  173.7060  139.9210 O   0  0  0  0  0  0  0  0  0  0  0  0
  194.8850  171.1470  139.2380 C   0  0  0  0  0  2  0  0  0  0  0  0
  196.0380  171.7070  138.5530 N   0  0  0  0  0  2  0  0  0  0  0  0
  195.5390  172.2590  136.9870 S   0  0  0  0  0  0  0  0  0  0  0  0
  196.3410  171.5450  135.9350 O   0  0  0  0  0  0  0  0  0  0  0  0
  195.7790  173.7380  136.8560 O   0  0  0  0  0  0  0  0  0  0  0  0
  193.8510  171.9330  136.7710 N   0  0  0  0  0  2  0  0  0  0  0  0
  193.2600  173.1050  136.1460 C   0  0  0  0  0  2  0  0  0  0  0  0
  191.7630  174.8740  136.7350 O   0  0  0  0  0  1  0  0  0  0  0  0
  191.9790  173.5010  136.8620 C   0  0  1  0  0  3  0  0  0  0  0  0
  190.5080  171.3820  136.8890 C   0  0  1  0  0  3  0  0  0  0  0  0
  190.6180  172.7980  134.8810 O   0  0  0  0  0  1  0  0  0  0  0  0
  189.5170  172.5330  137.0680 C   0  0  2  0  0  3  0  0  0  0  0  0
  190.0080  170.4890  135.9390 O   0  0  0  0  0  1  0  0  0  0  0  0
  190.7950  172.7420  136.2650 C   0  0  2  0  0  0  0  0  0  0  0  0
  189.6140  173.0570  138.4930 C   0  0  0  0  0  2  0  0  0  0  0  0
  188.8920  174.2460  138.6000 O   0  0  0  0  0  1  0  0  0  0  0  0
  1 10  1  0  0  0  0
  2 24  1  6  0  0  0
  3  7  1  0  0  0  0
  3  9  1  0  0  0  0
  4  9  2  0  0  0  0
  5 30  1  6  0  0  0
  6  1  1  6  0  0  0
  6  8  1  0  0  0  0
  7 13  1  1  0  0  0
  7  6  1  0  0  0  0
  8  5  1  0  0  0  0
  8  2  1  0  0  0  0
  9  5  1  0  0  0  0
 10  2  1  0  0  0  0
 11 13  2  0  0  0  0
 13 12  1  0  0  0  0
 14 12  1  0  0  0  0
 14 15  1  0  0  0  0
 15 17  1  0  0  0  0
 17 18  1  0  0  0  0
 17 16  1  0  0  0  0
 18 20  1  0  0  0  0
 19 20  2  0  0  0  0
 20 21  1  0  0  0  0
 21 23  1  0  0  0  0
 23 22  1  0  0  0  0
 24 25  1  0  0  0  0
 25 28  1  0  0  0  0
 25 27  1  0  0  0  0
 27 26  1  0  0  0  0
 29 28  1  0  0  0  0
 31 30  1  0  0  0  0
 32 35  1  0  0  0  0
 33 35  1  0  0  0  0
 34 37  1  0  0  0  0
 35 39  1  0  0  0  0
 36 34  1  0  0  0  0
 36 33  1  0  0  0  0
 37 39  1  0  0  0  0
 38 33  1  0  0  0  0
 39 31  1  0  0  0  0
 40 41  1  0  0  0  0
 41 37  1  0  0  0  0
 42 36  1  0  0  0  0
 43 42  1  0  0  0  0
 44 43  1  0  0  0  0
 45 44  2  0  0  0  0
 46 44  2  0  0  0  0
 47 44  1  0  0  0  0
 48 47  1  0  0  0  0
 48 50  1  0  0  0  0
 49 50  1  0  0  0  0
 51 53  1  0  0  0  0
 52 55  1  0  0  0  0
 53 56  1  0  0  0  0
 54 51  1  0  0  0  0
 55 50  1  0  0  0  0
 55 51  1  0  0  0  0
 55 53  1  0  0  0  0
 56 57  1  0  0  0  0
M  END
>  <MODEL>
1

>  <REMARK>
 VINA RESULT:      -5.4      0.000      0.000
  Name = 
  23 active torsions:
  status: ('A' for Active; 'I' for Inactive)
    1  A    between atoms: C_1  and  C_10
    2  A    between atoms: C_2  and  C_35
    3  A    between atoms: N_3  and  C_9
    4  A    between atoms: N_3  and  S_25
    5  A    between atoms: C_7  and  O_38
    6  A    between atoms: C_9  and  C_45
    7  A    between atoms: C_10  and  O_18
    8  A    between atoms: C_10  and  O_38
    9  A    between atoms: C_13  and  O_22
   10  A    between atoms: C_13  and  C_52
   11  A    between atoms: N_15  and  C_16
   12  A    between atoms: N_15  and  S_25
   13  A    between atoms: C_16  and  C_57
   14  A    between atoms: O_22  and  C_29
   15  A    between atoms: N_27  and  O_42
   16  A    between atoms: C_28  and  C_37
   17  A    between atoms: C_33  and  C_43
   18  A    between atoms: N_40  and  O_55
   19  A    between atoms: O_42  and  C_49
   20  A    between atoms: C_43  and  C_51
   21  A    between atoms: C_46  and  O_50
   22  A    between atoms: C_49  and  C_51
   23  A    between atoms: C_54  and  C_57
                            x       y       z     vdW  Elec       q    Type
                         _______ _______ _______ _____ _____    ______ ____

>  <TORSDO>
F 23

$$$$
=
 OpenBabel11042419073D

 57 60  0  0  1  0  0  0  0  0999 V2000
  189.6150  177.9190  142.7960 C   0  0  0  0  0  2  0  0  0  0  0  0
  191.2640  176.3850  143.7780 C   0  0  2  0  0  3  0  0  0  0  0  0
  188.0160  174.6800  141.6260 O   0  0  0  0  0  0  0  0  0  0  0  0
  188.5150  172.4730  142.2610 C   0  0  0  0  0  2  0  0  0  0  0  0
  190.1260  174.2030  142.9770 C   0  0  1  0  0  3  0  0  0  0  0  0
  189.1370  176.4850  142.7640 C   0  0  1  0  0  3  0  0  0  0  0  0
  188.3090  176.0810  141.5530 C   0  0  2  0  0  3  0  0  0  0  0  0
  190.4110  175.6930  142.7390 C   0  0  1  0  0  3  0  0  0  0  0  0
  188.8690  173.7490  142.2420 C   0  0  0  0  0  0  0  0  0  0  0  0
  190.8850  177.8650  143.6400 C   0  0  0  0  0  2  0  0  0  0  0  0
  186.7560  177.5150  140.4490 O   0  0  0  0  0  0  0  0  0  0  0  0
  186.1400  176.8650  142.6060 N   0  0  0  0  0  2  0  0  0  0  0  0
  187.0330  176.8560  141.4880 C   0  0  0  0  0  0  0  0  0  0  0  0
  184.9850  177.5710  142.5780 O   0  0  0  0  0  0  0  0  0  0  0  0
  185.2080  178.6570  143.4290 C   0  0  0  0  0  2  0  0  0  0  0  0
  183.6220  178.9600  145.2960 C   0  0  0  0  0  1  0  0  0  0  0  0
  184.9000  178.2720  144.8670 C   0  0  2  0  0  3  0  0  0  0  0  0
  186.0260  178.6990  145.7980 C   0  0  0  0  0  2  0  0  0  0  0  0
  185.3360  178.2510  148.0370 O   0  0  0  0  0  0  0  0  0  0  0  0
  186.0340  177.8860  147.0530 C   0  0  0  0  0  0  0  0  0  0  0  0
  186.8190  176.6970  147.1520 N   0  0  0  0  0  2  0  0  0  0  0  0
  188.9120  176.4440  146.5760 C   0  0  0  0  0  1  0  0  0  0  0  0
  187.5950  176.2690  146.1280 O   0  0  0  0  0  0  0  0  0  0  0  0
  192.6240  176.1990  143.5010 O   0  0  0  0  0  0  0  0  0  0  0  0
  193.2960  176.6070  144.6620 C   0  0  2  0  0  3  0  0  0  0  0  0
  195.1340  175.3830  144.4430 C   0  0  0  0  0  1  0  0  0  0  0  0
  194.6680  176.7020  144.4130 O   0  0  0  0  0  0  0  0  0  0  0  0
  193.0300  175.6360  145.8080 C   0  0  0  0  0  2  0  0  0  0  0  0
  192.6850  176.3660  147.0950 C   0  0  0  0  0  1  0  0  0  0  0  0
  191.2520  173.3830  142.7180 O   0  0  0  0  0  0  0  0  0  0  0  0
  191.7700  173.7020  141.4490 C   0  0  0  0  0  2  0  0  0  0  0  0
  192.3870  173.6950  138.5050 F   0  0  0  0  0  0  0  0  0  0  0  0
  191.0970  171.7020  138.2170 C   0  0  2  0  0  3  0  0  0  0  0  0
  192.5340  170.3700  139.7310 O   0  0  0  0  0  0  0  0  0  0  0  0
  191.3360  172.9640  139.0370 C   0  0  1  0  0  3  0  0  0  0  0  0
  192.2530  170.6970  138.3750 C   0  0  2  0  0  3  0  0  0  0  0  0
  192.7950  171.5230  140.5240 C   0  0  2  0  0  3  0  0  0  0  0  0
  190.8880  172.0180  136.8710 O   0  0  0  0  0  1  0  0  0  0  0  0
  191.6390  172.5360  140.4690 C   0  0  1  0  0  3  0  0  0  0  0  0
  194.8930  171.7250  141.2230 C   0  0  0  0  0  1  0  0  0  0  0  0
  194.0270  172.1040  140.1960 O   0  0  0  0  0  0  0  0  0  0  0  0
  193.5060  171.0620  137.5760 C   0  0  0  0  0  2  0  0  0  0  0  0
  194.2180  169.8660  137.1580 N   0  0  0  0  0  2  0  0  0  0  0  0
  195.4500  170.3220  136.0250 S   0  0  0  0  0  0  0  0  0  0  0  0
  195.4530  169.3470  134.8810 O   0  0  0  0  0  0  0  0  0  0  0  0
  196.8000  170.2940  136.6870 O   0  0  0  0  0  0  0  0  0  0  0  0
  195.1330  171.9220  135.4420 N   0  0  0  0  0  2  0  0  0  0  0  0
  196.2760  172.7480  135.7990 C   0  0  0  0  0  2  0  0  0  0  0  0
  196.4280  173.4440  138.0810 O   0  0  0  0  0  1  0  0  0  0  0  0
  195.8820  173.7800  136.8420 C   0  0  1  0  0  3  0  0  0  0  0  0
  196.2700  175.4740  134.9350 C   0  0  1  0  0  3  0  0  0  0  0  0
  197.5430  175.6440  137.0330 O   0  0  0  0  0  1  0  0  0  0  0  0
  195.4120  176.2340  135.9480 C   0  0  2  0  0  3  0  0  0  0  0  0
  197.3170  176.2950  134.5130 O   0  0  0  0  0  1  0  0  0  0  0  0
  196.3840  175.1610  136.4220 C   0  0  2  0  0  0  0  0  0  0  0  0
  193.9760  175.7410  135.8550 C   0  0  0  0  0  2  0  0  0  0  0  0
  193.1050  176.8230  135.9830 O   0  0  0  0  0  1  0  0  0  0  0  0
  1 10  1  0  0  0  0
  2 24  1  6  0  0  0
  3  9  1  0  0  0  0
  5 30  1  6  0  0  0
  6  1  1  6  0  0  0
  7 13  1  1  0  0  0
  7  3  1  0  0  0  0
  7  6  1  0  0  0  0
  8  6  1  0  0  0  0
  8  5  1  0  0  0  0
  8  2  1  0  0  0  0
  9  4  2  0  0  0  0
  9  5  1  0  0  0  0
 10  2  1  0  0  0  0
 11 13  2  0  0  0  0
 13 12  1  0  0  0  0
 14 12  1  0  0  0  0
 14 15  1  0  0  0  0
 15 17  1  0  0  0  0
 17 16  1  0  0  0  0
 17 18  1  0  0  0  0
 18 20  1  0  0  0  0
 20 21  1  0  0  0  0
 20 19  2  0  0  0  0
 23 22  1  0  0  0  0
 23 21  1  0  0  0  0
 24 25  1  0  0  0  0
 25 28  1  0  0  0  0
 27 26  1  0  0  0  0
 27 25  1  0  0  0  0
 28 29  1  0  0  0  0
 31 30  1  0  0  0  0
 32 35  1  0  0  0  0
 33 36  1  0  0  0  0
 33 35  1  0  0  0  0
 34 37  1  0  0  0  0
 35 39  1  0  0  0  0
 36 34  1  0  0  0  0
 38 33  1  0  0  0  0
 39 37  1  0  0  0  0
 39 31  1  0  0  0  0
 41 37  1  0  0  0  0
 41 40  1  0  0  0  0
 42 36  1  0  0  0  0
 43 42  1  0  0  0  0
 44 46  2  0  0  0  0
 44 43  1  0  0  0  0
 45 44  2  0  0  0  0
 47 48  1  0  0  0  0
 47 44  1  0  0  0  0
 48 50  1  0  0  0  0
 50 49  1  0  0  0  0
 51 53  1  0  0  0  0
 51 55  1  0  0  0  0
 53 55  1  0  0  0  0
 54 51  1  0  0  0  0
 55 50  1  0  0  0  0
 55 52  1  0  0  0  0
 56 53  1  0  0  0  0
 56 57  1  0  0  0  0
M  END
>  <MODEL>
2

>  <REMARK>
 VINA RESULT:      -5.4      1.839      3.451
  Name = 
  23 active torsions:
  status: ('A' for Active; 'I' for Inactive)
    1  A    between atoms: C_1  and  C_10
    2  A    between atoms: C_2  and  C_35
    3  A    between atoms: N_3  and  C_9
    4  A    between atoms: N_3  and  S_25
    5  A    between atoms: C_7  and  O_38
    6  A    between atoms: C_9  and  C_45
    7  A    between atoms: C_10  and  O_18
    8  A    between atoms: C_10  and  O_38
    9  A    between atoms: C_13  and  O_22
   10  A    between atoms: C_13  and  C_52
   11  A    between atoms: N_15  and  C_16
   12  A    between atoms: N_15  and  S_25
   13  A    between atoms: C_16  and  C_57
   14  A    between atoms: O_22  and  C_29
   15  A    between atoms: N_27  and  O_42
   16  A    between atoms: C_28  and  C_37
   17  A    between atoms: C_33  and  C_43
   18  A    between atoms: N_40  and  O_55
   19  A    between atoms: O_42  and  C_49
   20  A    between atoms: C_43  and  C_51
   21  A    between atoms: C_46  and  O_50
   22  A    between atoms: C_49  and  C_51
   23  A    between atoms: C_54  and  C_57
                            x       y       z     vdW  Elec       q    Type
                         _______ _______ _______ _____ _____    ______ ____

>  <TORSDO>
F 23

$$$$
=
 OpenBabel11042419073D

 57 60  0  0  1  0  0  0  0  0999 V2000
  190.0410  177.2190  143.7900 C   0  0  0  0  0  2  0  0  0  0  0  0
  191.8580  175.8030  144.6440 C   0  0  2  0  0  3  0  0  0  0  0  0
  188.8560  173.9470  142.2710 O   0  0  0  0  0  0  0  0  0  0  0  0
  189.6160  171.7630  142.6910 C   0  0  0  0  0  2  0  0  0  0  0  0
  191.0000  173.5920  143.6070 C   0  0  1  0  0  3  0  0  0  0  0  0
  189.7410  175.7490  143.6060 C   0  0  1  0  0  3  0  0  0  0  0  0
  188.9760  175.3730  142.3440 C   0  0  2  0  0  3  0  0  0  0  0  0
  191.1020  175.1230  143.5250 C   0  0  1  0  0  3  0  0  0  0  0  0
  189.8120  173.0680  142.8070 C   0  0  0  0  0  0  0  0  0  0  0  0
  191.3030  177.2330  144.6480 C   0  0  0  0  0  2  0  0  0  0  0  0
  186.6360  175.3520  142.8010 O   0  0  0  0  0  0  0  0  0  0  0  0
  187.4250  177.2950  141.7760 N   0  0  0  0  0  2  0  0  0  0  0  0
  187.6160  175.9910  142.3330 C   0  0  0  0  0  0  0  0  0  0  0  0
  186.2000  177.8730  141.7390 O   0  0  0  0  0  0  0  0  0  0  0  0
  186.2560  178.8940  142.6910 C   0  0  0  0  0  2  0  0  0  0  0  0
  184.5790  179.5530  144.3780 C   0  0  0  0  0  1  0  0  0  0  0  0
  185.5460  178.4640  143.9650 C   0  0  2  0  0  3  0  0  0  0  0  0
  186.5420  178.2360  145.0940 C   0  0  0  0  0  2  0  0  0  0  0  0
  184.8470  176.8850  146.0880 O   0  0  0  0  0  0  0  0  0  0  0  0
  186.0740  177.1650  146.0260 C   0  0  0  0  0  0  0  0  0  0  0  0
  187.0000  176.4500  146.8460 N   0  0  0  0  0  2  0  0  0  0  0  0
  188.9520  175.4840  147.0270 C   0  0  0  0  0  1  0  0  0  0  0  0
  188.3270  176.7220  146.8260 O   0  0  0  0  0  0  0  0  0  0  0  0
  193.2320  175.8120  144.3750 O   0  0  0  0  0  0  0  0  0  0  0  0
  193.8290  175.2000  145.4870 C   0  0  2  0  0  3  0  0  0  0  0  0
  194.7930  177.1980  145.5050 C   0  0  0  0  0  1  0  0  0  0  0  0
  194.3490  176.1730  146.3460 O   0  0  0  0  0  0  0  0  0  0  0  0
  194.9260  174.2360  145.0490 C   0  0  0  0  0  2  0  0  0  0  0  0
  195.9790  174.0550  146.1300 C   0  0  0  0  0  1  0  0  0  0  0  0
  192.2190  172.9450  143.2880 O   0  0  0  0  0  0  0  0  0  0  0  0
  192.6300  173.3470  142.0040 C   0  0  0  0  0  2  0  0  0  0  0  0
  192.3170  171.0890  140.0420 F   0  0  0  0  0  0  0  0  0  0  0  0
  194.4520  170.2160  140.6720 C   0  0  2  0  0  3  0  0  0  0  0  0
  195.6670  172.2510  139.9520 O   0  0  0  0  0  0  0  0  0  0  0  0
  193.2360  171.0390  141.0780 C   0  0  1  0  0  3  0  0  0  0  0  0
  195.2820  170.9300  139.5890 C   0  0  2  0  0  3  0  0  0  0  0  0
  194.5530  173.0620  140.3090 C   0  0  2  0  0  3  0  0  0  0  0  0
  194.0680  168.9410  140.2500 O   0  0  0  0  0  1  0  0  0  0  0  0
  193.7230  172.4380  141.4430 C   0  0  1  0  0  3  0  0  0  0  0  0
  194.1730  174.6630  138.8180 C   0  0  0  0  0  1  0  0  0  0  0  0
  193.7710  173.3790  139.1910 O   0  0  0  0  0  0  0  0  0  0  0  0
  194.6730  170.8490  138.1870 C   0  0  0  0  0  2  0  0  0  0  0  0
  195.5710  171.4260  137.2000 N   0  0  0  0  0  2  0  0  0  0  0  0
  194.6700  171.7470  135.7530 S   0  0  0  0  0  0  0  0  0  0  0  0
  195.3550  171.0840  134.5910 O   0  0  0  0  0  0  0  0  0  0  0  0
  194.6090  173.2280  135.4970 O   0  0  0  0  0  0  0  0  0  0  0  0
  193.0610  171.1300  135.9260 N   0  0  0  0  0  2  0  0  0  0  0  0
  192.1840  172.2670  136.1620 C   0  0  0  0  0  2  0  0  0  0  0  0
  190.6330  170.4560  135.9960 O   0  0  0  0  0  1  0  0  0  0  0  0
  190.7280  171.8460  136.0590 C   0  0  1  0  0  3  0  0  0  0  0  0
  190.4940  173.6320  137.9070 C   0  0  1  0  0  3  0  0  0  0  0  0
  189.4780  171.4100  138.1840 O   0  0  0  0  0  1  0  0  0  0  0  0
  189.1390  173.6410  137.1980 C   0  0  2  0  0  3  0  0  0  0  0  0
  190.2900  173.6330  139.2880 O   0  0  0  0  0  1  0  0  0  0  0  0
  189.9540  172.3560  137.2740 C   0  0  2  0  0  0  0  0  0  0  0  0
  189.2780  174.3590  135.8650 C   0  0  0  0  0  2  0  0  0  0  0  0
  188.4030  175.4450  135.8280 O   0  0  0  0  0  1  0  0  0  0  0  0
  1 10  1  0  0  0  0
  2 24  1  6  0  0  0
  2 10  1  0  0  0  0
  3  7  1  0  0  0  0
  3  9  1  0  0  0  0
  4  9  2  0  0  0  0
  5 30  1  6  0  0  0
  6  1  1  6  0  0  0
  7 13  1  1  0  0  0
  7  6  1  0  0  0  0
  8  6  1  0  0  0  0
  8  5  1  0  0  0  0
  8  2  1  0  0  0  0
  9  5  1  0  0  0  0
 12 13  1  0  0  0  0
 13 11  2  0  0  0  0
 14 12  1  0  0  0  0
 14 15  1  0  0  0  0
 15 17  1  0  0  0  0
 17 16  1  0  0  0  0
 17 18  1  0  0  0  0
 18 20  1  0  0  0  0
 20 19  2  0  0  0  0
 20 21  1  0  0  0  0
 23 21  1  0  0  0  0
 23 22  1  0  0  0  0
 24 25  1  0  0  0  0
 25 27  1  0  0  0  0
 26 27  1  0  0  0  0
 28 25  1  0  0  0  0
 28 29  1  0  0  0  0
 31 30  1  0  0  0  0
 32 35  1  0  0  0  0
 33 35  1  0  0  0  0
 34 37  1  0  0  0  0
 35 39  1  0  0  0  0
 36 34  1  0  0  0  0
 36 33  1  0  0  0  0
 37 39  1  0  0  0  0
 38 33  1  0  0  0  0
 39 31  1  0  0  0  0
 40 41  1  0  0  0  0
 41 37  1  0  0  0  0
 42 36  1  0  0  0  0
 43 42  1  0  0  0  0
 44 47  1  0  0  0  0
 44 43  1  0  0  0  0
 45 44  2  0  0  0  0
 46 44  2  0  0  0  0
 47 48  1  0  0  0  0
 49 50  1  0  0  0  0
 50 48  1  0  0  0  0
 50 55  1  0  0  0  0
 51 54  1  0  0  0  0
 53 55  1  0  0  0  0
 53 51  1  0  0  0  0
 55 51  1  0  0  0  0
 55 52  1  0  0  0  0
 56 53  1  0  0  0  0
 57 56  1  0  0  0  0
M  END
>  <MODEL>
3

>  <REMARK>
 VINA RESULT:      -5.2      1.495      2.059
  Name = 
  23 active torsions:
  status: ('A' for Active; 'I' for Inactive)
    1  A    between atoms: C_1  and  C_10
    2  A    between atoms: C_2  and  C_35
    3  A    between atoms: N_3  and  C_9
    4  A    between atoms: N_3  and  S_25
    5  A    between atoms: C_7  and  O_38
    6  A    between atoms: C_9  and  C_45
    7  A    between atoms: C_10  and  O_18
    8  A    between atoms: C_10  and  O_38
    9  A    between atoms: C_13  and  O_22
   10  A    between atoms: C_13  and  C_52
   11  A    between atoms: N_15  and  C_16
   12  A    between atoms: N_15  and  S_25
   13  A    between atoms: C_16  and  C_57
   14  A    between atoms: O_22  and  C_29
   15  A    between atoms: N_27  and  O_42
   16  A    between atoms: C_28  and  C_37
   17  A    between atoms: C_33  and  C_43
   18  A    between atoms: N_40  and  O_55
   19  A    between atoms: O_42  and  C_49
   20  A    between atoms: C_43  and  C_51
   21  A    between atoms: C_46  and  O_50
   22  A    between atoms: C_49  and  C_51
   23  A    between atoms: C_54  and  C_57
                            x       y       z     vdW  Elec       q    Type
                         _______ _______ _______ _____ _____    ______ ____

>  <TORSDO>
F 23

$$$$
=
 OpenBabel11042419073D

 57 60  0  0  1  0  0  0  0  0999 V2000
  183.3550  178.8500  143.8130 C   0  0  0  0  0  2  0  0  0  0  0  0
  185.2660  178.1060  145.1650 C   0  0  2  0  0  3  0  0  0  0  0  0
  185.5320  177.6420  140.9460 O   0  0  0  0  0  0  0  0  0  0  0  0
  187.5110  176.3760  141.0250 C   0  0  0  0  0  2  0  0  0  0  0  0
  186.7050  177.2750  143.1800 C   0  0  1  0  0  3  0  0  0  0  0  0
  184.3330  178.0320  143.0010 C   0  0  1  0  0  3  0  0  0  0  0  0
  184.5110  178.4480  141.5470 C   0  0  2  0  0  3  0  0  0  0  0  0
  185.6390  178.2480  143.7070 C   0  0  1  0  0  3  0  0  0  0  0  0
  186.6140  177.1110  141.6670 C   0  0  0  0  0  0  0  0  0  0  0  0
  183.8580  178.7090  145.2460 C   0  0  0  0  0  2  0  0  0  0  0  0
  183.2030  177.5460  139.7700 O   0  0  0  0  0  0  0  0  0  0  0  0
  182.0670  179.0130  141.1860 N   0  0  0  0  0  2  0  0  0  0  0  0
  183.2370  178.2960  140.7820 C   0  0  0  0  0  0  0  0  0  0  0  0
  180.9030  178.9060  140.5000 O   0  0  0  0  0  0  0  0  0  0  0  0
  180.1730  177.9300  141.1840 C   0  0  0  0  0  2  0  0  0  0  0  0
  177.9410  177.2610  142.0000 C   0  0  0  0  0  1  0  0  0  0  0  0
  178.7390  178.3930  141.3890 C   0  0  2  0  0  3  0  0  0  0  0  0
  178.1000  178.7880  140.0650 C   0  0  0  0  0  2  0  0  0  0  0  0
  177.9090  180.9640  141.0220 O   0  0  0  0  0  0  0  0  0  0  0  0
  177.9090  180.2680  139.9710 C   0  0  0  0  0  0  0  0  0  0  0  0
  177.7290  180.9060  138.7060 N   0  0  0  0  0  2  0  0  0  0  0  0
  177.6950  181.1700  136.5370 C   0  0  0  0  0  1  0  0  0  0  0  0
  177.7080  180.2010  137.5490 O   0  0  0  0  0  0  0  0  0  0  0  0
  186.1560  178.8250  145.9730 O   0  0  0  0  0  0  0  0  0  0  0  0
  186.1400  178.1700  147.2120 C   0  0  2  0  0  3  0  0  0  0  0  0
  186.3140  180.1870  148.1210 C   0  0  0  0  0  1  0  0  0  0  0  0
  186.8710  178.9040  148.1510 O   0  0  0  0  0  0  0  0  0  0  0  0
  186.7050  176.7600  147.0840 C   0  0  0  0  0  2  0  0  0  0  0  0
  186.2990  175.8830  148.2570 C   0  0  0  0  0  1  0  0  0  0  0  0
  188.0090  177.5980  143.6300 O   0  0  0  0  0  0  0  0  0  0  0  0
  188.5670  176.4740  144.2660 C   0  0  0  0  0  2  0  0  0  0  0  0
  190.0270  174.8320  146.3210 F   0  0  0  0  0  0  0  0  0  0  0  0
  191.2940  176.7480  146.9850 C   0  0  2  0  0  3  0  0  0  0  0  0
  192.3210  177.0350  144.7490 O   0  0  0  0  0  0  0  0  0  0  0  0
  190.0060  176.2170  146.3680 C   0  0  1  0  0  3  0  0  0  0  0  0
  192.5030  176.5130  146.0610 C   0  0  2  0  0  3  0  0  0  0  0  0
  191.1410  176.5360  144.1260 C   0  0  2  0  0  3  0  0  0  0  0  0
  191.5090  176.1840  148.2450 O   0  0  0  0  0  1  0  0  0  0  0  0
  189.8830  176.8080  144.9670 C   0  0  1  0  0  3  0  0  0  0  0  0
  191.0560  175.1280  142.4120 C   0  0  0  0  0  1  0  0  0  0  0  0
  191.2730  175.1830  143.7890 O   0  0  0  0  0  0  0  0  0  0  0  0
  193.0150  175.0710  146.0650 C   0  0  0  0  0  2  0  0  0  0  0  0
  194.4550  175.0350  146.2630 N   0  0  0  0  0  2  0  0  0  0  0  0
  195.1920  174.3570  144.8480 S   0  0  0  0  0  0  0  0  0  0  0  0
  196.6850  174.4850  144.9620 O   0  0  0  0  0  0  0  0  0  0  0  0
  194.7370  175.0950  143.6200 O   0  0  0  0  0  0  0  0  0  0  0  0
  194.7470  172.6880  144.7090 N   0  0  0  0  0  2  0  0  0  0  0  0
  193.6500  172.6110  143.7580 C   0  0  0  0  0  2  0  0  0  0  0  0
  191.4520  171.9460  144.4260 O   0  0  0  0  0  1  0  0  0  0  0  0
  192.7210  171.4600  144.1090 C   0  0  1  0  0  3  0  0  0  0  0  0
  193.9440  170.0700  142.3120 C   0  0  1  0  0  3  0  0  0  0  0  0
  191.5880  170.7070  142.0080 O   0  0  0  0  0  1  0  0  0  0  0  0
  193.0800  169.0510  143.0560 C   0  0  2  0  0  3  0  0  0  0  0  0
  193.8170  169.8640  140.9370 O   0  0  0  0  0  1  0  0  0  0  0  0
  192.6170  170.4970  142.9270 C   0  0  2  0  0  0  0  0  0  0  0  0
  193.7170  168.7440  144.4020 C   0  0  0  0  0  2  0  0  0  0  0  0
  192.7670  168.1660  145.2440 O   0  0  0  0  0  1  0  0  0  0  0  0
  1 10  1  0  0  0  0
  2 10  1  0  0  0  0
  2 24  1  1  0  0  0
  3  7  1  0  0  0  0
  3  9  1  0  0  0  0
  4  9  2  0  0  0  0
  5 30  1  6  0  0  0
  5  8  1  0  0  0  0
  6  8  1  0  0  0  0
  6  1  1  1  0  0  0
  7 13  1  6  0  0  0
  7  6  1  0  0  0  0
  8  2  1  0  0  0  0
  9  5  1  0  0  0  0
 11 13  2  0  0  0  0
 13 12  1  0  0  0  0
 14 15  1  0  0  0  0
 14 12  1  0  0  0  0
 15 17  1  0  0  0  0
 17 16  1  0  0  0  0
 18 17  1  0  0  0  0
 20 18  1  0  0  0  0
 20 19  2  0  0  0  0
 21 20  1  0  0  0  0
 22 23  1  0  0  0  0
 23 21  1  0  0  0  0
 24 25  1  0  0  0  0
 25 27  1  0  0  0  0
 26 27  1  0  0  0  0
 28 25  1  0  0  0  0
 28 29  1  0  0  0  0
 30 31  1  0  0  0  0
 31 39  1  0  0  0  0
 32 35  1  0  0  0  0
 33 38  1  0  0  0  0
 34 36  1  0  0  0  0
 35 33  1  0  0  0  0
 36 42  1  0  0  0  0
 36 33  1  0  0  0  0
 37 34  1  0  0  0  0
 37 39  1  0  0  0  0
 39 35  1  0  0  0  0
 40 41  1  0  0  0  0
 41 37  1  0  0  0  0
 42 43  1  0  0  0  0
 44 45  2  0  0  0  0
 44 43  1  0  0  0  0
 46 44  2  0  0  0  0
 47 44  1  0  0  0  0
 48 50  1  0  0  0  0
 48 47  1  0  0  0  0
 50 49  1  0  0  0  0
 51 55  1  0  0  0  0
 51 53  1  0  0  0  0
 52 55  1  0  0  0  0
 53 56  1  0  0  0  0
 54 51  1  0  0  0  0
 55 53  1  0  0  0  0
 55 50  1  0  0  0  0
 56 57  1  0  0  0  0
M  END
>  <MODEL>
4

>  <REMARK>
 VINA RESULT:      -5.1      4.209      7.525
  Name = 
  23 active torsions:
  status: ('A' for Active; 'I' for Inactive)
    1  A    between atoms: C_1  and  C_10
    2  A    between atoms: C_2  and  C_35
    3  A    between atoms: N_3  and  C_9
    4  A    between atoms: N_3  and  S_25
    5  A    between atoms: C_7  and  O_38
    6  A    between atoms: C_9  and  C_45
    7  A    between atoms: C_10  and  O_18
    8  A    between atoms: C_10  and  O_38
    9  A    between atoms: C_13  and  O_22
   10  A    between atoms: C_13  and  C_52
   11  A    between atoms: N_15  and  C_16
   12  A    between atoms: N_15  and  S_25
   13  A    between atoms: C_16  and  C_57
   14  A    between atoms: O_22  and  C_29
   15  A    between atoms: N_27  and  O_42
   16  A    between atoms: C_28  and  C_37
   17  A    between atoms: C_33  and  C_43
   18  A    between atoms: N_40  and  O_55
   19  A    between atoms: O_42  and  C_49
   20  A    between atoms: C_43  and  C_51
   21  A    between atoms: C_46  and  O_50
   22  A    between atoms: C_49  and  C_51
   23  A    between atoms: C_54  and  C_57
                            x       y       z     vdW  Elec       q    Type
                         _______ _______ _______ _____ _____    ______ ____

>  <TORSDO>
F 23

$$$$
=
 OpenBabel11042419073D

 57 60  0  0  1  0  0  0  0  0999 V2000
  189.2790  175.7140  143.8380 C   0  0  0  0  0  2  0  0  0  0  0  0
  191.4550  175.4050  142.7420 C   0  0  2  0  0  3  0  0  0  0  0  0
  191.4470  176.3280  146.8930 O   0  0  0  0  0  0  0  0  0  0  0  0
  193.7720  176.6460  147.0150 C   0  0  0  0  0  2  0  0  0  0  0  0
  192.8930  175.8520  144.8470 C   0  0  1  0  0  3  0  0  0  0  0  0
  190.4200  176.1680  144.7190 C   0  0  1  0  0  3  0  0  0  0  0  0
  190.2500  175.9320  146.2130 C   0  0  2  0  0  3  0  0  0  0  0  0
  191.5760  175.3370  144.2470 C   0  0  1  0  0  3  0  0  0  0  0  0
  192.7220  176.2580  146.3070 C   0  0  0  0  0  0  0  0  0  0  0  0
  189.9420  175.4260  142.4940 C   0  0  0  0  0  2  0  0  0  0  0  0
  189.2550  177.8900  147.1410 O   0  0  0  0  0  0  0  0  0  0  0  0
  187.8000  176.0880  146.8450 N   0  0  0  0  0  2  0  0  0  0  0  0
  189.0890  176.7030  146.7530 C   0  0  0  0  0  0  0  0  0  0  0  0
  186.7350  176.7590  147.3450 O   0  0  0  0  0  0  0  0  0  0  0  0
  185.8730  176.9250  146.2580 C   0  0  0  0  0  2  0  0  0  0  0  0
  184.0410  178.5760  146.3610 C   0  0  0  0  0  1  0  0  0  0  0  0
  185.5190  178.3940  146.0870 C   0  0  2  0  0  3  0  0  0  0  0  0
  185.8180  178.8650  144.6710 C   0  0  0  0  0  2  0  0  0  0  0  0
  183.6220  179.0630  143.7610 O   0  0  0  0  0  0  0  0  0  0  0  0
  184.7330  178.4670  143.7230 C   0  0  0  0  0  0  0  0  0  0  0  0
  184.9370  177.4240  142.7680 N   0  0  0  0  0  2  0  0  0  0  0  0
  186.6340  177.0700  141.4380 C   0  0  0  0  0  1  0  0  0  0  0  0
  186.1070  176.7450  142.6950 O   0  0  0  0  0  0  0  0  0  0  0  0
  192.0330  174.2750  142.1500 O   0  0  0  0  0  0  0  0  0  0  0  0
  191.0410  173.2850  142.2000 C   0  0  2  0  0  3  0  0  0  0  0  0
  190.0980  171.9870  143.7320 C   0  0  0  0  0  1  0  0  0  0  0  0
  191.3390  172.3590  143.2040 O   0  0  0  0  0  0  0  0  0  0  0  0
  190.9110  172.5840  140.8520 C   0  0  0  0  0  2  0  0  0  0  0  0
  192.0230  171.5710  140.6370 C   0  0  0  0  0  1  0  0  0  0  0  0
  193.9750  174.9620  144.6380 O   0  0  0  0  0  0  0  0  0  0  0  0
  195.0020  175.6400  143.9540 C   0  0  0  0  0  2  0  0  0  0  0  0
  194.7510  172.9090  142.7170 F   0  0  0  0  0  0  0  0  0  0  0  0
  197.0140  172.4100  143.3080 C   0  0  2  0  0  3  0  0  0  0  0  0
  197.9410  174.2520  141.9360 O   0  0  0  0  0  0  0  0  0  0  0  0
  195.7600  173.2190  143.6170 C   0  0  1  0  0  3  0  0  0  0  0  0
  197.6650  172.8560  141.9860 C   0  0  2  0  0  3  0  0  0  0  0  0
  196.7840  175.0430  142.1890 C   0  0  2  0  0  3  0  0  0  0  0  0
  196.7290  171.0420  143.2900 O   0  0  0  0  0  1  0  0  0  0  0  0
  196.1290  174.6960  143.5360 C   0  0  1  0  0  3  0  0  0  0  0  0
  195.7610  176.2900  140.6620 C   0  0  0  0  0  1  0  0  0  0  0  0
  195.8760  174.9780  141.1230 O   0  0  0  0  0  0  0  0  0  0  0  0
  196.9440  172.3450  140.7370 C   0  0  0  0  0  2  0  0  0  0  0  0
  197.8630  172.2480  139.6140 N   0  0  0  0  0  2  0  0  0  0  0  0
  197.2060  173.1420  138.2820 S   0  0  0  0  0  0  0  0  0  0  0  0
  197.5990  172.4700  136.9960 O   0  0  0  0  0  0  0  0  0  0  0  0
  197.7490  174.5450  138.2800 O   0  0  0  0  0  0  0  0  0  0  0  0
  195.4800  173.1980  138.4200 N   0  0  0  0  0  2  0  0  0  0  0  0
  194.9530  173.5660  137.1150 C   0  0  0  0  0  2  0  0  0  0  0  0
  193.7370  171.5680  137.6120 O   0  0  0  0  0  1  0  0  0  0  0  0
  193.8180  172.6370  136.7190 C   0  0  1  0  0  3  0  0  0  0  0  0
  192.2080  174.2160  135.4650 C   0  0  1  0  0  3  0  0  0  0  0  0
  192.0990  174.0110  137.9130 O   0  0  0  0  0  1  0  0  0  0  0  0
  191.3540  172.9920  135.7980 C   0  0  2  0  0  3  0  0  0  0  0  0
  191.4900  175.3740  135.7690 O   0  0  0  0  0  1  0  0  0  0  0  0
  192.4950  173.4030  136.7200 C   0  0  2  0  0  0  0  0  0  0  0  0
  191.7240  171.8540  134.8590 C   0  0  0  0  0  2  0  0  0  0  0  0
  191.1040  170.6800  135.2860 O   0  0  0  0  0  1  0  0  0  0  0  0
  2 24  1  6  0  0  0
  2  8  1  0  0  0  0
  5 30  1  1  0  0  0
  5  9  1  0  0  0  0
  6  1  1  6  0  0  0
  6  7  1  0  0  0  0
  7 13  1  1  0  0  0
  7  3  1  0  0  0  0
  8  6  1  0  0  0  0
  8  5  1  0  0  0  0
  9  3  1  0  0  0  0
  9  4  2  0  0  0  0
 10  2  1  0  0  0  0
 10  1  1  0  0  0  0
 12 14  1  0  0  0  0
 13 12  1  0  0  0  0
 13 11  2  0  0  0  0
 15 14  1  0  0  0  0
 17 15  1  0  0  0  0
 17 16  1  0  0  0  0
 18 17  1  0  0  0  0
 20 19  2  0  0  0  0
 20 18  1  0  0  0  0
 21 20  1  0  0  0  0
 22 23  1  0  0  0  0
 23 21  1  0  0  0  0
 24 25  1  0  0  0  0
 25 27  1  0  0  0  0
 27 26  1  0  0  0  0
 28 25  1  0  0  0  0
 29 28  1  0  0  0  0
 31 30  1  0  0  0  0
 32 35  1  0  0  0  0
 33 35  1  0  0  0  0
 34 36  1  0  0  0  0
 34 37  1  0  0  0  0
 36 33  1  0  0  0  0
 37 39  1  0  0  0  0
 38 33  1  0  0  0  0
 39 35  1  0  0  0  0
 39 31  1  0  0  0  0
 40 41  1  0  0  0  0
 41 37  1  0  0  0  0
 42 36  1  0  0  0  0
 43 42  1  0  0  0  0
 44 47  1  0  0  0  0
 44 43  1  0  0  0  0
 45 44  2  0  0  0  0
 46 44  2  0  0  0  0
 48 47  1  0  0  0  0
 50 55  1  0  0  0  0
 50 48  1  0  0  0  0
 50 49  1  0  0  0  0
 51 54  1  0  0  0  0
 51 53  1  0  0  0  0
 51 55  1  0  0  0  0
 53 55  1  0  0  0  0
 55 52  1  0  0  0  0
 56 57  1  0  0  0  0
 56 53  1  0  0  0  0
M  END
>  <MODEL>
5

>  <REMARK>
 VINA RESULT:      -4.9      2.012      4.269
  Name = 
  23 active torsions:
  status: ('A' for Active; 'I' for Inactive)
    1  A    between atoms: C_1  and  C_10
    2  A    between atoms: C_2  and  C_35
    3  A    between atoms: N_3  and  C_9
    4  A    between atoms: N_3  and  S_25
    5  A    between atoms: C_7  and  O_38
    6  A    between atoms: C_9  and  C_45
    7  A    between atoms: C_10  and  O_18
    8  A    between atoms: C_10  and  O_38
    9  A    between atoms: C_13  and  O_22
   10  A    between atoms: C_13  and  C_52
   11  A    between atoms: N_15  and  C_16
   12  A    between atoms: N_15  and  S_25
   13  A    between atoms: C_16  and  C_57
   14  A    between atoms: O_22  and  C_29
   15  A    between atoms: N_27  and  O_42
   16  A    between atoms: C_28  and  C_37
   17  A    between atoms: C_33  and  C_43
   18  A    between atoms: N_40  and  O_55
   19  A    between atoms: O_42  and  C_49
   20  A    between atoms: C_43  and  C_51
   21  A    between atoms: C_46  and  O_50
   22  A    between atoms: C_49  and  C_51
   23  A    between atoms: C_54  and  C_57
                            x       y       z     vdW  Elec       q    Type
                         _______ _______ _______ _____ _____    ______ ____

>  <TORSDO>
F 23

$$$$
=
 OpenBabel11042419073D

 57 60  0  0  1  0  0  0  0  0999 V2000
  189.6190  177.8820  143.0950 C   0  0  0  0  0  2  0  0  0  0  0  0
  191.1790  176.3470  144.2110 C   0  0  2  0  0  3  0  0  0  0  0  0
  188.0900  174.6420  141.8380 O   0  0  0  0  0  0  0  0  0  0  0  0
  188.5240  172.4380  142.5280 C   0  0  0  0  0  2  0  0  0  0  0  0
  190.0890  174.1650  143.3470 C   0  0  1  0  0  3  0  0  0  0  0  0
  189.1350  176.4520  143.0400 C   0  0  1  0  0  3  0  0  0  0  0  0
  188.3970  176.0400  141.7740 C   0  0  2  0  0  3  0  0  0  0  0  0
  190.4010  175.6510  143.1180 C   0  0  1  0  0  3  0  0  0  0  0  0
  188.8870  173.7120  142.5250 C   0  0  0  0  0  0  0  0  0  0  0  0
  190.8220  177.8280  144.0320 C   0  0  0  0  0  2  0  0  0  0  0  0
  186.7720  177.1800  140.4530 O   0  0  0  0  0  0  0  0  0  0  0  0
  186.3550  177.1810  142.7500 N   0  0  0  0  0  2  0  0  0  0  0  0
  187.1350  176.8230  141.6060 C   0  0  0  0  0  0  0  0  0  0  0  0
  185.2150  177.9030  142.6270 O   0  0  0  0  0  0  0  0  0  0  0  0
  184.6340  177.8760  143.8970 C   0  0  0  0  0  2  0  0  0  0  0  0
  185.7760  180.0620  143.7750 C   0  0  0  0  0  1  0  0  0  0  0  0
  184.8160  179.2190  144.5870 C   0  0  2  0  0  3  0  0  0  0  0  0
  185.3830  179.0390  145.9880 C   0  0  0  0  0  2  0  0  0  0  0  0
  184.0170  177.2700  146.8210 O   0  0  0  0  0  0  0  0  0  0  0  0
  185.1730  177.6450  146.4870 C   0  0  0  0  0  0  0  0  0  0  0  0
  186.2640  176.7290  146.5860 N   0  0  0  0  0  2  0  0  0  0  0  0
  188.3080  175.9570  146.5300 C   0  0  0  0  0  1  0  0  0  0  0  0
  187.5270  177.0870  146.2510 O   0  0  0  0  0  0  0  0  0  0  0  0
  192.5550  176.1500  144.0390 O   0  0  0  0  0  0  0  0  0  0  0  0
  193.1260  176.4260  145.2900 C   0  0  2  0  0  3  0  0  0  0  0  0
  194.9550  175.1750  145.4070 C   0  0  0  0  0  1  0  0  0  0  0  0
  194.5180  176.4840  145.1770 O   0  0  0  0  0  0  0  0  0  0  0  0
  192.7190  175.3700  146.3130 C   0  0  0  0  0  2  0  0  0  0  0  0
  192.0720  175.9950  147.5370 C   0  0  0  0  0  1  0  0  0  0  0  0
  191.2250  173.3350  143.1810 O   0  0  0  0  0  0  0  0  0  0  0  0
  191.7940  173.5840  141.9180 C   0  0  0  0  0  2  0  0  0  0  0  0
  190.4690  172.0660  139.6850 F   0  0  0  0  0  0  0  0  0  0  0  0
  191.7720  170.1290  140.1980 C   0  0  2  0  0  3  0  0  0  0  0  0
  193.9240  171.2670  139.7430 O   0  0  0  0  0  0  0  0  0  0  0  0
  191.1500  171.4240  140.7060 C   0  0  1  0  0  3  0  0  0  0  0  0
  192.9250  170.4020  139.2140 C   0  0  2  0  0  3  0  0  0  0  0  0
  193.3850  172.5030  140.2000 C   0  0  2  0  0  3  0  0  0  0  0  0
  190.8020  169.3080  139.6170 O   0  0  0  0  0  1  0  0  0  0  0  0
  192.2760  172.2990  141.2460 C   0  0  1  0  0  3  0  0  0  0  0  0
  193.5920  174.5380  139.3350 C   0  0  0  0  0  1  0  0  0  0  0  0
  192.9660  173.3070  139.1310 O   0  0  0  0  0  0  0  0  0  0  0  0
  192.4620  170.8110  137.8140 C   0  0  0  0  0  2  0  0  0  0  0  0
  193.5880  171.2410  137.0020 N   0  0  0  0  0  2  0  0  0  0  0  0
  193.0540  171.4180  135.3620 S   0  0  0  0  0  0  0  0  0  0  0  0
  193.7160  170.3690  134.5130 O   0  0  0  0  0  0  0  0  0  0  0  0
  193.4320  172.7750  134.8360 O   0  0  0  0  0  0  0  0  0  0  0  0
  191.3320  171.2380  135.2930 N   0  0  0  0  0  2  0  0  0  0  0  0
  190.8110  172.3490  134.5130 C   0  0  0  0  0  2  0  0  0  0  0  0
  189.3900  172.3640  136.4350 O   0  0  0  0  0  1  0  0  0  0  0  0
  189.7250  173.0780  135.2840 C   0  0  1  0  0  3  0  0  0  0  0  0
  190.5870  175.3850  134.5130 C   0  0  1  0  0  3  0  0  0  0  0  0
  191.0400  174.5820  136.7930 O   0  0  0  0  0  1  0  0  0  0  0  0
  189.3680  175.7060  135.3780 C   0  0  2  0  0  3  0  0  0  0  0  0
  191.6360  176.2380  134.8630 O   0  0  0  0  0  1  0  0  0  0  0  0
  190.2120  174.4730  135.6750 C   0  0  2  0  0  0  0  0  0  0  0  0
  188.1030  175.3910  134.5950 C   0  0  0  0  0  2  0  0  0  0  0  0
  187.0250  176.0760  135.1570 O   0  0  0  0  0  1  0  0  0  0  0  0
  1 10  1  0  0  0  0
  2 24  1  6  0  0  0
  3  9  1  0  0  0  0
  5 30  1  6  0  0  0
  6  1  1  6  0  0  0
  6  8  1  0  0  0  0
  7 13  1  1  0  0  0
  7  3  1  0  0  0  0
  7  6  1  0  0  0  0
  8  5  1  0  0  0  0
  8  2  1  0  0  0  0
  9  4  2  0  0  0  0
  9  5  1  0  0  0  0
 10  2  1  0  0  0  0
 11 13  2  0  0  0  0
 13 12  1  0  0  0  0
 14 12  1  0  0  0  0
 14 15  1  0  0  0  0
 15 17  1  0  0  0  0
 16 17  1  0  0  0  0
 17 18  1  0  0  0  0
 18 20  1  0  0  0  0
 20 21  1  0  0  0  0
 20 19  2  0  0  0  0
 23 22  1  0  0  0  0
 23 21  1  0  0  0  0
 24 25  1  0  0  0  0
 25 28  1  0  0  0  0
 27 25  1  0  0  0  0
 27 26  1  0  0  0  0
 28 29  1  0  0  0  0
 31 30  1  0  0  0  0
 32 35  1  0  0  0  0
 33 35  1  0  0  0  0
 34 37  1  0  0  0  0
 35 39  1  0  0  0  0
 36 34  1  0  0  0  0
 36 33  1  0  0  0  0
 37 39  1  0  0  0  0
 38 33  1  0  0  0  0
 39 31  1  0  0  0  0
 41 40  1  0  0  0  0
 41 37  1  0  0  0  0
 42 36  1  0  0  0  0
 43 42  1  0  0  0  0
 44 43  1  0  0  0  0
 45 44  2  0  0  0  0
 46 44  2  0  0  0  0
 47 44  1  0  0  0  0
 48 50  1  0  0  0  0
 48 47  1  0  0  0  0
 50 55  1  0  0  0  0
 50 49  1  0  0  0  0
 51 54  1  0  0  0  0
 51 53  1  0  0  0  0
 51 55  1  0  0  0  0
 53 55  1  0  0  0  0
 55 52  1  0  0  0  0
 56 57  1  0  0  0  0
 56 53  1  0  0  0  0
M  END
>  <MODEL>
6

>  <REMARK>
 VINA RESULT:      -4.7      1.845      2.496
  Name = 
  23 active torsions:
  status: ('A' for Active; 'I' for Inactive)
    1  A    between atoms: C_1  and  C_10
    2  A    between atoms: C_2  and  C_35
    3  A    between atoms: N_3  and  C_9
    4  A    between atoms: N_3  and  S_25
    5  A    between atoms: C_7  and  O_38
    6  A    between atoms: C_9  and  C_45
    7  A    between atoms: C_10  and  O_18
    8  A    between atoms: C_10  and  O_38
    9  A    between atoms: C_13  and  O_22
   10  A    between atoms: C_13  and  C_52
   11  A    between atoms: N_15  and  C_16
   12  A    between atoms: N_15  and  S_25
   13  A    between atoms: C_16  and  C_57
   14  A    between atoms: O_22  and  C_29
   15  A    between atoms: N_27  and  O_42
   16  A    between atoms: C_28  and  C_37
   17  A    between atoms: C_33  and  C_43
   18  A    between atoms: N_40  and  O_55
   19  A    between atoms: O_42  and  C_49
   20  A    between atoms: C_43  and  C_51
   21  A    between atoms: C_46  and  O_50
   22  A    between atoms: C_49  and  C_51
   23  A    between atoms: C_54  and  C_57
                            x       y       z     vdW  Elec       q    Type
                         _______ _______ _______ _____ _____    ______ ____

>  <TORSDO>
F 23

$$$$
=
 OpenBabel11042419073D

 57 60  0  0  1  0  0  0  0  0999 V2000
  192.2720  176.6490  142.9420 C   0  0  0  0  0  2  0  0  0  0  0  0
  193.6360  174.7060  143.5720 C   0  0  2  0  0  3  0  0  0  0  0  0
  189.4390  174.4630  144.2090 O   0  0  0  0  0  0  0  0  0  0  0  0
  189.5520  172.4470  145.4120 C   0  0  0  0  0  2  0  0  0  0  0  0
  191.6750  173.2600  144.4450 C   0  0  1  0  0  3  0  0  0  0  0  0
  191.4860  175.6550  143.7650 C   0  0  1  0  0  3  0  0  0  0  0  0
  190.0150  175.5010  143.4070 C   0  0  2  0  0  3  0  0  0  0  0  0
  192.1700  174.3500  143.4820 C   0  0  1  0  0  3  0  0  0  0  0  0
  190.1710  173.3590  144.6770 C   0  0  0  0  0  0  0  0  0  0  0  0
  193.7050  176.1300  143.0060 C   0  0  0  0  0  2  0  0  0  0  0  0
  189.4030  177.3970  144.7180 O   0  0  0  0  0  0  0  0  0  0  0  0
  188.3930  177.2810  142.6160 N   0  0  0  0  0  2  0  0  0  0  0  0
  189.2690  176.7770  143.6290 C   0  0  0  0  0  0  0  0  0  0  0  0
  187.6930  178.4270  142.7980 O   0  0  0  0  0  0  0  0  0  0  0  0
  186.4380  178.1730  142.2390 C   0  0  0  0  0  2  0  0  0  0  0  0
  184.0190  178.2880  142.7170 C   0  0  0  0  0  1  0  0  0  0  0  0
  185.3860  178.0720  143.3310 C   0  0  2  0  0  3  0  0  0  0  0  0
  185.6140  179.1250  144.4070 C   0  0  0  0  0  2  0  0  0  0  0  0
  183.6580  179.0310  145.7670 O   0  0  0  0  0  0  0  0  0  0  0  0
  184.8900  178.7830  145.6690 C   0  0  0  0  0  0  0  0  0  0  0  0
  185.5730  178.1730  146.7650 N   0  0  0  0  0  2  0  0  0  0  0  0
  186.9970  176.5380  147.0410 C   0  0  0  0  0  1  0  0  0  0  0  0
  186.8980  177.8980  146.7140 O   0  0  0  0  0  0  0  0  0  0  0  0
  194.4040  173.8310  142.7930 O   0  0  0  0  0  0  0  0  0  0  0  0
  195.5180  173.5150  143.5840 C   0  0  2  0  0  3  0  0  0  0  0  0
  196.1010  172.8800  145.6280 C   0  0  0  0  0  1  0  0  0  0  0  0
  195.2170  173.7130  144.9350 O   0  0  0  0  0  0  0  0  0  0  0  0
  196.7230  174.3560  143.1780 C   0  0  0  0  0  2  0  0  0  0  0  0
  197.6330  173.6080  142.2180 C   0  0  0  0  0  1  0  0  0  0  0  0
  192.0980  171.9620  144.0650 O   0  0  0  0  0  0  0  0  0  0  0  0
  191.2100  171.4550  143.0990 C   0  0  0  0  0  2  0  0  0  0  0  0
  190.6400  169.3720  141.0050 F   0  0  0  0  0  0  0  0  0  0  0  0
  192.7370  169.8280  139.9490 C   0  0  2  0  0  3  0  0  0  0  0  0
  192.1540  172.1860  139.4640 O   0  0  0  0  0  0  0  0  0  0  0  0
  191.9210  169.8500  141.2360 C   0  0  1  0  0  3  0  0  0  0  0  0
  192.2230  170.8660  138.9340 C   0  0  2  0  0  3  0  0  0  0  0  0
  191.3720  172.2530  140.6520 C   0  0  2  0  0  3  0  0  0  0  0  0
  192.7480  168.5460  139.3920 O   0  0  0  0  0  1  0  0  0  0  0  0
  191.8830  171.2900  141.7360 C   0  0  1  0  0  3  0  0  0  0  0  0
  189.4390  173.3390  140.5170 C   0  0  0  0  0  1  0  0  0  0  0  0
  190.0090  172.0720  140.3800 O   0  0  0  0  0  0  0  0  0  0  0  0
  190.9420  170.4450  138.2110 C   0  0  0  0  0  2  0  0  0  0  0  0
  190.6160  171.3830  137.1490 N   0  0  0  0  0  2  0  0  0  0  0  0
  191.1820  170.7350  135.6440 S   0  0  0  0  0  0  0  0  0  0  0  0
  190.2260  171.1220  134.5510 O   0  0  0  0  0  0  0  0  0  0  0  0
  191.2510  169.2350  135.7170 O   0  0  0  0  0  0  0  0  0  0  0  0
  192.7600  171.3630  135.3030 N   0  0  0  0  0  2  0  0  0  0  0  0
  192.7590  172.7670  135.6790 C   0  0  0  0  0  2  0  0  0  0  0  0
  195.1320  172.4810  135.6710 O   0  0  0  0  0  1  0  0  0  0  0  0
  194.0880  173.1510  136.3080 C   0  0  1  0  0  3  0  0  0  0  0  0
  193.1850  175.5270  136.7550 C   0  0  1  0  0  3  0  0  0  0  0  0
  194.8750  175.1420  135.0100 O   0  0  0  0  0  1  0  0  0  0  0  0
  194.5600  175.5120  137.4240 C   0  0  2  0  0  3  0  0  0  0  0  0
  193.0440  176.7070  136.0220 O   0  0  0  0  0  1  0  0  0  0  0  0
  194.3020  174.6600  136.1880 C   0  0  2  0  0  0  0  0  0  0  0  0
  194.4750  174.7240  138.7230 C   0  0  0  0  0  2  0  0  0  0  0  0
  195.0200  175.4790  139.7610 O   0  0  0  0  0  1  0  0  0  0  0  0
  1 10  1  0  0  0  0
  2 24  1  6  0  0  0
  3  9  1  0  0  0  0
  5 30  1  6  0  0  0
  5  9  1  0  0  0  0
  6  1  1  6  0  0  0
  7 13  1  1  0  0  0
  7  6  1  0  0  0  0
  7  3  1  0  0  0  0
  8  2  1  0  0  0  0
  8  6  1  0  0  0  0
  8  5  1  0  0  0  0
  9  4  2  0  0  0  0
 10  2  1  0  0  0  0
 12 14  1  0  0  0  0
 12 13  1  0  0  0  0
 13 11  2  0  0  0  0
 15 14  1  0  0  0  0
 15 17  1  0  0  0  0
 16 17  1  0  0  0  0
 17 18  1  0  0  0  0
 18 20  1  0  0  0  0
 20 19  2  0  0  0  0
 20 21  1  0  0  0  0
 23 21  1  0  0  0  0
 23 22  1  0  0  0  0
 24 25  1  0  0  0  0
 25 27  1  0  0  0  0
 27 26  1  0  0  0  0
 28 25  1  0  0  0  0
 29 28  1  0  0  0  0
 31 30  1  0  0  0  0
 32 35  1  0  0  0  0
 33 35  1  0  0  0  0
 34 37  1  0  0  0  0
 35 39  1  0  0  0  0
 36 34  1  0  0  0  0
 36 33  1  0  0  0  0
 37 39  1  0  0  0  0
 38 33  1  0  0  0  0
 39 31  1  0  0  0  0
 41 40  1  0  0  0  0
 41 37  1  0  0  0  0
 42 36  1  0  0  0  0
 43 42  1  0  0  0  0
 44 46  2  0  0  0  0
 44 43  1  0  0  0  0
 45 44  2  0  0  0  0
 47 44  1  0  0  0  0
 47 48  1  0  0  0  0
 48 50  1  0  0  0  0
 49 50  1  0  0  0  0
 51 53  1  0  0  0  0
 52 55  1  0  0  0  0
 53 56  1  0  0  0  0
 54 51  1  0  0  0  0
 55 50  1  0  0  0  0
 55 51  1  0  0  0  0
 55 53  1  0  0  0  0
 56 57  1  0  0  0  0
M  END
>  <MODEL>
7

>  <REMARK>
 VINA RESULT:      -4.7      2.284      3.839
  Name = 
  23 active torsions:
  status: ('A' for Active; 'I' for Inactive)
    1  A    between atoms: C_1  and  C_10
    2  A    between atoms: C_2  and  C_35
    3  A    between atoms: N_3  and  C_9
    4  A    between atoms: N_3  and  S_25
    5  A    between atoms: C_7  and  O_38
    6  A    between atoms: C_9  and  C_45
    7  A    between atoms: C_10  and  O_18
    8  A    between atoms: C_10  and  O_38
    9  A    between atoms: C_13  and  O_22
   10  A    between atoms: C_13  and  C_52
   11  A    between atoms: N_15  and  C_16
   12  A    between atoms: N_15  and  S_25
   13  A    between atoms: C_16  and  C_57
   14  A    between atoms: O_22  and  C_29
   15  A    between atoms: N_27  and  O_42
   16  A    between atoms: C_28  and  C_37
   17  A    between atoms: C_33  and  C_43
   18  A    between atoms: N_40  and  O_55
   19  A    between atoms: O_42  and  C_49
   20  A    between atoms: C_43  and  C_51
   21  A    between atoms: C_46  and  O_50
   22  A    between atoms: C_49  and  C_51
   23  A    between atoms: C_54  and  C_57
                            x       y       z     vdW  Elec       q    Type
                         _______ _______ _______ _____ _____    ______ ____

>  <TORSDO>
F 23

$$$$
=
 OpenBabel11042419073D

 57 60  0  0  1  0  0  0  0  0999 V2000
  189.4030  178.0980  143.1270 C   0  0  0  0  0  2  0  0  0  0  0  0
  190.7330  176.3450  144.2190 C   0  0  2  0  0  3  0  0  0  0  0  0
  187.7380  175.1220  141.4580 O   0  0  0  0  0  0  0  0  0  0  0  0
  187.9350  172.8380  141.9750 C   0  0  0  0  0  2  0  0  0  0  0  0
  189.5530  174.3460  143.0730 C   0  0  1  0  0  3  0  0  0  0  0  0
  188.8140  176.7250  142.9020 C   0  0  1  0  0  3  0  0  0  0  0  0
  188.1590  176.4880  141.5480 C   0  0  2  0  0  3  0  0  0  0  0  0
  190.0010  175.8140  143.0070 C   0  0  1  0  0  3  0  0  0  0  0  0
  188.3960  174.0710  142.1180 C   0  0  0  0  0  0  0  0  0  0  0  0
  190.5120  177.8610  144.1490 C   0  0  0  0  0  2  0  0  0  0  0  0
  186.7590  177.8840  140.2160 O   0  0  0  0  0  0  0  0  0  0  0  0
  186.1270  177.7020  142.4550 N   0  0  0  0  0  2  0  0  0  0  0  0
  186.9830  177.3890  141.3530 C   0  0  0  0  0  0  0  0  0  0  0  0
  185.0630  178.5270  142.3090 O   0  0  0  0  0  0  0  0  0  0  0  0
  184.1950  178.1820  143.3480 C   0  0  0  0  0  2  0  0  0  0  0  0
  185.8030  179.7300  144.4040 C   0  0  0  0  0  1  0  0  0  0  0  0
  184.4560  179.0580  144.5640 C   0  0  2  0  0  3  0  0  0  0  0  0
  184.4680  178.2280  145.8400 C   0  0  0  0  0  2  0  0  0  0  0  0
  185.5770  179.6810  147.3720 O   0  0  0  0  0  0  0  0  0  0  0  0
  185.6160  178.6010  146.7220 C   0  0  0  0  0  0  0  0  0  0  0  0
  186.7560  177.7500  146.8440 N   0  0  0  0  0  2  0  0  0  0  0  0
  188.0930  176.0500  146.5280 C   0  0  0  0  0  1  0  0  0  0  0  0
  186.8520  176.5860  146.1570 O   0  0  0  0  0  0  0  0  0  0  0  0
  192.0990  176.0440  144.1400 O   0  0  0  0  0  0  0  0  0  0  0  0
  192.5370  175.9700  145.4690 C   0  0  2  0  0  3  0  0  0  0  0  0
  194.5400  176.9140  145.6110 C   0  0  0  0  0  1  0  0  0  0  0  0
  193.9030  175.6730  145.5070 O   0  0  0  0  0  0  0  0  0  0  0  0
  191.7440  174.9210  146.2410 C   0  0  0  0  0  2  0  0  0  0  0  0
  191.5410  175.3250  147.6920 C   0  0  0  0  0  1  0  0  0  0  0  0
  190.6310  173.4380  142.9220 O   0  0  0  0  0  0  0  0  0  0  0  0
  191.2520  173.6650  141.6800 C   0  0  0  0  0  2  0  0  0  0  0  0
  192.5910  171.0260  141.1430 F   0  0  0  0  0  0  0  0  0  0  0  0
  194.5750  171.7840  142.2400 C   0  0  2  0  0  3  0  0  0  0  0  0
  194.9340  173.6410  140.6410 O   0  0  0  0  0  0  0  0  0  0  0  0
  193.0620  171.9070  142.1030 C   0  0  1  0  0  3  0  0  0  0  0  0
  195.3010  172.3100  140.9880 C   0  0  2  0  0  3  0  0  0  0  0  0
  193.5270  173.7880  140.4730 C   0  0  2  0  0  3  0  0  0  0  0  0
  194.9420  170.4640  142.5140 O   0  0  0  0  0  1  0  0  0  0  0  0
  192.7460  173.3490  141.7220 C   0  0  1  0  0  3  0  0  0  0  0  0
  192.7660  174.1730  138.4220 C   0  0  0  0  0  1  0  0  0  0  0  0
  193.0790  173.1440  139.3120 O   0  0  0  0  0  0  0  0  0  0  0  0
  195.2620  171.3490  139.7980 C   0  0  0  0  0  2  0  0  0  0  0  0
  196.4800  171.4500  139.0120 N   0  0  0  0  0  2  0  0  0  0  0  0
  196.2930  170.4980  137.5750 S   0  0  0  0  0  0  0  0  0  0  0  0
  195.7090  169.1630  137.9410 O   0  0  0  0  0  0  0  0  0  0  0  0
  197.6280  170.2780  136.9190 O   0  0  0  0  0  0  0  0  0  0  0  0
  195.2430  171.3230  136.4700 N   0  0  0  0  0  2  0  0  0  0  0  0
  196.0680  172.2230  135.6790 C   0  0  0  0  0  2  0  0  0  0  0  0
  193.8920  173.1700  135.3870 O   0  0  0  0  0  1  0  0  0  0  0  0
  195.2540  173.4170  135.2120 C   0  0  1  0  0  3  0  0  0  0  0  0
  196.3540  175.7520  135.2100 C   0  0  1  0  0  3  0  0  0  0  0  0
  196.1460  174.4720  137.3000 O   0  0  0  0  0  1  0  0  0  0  0  0
  194.9530  175.9940  135.7740 C   0  0  2  0  0  3  0  0  0  0  0  0
  197.2890  176.4270  135.9970 O   0  0  0  0  0  1  0  0  0  0  0  0
  195.6520  174.6600  136.0080 C   0  0  2  0  0  0  0  0  0  0  0  0
  193.9430  175.9480  134.6380 C   0  0  0  0  0  2  0  0  0  0  0  0
  192.7260  176.4690  135.0780 O   0  0  0  0  0  1  0  0  0  0  0  0
  1 10  1  0  0  0  0
  2 24  1  6  0  0  0
  3  7  1  0  0  0  0
  3  9  1  0  0  0  0
  4  9  2  0  0  0  0
  5 30  1  6  0  0  0
  6  8  1  0  0  0  0
  6  1  1  6  0  0  0
  7 13  1  1  0  0  0
  7  6  1  0  0  0  0
  8  5  1  0  0  0  0
  8  2  1  0  0  0  0
  9  5  1  0  0  0  0
 10  2  1  0  0  0  0
 11 13  2  0  0  0  0
 13 12  1  0  0  0  0
 14 12  1  0  0  0  0
 14 15  1  0  0  0  0
 15 17  1  0  0  0  0
 16 17  1  0  0  0  0
 17 18  1  0  0  0  0
 18 20  1  0  0  0  0
 20 21  1  0  0  0  0
 20 19  2  0  0  0  0
 23 22  1  0  0  0  0
 23 21  1  0  0  0  0
 24 25  1  0  0  0  0
 25 27  1  0  0  0  0
 25 28  1  0  0  0  0
 27 26  1  0  0  0  0
 28 29  1  0  0  0  0
 31 39  1  0  0  0  0
 31 30  1  0  0  0  0
 32 35  1  0  0  0  0
 33 38  1  0  0  0  0
 34 36  1  0  0  0  0
 35 33  1  0  0  0  0
 36 33  1  0  0  0  0
 37 34  1  0  0  0  0
 37 39  1  0  0  0  0
 39 35  1  0  0  0  0
 40 41  1  0  0  0  0
 41 37  1  0  0  0  0
 42 36  1  0  0  0  0
 43 42  1  0  0  0  0
 44 45  2  0  0  0  0
 44 43  1  0  0  0  0
 46 44  2  0  0  0  0
 47 44  1  0  0  0  0
 48 47  1  0  0  0  0
 50 49  1  0  0  0  0
 50 48  1  0  0  0  0
 50 55  1  0  0  0  0
 51 53  1  0  0  0  0
 51 54  1  0  0  0  0
 51 55  1  0  0  0  0
 53 55  1  0  0  0  0
 55 52  1  0  0  0  0
 56 57  1  0  0  0  0
 56 53  1  0  0  0  0
M  END
>  <MODEL>
8

>  <REMARK>
 VINA RESULT:      -4.7      1.750      3.022
  Name = 
  23 active torsions:
  status: ('A' for Active; 'I' for Inactive)
    1  A    between atoms: C_1  and  C_10
    2  A    between atoms: C_2  and  C_35
    3  A    between atoms: N_3  and  C_9
    4  A    between atoms: N_3  and  S_25
    5  A    between atoms: C_7  and  O_38
    6  A    between atoms: C_9  and  C_45
    7  A    between atoms: C_10  and  O_18
    8  A    between atoms: C_10  and  O_38
    9  A    between atoms: C_13  and  O_22
   10  A    between atoms: C_13  and  C_52
   11  A    between atoms: N_15  and  C_16
   12  A    between atoms: N_15  and  S_25
   13  A    between atoms: C_16  and  C_57
   14  A    between atoms: O_22  and  C_29
   15  A    between atoms: N_27  and  O_42
   16  A    between atoms: C_28  and  C_37
   17  A    between atoms: C_33  and  C_43
   18  A    between atoms: N_40  and  O_55
   19  A    between atoms: O_42  and  C_49
   20  A    between atoms: C_43  and  C_51
   21  A    between atoms: C_46  and  O_50
   22  A    between atoms: C_49  and  C_51
   23  A    between atoms: C_54  and  C_57
                            x       y       z     vdW  Elec       q    Type
                         _______ _______ _______ _____ _____    ______ ____

>  <TORSDO>
F 23

$$$$
=
 OpenBabel11042419073D

 57 60  0  0  1  0  0  0  0  0999 V2000
  189.1520  177.4380  143.8170 C   0  0  0  0  0  2  0  0  0  0  0  0
  188.4150  176.2610  141.7900 C   0  0  2  0  0  3  0  0  0  0  0  0
  189.9820  173.9190  144.9750 O   0  0  0  0  0  0  0  0  0  0  0  0
  190.0350  171.9270  143.7290 C   0  0  0  0  0  2  0  0  0  0  0  0
  189.0170  173.8830  142.6150 C   0  0  1  0  0  3  0  0  0  0  0  0
  189.6010  175.9950  143.8110 C   0  0  1  0  0  3  0  0  0  0  0  0
  189.6280  175.2950  145.1620 C   0  0  2  0  0  3  0  0  0  0  0  0
  188.5740  175.3130  142.9570 C   0  0  1  0  0  3  0  0  0  0  0  0
  189.6680  173.1980  143.8120 C   0  0  0  0  0  0  0  0  0  0  0  0
  188.5760  177.6510  142.4200 C   0  0  0  0  0  2  0  0  0  0  0  0
  190.1900  176.5780  147.0920 O   0  0  0  0  0  0  0  0  0  0  0  0
  192.0100  175.8560  145.8210 N   0  0  0  0  0  2  0  0  0  0  0  0
  190.6080  175.9430  146.0870 C   0  0  0  0  0  0  0  0  0  0  0  0
  192.9190  176.4470  146.6350 O   0  0  0  0  0  0  0  0  0  0  0  0
  194.0740  175.6710  146.5060 C   0  0  0  0  0  2  0  0  0  0  0  0
  194.8840  177.8800  145.7580 C   0  0  0  0  0  1  0  0  0  0  0  0
  195.0930  176.3860  145.6330 C   0  0  2  0  0  3  0  0  0  0  0  0
  194.9320  175.9880  144.1720 C   0  0  0  0  0  2  0  0  0  0  0  0
  196.9360  174.7670  143.7420 O   0  0  0  0  0  0  0  0  0  0  0  0
  195.6820  174.7310  143.8640 C   0  0  0  0  0  0  0  0  0  0  0  0
  194.9970  173.4870  143.7090 N   0  0  0  0  0  2  0  0  0  0  0  0
  193.4310  172.5440  144.9070 C   0  0  0  0  0  1  0  0  0  0  0  0
  193.6500  173.3980  143.8170 O   0  0  0  0  0  0  0  0  0  0  0  0
  187.1440  176.1280  141.2170 O   0  0  0  0  0  0  0  0  0  0  0  0
  186.4860  177.3350  141.4940 C   0  0  2  0  0  3  0  0  0  0  0  0
  184.6130  178.2040  142.3050 C   0  0  0  0  0  1  0  0  0  0  0  0
  185.4950  177.1290  142.4580 O   0  0  0  0  0  0  0  0  0  0  0  0
  185.8790  177.9220  140.2240 C   0  0  0  0  0  2  0  0  0  0  0  0
  186.3130  177.1530  138.9870 C   0  0  0  0  0  1  0  0  0  0  0  0
  187.9820  173.1150  142.0260 O   0  0  0  0  0  0  0  0  0  0  0  0
  188.2020  173.0360  140.6380 C   0  0  0  0  0  2  0  0  0  0  0  0
  189.5440  170.6690  139.3560 F   0  0  0  0  0  0  0  0  0  0  0  0
  191.6750  171.4320  140.1250 C   0  0  2  0  0  3  0  0  0  0  0  0
  191.5470  173.5530  138.8530 O   0  0  0  0  0  0  0  0  0  0  0  0
  190.1660  171.4230  140.3380 C   0  0  1  0  0  3  0  0  0  0  0  0
  192.0650  172.2270  138.8650 C   0  0  2  0  0  3  0  0  0  0  0  0
  190.1330  173.5850  139.0180 C   0  0  2  0  0  3  0  0  0  0  0  0
  192.1750  170.1280  140.0690 O   0  0  0  0  0  1  0  0  0  0  0  0
  189.6840  172.8690  140.3030 C   0  0  1  0  0  3  0  0  0  0  0  0
  189.1870  174.2300  137.1150 C   0  0  0  0  0  1  0  0  0  0  0  0
  189.4730  173.0990  137.8810 O   0  0  0  0  0  0  0  0  0  0  0  0
  191.8150  171.4760  137.5560 C   0  0  0  0  0  2  0  0  0  0  0  0
  192.7600  171.8930  136.5330 N   0  0  0  0  0  2  0  0  0  0  0  0
  193.6340  170.4990  135.9850 S   0  0  0  0  0  0  0  0  0  0  0  0
  192.8190  169.7860  134.9420 O   0  0  0  0  0  0  0  0  0  0  0  0
  193.8820  169.5580  137.1300 O   0  0  0  0  0  0  0  0  0  0  0  0
  195.1520  170.9960  135.3150 N   0  0  0  0  0  2  0  0  0  0  0  0
  195.8280  171.7990  136.3220 C   0  0  0  0  0  2  0  0  0  0  0  0
  195.2000  173.5130  134.7790 O   0  0  0  0  0  1  0  0  0  0  0  0
  196.1060  173.1950  135.7920 C   0  0  1  0  0  3  0  0  0  0  0  0
  197.3010  174.7110  137.5030 C   0  0  1  0  0  3  0  0  0  0  0  0
  194.9680  174.0220  137.8630 O   0  0  0  0  0  1  0  0  0  0  0  0
  196.4010  175.6650  136.7170 C   0  0  2  0  0  3  0  0  0  0  0  0
  197.1790  174.9840  138.8670 O   0  0  0  0  0  1  0  0  0  0  0  0
  195.9830  174.2140  136.9240 C   0  0  2  0  0  0  0  0  0  0  0  0
  197.0170  175.9200  135.3500 C   0  0  0  0  0  2  0  0  0  0  0  0
  196.7580  177.2350  134.9620 O   0  0  0  0  0  1  0  0  0  0  0  0
  2 24  1  1  0  0  0
  2 10  1  0  0  0  0
  2  8  1  0  0  0  0
  3  7  1  0  0  0  0
  4  9  2  0  0  0  0
  5 30  1  1  0  0  0
  5  8  1  0  0  0  0
  5  9  1  0  0  0  0
  6  1  1  1  0  0  0
  6  7  1  0  0  0  0
  7 13  1  1  0  0  0
  8  6  1  0  0  0  0
  9  3  1  0  0  0  0
 10  1  1  0  0  0  0
 12 13  1  0  0  0  0
 12 14  1  0  0  0  0
 13 11  2  0  0  0  0
 15 14  1  0  0  0  0
 17 16  1  0  0  0  0
 17 15  1  0  0  0  0
 18 17  1  0  0  0  0
 19 20  2  0  0  0  0
 20 18  1  0  0  0  0
 21 23  1  0  0  0  0
 21 20  1  0  0  0  0
 23 22  1  0  0  0  0
 24 25  1  0  0  0  0
 25 27  1  0  0  0  0
 26 27  1  0  0  0  0
 28 25  1  0  0  0  0
 29 28  1  0  0  0  0
 31 30  1  0  0  0  0
 32 35  1  0  0  0  0
 33 35  1  0  0  0  0
 34 36  1  0  0  0  0
 34 37  1  0  0  0  0
 36 33  1  0  0  0  0
 37 39  1  0  0  0  0
 38 33  1  0  0  0  0
 39 35  1  0  0  0  0
 39 31  1  0  0  0  0
 40 41  1  0  0  0  0
 41 37  1  0  0  0  0
 42 36  1  0  0  0  0
 43 42  1  0  0  0  0
 44 43  1  0  0  0  0
 44 46  2  0  0  0  0
 45 44  2  0  0  0  0
 47 44  1  0  0  0  0
 47 48  1  0  0  0  0
 49 50  1  0  0  0  0
 50 48  1  0  0  0  0
 50 55  1  0  0  0  0
 51 54  1  0  0  0  0
 53 55  1  0  0  0  0
 53 51  1  0  0  0  0
 55 51  1  0  0  0  0
 55 52  1  0  0  0  0
 56 53  1  0  0  0  0
 57 56  1  0  0  0  0
M  END
>  <MODEL>
9

>  <REMARK>
 VINA RESULT:      -4.7      2.655      6.458
  Name = 
  23 active torsions:
  status: ('A' for Active; 'I' for Inactive)
    1  A    between atoms: C_1  and  C_10
    2  A    between atoms: C_2  and  C_35
    3  A    between atoms: N_3  and  C_9
    4  A    between atoms: N_3  and  S_25
    5  A    between atoms: C_7  and  O_38
    6  A    between atoms: C_9  and  C_45
    7  A    between atoms: C_10  and  O_18
    8  A    between atoms: C_10  and  O_38
    9  A    between atoms: C_13  and  O_22
   10  A    between atoms: C_13  and  C_52
   11  A    between atoms: N_15  and  C_16
   12  A    between atoms: N_15  and  S_25
   13  A    between atoms: C_16  and  C_57
   14  A    between atoms: O_22  and  C_29
   15  A    between atoms: N_27  and  O_42
   16  A    between atoms: C_28  and  C_37
   17  A    between atoms: C_33  and  C_43
   18  A    between atoms: N_40  and  O_55
   19  A    between atoms: O_42  and  C_49
   20  A    between atoms: C_43  and  C_51
   21  A    between atoms: C_46  and  O_50
   22  A    between atoms: C_49  and  C_51
   23  A    between atoms: C_54  and  C_57
                            x       y       z     vdW  Elec       q    Type
                         _______ _______ _______ _____ _____    ______ ____

>  <TORSDO>
F 23

$$$$
