=
 OpenBabel11042416383D

 65 71  0  0  1  0  0  0  0  0999 V2000
  185.3040  179.0290  146.3290 C   0  0  0  0  0  3  0  0  0  0  0  0
  186.5800  177.5740  144.9670 C   0  0  0  0  0  0  0  0  0  0  0  0
  184.6620  178.5850  143.8630 C   0  0  0  0  0  0  0  0  0  0  0  0
  183.5450  179.4070  143.9190 O   0  0  0  0  0  1  0  0  0  0  0  0
  187.3000  177.5420  146.2680 C   0  0  1  0  0  3  0  0  0  0  0  0
  185.4760  178.3980  145.0020 C   0  0  0  0  0  0  0  0  0  0  0  0
  186.1380  177.1170  142.6540 C   0  0  0  0  0  0  0  0  0  0  0  0
  187.8110  175.7880  142.2440 C   0  0  0  0  0  0  0  0  0  0  0  0
  187.9090  176.1420  143.5140 O   0  0  0  0  0  0  0  0  0  0  0  0
  184.9990  177.9310  142.6580 C   0  0  0  0  0  3  0  0  0  0  0  0
  186.6940  176.3770  141.6340 C   0  0  0  0  0  3  0  0  0  0  0  0
  186.9090  176.9420  143.7710 C   0  0  0  0  0  0  0  0  0  0  0  0
  186.5310  178.5630  147.1280 C   0  0  0  0  0  3  0  0  0  0  0  0
  188.7750  174.8360  141.5910 C   0  0  2  0  0  3  0  0  0  0  0  0
  190.2050  175.3090  141.7980 C   0  0  0  0  0  1  0  0  0  0  0  0
  188.5110  174.6540  140.0980 C   0  0  0  0  0  2  0  0  0  0  0  0
  189.5150  173.2790  138.2540 C   0  0  0  0  0  0  0  0  0  0  0  0
  189.1180  173.4070  139.6280 N   0  0  0  0  0  0  0  0  0  0  0  0
  190.2290  172.1180  137.8220 N   0  0  0  0  0  2  0  0  0  0  0  0
  189.2370  174.1900  137.4250 O   0  0  0  0  0  0  0  0  0  0  0  0
  193.1650  172.9520  138.1620 C   0  0  0  0  0  2  0  0  0  0  0  0
  192.0820  172.2720  136.1640 C   0  0  0  0  0  2  0  0  0  0  0  0
  194.2360  172.6790  139.2330 C   0  0  1  0  0  3  0  0  0  0  0  0
  193.9240  170.1870  138.8080 C   0  0  1  0  0  3  0  0  0  0  0  0
  190.6170  171.8850  136.4340 C   0  0  1  0  0  3  0  0  0  0  0  0
  193.0740  171.8680  137.1790 N   0  0  2  0  0  0  0  0  0  0  0  0
  190.9060  169.3680  136.8550 C   0  0  0  0  0  2  0  0  0  0  0  0
  192.7700  170.6100  137.8900 C   0  0  1  0  0  3  0  0  0  0  0  0
  190.3050  170.4580  135.9690 C   0  0  0  0  0  2  0  0  0  0  0  0
  192.4190  169.4740  136.9440 C   0  0  0  0  0  2  0  0  0  0  0  0
  195.7680  171.0360  140.1180 O   0  0  0  0  0  1  0  0  0  0  0  0
  194.9350  171.3260  139.0350 C   0  0  2  0  0  3  0  0  0  0  0  0
  193.3970  169.7430  140.0250 O   0  0  0  0  0  1  0  0  0  0  0  0
  195.2280  173.7970  139.2660 C   0  0  0  0  0  0  0  0  0  0  0  0
  196.2970  175.7200  140.4990 C   0  0  0  0  0  1  0  0  0  0  0  0
  195.3530  174.6160  140.4320 N   0  0  0  0  0  2  0  0  0  0  0  0
  195.9280  174.0300  138.2440 O   0  0  0  0  0  0  0  0  0  0  0  0
  190.5780  171.8570  140.7890 C   0  0  0  0  0  2  0  0  0  0  0  0
  189.3590  172.3120  140.5270 C   0  0  0  0  0  3  0  0  0  0  0  0
  186.4100  176.1450  148.0150 O   0  0  0  0  0  1  0  0  0  0  0  0
  187.2960  176.1590  146.9380 C   0  0  2  0  0  3  0  0  0  0  0  0
  188.6820  175.7000  147.3830 C   0  0  0  0  0  2  0  0  0  0  0  0
  189.6490  175.6770  146.2090 C   0  0  0  0  0  2  0  0  0  0  0  0
  189.8780  174.2580  145.6860 C   0  0  0  0  0  2  0  0  0  0  0  0
  191.2330  174.0450  145.0060 C   0  0  2  0  0  3  0  0  0  0  0  0
  191.2940  172.7030  144.2990 C   0  0  0  0  0  1  0  0  0  0  0  0
  192.3290  174.1730  145.9550 N   0  0  0  0  0  2  0  0  0  0  0  0
  197.6280  174.4410  144.2030 C   0  0  0  0  0  1  0  0  0  0  0  0
  193.6830  176.4780  145.9480 F   0  0  0  0  0  0  0  0  0  0  0  0
  193.5690  174.1920  145.1930 C   0  0  2  0  0  3  0  0  0  0  0  0
  194.5770  173.4960  145.8880 O   0  0  0  0  0  0  0  0  0  0  0  0
  194.0170  175.6320  144.9040 C   0  0  2  0  0  3  0  0  0  0  0  0
  195.5300  175.7070  144.6790 C   0  0  1  0  0  3  0  0  0  0  0  0
  196.1130  174.3870  144.1600 C   0  0  2  0  0  3  0  0  0  0  0  0
  195.8180  176.7440  143.7910 O   0  0  0  0  0  1  0  0  0  0  0  0
  195.6080  173.1660  144.9680 C   0  0  2  0  0  3  0  0  0  0  0  0
  195.9200  168.5690  144.9470 C   0  0  0  0  0  1  0  0  0  0  0  0
  197.5200  171.0290  144.3440 C   0  0  0  0  0  2  0  0  0  0  0  0
  196.3240  171.3530  143.4330 C   0  0  0  0  0  2  0  0  0  0  0  0
  196.1300  169.0420  147.3410 C   0  0  0  0  0  1  0  0  0  0  0  0
  197.2010  170.6010  145.7830 C   0  0  0  0  0  2  0  0  0  0  0  0
  195.2050  172.0650  144.0660 N   0  0  1  0  0  0  0  0  0  0  0  0
  195.9890  169.6900  145.9800 C   0  0  0  0  0  0  0  0  0  0  0  0
  194.7100  170.5260  146.0080 C   0  0  0  0  0  2  0  0  0  0  0  0
  194.2740  171.0890  144.6490 C   0  0  0  0  0  2  0  0  0  0  0  0
  1 13  2  0  0  0  0
  2  6  1  0  0  0  0
  2  5  1  0  0  0  0
  3  4  1  0  0  0  0
  3  6  2  0  0  0  0
  5 41  1  1  0  0  0
  5 13  1  0  0  0  0
  6  1  1  0  0  0  0
  7 10  2  0  0  0  0
  7 12  1  0  0  0  0
  8  9  1  0  0  0  0
  9 12  1  0  0  0  0
 10  3  1  0  0  0  0
 11  8  2  0  0  0  0
 11  7  1  0  0  0  0
 12  2  2  0  0  0  0
 14 15  1  6  0  0  0
 14  8  1  0  0  0  0
 16 14  1  0  0  0  0
 17 18  1  0  0  0  0
 18 16  1  0  0  0  0
 18 39  1  0  0  0  0
 19 17  1  0  0  0  0
 20 17  2  0  0  0  0
 21 23  1  0  0  0  0
 22 25  1  0  0  0  0
 23 34  1  6  0  0  0
 24 32  1  0  0  0  0
 24 33  1  1  0  0  0
 25 19  1  1  0  0  0
 26 22  1  6  0  0  0
 26 28  1  0  0  0  0
 26 21  1  0  0  0  0
 27 30  1  0  0  0  0
 28 30  1  6  0  0  0
 28 24  1  0  0  0  0
 29 25  1  0  0  0  0
 29 27  1  0  0  0  0
 32 23  1  0  0  0  0
 32 31  1  1  0  0  0
 34 36  1  0  0  0  0
 36 35  1  0  0  0  0
 37 34  2  0  0  0  0
 39 38  2  0  0  0  0
 41 42  1  0  0  0  0
 41 40  1  1  0  0  0
 43 42  1  0  0  0  0
 44 43  1  0  0  0  0
 45 46  1  1  0  0  0
 45 44  1  0  0  0  0
 45 47  1  0  0  0  0
 50 51  1  0  0  0  0
 50 47  1  1  0  0  0
 52 50  1  0  0  0  0
 52 49  1  1  0  0  0
 53 55  1  6  0  0  0
 53 52  1  0  0  0  0
 54 48  1  1  0  0  0
 54 53  1  0  0  0  0
 54 56  1  0  0  0  0
 56 51  1  6  0  0  0
 57 63  1  0  0  0  0
 58 61  1  0  0  0  0
 59 58  1  0  0  0  0
 61 63  1  0  0  0  0
 62 59  1  1  0  0  0
 62 65  1  0  0  0  0
 62 56  1  0  0  0  0
 63 64  1  0  0  0  0
 63 60  1  0  0  0  0
 65 64  1  0  0  0  0
M  END
>  <MODEL>
1

>  <REMARK>
 VINA RESULT:      -8.1      0.000      0.000
  Name = 
  14 active torsions:
  status: ('A' for Active; 'I' for Inactive)
    1  A    between atoms: C_3  and  C_17
    2  A    between atoms: N_11  and  C_24
    3  A    between atoms: N_11  and  C_50
    4  A    between atoms: N_13  and  C_43
    5  A    between atoms: N_19  and  C_65
    6  A    between atoms: C_23  and  C_31
    7  A    between atoms: C_23  and  C_36
    8  A    between atoms: C_24  and  C_25
    9  A    between atoms: C_25  and  C_42
   10  A    between atoms: C_28  and  N_45
   11  A    between atoms: C_29  and  C_35
   12  A    between atoms: C_29  and  C_36
   13  A    between atoms: C_31  and  C_32
   14  A    between atoms: C_35  and  N_45
                            x       y       z     vdW  Elec       q    Type
                         _______ _______ _______ _____ _____    ______ ____

>  <TORSDO>
F 14

$$$$
=
 OpenBabel11042416383D

 65 71  0  0  1  0  0  0  0  0999 V2000
  191.6790  176.5210  146.9650 C   0  0  0  0  0  3  0  0  0  0  0  0
  192.5340  174.5090  146.0590 C   0  0  0  0  0  0  0  0  0  0  0  0
  194.1980  176.2410  146.4480 C   0  0  0  0  0  0  0  0  0  0  0  0
  194.5120  177.5280  146.8630 O   0  0  0  0  0  1  0  0  0  0  0  0
  191.0810  174.2280  146.2030 C   0  0  1  0  0  3  0  0  0  0  0  0
  192.8640  175.7790  146.4820 C   0  0  0  0  0  0  0  0  0  0  0  0
  194.8490  174.0890  145.5870 C   0  0  0  0  0  0  0  0  0  0  0  0
  194.6860  172.0360  144.8860 C   0  0  0  0  0  0  0  0  0  0  0  0
  193.4630  172.4300  145.1970 O   0  0  0  0  0  0  0  0  0  0  0  0
  195.2180  175.3780  145.9910 C   0  0  0  0  0  3  0  0  0  0  0  0
  195.6230  173.0540  145.1110 C   0  0  0  0  0  3  0  0  0  0  0  0
  193.5490  173.6620  145.6200 C   0  0  0  0  0  0  0  0  0  0  0  0
  190.5360  175.4980  146.8830 C   0  0  0  0  0  3  0  0  0  0  0  0
  194.9810  170.6720  144.3250 C   0  0  2  0  0  3  0  0  0  0  0  0
  196.0860  170.0010  145.1250 C   0  0  0  0  0  1  0  0  0  0  0  0
  195.3710  170.7080  142.8500 C   0  0  0  0  0  2  0  0  0  0  0  0
  193.5830  171.6030  141.3320 C   0  0  0  0  0  0  0  0  0  0  0  0
  194.1890  170.4930  142.0120 N   0  0  0  0  0  0  0  0  0  0  0  0
  192.5140  171.3780  140.4090 N   0  0  0  0  0  2  0  0  0  0  0  0
  193.9920  172.7780  141.5460 O   0  0  0  0  0  0  0  0  0  0  0  0
  194.2810  171.3730  137.8970 C   0  0  0  0  0  2  0  0  0  0  0  0
  192.4640  172.8210  138.3790 C   0  0  0  0  0  2  0  0  0  0  0  0
  194.8770  170.2650  137.0130 C   0  0  1  0  0  3  0  0  0  0  0  0
  192.5100  169.4220  136.5980 C   0  0  1  0  0  3  0  0  0  0  0  0
  191.8080  172.4550  139.7220 C   0  0  1  0  0  3  0  0  0  0  0  0
  192.9010  171.7000  137.5250 N   0  0  2  0  0  0  0  0  0  0  0  0
  189.9930  170.8390  138.8890 C   0  0  0  0  0  2  0  0  0  0  0  0
  192.0830  170.4750  137.6280 C   0  0  1  0  0  3  0  0  0  0  0  0
  190.3090  172.1700  139.5690 C   0  0  0  0  0  2  0  0  0  0  0  0
  190.5950  170.7530  137.4970 C   0  0  0  0  0  2  0  0  0  0  0  0
  194.3910  168.6250  135.3070 O   0  0  0  0  0  1  0  0  0  0  0  0
  193.8770  169.7430  135.9690 C   0  0  2  0  0  3  0  0  0  0  0  0
  192.5310  168.1660  137.2130 O   0  0  0  0  0  1  0  0  0  0  0  0
  196.1340  170.7460  136.3600 C   0  0  0  0  0  0  0  0  0  0  0  0
  197.2680  172.1210  134.5760 C   0  0  0  0  0  1  0  0  0  0  0  0
  196.0700  171.6400  135.2450 N   0  0  0  0  0  2  0  0  0  0  0  0
  197.2460  170.3310  136.7830 O   0  0  0  0  0  0  0  0  0  0  0  0
  194.3470  168.1690  141.3370 C   0  0  0  0  0  2  0  0  0  0  0  0
  193.6380  169.1790  141.8270 C   0  0  0  0  0  3  0  0  0  0  0  0
  189.7060  172.7550  144.8850 O   0  0  0  0  0  1  0  0  0  0  0  0
  190.3680  173.9830  144.8640 C   0  0  2  0  0  3  0  0  0  0  0  0
  191.3020  174.0640  143.6590 C   0  0  0  0  0  2  0  0  0  0  0  0
  190.8390  175.1350  142.6840 C   0  0  0  0  0  2  0  0  0  0  0  0
  189.6900  175.9680  143.2570 C   0  0  0  0  0  2  0  0  0  0  0  0
  188.4080  175.9370  142.4210 C   0  0  2  0  0  3  0  0  0  0  0  0
  188.3070  174.6600  141.6060 C   0  0  0  0  0  1  0  0  0  0  0  0
  188.3090  177.1050  141.5580 N   0  0  0  0  0  2  0  0  0  0  0  0
  183.0370  178.4570  142.8210 C   0  0  0  0  0  1  0  0  0  0  0  0
  186.3230  176.7800  139.7980 F   0  0  0  0  0  0  0  0  0  0  0  0
  187.0540  177.7750  141.8670 C   0  0  2  0  0  3  0  0  0  0  0  0
  186.3780  177.0890  142.8960 O   0  0  0  0  0  0  0  0  0  0  0  0
  186.1630  177.8810  140.6220 C   0  0  2  0  0  3  0  0  0  0  0  0
  184.6850  177.9950  141.0050 C   0  0  1  0  0  3  0  0  0  0  0  0
  184.4850  178.6080  142.3960 C   0  0  2  0  0  3  0  0  0  0  0  0
  184.0110  178.7480  140.0440 O   0  0  0  0  0  1  0  0  0  0  0  0
  185.4130  177.9680  143.4580 C   0  0  2  0  0  3  0  0  0  0  0  0
  186.5590  178.4270  147.8970 C   0  0  0  0  0  1  0  0  0  0  0  0
  184.2130  178.6530  146.0470 C   0  0  0  0  0  2  0  0  0  0  0  0
  185.1440  179.6160  145.2920 C   0  0  0  0  0  2  0  0  0  0  0  0
  186.4660  175.9880  147.6870 C   0  0  0  0  0  1  0  0  0  0  0  0
  184.8010  177.2940  146.4500 C   0  0  0  0  0  2  0  0  0  0  0  0
  186.0430  179.0040  144.3040 N   0  0  1  0  0  0  0  0  0  0  0  0
  186.2520  177.2840  146.9340 C   0  0  0  0  0  0  0  0  0  0  0  0
  187.1990  177.2720  145.7350 C   0  0  0  0  0  2  0  0  0  0  0  0
  187.2900  178.5960  144.9670 C   0  0  0  0  0  2  0  0  0  0  0  0
  2  5  1  0  0  0  0
  2  6  1  0  0  0  0
  3  6  2  0  0  0  0
  3  4  1  0  0  0  0
  5 41  1  6  0  0  0
  5 13  1  0  0  0  0
  6  1  1  0  0  0  0
  7 12  1  0  0  0  0
  7 10  2  0  0  0  0
  8 11  2  0  0  0  0
  8  9  1  0  0  0  0
  9 12  1  0  0  0  0
 10  3  1  0  0  0  0
 11  7  1  0  0  0  0
 12  2  2  0  0  0  0
 13  1  2  0  0  0  0
 14  8  1  0  0  0  0
 14 15  1  1  0  0  0
 16 14  1  0  0  0  0
 17 20  2  0  0  0  0
 17 18  1  0  0  0  0
 18 16  1  0  0  0  0
 19 17  1  0  0  0  0
 22 25  1  0  0  0  0
 23 34  1  6  0  0  0
 23 21  1  0  0  0  0
 24 33  1  1  0  0  0
 24 28  1  0  0  0  0
 25 19  1  6  0  0  0
 26 28  1  0  0  0  0
 26 21  1  1  0  0  0
 26 22  1  0  0  0  0
 27 29  1  0  0  0  0
 28 30  1  6  0  0  0
 29 25  1  0  0  0  0
 30 27  1  0  0  0  0
 32 31  1  1  0  0  0
 32 24  1  0  0  0  0
 32 23  1  0  0  0  0
 34 37  2  0  0  0  0
 35 36  1  0  0  0  0
 36 34  1  0  0  0  0
 38 39  2  0  0  0  0
 39 18  1  0  0  0  0
 41 40  1  1  0  0  0
 42 41  1  0  0  0  0
 43 44  1  0  0  0  0
 43 42  1  0  0  0  0
 45 46  1  6  0  0  0
 45 44  1  0  0  0  0
 47 45  1  0  0  0  0
 50 47  1  6  0  0  0
 50 51  1  0  0  0  0
 52 49  1  6  0  0  0
 52 53  1  0  0  0  0
 52 50  1  0  0  0  0
 53 55  1  6  0  0  0
 53 54  1  0  0  0  0
 54 48  1  1  0  0  0
 54 56  1  0  0  0  0
 56 51  1  6  0  0  0
 56 62  1  0  0  0  0
 58 61  1  0  0  0  0
 59 58  1  0  0  0  0
 61 63  1  0  0  0  0
 62 65  1  1  0  0  0
 62 59  1  0  0  0  0
 63 60  1  0  0  0  0
 63 57  1  0  0  0  0
 64 63  1  0  0  0  0
 65 64  1  0  0  0  0
M  END
>  <MODEL>
2

>  <REMARK>
 VINA RESULT:      -8.0      2.644      8.184
  Name = 
  14 active torsions:
  status: ('A' for Active; 'I' for Inactive)
    1  A    between atoms: C_3  and  C_17
    2  A    between atoms: N_11  and  C_24
    3  A    between atoms: N_11  and  C_50
    4  A    between atoms: N_13  and  C_43
    5  A    between atoms: N_19  and  C_65
    6  A    between atoms: C_23  and  C_31
    7  A    between atoms: C_23  and  C_36
    8  A    between atoms: C_24  and  C_25
    9  A    between atoms: C_25  and  C_42
   10  A    between atoms: C_28  and  N_45
   11  A    between atoms: C_29  and  C_35
   12  A    between atoms: C_29  and  C_36
   13  A    between atoms: C_31  and  C_32
   14  A    between atoms: C_35  and  N_45
                            x       y       z     vdW  Elec       q    Type
                         _______ _______ _______ _____ _____    ______ ____

>  <TORSDO>
F 14

$$$$
=
 OpenBabel11042416383D

 65 71  0  0  1  0  0  0  0  0999 V2000
  194.7940  177.1760  144.7180 C   0  0  0  0  0  3  0  0  0  0  0  0
  195.0940  174.8890  145.2470 C   0  0  0  0  0  0  0  0  0  0  0  0
  196.8220  175.8420  143.8230 C   0  0  0  0  0  0  0  0  0  0  0  0
  197.3310  176.9250  143.1210 O   0  0  0  0  0  1  0  0  0  0  0  0
  193.8410  175.2440  145.9640 C   0  0  1  0  0  3  0  0  0  0  0  0
  195.6210  175.9590  144.5570 C   0  0  0  0  0  0  0  0  0  0  0  0
  196.9520  173.5460  144.5380 C   0  0  0  0  0  0  0  0  0  0  0  0
  196.4240  171.6840  145.5320 C   0  0  0  0  0  0  0  0  0  0  0  0
  195.4760  172.5560  145.8290 O   0  0  0  0  0  0  0  0  0  0  0  0
  197.5060  174.6070  143.8110 C   0  0  0  0  0  3  0  0  0  0  0  0
  197.4020  172.2550  144.7050 C   0  0  0  0  0  3  0  0  0  0  0  0
  195.7830  173.6790  145.2370 C   0  0  0  0  0  0  0  0  0  0  0  0
  193.6940  176.7550  145.7040 C   0  0  0  0  0  3  0  0  0  0  0  0
  196.3950  170.2590  146.0100 C   0  0  2  0  0  3  0  0  0  0  0  0
  197.5680  169.4840  145.4310 C   0  0  0  0  0  1  0  0  0  0  0  0
  195.0920  169.5430  145.6630 C   0  0  0  0  0  2  0  0  0  0  0  0
  193.6460  170.5250  143.8620 C   0  0  0  0  0  0  0  0  0  0  0  0
  194.7780  169.7280  144.2440 N   0  0  0  0  0  0  0  0  0  0  0  0
  193.4140  170.8190  142.4810 N   0  0  0  0  0  2  0  0  0  0  0  0
  192.8540  170.9670  144.7400 O   0  0  0  0  0  0  0  0  0  0  0  0
  194.9170  172.3880  140.3110 C   0  0  0  0  0  2  0  0  0  0  0  0
  192.6270  172.5770  140.9010 C   0  0  0  0  0  2  0  0  0  0  0  0
  195.9750  172.0110  139.2590 C   0  0  1  0  0  3  0  0  0  0  0  0
  194.3360  170.2960  138.3310 C   0  0  1  0  0  3  0  0  0  0  0  0
  192.2570  171.5710  142.0060 C   0  0  1  0  0  3  0  0  0  0  0  0
  193.5540  172.1040  139.8550 N   0  0  2  0  0  0  0  0  0  0  0  0
  191.4760  169.6030  140.5520 C   0  0  0  0  0  2  0  0  0  0  0  0
  193.4540  170.6670  139.5300 C   0  0  1  0  0  3  0  0  0  0  0  0
  191.0960  170.6610  141.5870 C   0  0  0  0  0  2  0  0  0  0  0  0
  192.0240  170.2210  139.2780 C   0  0  0  0  0  2  0  0  0  0  0  0
  196.3480  170.9110  137.1420 O   0  0  0  0  0  1  0  0  0  0  0  0
  195.3540  171.4000  137.9930 C   0  0  2  0  0  3  0  0  0  0  0  0
  194.9870  169.0880  138.6010 O   0  0  0  0  0  1  0  0  0  0  0  0
  196.8170  173.2000  138.9250 C   0  0  0  0  0  0  0  0  0  0  0  0
  197.1830  175.2920  137.5650 C   0  0  0  0  0  1  0  0  0  0  0  0
  196.3870  174.1290  137.9260 N   0  0  0  0  0  2  0  0  0  0  0  0
  197.9220  173.3570  139.5110 O   0  0  0  0  0  0  0  0  0  0  0  0
  195.1810  168.1780  142.4240 C   0  0  0  0  0  2  0  0  0  0  0  0
  195.6040  169.1540  143.2180 C   0  0  0  0  0  3  0  0  0  0  0  0
  192.5950  174.4570  144.0600 O   0  0  0  0  0  1  0  0  0  0  0  0
  192.6060  174.4850  145.4550 C   0  0  2  0  0  3  0  0  0  0  0  0
  191.2890  175.0480  145.9850 C   0  0  0  0  0  2  0  0  0  0  0  0
  190.3870  175.4860  144.8420 C   0  0  0  0  0  2  0  0  0  0  0  0
  189.4320  174.3710  144.4090 C   0  0  0  0  0  2  0  0  0  0  0  0
  188.6730  174.6560  143.1120 C   0  0  2  0  0  3  0  0  0  0  0  0
  188.7610  173.4860  142.1480 C   0  0  0  0  0  1  0  0  0  0  0  0
  189.1460  175.8780  142.4770 N   0  0  0  0  0  2  0  0  0  0  0  0
  184.1090  178.2830  142.2230 C   0  0  0  0  0  1  0  0  0  0  0  0
  187.5740  175.6050  140.3320 F   0  0  0  0  0  0  0  0  0  0  0  0
  188.0150  176.7900  142.3830 C   0  0  2  0  0  3  0  0  0  0  0  0
  187.0050  176.4060  143.2870 O   0  0  0  0  0  0  0  0  0  0  0  0
  187.4620  176.8380  140.9530 C   0  0  2  0  0  3  0  0  0  0  0  0
  185.9890  177.2590  140.9410 C   0  0  1  0  0  3  0  0  0  0  0  0
  185.6150  178.1170  142.1560 C   0  0  2  0  0  3  0  0  0  0  0  0
  185.7100  177.9460  139.7590 O   0  0  0  0  0  1  0  0  0  0  0  0
  186.1370  177.5140  143.4830 C   0  0  2  0  0  3  0  0  0  0  0  0
  186.4220  178.4450  147.9860 C   0  0  0  0  0  1  0  0  0  0  0  0
  184.5820  178.7520  145.6420 C   0  0  0  0  0  2  0  0  0  0  0  0
  185.8060  179.4380  145.0130 C   0  0  0  0  0  2  0  0  0  0  0  0
  185.9310  176.0460  148.0340 C   0  0  0  0  0  1  0  0  0  0  0  0
  184.8180  177.3940  146.3160 C   0  0  0  0  0  2  0  0  0  0  0  0
  186.7600  178.5550  144.3280 N   0  0  1  0  0  0  0  0  0  0  0  0
  186.1140  177.2340  147.1120 C   0  0  0  0  0  0  0  0  0  0  0  0
  187.2660  176.8980  146.1670 C   0  0  0  0  0  2  0  0  0  0  0  0
  187.7510  178.0640  145.2970 C   0  0  0  0  0  2  0  0  0  0  0  0
  1 13  2  0  0  0  0
  2  5  1  0  0  0  0
  3  6  1  0  0  0  0
  4  3  1  0  0  0  0
  5 41  1  6  0  0  0
  6  1  1  0  0  0  0
  6  2  2  0  0  0  0
  7 11  1  0  0  0  0
  7 12  2  0  0  0  0
  8  9  1  0  0  0  0
  8 14  1  0  0  0  0
 10  3  2  0  0  0  0
 10  7  1  0  0  0  0
 11  8  2  0  0  0  0
 12  2  1  0  0  0  0
 12  9  1  0  0  0  0
 13  5  1  0  0  0  0
 14 15  1  6  0  0  0
 16 14  1  0  0  0  0
 17 18  1  0  0  0  0
 17 20  2  0  0  0  0
 18 16  1  0  0  0  0
 19 17  1  0  0  0  0
 22 25  1  0  0  0  0
 23 34  1  6  0  0  0
 23 21  1  0  0  0  0
 24 33  1  1  0  0  0
 24 28  1  0  0  0  0
 25 19  1  6  0  0  0
 26 21  1  1  0  0  0
 26 22  1  0  0  0  0
 27 29  1  0  0  0  0
 28 30  1  6  0  0  0
 28 26  1  0  0  0  0
 29 25  1  0  0  0  0
 30 27  1  0  0  0  0
 32 31  1  6  0  0  0
 32 24  1  0  0  0  0
 32 23  1  0  0  0  0
 34 37  2  0  0  0  0
 35 36  1  0  0  0  0
 36 34  1  0  0  0  0
 38 39  2  0  0  0  0
 39 18  1  0  0  0  0
 41 40  1  6  0  0  0
 41 42  1  0  0  0  0
 43 42  1  0  0  0  0
 44 43  1  0  0  0  0
 45 46  1  6  0  0  0
 45 44  1  0  0  0  0
 47 45  1  0  0  0  0
 50 47  1  6  0  0  0
 50 51  1  0  0  0  0
 52 49  1  1  0  0  0
 52 50  1  0  0  0  0
 53 55  1  6  0  0  0
 53 52  1  0  0  0  0
 53 54  1  0  0  0  0
 54 48  1  1  0  0  0
 54 56  1  0  0  0  0
 56 51  1  6  0  0  0
 56 62  1  0  0  0  0
 58 61  1  0  0  0  0
 59 58  1  0  0  0  0
 61 63  1  0  0  0  0
 62 59  1  1  0  0  0
 62 65  1  0  0  0  0
 63 57  1  0  0  0  0
 63 60  1  0  0  0  0
 64 63  1  0  0  0  0
 65 64  1  0  0  0  0
M  END
>  <MODEL>
3

>  <REMARK>
 VINA RESULT:      -7.7      2.508      8.535
  Name = 
  14 active torsions:
  status: ('A' for Active; 'I' for Inactive)
    1  A    between atoms: C_3  and  C_17
    2  A    between atoms: N_11  and  C_24
    3  A    between atoms: N_11  and  C_50
    4  A    between atoms: N_13  and  C_43
    5  A    between atoms: N_19  and  C_65
    6  A    between atoms: C_23  and  C_31
    7  A    between atoms: C_23  and  C_36
    8  A    between atoms: C_24  and  C_25
    9  A    between atoms: C_25  and  C_42
   10  A    between atoms: C_28  and  N_45
   11  A    between atoms: C_29  and  C_35
   12  A    between atoms: C_29  and  C_36
   13  A    between atoms: C_31  and  C_32
   14  A    between atoms: C_35  and  N_45
                            x       y       z     vdW  Elec       q    Type
                         _______ _______ _______ _____ _____    ______ ____

>  <TORSDO>
F 14

$$$$
=
 OpenBabel11042416383D

 65 71  0  0  1  0  0  0  0  0999 V2000
  188.2290  178.2040  147.5860 C   0  0  0  0  0  3  0  0  0  0  0  0
  188.4460  176.8660  145.6460 C   0  0  0  0  0  0  0  0  0  0  0  0
  186.2740  177.9290  145.9150 C   0  0  0  0  0  0  0  0  0  0  0  0
  185.4160  178.7290  146.6570 O   0  0  0  0  0  1  0  0  0  0  0  0
  189.7810  176.7510  146.2910 C   0  0  1  0  0  3  0  0  0  0  0  0
  187.5880  177.6710  146.3640 C   0  0  0  0  0  0  0  0  0  0  0  0
  186.7420  176.5690  143.9840 C   0  0  0  0  0  0  0  0  0  0  0  0
  187.8350  175.2940  142.6010 C   0  0  0  0  0  0  0  0  0  0  0  0
  188.6550  175.5590  143.6030 O   0  0  0  0  0  0  0  0  0  0  0  0
  185.8370  177.3660  144.6960 C   0  0  0  0  0  3  0  0  0  0  0  0
  186.5890  175.9100  142.7840 C   0  0  0  0  0  3  0  0  0  0  0  0
  188.0090  176.3250  144.4400 C   0  0  0  0  0  0  0  0  0  0  0  0
  189.6770  177.6990  147.5020 C   0  0  0  0  0  3  0  0  0  0  0  0
  188.2190  174.4040  141.4520 C   0  0  2  0  0  3  0  0  0  0  0  0
  187.8570  172.9600  141.7590 C   0  0  0  0  0  1  0  0  0  0  0  0
  189.7020  174.4930  141.1010 C   0  0  0  0  0  2  0  0  0  0  0  0
  189.8760  173.1630  138.9790 C   0  0  0  0  0  0  0  0  0  0  0  0
  190.1240  173.2850  140.3880 N   0  0  0  0  0  0  0  0  0  0  0  0
  190.4040  172.0480  138.2550 N   0  0  0  0  0  2  0  0  0  0  0  0
  189.1940  174.0380  138.3760 O   0  0  0  0  0  0  0  0  0  0  0  0
  193.0620  173.2200  137.2580 C   0  0  0  0  0  2  0  0  0  0  0  0
  191.2810  172.3640  135.9450 C   0  0  0  0  0  2  0  0  0  0  0  0
  194.5230  173.1030  137.7240 C   0  0  1  0  0  3  0  0  0  0  0  0
  194.3410  170.5800  137.4220 C   0  0  1  0  0  3  0  0  0  0  0  0
  190.1500  171.8210  136.8360 C   0  0  1  0  0  3  0  0  0  0  0  0
  192.6630  172.1060  136.3930 N   0  0  2  0  0  0  0  0  0  0  0  0
  190.8840  169.3660  137.0160 C   0  0  0  0  0  2  0  0  0  0  0  0
  192.8580  170.8430  137.1330 C   0  0  1  0  0  3  0  0  0  0  0  0
  189.8280  170.3550  136.5240 C   0  0  0  0  0  2  0  0  0  0  0  0
  192.2520  169.6470  136.4180 C   0  0  0  0  0  2  0  0  0  0  0  0
  196.4670  171.6710  137.7820 O   0  0  0  0  0  1  0  0  0  0  0  0
  195.2090  171.8330  137.1980 C   0  0  2  0  0  3  0  0  0  0  0  0
  194.4740  170.1150  138.7340 O   0  0  0  0  0  1  0  0  0  0  0  0
  195.2880  174.3270  137.3350 C   0  0  0  0  0  0  0  0  0  0  0  0
  196.6780  175.5760  135.6420 C   0  0  0  0  0  1  0  0  0  0  0  0
  195.9150  174.4080  136.0530 N   0  0  0  0  0  2  0  0  0  0  0  0
  195.4000  175.2720  138.1620 O   0  0  0  0  0  0  0  0  0  0  0  0
  191.8140  172.4500  141.9140 C   0  0  0  0  0  2  0  0  0  0  0  0
  190.8170  172.2240  141.0670 C   0  0  0  0  0  3  0  0  0  0  0  0
  190.7280  175.3500  148.0050 O   0  0  0  0  0  1  0  0  0  0  0  0
  190.1210  175.3240  146.7490 C   0  0  2  0  0  3  0  0  0  0  0  0
  190.9910  174.5620  145.7530 C   0  0  0  0  0  2  0  0  0  0  0  0
  191.8320  175.5200  144.9240 C   0  0  0  0  0  2  0  0  0  0  0  0
  193.2840  175.0510  144.8090 C   0  0  0  0  0  2  0  0  0  0  0  0
  194.1630  175.4140  146.0080 C   0  0  2  0  0  3  0  0  0  0  0  0
  193.6920  176.6940  146.6750 C   0  0  0  0  0  1  0  0  0  0  0  0
  195.5630  175.5220  145.6270 N   0  0  0  0  0  2  0  0  0  0  0  0
  197.3010  173.7560  140.6190 C   0  0  0  0  0  1  0  0  0  0  0  0
  196.7670  177.1730  143.9030 F   0  0  0  0  0  0  0  0  0  0  0  0
  195.6830  175.0500  144.2550 C   0  0  2  0  0  3  0  0  0  0  0  0
  196.6930  174.0720  144.1640 O   0  0  0  0  0  0  0  0  0  0  0  0
  195.9780  176.2110  143.2950 C   0  0  2  0  0  3  0  0  0  0  0  0
  196.6920  175.7200  142.0330 C   0  0  1  0  0  3  0  0  0  0  0  0
  196.3770  174.2540  141.7130 C   0  0  2  0  0  3  0  0  0  0  0  0
  196.3450  176.5350  140.9550 O   0  0  0  0  0  1  0  0  0  0  0  0
  196.5010  173.3430  142.9600 C   0  0  2  0  0  3  0  0  0  0  0  0
  195.8080  168.9810  144.2710 C   0  0  0  0  0  1  0  0  0  0  0  0
  196.7510  170.6040  141.9360 C   0  0  0  0  0  2  0  0  0  0  0  0
  195.3880  171.2950  142.1100 C   0  0  0  0  0  2  0  0  0  0  0  0
  197.8920  169.4990  145.4490 C   0  0  0  0  0  1  0  0  0  0  0  0
  197.6050  170.4260  143.1980 C   0  0  0  0  0  2  0  0  0  0  0  0
  195.3500  172.4190  143.0560 N   0  0  1  0  0  0  0  0  0  0  0  0
  196.8660  170.0590  144.4860 C   0  0  0  0  0  0  0  0  0  0  0  0
  196.2830  171.3170  145.1290 C   0  0  0  0  0  2  0  0  0  0  0  0
  195.0680  171.9100  144.4060 C   0  0  0  0  0  2  0  0  0  0  0  0
  2  5  1  0  0  0  0
  2  6  1  0  0  0  0
  3  6  2  0  0  0  0
  3  4  1  0  0  0  0
  5 41  1  1  0  0  0
  5 13  1  0  0  0  0
  6  1  1  0  0  0  0
  7 12  1  0  0  0  0
  7 10  2  0  0  0  0
  8 11  2  0  0  0  0
  8  9  1  0  0  0  0
  9 12  1  0  0  0  0
 10  3  1  0  0  0  0
 11  7  1  0  0  0  0
 12  2  2  0  0  0  0
 13  1  2  0  0  0  0
 14 15  1  1  0  0  0
 14  8  1  0  0  0  0
 16 14  1  0  0  0  0
 17 18  1  0  0  0  0
 18 39  1  0  0  0  0
 18 16  1  0  0  0  0
 19 17  1  0  0  0  0
 20 17  2  0  0  0  0
 21 23  1  0  0  0  0
 22 25  1  0  0  0  0
 23 34  1  6  0  0  0
 24 33  1  1  0  0  0
 25 19  1  1  0  0  0
 26 22  1  1  0  0  0
 26 28  1  0  0  0  0
 26 21  1  0  0  0  0
 28 30  1  6  0  0  0
 28 24  1  0  0  0  0
 29 25  1  0  0  0  0
 29 27  1  0  0  0  0
 30 27  1  0  0  0  0
 32 24  1  0  0  0  0
 32 23  1  0  0  0  0
 32 31  1  1  0  0  0
 34 37  2  0  0  0  0
 35 36  1  0  0  0  0
 36 34  1  0  0  0  0
 39 38  2  0  0  0  0
 41 40  1  1  0  0  0
 42 41  1  0  0  0  0
 43 42  1  0  0  0  0
 44 43  1  0  0  0  0
 44 45  1  0  0  0  0
 45 46  1  6  0  0  0
 47 45  1  0  0  0  0
 50 47  1  1  0  0  0
 51 50  1  0  0  0  0
 52 49  1  1  0  0  0
 52 50  1  0  0  0  0
 53 55  1  6  0  0  0
 53 52  1  0  0  0  0
 54 48  1  6  0  0  0
 54 53  1  0  0  0  0
 54 56  1  0  0  0  0
 56 62  1  0  0  0  0
 56 51  1  1  0  0  0
 57 63  1  0  0  0  0
 58 59  1  0  0  0  0
 58 61  1  0  0  0  0
 61 63  1  0  0  0  0
 62 59  1  6  0  0  0
 62 65  1  0  0  0  0
 63 64  1  0  0  0  0
 63 60  1  0  0  0  0
 65 64  1  0  0  0  0
M  END
>  <MODEL>
4

>  <REMARK>
 VINA RESULT:      -7.7      1.784      2.424
  Name = 
  14 active torsions:
  status: ('A' for Active; 'I' for Inactive)
    1  A    between atoms: C_3  and  C_17
    2  A    between atoms: N_11  and  C_24
    3  A    between atoms: N_11  and  C_50
    4  A    between atoms: N_13  and  C_43
    5  A    between atoms: N_19  and  C_65
    6  A    between atoms: C_23  and  C_31
    7  A    between atoms: C_23  and  C_36
    8  A    between atoms: C_24  and  C_25
    9  A    between atoms: C_25  and  C_42
   10  A    between atoms: C_28  and  N_45
   11  A    between atoms: C_29  and  C_35
   12  A    between atoms: C_29  and  C_36
   13  A    between atoms: C_31  and  C_32
   14  A    between atoms: C_35  and  N_45
                            x       y       z     vdW  Elec       q    Type
                         _______ _______ _______ _____ _____    ______ ____

>  <TORSDO>
F 14

$$$$
=
 OpenBabel11042416383D

 65 71  0  0  1  0  0  0  0  0999 V2000
  186.4350  178.0470  147.1020 C   0  0  0  0  0  3  0  0  0  0  0  0
  186.9190  177.4790  144.8570 C   0  0  0  0  0  0  0  0  0  0  0  0
  184.6990  178.4070  145.2190 C   0  0  0  0  0  0  0  0  0  0  0  0
  183.7360  178.9040  146.0860 O   0  0  0  0  0  1  0  0  0  0  0  0
  188.1720  177.1260  145.5750 C   0  0  1  0  0  3  0  0  0  0  0  0
  185.9580  177.9900  145.7030 C   0  0  0  0  0  0  0  0  0  0  0  0
  185.4310  177.8120  143.0040 C   0  0  0  0  0  0  0  0  0  0  0  0
  186.7170  177.0950  141.4020 C   0  0  0  0  0  0  0  0  0  0  0  0
  187.4060  176.9770  142.5250 O   0  0  0  0  0  0  0  0  0  0  0  0
  184.4260  178.3170  143.8360 C   0  0  0  0  0  3  0  0  0  0  0  0
  185.4400  177.6230  141.6390 C   0  0  0  0  0  3  0  0  0  0  0  0
  186.6430  177.4060  143.4930 C   0  0  0  0  0  0  0  0  0  0  0  0
  187.8980  177.5860  147.0200 C   0  0  0  0  0  3  0  0  0  0  0  0
  187.2610  176.6640  140.0680 C   0  0  2  0  0  3  0  0  0  0  0  0
  186.6900  177.5350  138.9600 C   0  0  0  0  0  1  0  0  0  0  0  0
  186.9790  175.1960  139.7570 C   0  0  0  0  0  2  0  0  0  0  0  0
  188.4750  174.5300  137.8550 C   0  0  0  0  0  0  0  0  0  0  0  0
  188.1940  174.5440  139.2630 N   0  0  0  0  0  0  0  0  0  0  0  0
  189.7230  174.0140  137.3810 N   0  0  0  0  0  2  0  0  0  0  0  0
  187.6250  174.9720  137.0330 O   0  0  0  0  0  0  0  0  0  0  0  0
  192.7550  174.3260  137.7500 C   0  0  0  0  0  2  0  0  0  0  0  0
  191.5670  174.0970  135.7090 C   0  0  0  0  0  2  0  0  0  0  0  0
  193.7750  173.7490  138.7470 C   0  0  1  0  0  3  0  0  0  0  0  0
  193.0690  171.4150  138.0070 C   0  0  1  0  0  3  0  0  0  0  0  0
  190.0610  173.9120  135.9650 C   0  0  1  0  0  3  0  0  0  0  0  0
  192.4890  173.4110  136.6360 N   0  0  2  0  0  0  0  0  0  0  0  0
  189.9500  171.3460  136.0450 C   0  0  0  0  0  2  0  0  0  0  0  0
  191.9930  172.1330  137.1840 C   0  0  1  0  0  3  0  0  0  0  0  0
  189.5250  172.6260  135.3250 C   0  0  0  0  0  2  0  0  0  0  0  0
  191.4610  171.2020  136.1070 C   0  0  0  0  0  2  0  0  0  0  0  0
  195.0330  171.7830  139.3680 O   0  0  0  0  0  1  0  0  0  0  0  0
  194.2500  172.3410  138.3540 C   0  0  2  0  0  3  0  0  0  0  0  0
  192.4860  170.9010  139.1690 O   0  0  0  0  0  1  0  0  0  0  0  0
  194.9320  174.6830  138.8990 C   0  0  0  0  0  0  0  0  0  0  0  0
  196.4830  175.9990  140.3910 C   0  0  0  0  0  1  0  0  0  0  0  0
  195.3690  175.0820  140.2010 N   0  0  0  0  0  2  0  0  0  0  0  0
  195.4960  175.1400  137.8680 O   0  0  0  0  0  0  0  0  0  0  0  0
  188.8670  173.7480  141.4520 C   0  0  0  0  0  2  0  0  0  0  0  0
  189.1360  173.9430  140.1670 C   0  0  0  0  0  3  0  0  0  0  0  0
  188.6760  175.1350  146.8320 O   0  0  0  0  0  1  0  0  0  0  0  0
  188.4990  175.6250  145.5370 C   0  0  2  0  0  3  0  0  0  0  0  0
  189.7120  175.2930  144.6720 C   0  0  0  0  0  2  0  0  0  0  0  0
  190.3530  176.5600  144.1280 C   0  0  0  0  0  2  0  0  0  0  0  0
  191.6340  176.2620  143.3460 C   0  0  0  0  0  2  0  0  0  0  0  0
  192.8850  176.1130  144.2140 C   0  0  2  0  0  3  0  0  0  0  0  0
  192.9580  177.1980  145.2730 C   0  0  0  0  0  1  0  0  0  0  0  0
  194.0950  176.1050  143.4050 N   0  0  0  0  0  2  0  0  0  0  0  0
  196.2460  171.4750  145.6750 C   0  0  0  0  0  1  0  0  0  0  0  0
  195.9340  176.2230  145.3410 F   0  0  0  0  0  0  0  0  0  0  0  0
  194.8090  174.8700  143.6950 C   0  0  2  0  0  3  0  0  0  0  0  0
  193.9790  173.9850  144.4110 O   0  0  0  0  0  0  0  0  0  0  0  0
  196.0970  175.1490  144.4820 C   0  0  2  0  0  3  0  0  0  0  0  0
  196.5210  173.9270  145.3020 C   0  0  1  0  0  3  0  0  0  0  0  0
  196.0210  172.6110  144.6960 C   0  0  2  0  0  3  0  0  0  0  0  0
  197.9110  173.9070  145.4220 O   0  0  0  0  0  1  0  0  0  0  0  0
  194.5240  172.6770  144.3040 C   0  0  2  0  0  3  0  0  0  0  0  0
  191.1410  170.4090  142.1500 C   0  0  0  0  0  1  0  0  0  0  0  0
  193.4120  169.9730  144.0540 C   0  0  0  0  0  2  0  0  0  0  0  0
  194.2310  170.6320  142.9320 C   0  0  0  0  0  2  0  0  0  0  0  0
  189.8910  171.5380  143.9290 C   0  0  0  0  0  1  0  0  0  0  0  0
  192.1210  170.6840  144.4810 C   0  0  0  0  0  2  0  0  0  0  0  0
  194.3030  172.0990  142.9610 N   0  0  1  0  0  0  0  0  0  0  0  0
  191.2800  171.3150  143.3700 C   0  0  0  0  0  0  0  0  0  0  0  0
  191.8460  172.6870  143.0060 C   0  0  0  0  0  2  0  0  0  0  0  0
  193.1620  172.6580  142.2200 C   0  0  0  0  0  2  0  0  0  0  0  0
  2  5  1  0  0  0  0
  2  6  1  0  0  0  0
  3  6  2  0  0  0  0
  3  4  1  0  0  0  0
  5 41  1  1  0  0  0
  5 13  1  0  0  0  0
  6  1  1  0  0  0  0
  7 12  1  0  0  0  0
  7 10  2  0  0  0  0
  8 11  2  0  0  0  0
  8  9  1  0  0  0  0
  9 12  1  0  0  0  0
 10  3  1  0  0  0  0
 11  7  1  0  0  0  0
 12  2  2  0  0  0  0
 13  1  2  0  0  0  0
 14 15  1  6  0  0  0
 14  8  1  0  0  0  0
 16 14  1  0  0  0  0
 17 18  1  0  0  0  0
 18 16  1  0  0  0  0
 18 39  1  0  0  0  0
 19 17  1  0  0  0  0
 20 17  2  0  0  0  0
 21 23  1  0  0  0  0
 22 25  1  0  0  0  0
 23 34  1  6  0  0  0
 24 32  1  0  0  0  0
 24 33  1  1  0  0  0
 25 19  1  1  0  0  0
 26 22  1  6  0  0  0
 26 28  1  0  0  0  0
 26 21  1  0  0  0  0
 27 30  1  0  0  0  0
 28 30  1  6  0  0  0
 28 24  1  0  0  0  0
 29 25  1  0  0  0  0
 29 27  1  0  0  0  0
 32 23  1  0  0  0  0
 32 31  1  1  0  0  0
 34 36  1  0  0  0  0
 36 35  1  0  0  0  0
 37 34  2  0  0  0  0
 39 38  2  0  0  0  0
 41 40  1  1  0  0  0
 42 41  1  0  0  0  0
 43 42  1  0  0  0  0
 44 43  1  0  0  0  0
 44 45  1  0  0  0  0
 45 46  1  1  0  0  0
 47 45  1  0  0  0  0
 50 47  1  1  0  0  0
 50 51  1  0  0  0  0
 50 52  1  0  0  0  0
 52 53  1  0  0  0  0
 52 49  1  1  0  0  0
 53 55  1  6  0  0  0
 54 53  1  0  0  0  0
 54 48  1  1  0  0  0
 56 51  1  6  0  0  0
 56 54  1  0  0  0  0
 57 63  1  0  0  0  0
 58 61  1  0  0  0  0
 59 62  1  0  0  0  0
 59 58  1  0  0  0  0
 62 65  1  1  0  0  0
 62 56  1  0  0  0  0
 63 60  1  0  0  0  0
 63 61  1  0  0  0  0
 64 63  1  0  0  0  0
 65 64  1  0  0  0  0
M  END
>  <MODEL>
5

>  <REMARK>
 VINA RESULT:      -7.5      1.651      2.709
  Name = 
  14 active torsions:
  status: ('A' for Active; 'I' for Inactive)
    1  A    between atoms: C_3  and  C_17
    2  A    between atoms: N_11  and  C_24
    3  A    between atoms: N_11  and  C_50
    4  A    between atoms: N_13  and  C_43
    5  A    between atoms: N_19  and  C_65
    6  A    between atoms: C_23  and  C_31
    7  A    between atoms: C_23  and  C_36
    8  A    between atoms: C_24  and  C_25
    9  A    between atoms: C_25  and  C_42
   10  A    between atoms: C_28  and  N_45
   11  A    between atoms: C_29  and  C_35
   12  A    between atoms: C_29  and  C_36
   13  A    between atoms: C_31  and  C_32
   14  A    between atoms: C_35  and  N_45
                            x       y       z     vdW  Elec       q    Type
                         _______ _______ _______ _____ _____    ______ ____

>  <TORSDO>
F 14

$$$$
=
 OpenBabel11042416383D

 65 71  0  0  1  0  0  0  0  0999 V2000
  189.5020  172.4020  143.2000 C   0  0  0  0  0  3  0  0  0  0  0  0
  189.6380  171.7920  140.9180 C   0  0  0  0  0  0  0  0  0  0  0  0
  191.3630  170.8270  142.3370 C   0  0  0  0  0  0  0  0  0  0  0  0
  191.9510  170.6980  143.5880 O   0  0  0  0  0  1  0  0  0  0  0  0
  188.4420  172.6740  140.9650 C   0  0  1  0  0  3  0  0  0  0  0  0
  190.2240  171.6420  142.1570 C   0  0  0  0  0  0  0  0  0  0  0  0
  191.2700  170.2970  139.9900 C   0  0  0  0  0  0  0  0  0  0  0  0
  190.5820  170.2840  137.9260 C   0  0  0  0  0  0  0  0  0  0  0  0
  189.7670  171.0830  138.5930 O   0  0  0  0  0  0  0  0  0  0  0  0
  191.9010  170.1370  141.2290 C   0  0  0  0  0  3  0  0  0  0  0  0
  191.5710  169.7480  138.7630 C   0  0  0  0  0  3  0  0  0  0  0  0
  190.1700  171.0980  139.8340 C   0  0  0  0  0  0  0  0  0  0  0  0
  188.2910  172.9950  142.4640 C   0  0  0  0  0  3  0  0  0  0  0  0
  190.4520  170.0430  136.4470 C   0  0  2  0  0  3  0  0  0  0  0  0
  191.4260  168.9640  136.0010 C   0  0  0  0  0  1  0  0  0  0  0  0
  190.6750  171.3040  135.6180 C   0  0  0  0  0  2  0  0  0  0  0  0
  192.0270  173.2610  136.4220 C   0  0  0  0  0  0  0  0  0  0  0  0
  191.9680  171.9050  135.9520 N   0  0  0  0  0  0  0  0  0  0  0  0
  193.2690  173.8060  136.8760 N   0  0  0  0  0  2  0  0  0  0  0  0
  190.9850  173.9740  136.4360 O   0  0  0  0  0  0  0  0  0  0  0  0
  194.5030  173.1450  139.6090 C   0  0  0  0  0  2  0  0  0  0  0  0
  193.9790  175.2910  138.7450 C   0  0  0  0  0  2  0  0  0  0  0  0
  195.5730  172.1470  140.0850 C   0  0  1  0  0  3  0  0  0  0  0  0
  197.2070  173.2340  138.4610 C   0  0  1  0  0  3  0  0  0  0  0  0
  193.4240  175.1900  137.3140 C   0  0  1  0  0  3  0  0  0  0  0  0
  195.0910  174.3850  139.0930 N   0  0  2  0  0  0  0  0  0  0  0  0
  195.6070  175.4470  135.9850 C   0  0  0  0  0  2  0  0  0  0  0  0
  195.9990  174.0480  137.9790 C   0  0  1  0  0  3  0  0  0  0  0  0
  194.2360  176.0310  136.3220 C   0  0  0  0  0  2  0  0  0  0  0  0
  196.4740  175.2760  137.2200 C   0  0  0  0  0  2  0  0  0  0  0  0
  197.9400  171.6760  140.1570 O   0  0  0  0  0  1  0  0  0  0  0  0
  197.0020  172.6730  139.8800 C   0  0  2  0  0  3  0  0  0  0  0  0
  197.4510  172.2000  137.5510 O   0  0  0  0  0  1  0  0  0  0  0  0
  195.3350  171.7790  141.5140 C   0  0  0  0  0  0  0  0  0  0  0  0
  194.9530  172.4820  143.9060 C   0  0  0  0  0  1  0  0  0  0  0  0
  195.1740  172.7990  142.5040 N   0  0  0  0  0  2  0  0  0  0  0  0
  195.3090  170.5620  141.8420 O   0  0  0  0  0  0  0  0  0  0  0  0
  193.7910  170.9200  134.6920 C   0  0  0  0  0  2  0  0  0  0  0  0
  193.1870  171.1500  135.8520 C   0  0  0  0  0  3  0  0  0  0  0  0
  189.7800  173.9290  139.4060 O   0  0  0  0  0  1  0  0  0  0  0  0
  188.6000  173.9670  140.1490 C   0  0  2  0  0  3  0  0  0  0  0  0
  188.5500  175.2310  141.0040 C   0  0  0  0  0  2  0  0  0  0  0  0
  187.4440  176.1610  140.5310 C   0  0  0  0  0  2  0  0  0  0  0  0
  187.4320  177.4770  141.3110 C   0  0  0  0  0  2  0  0  0  0  0  0
  186.4760  177.4970  142.5050 C   0  0  2  0  0  3  0  0  0  0  0  0
  185.0330  177.6530  142.0590 C   0  0  0  0  0  1  0  0  0  0  0  0
  186.8340  178.5410  143.4540 N   0  0  0  0  0  2  0  0  0  0  0  0
  188.8320  174.9820  147.2690 C   0  0  0  0  0  1  0  0  0  0  0  0
  185.2120  177.2310  145.1270 F   0  0  0  0  0  0  0  0  0  0  0  0
  187.4660  177.8980  144.5970 C   0  0  2  0  0  3  0  0  0  0  0  0
  188.1380  176.7300  144.1870 O   0  0  0  0  0  0  0  0  0  0  0  0
  186.4340  177.5660  145.6840 C   0  0  2  0  0  3  0  0  0  0  0  0
  186.9080  176.4040  146.5620 C   0  0  1  0  0  3  0  0  0  0  0  0
  188.4360  176.2870  146.6060 C   0  0  2  0  0  3  0  0  0  0  0  0
  186.3970  176.5560  147.8510 O   0  0  0  0  0  1  0  0  0  0  0  0
  189.0720  176.3750  145.1970 C   0  0  2  0  0  3  0  0  0  0  0  0
  193.3490  176.3130  143.4860 C   0  0  0  0  0  1  0  0  0  0  0  0
  191.7330  175.2890  145.7910 C   0  0  0  0  0  2  0  0  0  0  0  0
  191.3940  176.7790  145.9690 C   0  0  0  0  0  2  0  0  0  0  0  0
  192.2320  174.7060  142.0130 C   0  0  0  0  0  1  0  0  0  0  0  0
  191.5890  174.7090  144.3780 C   0  0  0  0  0  2  0  0  0  0  0  0
  190.2440  177.2760  145.2010 N   0  0  1  0  0  0  0  0  0  0  0  0
  192.0270  175.6020  143.2160 C   0  0  0  0  0  0  0  0  0  0  0  0
  190.9080  176.5820  142.8640 C   0  0  0  0  0  2  0  0  0  0  0  0
  190.6980  177.7160  143.8740 C   0  0  0  0  0  2  0  0  0  0  0  0
  2  5  1  0  0  0  0
  2  6  1  0  0  0  0
  3  4  1  0  0  0  0
  5 41  1  6  0  0  0
  5 13  1  0  0  0  0
  6  3  2  0  0  0  0
  6  1  1  0  0  0  0
  7 10  2  0  0  0  0
  8  9  1  0  0  0  0
  8 11  2  0  0  0  0
  9 12  1  0  0  0  0
 10  3  1  0  0  0  0
 11  7  1  0  0  0  0
 12  7  1  0  0  0  0
 12  2  2  0  0  0  0
 13  1  2  0  0  0  0
 14 15  1  6  0  0  0
 14  8  1  0  0  0  0
 16 18  1  0  0  0  0
 16 14  1  0  0  0  0
 17 20  2  0  0  0  0
 17 19  1  0  0  0  0
 18 17  1  0  0  0  0
 21 23  1  0  0  0  0
 23 34  1  1  0  0  0
 24 33  1  6  0  0  0
 24 32  1  0  0  0  0
 25 19  1  6  0  0  0
 25 22  1  0  0  0  0
 26 22  1  6  0  0  0
 26 21  1  0  0  0  0
 27 29  1  0  0  0  0
 27 30  1  0  0  0  0
 28 30  1  1  0  0  0
 28 24  1  0  0  0  0
 28 26  1  0  0  0  0
 29 25  1  0  0  0  0
 32 23  1  0  0  0  0
 32 31  1  6  0  0  0
 34 37  2  0  0  0  0
 34 36  1  0  0  0  0
 36 35  1  0  0  0  0
 38 39  2  0  0  0  0
 39 18  1  0  0  0  0
 41 40  1  1  0  0  0
 41 42  1  0  0  0  0
 43 42  1  0  0  0  0
 43 44  1  0  0  0  0
 44 45  1  0  0  0  0
 45 46  1  6  0  0  0
 45 47  1  0  0  0  0
 50 47  1  6  0  0  0
 50 52  1  0  0  0  0
 51 50  1  0  0  0  0
 52 49  1  6  0  0  0
 52 53  1  0  0  0  0
 53 54  1  0  0  0  0
 53 55  1  1  0  0  0
 54 48  1  6  0  0  0
 56 51  1  6  0  0  0
 56 62  1  0  0  0  0
 56 54  1  0  0  0  0
 58 59  1  0  0  0  0
 60 63  1  0  0  0  0
 61 58  1  0  0  0  0
 62 65  1  6  0  0  0
 62 59  1  0  0  0  0
 63 57  1  0  0  0  0
 63 61  1  0  0  0  0
 64 63  1  0  0  0  0
 64 65  1  0  0  0  0
M  END
>  <MODEL>
6

>  <REMARK>
 VINA RESULT:      -7.4      2.592      7.088
  Name = 
  14 active torsions:
  status: ('A' for Active; 'I' for Inactive)
    1  A    between atoms: C_3  and  C_17
    2  A    between atoms: N_11  and  C_24
    3  A    between atoms: N_11  and  C_50
    4  A    between atoms: N_13  and  C_43
    5  A    between atoms: N_19  and  C_65
    6  A    between atoms: C_23  and  C_31
    7  A    between atoms: C_23  and  C_36
    8  A    between atoms: C_24  and  C_25
    9  A    between atoms: C_25  and  C_42
   10  A    between atoms: C_28  and  N_45
   11  A    between atoms: C_29  and  C_35
   12  A    between atoms: C_29  and  C_36
   13  A    between atoms: C_31  and  C_32
   14  A    between atoms: C_35  and  N_45
                            x       y       z     vdW  Elec       q    Type
                         _______ _______ _______ _____ _____    ______ ____

>  <TORSDO>
F 14

$$$$
=
 OpenBabel11042416383D

 65 71  0  0  1  0  0  0  0  0999 V2000
  190.0510  175.0190  146.9330 C   0  0  0  0  0  3  0  0  0  0  0  0
  192.0450  174.4790  145.7790 C   0  0  0  0  0  0  0  0  0  0  0  0
  192.2160  176.3960  147.2680 C   0  0  0  0  0  0  0  0  0  0  0  0
  191.6180  177.2730  148.1630 O   0  0  0  0  0  1  0  0  0  0  0  0
  191.0860  173.4460  145.3050 C   0  0  1  0  0  3  0  0  0  0  0  0
  191.4710  175.3500  146.6800 C   0  0  0  0  0  0  0  0  0  0  0  0
  194.1360  175.6290  146.0350 C   0  0  0  0  0  0  0  0  0  0  0  0
  195.3520  174.4250  144.6910 C   0  0  0  0  0  0  0  0  0  0  0  0
  194.1340  173.9110  144.6660 O   0  0  0  0  0  0  0  0  0  0  0  0
  193.5810  176.5410  146.9400 C   0  0  0  0  0  3  0  0  0  0  0  0
  195.4210  175.5320  145.5490 C   0  0  0  0  0  3  0  0  0  0  0  0
  193.3950  174.6250  145.4700 C   0  0  0  0  0  0  0  0  0  0  0  0
  189.8150  173.7320  146.1280 C   0  0  0  0  0  3  0  0  0  0  0  0
  196.4790  173.8840  143.8560 C   0  0  2  0  0  3  0  0  0  0  0  0
  197.8060  174.0730  144.5740 C   0  0  0  0  0  1  0  0  0  0  0  0
  196.5540  174.5250  142.4720 C   0  0  0  0  0  2  0  0  0  0  0  0
  196.5890  172.1890  141.5540 C   0  0  0  0  0  0  0  0  0  0  0  0
  197.0400  173.5510  141.4920 N   0  0  0  0  0  0  0  0  0  0  0  0
  196.9550  171.2690  140.5220 N   0  0  0  0  0  2  0  0  0  0  0  0
  195.8690  171.8010  142.5150 O   0  0  0  0  0  0  0  0  0  0  0  0
  194.1990  171.6370  139.2190 C   0  0  0  0  0  2  0  0  0  0  0  0
  195.1640  169.6170  140.0030 C   0  0  0  0  0  2  0  0  0  0  0  0
  193.6800  172.4700  138.0340 C   0  0  1  0  0  3  0  0  0  0  0  0
  195.3620  171.2700  136.5450 C   0  0  1  0  0  3  0  0  0  0  0  0
  196.5870  169.8560  140.5400 C   0  0  1  0  0  3  0  0  0  0  0  0
  194.7770  170.3600  138.7890 N   0  0  2  0  0  0  0  0  0  0  0  0
  197.9370  169.3960  138.4030 C   0  0  0  0  0  2  0  0  0  0  0  0
  195.8780  170.6360  137.8440 C   0  0  1  0  0  3  0  0  0  0  0  0
  197.6220  168.9700  139.8370 C   0  0  0  0  0  2  0  0  0  0  0  0
  196.6980  169.3980  137.5230 C   0  0  0  0  0  2  0  0  0  0  0  0
  193.5960  172.6390  135.6270 O   0  0  0  0  0  1  0  0  0  0  0  0
  193.9160  171.7810  136.6810 C   0  0  2  0  0  3  0  0  0  0  0  0
  196.2210  172.3080  136.1730 O   0  0  0  0  0  1  0  0  0  0  0  0
  192.2330  172.7940  138.2270 C   0  0  0  0  0  0  0  0  0  0  0  0
  189.8480  172.0180  138.4970 C   0  0  0  0  0  1  0  0  0  0  0  0
  191.2660  171.7440  138.3210 N   0  0  0  0  0  2  0  0  0  0  0  0
  191.8720  174.0010  138.2730 O   0  0  0  0  0  0  0  0  0  0  0  0
  197.5780  174.7480  139.4530 C   0  0  0  0  0  2  0  0  0  0  0  0
  197.9400  173.9390  140.4410 C   0  0  0  0  0  3  0  0  0  0  0  0
  191.3670  172.4530  143.1300 O   0  0  0  0  0  1  0  0  0  0  0  0
  190.7870  173.5300  143.8010 C   0  0  2  0  0  3  0  0  0  0  0  0
  191.2270  174.8500  143.1700 C   0  0  0  0  0  2  0  0  0  0  0  0
  190.0920  175.8610  143.1820 C   0  0  0  0  0  2  0  0  0  0  0  0
  188.7260  175.1880  143.0340 C   0  0  0  0  0  2  0  0  0  0  0  0
  188.0040  175.5030  141.7220 C   0  0  2  0  0  3  0  0  0  0  0  0
  188.4130  174.5440  140.6180 C   0  0  0  0  0  1  0  0  0  0  0  0
  188.2270  176.8820  141.3110 N   0  0  0  0  0  2  0  0  0  0  0  0
  183.1890  178.6730  142.9310 C   0  0  0  0  0  1  0  0  0  0  0  0
  186.1180  176.7890  139.6720 F   0  0  0  0  0  0  0  0  0  0  0  0
  187.0610  177.6540  141.7130 C   0  0  2  0  0  3  0  0  0  0  0  0
  186.3870  177.0050  142.7660 O   0  0  0  0  0  0  0  0  0  0  0  0
  186.1100  177.8770  140.5280 C   0  0  2  0  0  3  0  0  0  0  0  0
  184.6750  178.1140  141.0050 C   0  0  1  0  0  3  0  0  0  0  0  0
  184.6170  178.7030  142.4200 C   0  0  2  0  0  3  0  0  0  0  0  0
  184.0170  178.9520  140.1050 O   0  0  0  0  0  1  0  0  0  0  0  0
  185.5440  177.9520  143.4070 C   0  0  2  0  0  3  0  0  0  0  0  0
  186.7460  178.3240  147.8390 C   0  0  0  0  0  1  0  0  0  0  0  0
  184.4560  178.8500  145.9800 C   0  0  0  0  0  2  0  0  0  0  0  0
  185.5150  179.6560  145.2090 C   0  0  0  0  0  2  0  0  0  0  0  0
  186.3040  175.9200  147.6740 C   0  0  0  0  0  1  0  0  0  0  0  0
  184.8430  177.4280  146.4100 C   0  0  0  0  0  2  0  0  0  0  0  0
  186.3170  178.9020  144.2350 N   0  0  1  0  0  0  0  0  0  0  0  0
  186.2770  177.2200  146.8960 C   0  0  0  0  0  0  0  0  0  0  0  0
  187.2130  177.0490  145.7000 C   0  0  0  0  0  2  0  0  0  0  0  0
  187.4920  178.3320  144.9080 C   0  0  0  0  0  2  0  0  0  0  0  0
  2  6  1  0  0  0  0
  3  4  1  0  0  0  0
  5 41  1  6  0  0  0
  5  2  1  0  0  0  0
  5 13  1  0  0  0  0
  6  1  1  0  0  0  0
  6  3  2  0  0  0  0
  7 10  2  0  0  0  0
  8 11  2  0  0  0  0
  9  8  1  0  0  0  0
  9 12  1  0  0  0  0
 10  3  1  0  0  0  0
 11  7  1  0  0  0  0
 12  2  2  0  0  0  0
 12  7  1  0  0  0  0
 13  1  2  0  0  0  0
 14 15  1  1  0  0  0
 14  8  1  0  0  0  0
 16 14  1  0  0  0  0
 17 20  2  0  0  0  0
 18 17  1  0  0  0  0
 18 16  1  0  0  0  0
 19 17  1  0  0  0  0
 22 25  1  0  0  0  0
 23 34  1  1  0  0  0
 23 21  1  0  0  0  0
 24 33  1  1  0  0  0
 24 32  1  0  0  0  0
 24 28  1  0  0  0  0
 25 19  1  6  0  0  0
 26 21  1  1  0  0  0
 26 22  1  0  0  0  0
 27 29  1  0  0  0  0
 28 30  1  6  0  0  0
 28 26  1  0  0  0  0
 29 25  1  0  0  0  0
 30 27  1  0  0  0  0
 32 31  1  6  0  0  0
 32 23  1  0  0  0  0
 34 37  2  0  0  0  0
 34 36  1  0  0  0  0
 36 35  1  0  0  0  0
 38 39  2  0  0  0  0
 39 18  1  0  0  0  0
 41 40  1  6  0  0  0
 42 43  1  0  0  0  0
 42 41  1  0  0  0  0
 44 43  1  0  0  0  0
 45 46  1  6  0  0  0
 45 44  1  0  0  0  0
 47 45  1  0  0  0  0
 50 47  1  6  0  0  0
 50 51  1  0  0  0  0
 52 49  1  6  0  0  0
 52 53  1  0  0  0  0
 52 50  1  0  0  0  0
 53 55  1  6  0  0  0
 53 54  1  0  0  0  0
 54 48  1  1  0  0  0
 54 56  1  0  0  0  0
 56 51  1  6  0  0  0
 56 62  1  0  0  0  0
 58 61  1  0  0  0  0
 59 58  1  0  0  0  0
 61 63  1  0  0  0  0
 62 65  1  1  0  0  0
 62 59  1  0  0  0  0
 63 60  1  0  0  0  0
 63 57  1  0  0  0  0
 64 63  1  0  0  0  0
 65 64  1  0  0  0  0
M  END
>  <MODEL>
7

>  <REMARK>
 VINA RESULT:      -7.2      2.782      8.427
  Name = 
  14 active torsions:
  status: ('A' for Active; 'I' for Inactive)
    1  A    between atoms: C_3  and  C_17
    2  A    between atoms: N_11  and  C_24
    3  A    between atoms: N_11  and  C_50
    4  A    between atoms: N_13  and  C_43
    5  A    between atoms: N_19  and  C_65
    6  A    between atoms: C_23  and  C_31
    7  A    between atoms: C_23  and  C_36
    8  A    between atoms: C_24  and  C_25
    9  A    between atoms: C_25  and  C_42
   10  A    between atoms: C_28  and  N_45
   11  A    between atoms: C_29  and  C_35
   12  A    between atoms: C_29  and  C_36
   13  A    between atoms: C_31  and  C_32
   14  A    between atoms: C_35  and  N_45
                            x       y       z     vdW  Elec       q    Type
                         _______ _______ _______ _____ _____    ______ ____

>  <TORSDO>
F 14

$$$$
=
 OpenBabel11042416383D

 65 71  0  0  1  0  0  0  0  0999 V2000
  195.0210  173.2270  145.6890 C   0  0  0  0  0  3  0  0  0  0  0  0
  194.7710  173.8870  143.4300 C   0  0  0  0  0  0  0  0  0  0  0  0
  197.0250  174.1210  144.3190 C   0  0  0  0  0  0  0  0  0  0  0  0
  197.9090  174.0100  145.3830 O   0  0  0  0  0  1  0  0  0  0  0  0
  193.4050  173.4390  143.8080 C   0  0  1  0  0  3  0  0  0  0  0  0
  195.6660  173.7680  144.4720 C   0  0  0  0  0  0  0  0  0  0  0  0
  196.5490  174.6760  142.0250 C   0  0  0  0  0  0  0  0  0  0  0  0
  195.4280  174.9510  140.1810 C   0  0  0  0  0  0  0  0  0  0  0  0
  194.5710  174.5050  141.0840 O   0  0  0  0  0  0  0  0  0  0  0  0
  197.4800  174.5870  143.0660 C   0  0  0  0  0  3  0  0  0  0  0  0
  196.7150  175.0850  140.7200 C   0  0  0  0  0  3  0  0  0  0  0  0
  195.2340  174.3360  142.1960 C   0  0  0  0  0  0  0  0  0  0  0  0
  193.5830  172.9160  145.2460 C   0  0  0  0  0  3  0  0  0  0  0  0
  195.0180  175.2960  138.7760 C   0  0  2  0  0  3  0  0  0  0  0  0
  193.6040  174.8100  138.5030 C   0  0  0  0  0  1  0  0  0  0  0  0
  195.9640  174.7240  137.7230 C   0  0  0  0  0  2  0  0  0  0  0  0
  195.3070  172.3750  137.1290 C   0  0  0  0  0  0  0  0  0  0  0  0
  195.2460  173.7840  136.8590 N   0  0  0  0  0  0  0  0  0  0  0  0
  194.5010  171.4680  136.3710 N   0  0  0  0  0  2  0  0  0  0  0  0
  196.0680  171.9340  138.0350 O   0  0  0  0  0  0  0  0  0  0  0  0
  192.5260  171.3600  138.7210 C   0  0  0  0  0  2  0  0  0  0  0  0
  193.6960  169.5460  137.7360 C   0  0  0  0  0  2  0  0  0  0  0  0
  191.1830  172.0480  139.0200 C   0  0  1  0  0  3  0  0  0  0  0  0
  190.2680  171.0380  136.8680 C   0  0  1  0  0  3  0  0  0  0  0  0
  194.5470  170.0190  136.5450 C   0  0  1  0  0  3  0  0  0  0  0  0
  192.3640  170.1640  137.8890 N   0  0  2  0  0  0  0  0  0  0  0  0
  192.8610  169.6600  134.6400 C   0  0  0  0  0  2  0  0  0  0  0  0
  191.7030  170.5530  136.6270 C   0  0  1  0  0  3  0  0  0  0  0  0
  194.2020  169.2630  135.2560 C   0  0  0  0  0  2  0  0  0  0  0  0
  191.7040  169.4350  135.5980 C   0  0  0  0  0  2  0  0  0  0  0  0
  188.8250  172.0850  138.5000 O   0  0  0  0  0  1  0  0  0  0  0  0
  189.9960  171.3360  138.3540 C   0  0  2  0  0  3  0  0  0  0  0  0
  190.0350  172.1730  136.0850 O   0  0  0  0  0  1  0  0  0  0  0  0
  190.9810  172.1640  140.4970 C   0  0  0  0  0  0  0  0  0  0  0  0
  190.4400  171.0790  142.7090 C   0  0  0  0  0  1  0  0  0  0  0  0
  190.6560  171.0060  141.2720 N   0  0  0  0  0  2  0  0  0  0  0  0
  191.0690  173.2950  141.0440 O   0  0  0  0  0  0  0  0  0  0  0  0
  194.8440  175.2260  134.9500 C   0  0  0  0  0  2  0  0  0  0  0  0
  194.4480  174.2480  135.7570 C   0  0  0  0  0  3  0  0  0  0  0  0
  192.9720  175.8040  143.9370 O   0  0  0  0  0  1  0  0  0  0  0  0
  192.3580  174.5630  143.7670 C   0  0  2  0  0  3  0  0  0  0  0  0
  191.2350  174.3800  144.7860 C   0  0  0  0  0  2  0  0  0  0  0  0
  189.8760  174.4000  144.1040 C   0  0  0  0  0  2  0  0  0  0  0  0
  189.6650  175.6770  143.2880 C   0  0  0  0  0  2  0  0  0  0  0  0
  188.3800  175.6940  142.4590 C   0  0  2  0  0  3  0  0  0  0  0  0
  188.2050  174.4040  141.6780 C   0  0  0  0  0  1  0  0  0  0  0  0
  188.3390  176.8420  141.5650 N   0  0  0  0  0  2  0  0  0  0  0  0
  183.2310  178.6400  142.9410 C   0  0  0  0  0  1  0  0  0  0  0  0
  186.2910  176.6750  139.8550 F   0  0  0  0  0  0  0  0  0  0  0  0
  187.1530  177.6170  141.8980 C   0  0  2  0  0  3  0  0  0  0  0  0
  186.4470  176.9970  142.9480 O   0  0  0  0  0  0  0  0  0  0  0  0
  186.2440  177.7900  140.6740 C   0  0  2  0  0  3  0  0  0  0  0  0
  184.7900  178.0300  141.0900 C   0  0  1  0  0  3  0  0  0  0  0  0
  184.6760  178.6660  142.4810 C   0  0  2  0  0  3  0  0  0  0  0  0
  184.1590  178.8320  140.1390 O   0  0  0  0  0  1  0  0  0  0  0  0
  185.5730  177.9570  143.5260 C   0  0  2  0  0  3  0  0  0  0  0  0
  186.6710  178.4520  147.9730 C   0  0  0  0  0  1  0  0  0  0  0  0
  184.4110  178.8880  146.0550 C   0  0  0  0  0  2  0  0  0  0  0  0
  185.4690  179.6990  145.2880 C   0  0  0  0  0  2  0  0  0  0  0  0
  186.2820  176.0360  147.8520 C   0  0  0  0  0  1  0  0  0  0  0  0
  184.8180  177.4850  146.5240 C   0  0  0  0  0  2  0  0  0  0  0  0
  186.3080  178.9410  144.3480 N   0  0  1  0  0  0  0  0  0  0  0  0
  186.2460  177.3170  147.0460 C   0  0  0  0  0  0  0  0  0  0  0  0
  187.2100  177.1400  145.8730 C   0  0  0  0  0  2  0  0  0  0  0  0
  187.4800  178.4110  145.0590 C   0  0  0  0  0  2  0  0  0  0  0  0
  2  5  1  0  0  0  0
  2  6  1  0  0  0  0
  3  6  2  0  0  0  0
  3  4  1  0  0  0  0
  5 41  1  1  0  0  0
  5 13  1  0  0  0  0
  6  1  1  0  0  0  0
  7 12  1  0  0  0  0
  7 10  2  0  0  0  0
  8 11  2  0  0  0  0
  8  9  1  0  0  0  0
  9 12  1  0  0  0  0
 10  3  1  0  0  0  0
 11  7  1  0  0  0  0
 12  2  2  0  0  0  0
 13  1  2  0  0  0  0
 14 15  1  6  0  0  0
 14  8  1  0  0  0  0
 16 14  1  0  0  0  0
 17 20  2  0  0  0  0
 18 17  1  0  0  0  0
 18 16  1  0  0  0  0
 19 17  1  0  0  0  0
 21 23  1  0  0  0  0
 23 34  1  1  0  0  0
 24 33  1  6  0  0  0
 24 32  1  0  0  0  0
 25 19  1  6  0  0  0
 25 22  1  0  0  0  0
 26 22  1  6  0  0  0
 26 21  1  0  0  0  0
 27 29  1  0  0  0  0
 27 30  1  0  0  0  0
 28 30  1  6  0  0  0
 28 24  1  0  0  0  0
 28 26  1  0  0  0  0
 29 25  1  0  0  0  0
 32 31  1  6  0  0  0
 32 23  1  0  0  0  0
 34 37  2  0  0  0  0
 34 36  1  0  0  0  0
 36 35  1  0  0  0  0
 38 39  2  0  0  0  0
 39 18  1  0  0  0  0
 41 40  1  1  0  0  0
 41 42  1  0  0  0  0
 43 42  1  0  0  0  0
 44 43  1  0  0  0  0
 45 46  1  6  0  0  0
 45 44  1  0  0  0  0
 47 45  1  0  0  0  0
 50 47  1  6  0  0  0
 50 51  1  0  0  0  0
 52 49  1  6  0  0  0
 52 53  1  0  0  0  0
 52 50  1  0  0  0  0
 53 55  1  6  0  0  0
 53 54  1  0  0  0  0
 54 48  1  1  0  0  0
 54 56  1  0  0  0  0
 56 51  1  6  0  0  0
 56 62  1  0  0  0  0
 58 61  1  0  0  0  0
 59 58  1  0  0  0  0
 61 63  1  0  0  0  0
 62 65  1  1  0  0  0
 62 59  1  0  0  0  0
 63 60  1  0  0  0  0
 63 57  1  0  0  0  0
 64 63  1  0  0  0  0
 65 64  1  0  0  0  0
M  END
>  <MODEL>
8

>  <REMARK>
 VINA RESULT:      -7.1      2.701      8.772
  Name = 
  14 active torsions:
  status: ('A' for Active; 'I' for Inactive)
    1  A    between atoms: C_3  and  C_17
    2  A    between atoms: N_11  and  C_24
    3  A    between atoms: N_11  and  C_50
    4  A    between atoms: N_13  and  C_43
    5  A    between atoms: N_19  and  C_65
    6  A    between atoms: C_23  and  C_31
    7  A    between atoms: C_23  and  C_36
    8  A    between atoms: C_24  and  C_25
    9  A    between atoms: C_25  and  C_42
   10  A    between atoms: C_28  and  N_45
   11  A    between atoms: C_29  and  C_35
   12  A    between atoms: C_29  and  C_36
   13  A    between atoms: C_31  and  C_32
   14  A    between atoms: C_35  and  N_45
                            x       y       z     vdW  Elec       q    Type
                         _______ _______ _______ _____ _____    ______ ____

>  <TORSDO>
F 14

$$$$
=
 OpenBabel11042416383D

 65 71  0  0  1  0  0  0  0  0999 V2000
  188.6810  173.9700  137.4640 C   0  0  0  0  0  3  0  0  0  0  0  0
  190.6950  172.8890  138.0770 C   0  0  0  0  0  0  0  0  0  0  0  0
  190.2370  172.9150  135.6870 C   0  0  0  0  0  0  0  0  0  0  0  0
  189.4030  173.2580  134.6320 O   0  0  0  0  0  1  0  0  0  0  0  0
  190.1430  173.3460  139.3790 C   0  0  1  0  0  3  0  0  0  0  0  0
  189.8850  173.2360  137.0160 C   0  0  0  0  0  0  0  0  0  0  0  0
  192.2590  171.9210  136.5360 C   0  0  0  0  0  0  0  0  0  0  0  0
  193.7700  171.2620  137.9550 C   0  0  0  0  0  0  0  0  0  0  0  0
  192.8100  171.8350  138.6610 O   0  0  0  0  0  0  0  0  0  0  0  0
  191.4530  172.2410  135.4370 C   0  0  0  0  0  3  0  0  0  0  0  0
  193.4780  171.2820  136.5840 C   0  0  0  0  0  3  0  0  0  0  0  0
  191.8970  172.2350  137.8180 C   0  0  0  0  0  0  0  0  0  0  0  0
  188.8820  174.1360  138.9780 C   0  0  0  0  0  3  0  0  0  0  0  0
  194.9850  170.6430  138.5900 C   0  0  2  0  0  3  0  0  0  0  0  0
  196.1270  170.5750  137.5890 C   0  0  0  0  0  1  0  0  0  0  0  0
  194.7170  169.2490  139.1520 C   0  0  0  0  0  2  0  0  0  0  0  0
  195.9750  169.0990  141.3190 C   0  0  0  0  0  0  0  0  0  0  0  0
  194.7370  169.2840  140.6160 N   0  0  0  0  0  0  0  0  0  0  0  0
  196.0220  169.2660  142.7390 N   0  0  0  0  0  2  0  0  0  0  0  0
  197.0240  168.7910  140.6870 O   0  0  0  0  0  0  0  0  0  0  0  0
  196.7010  172.2320  143.1490 C   0  0  0  0  0  2  0  0  0  0  0  0
  197.9390  170.3530  143.8990 C   0  0  0  0  0  2  0  0  0  0  0  0
  195.8710  173.4800  143.4950 C   0  0  1  0  0  3  0  0  0  0  0  0
  195.1170  172.3010  145.6230 C   0  0  1  0  0  3  0  0  0  0  0  0
  197.2260  169.0400  143.5330 C   0  0  1  0  0  3  0  0  0  0  0  0
  197.0860  171.4720  144.3420 N   0  0  2  0  0  0  0  0  0  0  0  0
  195.8450  168.6870  145.6700 C   0  0  0  0  0  2  0  0  0  0  0  0
  195.8600  171.0800  145.0660 C   0  0  1  0  0  3  0  0  0  0  0  0
  196.9610  168.1670  144.7650 C   0  0  0  0  0  2  0  0  0  0  0  0
  196.1330  170.0870  146.1830 C   0  0  0  0  0  2  0  0  0  0  0  0
  194.7180  174.6570  145.2610 O   0  0  0  0  0  1  0  0  0  0  0  0
  195.6170  173.6190  145.0040 C   0  0  2  0  0  3  0  0  0  0  0  0
  193.7460  172.1390  145.4010 O   0  0  0  0  0  1  0  0  0  0  0  0
  196.5290  174.7060  142.9450 C   0  0  0  0  0  0  0  0  0  0  0  0
  196.4040  176.7970  141.5410 C   0  0  0  0  0  1  0  0  0  0  0  0
  195.7970  175.6010  142.1040 N   0  0  0  0  0  2  0  0  0  0  0  0
  197.7430  174.9220  143.2050 O   0  0  0  0  0  0  0  0  0  0  0  0
  193.1770  170.7540  141.7510 C   0  0  0  0  0  2  0  0  0  0  0  0
  193.5390  169.5350  141.3700 C   0  0  0  0  0  3  0  0  0  0  0  0
  189.1750  171.1550  139.6210 O   0  0  0  0  0  1  0  0  0  0  0  0
  189.7790  172.1940  140.3290 C   0  0  2  0  0  3  0  0  0  0  0  0
  188.8940  172.6280  141.4950 C   0  0  0  0  0  2  0  0  0  0  0  0
  189.7320  172.9280  142.7280 C   0  0  0  0  0  2  0  0  0  0  0  0
  189.8260  174.4310  143.0030 C   0  0  0  0  0  2  0  0  0  0  0  0
  190.9990  175.1290  142.3100 C   0  0  2  0  0  3  0  0  0  0  0  0
  192.2840  174.3350  142.4610 C   0  0  0  0  0  1  0  0  0  0  0  0
  191.1750  176.4870  142.8030 N   0  0  0  0  0  2  0  0  0  0  0  0
  189.8460  177.8310  148.0610 C   0  0  0  0  0  1  0  0  0  0  0  0
  193.0470  177.1570  144.5890 F   0  0  0  0  0  0  0  0  0  0  0  0
  190.7610  176.5050  144.1980 C   0  0  2  0  0  3  0  0  0  0  0  0
  189.9750  177.6450  144.4570 O   0  0  0  0  0  0  0  0  0  0  0  0
  191.9760  176.4710  145.1350 C   0  0  2  0  0  3  0  0  0  0  0  0
  191.6440  177.0870  146.4980 C   0  0  1  0  0  3  0  0  0  0  0  0
  190.1520  176.9870  146.8390 C   0  0  2  0  0  3  0  0  0  0  0  0
  192.4090  176.4700  147.4870 O   0  0  0  0  0  1  0  0  0  0  0  0
  189.2490  177.4240  145.6590 C   0  0  2  0  0  3  0  0  0  0  0  0
  184.7690  177.6700  144.6140 C   0  0  0  0  0  1  0  0  0  0  0  0
  186.6540  177.9370  146.9280 C   0  0  0  0  0  2  0  0  0  0  0  0
  187.0900  176.5290  146.4890 C   0  0  0  0  0  2  0  0  0  0  0  0
  185.5730  179.8100  143.7360 C   0  0  0  0  0  1  0  0  0  0  0  0
  186.5570  179.0070  145.8320 C   0  0  0  0  0  2  0  0  0  0  0  0
  188.1380  176.4690  145.4600 N   0  0  1  0  0  0  0  0  0  0  0  0
  185.9990  178.5620  144.4790 C   0  0  0  0  0  0  0  0  0  0  0  0
  187.1020  177.9000  143.6540 C   0  0  0  0  0  2  0  0  0  0  0  0
  187.5160  176.5020  144.1290 C   0  0  0  0  0  2  0  0  0  0  0  0
  1 13  2  0  0  0  0
  2  5  1  0  0  0  0
  3  6  1  0  0  0  0
  4  3  1  0  0  0  0
  5 41  1  1  0  0  0
  6  1  1  0  0  0  0
  6  2  2  0  0  0  0
  7 11  1  0  0  0  0
  7 12  2  0  0  0  0
  8 14  1  0  0  0  0
  8  9  1  0  0  0  0
 10  3  2  0  0  0  0
 10  7  1  0  0  0  0
 11  8  2  0  0  0  0
 12  2  1  0  0  0  0
 12  9  1  0  0  0  0
 13  5  1  0  0  0  0
 14 15  1  6  0  0  0
 14 16  1  0  0  0  0
 16 18  1  0  0  0  0
 17 19  1  0  0  0  0
 18 17  1  0  0  0  0
 18 39  1  0  0  0  0
 20 17  2  0  0  0  0
 21 23  1  0  0  0  0
 22 26  1  0  0  0  0
 23 34  1  1  0  0  0
 23 32  1  0  0  0  0
 24 33  1  6  0  0  0
 25 19  1  1  0  0  0
 25 22  1  0  0  0  0
 25 29  1  0  0  0  0
 26 21  1  6  0  0  0
 26 28  1  0  0  0  0
 27 30  1  0  0  0  0
 28 24  1  0  0  0  0
 28 30  1  1  0  0  0
 29 27  1  0  0  0  0
 32 31  1  6  0  0  0
 32 24  1  0  0  0  0
 34 37  2  0  0  0  0
 35 36  1  0  0  0  0
 36 34  1  0  0  0  0
 39 38  2  0  0  0  0
 41 40  1  6  0  0  0
 41 42  1  0  0  0  0
 42 43  1  0  0  0  0
 43 44  1  0  0  0  0
 45 46  1  1  0  0  0
 45 47  1  0  0  0  0
 45 44  1  0  0  0  0
 50 47  1  6  0  0  0
 50 51  1  0  0  0  0
 50 52  1  0  0  0  0
 52 49  1  6  0  0  0
 52 53  1  0  0  0  0
 53 54  1  0  0  0  0
 53 55  1  1  0  0  0
 54 48  1  1  0  0  0
 56 51  1  6  0  0  0
 56 54  1  0  0  0  0
 59 58  1  0  0  0  0
 60 63  1  0  0  0  0
 61 58  1  0  0  0  0
 62 65  1  6  0  0  0
 62 56  1  0  0  0  0
 62 59  1  0  0  0  0
 63 57  1  0  0  0  0
 63 61  1  0  0  0  0
 64 65  1  0  0  0  0
 64 63  1  0  0  0  0
M  END
>  <MODEL>
9

>  <REMARK>
 VINA RESULT:      -7.1      2.368      8.526
  Name = 
  14 active torsions:
  status: ('A' for Active; 'I' for Inactive)
    1  A    between atoms: C_3  and  C_17
    2  A    between atoms: N_11  and  C_24
    3  A    between atoms: N_11  and  C_50
    4  A    between atoms: N_13  and  C_43
    5  A    between atoms: N_19  and  C_65
    6  A    between atoms: C_23  and  C_31
    7  A    between atoms: C_23  and  C_36
    8  A    between atoms: C_24  and  C_25
    9  A    between atoms: C_25  and  C_42
   10  A    between atoms: C_28  and  N_45
   11  A    between atoms: C_29  and  C_35
   12  A    between atoms: C_29  and  C_36
   13  A    between atoms: C_31  and  C_32
   14  A    between atoms: C_35  and  N_45
                            x       y       z     vdW  Elec       q    Type
                         _______ _______ _______ _____ _____    ______ ____

>  <TORSDO>
F 14

$$$$
