=
 OpenBabel11042414343D

 46 51  0  0  1  0  0  0  0  0999 V2000
  194.4660  175.5850  145.7030 C   0  0  1  0  0  3  0  0  0  0  0  0
  190.0880  177.7940  142.6520 C   0  0  0  0  0  3  0  0  0  0  0  0
  189.9940  174.9770  146.8350 S   0  0  0  0  0  0  0  0  0  0  0  0
  187.6870  178.0480  143.3210 C   0  0  0  0  0  0  0  0  0  0  0  0
  188.7730  176.7710  145.2150 C   0  0  0  0  0  0  0  0  0  0  0  0
  190.0650  176.9170  144.9570 C   0  0  0  0  0  0  0  0  0  0  0  0
  187.6870  177.5290  144.5600 C   0  0  0  0  0  3  0  0  0  0  0  0
  192.1730  176.3130  145.9900 C   0  0  0  0  0  0  0  0  0  0  0  0
  188.4490  175.8220  146.3290 C   0  0  2  0  0  3  0  0  0  0  0  0
  187.9220  176.5120  147.4020 F   0  0  0  0  0  0  0  0  0  0  0  0
  190.9130  176.0580  145.7640 C   0  0  0  0  0  0  0  0  0  0  0  0
  193.4370  176.5410  146.2220 C   0  0  0  0  0  3  0  0  0  0  0  0
  188.7940  177.8680  142.3500 C   0  0  0  0  0  3  0  0  0  0  0  0
  190.6130  177.9640  144.0360 C   0  0  0  0  0  2  0  0  0  0  0  0
  186.0480  178.5610  141.6860 O   0  0  0  0  0  0  0  0  0  0  0  0
  185.7640  179.5740  143.7170 O   0  0  0  0  0  1  0  0  0  0  0  0
  186.4630  178.7260  142.8610 C   0  0  0  0  0  0  0  0  0  0  0  0
  193.9810  174.1290  145.7330 C   0  0  0  0  0  2  0  0  0  0  0  0
  196.2100  173.2770  146.0420 N   0  0  0  0  0  2  0  0  0  0  0  0
  195.0680  173.1140  145.4780 C   0  0  0  0  0  0  0  0  0  0  0  0
  193.2300  171.6730  144.5770 C   0  0  0  0  0  1  0  0  0  0  0  0
  194.7120  171.7840  144.8730 C   0  0  0  0  0  3  0  0  0  0  0  0
  195.1170  170.6360  145.7790 C   0  0  0  0  0  1  0  0  0  0  0  0
  194.9490  176.0120  144.3200 C   0  0  0  0  0  2  0  0  0  0  0  0
  194.1470  176.6870  141.1990 C   0  0  0  0  0  2  0  0  0  0  0  0
  195.0650  174.6590  142.2060 C   0  0  0  0  0  2  0  0  0  0  0  0
  193.3410  176.3400  142.4390 C   0  0  0  0  0  2  0  0  0  0  0  0
  196.6050  176.3450  141.2530 C   0  0  0  0  0  1  0  0  0  0  0  0
  194.1420  175.3150  143.2220 C   0  0  2  0  0  3  0  0  0  0  0  0
  195.2660  175.6580  141.0860 C   0  0  2  0  0  0  0  0  0  0  0  0
  195.2440  174.9720  139.7580 C   0  0  0  0  0  3  0  0  0  0  0  0
  194.2890  175.1680  138.9200 N   0  0  0  0  0  0  0  0  0  0  0  0
  194.2880  174.4980  137.6480 C   0  0  0  0  0  2  0  0  0  0  0  0
  192.9500  174.6840  136.9510 C   0  0  1  0  0  3  0  0  0  0  0  0
  192.7900  173.6790  135.9780 O   0  0  0  0  0  0  0  0  0  0  0  0
  192.0920  173.5060  137.1860 C   0  0  2  0  0  3  0  0  0  0  0  0
  190.6380  173.8900  136.9880 C   0  0  0  0  0  2  0  0  0  0  0  0
  189.8280  173.3270  138.0610 N   0  0  0  0  0  2  0  0  0  0  0  0
  190.3650  174.0680  142.6030 C   0  0  0  0  0  2  0  0  0  0  0  0
  190.0420  172.8390  140.4460 C   0  0  2  0  0  0  0  0  0  0  0  0
  190.7410  172.9630  139.1380 C   0  0  1  0  0  3  0  0  0  0  0  0
  190.3640  171.7070  139.6810 O   0  0  0  0  0  0  0  0  0  0  0  0
  188.5980  173.0750  140.4850 N   0  0  0  0  0  2  0  0  0  0  0  0
  188.8350  174.1580  142.6810 C   0  0  0  0  0  2  0  0  0  0  0  0
  188.1290  173.0750  141.8650 C   0  0  0  0  0  2  0  0  0  0  0  0
  190.8650  172.9240  141.7290 C   0  0  0  0  0  2  0  0  0  0  0  0
  1 24  1  6  0  0  0
  1 18  1  0  0  0  0
  1 12  1  0  0  0  0
  2 14  1  0  0  0  0
  4  7  2  0  0  0  0
  5  9  1  0  0  0  0
  6  5  2  0  0  0  0
  6 11  1  0  0  0  0
  7  5  1  0  0  0  0
  8 12  2  0  0  0  0
  9  3  1  0  0  0  0
  9 10  1  1  0  0  0
 11  8  2  0  0  0  0
 11  3  1  0  0  0  0
 13  2  2  0  0  0  0
 13  4  1  0  0  0  0
 14  6  1  0  0  0  0
 15 17  2  0  0  0  0
 17  4  1  0  0  0  0
 17 16  1  0  0  0  0
 20 18  1  0  0  0  0
 20 19  2  0  0  0  0
 21 22  1  0  0  0  0
 22 20  1  0  0  0  0
 22 23  1  0  0  0  0
 25 27  1  0  0  0  0
 26 29  1  0  0  0  0
 27 29  1  0  0  0  0
 29 24  1  1  0  0  0
 30 25  1  0  0  0  0
 30 28  1  1  0  0  0
 30 26  1  0  0  0  0
 31 30  1  0  0  0  0
 32 31  2  0  0  0  0
 33 32  1  0  0  0  0
 34 36  1  0  0  0  0
 34 33  1  1  0  0  0
 35 34  1  0  0  0  0
 35 36  1  0  0  0  0
 36 37  1  6  0  0  0
 37 38  1  0  0  0  0
 39 44  1  0  0  0  0
 40 43  1  0  0  0  0
 40 46  1  1  0  0  0
 41 38  1  6  0  0  0
 41 42  1  0  0  0  0
 41 40  1  0  0  0  0
 42 40  1  0  0  0  0
 43 45  1  0  0  0  0
 45 44  1  0  0  0  0
 46 39  1  0  0  0  0
M  END
>  <MODEL>
1

>  <REMARK>
 VINA RESULT:      -7.0      0.000      0.000
  Name = 
  13 active torsions:
  status: ('A' for Active; 'I' for Inactive)
    1  A    between atoms: C_2  and  C_17
    2  A    between atoms: C_2  and  C_35
    3  A    between atoms: C_2  and  C_44
    4  A    between atoms: C_6  and  C_42
    5  A    between atoms: N_9  and  C_10
    6  A    between atoms: N_9  and  C_46
    7  A    between atoms: C_11  and  C_39
    8  A    between atoms: C_17  and  C_23
    9  A    between atoms: C_20  and  C_22
   10  A    between atoms: C_20  and  N_36
   11  A    between atoms: C_23  and  C_30
   12  A    between atoms: C_37  and  C_44
   13  A    between atoms: C_41  and  C_46
                            x       y       z     vdW  Elec       q    Type
                         _______ _______ _______ _____ _____    ______ ____

>  <TORSDO>
F 13

$$$$
=
 OpenBabel11042414343D

 46 51  0  0  1  0  0  0  0  0999 V2000
  190.4600  175.1840  147.0630 C   0  0  1  0  0  3  0  0  0  0  0  0
  186.9300  176.3210  142.6360 C   0  0  0  0  0  3  0  0  0  0  0  0
  186.2520  177.1020  147.5730 S   0  0  0  0  0  0  0  0  0  0  0  0
  184.8970  177.7860  142.5930 C   0  0  0  0  0  0  0  0  0  0  0  0
  185.6260  177.7320  145.0150 C   0  0  0  0  0  0  0  0  0  0  0  0
  186.8390  177.2020  144.9380 C   0  0  0  0  0  0  0  0  0  0  0  0
  184.8420  178.2220  143.8620 C   0  0  0  0  0  3  0  0  0  0  0  0
  188.6630  176.6890  146.4490 C   0  0  0  0  0  0  0  0  0  0  0  0
  185.0950  177.9120  146.4050 C   0  0  2  0  0  3  0  0  0  0  0  0
  184.9960  179.2550  146.7040 F   0  0  0  0  0  0  0  0  0  0  0  0
  187.3830  176.8250  146.2300 C   0  0  0  0  0  0  0  0  0  0  0  0
  189.9370  176.5360  146.6910 C   0  0  0  0  0  3  0  0  0  0  0  0
  185.7350  176.6460  142.1470 C   0  0  0  0  0  3  0  0  0  0  0  0
  187.6340  177.1300  143.6710 C   0  0  0  0  0  2  0  0  0  0  0  0
  182.7730  178.5950  141.9170 O   0  0  0  0  0  1  0  0  0  0  0  0
  184.4280  178.7390  140.3450 O   0  0  0  0  0  0  0  0  0  0  0  0
  183.9780  178.3960  141.6170 C   0  0  0  0  0  0  0  0  0  0  0  0
  189.7290  174.0500  146.3310 C   0  0  0  0  0  2  0  0  0  0  0  0
  191.2530  172.8630  144.8970 N   0  0  0  0  0  2  0  0  0  0  0  0
  190.3040  173.7240  144.9750 C   0  0  0  0  0  0  0  0  0  0  0  0
  188.9620  172.9330  143.0150 C   0  0  0  0  0  1  0  0  0  0  0  0
  189.5530  174.1270  143.7360 C   0  0  0  0  0  3  0  0  0  0  0  0
  190.4420  174.8900  142.7710 C   0  0  0  0  0  1  0  0  0  0  0  0
  191.9730  175.1220  146.8730 C   0  0  0  0  0  2  0  0  0  0  0  0
  194.9310  176.3280  146.0750 C   0  0  0  0  0  2  0  0  0  0  0  0
  192.8880  176.1110  144.7520 C   0  0  0  0  0  2  0  0  0  0  0  0
  193.7590  176.8660  146.8800 C   0  0  0  0  0  2  0  0  0  0  0  0
  194.5780  174.3060  144.6800 C   0  0  0  0  0  1  0  0  0  0  0  0
  192.4900  176.3920  146.1930 C   0  0  2  0  0  3  0  0  0  0  0  0
  194.3700  175.8040  144.7570 C   0  0  2  0  0  0  0  0  0  0  0  0
  195.0460  176.4410  143.5860 C   0  0  0  0  0  3  0  0  0  0  0  0
  195.0380  175.8870  142.4270 N   0  0  0  0  0  0  0  0  0  0  0  0
  195.6950  176.5180  141.3140 C   0  0  0  0  0  2  0  0  0  0  0  0
  195.7410  175.5770  140.1210 C   0  0  1  0  0  3  0  0  0  0  0  0
  195.1750  174.3400  140.4850 O   0  0  0  0  0  0  0  0  0  0  0  0
  194.3700  175.2040  139.7210 C   0  0  2  0  0  3  0  0  0  0  0  0
  194.3700  174.7470  138.2750 C   0  0  0  0  0  2  0  0  0  0  0  0
  192.9990  174.6020  137.8020 N   0  0  0  0  0  2  0  0  0  0  0  0
  188.7120  173.9750  139.4430 C   0  0  0  0  0  2  0  0  0  0  0  0
  190.9060  173.4670  138.3490 C   0  0  2  0  0  0  0  0  0  0  0  0
  192.3000  173.7680  138.7730 C   0  0  1  0  0  3  0  0  0  0  0  0
  191.9400  172.5350  138.1700 O   0  0  0  0  0  0  0  0  0  0  0  0
  190.4380  174.0080  137.0720 N   0  0  0  0  0  2  0  0  0  0  0  0
  188.2130  174.3880  138.0520 C   0  0  0  0  0  2  0  0  0  0  0  0
  189.0110  173.7510  136.9150 C   0  0  0  0  0  2  0  0  0  0  0  0
  189.8990  173.0190  139.4050 C   0  0  0  0  0  2  0  0  0  0  0  0
  1 18  1  6  0  0  0
  2 14  1  0  0  0  0
  4  7  2  0  0  0  0
  5  9  1  0  0  0  0
  6  5  2  0  0  0  0
  6 11  1  0  0  0  0
  7  5  1  0  0  0  0
  8 12  2  0  0  0  0
  9 10  1  1  0  0  0
  9  3  1  0  0  0  0
 11  8  2  0  0  0  0
 11  3  1  0  0  0  0
 12  1  1  0  0  0  0
 13  4  1  0  0  0  0
 13  2  2  0  0  0  0
 14  6  1  0  0  0  0
 16 17  2  0  0  0  0
 17 15  1  0  0  0  0
 17  4  1  0  0  0  0
 19 20  2  0  0  0  0
 20 18  1  0  0  0  0
 21 22  1  0  0  0  0
 22 20  1  0  0  0  0
 23 22  1  0  0  0  0
 24  1  1  0  0  0  0
 25 27  1  0  0  0  0
 26 30  1  0  0  0  0
 26 29  1  0  0  0  0
 29 24  1  1  0  0  0
 29 27  1  0  0  0  0
 30 28  1  6  0  0  0
 30 25  1  0  0  0  0
 31 30  1  0  0  0  0
 32 31  2  0  0  0  0
 33 32  1  0  0  0  0
 34 35  1  0  0  0  0
 34 33  1  1  0  0  0
 36 37  1  6  0  0  0
 36 34  1  0  0  0  0
 36 35  1  0  0  0  0
 38 37  1  0  0  0  0
 40 41  1  0  0  0  0
 40 46  1  1  0  0  0
 41 38  1  6  0  0  0
 42 40  1  0  0  0  0
 42 41  1  0  0  0  0
 43 40  1  0  0  0  0
 44 39  1  0  0  0  0
 45 43  1  0  0  0  0
 45 44  1  0  0  0  0
 46 39  1  0  0  0  0
M  END
>  <MODEL>
2

>  <REMARK>
 VINA RESULT:      -6.7      2.190      4.010
  Name = 
  13 active torsions:
  status: ('A' for Active; 'I' for Inactive)
    1  A    between atoms: C_2  and  C_17
    2  A    between atoms: C_2  and  C_35
    3  A    between atoms: C_2  and  C_44
    4  A    between atoms: C_6  and  C_42
    5  A    between atoms: N_9  and  C_10
    6  A    between atoms: N_9  and  C_46
    7  A    between atoms: C_11  and  C_39
    8  A    between atoms: C_17  and  C_23
    9  A    between atoms: C_20  and  C_22
   10  A    between atoms: C_20  and  N_36
   11  A    between atoms: C_23  and  C_30
   12  A    between atoms: C_37  and  C_44
   13  A    between atoms: C_41  and  C_46
                            x       y       z     vdW  Elec       q    Type
                         _______ _______ _______ _____ _____    ______ ____

>  <TORSDO>
F 13

$$$$
=
 OpenBabel11042414343D

 46 51  0  0  1  0  0  0  0  0999 V2000
  188.4210  176.5760  144.8210 C   0  0  1  0  0  3  0  0  0  0  0  0
  193.2480  175.7730  141.7540 C   0  0  0  0  0  3  0  0  0  0  0  0
  192.6900  176.8320  146.6530 S   0  0  0  0  0  0  0  0  0  0  0  0
  195.5750  175.3480  142.5810 C   0  0  0  0  0  0  0  0  0  0  0  0
  194.2030  175.8010  144.6580 C   0  0  0  0  0  0  0  0  0  0  0  0
  192.9600  175.7290  144.2030 C   0  0  0  0  0  0  0  0  0  0  0  0
  195.4040  175.3690  143.9140 C   0  0  0  0  0  3  0  0  0  0  0  0
  190.7150  175.8520  145.1090 C   0  0  0  0  0  0  0  0  0  0  0  0
  194.3370  176.2750  146.0740 C   0  0  2  0  0  3  0  0  0  0  0  0
  194.7920  175.2490  146.8760 F   0  0  0  0  0  0  0  0  0  0  0  0
  191.9710  176.2050  145.1540 C   0  0  0  0  0  0  0  0  0  0  0  0
  189.4520  175.5230  145.0790 C   0  0  0  0  0  3  0  0  0  0  0  0
  194.5700  175.8480  141.6120 C   0  0  0  0  0  3  0  0  0  0  0  0
  192.5900  175.0870  142.9010 C   0  0  0  0  0  2  0  0  0  0  0  0
  197.8300  175.7450  141.9670 O   0  0  0  0  0  1  0  0  0  0  0  0
  197.0870  173.6040  141.6580 O   0  0  0  0  0  0  0  0  0  0  0  0
  196.8860  174.9210  142.0640 C   0  0  0  0  0  0  0  0  0  0  0  0
  188.2400  177.5240  146.0150 C   0  0  0  0  0  2  0  0  0  0  0  0
  186.6330  176.4130  147.4190 N   0  0  0  0  0  2  0  0  0  0  0  0
  186.8870  177.4280  146.6750 C   0  0  0  0  0  0  0  0  0  0  0  0
  186.3810  179.5540  147.8960 C   0  0  0  0  0  1  0  0  0  0  0  0
  186.0080  178.6470  146.7420 C   0  0  0  0  0  3  0  0  0  0  0  0
  184.5430  178.2690  146.8700 C   0  0  0  0  0  1  0  0  0  0  0  0
  188.7260  177.3220  143.5250 C   0  0  0  0  0  2  0  0  0  0  0  0
  185.5220  176.7030  143.0890 C   0  0  0  0  0  2  0  0  0  0  0  0
  187.1110  177.9350  141.7000 C   0  0  0  0  0  2  0  0  0  0  0  0
  186.7850  175.8730  142.9230 C   0  0  0  0  0  2  0  0  0  0  0  0
  185.7510  179.1590  143.3650 C   0  0  0  0  0  1  0  0  0  0  0  0
  187.8600  176.7970  142.3780 C   0  0  2  0  0  3  0  0  0  0  0  0
  185.7530  178.0240  142.3630 C   0  0  2  0  0  0  0  0  0  0  0  0
  184.6870  178.2810  141.3470 C   0  0  0  0  0  3  0  0  0  0  0  0
  183.4450  178.0840  141.6160 N   0  0  0  0  0  0  0  0  0  0  0  0
  182.4370  178.3380  140.6230 C   0  0  0  0  0  2  0  0  0  0  0  0
  181.0500  178.1540  141.2170 C   0  0  1  0  0  3  0  0  0  0  0  0
  180.3180  179.3470  141.0630 O   0  0  0  0  0  0  0  0  0  0  0  0
  180.0270  178.3060  140.1640 C   0  0  2  0  0  3  0  0  0  0  0  0
  178.7500  177.6100  140.5940 C   0  0  0  0  0  2  0  0  0  0  0  0
  178.3280  176.6700  139.5630 N   0  0  0  0  0  2  0  0  0  0  0  0
  181.4180  174.6760  136.7440 C   0  0  0  0  0  2  0  0  0  0  0  0
  179.3080  175.7880  137.5060 C   0  0  2  0  0  0  0  0  0  0  0  0
  179.0910  176.9860  138.3600 C   0  0  1  0  0  3  0  0  0  0  0  0
  178.3010  176.7210  137.2110 O   0  0  0  0  0  0  0  0  0  0  0  0
  178.7500  174.5100  137.9480 N   0  0  0  0  0  2  0  0  0  0  0  0
  180.7340  173.3440  137.0800 C   0  0  0  0  0  2  0  0  0  0  0  0
  179.2090  173.4360  137.0760 C   0  0  0  0  0  2  0  0  0  0  0  0
  180.4390  175.8140  136.4800 C   0  0  0  0  0  2  0  0  0  0  0  0
  1 24  1  6  0  0  0
  1 12  1  0  0  0  0
  1 18  1  0  0  0  0
  2 14  1  0  0  0  0
  4  7  2  0  0  0  0
  5  9  1  0  0  0  0
  6  5  2  0  0  0  0
  6 11  1  0  0  0  0
  7  5  1  0  0  0  0
  8 11  2  0  0  0  0
  9  3  1  0  0  0  0
  9 10  1  1  0  0  0
 11  3  1  0  0  0  0
 12  8  2  0  0  0  0
 13  2  2  0  0  0  0
 13  4  1  0  0  0  0
 14  6  1  0  0  0  0
 15 17  1  0  0  0  0
 16 17  2  0  0  0  0
 17  4  1  0  0  0  0
 18 20  1  0  0  0  0
 20 22  1  0  0  0  0
 20 19  2  0  0  0  0
 22 23  1  0  0  0  0
 22 21  1  0  0  0  0
 26 30  1  0  0  0  0
 26 29  1  0  0  0  0
 27 25  1  0  0  0  0
 29 27  1  0  0  0  0
 29 24  1  1  0  0  0
 30 25  1  0  0  0  0
 30 28  1  1  0  0  0
 31 32  2  0  0  0  0
 31 30  1  0  0  0  0
 33 32  1  0  0  0  0
 34 33  1  6  0  0  0
 35 34  1  0  0  0  0
 36 37  1  1  0  0  0
 36 35  1  0  0  0  0
 36 34  1  0  0  0  0
 38 37  1  0  0  0  0
 39 44  1  0  0  0  0
 40 46  1  6  0  0  0
 40 43  1  0  0  0  0
 40 41  1  0  0  0  0
 41 38  1  1  0  0  0
 42 40  1  0  0  0  0
 42 41  1  0  0  0  0
 45 44  1  0  0  0  0
 45 43  1  0  0  0  0
 46 39  1  0  0  0  0
M  END
>  <MODEL>
3

>  <REMARK>
 VINA RESULT:      -6.7      5.511      9.693
  Name = 
  13 active torsions:
  status: ('A' for Active; 'I' for Inactive)
    1  A    between atoms: C_2  and  C_17
    2  A    between atoms: C_2  and  C_35
    3  A    between atoms: C_2  and  C_44
    4  A    between atoms: C_6  and  C_42
    5  A    between atoms: N_9  and  C_10
    6  A    between atoms: N_9  and  C_46
    7  A    between atoms: C_11  and  C_39
    8  A    between atoms: C_17  and  C_23
    9  A    between atoms: C_20  and  C_22
   10  A    between atoms: C_20  and  N_36
   11  A    between atoms: C_23  and  C_30
   12  A    between atoms: C_37  and  C_44
   13  A    between atoms: C_41  and  C_46
                            x       y       z     vdW  Elec       q    Type
                         _______ _______ _______ _____ _____    ______ ____

>  <TORSDO>
F 13

$$$$
=
 OpenBabel11042414343D

 46 51  0  0  1  0  0  0  0  0999 V2000
  186.6970  176.9880  145.5450 C   0  0  1  0  0  3  0  0  0  0  0  0
  190.0890  172.5240  144.1600 C   0  0  0  0  0  3  0  0  0  0  0  0
  191.3440  177.1690  145.6730 S   0  0  0  0  0  0  0  0  0  0  0  0
  192.5290  172.2070  144.6370 C   0  0  0  0  0  0  0  0  0  0  0  0
  191.9990  174.5540  145.4170 C   0  0  0  0  0  0  0  0  0  0  0  0
  190.6730  174.5660  145.4150 C   0  0  0  0  0  0  0  0  0  0  0  0
  192.8360  173.3440  145.2830 C   0  0  0  0  0  3  0  0  0  0  0  0
  188.8990  176.1000  146.0260 C   0  0  0  0  0  0  0  0  0  0  0  0
  192.6480  175.8810  145.6710 C   0  0  2  0  0  3  0  0  0  0  0  0
  193.2920  175.8680  146.8910 F   0  0  0  0  0  0  0  0  0  0  0  0
  190.1100  175.8930  145.5840 C   0  0  0  0  0  0  0  0  0  0  0  0
  187.6880  176.3320  146.4550 C   0  0  0  0  0  3  0  0  0  0  0  0
  191.2800  172.0090  143.8610 C   0  0  0  0  0  3  0  0  0  0  0  0
  189.8340  173.3250  145.3910 C   0  0  0  0  0  2  0  0  0  0  0  0
  194.7660  171.4280  144.7240 O   0  0  0  0  0  1  0  0  0  0  0  0
  193.1760  169.8190  144.3900 O   0  0  0  0  0  0  0  0  0  0  0  0
  193.5480  171.1450  144.5950 C   0  0  0  0  0  0  0  0  0  0  0  0
  186.1370  178.2920  146.1310 C   0  0  0  0  0  2  0  0  0  0  0  0
  183.7910  178.2740  146.6650 N   0  0  0  0  0  2  0  0  0  0  0  0
  184.6900  178.5470  145.7900 C   0  0  0  0  0  0  0  0  0  0  0  0
  183.7690  178.6170  143.4630 C   0  0  0  0  0  1  0  0  0  0  0  0
  184.3500  179.4170  144.6110 C   0  0  0  0  0  3  0  0  0  0  0  0
  185.5650  180.1760  144.1120 C   0  0  0  0  0  1  0  0  0  0  0  0
  187.2900  177.1810  144.1520 C   0  0  0  0  0  2  0  0  0  0  0  0
  187.6720  176.5230  140.9490 C   0  0  0  0  0  2  0  0  0  0  0  0
  187.5960  175.0330  142.8840 C   0  0  0  0  0  2  0  0  0  0  0  0
  186.4750  176.8890  141.8110 C   0  0  0  0  0  2  0  0  0  0  0  0
  189.7820  175.8630  142.0760 C   0  0  0  0  0  1  0  0  0  0  0  0
  186.6640  176.2040  143.1540 C   0  0  2  0  0  3  0  0  0  0  0  0
  188.4060  175.3890  141.6570 C   0  0  2  0  0  0  0  0  0  0  0  0
  188.5620  174.2000  140.7640 C   0  0  0  0  0  3  0  0  0  0  0  0
  189.6760  173.5640  140.6860 N   0  0  0  0  0  0  0  0  0  0  0  0
  189.8030  172.4230  139.8200 C   0  0  0  0  0  2  0  0  0  0  0  0
  191.1310  172.4620  139.0820 C   0  0  1  0  0  3  0  0  0  0  0  0
  192.0290  173.2850  139.7870 O   0  0  0  0  0  0  0  0  0  0  0  0
  192.1960  171.8970  139.9320 C   0  0  2  0  0  3  0  0  0  0  0  0
  193.3480  171.4330  139.0610 C   0  0  0  0  0  2  0  0  0  0  0  0
  194.6020  171.5560  139.7940 N   0  0  0  0  0  2  0  0  0  0  0  0
  194.6720  176.0430  140.9470 C   0  0  0  0  0  2  0  0  0  0  0  0
  195.4920  173.7210  140.4950 C   0  0  2  0  0  0  0  0  0  0  0  0
  195.2300  172.7980  139.3570 C   0  0  1  0  0  3  0  0  0  0  0  0
  196.5110  172.9210  139.9550 O   0  0  0  0  0  0  0  0  0  0  0  0
  195.1170  173.2860  141.8410 N   0  0  0  0  0  2  0  0  0  0  0  0
  194.4370  175.5850  142.3930 C   0  0  0  0  0  2  0  0  0  0  0  0
  195.2930  174.3820  142.7860 C   0  0  0  0  0  2  0  0  0  0  0  0
  195.7040  175.2050  140.2020 C   0  0  0  0  0  2  0  0  0  0  0  0
  1 24  1  6  0  0  0
  1 18  1  0  0  0  0
  1 12  1  0  0  0  0
  2 14  1  0  0  0  0
  4  7  2  0  0  0  0
  5  9  1  0  0  0  0
  6  5  2  0  0  0  0
  6 11  1  0  0  0  0
  7  5  1  0  0  0  0
  8 12  2  0  0  0  0
  9  3  1  0  0  0  0
  9 10  1  1  0  0  0
 11  3  1  0  0  0  0
 11  8  2  0  0  0  0
 13  2  2  0  0  0  0
 13  4  1  0  0  0  0
 14  6  1  0  0  0  0
 16 17  2  0  0  0  0
 17  4  1  0  0  0  0
 17 15  1  0  0  0  0
 20 18  1  0  0  0  0
 20 19  2  0  0  0  0
 21 22  1  0  0  0  0
 22 20  1  0  0  0  0
 23 22  1  0  0  0  0
 25 30  1  0  0  0  0
 25 27  1  0  0  0  0
 26 29  1  0  0  0  0
 27 29  1  0  0  0  0
 29 24  1  1  0  0  0
 30 28  1  1  0  0  0
 30 26  1  0  0  0  0
 31 30  1  0  0  0  0
 32 31  2  0  0  0  0
 33 32  1  0  0  0  0
 34 35  1  0  0  0  0
 34 33  1  1  0  0  0
 34 36  1  0  0  0  0
 35 36  1  0  0  0  0
 36 37  1  6  0  0  0
 37 38  1  0  0  0  0
 39 44  1  0  0  0  0
 40 46  1  6  0  0  0
 40 43  1  0  0  0  0
 41 38  1  1  0  0  0
 41 42  1  0  0  0  0
 41 40  1  0  0  0  0
 42 40  1  0  0  0  0
 43 45  1  0  0  0  0
 44 45  1  0  0  0  0
 46 39  1  0  0  0  0
M  END
>  <MODEL>
4

>  <REMARK>
 VINA RESULT:      -6.6      2.898      7.358
  Name = 
  13 active torsions:
  status: ('A' for Active; 'I' for Inactive)
    1  A    between atoms: C_2  and  C_17
    2  A    between atoms: C_2  and  C_35
    3  A    between atoms: C_2  and  C_44
    4  A    between atoms: C_6  and  C_42
    5  A    between atoms: N_9  and  C_10
    6  A    between atoms: N_9  and  C_46
    7  A    between atoms: C_11  and  C_39
    8  A    between atoms: C_17  and  C_23
    9  A    between atoms: C_20  and  C_22
   10  A    between atoms: C_20  and  N_36
   11  A    between atoms: C_23  and  C_30
   12  A    between atoms: C_37  and  C_44
   13  A    between atoms: C_41  and  C_46
                            x       y       z     vdW  Elec       q    Type
                         _______ _______ _______ _____ _____    ______ ____

>  <TORSDO>
F 13

$$$$
=
 OpenBabel11042414343D

 46 51  0  0  1  0  0  0  0  0999 V2000
  191.9590  173.5260  145.2700 C   0  0  1  0  0  3  0  0  0  0  0  0
  189.2760  172.3720  140.2870 C   0  0  0  0  0  3  0  0  0  0  0  0
  193.5800  174.8670  141.1210 S   0  0  0  0  0  0  0  0  0  0  0  0
  190.1790  172.5190  137.9540 C   0  0  0  0  0  0  0  0  0  0  0  0
  192.0110  173.4430  139.4350 C   0  0  0  0  0  0  0  0  0  0  0  0
  191.6120  173.0790  140.6460 C   0  0  0  0  0  0  0  0  0  0  0  0
  191.4360  172.9440  138.1690 C   0  0  0  0  0  3  0  0  0  0  0  0
  192.4470  173.2140  142.9180 C   0  0  0  0  0  0  0  0  0  0  0  0
  193.1980  174.3570  139.4020 C   0  0  2  0  0  3  0  0  0  0  0  0
  194.2840  173.7050  138.8570 F   0  0  0  0  0  0  0  0  0  0  0  0
  192.3670  173.7120  141.7130 C   0  0  0  0  0  0  0  0  0  0  0  0
  192.5340  172.7430  144.1320 C   0  0  0  0  0  3  0  0  0  0  0  0
  189.1080  172.5580  138.9800 C   0  0  0  0  0  3  0  0  0  0  0  0
  190.5880  172.0150  140.8970 C   0  0  0  0  0  2  0  0  0  0  0  0
  189.3190  172.9410  135.7860 O   0  0  0  0  0  0  0  0  0  0  0  0
  190.0040  170.7940  136.1730 O   0  0  0  0  0  1  0  0  0  0  0  0
  189.8170  172.1100  136.5870 C   0  0  0  0  0  0  0  0  0  0  0  0
  193.0420  174.1880  146.1330 C   0  0  0  0  0  2  0  0  0  0  0  0
  192.7420  176.3710  147.0990 N   0  0  0  0  0  2  0  0  0  0  0  0
  193.0550  175.6940  146.0530 C   0  0  0  0  0  0  0  0  0  0  0  0
  194.9390  177.1890  145.3580 C   0  0  0  0  0  1  0  0  0  0  0  0
  193.7500  176.3690  144.9030 C   0  0  0  0  0  3  0  0  0  0  0  0
  192.8020  177.2690  144.1320 C   0  0  0  0  0  1  0  0  0  0  0  0
  190.9220  174.5250  144.7660 C   0  0  0  0  0  2  0  0  0  0  0  0
  189.2230  175.5290  147.4010 C   0  0  0  0  0  2  0  0  0  0  0  0
  188.5660  175.3520  145.0540 C   0  0  0  0  0  2  0  0  0  0  0  0
  189.6330  174.1650  146.8730 C   0  0  0  0  0  2  0  0  0  0  0  0
  189.4600  177.4960  145.9050 C   0  0  0  0  0  1  0  0  0  0  0  0
  189.5430  174.2250  145.3580 C   0  0  2  0  0  3  0  0  0  0  0  0
  188.6000  176.2940  146.2380 C   0  0  2  0  0  0  0  0  0  0  0  0
  187.2230  176.7700  146.5740 C   0  0  0  0  0  3  0  0  0  0  0  0
  187.0350  177.7980  147.3220 N   0  0  0  0  0  0  0  0  0  0  0  0
  185.7010  178.2370  147.6320 C   0  0  0  0  0  2  0  0  0  0  0  0
  184.7530  177.8970  146.4930 C   0  0  1  0  0  3  0  0  0  0  0  0
  183.6670  178.7920  146.5120 O   0  0  0  0  0  0  0  0  0  0  0  0
  184.6670  179.0330  145.5540 C   0  0  2  0  0  3  0  0  0  0  0  0
  184.1990  178.5360  144.2000 C   0  0  0  0  0  2  0  0  0  0  0  0
  185.1890  177.6250  143.6380 N   0  0  0  0  0  2  0  0  0  0  0  0
  189.5990  177.0890  142.3230 C   0  0  0  0  0  2  0  0  0  0  0  0
  187.1780  177.7210  142.2230 C   0  0  2  0  0  0  0  0  0  0  0  0
  186.3160  178.4390  143.2000 C   0  0  1  0  0  3  0  0  0  0  0  0
  186.2280  178.6640  141.8020 O   0  0  0  0  0  0  0  0  0  0  0  0
  186.8010  176.3610  141.8350 N   0  0  0  0  0  2  0  0  0  0  0  0
  189.1760  175.7230  141.7670 C   0  0  0  0  0  2  0  0  0  0  0  0
  187.8480  175.7690  141.0110 C   0  0  0  0  0  2  0  0  0  0  0  0
  188.6100  178.2070  142.0110 C   0  0  0  0  0  2  0  0  0  0  0  0
  1 12  1  6  0  0  0
  1 18  1  0  0  0  0
  2 14  1  0  0  0  0
  3 11  1  0  0  0  0
  4  7  2  0  0  0  0
  4 13  1  0  0  0  0
  5  6  2  0  0  0  0
  6 14  1  0  0  0  0
  6 11  1  0  0  0  0
  7  5  1  0  0  0  0
  8 12  2  0  0  0  0
  9 10  1  1  0  0  0
  9  5  1  0  0  0  0
  9  3  1  0  0  0  0
 11  8  2  0  0  0  0
 13  2  2  0  0  0  0
 15 17  2  0  0  0  0
 16 17  1  0  0  0  0
 17  4  1  0  0  0  0
 20 18  1  0  0  0  0
 20 19  2  0  0  0  0
 22 21  1  0  0  0  0
 22 20  1  0  0  0  0
 23 22  1  0  0  0  0
 24  1  1  0  0  0  0
 26 29  1  0  0  0  0
 26 30  1  0  0  0  0
 27 25  1  0  0  0  0
 29 24  1  6  0  0  0
 29 27  1  0  0  0  0
 30 28  1  6  0  0  0
 30 31  1  0  0  0  0
 30 25  1  0  0  0  0
 31 32  2  0  0  0  0
 32 33  1  0  0  0  0
 34 35  1  0  0  0  0
 34 33  1  1  0  0  0
 36 37  1  6  0  0  0
 36 34  1  0  0  0  0
 36 35  1  0  0  0  0
 38 37  1  0  0  0  0
 40 46  1  6  0  0  0
 40 41  1  0  0  0  0
 41 38  1  6  0  0  0
 42 40  1  0  0  0  0
 42 41  1  0  0  0  0
 43 40  1  0  0  0  0
 44 39  1  0  0  0  0
 45 44  1  0  0  0  0
 45 43  1  0  0  0  0
 46 39  1  0  0  0  0
M  END
>  <MODEL>
5

>  <REMARK>
 VINA RESULT:      -6.4      3.226      7.912
  Name = 
  13 active torsions:
  status: ('A' for Active; 'I' for Inactive)
    1  A    between atoms: C_2  and  C_17
    2  A    between atoms: C_2  and  C_35
    3  A    between atoms: C_2  and  C_44
    4  A    between atoms: C_6  and  C_42
    5  A    between atoms: N_9  and  C_10
    6  A    between atoms: N_9  and  C_46
    7  A    between atoms: C_11  and  C_39
    8  A    between atoms: C_17  and  C_23
    9  A    between atoms: C_20  and  C_22
   10  A    between atoms: C_20  and  N_36
   11  A    between atoms: C_23  and  C_30
   12  A    between atoms: C_37  and  C_44
   13  A    between atoms: C_41  and  C_46
                            x       y       z     vdW  Elec       q    Type
                         _______ _______ _______ _____ _____    ______ ____

>  <TORSDO>
F 13

$$$$
=
 OpenBabel11042414343D

 46 51  0  0  1  0  0  0  0  0999 V2000
  191.0480  176.8710  144.0040 C   0  0  1  0  0  3  0  0  0  0  0  0
  186.0260  177.7870  141.3030 C   0  0  0  0  0  3  0  0  0  0  0  0
  186.9260  176.7760  146.1610 S   0  0  0  0  0  0  0  0  0  0  0  0
  183.7840  178.2970  142.2990 C   0  0  0  0  0  0  0  0  0  0  0  0
  185.2970  177.8280  144.2720 C   0  0  0  0  0  0  0  0  0  0  0  0
  186.5030  177.8550  143.7220 C   0  0  0  0  0  0  0  0  0  0  0  0
  184.0560  178.2890  143.6150 C   0  0  0  0  0  3  0  0  0  0  0  0
  188.8060  177.6720  144.4550 C   0  0  0  0  0  0  0  0  0  0  0  0
  185.2570  177.3780  145.7010 C   0  0  2  0  0  3  0  0  0  0  0  0
  184.8980  178.4280  146.5200 F   0  0  0  0  0  0  0  0  0  0  0  0
  187.5460  177.3600  144.6020 C   0  0  0  0  0  0  0  0  0  0  0  0
  190.0720  177.9600  144.3240 C   0  0  0  0  0  3  0  0  0  0  0  0
  184.6960  177.7520  141.2640 C   0  0  0  0  0  3  0  0  0  0  0  0
  186.7910  178.4670  142.3860 C   0  0  0  0  0  2  0  0  0  0  0  0
  182.0990  178.6700  140.6740 O   0  0  0  0  0  0  0  0  0  0  0  0
  181.5740  179.3190  142.8030 O   0  0  0  0  0  1  0  0  0  0  0  0
  182.4510  178.7590  141.8770 C   0  0  0  0  0  0  0  0  0  0  0  0
  192.4100  177.0870  144.6790 C   0  0  0  0  0  2  0  0  0  0  0  0
  191.5290  176.4480  146.8250 N   0  0  0  0  0  2  0  0  0  0  0  0
  192.5370  176.4290  146.0300 C   0  0  0  0  0  0  0  0  0  0  0  0
  194.9240  175.8730  145.5180 C   0  0  0  0  0  1  0  0  0  0  0  0
  193.6790  175.4840  146.2880 C   0  0  0  0  0  3  0  0  0  0  0  0
  193.3090  174.0560  145.9310 C   0  0  0  0  0  1  0  0  0  0  0  0
  190.4490  175.5030  144.3210 C   0  0  0  0  0  2  0  0  0  0  0  0
  189.1270  172.7890  143.0070 C   0  0  0  0  0  2  0  0  0  0  0  0
  190.2040  174.7110  141.9490 C   0  0  0  0  0  2  0  0  0  0  0  0
  190.4360  173.0800  143.7220 C   0  0  0  0  0  2  0  0  0  0  0  0
  187.7470  174.7060  142.2420 C   0  0  0  0  0  1  0  0  0  0  0  0
  190.8870  174.4640  143.2860 C   0  0  2  0  0  3  0  0  0  0  0  0
  188.9580  173.8520  141.9270 C   0  0  2  0  0  0  0  0  0  0  0  0
  188.7680  173.2330  140.5790 C   0  0  0  0  0  3  0  0  0  0  0  0
  188.8570  173.9320  139.5040 N   0  0  0  0  0  0  0  0  0  0  0  0
  188.6700  173.3150  138.2180 C   0  0  0  0  0  2  0  0  0  0  0  0
  189.7350  172.2560  137.9790 C   0  0  1  0  0  3  0  0  0  0  0  0
  190.0070  172.1770  136.6000 O   0  0  0  0  0  0  0  0  0  0  0  0
  190.9370  172.8760  137.3890 C   0  0  2  0  0  3  0  0  0  0  0  0
  192.1420  171.9930  137.6500 C   0  0  0  0  0  2  0  0  0  0  0  0
  193.3250  172.8200  137.8580 N   0  0  0  0  0  2  0  0  0  0  0  0
  194.2750  174.2880  142.1480 C   0  0  0  0  0  2  0  0  0  0  0  0
  194.0630  174.3030  139.6530 C   0  0  2  0  0  0  0  0  0  0  0  0
  192.9400  173.8930  138.7680 C   0  0  1  0  0  3  0  0  0  0  0  0
  193.7290  175.0440  138.5090 O   0  0  0  0  0  0  0  0  0  0  0  0
  195.3490  173.6230  139.5020 N   0  0  0  0  0  2  0  0  0  0  0  0
  195.6840  173.7170  141.9380 C   0  0  0  0  0  2  0  0  0  0  0  0
  196.2610  174.0400  140.5610 C   0  0  0  0  0  2  0  0  0  0  0  0
  193.7420  175.0550  140.9430 C   0  0  0  0  0  2  0  0  0  0  0  0
  1 24  1  1  0  0  0
  1 12  1  0  0  0  0
  1 18  1  0  0  0  0
  2 14  1  0  0  0  0
  4  7  2  0  0  0  0
  5  9  1  0  0  0  0
  6  5  2  0  0  0  0
  6 11  1  0  0  0  0
  7  5  1  0  0  0  0
  8 11  2  0  0  0  0
  9  3  1  0  0  0  0
  9 10  1  1  0  0  0
 11  3  1  0  0  0  0
 12  8  2  0  0  0  0
 13  2  2  0  0  0  0
 13  4  1  0  0  0  0
 14  6  1  0  0  0  0
 15 17  2  0  0  0  0
 17  4  1  0  0  0  0
 17 16  1  0  0  0  0
 18 20  1  0  0  0  0
 20 22  1  0  0  0  0
 20 19  2  0  0  0  0
 21 22  1  0  0  0  0
 23 22  1  0  0  0  0
 25 27  1  0  0  0  0
 26 29  1  0  0  0  0
 29 27  1  0  0  0  0
 29 24  1  1  0  0  0
 30 26  1  0  0  0  0
 30 28  1  1  0  0  0
 30 25  1  0  0  0  0
 31 30  1  0  0  0  0
 32 31  2  0  0  0  0
 33 32  1  0  0  0  0
 34 33  1  6  0  0  0
 35 36  1  0  0  0  0
 35 34  1  0  0  0  0
 36 37  1  1  0  0  0
 36 34  1  0  0  0  0
 37 38  1  0  0  0  0
 40 46  1  1  0  0  0
 41 38  1  6  0  0  0
 41 40  1  0  0  0  0
 42 41  1  0  0  0  0
 42 40  1  0  0  0  0
 43 40  1  0  0  0  0
 43 45  1  0  0  0  0
 44 39  1  0  0  0  0
 45 44  1  0  0  0  0
 46 39  1  0  0  0  0
M  END
>  <MODEL>
6

>  <REMARK>
 VINA RESULT:      -6.4      2.216      4.732
  Name = 
  13 active torsions:
  status: ('A' for Active; 'I' for Inactive)
    1  A    between atoms: C_2  and  C_17
    2  A    between atoms: C_2  and  C_35
    3  A    between atoms: C_2  and  C_44
    4  A    between atoms: C_6  and  C_42
    5  A    between atoms: N_9  and  C_10
    6  A    between atoms: N_9  and  C_46
    7  A    between atoms: C_11  and  C_39
    8  A    between atoms: C_17  and  C_23
    9  A    between atoms: C_20  and  C_22
   10  A    between atoms: C_20  and  N_36
   11  A    between atoms: C_23  and  C_30
   12  A    between atoms: C_37  and  C_44
   13  A    between atoms: C_41  and  C_46
                            x       y       z     vdW  Elec       q    Type
                         _______ _______ _______ _____ _____    ______ ____

>  <TORSDO>
F 13

$$$$
=
 OpenBabel11042414343D

 46 51  0  0  1  0  0  0  0  0999 V2000
  188.0940  177.2220  143.7560 C   0  0  1  0  0  3  0  0  0  0  0  0
  192.9690  174.5460  142.1990 C   0  0  0  0  0  3  0  0  0  0  0  0
  188.1920  172.9550  141.9050 S   0  0  0  0  0  0  0  0  0  0  0  0
  193.2490  172.5270  140.7410 C   0  0  0  0  0  0  0  0  0  0  0  0
  190.7500  172.7990  141.0300 C   0  0  0  0  0  0  0  0  0  0  0  0
  190.6510  174.0150  141.5480 C   0  0  0  0  0  0  0  0  0  0  0  0
  191.9760  172.2310  140.4310 C   0  0  0  0  0  3  0  0  0  0  0  0
  188.8840  175.5400  142.2020 C   0  0  0  0  0  0  0  0  0  0  0  0
  189.4720  172.0170  140.9870 C   0  0  2  0  0  3  0  0  0  0  0  0
  189.0700  171.8370  139.6800 F   0  0  0  0  0  0  0  0  0  0  0  0
  189.3220  174.3190  142.0480 C   0  0  0  0  0  0  0  0  0  0  0  0
  188.4260  176.7490  142.3750 C   0  0  0  0  0  3  0  0  0  0  0  0
  193.6390  173.4560  141.8310 C   0  0  0  0  0  3  0  0  0  0  0  0
  191.7500  175.0310  141.4940 C   0  0  0  0  0  2  0  0  0  0  0  0
  194.4070  171.8450  138.7880 O   0  0  0  0  0  0  0  0  0  0  0  0
  195.2210  171.0130  140.7570 O   0  0  0  0  0  1  0  0  0  0  0  0
  194.3150  171.7920  140.0410 C   0  0  0  0  0  0  0  0  0  0  0  0
  186.5830  177.2250  144.0270 C   0  0  0  0  0  2  0  0  0  0  0  0
  185.8080  179.5000  143.9150 N   0  0  0  0  0  2  0  0  0  0  0  0
  186.0760  178.4930  144.6670 C   0  0  0  0  0  0  0  0  0  0  0  0
  185.9100  177.1540  146.7750 C   0  0  0  0  0  1  0  0  0  0  0  0
  185.5690  178.4570  146.0820 C   0  0  0  0  0  3  0  0  0  0  0  0
  184.0670  178.6650  146.1400 C   0  0  0  0  0  1  0  0  0  0  0  0
  188.8740  176.4260  144.7990 C   0  0  0  0  0  2  0  0  0  0  0  0
  191.1970  175.9880  147.0900 C   0  0  0  0  0  2  0  0  0  0  0  0
  191.3790  176.6110  144.7340 C   0  0  0  0  0  2  0  0  0  0  0  0
  190.2100  177.1060  146.7950 C   0  0  0  0  0  2  0  0  0  0  0  0
  191.5360  174.2260  145.3750 C   0  0  0  0  0  1  0  0  0  0  0  0
  190.0940  177.2120  145.2840 C   0  0  2  0  0  3  0  0  0  0  0  0
  191.8920  175.6420  145.7780 C   0  0  2  0  0  0  0  0  0  0  0  0
  193.3780  175.7430  145.9060 C   0  0  0  0  0  3  0  0  0  0  0  0
  194.1270  175.9300  144.8780 N   0  0  0  0  0  0  0  0  0  0  0  0
  195.5540  176.0240  145.0250 C   0  0  0  0  0  2  0  0  0  0  0  0
  196.2530  175.2140  143.9450 C   0  0  1  0  0  3  0  0  0  0  0  0
  197.5780  175.6700  143.8080 O   0  0  0  0  0  0  0  0  0  0  0  0
  197.3900  174.4760  144.5260 C   0  0  2  0  0  3  0  0  0  0  0  0
  197.7340  173.2940  143.6390 C   0  0  0  0  0  2  0  0  0  0  0  0
  197.8880  172.0940  144.4530 N   0  0  0  0  0  2  0  0  0  0  0  0
  193.3760  171.0590  144.6560 C   0  0  0  0  0  2  0  0  0  0  0  0
  195.8260  170.9970  145.1690 C   0  0  2  0  0  0  0  0  0  0  0  0
  196.7980  172.0940  145.4220 C   0  0  1  0  0  3  0  0  0  0  0  0
  196.8160  170.8810  146.1580 O   0  0  0  0  0  0  0  0  0  0  0  0
  196.0770  170.0940  144.0450 N   0  0  0  0  0  2  0  0  0  0  0  0
  193.6610  169.9960  143.5880 C   0  0  0  0  0  2  0  0  0  0  0  0
  194.9390  169.2020  143.8580 C   0  0  0  0  0  2  0  0  0  0  0  0
  194.4240  171.1070  145.7630 C   0  0  0  0  0  2  0  0  0  0  0  0
  1 12  1  6  0  0  0
  1 18  1  0  0  0  0
  1 24  1  0  0  0  0
  3 11  1  0  0  0  0
  4 13  1  0  0  0  0
  5  6  2  0  0  0  0
  6 11  1  0  0  0  0
  7  4  2  0  0  0  0
  7  5  1  0  0  0  0
  8 12  2  0  0  0  0
  9 10  1  6  0  0  0
  9  5  1  0  0  0  0
  9  3  1  0  0  0  0
 11  8  2  0  0  0  0
 13  2  2  0  0  0  0
 14  6  1  0  0  0  0
 14  2  1  0  0  0  0
 15 17  2  0  0  0  0
 17  4  1  0  0  0  0
 17 16  1  0  0  0  0
 18 20  1  0  0  0  0
 19 20  2  0  0  0  0
 20 22  1  0  0  0  0
 22 23  1  0  0  0  0
 22 21  1  0  0  0  0
 26 29  1  0  0  0  0
 26 30  1  0  0  0  0
 27 25  1  0  0  0  0
 29 24  1  6  0  0  0
 29 27  1  0  0  0  0
 30 28  1  6  0  0  0
 30 31  1  0  0  0  0
 30 25  1  0  0  0  0
 32 33  1  0  0  0  0
 32 31  2  0  0  0  0
 34 36  1  0  0  0  0
 34 33  1  1  0  0  0
 35 34  1  0  0  0  0
 35 36  1  0  0  0  0
 36 37  1  6  0  0  0
 37 38  1  0  0  0  0
 39 46  1  0  0  0  0
 40 41  1  0  0  0  0
 40 46  1  1  0  0  0
 40 42  1  0  0  0  0
 41 38  1  6  0  0  0
 41 42  1  0  0  0  0
 43 40  1  0  0  0  0
 44 45  1  0  0  0  0
 44 39  1  0  0  0  0
 45 43  1  0  0  0  0
M  END
>  <MODEL>
7

>  <REMARK>
 VINA RESULT:      -6.3      4.011      8.039
  Name = 
  13 active torsions:
  status: ('A' for Active; 'I' for Inactive)
    1  A    between atoms: C_2  and  C_17
    2  A    between atoms: C_2  and  C_35
    3  A    between atoms: C_2  and  C_44
    4  A    between atoms: C_6  and  C_42
    5  A    between atoms: N_9  and  C_10
    6  A    between atoms: N_9  and  C_46
    7  A    between atoms: C_11  and  C_39
    8  A    between atoms: C_17  and  C_23
    9  A    between atoms: C_20  and  C_22
   10  A    between atoms: C_20  and  N_36
   11  A    between atoms: C_23  and  C_30
   12  A    between atoms: C_37  and  C_44
   13  A    between atoms: C_41  and  C_46
                            x       y       z     vdW  Elec       q    Type
                         _______ _______ _______ _____ _____    ______ ____

>  <TORSDO>
F 13

$$$$
=
 OpenBabel11042414343D

 46 51  0  0  1  0  0  0  0  0999 V2000
  187.6130  175.6590  142.6630 C   0  0  1  0  0  3  0  0  0  0  0  0
  190.4600  173.5430  138.1050 C   0  0  0  0  0  3  0  0  0  0  0  0
  190.3200  171.8800  142.8650 S   0  0  0  0  0  0  0  0  0  0  0  0
  191.5280  171.2920  137.8350 C   0  0  0  0  0  0  0  0  0  0  0  0
  190.7450  171.3720  140.2390 C   0  0  0  0  0  0  0  0  0  0  0  0
  189.9490  172.4330  140.2480 C   0  0  0  0  0  0  0  0  0  0  0  0
  191.2740  170.7200  139.0240 C   0  0  0  0  0  3  0  0  0  0  0  0
  188.4970  173.5650  141.8240 C   0  0  0  0  0  0  0  0  0  0  0  0
  191.0210  170.7720  141.5850 C   0  0  2  0  0  3  0  0  0  0  0  0
  190.4370  169.5250  141.6770 F   0  0  0  0  0  0  0  0  0  0  0  0
  189.5640  172.8510  141.5830 C   0  0  0  0  0  0  0  0  0  0  0  0
  187.4430  174.2870  142.0890 C   0  0  0  0  0  3  0  0  0  0  0  0
  191.3800  172.7440  137.5690 C   0  0  0  0  0  3  0  0  0  0  0  0
  189.3810  173.0520  139.0080 C   0  0  0  0  0  2  0  0  0  0  0  0
  193.1870  170.7700  136.2240 O   0  0  0  0  0  0  0  0  0  0  0  0
  191.4460  169.2930  136.3600 O   0  0  0  0  0  1  0  0  0  0  0  0
  192.1040  170.4470  136.7760 C   0  0  0  0  0  0  0  0  0  0  0  0
  186.2700  176.3460  142.9500 C   0  0  0  0  0  2  0  0  0  0  0  0
  186.8330  178.6090  142.3560 N   0  0  0  0  0  2  0  0  0  0  0  0
  186.3870  177.8160  143.2630 C   0  0  0  0  0  0  0  0  0  0  0  0
  185.2950  179.8300  144.2740 C   0  0  0  0  0  1  0  0  0  0  0  0
  185.6760  178.3760  144.4650 C   0  0  0  0  0  3  0  0  0  0  0  0
  186.5220  178.2520  145.7190 C   0  0  0  0  0  1  0  0  0  0  0  0
  188.5230  175.6200  143.8890 C   0  0  0  0  0  2  0  0  0  0  0  0
  190.6050  177.5220  145.5880 C   0  0  0  0  0  2  0  0  0  0  0  0
  191.0130  175.5400  144.2170 C   0  0  0  0  0  2  0  0  0  0  0  0
  189.8830  177.6800  144.2600 C   0  0  0  0  0  2  0  0  0  0  0  0
  190.6480  175.2790  146.6500 C   0  0  0  0  0  1  0  0  0  0  0  0
  189.8570  176.3120  143.5990 C   0  0  2  0  0  3  0  0  0  0  0  0
  191.2700  176.1490  145.5780 C   0  0  2  0  0  0  0  0  0  0  0  0
  192.7390  176.2530  145.8400 C   0  0  0  0  0  3  0  0  0  0  0  0
  193.4950  177.0020  145.1200 N   0  0  0  0  0  0  0  0  0  0  0  0
  194.9050  177.0860  145.3900 C   0  0  0  0  0  2  0  0  0  0  0  0
  195.6520  175.9850  144.6560 C   0  0  1  0  0  3  0  0  0  0  0  0
  195.1740  175.9010  143.3350 O   0  0  0  0  0  0  0  0  0  0  0  0
  196.4040  176.5570  143.5220 C   0  0  2  0  0  3  0  0  0  0  0  0
  197.5370  175.6230  143.1420 C   0  0  0  0  0  2  0  0  0  0  0  0
  197.7200  175.6300  141.6960 N   0  0  0  0  0  2  0  0  0  0  0  0
  194.0370  173.0550  140.5670 C   0  0  0  0  0  2  0  0  0  0  0  0
  196.2200  174.2600  140.3380 C   0  0  2  0  0  0  0  0  0  0  0  0
  197.4180  174.2850  141.2210 C   0  0  1  0  0  3  0  0  0  0  0  0
  197.5190  174.2440  139.8060 O   0  0  0  0  0  0  0  0  0  0  0  0
  195.5370  175.5240  140.0610 N   0  0  0  0  0  2  0  0  0  0  0  0
  193.3690  174.3630  140.1220 C   0  0  0  0  0  2  0  0  0  0  0  0
  194.3030  175.2730  139.3260 C   0  0  0  0  0  2  0  0  0  0  0  0
  195.4920  172.9340  140.1270 C   0  0  0  0  0  2  0  0  0  0  0  0
  1 12  1  1  0  0  0
  1 18  1  0  0  0  0
  1 24  1  0  0  0  0
  2 14  1  0  0  0  0
  4  7  2  0  0  0  0
  5  6  2  0  0  0  0
  5  9  1  0  0  0  0
  6 11  1  0  0  0  0
  7  5  1  0  0  0  0
  8 12  2  0  0  0  0
  9 10  1  6  0  0  0
  9  3  1  0  0  0  0
 11  8  2  0  0  0  0
 11  3  1  0  0  0  0
 13  4  1  0  0  0  0
 13  2  2  0  0  0  0
 14  6  1  0  0  0  0
 15 17  2  0  0  0  0
 16 17  1  0  0  0  0
 17  4  1  0  0  0  0
 18 20  1  0  0  0  0
 19 20  2  0  0  0  0
 20 22  1  0  0  0  0
 21 22  1  0  0  0  0
 22 23  1  0  0  0  0
 26 30  1  0  0  0  0
 27 25  1  0  0  0  0
 29 24  1  1  0  0  0
 29 26  1  0  0  0  0
 29 27  1  0  0  0  0
 30 25  1  0  0  0  0
 30 31  1  0  0  0  0
 30 28  1  1  0  0  0
 32 33  1  0  0  0  0
 32 31  2  0  0  0  0
 34 33  1  1  0  0  0
 35 36  1  0  0  0  0
 35 34  1  0  0  0  0
 36 37  1  6  0  0  0
 36 34  1  0  0  0  0
 38 37  1  0  0  0  0
 40 46  1  6  0  0  0
 40 41  1  0  0  0  0
 41 38  1  6  0  0  0
 42 40  1  0  0  0  0
 42 41  1  0  0  0  0
 43 40  1  0  0  0  0
 44 39  1  0  0  0  0
 45 43  1  0  0  0  0
 45 44  1  0  0  0  0
 46 39  1  0  0  0  0
M  END
>  <MODEL>
8

>  <REMARK>
 VINA RESULT:      -6.2      3.613      8.102
  Name = 
  13 active torsions:
  status: ('A' for Active; 'I' for Inactive)
    1  A    between atoms: C_2  and  C_17
    2  A    between atoms: C_2  and  C_35
    3  A    between atoms: C_2  and  C_44
    4  A    between atoms: C_6  and  C_42
    5  A    between atoms: N_9  and  C_10
    6  A    between atoms: N_9  and  C_46
    7  A    between atoms: C_11  and  C_39
    8  A    between atoms: C_17  and  C_23
    9  A    between atoms: C_20  and  C_22
   10  A    between atoms: C_20  and  N_36
   11  A    between atoms: C_23  and  C_30
   12  A    between atoms: C_37  and  C_44
   13  A    between atoms: C_41  and  C_46
                            x       y       z     vdW  Elec       q    Type
                         _______ _______ _______ _____ _____    ______ ____

>  <TORSDO>
F 13

$$$$
=
 OpenBabel11042414343D

 46 51  0  0  1  0  0  0  0  0999 V2000
  194.0370  174.9420  145.8110 C   0  0  1  0  0  3  0  0  0  0  0  0
  191.3150  172.8200  141.1810 C   0  0  0  0  0  3  0  0  0  0  0  0
  195.1410  170.8780  143.8320 S   0  0  0  0  0  0  0  0  0  0  0  0
  191.3650  170.4860  140.2700 C   0  0  0  0  0  0  0  0  0  0  0  0
  193.0440  170.4970  142.1620 C   0  0  0  0  0  0  0  0  0  0  0  0
  192.7710  171.6370  142.7820 C   0  0  0  0  0  0  0  0  0  0  0  0
  192.1930  169.8700  141.1300 C   0  0  0  0  0  3  0  0  0  0  0  0
  193.5240  172.8210  144.7580 C   0  0  0  0  0  0  0  0  0  0  0  0
  194.2690  169.7830  142.6490 C   0  0  2  0  0  3  0  0  0  0  0  0
  193.9150  168.6070  143.2760 F   0  0  0  0  0  0  0  0  0  0  0  0
  193.7720  172.0090  143.7660 C   0  0  0  0  0  0  0  0  0  0  0  0
  193.3050  173.6380  145.7520 C   0  0  0  0  0  3  0  0  0  0  0  0
  191.2260  171.9590  140.1690 C   0  0  0  0  0  3  0  0  0  0  0  0
  191.4930  172.3950  142.5980 C   0  0  0  0  0  2  0  0  0  0  0  0
  190.2930  170.1340  138.1850 O   0  0  0  0  0  0  0  0  0  0  0  0
  190.3420  168.3260  139.5840 O   0  0  0  0  0  1  0  0  0  0  0  0
  190.6490  169.6520  139.2900 C   0  0  0  0  0  0  0  0  0  0  0  0
  195.3460  174.9150  145.0090 C   0  0  0  0  0  2  0  0  0  0  0  0
  195.8210  177.1540  144.2650 N   0  0  0  0  0  2  0  0  0  0  0  0
  195.4320  175.9740  143.9380 C   0  0  0  0  0  0  0  0  0  0  0  0
  193.9970  175.2840  142.0060 C   0  0  0  0  0  1  0  0  0  0  0  0
  195.4040  175.5680  142.4910 C   0  0  0  0  0  3  0  0  0  0  0  0
  196.2640  174.3430  142.2410 C   0  0  0  0  0  1  0  0  0  0  0  0
  193.1230  176.0920  145.3980 C   0  0  0  0  0  2  0  0  0  0  0  0
  190.1060  177.4110  145.3580 C   0  0  0  0  0  2  0  0  0  0  0  0
  191.2600  176.0210  143.7130 C   0  0  0  0  0  2  0  0  0  0  0  0
  190.7200  176.2130  146.0640 C   0  0  0  0  0  2  0  0  0  0  0  0
  191.3870  178.4840  143.5220 C   0  0  0  0  0  1  0  0  0  0  0  0
  191.7100  175.5840  145.0990 C   0  0  2  0  0  3  0  0  0  0  0  0
  190.4950  177.3150  143.8870 C   0  0  2  0  0  0  0  0  0  0  0  0
  189.2900  177.3390  143.0020 C   0  0  0  0  0  3  0  0  0  0  0  0
  188.9150  176.2940  142.3550 N   0  0  0  0  0  0  0  0  0  0  0  0
  187.7520  176.3400  141.5100 C   0  0  0  0  0  2  0  0  0  0  0  0
  187.0260  177.6640  141.6790 C   0  0  1  0  0  3  0  0  0  0  0  0
  186.4940  178.0620  140.4380 O   0  0  0  0  0  0  0  0  0  0  0  0
  185.5950  177.4980  141.3590 C   0  0  2  0  0  3  0  0  0  0  0  0
  184.7960  178.6020  142.0250 C   0  0  0  0  0  2  0  0  0  0  0  0
  184.2180  178.1110  143.2700 N   0  0  0  0  0  2  0  0  0  0  0  0
  185.2690  178.2520  147.7800 C   0  0  0  0  0  2  0  0  0  0  0  0
  185.4900  178.5660  145.3060 C   0  0  2  0  0  0  0  0  0  0  0  0
  184.5300  179.0950  144.3000 C   0  0  1  0  0  3  0  0  0  0  0  0
  185.9140  179.4030  144.2630 O   0  0  0  0  0  0  0  0  0  0  0  0
  185.9850  177.1990  145.1390 N   0  0  0  0  0  2  0  0  0  0  0  0
  185.9350  176.8840  147.5780 C   0  0  0  0  0  2  0  0  0  0  0  0
  186.7720  176.8070  146.3020 C   0  0  0  0  0  2  0  0  0  0  0  0
  185.5760  179.2490  146.6690 C   0  0  0  0  0  2  0  0  0  0  0  0
  1 18  1  6  0  0  0
  2 14  1  0  0  0  0
  4  7  2  0  0  0  0
  5  9  1  0  0  0  0
  5  6  2  0  0  0  0
  6 11  1  0  0  0  0
  7  5  1  0  0  0  0
  8 12  2  0  0  0  0
  9 10  1  1  0  0  0
  9  3  1  0  0  0  0
 11  3  1  0  0  0  0
 11  8  2  0  0  0  0
 12  1  1  0  0  0  0
 13  4  1  0  0  0  0
 13  2  2  0  0  0  0
 14  6  1  0  0  0  0
 15 17  2  0  0  0  0
 17 16  1  0  0  0  0
 17  4  1  0  0  0  0
 20 19  2  0  0  0  0
 20 18  1  0  0  0  0
 21 22  1  0  0  0  0
 22 20  1  0  0  0  0
 23 22  1  0  0  0  0
 24  1  1  0  0  0  0
 25 27  1  0  0  0  0
 26 30  1  0  0  0  0
 26 29  1  0  0  0  0
 29 24  1  1  0  0  0
 29 27  1  0  0  0  0
 30 28  1  6  0  0  0
 30 25  1  0  0  0  0
 31 30  1  0  0  0  0
 32 31  2  0  0  0  0
 33 32  1  0  0  0  0
 34 33  1  6  0  0  0
 35 36  1  0  0  0  0
 35 34  1  0  0  0  0
 36 34  1  0  0  0  0
 36 37  1  1  0  0  0
 37 38  1  0  0  0  0
 40 46  1  1  0  0  0
 41 38  1  6  0  0  0
 41 40  1  0  0  0  0
 42 41  1  0  0  0  0
 42 40  1  0  0  0  0
 43 40  1  0  0  0  0
 43 45  1  0  0  0  0
 44 39  1  0  0  0  0
 45 44  1  0  0  0  0
 46 39  1  0  0  0  0
M  END
>  <MODEL>
9

>  <REMARK>
 VINA RESULT:      -6.2      3.153      7.265
  Name = 
  13 active torsions:
  status: ('A' for Active; 'I' for Inactive)
    1  A    between atoms: C_2  and  C_17
    2  A    between atoms: C_2  and  C_35
    3  A    between atoms: C_2  and  C_44
    4  A    between atoms: C_6  and  C_42
    5  A    between atoms: N_9  and  C_10
    6  A    between atoms: N_9  and  C_46
    7  A    between atoms: C_11  and  C_39
    8  A    between atoms: C_17  and  C_23
    9  A    between atoms: C_20  and  C_22
   10  A    between atoms: C_20  and  N_36
   11  A    between atoms: C_23  and  C_30
   12  A    between atoms: C_37  and  C_44
   13  A    between atoms: C_41  and  C_46
                            x       y       z     vdW  Elec       q    Type
                         _______ _______ _______ _____ _____    ______ ____

>  <TORSDO>
F 13

$$$$
