=
 OpenBabel11042419033D

 43 47  0  0  1  0  0  0  0  0999 V2000
  191.7110  172.9540  144.6430 N   0  0  0  0  0  0  0  0  0  0  0  0
  190.7870  173.8410  144.4110 C   0  0  0  0  0  0  0  0  0  0  0  0
  189.4060  174.1590  146.3060 O   0  0  0  0  0  0  0  0  0  0  0  0
  190.7020  176.0120  145.7280 N   0  0  0  0  0  0  0  0  0  0  0  0
  190.2650  174.6540  145.5270 C   0  0  0  0  0  0  0  0  0  0  0  0
  192.0860  176.3860  145.8050 C   0  0  0  0  0  3  0  0  0  0  0  0
  192.7790  176.3390  146.9380 C   0  0  0  0  0  2  0  0  0  0  0  0
  189.7160  177.0560  145.9650 C   0  0  0  0  0  2  0  0  0  0  0  0
  189.5060  177.8790  144.7050 C   0  0  0  0  0  2  0  0  0  0  0  0
  188.3710  177.3270  143.9090 C   0  0  0  0  0  0  0  0  0  0  0  0
  187.0540  177.2390  144.3460 C   0  0  0  0  0  0  0  0  0  0  0  0
  184.3480  178.5060  140.6220 C   0  0  0  0  0  1  0  0  0  0  0  0
  186.5440  177.2060  140.9600 C   0  0  0  0  0  2  0  0  0  0  0  0
  185.1680  177.5110  142.8260 C   0  0  0  0  0  0  0  0  0  0  0  0
  185.2050  177.6300  141.4050 N   0  0  0  0  0  0  0  0  0  0  0  0
  186.3830  176.8860  143.2140 C   0  0  0  0  0  0  0  0  0  0  0  0
  185.1070  177.2620  145.8890 C   0  0  0  0  0  2  0  0  0  0  0  0
  187.2080  176.7590  142.1860 N   0  0  0  0  0  0  0  0  0  0  0  0
  184.9850  178.5600  145.1080 C   0  0  0  0  0  0  0  0  0  0  0  0
  184.5370  178.3510  143.6590 C   0  0  0  0  0  3  0  0  0  0  0  0
  186.3850  177.9870  145.4770 C   0  0  0  0  0  0  0  0  0  0  0  0
  188.4340  177.0770  142.5750 N   0  0  0  0  0  0  0  0  0  0  0  0
  190.2690  174.0780  143.0210 C   0  0  0  0  0  2  0  0  0  0  0  0
  188.2980  173.4340  141.7200 N   0  0  0  0  0  0  0  0  0  0  0  0
  188.9190  173.4460  142.8480 C   0  0  0  0  0  3  0  0  0  0  0  0
  188.8420  174.0270  140.5220 C   0  0  0  0  0  2  0  0  0  0  0  0
  188.2700  173.1070  138.4040 O   0  0  0  0  0  0  0  0  0  0  0  0
  188.9560  172.9930  139.4570 C   0  0  0  0  0  0  0  0  0  0  0  0
  189.8030  171.9010  139.6470 O   0  0  0  0  0  0  0  0  0  0  0  0
  191.9670  170.8910  139.8550 C   0  0  0  0  0  2  0  0  0  0  0  0
  192.1130  172.3870  140.0440 C   0  0  0  0  0  2  0  0  0  0  0  0
  191.0980  171.8430  139.0600 C   0  0  0  0  0  3  0  0  0  0  0  0
  192.3160  172.1030  143.6260 C   0  0  0  0  0  2  0  0  0  0  0  0
  193.5380  171.3940  144.1880 C   0  0  0  0  0  2  0  0  0  0  0  0
  194.7140  171.6340  143.2990 C   0  0  0  0  0  0  0  0  0  0  0  0
  195.6800  172.6390  143.6110 N   0  0  0  0  0  2  0  0  0  0  0  0
  194.8710  170.9230  142.2730 O   0  0  0  0  0  0  0  0  0  0  0  0
  195.3600  174.8560  144.5070 C   0  0  0  0  0  3  0  0  0  0  0  0
  195.5190  173.5480  144.7020 C   0  0  0  0  0  3  0  0  0  0  0  0
  193.9390  175.8250  142.7580 C   0  0  0  0  0  1  0  0  0  0  0  0
  195.3640  175.4810  143.1490 C   0  0  1  0  0  3  0  0  0  0  0  0
  196.1300  176.6480  143.1740 O   0  0  0  0  0  0  0  0  0  0  0  0
  197.3800  176.2310  143.1940 O   0  0  0  0  0  1  0  0  0  0  0  0
  2  1  2  0  0  0  0
  2  5  1  0  0  0  0
  4  6  1  0  0  0  0
  4  8  1  0  0  0  0
  5  4  1  0  0  0  0
  5  3  2  0  0  0  0
  6  7  2  0  0  0  0
  9  8  1  0  0  0  0
 10 11  1  0  0  0  0
 10  9  1  0  0  0  0
 11 21  1  0  0  0  0
 12 15  1  0  0  0  0
 13 15  1  0  0  0  0
 13 18  1  0  0  0  0
 14 16  1  0  0  0  0
 14 20  2  0  0  0  0
 15 14  1  0  0  0  0
 16 11  2  0  0  0  0
 18 22  1  0  0  0  0
 18 16  1  0  0  0  0
 19 21  2  0  0  0  0
 19 17  1  0  0  0  0
 20 19  1  0  0  0  0
 21 17  1  0  0  0  0
 22 10  2  0  0  0  0
 23  2  1  0  0  0  0
 24 25  2  0  0  0  0
 25 23  1  0  0  0  0
 26 24  1  0  0  0  0
 27 28  2  0  0  0  0
 28 29  1  0  0  0  0
 28 26  1  0  0  0  0
 30 31  1  0  0  0  0
 32 29  1  0  0  0  0
 32 30  1  0  0  0  0
 32 31  1  0  0  0  0
 33 34  1  0  0  0  0
 33  1  1  0  0  0  0
 35 36  1  0  0  0  0
 35 34  1  0  0  0  0
 36 39  1  0  0  0  0
 37 35  2  0  0  0  0
 38 39  2  0  0  0  0
 41 40  1  1  0  0  0
 41 42  1  0  0  0  0
 41 38  1  0  0  0  0
 42 43  1  0  0  0  0
M  END
>  <MODEL>
1

>  <REMARK>
 VINA RESULT:      -6.1      0.000      0.000
  Name = 
  17 active torsions:
  status: ('A' for Active; 'I' for Inactive)
    1  A    between atoms: C_2  and  C_6
    2  A    between atoms: N_3  and  C_29
    3  A    between atoms: C_4  and  C_40
    4  A    between atoms: C_5  and  C_6
    5  A    between atoms: C_5  and  N_11
    6  A    between atoms: C_10  and  C_39
    7  A    between atoms: N_11  and  C_12
    8  A    between atoms: N_13  and  C_20
    9  A    between atoms: C_19  and  C_26
   10  A    between atoms: C_20  and  C_38
   11  A    between atoms: C_22  and  N_37
   12  A    between atoms: C_26  and  C_31
   13  A    between atoms: O_27  and  C_36
   14  A    between atoms: O_27  and  C_38
   15  A    between atoms: O_28  and  C_39
   16  A    between atoms: C_29  and  C_40
   17  A    between atoms: C_31  and  C_43
                            x       y       z     vdW  Elec       q    Type
                         _______ _______ _______ _____ _____    ______ ____

>  <TORSDO>
F 17

$$$$
=
 OpenBabel11042419033D

 43 47  0  0  1  0  0  0  0  0999 V2000
  190.2940  174.9110  143.0900 N   0  0  0  0  0  0  0  0  0  0  0  0
  189.9310  176.0590  143.5870 C   0  0  0  0  0  0  0  0  0  0  0  0
  191.5690  177.7070  144.0350 O   0  0  0  0  0  0  0  0  0  0  0  0
  190.9500  176.4270  145.8850 N   0  0  0  0  0  0  0  0  0  0  0  0
  190.8480  176.7800  144.4930 C   0  0  0  0  0  0  0  0  0  0  0  0
  189.8100  176.3240  146.7520 C   0  0  0  0  0  3  0  0  0  0  0  0
  188.9250  177.3060  146.8910 C   0  0  0  0  0  2  0  0  0  0  0  0
  192.2620  176.2570  146.4890 C   0  0  0  0  0  2  0  0  0  0  0  0
  192.9300  175.0000  145.9590 C   0  0  0  0  0  2  0  0  0  0  0  0
  194.3110  175.3070  145.4860 C   0  0  0  0  0  0  0  0  0  0  0  0
  195.3720  174.4070  145.4710 C   0  0  0  0  0  0  0  0  0  0  0  0
  197.6570  175.1370  141.3430 C   0  0  0  0  0  1  0  0  0  0  0  0
  196.4450  176.6060  143.0760 C   0  0  0  0  0  2  0  0  0  0  0  0
  197.0820  174.4550  143.7360 C   0  0  0  0  0  0  0  0  0  0  0  0
  197.2550  175.4300  142.7090 N   0  0  0  0  0  0  0  0  0  0  0  0
  196.3260  175.0760  144.7650 C   0  0  0  0  0  0  0  0  0  0  0  0
  196.6920  172.3580  145.9490 C   0  0  0  0  0  2  0  0  0  0  0  0
  195.8980  176.2720  144.3920 N   0  0  0  0  0  0  0  0  0  0  0  0
  196.2620  172.2000  144.5000 C   0  0  0  0  0  0  0  0  0  0  0  0
  197.0140  173.1300  143.5440 C   0  0  0  0  0  3  0  0  0  0  0  0
  195.3260  172.8970  145.5320 C   0  0  0  0  0  0  0  0  0  0  0  0
  194.6390  176.4200  144.7780 N   0  0  0  0  0  0  0  0  0  0  0  0
  188.6120  176.6800  143.2250 C   0  0  0  0  0  2  0  0  0  0  0  0
  187.8920  177.9570  141.2650 N   0  0  0  0  0  0  0  0  0  0  0  0
  188.7930  177.7130  142.1520 C   0  0  0  0  0  3  0  0  0  0  0  0
  186.6290  177.2600  141.2220 C   0  0  0  0  0  2  0  0  0  0  0  0
  184.4430  178.1750  141.0100 O   0  0  0  0  0  0  0  0  0  0  0  0
  185.5350  178.1770  141.6420 C   0  0  0  0  0  0  0  0  0  0  0  0
  185.7400  179.0440  142.7160 O   0  0  0  0  0  0  0  0  0  0  0  0
  185.8130  179.0950  145.1120 C   0  0  0  0  0  2  0  0  0  0  0  0
  185.2720  177.7500  144.6750 C   0  0  0  0  0  2  0  0  0  0  0  0
  184.9310  178.9960  143.8850 C   0  0  0  0  0  3  0  0  0  0  0  0
  189.4870  174.1130  142.1760 C   0  0  0  0  0  2  0  0  0  0  0  0
  188.9150  172.9020  142.8950 C   0  0  0  0  0  2  0  0  0  0  0  0
  189.8980  172.4030  143.9030 C   0  0  0  0  0  0  0  0  0  0  0  0
  190.9630  171.5290  143.5230 N   0  0  0  0  0  2  0  0  0  0  0  0
  189.8020  172.7760  145.1010 O   0  0  0  0  0  0  0  0  0  0  0  0
  192.1380  171.2310  141.4390 C   0  0  0  0  0  3  0  0  0  0  0  0
  191.0780  170.9860  142.2060 C   0  0  0  0  0  3  0  0  0  0  0  0
  194.5450  171.6400  141.1910 C   0  0  0  0  0  1  0  0  0  0  0  0
  193.2710  172.1040  141.8730 C   0  0  1  0  0  3  0  0  0  0  0  0
  193.0090  173.4260  141.5060 O   0  0  0  0  0  0  0  0  0  0  0  0
  193.8980  174.1410  142.1660 O   0  0  0  0  0  1  0  0  0  0  0  0
  1  2  2  0  0  0  0
  2  5  1  0  0  0  0
  3  5  2  0  0  0  0
  4  8  1  0  0  0  0
  4  6  1  0  0  0  0
  5  4  1  0  0  0  0
  6  7  2  0  0  0  0
  9  8  1  0  0  0  0
 10  9  1  0  0  0  0
 11 10  1  0  0  0  0
 11 21  1  0  0  0  0
 12 15  1  0  0  0  0
 13 18  1  0  0  0  0
 14 16  1  0  0  0  0
 15 13  1  0  0  0  0
 15 14  1  0  0  0  0
 16 11  2  0  0  0  0
 18 16  1  0  0  0  0
 18 22  1  0  0  0  0
 19 21  2  0  0  0  0
 19 17  1  0  0  0  0
 20 14  2  0  0  0  0
 20 19  1  0  0  0  0
 21 17  1  0  0  0  0
 22 10  2  0  0  0  0
 23  2  1  0  0  0  0
 24 25  2  0  0  0  0
 25 23  1  0  0  0  0
 26 24  1  0  0  0  0
 26 28  1  0  0  0  0
 27 28  2  0  0  0  0
 28 29  1  0  0  0  0
 29 32  1  0  0  0  0
 31 30  1  0  0  0  0
 32 31  1  0  0  0  0
 32 30  1  0  0  0  0
 33 34  1  0  0  0  0
 33  1  1  0  0  0  0
 34 35  1  0  0  0  0
 35 37  2  0  0  0  0
 36 35  1  0  0  0  0
 38 41  1  0  0  0  0
 38 39  2  0  0  0  0
 39 36  1  0  0  0  0
 41 40  1  6  0  0  0
 42 41  1  0  0  0  0
 42 43  1  0  0  0  0
M  END
>  <MODEL>
2

>  <REMARK>
 VINA RESULT:      -6.1      2.528      7.620
  Name = 
  17 active torsions:
  status: ('A' for Active; 'I' for Inactive)
    1  A    between atoms: C_2  and  C_6
    2  A    between atoms: N_3  and  C_29
    3  A    between atoms: C_4  and  C_40
    4  A    between atoms: C_5  and  C_6
    5  A    between atoms: C_5  and  N_11
    6  A    between atoms: C_10  and  C_39
    7  A    between atoms: N_11  and  C_12
    8  A    between atoms: N_13  and  C_20
    9  A    between atoms: C_19  and  C_26
   10  A    between atoms: C_20  and  C_38
   11  A    between atoms: C_22  and  N_37
   12  A    between atoms: C_26  and  C_31
   13  A    between atoms: O_27  and  C_36
   14  A    between atoms: O_27  and  C_38
   15  A    between atoms: O_28  and  C_39
   16  A    between atoms: C_29  and  C_40
   17  A    between atoms: C_31  and  C_43
                            x       y       z     vdW  Elec       q    Type
                         _______ _______ _______ _____ _____    ______ ____

>  <TORSDO>
F 17

$$$$
=
 OpenBabel11042419033D

 43 47  0  0  1  0  0  0  0  0999 V2000
  191.0430  174.1230  144.9920 N   0  0  0  0  0  0  0  0  0  0  0  0
  191.9180  174.8610  145.6130 C   0  0  0  0  0  0  0  0  0  0  0  0
  191.6700  176.3830  147.4080 O   0  0  0  0  0  0  0  0  0  0  0  0
  190.8810  177.1670  145.3560 N   0  0  0  0  0  0  0  0  0  0  0  0
  191.5010  176.1590  146.1780 C   0  0  0  0  0  0  0  0  0  0  0  0
  191.4530  177.6300  144.1230 C   0  0  0  0  0  3  0  0  0  0  0  0
  191.0250  177.2150  142.9350 C   0  0  0  0  0  2  0  0  0  0  0  0
  189.6720  177.8300  145.8200 C   0  0  0  0  0  2  0  0  0  0  0  0
  188.6240  176.8030  146.2150 C   0  0  0  0  0  2  0  0  0  0  0  0
  187.7430  176.4890  145.0530 C   0  0  0  0  0  0  0  0  0  0  0  0
  186.5480  177.1360  144.7550 C   0  0  0  0  0  0  0  0  0  0  0  0
  186.5270  177.7410  140.0190 C   0  0  0  0  0  1  0  0  0  0  0  0
  187.3380  175.9230  141.6520 C   0  0  0  0  0  2  0  0  0  0  0  0
  185.8150  177.5030  142.4610 C   0  0  0  0  0  0  0  0  0  0  0  0
  186.4100  177.0000  141.2640 N   0  0  0  0  0  0  0  0  0  0  0  0
  186.2460  176.6570  143.5160 C   0  0  0  0  0  0  0  0  0  0  0  0
  184.5530  178.5860  145.0450 C   0  0  0  0  0  2  0  0  0  0  0  0
  187.1580  175.7930  143.0990 N   0  0  0  0  0  0  0  0  0  0  0  0
  185.4570  179.3720  144.1100 C   0  0  0  0  0  0  0  0  0  0  0  0
  185.5140  178.7880  142.6950 C   0  0  0  0  0  3  0  0  0  0  0  0
  186.0630  178.4850  145.2370 C   0  0  0  0  0  0  0  0  0  0  0  0
  188.1210  175.7100  144.0060 N   0  0  0  0  0  0  0  0  0  0  0  0
  193.3350  174.3980  145.7960 C   0  0  0  0  0  2  0  0  0  0  0  0
  195.5720  175.2940  145.3670 N   0  0  0  0  0  0  0  0  0  0  0  0
  194.2950  175.4170  145.2550 C   0  0  0  0  0  3  0  0  0  0  0  0
  196.1950  174.1700  146.0230 C   0  0  0  0  0  2  0  0  0  0  0  0
  197.9410  174.4240  144.4280 O   0  0  0  0  0  0  0  0  0  0  0  0
  197.2940  173.6380  145.1730 C   0  0  0  0  0  0  0  0  0  0  0  0
  197.5790  172.2720  145.1940 O   0  0  0  0  0  0  0  0  0  0  0  0
  197.2610  169.9420  145.6630 C   0  0  0  0  0  2  0  0  0  0  0  0
  195.9900  170.4870  145.0430 C   0  0  0  0  0  2  0  0  0  0  0  0
  196.8140  171.3570  145.9700 C   0  0  0  0  0  3  0  0  0  0  0  0
  191.3270  172.8190  144.4050 C   0  0  0  0  0  2  0  0  0  0  0  0
  191.0280  172.8330  142.9160 C   0  0  0  0  0  2  0  0  0  0  0  0
  189.6110  172.4190  142.6810 C   0  0  0  0  0  0  0  0  0  0  0  0
  188.9920  172.6030  141.4070 N   0  0  0  0  0  2  0  0  0  0  0  0
  188.9610  171.8780  143.6130 O   0  0  0  0  0  0  0  0  0  0  0  0
  190.1100  172.6530  139.2710 C   0  0  0  0  0  3  0  0  0  0  0  0
  189.6320  173.2960  140.3340 C   0  0  0  0  0  3  0  0  0  0  0  0
  189.8120  170.8250  137.6620 C   0  0  0  0  0  1  0  0  0  0  0  0
  190.0420  171.1670  139.1220 C   0  0  1  0  0  3  0  0  0  0  0  0
  191.2470  170.6000  139.5440 O   0  0  0  0  0  0  0  0  0  0  0  0
  190.9240  169.8560  140.5830 O   0  0  0  0  0  1  0  0  0  0  0  0
  1  2  2  0  0  0  0
  2 23  1  0  0  0  0
  2  5  1  0  0  0  0
  4  8  1  0  0  0  0
  4  5  1  0  0  0  0
  5  3  2  0  0  0  0
  6  4  1  0  0  0  0
  7  6  2  0  0  0  0
  8  9  1  0  0  0  0
 10  9  1  0  0  0  0
 11 10  1  0  0  0  0
 11 21  1  0  0  0  0
 12 15  1  0  0  0  0
 13 18  1  0  0  0  0
 14 20  2  0  0  0  0
 14 16  1  0  0  0  0
 15 13  1  0  0  0  0
 15 14  1  0  0  0  0
 16 11  2  0  0  0  0
 17 21  1  0  0  0  0
 18 16  1  0  0  0  0
 18 22  1  0  0  0  0
 19 17  1  0  0  0  0
 19 21  2  0  0  0  0
 20 19  1  0  0  0  0
 22 10  2  0  0  0  0
 24 26  1  0  0  0  0
 25 24  2  0  0  0  0
 25 23  1  0  0  0  0
 27 28  2  0  0  0  0
 28 29  1  0  0  0  0
 28 26  1  0  0  0  0
 29 32  1  0  0  0  0
 30 32  1  0  0  0  0
 31 30  1  0  0  0  0
 31 32  1  0  0  0  0
 33  1  1  0  0  0  0
 34 33  1  0  0  0  0
 35 34  1  0  0  0  0
 35 37  2  0  0  0  0
 36 35  1  0  0  0  0
 38 39  2  0  0  0  0
 39 36  1  0  0  0  0
 41 40  1  6  0  0  0
 41 38  1  0  0  0  0
 41 42  1  0  0  0  0
 42 43  1  0  0  0  0
M  END
>  <MODEL>
3

>  <REMARK>
 VINA RESULT:      -6.0      1.936      5.572
  Name = 
  17 active torsions:
  status: ('A' for Active; 'I' for Inactive)
    1  A    between atoms: C_2  and  C_6
    2  A    between atoms: N_3  and  C_29
    3  A    between atoms: C_4  and  C_40
    4  A    between atoms: C_5  and  C_6
    5  A    between atoms: C_5  and  N_11
    6  A    between atoms: C_10  and  C_39
    7  A    between atoms: N_11  and  C_12
    8  A    between atoms: N_13  and  C_20
    9  A    between atoms: C_19  and  C_26
   10  A    between atoms: C_20  and  C_38
   11  A    between atoms: C_22  and  N_37
   12  A    between atoms: C_26  and  C_31
   13  A    between atoms: O_27  and  C_36
   14  A    between atoms: O_27  and  C_38
   15  A    between atoms: O_28  and  C_39
   16  A    between atoms: C_29  and  C_40
   17  A    between atoms: C_31  and  C_43
                            x       y       z     vdW  Elec       q    Type
                         _______ _______ _______ _____ _____    ______ ____

>  <TORSDO>
F 17

$$$$
=
 OpenBabel11042419033D

 43 47  0  0  1  0  0  0  0  0999 V2000
  188.2850  174.2630  141.1500 N   0  0  0  0  0  0  0  0  0  0  0  0
  189.3840  173.9000  141.7470 C   0  0  0  0  0  0  0  0  0  0  0  0
  188.7920  171.9150  142.8920 O   0  0  0  0  0  0  0  0  0  0  0  0
  190.6890  171.7290  141.5460 N   0  0  0  0  0  0  0  0  0  0  0  0
  189.5860  172.4780  142.0910 C   0  0  0  0  0  0  0  0  0  0  0  0
  190.9720  171.6640  140.1390 C   0  0  0  0  0  3  0  0  0  0  0  0
  190.0690  171.2750  139.2450 C   0  0  0  0  0  2  0  0  0  0  0  0
  191.5110  170.9150  142.4280 C   0  0  0  0  0  2  0  0  0  0  0  0
  192.9460  170.8790  141.9310 C   0  0  0  0  0  2  0  0  0  0  0  0
  193.7760  171.8730  142.6710 C   0  0  0  0  0  0  0  0  0  0  0  0
  194.4230  172.9620  142.0970 C   0  0  0  0  0  0  0  0  0  0  0  0
  193.7880  176.6060  145.1170 C   0  0  0  0  0  1  0  0  0  0  0  0
  194.1790  174.0700  145.3280 C   0  0  0  0  0  2  0  0  0  0  0  0
  194.6870  175.0770  143.2800 C   0  0  0  0  0  0  0  0  0  0  0  0
  194.3670  175.3600  144.6410 N   0  0  0  0  0  0  0  0  0  0  0  0
  194.8450  173.6690  143.1830 C   0  0  0  0  0  0  0  0  0  0  0  0
  195.3640  174.4530  140.3470 C   0  0  0  0  0  2  0  0  0  0  0  0
  194.5020  173.0670  144.3120 N   0  0  0  0  0  0  0  0  0  0  0  0
  194.1170  175.1770  140.8290 C   0  0  0  0  0  0  0  0  0  0  0  0
  194.2790  175.7920  142.2220 C   0  0  0  0  0  3  0  0  0  0  0  0
  194.1530  173.6210  140.7640 C   0  0  0  0  0  0  0  0  0  0  0  0
  193.7950  171.9840  144.0250 N   0  0  0  0  0  0  0  0  0  0  0  0
  190.4650  174.8950  142.0580 C   0  0  0  0  0  2  0  0  0  0  0  0
  190.5110  174.9850  144.5040 N   0  0  0  0  0  0  0  0  0  0  0  0
  191.0670  174.6140  143.4040 C   0  0  0  0  0  3  0  0  0  0  0  0
  189.2600  175.7040  144.5440 C   0  0  0  0  0  2  0  0  0  0  0  0
  188.5980  177.8880  145.2150 O   0  0  0  0  0  0  0  0  0  0  0  0
  189.4170  176.9390  145.3590 C   0  0  0  0  0  0  0  0  0  0  0  0
  190.4820  177.0400  146.2550 O   0  0  0  0  0  0  0  0  0  0  0  0
  191.6600  176.9260  148.3400 C   0  0  0  0  0  2  0  0  0  0  0  0
  191.2640  175.5220  147.9330 C   0  0  0  0  0  2  0  0  0  0  0  0
  190.3460  176.6870  147.6260 C   0  0  0  0  0  3  0  0  0  0  0  0
  187.9750  175.6290  140.7460 C   0  0  0  0  0  2  0  0  0  0  0  0
  187.0400  176.2780  141.7530 C   0  0  0  0  0  2  0  0  0  0  0  0
  187.4240  177.7090  141.9510 C   0  0  0  0  0  0  0  0  0  0  0  0
  186.4430  178.6980  142.2650 N   0  0  0  0  0  2  0  0  0  0  0  0
  188.6340  178.0430  141.8630 O   0  0  0  0  0  0  0  0  0  0  0  0
  184.3900  178.1870  143.4230 C   0  0  0  0  0  3  0  0  0  0  0  0
  185.0430  178.4120  142.2850 C   0  0  0  0  0  3  0  0  0  0  0  0
  184.0830  178.6840  145.8060 C   0  0  0  0  0  1  0  0  0  0  0  0
  185.0620  178.1880  144.7590 C   0  0  1  0  0  3  0  0  0  0  0  0
  185.4620  176.8890  145.0810 O   0  0  0  0  0  0  0  0  0  0  0  0
  185.4760  176.8580  146.3980 O   0  0  0  0  0  1  0  0  0  0  0  0
  1  2  2  0  0  0  0
  2 23  1  0  0  0  0
  2  5  1  0  0  0  0
  4  5  1  0  0  0  0
  4  8  1  0  0  0  0
  5  3  2  0  0  0  0
  6  4  1  0  0  0  0
  7  6  2  0  0  0  0
  9  8  1  0  0  0  0
  9 10  1  0  0  0  0
 10 22  2  0  0  0  0
 11 10  1  0  0  0  0
 11 16  1  0  0  0  0
 14 15  1  0  0  0  0
 15 12  1  0  0  0  0
 15 13  1  0  0  0  0
 16 14  2  0  0  0  0
 16 18  1  0  0  0  0
 17 21  1  0  0  0  0
 17 19  1  0  0  0  0
 18 13  1  0  0  0  0
 19 20  2  3  0  0  0
 20 14  1  0  0  0  0
 21 19  1  0  0  0  0
 21 11  2  3  0  0  0
 22 18  1  0  0  0  0
 23 25  1  0  0  0  0
 24 26  1  0  0  0  0
 25 24  2  0  0  0  0
 26 28  1  0  0  0  0
 27 28  2  0  0  0  0
 28 29  1  0  0  0  0
 29 32  1  0  0  0  0
 31 30  1  0  0  0  0
 32 31  1  0  0  0  0
 32 30  1  0  0  0  0
 33  1  1  0  0  0  0
 33 34  1  0  0  0  0
 34 35  1  0  0  0  0
 35 36  1  0  0  0  0
 36 39  1  0  0  0  0
 37 35  2  0  0  0  0
 38 41  1  0  0  0  0
 39 38  2  0  0  0  0
 41 42  1  0  0  0  0
 41 40  1  1  0  0  0
 42 43  1  0  0  0  0
M  END
>  <MODEL>
4

>  <REMARK>
 VINA RESULT:      -6.0      2.496      8.736
  Name = 
  17 active torsions:
  status: ('A' for Active; 'I' for Inactive)
    1  A    between atoms: C_2  and  C_6
    2  A    between atoms: N_3  and  C_29
    3  A    between atoms: C_4  and  C_40
    4  A    between atoms: C_5  and  C_6
    5  A    between atoms: C_5  and  N_11
    6  A    between atoms: C_10  and  C_39
    7  A    between atoms: N_11  and  C_12
    8  A    between atoms: N_13  and  C_20
    9  A    between atoms: C_19  and  C_26
   10  A    between atoms: C_20  and  C_38
   11  A    between atoms: C_22  and  N_37
   12  A    between atoms: C_26  and  C_31
   13  A    between atoms: O_27  and  C_36
   14  A    between atoms: O_27  and  C_38
   15  A    between atoms: O_28  and  C_39
   16  A    between atoms: C_29  and  C_40
   17  A    between atoms: C_31  and  C_43
                            x       y       z     vdW  Elec       q    Type
                         _______ _______ _______ _____ _____    ______ ____

>  <TORSDO>
F 17

$$$$
=
 OpenBabel11042419033D

 43 47  0  0  1  0  0  0  0  0999 V2000
  188.2300  174.4010  142.0140 N   0  0  0  0  0  0  0  0  0  0  0  0
  189.5180  174.2150  141.9660 C   0  0  0  0  0  0  0  0  0  0  0  0
  190.0610  171.9120  142.0160 O   0  0  0  0  0  0  0  0  0  0  0  0
  190.5820  172.9890  140.0110 N   0  0  0  0  0  0  0  0  0  0  0  0
  190.0510  172.9840  141.3500 C   0  0  0  0  0  0  0  0  0  0  0  0
  189.8600  173.5110  138.8850 C   0  0  0  0  0  3  0  0  0  0  0  0
  188.6270  173.1180  138.5820 C   0  0  0  0  0  2  0  0  0  0  0  0
  191.8650  172.3570  139.7450 C   0  0  0  0  0  2  0  0  0  0  0  0
  192.9470  173.4080  139.5710 C   0  0  0  0  0  2  0  0  0  0  0  0
  194.0410  173.1940  140.5630 C   0  0  0  0  0  0  0  0  0  0  0  0
  195.0760  174.0870  140.8210 C   0  0  0  0  0  0  0  0  0  0  0  0
  195.6550  174.0940  145.5600 C   0  0  0  0  0  1  0  0  0  0  0  0
  195.0710  172.3420  143.7660 C   0  0  0  0  0  2  0  0  0  0  0  0
  196.0310  174.3490  143.0470 C   0  0  0  0  0  0  0  0  0  0  0  0
  195.7610  173.5660  144.2090 N   0  0  0  0  0  0  0  0  0  0  0  0
  195.6650  173.5560  141.9280 C   0  0  0  0  0  0  0  0  0  0  0  0
  196.5980  176.0290  140.5360 C   0  0  0  0  0  2  0  0  0  0  0  0
  195.0610  172.4400  142.3060 N   0  0  0  0  0  0  0  0  0  0  0  0
  195.6800  176.4330  141.6790 C   0  0  0  0  0  0  0  0  0  0  0  0
  195.9770  175.6870  142.9830 C   0  0  0  0  0  3  0  0  0  0  0  0
  195.1450  175.5640  140.5030 C   0  0  0  0  0  0  0  0  0  0  0  0
  194.0220  172.2220  141.5120 N   0  0  0  0  0  0  0  0  0  0  0  0
  190.4720  175.2490  142.4920 C   0  0  0  0  0  2  0  0  0  0  0  0
  192.5270  175.1670  143.8190 N   0  0  0  0  0  0  0  0  0  0  0  0
  191.7370  174.6010  142.9740 C   0  0  0  0  0  3  0  0  0  0  0  0
  192.2700  176.4730  144.3770 C   0  0  0  0  0  2  0  0  0  0  0  0
  192.9160  175.7950  146.5640 O   0  0  0  0  0  0  0  0  0  0  0  0
  192.0460  176.3570  145.8440 C   0  0  0  0  0  0  0  0  0  0  0  0
  190.8660  176.8510  146.3990 O   0  0  0  0  0  0  0  0  0  0  0  0
  188.8780  177.5800  145.2740 C   0  0  0  0  0  2  0  0  0  0  0  0
  188.5140  177.1930  146.6920 C   0  0  0  0  0  2  0  0  0  0  0  0
  189.5860  176.4230  145.9480 C   0  0  0  0  0  3  0  0  0  0  0  0
  187.5840  175.5780  142.5810 C   0  0  0  0  0  2  0  0  0  0  0  0
  187.1710  176.5370  141.4760 C   0  0  0  0  0  2  0  0  0  0  0  0
  187.4970  177.9390  141.8760 C   0  0  0  0  0  0  0  0  0  0  0  0
  186.4800  178.8260  142.3460 N   0  0  0  0  0  2  0  0  0  0  0  0
  188.6890  178.3390  141.8200 O   0  0  0  0  0  0  0  0  0  0  0  0
  184.4480  178.1730  143.4680 C   0  0  0  0  0  3  0  0  0  0  0  0
  185.0950  178.4760  142.3450 C   0  0  0  0  0  3  0  0  0  0  0  0
  184.1640  178.7190  145.8430 C   0  0  0  0  0  1  0  0  0  0  0  0
  185.1130  178.1470  144.8070 C   0  0  1  0  0  3  0  0  0  0  0  0
  185.4260  176.8290  145.1470 O   0  0  0  0  0  0  0  0  0  0  0  0
  185.0020  176.6910  146.3870 O   0  0  0  0  0  1  0  0  0  0  0  0
  1 33  1  0  0  0  0
  2  1  2  0  0  0  0
  2 23  1  0  0  0  0
  4  5  1  0  0  0  0
  5  2  1  0  0  0  0
  5  3  2  0  0  0  0
  6  4  1  0  0  0  0
  7  6  2  0  0  0  0
  8  4  1  0  0  0  0
  9  8  1  0  0  0  0
  9 10  1  0  0  0  0
 10 11  1  0  0  0  0
 10 22  2  0  0  0  0
 11 16  1  0  0  0  0
 13 15  1  0  0  0  0
 14 15  1  0  0  0  0
 15 12  1  0  0  0  0
 16 18  1  0  0  0  0
 16 14  2  0  0  0  0
 17 19  1  0  0  0  0
 18 13  1  0  0  0  0
 19 20  2  3  0  0  0
 20 14  1  0  0  0  0
 21 17  1  0  0  0  0
 21 11  2  3  0  0  0
 21 19  1  0  0  0  0
 22 18  1  0  0  0  0
 23 25  1  0  0  0  0
 24 26  1  0  0  0  0
 25 24  2  0  0  0  0
 26 28  1  0  0  0  0
 28 29  1  0  0  0  0
 28 27  2  0  0  0  0
 30 32  1  0  0  0  0
 30 31  1  0  0  0  0
 32 29  1  0  0  0  0
 32 31  1  0  0  0  0
 34 35  1  0  0  0  0
 34 33  1  0  0  0  0
 35 36  1  0  0  0  0
 37 35  2  0  0  0  0
 38 41  1  0  0  0  0
 39 36  1  0  0  0  0
 39 38  2  0  0  0  0
 41 42  1  0  0  0  0
 41 40  1  1  0  0  0
 42 43  1  0  0  0  0
M  END
>  <MODEL>
5

>  <REMARK>
 VINA RESULT:      -5.9      2.246      9.139
  Name = 
  17 active torsions:
  status: ('A' for Active; 'I' for Inactive)
    1  A    between atoms: C_2  and  C_6
    2  A    between atoms: N_3  and  C_29
    3  A    between atoms: C_4  and  C_40
    4  A    between atoms: C_5  and  C_6
    5  A    between atoms: C_5  and  N_11
    6  A    between atoms: C_10  and  C_39
    7  A    between atoms: N_11  and  C_12
    8  A    between atoms: N_13  and  C_20
    9  A    between atoms: C_19  and  C_26
   10  A    between atoms: C_20  and  C_38
   11  A    between atoms: C_22  and  N_37
   12  A    between atoms: C_26  and  C_31
   13  A    between atoms: O_27  and  C_36
   14  A    between atoms: O_27  and  C_38
   15  A    between atoms: O_28  and  C_39
   16  A    between atoms: C_29  and  C_40
   17  A    between atoms: C_31  and  C_43
                            x       y       z     vdW  Elec       q    Type
                         _______ _______ _______ _____ _____    ______ ____

>  <TORSDO>
F 17

$$$$
=
 OpenBabel11042419033D

 43 47  0  0  1  0  0  0  0  0999 V2000
  190.7810  174.3720  144.0570 N   0  0  0  0  0  0  0  0  0  0  0  0
  191.7650  175.1470  144.4120 C   0  0  0  0  0  0  0  0  0  0  0  0
  192.0680  176.1840  146.5180 O   0  0  0  0  0  0  0  0  0  0  0  0
  190.6460  177.3330  145.0670 N   0  0  0  0  0  0  0  0  0  0  0  0
  191.5190  176.2320  145.3830 C   0  0  0  0  0  0  0  0  0  0  0  0
  190.7820  178.1230  143.8750 C   0  0  0  0  0  3  0  0  0  0  0  0
  190.0450  177.9130  142.7900 C   0  0  0  0  0  2  0  0  0  0  0  0
  189.6330  177.7450  146.0260 C   0  0  0  0  0  2  0  0  0  0  0  0
  188.7420  176.5700  146.3920 C   0  0  0  0  0  2  0  0  0  0  0  0
  187.6350  176.4310  145.4020 C   0  0  0  0  0  0  0  0  0  0  0  0
  186.3920  177.0480  145.4970 C   0  0  0  0  0  0  0  0  0  0  0  0
  185.3310  178.5510  141.0910 C   0  0  0  0  0  1  0  0  0  0  0  0
  186.5120  176.5060  142.1180 C   0  0  0  0  0  2  0  0  0  0  0  0
  185.1710  177.8040  143.5280 C   0  0  0  0  0  0  0  0  0  0  0  0
  185.5000  177.5780  142.1580 N   0  0  0  0  0  0  0  0  0  0  0  0
  185.8360  176.7990  144.2780 C   0  0  0  0  0  0  0  0  0  0  0  0
  184.4800  178.2890  146.4830 C   0  0  0  0  0  2  0  0  0  0  0  0
  186.6520  176.0890  143.5140 N   0  0  0  0  0  0  0  0  0  0  0  0
  185.1440  179.2950  145.5570 C   0  0  0  0  0  0  0  0  0  0  0  0
  184.9040  178.9990  144.0740 C   0  0  0  0  0  3  0  0  0  0  0  0
  185.9980  178.2460  146.3310 C   0  0  0  0  0  0  0  0  0  0  0  0
  187.7910  175.8940  144.1640 N   0  0  0  0  0  0  0  0  0  0  0  0
  193.1530  174.9350  143.8790 C   0  0  0  0  0  2  0  0  0  0  0  0
  194.6600  176.0700  142.3200 N   0  0  0  0  0  0  0  0  0  0  0  0
  193.5170  176.0220  142.9110 C   0  0  0  0  0  3  0  0  0  0  0  0
  195.6930  175.0850  142.5340 C   0  0  0  0  0  2  0  0  0  0  0  0
  197.2280  176.7990  143.1380 O   0  0  0  0  0  0  0  0  0  0  0  0
  196.7600  175.6570  143.4000 C   0  0  0  0  0  0  0  0  0  0  0  0
  197.2440  174.9120  144.4760 O   0  0  0  0  0  0  0  0  0  0  0  0
  197.1910  173.5650  146.4580 C   0  0  0  0  0  2  0  0  0  0  0  0
  196.5940  172.7670  145.3170 C   0  0  0  0  0  2  0  0  0  0  0  0
  196.3710  174.2630  145.3930 C   0  0  0  0  0  3  0  0  0  0  0  0
  190.8990  173.2600  143.1210 C   0  0  0  0  0  2  0  0  0  0  0  0
  190.7440  171.9370  143.8510 C   0  0  0  0  0  2  0  0  0  0  0  0
  192.0050  171.1440  143.7340 C   0  0  0  0  0  0  0  0  0  0  0  0
  192.1200  170.0780  142.7910 N   0  0  0  0  0  2  0  0  0  0  0  0
  192.9900  171.4360  144.4610 O   0  0  0  0  0  0  0  0  0  0  0  0
  190.8210  170.0600  140.7590 C   0  0  0  0  0  3  0  0  0  0  0  0
  191.0170  169.6270  142.0020 C   0  0  0  0  0  3  0  0  0  0  0  0
  192.8710  170.3370  139.4400 C   0  0  0  0  0  1  0  0  0  0  0  0
  191.7120  171.0620  140.0980 C   0  0  1  0  0  3  0  0  0  0  0  0
  190.9920  171.7570  139.1240 O   0  0  0  0  0  0  0  0  0  0  0  0
  190.8460  172.9710  139.6150 O   0  0  0  0  0  1  0  0  0  0  0  0
  1  2  2  0  0  0  0
  2  5  1  0  0  0  0
  4  5  1  0  0  0  0
  4  8  1  0  0  0  0
  5  3  2  0  0  0  0
  6  4  1  0  0  0  0
  7  6  2  0  0  0  0
  8  9  1  0  0  0  0
 10 11  1  0  0  0  0
 10  9  1  0  0  0  0
 11 21  1  0  0  0  0
 12 15  1  0  0  0  0
 13 15  1  0  0  0  0
 13 18  1  0  0  0  0
 14 20  2  0  0  0  0
 14 16  1  0  0  0  0
 15 14  1  0  0  0  0
 16 11  2  0  0  0  0
 18 22  1  0  0  0  0
 18 16  1  0  0  0  0
 19 21  2  0  0  0  0
 19 17  1  0  0  0  0
 20 19  1  0  0  0  0
 21 17  1  0  0  0  0
 22 10  2  0  0  0  0
 23  2  1  0  0  0  0
 24 26  1  0  0  0  0
 24 25  2  0  0  0  0
 25 23  1  0  0  0  0
 26 28  1  0  0  0  0
 27 28  2  0  0  0  0
 28 29  1  0  0  0  0
 29 32  1  0  0  0  0
 31 32  1  0  0  0  0
 31 30  1  0  0  0  0
 32 30  1  0  0  0  0
 33 34  1  0  0  0  0
 33  1  1  0  0  0  0
 35 34  1  0  0  0  0
 35 37  2  0  0  0  0
 36 35  1  0  0  0  0
 38 39  2  0  0  0  0
 39 36  1  0  0  0  0
 41 40  1  6  0  0  0
 41 38  1  0  0  0  0
 42 43  1  0  0  0  0
 42 41  1  0  0  0  0
M  END
>  <MODEL>
6

>  <REMARK>
 VINA RESULT:      -5.9      1.846      5.006
  Name = 
  17 active torsions:
  status: ('A' for Active; 'I' for Inactive)
    1  A    between atoms: C_2  and  C_6
    2  A    between atoms: N_3  and  C_29
    3  A    between atoms: C_4  and  C_40
    4  A    between atoms: C_5  and  C_6
    5  A    between atoms: C_5  and  N_11
    6  A    between atoms: C_10  and  C_39
    7  A    between atoms: N_11  and  C_12
    8  A    between atoms: N_13  and  C_20
    9  A    between atoms: C_19  and  C_26
   10  A    between atoms: C_20  and  C_38
   11  A    between atoms: C_22  and  N_37
   12  A    between atoms: C_26  and  C_31
   13  A    between atoms: O_27  and  C_36
   14  A    between atoms: O_27  and  C_38
   15  A    between atoms: O_28  and  C_39
   16  A    between atoms: C_29  and  C_40
   17  A    between atoms: C_31  and  C_43
                            x       y       z     vdW  Elec       q    Type
                         _______ _______ _______ _____ _____    ______ ____

>  <TORSDO>
F 17

$$$$
=
 OpenBabel11042419033D

 43 47  0  0  1  0  0  0  0  0999 V2000
  188.3390  176.6090  146.9150 N   0  0  0  0  0  0  0  0  0  0  0  0
  189.5470  176.5740  146.4300 C   0  0  0  0  0  0  0  0  0  0  0  0
  190.7720  175.3380  148.0340 O   0  0  0  0  0  0  0  0  0  0  0  0
  191.0010  174.5760  145.8390 N   0  0  0  0  0  0  0  0  0  0  0  0
  190.4540  175.4770  146.8210 C   0  0  0  0  0  0  0  0  0  0  0  0
  190.1910  173.8710  144.8860 C   0  0  0  0  0  3  0  0  0  0  0  0
  189.8820  172.5850  145.0220 C   0  0  0  0  0  2  0  0  0  0  0  0
  192.4250  174.2750  145.8550 C   0  0  0  0  0  2  0  0  0  0  0  0
  193.2000  175.4160  146.4910 C   0  0  0  0  0  2  0  0  0  0  0  0
  194.4800  175.6440  145.7580 C   0  0  0  0  0  0  0  0  0  0  0  0
  195.4940  174.7040  145.6060 C   0  0  0  0  0  0  0  0  0  0  0  0
  197.0060  175.1220  141.0960 C   0  0  0  0  0  1  0  0  0  0  0  0
  196.1740  176.7280  142.9290 C   0  0  0  0  0  2  0  0  0  0  0  0
  196.8590  174.5920  143.5910 C   0  0  0  0  0  0  0  0  0  0  0  0
  196.8690  175.5040  142.4930 N   0  0  0  0  0  0  0  0  0  0  0  0
  196.3210  175.2960  144.7000 C   0  0  0  0  0  0  0  0  0  0  0  0
  196.8190  172.6330  145.9590 C   0  0  0  0  0  2  0  0  0  0  0  0
  195.8670  176.4870  144.3400 N   0  0  0  0  0  0  0  0  0  0  0  0
  196.1270  172.4150  144.6230 C   0  0  0  0  0  0  0  0  0  0  0  0
  196.7180  173.2620  143.4930 C   0  0  0  0  0  3  0  0  0  0  0  0
  195.4160  173.2020  145.7640 C   0  0  0  0  0  0  0  0  0  0  0  0
  194.7040  176.7030  144.9380 N   0  0  0  0  0  0  0  0  0  0  0  0
  190.0230  177.6100  145.4510 C   0  0  0  0  0  2  0  0  0  0  0  0
  190.1230  177.0340  143.0750 N   0  0  0  0  0  0  0  0  0  0  0  0
  189.4190  177.3720  144.0980 C   0  0  0  0  0  3  0  0  0  0  0  0
  191.5540  176.8540  143.1350 C   0  0  0  0  0  2  0  0  0  0  0  0
  193.1020  175.1470  142.5460 O   0  0  0  0  0  0  0  0  0  0  0  0
  191.9340  175.6060  142.4190 C   0  0  0  0  0  0  0  0  0  0  0  0
  191.0000  174.9730  141.5990 O   0  0  0  0  0  0  0  0  0  0  0  0
  190.3710  173.2850  140.0160 C   0  0  0  0  0  2  0  0  0  0  0  0
  189.6460  173.0190  141.3190 C   0  0  0  0  0  2  0  0  0  0  0  0
  191.0540  173.5760  141.3370 C   0  0  0  0  0  3  0  0  0  0  0  0
  187.3480  177.6290  146.5940 C   0  0  0  0  0  2  0  0  0  0  0  0
  186.3060  177.0710  145.6390 C   0  0  0  0  0  2  0  0  0  0  0  0
  185.0350  177.8450  145.7700 C   0  0  0  0  0  0  0  0  0  0  0  0
  184.7780  178.9840  144.9480 N   0  0  0  0  0  2  0  0  0  0  0  0
  184.1650  177.4720  146.6000 O   0  0  0  0  0  0  0  0  0  0  0  0
  185.9560  179.0090  142.8430 C   0  0  0  0  0  3  0  0  0  0  0  0
  185.7550  179.5230  144.0540 C   0  0  0  0  0  3  0  0  0  0  0  0
  183.9900  178.3030  141.5560 C   0  0  0  0  0  1  0  0  0  0  0  0
  185.2040  177.8230  142.3300 C   0  0  1  0  0  3  0  0  0  0  0  0
  186.0270  177.0810  141.4800 O   0  0  0  0  0  0  0  0  0  0  0  0
  185.8790  177.6380  140.2950 O   0  0  0  0  0  1  0  0  0  0  0  0
  2  5  1  0  0  0  0
  2  1  2  0  0  0  0
  4  8  1  0  0  0  0
  4  5  1  0  0  0  0
  5  3  2  0  0  0  0
  6  7  2  0  0  0  0
  6  4  1  0  0  0  0
  8  9  1  0  0  0  0
 10  9  1  0  0  0  0
 11 10  1  0  0  0  0
 11 21  1  0  0  0  0
 12 15  1  0  0  0  0
 13 18  1  0  0  0  0
 14 16  1  0  0  0  0
 15 13  1  0  0  0  0
 15 14  1  0  0  0  0
 16 11  2  0  0  0  0
 18 16  1  0  0  0  0
 18 22  1  0  0  0  0
 19 21  2  0  0  0  0
 19 17  1  0  0  0  0
 20 14  2  0  0  0  0
 20 19  1  0  0  0  0
 21 17  1  0  0  0  0
 22 10  2  0  0  0  0
 23  2  1  0  0  0  0
 24 26  1  0  0  0  0
 24 25  2  0  0  0  0
 25 23  1  0  0  0  0
 28 27  2  0  0  0  0
 28 26  1  0  0  0  0
 29 28  1  0  0  0  0
 30 31  1  0  0  0  0
 30 32  1  0  0  0  0
 31 32  1  0  0  0  0
 32 29  1  0  0  0  0
 33  1  1  0  0  0  0
 34 35  1  0  0  0  0
 34 33  1  0  0  0  0
 35 37  2  0  0  0  0
 36 35  1  0  0  0  0
 38 39  2  0  0  0  0
 39 36  1  0  0  0  0
 41 40  1  6  0  0  0
 41 38  1  0  0  0  0
 42 41  1  0  0  0  0
 43 42  1  0  0  0  0
M  END
>  <MODEL>
7

>  <REMARK>
 VINA RESULT:      -5.8      2.519      8.559
  Name = 
  17 active torsions:
  status: ('A' for Active; 'I' for Inactive)
    1  A    between atoms: C_2  and  C_6
    2  A    between atoms: N_3  and  C_29
    3  A    between atoms: C_4  and  C_40
    4  A    between atoms: C_5  and  C_6
    5  A    between atoms: C_5  and  N_11
    6  A    between atoms: C_10  and  C_39
    7  A    between atoms: N_11  and  C_12
    8  A    between atoms: N_13  and  C_20
    9  A    between atoms: C_19  and  C_26
   10  A    between atoms: C_20  and  C_38
   11  A    between atoms: C_22  and  N_37
   12  A    between atoms: C_26  and  C_31
   13  A    between atoms: O_27  and  C_36
   14  A    between atoms: O_27  and  C_38
   15  A    between atoms: O_28  and  C_39
   16  A    between atoms: C_29  and  C_40
   17  A    between atoms: C_31  and  C_43
                            x       y       z     vdW  Elec       q    Type
                         _______ _______ _______ _____ _____    ______ ____

>  <TORSDO>
F 17

$$$$
=
 OpenBabel11042419033D

 43 47  0  0  1  0  0  0  0  0999 V2000
  192.8700  173.8760  145.1870 N   0  0  0  0  0  0  0  0  0  0  0  0
  191.7970  174.5700  144.9350 C   0  0  0  0  0  0  0  0  0  0  0  0
  189.7940  173.4280  145.4700 O   0  0  0  0  0  0  0  0  0  0  0  0
  190.2900  175.2280  146.8720 N   0  0  0  0  0  0  0  0  0  0  0  0
  190.5890  174.3640  145.7580 C   0  0  0  0  0  0  0  0  0  0  0  0
  191.2310  175.5110  147.9180 C   0  0  0  0  0  3  0  0  0  0  0  0
  191.9950  176.5980  147.9200 C   0  0  0  0  0  2  0  0  0  0  0  0
  188.9490  175.7730  147.0180 C   0  0  0  0  0  2  0  0  0  0  0  0
  188.7590  176.9640  146.0930 C   0  0  0  0  0  2  0  0  0  0  0  0
  187.7030  176.6700  145.0810 C   0  0  0  0  0  0  0  0  0  0  0  0
  186.4140  177.1910  145.0930 C   0  0  0  0  0  0  0  0  0  0  0  0
  185.4000  178.3000  140.5610 C   0  0  0  0  0  1  0  0  0  0  0  0
  186.6990  176.4310  141.7670 C   0  0  0  0  0  2  0  0  0  0  0  0
  185.2100  177.7100  143.0390 C   0  0  0  0  0  0  0  0  0  0  0  0
  185.6060  177.4190  141.6990 N   0  0  0  0  0  0  0  0  0  0  0  0
  185.9240  176.8150  143.8780 C   0  0  0  0  0  0  0  0  0  0  0  0
  184.3760  178.3380  145.9300 C   0  0  0  0  0  2  0  0  0  0  0  0
  186.8200  176.1230  143.1920 N   0  0  0  0  0  0  0  0  0  0  0  0
  184.9930  179.3280  144.9560 C   0  0  0  0  0  0  0  0  0  0  0  0
  184.8310  178.9140  143.4910 C   0  0  0  0  0  3  0  0  0  0  0  0
  185.8970  178.4070  145.8280 C   0  0  0  0  0  0  0  0  0  0  0  0
  187.9460  176.0640  143.8890 N   0  0  0  0  0  0  0  0  0  0  0  0
  191.7790  175.6030  143.8440 C   0  0  0  0  0  2  0  0  0  0  0  0
  191.5370  174.5410  141.6530 N   0  0  0  0  0  0  0  0  0  0  0  0
  192.3070  175.0260  142.5640 C   0  0  0  0  0  3  0  0  0  0  0  0
  190.1000  174.5070  141.7800 C   0  0  0  0  0  2  0  0  0  0  0  0
  188.4440  172.8920  142.3390 O   0  0  0  0  0  0  0  0  0  0  0  0
  189.6530  173.1140  142.0530 C   0  0  0  0  0  0  0  0  0  0  0  0
  190.5820  172.0740  142.0120 O   0  0  0  0  0  0  0  0  0  0  0  0
  191.8180  170.6490  140.5330 C   0  0  0  0  0  2  0  0  0  0  0  0
  190.8370  171.4600  139.7120 C   0  0  0  0  0  2  0  0  0  0  0  0
  190.4560  170.9890  141.1010 C   0  0  0  0  0  3  0  0  0  0  0  0
  194.1260  173.9990  144.4570 C   0  0  0  0  0  2  0  0  0  0  0  0
  195.1040  174.8660  145.2320 C   0  0  0  0  0  2  0  0  0  0  0  0
  196.5010  174.5640  144.7980 C   0  0  0  0  0  0  0  0  0  0  0  0
  197.1900  175.4190  143.8850 N   0  0  0  0  0  2  0  0  0  0  0  0
  197.0890  173.5530  145.2630 O   0  0  0  0  0  0  0  0  0  0  0  0
  196.0400  176.4250  142.0190 C   0  0  0  0  0  3  0  0  0  0  0  0
  196.5560  176.5270  143.2420 C   0  0  0  0  0  3  0  0  0  0  0  0
  195.0730  175.2410  140.1000 C   0  0  0  0  0  1  0  0  0  0  0  0
  196.1010  175.1670  141.2140 C   0  0  1  0  0  3  0  0  0  0  0  0
  197.3740  175.0300  140.6570 O   0  0  0  0  0  0  0  0  0  0  0  0
  197.3010  175.6440  139.4930 O   0  0  0  0  0  1  0  0  0  0  0  0
  2  1  2  0  0  0  0
  2  5  1  0  0  0  0
  3  5  2  0  0  0  0
  4  8  1  0  0  0  0
  4  6  1  0  0  0  0
  5  4  1  0  0  0  0
  6  7  2  0  0  0  0
  9  8  1  0  0  0  0
 10 11  1  0  0  0  0
 10  9  1  0  0  0  0
 11 21  1  0  0  0  0
 12 15  1  0  0  0  0
 13 18  1  0  0  0  0
 14 20  2  0  0  0  0
 14 16  1  0  0  0  0
 15 13  1  0  0  0  0
 15 14  1  0  0  0  0
 16 11  2  0  0  0  0
 18 16  1  0  0  0  0
 18 22  1  0  0  0  0
 19 21  2  0  0  0  0
 19 17  1  0  0  0  0
 20 19  1  0  0  0  0
 21 17  1  0  0  0  0
 22 10  2  0  0  0  0
 23  2  1  0  0  0  0
 24 26  1  0  0  0  0
 24 25  2  0  0  0  0
 25 23  1  0  0  0  0
 26 28  1  0  0  0  0
 28 27  2  0  0  0  0
 29 28  1  0  0  0  0
 30 32  1  0  0  0  0
 31 30  1  0  0  0  0
 31 32  1  0  0  0  0
 32 29  1  0  0  0  0
 33  1  1  0  0  0  0
 33 34  1  0  0  0  0
 35 34  1  0  0  0  0
 35 37  2  0  0  0  0
 36 35  1  0  0  0  0
 38 39  2  0  0  0  0
 39 36  1  0  0  0  0
 41 40  1  6  0  0  0
 41 38  1  0  0  0  0
 42 41  1  0  0  0  0
 43 42  1  0  0  0  0
M  END
>  <MODEL>
8

>  <REMARK>
 VINA RESULT:      -5.8      1.934      2.341
  Name = 
  17 active torsions:
  status: ('A' for Active; 'I' for Inactive)
    1  A    between atoms: C_2  and  C_6
    2  A    between atoms: N_3  and  C_29
    3  A    between atoms: C_4  and  C_40
    4  A    between atoms: C_5  and  C_6
    5  A    between atoms: C_5  and  N_11
    6  A    between atoms: C_10  and  C_39
    7  A    between atoms: N_11  and  C_12
    8  A    between atoms: N_13  and  C_20
    9  A    between atoms: C_19  and  C_26
   10  A    between atoms: C_20  and  C_38
   11  A    between atoms: C_22  and  N_37
   12  A    between atoms: C_26  and  C_31
   13  A    between atoms: O_27  and  C_36
   14  A    between atoms: O_27  and  C_38
   15  A    between atoms: O_28  and  C_39
   16  A    between atoms: C_29  and  C_40
   17  A    between atoms: C_31  and  C_43
                            x       y       z     vdW  Elec       q    Type
                         _______ _______ _______ _____ _____    ______ ____

>  <TORSDO>
F 17

$$$$
=
 OpenBabel11042419033D

 43 47  0  0  1  0  0  0  0  0999 V2000
  193.8070  175.8280  141.4460 N   0  0  0  0  0  0  0  0  0  0  0  0
  193.1600  175.1550  142.3540 C   0  0  0  0  0  0  0  0  0  0  0  0
  190.8020  175.1940  142.5560 O   0  0  0  0  0  0  0  0  0  0  0  0
  191.9110  176.8180  143.8130 N   0  0  0  0  0  0  0  0  0  0  0  0
  191.9030  175.7010  142.9040 C   0  0  0  0  0  0  0  0  0  0  0  0
  192.7130  176.8530  145.0040 C   0  0  0  0  0  3  0  0  0  0  0  0
  194.0330  176.7070  144.9820 C   0  0  0  0  0  2  0  0  0  0  0  0
  191.0020  177.9330  143.5900 C   0  0  0  0  0  2  0  0  0  0  0  0
  189.9860  178.0200  144.7170 C   0  0  0  0  0  2  0  0  0  0  0  0
  188.6790  177.4490  144.2810 C   0  0  0  0  0  0  0  0  0  0  0  0
  187.6070  177.1670  145.1210 C   0  0  0  0  0  0  0  0  0  0  0  0
  183.6940  178.5760  142.7760 C   0  0  0  0  0  1  0  0  0  0  0  0
  185.9420  177.4880  142.1470 C   0  0  0  0  0  2  0  0  0  0  0  0
  185.2950  177.4160  144.3930 C   0  0  0  0  0  0  0  0  0  0  0  0
  184.8210  177.7090  143.0790 N   0  0  0  0  0  0  0  0  0  0  0  0
  186.6030  176.8840  144.2460 C   0  0  0  0  0  0  0  0  0  0  0  0
  186.3310  176.7940  147.2190 C   0  0  0  0  0  2  0  0  0  0  0  0
  187.0190  176.9710  142.9920 N   0  0  0  0  0  0  0  0  0  0  0  0
  185.8650  178.1560  146.7320 C   0  0  0  0  0  0  0  0  0  0  0  0
  184.9490  178.0770  145.5070 C   0  0  0  0  0  3  0  0  0  0  0  0
  187.3370  177.6970  146.5110 C   0  0  0  0  0  0  0  0  0  0  0  0
  188.2830  177.3690  142.9830 N   0  0  0  0  0  0  0  0  0  0  0  0
  193.6490  173.8150  142.8250 C   0  0  0  0  0  2  0  0  0  0  0  0
  192.0290  171.9810  142.7630 N   0  0  0  0  0  0  0  0  0  0  0  0
  192.8930  172.7100  142.1470 C   0  0  0  0  0  3  0  0  0  0  0  0
  191.7100  172.1590  144.1590 C   0  0  0  0  0  2  0  0  0  0  0  0
  189.4690  171.9680  143.3850 O   0  0  0  0  0  0  0  0  0  0  0  0
  190.2390  172.3120  144.3230 C   0  0  0  0  0  0  0  0  0  0  0  0
  189.7320  172.8560  145.5040 O   0  0  0  0  0  0  0  0  0  0  0  0
  190.6820  174.7150  146.6820 C   0  0  0  0  0  2  0  0  0  0  0  0
  189.2490  174.5360  147.1390 C   0  0  0  0  0  2  0  0  0  0  0  0
  189.6250  174.2610  145.6980 C   0  0  0  0  0  3  0  0  0  0  0  0
  195.0460  175.3880  140.8170 C   0  0  0  0  0  2  0  0  0  0  0  0
  194.8280  175.1470  139.3330 C   0  0  0  0  0  2  0  0  0  0  0  0
  194.7710  173.6780  139.0620 C   0  0  0  0  0  0  0  0  0  0  0  0
  193.8100  173.1330  138.1580 N   0  0  0  0  0  2  0  0  0  0  0  0
  195.5980  172.9130  139.6220 O   0  0  0  0  0  0  0  0  0  0  0  0
  191.5020  173.7860  137.9090 C   0  0  0  0  0  3  0  0  0  0  0  0
  192.7800  173.9240  137.5620 C   0  0  0  0  0  3  0  0  0  0  0  0
  189.9060  173.3900  139.7300 C   0  0  0  0  0  1  0  0  0  0  0  0
  191.0380  172.7870  138.9190 C   0  0  1  0  0  3  0  0  0  0  0  0
  190.5760  171.6420  138.2650 O   0  0  0  0  0  0  0  0  0  0  0  0
  189.4560  171.3290  138.8850 O   0  0  0  0  0  1  0  0  0  0  0  0
  1  2  2  0  0  0  0
  2 23  1  0  0  0  0
  2  5  1  0  0  0  0
  3  5  2  0  0  0  0
  4  6  1  0  0  0  0
  5  4  1  0  0  0  0
  7  6  2  0  0  0  0
  8  4  1  0  0  0  0
  8  9  1  0  0  0  0
 10  9  1  0  0  0  0
 10 11  1  0  0  0  0
 11 21  1  0  0  0  0
 12 15  1  0  0  0  0
 13 18  1  0  0  0  0
 13 15  1  0  0  0  0
 14 20  2  0  0  0  0
 15 14  1  0  0  0  0
 16 14  1  0  0  0  0
 16 11  2  0  0  0  0
 18 16  1  0  0  0  0
 19 17  1  0  0  0  0
 20 19  1  0  0  0  0
 21 19  2  0  0  0  0
 21 17  1  0  0  0  0
 22 18  1  0  0  0  0
 22 10  2  0  0  0  0
 24 26  1  0  0  0  0
 25 24  2  0  0  0  0
 25 23  1  0  0  0  0
 26 28  1  0  0  0  0
 27 28  2  0  0  0  0
 28 29  1  0  0  0  0
 29 32  1  0  0  0  0
 30 31  1  0  0  0  0
 32 30  1  0  0  0  0
 32 31  1  0  0  0  0
 33  1  1  0  0  0  0
 34 33  1  0  0  0  0
 35 34  1  0  0  0  0
 35 37  2  0  0  0  0
 36 35  1  0  0  0  0
 38 41  1  0  0  0  0
 39 38  2  0  0  0  0
 39 36  1  0  0  0  0
 41 40  1  6  0  0  0
 42 43  1  0  0  0  0
 42 41  1  0  0  0  0
M  END
>  <MODEL>
9

>  <REMARK>
 VINA RESULT:      -5.8      2.174      4.725
  Name = 
  17 active torsions:
  status: ('A' for Active; 'I' for Inactive)
    1  A    between atoms: C_2  and  C_6
    2  A    between atoms: N_3  and  C_29
    3  A    between atoms: C_4  and  C_40
    4  A    between atoms: C_5  and  C_6
    5  A    between atoms: C_5  and  N_11
    6  A    between atoms: C_10  and  C_39
    7  A    between atoms: N_11  and  C_12
    8  A    between atoms: N_13  and  C_20
    9  A    between atoms: C_19  and  C_26
   10  A    between atoms: C_20  and  C_38
   11  A    between atoms: C_22  and  N_37
   12  A    between atoms: C_26  and  C_31
   13  A    between atoms: O_27  and  C_36
   14  A    between atoms: O_27  and  C_38
   15  A    between atoms: O_28  and  C_39
   16  A    between atoms: C_29  and  C_40
   17  A    between atoms: C_31  and  C_43
                            x       y       z     vdW  Elec       q    Type
                         _______ _______ _______ _____ _____    ______ ____

>  <TORSDO>
F 17

$$$$
