=
 OpenBabel11042419013D

 41 43  0  0  1  0  0  0  0  0999 V2000
  183.8250  178.7880  142.9660 C   0  0  0  0  0  0  0  0  0  0  0  0
  182.6010  179.1110  142.6610 N   0  0  0  0  0  0  0  0  0  0  0  0
  182.1720  177.6120  140.8970 O   0  0  0  0  0  0  0  0  0  0  0  0
  181.7810  178.5820  141.6040 C   0  0  0  0  0  0  0  0  0  0  0  0
  178.0910  179.2990  141.6690 C   0  0  0  0  0  3  0  0  0  0  0  0
  180.3780  180.2940  140.5550 N   0  0  0  0  0  0  0  0  0  0  0  0
  179.1840  180.8970  140.3180 C   0  0  0  0  0  0  0  0  0  0  0  0
  179.3080  178.6700  141.9300 C   0  0  0  0  0  3  0  0  0  0  0  0
  179.1210  182.0920  139.4400 C   0  0  0  0  0  1  0  0  0  0  0  0
  180.4670  179.1930  141.3500 C   0  0  0  0  0  0  0  0  0  0  0  0
  178.0490  180.3970  140.8710 N   0  0  0  0  0  0  0  0  0  0  0  0
  184.4640  179.4490  144.1450 C   0  0  0  0  0  2  0  0  0  0  0  0
  185.1640  177.5940  145.5560 C   0  0  0  0  0  0  0  0  0  0  0  0
  186.0150  176.6240  145.7230 C   0  0  0  0  0  3  0  0  0  0  0  0
  184.3510  178.5990  145.3710 C   0  0  0  0  0  3  0  0  0  0  0  0
  187.0250  176.7010  146.8140 C   0  0  0  0  0  2  0  0  0  0  0  0
  193.2360  175.6380  146.7310 C   0  0  0  0  0  2  0  0  0  0  0  0
  189.4020  176.2830  146.9100 N   0  0  0  0  0  0  0  0  0  0  0  0
  191.5390  175.1040  148.3130 O   0  0  0  0  0  0  0  0  0  0  0  0
  194.7440  176.3910  144.8590 N   0  0  0  0  0  1  0  0  0  0  0  0
  191.8150  175.6470  147.2120 C   0  0  0  0  0  0  0  0  0  0  0  0
  188.5700  177.3000  144.8420 C   0  0  0  0  0  2  0  0  0  0  0  0
  190.7470  176.2800  146.4130 C   0  0  0  0  0  0  0  0  0  0  0  0
  193.4340  176.3290  145.4080 C   0  0  0  0  0  0  0  0  0  0  0  0
  192.4220  176.8870  144.7380 C   0  0  0  0  0  3  0  0  0  0  0  0
  189.9750  177.4920  144.4900 N   0  0  0  0  0  0  0  0  0  0  0  0
  191.0330  176.8670  145.2400 C   0  0  0  0  0  0  0  0  0  0  0  0
  188.3980  176.7650  146.2380 C   0  0  0  0  0  0  0  0  0  0  0  0
  190.2610  178.2360  143.2740 C   0  0  0  0  0  1  0  0  0  0  0  0
  184.5890  177.7310  142.2330 C   0  0  0  0  0  2  0  0  0  0  0  0
  185.4700  178.3480  141.2580 N   0  0  0  0  0  2  0  0  0  0  0  0
  186.8250  178.0120  141.6470 C   0  0  0  0  0  2  0  0  0  0  0  0
  187.2980  176.8130  140.8480 C   0  0  0  0  0  2  0  0  0  0  0  0
  186.8720  175.1900  142.5410 O   0  0  0  0  0  1  0  0  0  0  0  0
  187.8870  175.7690  141.7770 C   0  0  1  0  0  3  0  0  0  0  0  0
  188.5800  174.7010  140.9520 C   0  0  0  0  0  2  0  0  0  0  0  0
  189.2310  173.6810  141.8680 C   0  0  0  0  0  2  0  0  0  0  0  0
  190.2990  174.3410  142.7290 C   0  0  2  0  0  3  0  0  0  0  0  0
  191.3240  174.8150  141.9110 O   0  0  0  0  0  1  0  0  0  0  0  0
  190.8700  173.3290  143.7110 C   0  0  0  0  0  2  0  0  0  0  0  0
  189.9280  173.1400  144.8880 C   0  0  0  0  0  1  0  0  0  0  0  0
  1 12  1  0  0  0  0
  2  1  2  0  0  0  0
  3  4  2  0  0  0  0
  4  2  1  0  0  0  0
  5  8  1  0  0  0  0
  6 10  1  0  0  0  0
  7  6  2  0  0  0  0
  7 11  1  0  0  0  0
  9  7  1  0  0  0  0
 10  4  1  0  0  0  0
 10  8  2  0  0  0  0
 11  5  2  0  0  0  0
 12 15  1  0  0  0  0
 13 14  2  0  0  0  0
 14 16  1  0  0  0  0
 15 13  2  0  0  0  0
 17 21  1  0  0  0  0
 20 24  1  0  0  0  0
 21 19  2  0  0  0  0
 22 28  1  0  0  0  0
 23 18  1  0  0  0  0
 23 21  1  0  0  0  0
 24 17  1  0  0  0  0
 25 27  1  0  0  0  0
 25 24  2  0  0  0  0
 26 22  1  0  0  0  0
 26 27  1  0  0  0  0
 27 23  2  0  0  0  0
 28 16  1  0  0  0  0
 28 18  2  0  0  0  0
 29 26  1  0  0  0  0
 30  1  1  0  0  0  0
 31 32  1  0  0  0  0
 31 30  1  0  0  0  0
 33 32  1  0  0  0  0
 33 35  1  0  0  0  0
 35 34  1  6  0  0  0
 36 35  1  0  0  0  0
 36 37  1  0  0  0  0
 37 38  1  0  0  0  0
 38 39  1  6  0  0  0
 38 40  1  0  0  0  0
 40 41  1  0  0  0  0
M  END
>  <MODEL>
1

>  <REMARK>
 VINA RESULT:      -7.3      0.000      0.000
  Name = 
  15 active torsions:
  status: ('A' for Active; 'I' for Inactive)
    1  A    between atoms: C_8  and  C_23
    2  A    between atoms: C_8  and  C_31
    3  A    between atoms: C_9  and  C_41
    4  A    between atoms: C_11  and  C_16
    5  A    between atoms: C_11  and  N_19
    6  A    between atoms: C_14  and  C_25
    7  A    between atoms: C_14  and  C_34
    8  A    between atoms: C_16  and  C_38
    9  A    between atoms: N_19  and  C_36
   10  A    between atoms: C_23  and  C_36
   11  A    between atoms: C_27  and  C_30
   12  A    between atoms: C_28  and  C_34
   13  A    between atoms: C_28  and  C_38
   14  A    between atoms: C_30  and  N_32
   15  A    between atoms: C_39  and  C_41
                            x       y       z     vdW  Elec       q    Type
                         _______ _______ _______ _____ _____    ______ ____

>  <TORSDO>
F 15

$$$$
=
 OpenBabel11042419013D

 41 43  0  0  1  0  0  0  0  0999 V2000
  195.2700  175.6500  145.1870 C   0  0  0  0  0  0  0  0  0  0  0  0
  195.3590  176.4960  144.2010 N   0  0  0  0  0  0  0  0  0  0  0  0
  197.4700  177.0310  143.3080 O   0  0  0  0  0  0  0  0  0  0  0  0
  196.3280  176.5210  143.1390 C   0  0  0  0  0  0  0  0  0  0  0  0
  196.5000  175.3410  139.5740 C   0  0  0  0  0  3  0  0  0  0  0  0
  194.7280  175.4130  141.6520 N   0  0  0  0  0  0  0  0  0  0  0  0
  194.3710  174.8510  140.4680 C   0  0  0  0  0  0  0  0  0  0  0  0
  196.8880  175.9160  140.7830 C   0  0  0  0  0  3  0  0  0  0  0  0
  193.0080  174.2860  140.2990 C   0  0  0  0  0  1  0  0  0  0  0  0
  195.9680  175.9440  141.8340 C   0  0  0  0  0  0  0  0  0  0  0  0
  195.2530  174.8200  139.4370 N   0  0  0  0  0  0  0  0  0  0  0  0
  194.1410  175.8010  146.1570 C   0  0  0  0  0  2  0  0  0  0  0  0
  191.7200  176.0300  146.0660 C   0  0  0  0  0  0  0  0  0  0  0  0
  190.5990  175.9300  146.7210 C   0  0  0  0  0  3  0  0  0  0  0  0
  192.8680  176.1510  145.4550 C   0  0  0  0  0  3  0  0  0  0  0  0
  189.8340  177.1570  147.0740 C   0  0  0  0  0  2  0  0  0  0  0  0
  186.7600  178.1220  141.6580 C   0  0  0  0  0  2  0  0  0  0  0  0
  188.7580  177.5920  144.9560 N   0  0  0  0  0  0  0  0  0  0  0  0
  189.0750  178.1360  142.2120 O   0  0  0  0  0  0  0  0  0  0  0  0
  184.2490  178.0520  141.4610 N   0  0  0  0  0  1  0  0  0  0  0  0
  187.8960  177.9910  142.6290 C   0  0  0  0  0  0  0  0  0  0  0  0
  187.2850  176.9220  146.7950 C   0  0  0  0  0  2  0  0  0  0  0  0
  187.6480  177.6960  144.0530 C   0  0  0  0  0  0  0  0  0  0  0  0
  185.4030  177.9390  142.2840 C   0  0  0  0  0  0  0  0  0  0  0  0
  185.2480  177.6770  143.5860 C   0  0  0  0  0  3  0  0  0  0  0  0
  186.1810  177.2770  145.9060 N   0  0  0  0  0  0  0  0  0  0  0  0
  186.3950  177.5460  144.5080 C   0  0  0  0  0  0  0  0  0  0  0  0
  188.6260  177.2740  146.2100 C   0  0  0  0  0  0  0  0  0  0  0  0
  184.8370  177.2220  146.4590 C   0  0  0  0  0  1  0  0  0  0  0  0
  196.2050  174.4930  145.3460 C   0  0  0  0  0  2  0  0  0  0  0  0
  195.7840  173.4000  144.4860 N   0  0  0  0  0  2  0  0  0  0  0  0
  195.4190  172.3000  145.3560 C   0  0  0  0  0  2  0  0  0  0  0  0
  193.9080  172.2010  145.4390 C   0  0  0  0  0  2  0  0  0  0  0  0
  193.8030  170.3390  143.9540 O   0  0  0  0  0  1  0  0  0  0  0  0
  193.3520  171.6470  144.1410 C   0  0  1  0  0  3  0  0  0  0  0  0
  191.8370  171.6620  144.2010 C   0  0  0  0  0  2  0  0  0  0  0  0
  191.3250  173.0770  143.9990 C   0  0  0  0  0  2  0  0  0  0  0  0
  189.8160  173.1310  144.1950 C   0  0  2  0  0  3  0  0  0  0  0  0
  189.2330  172.0120  143.6020 O   0  0  0  0  0  1  0  0  0  0  0  0
  189.2560  174.3890  143.5470 C   0  0  0  0  0  2  0  0  0  0  0  0
  189.7550  174.5180  142.1180 C   0  0  0  0  0  1  0  0  0  0  0  0
  1 30  1  0  0  0  0
  1 12  1  0  0  0  0
  2  1  2  0  0  0  0
  4  3  2  0  0  0  0
  4  2  1  0  0  0  0
  5  8  1  0  0  0  0
  6 10  1  0  0  0  0
  7  6  2  0  0  0  0
  8 10  2  0  0  0  0
  9  7  1  0  0  0  0
 10  4  1  0  0  0  0
 11  5  2  0  0  0  0
 11  7  1  0  0  0  0
 13 14  2  0  0  0  0
 14 16  1  0  0  0  0
 15 13  2  0  0  0  0
 15 12  1  0  0  0  0
 17 24  1  0  0  0  0
 17 21  1  0  0  0  0
 18 28  2  0  0  0  0
 19 21  2  0  0  0  0
 20 24  1  0  0  0  0
 21 23  1  0  0  0  0
 23 27  2  0  0  0  0
 23 18  1  0  0  0  0
 24 25  2  0  0  0  0
 25 27  1  0  0  0  0
 26 29  1  0  0  0  0
 26 22  1  0  0  0  0
 27 26  1  0  0  0  0
 28 22  1  0  0  0  0
 28 16  1  0  0  0  0
 31 30  1  0  0  0  0
 31 32  1  0  0  0  0
 32 33  1  0  0  0  0
 35 34  1  1  0  0  0
 35 36  1  0  0  0  0
 35 33  1  0  0  0  0
 37 38  1  0  0  0  0
 37 36  1  0  0  0  0
 38 39  1  6  0  0  0
 40 38  1  0  0  0  0
 41 40  1  0  0  0  0
M  END
>  <MODEL>
2

>  <REMARK>
 VINA RESULT:      -7.2      3.454     10.222
  Name = 
  15 active torsions:
  status: ('A' for Active; 'I' for Inactive)
    1  A    between atoms: C_8  and  C_23
    2  A    between atoms: C_8  and  C_31
    3  A    between atoms: C_9  and  C_41
    4  A    between atoms: C_11  and  C_16
    5  A    between atoms: C_11  and  N_19
    6  A    between atoms: C_14  and  C_25
    7  A    between atoms: C_14  and  C_34
    8  A    between atoms: C_16  and  C_38
    9  A    between atoms: N_19  and  C_36
   10  A    between atoms: C_23  and  C_36
   11  A    between atoms: C_27  and  C_30
   12  A    between atoms: C_28  and  C_34
   13  A    between atoms: C_28  and  C_38
   14  A    between atoms: C_30  and  N_32
   15  A    between atoms: C_39  and  C_41
                            x       y       z     vdW  Elec       q    Type
                         _______ _______ _______ _____ _____    ______ ____

>  <TORSDO>
F 15

$$$$
=
 OpenBabel11042419013D

 41 43  0  0  1  0  0  0  0  0999 V2000
  189.4030  175.0080  142.0200 C   0  0  0  0  0  0  0  0  0  0  0  0
  190.5650  174.9040  142.5990 N   0  0  0  0  0  0  0  0  0  0  0  0
  191.9030  176.8360  142.7270 O   0  0  0  0  0  0  0  0  0  0  0  0
  191.2870  175.9120  143.3270 C   0  0  0  0  0  0  0  0  0  0  0  0
  192.3270  176.3200  146.9160 C   0  0  0  0  0  3  0  0  0  0  0  0
  190.2580  175.2870  145.4600 N   0  0  0  0  0  0  0  0  0  0  0  0
  190.2310  175.2360  146.8170 C   0  0  0  0  0  0  0  0  0  0  0  0
  192.3700  176.3870  145.5240 C   0  0  0  0  0  3  0  0  0  0  0  0
  189.0790  174.6070  147.5100 C   0  0  0  0  0  1  0  0  0  0  0  0
  191.3030  175.8530  144.7970 C   0  0  0  0  0  0  0  0  0  0  0  0
  191.2620  175.7480  147.5370 N   0  0  0  0  0  0  0  0  0  0  0  0
  188.8280  173.7990  141.3530 C   0  0  0  0  0  2  0  0  0  0  0  0
  189.8320  171.6270  141.7990 C   0  0  0  0  0  0  0  0  0  0  0  0
  190.6760  170.7230  141.3940 C   0  0  0  0  0  3  0  0  0  0  0  0
  189.0220  172.5750  142.1890 C   0  0  0  0  0  3  0  0  0  0  0  0
  191.9380  170.4940  142.1480 C   0  0  0  0  0  2  0  0  0  0  0  0
  195.5810  174.8740  144.8420 C   0  0  0  0  0  2  0  0  0  0  0  0
  193.2850  172.1390  143.2940 N   0  0  0  0  0  0  0  0  0  0  0  0
  194.5500  172.9030  145.6900 O   0  0  0  0  0  0  0  0  0  0  0  0
  196.4810  176.8760  143.6050 N   0  0  0  0  0  1  0  0  0  0  0  0
  194.7290  173.6490  144.6920 C   0  0  0  0  0  0  0  0  0  0  0  0
  193.0190  172.4570  140.8800 C   0  0  0  0  0  2  0  0  0  0  0  0
  194.1050  173.3100  143.3980 C   0  0  0  0  0  0  0  0  0  0  0  0
  195.7050  175.6850  143.5790 C   0  0  0  0  0  0  0  0  0  0  0  0
  195.1090  175.3240  142.4390 C   0  0  0  0  0  3  0  0  0  0  0  0
  193.6500  173.7590  141.0840 N   0  0  0  0  0  0  0  0  0  0  0  0
  194.2850  174.1020  142.3290 C   0  0  0  0  0  0  0  0  0  0  0  0
  192.7530  171.7410  142.1770 C   0  0  0  0  0  0  0  0  0  0  0  0
  193.7260  174.6490  139.9360 C   0  0  0  0  0  1  0  0  0  0  0  0
  188.5890  176.2630  142.0600 C   0  0  0  0  0  2  0  0  0  0  0  0
  187.5220  176.1880  141.0770 N   0  0  0  0  0  2  0  0  0  0  0  0
  186.9270  177.5080  141.0060 C   0  0  0  0  0  2  0  0  0  0  0  0
  187.3330  178.3110  142.2270 C   0  0  0  0  0  2  0  0  0  0  0  0
  184.9520  178.4040  142.3110 O   0  0  0  0  0  1  0  0  0  0  0  0
  186.1120  178.9670  142.8460 C   0  0  1  0  0  3  0  0  0  0  0  0
  186.1400  178.7540  144.3470 C   0  0  0  0  0  2  0  0  0  0  0  0
  184.7610  178.9990  144.9310 C   0  0  0  0  0  2  0  0  0  0  0  0
  184.4630  177.9970  146.0370 C   0  0  2  0  0  3  0  0  0  0  0  0
  184.4370  178.6590  147.2650 O   0  0  0  0  0  1  0  0  0  0  0  0
  185.5440  176.9270  146.0690 C   0  0  0  0  0  2  0  0  0  0  0  0
  186.1950  176.8700  147.4400 C   0  0  0  0  0  1  0  0  0  0  0  0
  1 30  1  0  0  0  0
  1  2  2  0  0  0  0
  2  4  1  0  0  0  0
  3  4  2  0  0  0  0
  4 10  1  0  0  0  0
  5 11  2  0  0  0  0
  6  7  2  0  0  0  0
  7  9  1  0  0  0  0
  7 11  1  0  0  0  0
  8  5  1  0  0  0  0
 10  6  1  0  0  0  0
 10  8  2  0  0  0  0
 12  1  1  0  0  0  0
 12 15  1  0  0  0  0
 13 15  2  0  0  0  0
 14 13  2  0  0  0  0
 14 16  1  0  0  0  0
 16 28  1  0  0  0  0
 18 23  1  0  0  0  0
 21 17  1  0  0  0  0
 21 19  2  0  0  0  0
 22 26  1  0  0  0  0
 22 28  1  0  0  0  0
 23 21  1  0  0  0  0
 24 20  1  0  0  0  0
 24 17  1  0  0  0  0
 25 24  2  0  0  0  0
 26 27  1  0  0  0  0
 27 25  1  0  0  0  0
 27 23  2  0  0  0  0
 28 18  2  0  0  0  0
 29 26  1  0  0  0  0
 31 30  1  0  0  0  0
 32 31  1  0  0  0  0
 32 33  1  0  0  0  0
 33 35  1  0  0  0  0
 35 34  1  6  0  0  0
 35 36  1  0  0  0  0
 36 37  1  0  0  0  0
 37 38  1  0  0  0  0
 38 40  1  0  0  0  0
 38 39  1  1  0  0  0
 40 41  1  0  0  0  0
M  END
>  <MODEL>
3

>  <REMARK>
 VINA RESULT:      -7.2      3.879      8.284
  Name = 
  15 active torsions:
  status: ('A' for Active; 'I' for Inactive)
    1  A    between atoms: C_8  and  C_23
    2  A    between atoms: C_8  and  C_31
    3  A    between atoms: C_9  and  C_41
    4  A    between atoms: C_11  and  C_16
    5  A    between atoms: C_11  and  N_19
    6  A    between atoms: C_14  and  C_25
    7  A    between atoms: C_14  and  C_34
    8  A    between atoms: C_16  and  C_38
    9  A    between atoms: N_19  and  C_36
   10  A    between atoms: C_23  and  C_36
   11  A    between atoms: C_27  and  C_30
   12  A    between atoms: C_28  and  C_34
   13  A    between atoms: C_28  and  C_38
   14  A    between atoms: C_30  and  N_32
   15  A    between atoms: C_39  and  C_41
                            x       y       z     vdW  Elec       q    Type
                         _______ _______ _______ _____ _____    ______ ____

>  <TORSDO>
F 15

$$$$
=
 OpenBabel11042419013D

 41 43  0  0  1  0  0  0  0  0999 V2000
  195.6230  175.4030  144.8810 C   0  0  0  0  0  0  0  0  0  0  0  0
  195.4220  174.3570  145.6300 N   0  0  0  0  0  0  0  0  0  0  0  0
  197.0470  172.6850  145.9530 O   0  0  0  0  0  0  0  0  0  0  0  0
  195.9390  173.0270  145.4540 C   0  0  0  0  0  0  0  0  0  0  0  0
  193.2600  170.6160  144.3850 C   0  0  0  0  0  3  0  0  0  0  0  0
  195.5800  171.6960  143.4290 N   0  0  0  0  0  0  0  0  0  0  0  0
  194.8700  170.8210  142.6700 C   0  0  0  0  0  0  0  0  0  0  0  0
  193.9720  171.5170  145.1770 C   0  0  0  0  0  3  0  0  0  0  0  0
  195.3630  170.4420  141.3230 C   0  0  0  0  0  1  0  0  0  0  0  0
  195.1560  172.0580  144.6710 C   0  0  0  0  0  0  0  0  0  0  0  0
  193.7190  170.2840  143.1500 N   0  0  0  0  0  0  0  0  0  0  0  0
  195.0090  176.7040  145.2920 C   0  0  0  0  0  2  0  0  0  0  0  0
  192.6770  177.2160  144.8190 C   0  0  0  0  0  0  0  0  0  0  0  0
  191.8460  177.8630  144.0540 C   0  0  0  0  0  3  0  0  0  0  0  0
  193.5420  176.5550  145.5410 C   0  0  0  0  0  3  0  0  0  0  0  0
  190.9720  177.1170  143.1080 C   0  0  0  0  0  2  0  0  0  0  0  0
  185.8780  178.0400  146.7010 C   0  0  0  0  0  2  0  0  0  0  0  0
  189.0740  177.3970  144.5750 N   0  0  0  0  0  0  0  0  0  0  0  0
  188.1190  177.4300  147.2220 O   0  0  0  0  0  0  0  0  0  0  0  0
  183.6230  178.6650  145.7680 N   0  0  0  0  0  1  0  0  0  0  0  0
  187.2920  177.7150  146.3180 C   0  0  0  0  0  0  0  0  0  0  0  0
  188.6970  177.9240  142.2120 C   0  0  0  0  0  2  0  0  0  0  0  0
  187.7190  177.7270  144.9050 C   0  0  0  0  0  0  0  0  0  0  0  0
  184.9880  178.3520  145.5270 C   0  0  0  0  0  0  0  0  0  0  0  0
  185.4390  178.3410  144.2690 C   0  0  0  0  0  3  0  0  0  0  0  0
  187.2810  178.0110  142.5620 N   0  0  0  0  0  0  0  0  0  0  0  0
  186.8420  178.0240  143.9330 C   0  0  0  0  0  0  0  0  0  0  0  0
  189.5410  177.4450  143.3620 C   0  0  0  0  0  0  0  0  0  0  0  0
  186.3380  178.2150  141.4740 C   0  0  0  0  0  1  0  0  0  0  0  0
  196.5030  175.3740  143.6710 C   0  0  0  0  0  2  0  0  0  0  0  0
  196.3680  176.6200  142.9360 N   0  0  0  0  0  2  0  0  0  0  0  0
  195.9510  176.2690  141.5920 C   0  0  0  0  0  2  0  0  0  0  0  0
  194.4360  176.2560  141.5220 C   0  0  0  0  0  2  0  0  0  0  0  0
  195.0320  174.0850  140.7390 O   0  0  0  0  0  1  0  0  0  0  0  0
  193.9470  174.8790  141.1120 C   0  0  1  0  0  3  0  0  0  0  0  0
  193.2220  174.2400  142.2810 C   0  0  0  0  0  2  0  0  0  0  0  0
  192.1550  173.2880  141.7700 C   0  0  0  0  0  2  0  0  0  0  0  0
  191.0120  173.1820  142.7700 C   0  0  2  0  0  3  0  0  0  0  0  0
  189.8760  173.7910  142.2380 O   0  0  0  0  0  1  0  0  0  0  0  0
  191.3930  173.8810  144.0660 C   0  0  0  0  0  2  0  0  0  0  0  0
  190.3150  173.6770  145.1170 C   0  0  0  0  0  1  0  0  0  0  0  0
  1 12  1  0  0  0  0
  1  2  2  0  0  0  0
  4  2  1  0  0  0  0
  4  3  2  0  0  0  0
  5  8  1  0  0  0  0
  6 10  1  0  0  0  0
  7 11  1  0  0  0  0
  7  6  2  0  0  0  0
  9  7  1  0  0  0  0
 10  8  2  0  0  0  0
 10  4  1  0  0  0  0
 11  5  2  0  0  0  0
 12 15  1  0  0  0  0
 13 15  2  0  0  0  0
 14 13  2  0  0  0  0
 16 28  1  0  0  0  0
 16 14  1  0  0  0  0
 18 23  1  0  0  0  0
 21 17  1  0  0  0  0
 21 19  2  0  0  0  0
 22 26  1  0  0  0  0
 22 28  1  0  0  0  0
 23 21  1  0  0  0  0
 24 20  1  0  0  0  0
 24 17  1  0  0  0  0
 25 24  2  0  0  0  0
 26 27  1  0  0  0  0
 27 25  1  0  0  0  0
 27 23  2  0  0  0  0
 28 18  2  0  0  0  0
 29 26  1  0  0  0  0
 30  1  1  0  0  0  0
 31 30  1  0  0  0  0
 32 31  1  0  0  0  0
 33 32  1  0  0  0  0
 35 34  1  1  0  0  0
 35 33  1  0  0  0  0
 35 36  1  0  0  0  0
 37 36  1  0  0  0  0
 37 38  1  0  0  0  0
 38 39  1  6  0  0  0
 38 40  1  0  0  0  0
 40 41  1  0  0  0  0
M  END
>  <MODEL>
4

>  <REMARK>
 VINA RESULT:      -7.0      3.803     10.475
  Name = 
  15 active torsions:
  status: ('A' for Active; 'I' for Inactive)
    1  A    between atoms: C_8  and  C_23
    2  A    between atoms: C_8  and  C_31
    3  A    between atoms: C_9  and  C_41
    4  A    between atoms: C_11  and  C_16
    5  A    between atoms: C_11  and  N_19
    6  A    between atoms: C_14  and  C_25
    7  A    between atoms: C_14  and  C_34
    8  A    between atoms: C_16  and  C_38
    9  A    between atoms: N_19  and  C_36
   10  A    between atoms: C_23  and  C_36
   11  A    between atoms: C_27  and  C_30
   12  A    between atoms: C_28  and  C_34
   13  A    between atoms: C_28  and  C_38
   14  A    between atoms: C_30  and  N_32
   15  A    between atoms: C_39  and  C_41
                            x       y       z     vdW  Elec       q    Type
                         _______ _______ _______ _____ _____    ______ ____

>  <TORSDO>
F 15

$$$$
=
 OpenBabel11042419013D

 41 43  0  0  1  0  0  0  0  0999 V2000
  191.5070  176.5810  146.1850 C   0  0  0  0  0  0  0  0  0  0  0  0
  192.6470  176.2170  146.7000 N   0  0  0  0  0  0  0  0  0  0  0  0
  194.5900  177.4750  146.2700 O   0  0  0  0  0  0  0  0  0  0  0  0
  193.9640  176.3850  146.1480 C   0  0  0  0  0  0  0  0  0  0  0  0
  196.2310  173.5300  145.2290 C   0  0  0  0  0  3  0  0  0  0  0  0
  194.0490  174.8470  144.2440 N   0  0  0  0  0  0  0  0  0  0  0  0
  194.5800  173.7980  143.5630 C   0  0  0  0  0  0  0  0  0  0  0  0
  195.6960  174.6000  145.9470 C   0  0  0  0  0  3  0  0  0  0  0  0
  193.9790  173.3750  142.2730 C   0  0  0  0  0  1  0  0  0  0  0  0
  194.5810  175.2620  145.4260 C   0  0  0  0  0  0  0  0  0  0  0  0
  195.6660  173.1480  144.0540 N   0  0  0  0  0  0  0  0  0  0  0  0
  190.2590  176.3370  146.9710 C   0  0  0  0  0  2  0  0  0  0  0  0
  189.7290  174.1430  146.0580 C   0  0  0  0  0  0  0  0  0  0  0  0
  189.5150  173.4430  144.9820 C   0  0  0  0  0  3  0  0  0  0  0  0
  189.9840  174.8730  147.1110 C   0  0  0  0  0  3  0  0  0  0  0  0
  190.5100  172.4250  144.5490 C   0  0  0  0  0  2  0  0  0  0  0  0
  188.7070  173.7940  138.6670 C   0  0  0  0  0  2  0  0  0  0  0  0
  189.7260  173.0230  142.3440 N   0  0  0  0  0  0  0  0  0  0  0  0
  188.3980  174.9190  140.7420 O   0  0  0  0  0  0  0  0  0  0  0  0
  189.2050  172.3160  136.6880 N   0  0  0  0  0  1  0  0  0  0  0  0
  188.8770  173.9150  140.1530 C   0  0  0  0  0  0  0  0  0  0  0  0
  191.1470  171.0320  142.4790 C   0  0  0  0  0  2  0  0  0  0  0  0
  189.5950  172.8810  140.9230 C   0  0  0  0  0  0  0  0  0  0  0  0
  189.3140  172.5430  138.0880 C   0  0  0  0  0  0  0  0  0  0  0  0
  189.9480  171.6430  138.8440 C   0  0  0  0  0  3  0  0  0  0  0  0
  190.7830  170.8020  141.0820 N   0  0  0  0  0  0  0  0  0  0  0  0
  190.1030  171.8040  140.3050 C   0  0  0  0  0  0  0  0  0  0  0  0
  190.3960  172.1880  143.0820 C   0  0  0  0  0  0  0  0  0  0  0  0
  191.2470  169.5670  140.4690 C   0  0  0  0  0  1  0  0  0  0  0  0
  191.4040  177.3000  144.8770 C   0  0  0  0  0  2  0  0  0  0  0  0
  191.0700  176.3570  143.8240 N   0  0  0  0  0  2  0  0  0  0  0  0
  190.0710  176.9980  142.9910 C   0  0  0  0  0  2  0  0  0  0  0  0
  188.7330  176.9800  143.7040 C   0  0  0  0  0  2  0  0  0  0  0  0
  188.1430  178.1050  141.6870 O   0  0  0  0  0  1  0  0  0  0  0  0
  187.7670  177.9290  143.0200 C   0  0  1  0  0  3  0  0  0  0  0  0
  186.3670  177.3490  143.0850 C   0  0  0  0  0  2  0  0  0  0  0  0
  185.7790  177.5730  144.4660 C   0  0  0  0  0  2  0  0  0  0  0  0
  184.7170  178.6640  144.4230 C   0  0  2  0  0  3  0  0  0  0  0  0
  185.3280  179.8940  144.1810 O   0  0  0  0  0  1  0  0  0  0  0  0
  183.9840  178.7240  145.7550 C   0  0  0  0  0  2  0  0  0  0  0  0
  184.9660  178.6100  146.9080 C   0  0  0  0  0  1  0  0  0  0  0  0
  1  2  2  0  0  0  0
  1 12  1  0  0  0  0
  4  3  2  0  0  0  0
  4  2  1  0  0  0  0
  5  8  1  0  0  0  0
  6 10  1  0  0  0  0
  7 11  1  0  0  0  0
  7  6  2  0  0  0  0
  9  7  1  0  0  0  0
 10  8  2  0  0  0  0
 10  4  1  0  0  0  0
 11  5  2  0  0  0  0
 12 15  1  0  0  0  0
 13 15  2  0  0  0  0
 14 13  2  0  0  0  0
 16 14  1  0  0  0  0
 17 21  1  0  0  0  0
 18 28  2  0  0  0  0
 20 24  1  0  0  0  0
 21 19  2  0  0  0  0
 21 23  1  0  0  0  0
 22 28  1  0  0  0  0
 23 18  1  0  0  0  0
 24 17  1  0  0  0  0
 24 25  2  0  0  0  0
 25 27  1  0  0  0  0
 26 22  1  0  0  0  0
 27 23  2  0  0  0  0
 27 26  1  0  0  0  0
 28 16  1  0  0  0  0
 29 26  1  0  0  0  0
 30  1  1  0  0  0  0
 31 30  1  0  0  0  0
 32 33  1  0  0  0  0
 32 31  1  0  0  0  0
 35 34  1  6  0  0  0
 35 36  1  0  0  0  0
 35 33  1  0  0  0  0
 36 37  1  0  0  0  0
 38 39  1  1  0  0  0
 38 37  1  0  0  0  0
 38 40  1  0  0  0  0
 40 41  1  0  0  0  0
M  END
>  <MODEL>
5

>  <REMARK>
 VINA RESULT:      -7.0      4.536     10.055
  Name = 
  15 active torsions:
  status: ('A' for Active; 'I' for Inactive)
    1  A    between atoms: C_8  and  C_23
    2  A    between atoms: C_8  and  C_31
    3  A    between atoms: C_9  and  C_41
    4  A    between atoms: C_11  and  C_16
    5  A    between atoms: C_11  and  N_19
    6  A    between atoms: C_14  and  C_25
    7  A    between atoms: C_14  and  C_34
    8  A    between atoms: C_16  and  C_38
    9  A    between atoms: N_19  and  C_36
   10  A    between atoms: C_23  and  C_36
   11  A    between atoms: C_27  and  C_30
   12  A    between atoms: C_28  and  C_34
   13  A    between atoms: C_28  and  C_38
   14  A    between atoms: C_30  and  N_32
   15  A    between atoms: C_39  and  C_41
                            x       y       z     vdW  Elec       q    Type
                         _______ _______ _______ _____ _____    ______ ____

>  <TORSDO>
F 15

$$$$
=
 OpenBabel11042419013D

 41 43  0  0  1  0  0  0  0  0999 V2000
  192.0070  172.8680  143.3320 C   0  0  0  0  0  0  0  0  0  0  0  0
  191.5900  173.7950  142.5180 N   0  0  0  0  0  0  0  0  0  0  0  0
  191.1980  173.6090  140.2050 O   0  0  0  0  0  0  0  0  0  0  0  0
  191.9520  173.9940  141.1410 C   0  0  0  0  0  0  0  0  0  0  0  0
  194.9420  176.2670  141.3070 C   0  0  0  0  0  3  0  0  0  0  0  0
  193.9540  174.2480  139.7530 N   0  0  0  0  0  0  0  0  0  0  0  0
  195.1470  174.8220  139.4500 C   0  0  0  0  0  0  0  0  0  0  0  0
  193.7170  175.6860  141.6370 C   0  0  0  0  0  3  0  0  0  0  0  0
  195.9110  174.3590  138.2640 C   0  0  0  0  0  1  0  0  0  0  0  0
  193.2280  174.6560  140.8300 C   0  0  0  0  0  0  0  0  0  0  0  0
  195.6330  175.8270  140.2230 N   0  0  0  0  0  0  0  0  0  0  0  0
  191.4530  172.8350  144.7210 C   0  0  0  0  0  2  0  0  0  0  0  0
  189.7240  174.1070  145.8700 C   0  0  0  0  0  0  0  0  0  0  0  0
  189.3910  174.7400  146.9580 C   0  0  0  0  0  3  0  0  0  0  0  0
  190.1110  173.4940  144.7840 C   0  0  0  0  0  3  0  0  0  0  0  0
  189.2550  176.2220  146.9430 C   0  0  0  0  0  2  0  0  0  0  0  0
  186.5010  177.7110  141.4740 C   0  0  0  0  0  2  0  0  0  0  0  0
  188.3150  176.8240  144.8010 N   0  0  0  0  0  0  0  0  0  0  0  0
  188.7350  177.1090  142.0320 O   0  0  0  0  0  0  0  0  0  0  0  0
  184.0670  178.3310  141.2740 N   0  0  0  0  0  1  0  0  0  0  0  0
  187.5680  177.3210  142.4540 C   0  0  0  0  0  0  0  0  0  0  0  0
  186.7380  176.6910  146.6710 C   0  0  0  0  0  2  0  0  0  0  0  0
  187.2670  177.1840  143.8910 C   0  0  0  0  0  0  0  0  0  0  0  0
  185.1550  177.9470  142.1060 C   0  0  0  0  0  0  0  0  0  0  0  0
  184.9500  177.8090  143.4190 C   0  0  0  0  0  3  0  0  0  0  0  0
  185.7640  177.2900  145.7610 N   0  0  0  0  0  0  0  0  0  0  0  0
  186.0270  177.4140  144.3510 C   0  0  0  0  0  0  0  0  0  0  0  0
  188.1160  176.6240  146.0710 C   0  0  0  0  0  0  0  0  0  0  0  0
  184.4650  177.6410  146.3120 C   0  0  0  0  0  1  0  0  0  0  0  0
  192.9600  171.7930  142.9130 C   0  0  0  0  0  2  0  0  0  0  0  0
  194.1490  171.8380  143.7460 N   0  0  0  0  0  2  0  0  0  0  0  0
  195.1590  172.5560  142.9930 C   0  0  0  0  0  2  0  0  0  0  0  0
  196.0240  173.3580  143.9460 C   0  0  0  0  0  2  0  0  0  0  0  0
  196.5750  172.5880  146.1340 O   0  0  0  0  0  1  0  0  0  0  0  0
  195.5510  173.1550  145.3730 C   0  0  1  0  0  3  0  0  0  0  0  0
  195.1570  174.4950  145.9630 C   0  0  0  0  0  2  0  0  0  0  0  0
  195.5030  175.6100  144.9930 C   0  0  0  0  0  2  0  0  0  0  0  0
  194.4450  176.7040  145.0370 C   0  0  2  0  0  3  0  0  0  0  0  0
  194.7580  177.6090  146.0510 O   0  0  0  0  0  1  0  0  0  0  0  0
  193.0800  176.0920  145.3170 C   0  0  0  0  0  2  0  0  0  0  0  0
  191.9850  176.9090  144.6540 C   0  0  0  0  0  1  0  0  0  0  0  0
  1 12  1  0  0  0  0
  2  1  2  0  0  0  0
  3  4  2  0  0  0  0
  4  2  1  0  0  0  0
  5  8  1  0  0  0  0
  6 10  1  0  0  0  0
  7  6  2  0  0  0  0
  7 11  1  0  0  0  0
  9  7  1  0  0  0  0
 10  4  1  0  0  0  0
 10  8  2  0  0  0  0
 11  5  2  0  0  0  0
 12 15  1  0  0  0  0
 13 14  2  0  0  0  0
 15 13  2  0  0  0  0
 16 14  1  0  0  0  0
 17 24  1  0  0  0  0
 17 21  1  0  0  0  0
 18 28  2  0  0  0  0
 19 21  2  0  0  0  0
 20 24  1  0  0  0  0
 21 23  1  0  0  0  0
 23 27  2  0  0  0  0
 23 18  1  0  0  0  0
 24 25  2  0  0  0  0
 25 27  1  0  0  0  0
 26 29  1  0  0  0  0
 26 22  1  0  0  0  0
 27 26  1  0  0  0  0
 28 22  1  0  0  0  0
 28 16  1  0  0  0  0
 30  1  1  0  0  0  0
 30 31  1  0  0  0  0
 32 31  1  0  0  0  0
 32 33  1  0  0  0  0
 33 35  1  0  0  0  0
 35 36  1  0  0  0  0
 35 34  1  1  0  0  0
 37 38  1  0  0  0  0
 37 36  1  0  0  0  0
 38 40  1  0  0  0  0
 38 39  1  1  0  0  0
 41 40  1  0  0  0  0
M  END
>  <MODEL>
6

>  <REMARK>
 VINA RESULT:      -7.0      3.376      9.787
  Name = 
  15 active torsions:
  status: ('A' for Active; 'I' for Inactive)
    1  A    between atoms: C_8  and  C_23
    2  A    between atoms: C_8  and  C_31
    3  A    between atoms: C_9  and  C_41
    4  A    between atoms: C_11  and  C_16
    5  A    between atoms: C_11  and  N_19
    6  A    between atoms: C_14  and  C_25
    7  A    between atoms: C_14  and  C_34
    8  A    between atoms: C_16  and  C_38
    9  A    between atoms: N_19  and  C_36
   10  A    between atoms: C_23  and  C_36
   11  A    between atoms: C_27  and  C_30
   12  A    between atoms: C_28  and  C_34
   13  A    between atoms: C_28  and  C_38
   14  A    between atoms: C_30  and  N_32
   15  A    between atoms: C_39  and  C_41
                            x       y       z     vdW  Elec       q    Type
                         _______ _______ _______ _____ _____    ______ ____

>  <TORSDO>
F 15

$$$$
=
 OpenBabel11042419013D

 41 43  0  0  1  0  0  0  0  0999 V2000
  195.8610  175.0770  145.0180 C   0  0  0  0  0  0  0  0  0  0  0  0
  195.6720  176.0210  144.1410 N   0  0  0  0  0  0  0  0  0  0  0  0
  197.4940  177.1180  143.1330 O   0  0  0  0  0  0  0  0  0  0  0  0
  196.4940  176.3580  143.0100 C   0  0  0  0  0  0  0  0  0  0  0  0
  196.6360  175.4190  139.3730 C   0  0  0  0  0  3  0  0  0  0  0  0
  194.9970  175.1000  141.5360 N   0  0  0  0  0  0  0  0  0  0  0  0
  194.6610  174.5560  140.3370 C   0  0  0  0  0  0  0  0  0  0  0  0
  197.0020  175.9790  140.5960 C   0  0  0  0  0  3  0  0  0  0  0  0
  193.3920  173.7970  140.1990 C   0  0  0  0  0  1  0  0  0  0  0  0
  196.1510  175.8060  141.6910 C   0  0  0  0  0  0  0  0  0  0  0  0
  195.4760  174.7200  139.2640 N   0  0  0  0  0  0  0  0  0  0  0  0
  194.8370  174.8860  146.0920 C   0  0  0  0  0  2  0  0  0  0  0  0
  192.4740  175.3440  146.4500 C   0  0  0  0  0  0  0  0  0  0  0  0
  191.5130  175.4500  147.3230 C   0  0  0  0  0  3  0  0  0  0  0  0
  193.4720  175.2620  145.6120 C   0  0  0  0  0  3  0  0  0  0  0  0
  190.9280  176.7850  147.6230 C   0  0  0  0  0  2  0  0  0  0  0  0
  184.9680  177.7940  145.8400 C   0  0  0  0  0  2  0  0  0  0  0  0
  188.6050  177.1040  147.0410 N   0  0  0  0  0  0  0  0  0  0  0  0
  185.9420  177.2490  147.9420 O   0  0  0  0  0  0  0  0  0  0  0  0
  184.3060  178.3330  143.4700 N   0  0  0  0  0  1  0  0  0  0  0  0
  186.1400  177.4750  146.7200 C   0  0  0  0  0  0  0  0  0  0  0  0
  190.2290  177.5080  145.2520 C   0  0  0  0  0  2  0  0  0  0  0  0
  187.5100  177.4260  146.1740 C   0  0  0  0  0  0  0  0  0  0  0  0
  185.3380  178.0320  144.4000 C   0  0  0  0  0  0  0  0  0  0  0  0
  186.6010  177.9680  143.9690 C   0  0  0  0  0  3  0  0  0  0  0  0
  189.0740  177.5880  144.3600 N   0  0  0  0  0  0  0  0  0  0  0  0
  187.7310  177.6600  144.8710 C   0  0  0  0  0  0  0  0  0  0  0  0
  189.8450  177.1010  146.6490 C   0  0  0  0  0  0  0  0  0  0  0  0
  189.3410  177.7220  142.9370 C   0  0  0  0  0  1  0  0  0  0  0  0
  197.0180  174.1310  144.9510 C   0  0  0  0  0  2  0  0  0  0  0  0
  196.8200  173.1880  143.8640 N   0  0  0  0  0  2  0  0  0  0  0  0
  196.1060  172.0550  144.4180 C   0  0  0  0  0  2  0  0  0  0  0  0
  194.9040  171.7410  143.5500 C   0  0  0  0  0  2  0  0  0  0  0  0
  194.2050  171.0630  145.7260 O   0  0  0  0  0  1  0  0  0  0  0  0
  193.8090  171.1080  144.3880 C   0  0  1  0  0  3  0  0  0  0  0  0
  192.5410  171.9300  144.2560 C   0  0  0  0  0  2  0  0  0  0  0  0
  191.8530  171.6130  142.9410 C   0  0  0  0  0  2  0  0  0  0  0  0
  190.5780  172.4330  142.7950 C   0  0  2  0  0  3  0  0  0  0  0  0
  190.3210  172.6490  141.4420 O   0  0  0  0  0  1  0  0  0  0  0  0
  190.7430  173.7750  143.4930 C   0  0  0  0  0  2  0  0  0  0  0  0
  189.6380  173.9830  144.5130 C   0  0  0  0  0  1  0  0  0  0  0  0
  1 12  1  0  0  0  0
  2  1  2  0  0  0  0
  4  3  2  0  0  0  0
  4  2  1  0  0  0  0
  5  8  1  0  0  0  0
  6 10  1  0  0  0  0
  7  6  2  0  0  0  0
  8 10  2  0  0  0  0
  9  7  1  0  0  0  0
 10  4  1  0  0  0  0
 11  5  2  0  0  0  0
 11  7  1  0  0  0  0
 13 14  2  0  0  0  0
 14 16  1  0  0  0  0
 15 12  1  0  0  0  0
 15 13  2  0  0  0  0
 17 21  1  0  0  0  0
 20 24  1  0  0  0  0
 21 19  2  0  0  0  0
 22 28  1  0  0  0  0
 23 21  1  0  0  0  0
 23 18  1  0  0  0  0
 24 17  1  0  0  0  0
 25 24  2  0  0  0  0
 25 27  1  0  0  0  0
 26 27  1  0  0  0  0
 26 22  1  0  0  0  0
 27 23  2  0  0  0  0
 28 18  2  0  0  0  0
 28 16  1  0  0  0  0
 29 26  1  0  0  0  0
 30  1  1  0  0  0  0
 31 32  1  0  0  0  0
 31 30  1  0  0  0  0
 33 35  1  0  0  0  0
 33 32  1  0  0  0  0
 35 34  1  1  0  0  0
 36 35  1  0  0  0  0
 37 36  1  0  0  0  0
 38 39  1  6  0  0  0
 38 37  1  0  0  0  0
 38 40  1  0  0  0  0
 40 41  1  0  0  0  0
M  END
>  <MODEL>
7

>  <REMARK>
 VINA RESULT:      -6.9      3.775     10.334
  Name = 
  15 active torsions:
  status: ('A' for Active; 'I' for Inactive)
    1  A    between atoms: C_8  and  C_23
    2  A    between atoms: C_8  and  C_31
    3  A    between atoms: C_9  and  C_41
    4  A    between atoms: C_11  and  C_16
    5  A    between atoms: C_11  and  N_19
    6  A    between atoms: C_14  and  C_25
    7  A    between atoms: C_14  and  C_34
    8  A    between atoms: C_16  and  C_38
    9  A    between atoms: N_19  and  C_36
   10  A    between atoms: C_23  and  C_36
   11  A    between atoms: C_27  and  C_30
   12  A    between atoms: C_28  and  C_34
   13  A    between atoms: C_28  and  C_38
   14  A    between atoms: C_30  and  N_32
   15  A    between atoms: C_39  and  C_41
                            x       y       z     vdW  Elec       q    Type
                         _______ _______ _______ _____ _____    ______ ____

>  <TORSDO>
F 15

$$$$
=
 OpenBabel11042419013D

 41 43  0  0  1  0  0  0  0  0999 V2000
  192.1040  172.2020  143.6310 C   0  0  0  0  0  0  0  0  0  0  0  0
  190.9610  172.0870  143.0170 N   0  0  0  0  0  0  0  0  0  0  0  0
  190.4480  170.0200  142.0130 O   0  0  0  0  0  0  0  0  0  0  0  0
  190.6430  171.2600  141.8830 C   0  0  0  0  0  0  0  0  0  0  0  0
  191.3840  172.2510  138.3330 C   0  0  0  0  0  3  0  0  0  0  0  0
  189.4910  172.6830  140.2560 N   0  0  0  0  0  0  0  0  0  0  0  0
  189.3630  173.2550  139.0300 C   0  0  0  0  0  0  0  0  0  0  0  0
  191.5290  171.6500  139.5830 C   0  0  0  0  0  3  0  0  0  0  0  0
  188.1980  174.1270  138.7400 C   0  0  0  0  0  1  0  0  0  0  0  0
  190.5510  171.8830  140.5530 C   0  0  0  0  0  0  0  0  0  0  0  0
  190.3070  173.0400  138.0790 N   0  0  0  0  0  0  0  0  0  0  0  0
  192.1850  173.1000  144.8250 C   0  0  0  0  0  2  0  0  0  0  0  0
  190.7190  174.5670  146.0990 C   0  0  0  0  0  0  0  0  0  0  0  0
  190.5790  175.2880  147.1730 C   0  0  0  0  0  3  0  0  0  0  0  0
  190.9120  173.8610  145.0160 C   0  0  0  0  0  3  0  0  0  0  0  0
  190.5440  176.7720  147.0730 C   0  0  0  0  0  2  0  0  0  0  0  0
  184.5370  178.4260  146.1240 C   0  0  0  0  0  2  0  0  0  0  0  0
  188.2110  177.3430  146.8160 N   0  0  0  0  0  0  0  0  0  0  0  0
  185.7330  177.7810  148.0780 O   0  0  0  0  0  0  0  0  0  0  0  0
  183.6100  179.0300  143.8600 N   0  0  0  0  0  1  0  0  0  0  0  0
  185.7800  177.9820  146.8370 C   0  0  0  0  0  0  0  0  0  0  0  0
  189.6010  177.5630  144.8110 C   0  0  0  0  0  2  0  0  0  0  0  0
  187.0460  177.7820  146.1050 C   0  0  0  0  0  0  0  0  0  0  0  0
  184.7240  178.6200  144.6420 C   0  0  0  0  0  0  0  0  0  0  0  0
  185.9000  178.4160  144.0400 C   0  0  0  0  0  3  0  0  0  0  0  0
  188.3470  177.7670  144.0880 N   0  0  0  0  0  0  0  0  0  0  0  0
  187.1050  177.9870  144.7800 C   0  0  0  0  0  0  0  0  0  0  0  0
  189.3750  177.2030  146.2550 C   0  0  0  0  0  0  0  0  0  0  0  0
  188.4240  177.8680  142.6390 C   0  0  0  0  0  1  0  0  0  0  0  0
  193.3160  171.4170  143.2390 C   0  0  0  0  0  2  0  0  0  0  0  0
  193.8650  170.7460  144.4040 N   0  0  0  0  0  2  0  0  0  0  0  0
  195.3040  170.9130  144.3430 C   0  0  0  0  0  2  0  0  0  0  0  0
  195.7740  171.6920  145.5560 C   0  0  0  0  0  2  0  0  0  0  0  0
  197.3660  172.3140  143.8940 O   0  0  0  0  0  1  0  0  0  0  0  0
  197.1100  172.3500  145.2660 C   0  0  1  0  0  3  0  0  0  0  0  0
  197.0720  173.7890  145.7430 C   0  0  0  0  0  2  0  0  0  0  0  0
  195.6370  174.2790  145.7940 C   0  0  0  0  0  2  0  0  0  0  0  0
  195.3300  175.1590  144.5900 C   0  0  2  0  0  3  0  0  0  0  0  0
  196.5200  175.6850  144.0870 O   0  0  0  0  0  1  0  0  0  0  0  0
  194.4150  176.3010  145.0040 C   0  0  0  0  0  2  0  0  0  0  0  0
  194.1910  176.2850  146.5060 C   0  0  0  0  0  1  0  0  0  0  0  0
  1 12  1  0  0  0  0
  2  1  2  0  0  0  0
  4  3  2  0  0  0  0
  4  2  1  0  0  0  0
  5  8  1  0  0  0  0
  6 10  1  0  0  0  0
  7  6  2  0  0  0  0
  8 10  2  0  0  0  0
  9  7  1  0  0  0  0
 10  4  1  0  0  0  0
 11  5  2  0  0  0  0
 11  7  1  0  0  0  0
 12 15  1  0  0  0  0
 13 14  2  0  0  0  0
 15 13  2  0  0  0  0
 16 14  1  0  0  0  0
 17 21  1  0  0  0  0
 20 24  1  0  0  0  0
 21 19  2  0  0  0  0
 22 28  1  0  0  0  0
 23 18  1  0  0  0  0
 23 21  1  0  0  0  0
 24 17  1  0  0  0  0
 25 24  2  0  0  0  0
 25 27  1  0  0  0  0
 26 27  1  0  0  0  0
 26 22  1  0  0  0  0
 27 23  2  0  0  0  0
 28 18  2  0  0  0  0
 28 16  1  0  0  0  0
 29 26  1  0  0  0  0
 30  1  1  0  0  0  0
 30 31  1  0  0  0  0
 32 31  1  0  0  0  0
 32 33  1  0  0  0  0
 35 34  1  6  0  0  0
 35 33  1  0  0  0  0
 35 36  1  0  0  0  0
 36 37  1  0  0  0  0
 38 39  1  1  0  0  0
 38 40  1  0  0  0  0
 38 37  1  0  0  0  0
 40 41  1  0  0  0  0
M  END
>  <MODEL>
8

>  <REMARK>
 VINA RESULT:      -6.9      3.876      9.198
  Name = 
  15 active torsions:
  status: ('A' for Active; 'I' for Inactive)
    1  A    between atoms: C_8  and  C_23
    2  A    between atoms: C_8  and  C_31
    3  A    between atoms: C_9  and  C_41
    4  A    between atoms: C_11  and  C_16
    5  A    between atoms: C_11  and  N_19
    6  A    between atoms: C_14  and  C_25
    7  A    between atoms: C_14  and  C_34
    8  A    between atoms: C_16  and  C_38
    9  A    between atoms: N_19  and  C_36
   10  A    between atoms: C_23  and  C_36
   11  A    between atoms: C_27  and  C_30
   12  A    between atoms: C_28  and  C_34
   13  A    between atoms: C_28  and  C_38
   14  A    between atoms: C_30  and  N_32
   15  A    between atoms: C_39  and  C_41
                            x       y       z     vdW  Elec       q    Type
                         _______ _______ _______ _____ _____    ______ ____

>  <TORSDO>
F 15

$$$$
=
 OpenBabel11042419013D

 41 43  0  0  1  0  0  0  0  0999 V2000
  192.1780  174.3960  144.9900 C   0  0  0  0  0  0  0  0  0  0  0  0
  192.9280  174.7220  146.0030 N   0  0  0  0  0  0  0  0  0  0  0  0
  193.9340  176.7950  146.4860 O   0  0  0  0  0  0  0  0  0  0  0  0
  194.0470  175.6260  146.0240 C   0  0  0  0  0  0  0  0  0  0  0  0
  197.2490  173.7170  145.5380 C   0  0  0  0  0  3  0  0  0  0  0  0
  195.8570  175.7620  144.3790 N   0  0  0  0  0  0  0  0  0  0  0  0
  197.0370  175.3500  143.8460 C   0  0  0  0  0  0  0  0  0  0  0  0
  196.0370  174.1210  146.0960 C   0  0  0  0  0  3  0  0  0  0  0  0
  197.5770  176.0220  142.6380 C   0  0  0  0  0  1  0  0  0  0  0  0
  195.3400  175.1690  145.4900 C   0  0  0  0  0  0  0  0  0  0  0  0
  197.7270  174.3350  144.4270 N   0  0  0  0  0  0  0  0  0  0  0  0
  191.0350  173.4600  145.2210 C   0  0  0  0  0  2  0  0  0  0  0  0
  189.3900  175.1560  145.8100 C   0  0  0  0  0  0  0  0  0  0  0  0
  189.1130  176.1740  146.5720 C   0  0  0  0  0  3  0  0  0  0  0  0
  189.7210  174.1530  145.0410 C   0  0  0  0  0  3  0  0  0  0  0  0
  189.0330  177.5400  145.9870 C   0  0  0  0  0  2  0  0  0  0  0  0
  185.2940  178.1340  140.9490 C   0  0  0  0  0  2  0  0  0  0  0  0
  187.7020  177.8060  143.9890 N   0  0  0  0  0  0  0  0  0  0  0  0
  187.6450  177.8380  141.1750 O   0  0  0  0  0  0  0  0  0  0  0  0
  182.8020  178.4670  141.1080 N   0  0  0  0  0  1  0  0  0  0  0  0
  186.5420  177.9680  141.7660 C   0  0  0  0  0  0  0  0  0  0  0  0
  186.4660  177.7070  146.1020 C   0  0  0  0  0  2  0  0  0  0  0  0
  186.4890  177.9530  143.2400 C   0  0  0  0  0  0  0  0  0  0  0  0
  184.0450  178.2910  141.7750 C   0  0  0  0  0  0  0  0  0  0  0  0
  184.0680  178.2730  143.1110 C   0  0  0  0  0  3  0  0  0  0  0  0
  185.2960  178.0980  145.3190 N   0  0  0  0  0  0  0  0  0  0  0  0
  185.3170  178.0970  143.8800 C   0  0  0  0  0  0  0  0  0  0  0  0
  187.7310  177.7230  145.2870 C   0  0  0  0  0  0  0  0  0  0  0  0
  184.0660  178.3650  146.0480 C   0  0  0  0  0  1  0  0  0  0  0  0
  192.3660  174.9770  143.6240 C   0  0  0  0  0  2  0  0  0  0  0  0
  192.4920  173.9080  142.6490 N   0  0  0  0  0  2  0  0  0  0  0  0
  191.5460  174.1970  141.5890 C   0  0  0  0  0  2  0  0  0  0  0  0
  190.5730  173.0420  141.4510 C   0  0  0  0  0  2  0  0  0  0  0  0
  189.1380  174.9390  141.6050 O   0  0  0  0  0  1  0  0  0  0  0  0
  189.1480  173.5430  141.5870 C   0  0  1  0  0  3  0  0  0  0  0  0
  188.3280  173.0400  140.4140 C   0  0  0  0  0  2  0  0  0  0  0  0
  188.9250  173.5410  139.1120 C   0  0  0  0  0  2  0  0  0  0  0  0
  188.9370  172.4320  138.0690 C   0  0  2  0  0  3  0  0  0  0  0  0
  189.4580  171.2700  138.6360 O   0  0  0  0  0  1  0  0  0  0  0  0
  189.8030  172.8440  136.8870 C   0  0  0  0  0  2  0  0  0  0  0  0
  189.6730  171.8370  135.7570 C   0  0  0  0  0  1  0  0  0  0  0  0
  1 12  1  0  0  0  0
  1  2  2  0  0  0  0
  2  4  1  0  0  0  0
  4  3  2  0  0  0  0
  5  8  1  0  0  0  0
  6 10  1  0  0  0  0
  7  6  2  0  0  0  0
  7 11  1  0  0  0  0
  9  7  1  0  0  0  0
 10  4  1  0  0  0  0
 10  8  2  0  0  0  0
 11  5  2  0  0  0  0
 13 14  2  0  0  0  0
 15 12  1  0  0  0  0
 15 13  2  0  0  0  0
 16 14  1  0  0  0  0
 17 21  1  0  0  0  0
 17 24  1  0  0  0  0
 18 28  2  0  0  0  0
 19 21  2  0  0  0  0
 20 24  1  0  0  0  0
 21 23  1  0  0  0  0
 23 27  2  0  0  0  0
 23 18  1  0  0  0  0
 24 25  2  0  0  0  0
 25 27  1  0  0  0  0
 26 29  1  0  0  0  0
 26 22  1  0  0  0  0
 27 26  1  0  0  0  0
 28 16  1  0  0  0  0
 28 22  1  0  0  0  0
 30  1  1  0  0  0  0
 31 30  1  0  0  0  0
 32 31  1  0  0  0  0
 33 35  1  0  0  0  0
 33 32  1  0  0  0  0
 35 34  1  6  0  0  0
 36 35  1  0  0  0  0
 37 36  1  0  0  0  0
 38 39  1  1  0  0  0
 38 37  1  0  0  0  0
 40 38  1  0  0  0  0
 41 40  1  0  0  0  0
M  END
>  <MODEL>
9

>  <REMARK>
 VINA RESULT:      -6.9      2.860     10.296
  Name = 
  15 active torsions:
  status: ('A' for Active; 'I' for Inactive)
    1  A    between atoms: C_8  and  C_23
    2  A    between atoms: C_8  and  C_31
    3  A    between atoms: C_9  and  C_41
    4  A    between atoms: C_11  and  C_16
    5  A    between atoms: C_11  and  N_19
    6  A    between atoms: C_14  and  C_25
    7  A    between atoms: C_14  and  C_34
    8  A    between atoms: C_16  and  C_38
    9  A    between atoms: N_19  and  C_36
   10  A    between atoms: C_23  and  C_36
   11  A    between atoms: C_27  and  C_30
   12  A    between atoms: C_28  and  C_34
   13  A    between atoms: C_28  and  C_38
   14  A    between atoms: C_30  and  N_32
   15  A    between atoms: C_39  and  C_41
                            x       y       z     vdW  Elec       q    Type
                         _______ _______ _______ _____ _____    ______ ____

>  <TORSDO>
F 15

$$$$
