=
 OpenBabel11042414583D

 39 40  0  0  1  0  0  0  0  0999 V2000
  191.9330  173.1870  140.7800 C   0  0  1  0  0  3  0  0  0  0  0  0
  192.0530  172.2670  139.5760 C   0  0  0  0  0  1  0  0  0  0  0  0
  190.3110  172.1510  142.2470 O   0  0  0  0  0  1  0  0  0  0  0  0
  190.4980  173.1690  141.3030 C   0  0  1  0  0  3  0  0  0  0  0  0
  190.0700  174.5150  141.8760 C   0  0  0  0  0  2  0  0  0  0  0  0
  187.9990  175.6210  142.7960 C   0  0  0  0  0  0  0  0  0  0  0  0
  186.5830  175.5830  143.0000 N   0  0  0  0  0  2  0  0  0  0  0  0
  188.6940  176.5500  143.2940 O   0  0  0  0  0  0  0  0  0  0  0  0
  188.6270  174.5760  142.0520 N   0  0  0  0  0  2  0  0  0  0  0  0
  185.5890  177.1320  144.6490 C   0  0  0  0  0  0  0  0  0  0  0  0
  185.7700  176.6890  143.4150 C   0  0  1  0  0  3  0  0  0  0  0  0
  186.1070  176.6570  145.8570 C   0  0  0  0  0  3  0  0  0  0  0  0
  184.7950  178.2510  144.6030 C   0  0  0  0  0  0  0  0  0  0  0  0
  185.7710  177.3410  147.0380 C   0  0  0  0  0  3  0  0  0  0  0  0
  185.0390  177.6100  142.4810 C   0  0  1  0  0  3  0  0  0  0  0  0
  184.9400  178.4780  146.9900 C   0  0  0  0  0  3  0  0  0  0  0  0
  184.4460  178.9470  145.7620 C   0  0  0  0  0  3  0  0  0  0  0  0
  184.4430  178.5790  143.4050 N   0  0  0  0  0  2  0  0  0  0  0  0
  185.9760  178.3140  141.5500 C   0  0  0  0  0  3  0  0  0  0  0  0
  186.5470  177.3400  139.2700 O   0  0  0  0  0  0  0  0  0  0  0  0
  186.2680  177.8110  140.3820 C   0  0  0  0  0  0  0  0  0  0  0  0
  192.8690  172.7670  141.8170 N   0  0  0  0  0  2  0  0  0  0  0  0
  194.0220  173.6560  141.7690 C   0  0  1  0  0  3  0  0  0  0  0  0
  193.6350  174.8910  141.2440 O   0  0  0  0  0  1  0  0  0  0  0  0
  194.5890  173.8480  143.1740 C   0  0  2  0  0  3  0  0  0  0  0  0
  194.9520  176.2320  143.4690 O   0  0  0  0  0  1  0  0  0  0  0  0
  192.2310  174.2620  144.6440 O   0  0  0  0  0  0  0  0  0  0  0  0
  194.1890  175.1420  143.7210 N   0  0  0  0  0  0  0  0  0  0  0  0
  193.0210  175.2400  144.5530 C   0  0  0  0  0  0  0  0  0  0  0  0
  192.7090  176.4850  145.3320 C   0  0  1  0  0  3  0  0  0  0  0  0
  191.7340  177.2560  144.6940 O   0  0  0  0  0  1  0  0  0  0  0  0
  192.3200  176.1870  146.7790 C   0  0  0  0  0  2  0  0  0  0  0  0
  190.9730  176.4750  147.0150 O   0  0  0  0  0  0  0  0  0  0  0  0
  189.2900  174.8250  146.7190 C   0  0  0  0  0  1  0  0  0  0  0  0
  190.4460  175.3070  147.5690 C   0  0  0  0  0  2  0  0  0  0  0  0
  196.0450  173.7560  143.1470 N   0  0  0  0  0  2  0  0  0  0  0  0
  196.4200  172.5900  143.9340 C   0  0  0  0  0  2  0  0  0  0  0  0
  197.1910  173.0230  145.1670 C   0  0  0  0  0  2  0  0  0  0  0  0
  197.5590  174.3640  145.0520 O   0  0  0  0  0  1  0  0  0  0  0  0
  1  2  1  6  0  0  0
  1  4  1  0  0  0  0
  1 22  1  0  0  0  0
  4  5  1  0  0  0  0
  4  3  1  1  0  0  0
  5  9  1  0  0  0  0
  6  7  1  0  0  0  0
  6  8  2  0  0  0  0
  9  6  1  0  0  0  0
 10 12  1  0  0  0  0
 11  7  1  6  0  0  0
 11 10  1  0  0  0  0
 12 14  2  0  0  0  0
 13 10  2  0  0  0  0
 13 17  1  0  0  0  0
 15 19  1  6  0  0  0
 15 18  1  0  0  0  0
 15 11  1  0  0  0  0
 16 14  1  0  0  0  0
 17 16  2  0  0  0  0
 18 13  1  0  0  0  0
 20 21  2  0  0  0  0
 21 19  2  0  0  0  0
 23 24  1  1  0  0  0
 23 22  1  0  0  0  0
 23 25  1  0  0  0  0
 25 36  1  6  0  0  0
 25 28  1  0  0  0  0
 26 28  1  0  0  0  0
 28 29  1  0  0  0  0
 29 27  2  0  0  0  0
 29 30  1  0  0  0  0
 30 31  1  6  0  0  0
 30 32  1  0  0  0  0
 32 33  1  0  0  0  0
 33 35  1  0  0  0  0
 34 35  1  0  0  0  0
 36 37  1  0  0  0  0
 37 38  1  0  0  0  0
 39 38  1  0  0  0  0
M  END
>  <MODEL>
1

>  <REMARK>
 VINA RESULT:      -6.2      0.000      0.000
  Name = 
  16 active torsions:
  status: ('A' for Active; 'I' for Inactive)
    1  A    between atoms: C_1  and  C_19
    2  A    between atoms: C_1  and  N_35
    3  A    between atoms: C_3  and  C_25
    4  A    between atoms: C_4  and  N_14
    5  A    between atoms: C_11  and  O_32
    6  A    between atoms: N_13  and  C_23
    7  A    between atoms: N_13  and  C_27
    8  A    between atoms: C_15  and  C_19
    9  A    between atoms: C_15  and  N_34
   10  A    between atoms: N_18  and  C_27
   11  A    between atoms: C_22  and  C_27
   12  A    between atoms: C_22  and  N_34
   13  A    between atoms: C_23  and  C_24
   14  A    between atoms: C_26  and  C_28
   15  A    between atoms: C_26  and  C_38
   16  A    between atoms: C_28  and  O_32
                            x       y       z     vdW  Elec       q    Type
                         _______ _______ _______ _____ _____    ______ ____

>  <TORSDO>
F 16

$$$$
=
 OpenBabel11042414583D

 39 40  0  0  1  0  0  0  0  0999 V2000
  186.2060  178.1770  146.4160 C   0  0  1  0  0  3  0  0  0  0  0  0
  185.5060  178.3310  147.7560 C   0  0  0  0  0  1  0  0  0  0  0  0
  187.3370  176.1290  147.0350 O   0  0  0  0  0  1  0  0  0  0  0  0
  187.5350  177.4480  146.6070 C   0  0  1  0  0  3  0  0  0  0  0  0
  188.4020  177.4800  145.3550 C   0  0  0  0  0  2  0  0  0  0  0  0
  190.4980  176.2160  144.7470 C   0  0  0  0  0  0  0  0  0  0  0  0
  191.1460  174.9570  144.5360 N   0  0  0  0  0  2  0  0  0  0  0  0
  191.1030  177.2980  144.5100 O   0  0  0  0  0  0  0  0  0  0  0  0
  189.1420  176.2370  145.1960 N   0  0  0  0  0  2  0  0  0  0  0  0
  193.3000  174.8680  143.3270 C   0  0  0  0  0  0  0  0  0  0  0  0
  192.5620  174.7580  144.4210 C   0  0  1  0  0  3  0  0  0  0  0  0
  192.9220  175.1830  142.0180 C   0  0  0  0  0  3  0  0  0  0  0  0
  194.6160  174.6640  143.6620 C   0  0  0  0  0  0  0  0  0  0  0  0
  193.9270  175.2610  141.0390 C   0  0  0  0  0  3  0  0  0  0  0  0
  193.4810  174.4700  145.5720 C   0  0  1  0  0  3  0  0  0  0  0  0
  195.2750  175.0330  141.3820 C   0  0  0  0  0  3  0  0  0  0  0  0
  195.6310  174.7340  142.7070 C   0  0  0  0  0  3  0  0  0  0  0  0
  194.7920  174.4310  144.9200 N   0  0  0  0  0  2  0  0  0  0  0  0
  193.4580  175.5680  146.5880 C   0  0  0  0  0  3  0  0  0  0  0  0
  194.7820  177.7130  146.2400 O   0  0  0  0  0  0  0  0  0  0  0  0
  194.1390  176.6670  146.4080 C   0  0  0  0  0  0  0  0  0  0  0  0
  185.3440  177.4520  145.4890 N   0  0  0  0  0  2  0  0  0  0  0  0
  184.7110  178.4250  144.6090 C   0  0  1  0  0  3  0  0  0  0  0  0
  185.4810  179.5900  144.5730 O   0  0  0  0  0  1  0  0  0  0  0  0
  184.5840  177.8470  143.2010 C   0  0  2  0  0  3  0  0  0  0  0  0
  186.3160  179.0800  142.0250 O   0  0  0  0  0  1  0  0  0  0  0  0
  186.2760  175.6270  142.8860 O   0  0  0  0  0  0  0  0  0  0  0  0
  185.8670  177.8960  142.5050 N   0  0  0  0  0  0  0  0  0  0  0  0
  186.6170  176.6880  142.2960 C   0  0  0  0  0  0  0  0  0  0  0  0
  187.8080  176.6450  141.3830 C   0  0  1  0  0  3  0  0  0  0  0  0
  188.8720  177.3910  141.8950 O   0  0  0  0  0  1  0  0  0  0  0  0
  188.2410  175.2180  141.0530 C   0  0  0  0  0  2  0  0  0  0  0  0
  189.4610  174.9030  141.6580 O   0  0  0  0  0  0  0  0  0  0  0  0
  188.8080  172.7660  142.4640 C   0  0  0  0  0  1  0  0  0  0  0  0
  189.6250  173.5320  141.4470 C   0  0  0  0  0  2  0  0  0  0  0  0
  183.5850  178.5890  142.4390 N   0  0  0  0  0  2  0  0  0  0  0  0
  183.5740  178.0410  141.0910 C   0  0  0  0  0  2  0  0  0  0  0  0
  182.1510  177.9810  140.5670 C   0  0  0  0  0  2  0  0  0  0  0  0
  181.3890  178.9990  141.1410 O   0  0  0  0  0  1  0  0  0  0  0  0
  1  4  1  0  0  0  0
  1  2  1  1  0  0  0
  4  3  1  6  0  0  0
  5  4  1  0  0  0  0
  6  9  1  0  0  0  0
  7  6  1  0  0  0  0
  8  6  2  0  0  0  0
  9  5  1  0  0  0  0
 10 13  1  0  0  0  0
 10 11  1  0  0  0  0
 11  7  1  1  0  0  0
 11 15  1  0  0  0  0
 12 10  2  0  0  0  0
 13 18  1  0  0  0  0
 14 16  2  0  0  0  0
 14 12  1  0  0  0  0
 15 19  1  1  0  0  0
 16 17  1  0  0  0  0
 17 13  2  0  0  0  0
 18 15  1  0  0  0  0
 20 21  2  0  0  0  0
 21 19  2  0  0  0  0
 22  1  1  0  0  0  0
 23 24  1  6  0  0  0
 23 22  1  0  0  0  0
 25 36  1  6  0  0  0
 25 23  1  0  0  0  0
 26 28  1  0  0  0  0
 28 25  1  0  0  0  0
 29 28  1  0  0  0  0
 29 27  2  0  0  0  0
 30 31  1  1  0  0  0
 30 29  1  0  0  0  0
 32 30  1  0  0  0  0
 32 33  1  0  0  0  0
 35 33  1  0  0  0  0
 35 34  1  0  0  0  0
 37 36  1  0  0  0  0
 38 37  1  0  0  0  0
 38 39  1  0  0  0  0
M  END
>  <MODEL>
2

>  <REMARK>
 VINA RESULT:      -6.0      2.356      9.435
  Name = 
  16 active torsions:
  status: ('A' for Active; 'I' for Inactive)
    1  A    between atoms: C_1  and  C_19
    2  A    between atoms: C_1  and  N_35
    3  A    between atoms: C_3  and  C_25
    4  A    between atoms: C_4  and  N_14
    5  A    between atoms: C_11  and  O_32
    6  A    between atoms: N_13  and  C_23
    7  A    between atoms: N_13  and  C_27
    8  A    between atoms: C_15  and  C_19
    9  A    between atoms: C_15  and  N_34
   10  A    between atoms: N_18  and  C_27
   11  A    between atoms: C_22  and  C_27
   12  A    between atoms: C_22  and  N_34
   13  A    between atoms: C_23  and  C_24
   14  A    between atoms: C_26  and  C_28
   15  A    between atoms: C_26  and  C_38
   16  A    between atoms: C_28  and  O_32
                            x       y       z     vdW  Elec       q    Type
                         _______ _______ _______ _____ _____    ______ ____

>  <TORSDO>
F 16

$$$$
=
 OpenBabel11042414583D

 39 40  0  0  1  0  0  0  0  0999 V2000
  192.2260  175.1530  145.5660 C   0  0  1  0  0  3  0  0  0  0  0  0
  191.9740  175.2870  147.0590 C   0  0  0  0  0  1  0  0  0  0  0  0
  193.8720  176.7740  144.8440 O   0  0  0  0  0  1  0  0  0  0  0  0
  192.4980  176.5300  144.9620 C   0  0  1  0  0  3  0  0  0  0  0  0
  191.8020  176.7250  143.6200 C   0  0  0  0  0  2  0  0  0  0  0  0
  189.3250  176.8320  144.0800 C   0  0  0  0  0  0  0  0  0  0  0  0
  188.0630  176.1580  144.1320 N   0  0  0  0  0  2  0  0  0  0  0  0
  189.4300  178.0290  144.4650 O   0  0  0  0  0  0  0  0  0  0  0  0
  190.4780  176.1230  143.6220 N   0  0  0  0  0  2  0  0  0  0  0  0
  186.2150  177.2780  145.3310 C   0  0  0  0  0  0  0  0  0  0  0  0
  186.7830  176.7950  144.2370 C   0  0  1  0  0  3  0  0  0  0  0  0
  186.6780  177.2910  146.6500 C   0  0  0  0  0  3  0  0  0  0  0  0
  185.0230  177.8650  144.9860 C   0  0  0  0  0  0  0  0  0  0  0  0
  185.8740  177.9010  147.6290 C   0  0  0  0  0  3  0  0  0  0  0  0
  185.8860  177.1080  143.0730 C   0  0  1  0  0  3  0  0  0  0  0  0
  184.6430  178.4870  147.2740 C   0  0  0  0  0  3  0  0  0  0  0  0
  184.2070  178.4760  145.9390 C   0  0  0  0  0  3  0  0  0  0  0  0
  184.7710  177.8040  143.7210 N   0  0  0  0  0  2  0  0  0  0  0  0
  186.5490  178.0240  142.0940 C   0  0  0  0  0  3  0  0  0  0  0  0
  186.7070  177.4230  139.6260 O   0  0  0  0  0  0  0  0  0  0  0  0
  186.6300  177.7130  140.8290 C   0  0  0  0  0  0  0  0  0  0  0  0
  193.3500  174.2530  145.3330 N   0  0  0  0  0  2  0  0  0  0  0  0
  192.8890  173.1720  144.4720 C   0  0  1  0  0  3  0  0  0  0  0  0
  191.5150  172.9910  144.6470 O   0  0  0  0  0  1  0  0  0  0  0  0
  193.1820  173.5100  143.0120 C   0  0  2  0  0  3  0  0  0  0  0  0
  193.3140  171.2360  142.1650 O   0  0  0  0  0  1  0  0  0  0  0  0
  190.9740  173.7740  141.2960 O   0  0  0  0  0  0  0  0  0  0  0  0
  192.7080  172.4470  142.1300 N   0  0  0  0  0  0  0  0  0  0  0  0
  191.6370  172.7050  141.2060 C   0  0  0  0  0  0  0  0  0  0  0  0
  191.2800  171.7330  140.1190 C   0  0  1  0  0  3  0  0  0  0  0  0
  190.4350  170.7260  140.5920 O   0  0  0  0  0  1  0  0  0  0  0  0
  190.6880  172.4210  138.8900 C   0  0  0  0  0  2  0  0  0  0  0  0
  191.0920  171.7910  137.7100 O   0  0  0  0  0  0  0  0  0  0  0  0
  189.6470  171.1420  135.9390 C   0  0  0  0  0  1  0  0  0  0  0  0
  190.2390  172.2930  136.7240 C   0  0  0  0  0  2  0  0  0  0  0  0
  194.6150  173.7050  142.8180 N   0  0  0  0  0  2  0  0  0  0  0  0
  194.7820  174.8830  141.9800 C   0  0  0  0  0  2  0  0  0  0  0  0
  196.0910  175.5750  142.3120 C   0  0  0  0  0  2  0  0  0  0  0  0
  196.0970  176.8630  141.7760 O   0  0  0  0  0  1  0  0  0  0  0  0
  1  2  1  1  0  0  0
  4  3  1  6  0  0  0
  4  1  1  0  0  0  0
  5  9  1  0  0  0  0
  5  4  1  0  0  0  0
  6  7  1  0  0  0  0
  6  8  2  0  0  0  0
  9  6  1  0  0  0  0
 10 12  1  0  0  0  0
 11  7  1  6  0  0  0
 11 10  1  0  0  0  0
 12 14  2  0  0  0  0
 13 10  2  0  0  0  0
 13 17  1  0  0  0  0
 15 19  1  6  0  0  0
 15 18  1  0  0  0  0
 15 11  1  0  0  0  0
 16 14  1  0  0  0  0
 17 16  2  0  0  0  0
 18 13  1  0  0  0  0
 20 21  2  0  0  0  0
 21 19  2  0  0  0  0
 22  1  1  0  0  0  0
 23 24  1  6  0  0  0
 23 22  1  0  0  0  0
 25 36  1  1  0  0  0
 25 23  1  0  0  0  0
 28 26  1  0  0  0  0
 28 25  1  0  0  0  0
 29 27  2  0  0  0  0
 29 28  1  0  0  0  0
 30 31  1  1  0  0  0
 30 29  1  0  0  0  0
 32 30  1  0  0  0  0
 33 32  1  0  0  0  0
 34 35  1  0  0  0  0
 35 33  1  0  0  0  0
 37 38  1  0  0  0  0
 37 36  1  0  0  0  0
 39 38  1  0  0  0  0
M  END
>  <MODEL>
3

>  <REMARK>
 VINA RESULT:      -5.9      1.906      4.877
  Name = 
  16 active torsions:
  status: ('A' for Active; 'I' for Inactive)
    1  A    between atoms: C_1  and  C_19
    2  A    between atoms: C_1  and  N_35
    3  A    between atoms: C_3  and  C_25
    4  A    between atoms: C_4  and  N_14
    5  A    between atoms: C_11  and  O_32
    6  A    between atoms: N_13  and  C_23
    7  A    between atoms: N_13  and  C_27
    8  A    between atoms: C_15  and  C_19
    9  A    between atoms: C_15  and  N_34
   10  A    between atoms: N_18  and  C_27
   11  A    between atoms: C_22  and  C_27
   12  A    between atoms: C_22  and  N_34
   13  A    between atoms: C_23  and  C_24
   14  A    between atoms: C_26  and  C_28
   15  A    between atoms: C_26  and  C_38
   16  A    between atoms: C_28  and  O_32
                            x       y       z     vdW  Elec       q    Type
                         _______ _______ _______ _____ _____    ______ ____

>  <TORSDO>
F 16

$$$$
=
 OpenBabel11042414583D

 39 40  0  0  1  0  0  0  0  0999 V2000
  192.6170  174.7380  144.8790 C   0  0  1  0  0  3  0  0  0  0  0  0
  193.1770  175.0860  146.2490 C   0  0  0  0  0  1  0  0  0  0  0  0
  193.5570  175.1710  142.6910 O   0  0  0  0  0  1  0  0  0  0  0  0
  193.0700  175.7780  143.8560 C   0  0  1  0  0  3  0  0  0  0  0  0
  191.9720  176.7800  143.5190 C   0  0  0  0  0  2  0  0  0  0  0  0
  189.4950  176.8270  143.9850 C   0  0  0  0  0  0  0  0  0  0  0  0
  188.2500  176.1230  144.0420 N   0  0  0  0  0  2  0  0  0  0  0  0
  189.5710  178.0280  144.3680 O   0  0  0  0  0  0  0  0  0  0  0  0
  190.6620  176.1460  143.5260 N   0  0  0  0  0  2  0  0  0  0  0  0
  186.3720  177.1870  145.2460 C   0  0  0  0  0  0  0  0  0  0  0  0
  186.9540  176.7290  144.1490 C   0  0  1  0  0  3  0  0  0  0  0  0
  186.8290  177.1980  146.5670 C   0  0  0  0  0  3  0  0  0  0  0  0
  185.1670  177.7510  144.9020 C   0  0  0  0  0  0  0  0  0  0  0  0
  186.0090  177.7790  147.5490 C   0  0  0  0  0  3  0  0  0  0  0  0
  186.0540  177.0330  142.9860 C   0  0  1  0  0  3  0  0  0  0  0  0
  184.7650  178.3400  147.1960 C   0  0  0  0  0  3  0  0  0  0  0  0
  184.3340  178.3320  145.8590 C   0  0  0  0  0  3  0  0  0  0  0  0
  184.9210  177.6970  143.6360 N   0  0  0  0  0  2  0  0  0  0  0  0
  186.6990  177.9740  142.0180 C   0  0  0  0  0  3  0  0  0  0  0  0
  186.5780  177.5720  139.5080 O   0  0  0  0  0  0  0  0  0  0  0  0
  186.6360  177.7640  140.7310 C   0  0  0  0  0  0  0  0  0  0  0  0
  193.0570  173.4020  144.4910 N   0  0  0  0  0  2  0  0  0  0  0  0
  191.8830  172.5410  144.4380 C   0  0  1  0  0  3  0  0  0  0  0  0
  190.7580  173.2600  144.8490 O   0  0  0  0  0  1  0  0  0  0  0  0
  191.6760  172.0310  143.0140 C   0  0  2  0  0  3  0  0  0  0  0  0
  189.2770  171.6580  143.1140 O   0  0  0  0  0  1  0  0  0  0  0  0
  191.0570  173.9810  141.0880 O   0  0  0  0  0  0  0  0  0  0  0  0
  190.3200  172.3170  142.5540 N   0  0  0  0  0  0  0  0  0  0  0  0
  190.1060  173.2560  141.4870 C   0  0  0  0  0  0  0  0  0  0  0  0
  188.7700  173.4000  140.8180 C   0  0  1  0  0  3  0  0  0  0  0  0
  188.3040  174.7150  140.8850 O   0  0  0  0  0  1  0  0  0  0  0  0
  188.7780  172.8890  139.3780 C   0  0  0  0  0  2  0  0  0  0  0  0
  189.3050  171.5970  139.2990 O   0  0  0  0  0  0  0  0  0  0  0  0
  189.7970  169.9400  137.6690 C   0  0  0  0  0  1  0  0  0  0  0  0
  189.6140  171.4160  137.9490 C   0  0  0  0  0  2  0  0  0  0  0  0
  191.9220  170.5940  142.9510 N   0  0  0  0  0  2  0  0  0  0  0  0
  192.4500  170.3020  141.6270 C   0  0  0  0  0  2  0  0  0  0  0  0
  193.5160  171.3180  141.2580 C   0  0  0  0  0  2  0  0  0  0  0  0
  193.5740  171.4620  139.8710 O   0  0  0  0  0  1  0  0  0  0  0  0
  1  2  1  1  0  0  0
  4  3  1  6  0  0  0
  4  1  1  0  0  0  0
  5  9  1  0  0  0  0
  5  4  1  0  0  0  0
  6  7  1  0  0  0  0
  6  8  2  0  0  0  0
  9  6  1  0  0  0  0
 10 12  1  0  0  0  0
 11  7  1  6  0  0  0
 11 10  1  0  0  0  0
 12 14  2  0  0  0  0
 13 10  2  0  0  0  0
 13 17  1  0  0  0  0
 15 19  1  6  0  0  0
 15 18  1  0  0  0  0
 15 11  1  0  0  0  0
 16 14  1  0  0  0  0
 17 16  2  0  0  0  0
 18 13  1  0  0  0  0
 20 21  2  0  0  0  0
 21 19  2  0  0  0  0
 22  1  1  0  0  0  0
 23 22  1  0  0  0  0
 23 24  1  6  0  0  0
 25 36  1  1  0  0  0
 25 23  1  0  0  0  0
 27 29  2  0  0  0  0
 28 25  1  0  0  0  0
 28 26  1  0  0  0  0
 29 28  1  0  0  0  0
 30 31  1  6  0  0  0
 30 29  1  0  0  0  0
 32 30  1  0  0  0  0
 33 32  1  0  0  0  0
 34 35  1  0  0  0  0
 35 33  1  0  0  0  0
 37 36  1  0  0  0  0
 38 37  1  0  0  0  0
 39 38  1  0  0  0  0
M  END
>  <MODEL>
4

>  <REMARK>
 VINA RESULT:      -5.9      2.196      4.855
  Name = 
  16 active torsions:
  status: ('A' for Active; 'I' for Inactive)
    1  A    between atoms: C_1  and  C_19
    2  A    between atoms: C_1  and  N_35
    3  A    between atoms: C_3  and  C_25
    4  A    between atoms: C_4  and  N_14
    5  A    between atoms: C_11  and  O_32
    6  A    between atoms: N_13  and  C_23
    7  A    between atoms: N_13  and  C_27
    8  A    between atoms: C_15  and  C_19
    9  A    between atoms: C_15  and  N_34
   10  A    between atoms: N_18  and  C_27
   11  A    between atoms: C_22  and  C_27
   12  A    between atoms: C_22  and  N_34
   13  A    between atoms: C_23  and  C_24
   14  A    between atoms: C_26  and  C_28
   15  A    between atoms: C_26  and  C_38
   16  A    between atoms: C_28  and  O_32
                            x       y       z     vdW  Elec       q    Type
                         _______ _______ _______ _____ _____    ______ ____

>  <TORSDO>
F 16

$$$$
=
 OpenBabel11042414583D

 39 40  0  0  1  0  0  0  0  0999 V2000
  193.0660  173.4180  145.0730 C   0  0  1  0  0  3  0  0  0  0  0  0
  194.3220  172.6390  145.4280 C   0  0  0  0  0  1  0  0  0  0  0  0
  193.3220  175.7780  144.6000 O   0  0  0  0  0  1  0  0  0  0  0  0
  193.1660  174.8390  145.6280 C   0  0  1  0  0  3  0  0  0  0  0  0
  191.9780  175.2040  146.5110 C   0  0  0  0  0  2  0  0  0  0  0  0
  189.8240  176.0700  145.5270 C   0  0  0  0  0  0  0  0  0  0  0  0
  189.1220  177.1310  144.8710 N   0  0  0  0  0  2  0  0  0  0  0  0
  189.2610  174.9600  145.7350 O   0  0  0  0  0  0  0  0  0  0  0  0
  191.1850  176.2670  145.9120 N   0  0  0  0  0  2  0  0  0  0  0  0
  186.8220  177.5880  145.6520 C   0  0  0  0  0  0  0  0  0  0  0  0
  187.6980  177.2240  144.7280 C   0  0  1  0  0  3  0  0  0  0  0  0
  187.0260  177.9580  146.9840 C   0  0  0  0  0  3  0  0  0  0  0  0
  185.5700  177.6100  145.0870 C   0  0  0  0  0  0  0  0  0  0  0  0
  185.9060  178.3310  147.7480 C   0  0  0  0  0  3  0  0  0  0  0  0
  186.9510  177.0020  143.4440 C   0  0  1  0  0  3  0  0  0  0  0  0
  184.6210  178.3350  147.1700 C   0  0  0  0  0  3  0  0  0  0  0  0
  184.4430  177.9750  145.8250 C   0  0  0  0  0  3  0  0  0  0  0  0
  185.5680  177.2860  143.8370 N   0  0  0  0  0  2  0  0  0  0  0  0
  187.3790  177.9630  142.3810 C   0  0  0  0  0  3  0  0  0  0  0  0
  186.7980  177.5690  139.9360 O   0  0  0  0  0  0  0  0  0  0  0  0
  187.0810  177.7580  141.1270 C   0  0  0  0  0  0  0  0  0  0  0  0
  192.8900  173.4370  143.6250 N   0  0  0  0  0  2  0  0  0  0  0  0
  191.8280  172.4970  143.2900 C   0  0  1  0  0  3  0  0  0  0  0  0
  191.0480  172.2530  144.4220 O   0  0  0  0  0  1  0  0  0  0  0  0
  190.9560  173.0740  142.1770 C   0  0  2  0  0  3  0  0  0  0  0  0
  192.5490  173.8510  140.5150 O   0  0  0  0  0  1  0  0  0  0  0  0
  190.4990  170.9430  140.4030 O   0  0  0  0  0  0  0  0  0  0  0  0
  191.6160  172.9400  140.8810 N   0  0  0  0  0  0  0  0  0  0  0  0
  191.2410  171.8750  139.9910 C   0  0  0  0  0  0  0  0  0  0  0  0
  191.7070  171.8380  138.5640 C   0  0  1  0  0  3  0  0  0  0  0  0
  192.1890  170.5740  138.2160 O   0  0  0  0  0  1  0  0  0  0  0  0
  190.6320  172.3090  137.5860 C   0  0  0  0  0  2  0  0  0  0  0  0
  190.7710  173.6680  137.2910 O   0  0  0  0  0  0  0  0  0  0  0  0
  188.5160  174.0810  137.9120 C   0  0  0  0  0  1  0  0  0  0  0  0
  189.5280  174.0570  136.7870 C   0  0  0  0  0  2  0  0  0  0  0  0
  190.6700  174.4800  142.4380 N   0  0  0  0  0  2  0  0  0  0  0  0
  189.4120  174.7960  141.7770 C   0  0  0  0  0  2  0  0  0  0  0  0
  188.3250  173.8490  142.2510 C   0  0  0  0  0  2  0  0  0  0  0  0
  187.8960  173.0490  141.1900 O   0  0  0  0  0  1  0  0  0  0  0  0
  1  2  1  6  0  0  0
  1  4  1  0  0  0  0
  4  3  1  6  0  0  0
  4  5  1  0  0  0  0
  6  8  2  0  0  0  0
  6  9  1  0  0  0  0
  7  6  1  0  0  0  0
  9  5  1  0  0  0  0
 10 12  1  0  0  0  0
 11  7  1  6  0  0  0
 11 10  1  0  0  0  0
 12 14  2  0  0  0  0
 13 10  2  0  0  0  0
 13 17  1  0  0  0  0
 15 19  1  6  0  0  0
 15 18  1  0  0  0  0
 15 11  1  0  0  0  0
 16 14  1  0  0  0  0
 17 16  2  0  0  0  0
 18 13  1  0  0  0  0
 20 21  2  0  0  0  0
 21 19  2  0  0  0  0
 22  1  1  0  0  0  0
 23 22  1  0  0  0  0
 23 24  1  1  0  0  0
 25 36  1  1  0  0  0
 25 23  1  0  0  0  0
 26 28  1  0  0  0  0
 28 25  1  0  0  0  0
 29 27  2  0  0  0  0
 29 28  1  0  0  0  0
 30 31  1  6  0  0  0
 30 29  1  0  0  0  0
 32 30  1  0  0  0  0
 33 32  1  0  0  0  0
 35 33  1  0  0  0  0
 35 34  1  0  0  0  0
 37 38  1  0  0  0  0
 37 36  1  0  0  0  0
 39 38  1  0  0  0  0
M  END
>  <MODEL>
5

>  <REMARK>
 VINA RESULT:      -5.9      2.295      5.611
  Name = 
  16 active torsions:
  status: ('A' for Active; 'I' for Inactive)
    1  A    between atoms: C_1  and  C_19
    2  A    between atoms: C_1  and  N_35
    3  A    between atoms: C_3  and  C_25
    4  A    between atoms: C_4  and  N_14
    5  A    between atoms: C_11  and  O_32
    6  A    between atoms: N_13  and  C_23
    7  A    between atoms: N_13  and  C_27
    8  A    between atoms: C_15  and  C_19
    9  A    between atoms: C_15  and  N_34
   10  A    between atoms: N_18  and  C_27
   11  A    between atoms: C_22  and  C_27
   12  A    between atoms: C_22  and  N_34
   13  A    between atoms: C_23  and  C_24
   14  A    between atoms: C_26  and  C_28
   15  A    between atoms: C_26  and  C_38
   16  A    between atoms: C_28  and  O_32
                            x       y       z     vdW  Elec       q    Type
                         _______ _______ _______ _____ _____    ______ ____

>  <TORSDO>
F 16

$$$$
=
 OpenBabel11042414583D

 39 40  0  0  1  0  0  0  0  0999 V2000
  190.5660  172.4790  141.2190 C   0  0  1  0  0  3  0  0  0  0  0  0
  189.8600  171.6370  142.2690 C   0  0  0  0  0  1  0  0  0  0  0  0
  188.3350  172.6800  140.3030 O   0  0  0  0  0  1  0  0  0  0  0  0
  189.5490  173.3540  140.4880 C   0  0  1  0  0  3  0  0  0  0  0  0
  189.3190  174.6890  141.1880 C   0  0  0  0  0  2  0  0  0  0  0  0
  187.5770  175.8190  142.6190 C   0  0  0  0  0  0  0  0  0  0  0  0
  186.2620  175.8010  143.1830 N   0  0  0  0  0  2  0  0  0  0  0  0
  188.3930  176.7320  142.9230 O   0  0  0  0  0  0  0  0  0  0  0  0
  187.9720  174.7710  141.7330 N   0  0  0  0  0  2  0  0  0  0  0  0
  185.6900  177.2990  145.0640 C   0  0  0  0  0  0  0  0  0  0  0  0
  185.6040  176.9160  143.7990 C   0  0  1  0  0  3  0  0  0  0  0  0
  186.4080  176.7380  146.1240 C   0  0  0  0  0  3  0  0  0  0  0  0
  184.9610  178.4510  145.2250 C   0  0  0  0  0  0  0  0  0  0  0  0
  186.3440  177.3700  147.3770 C   0  0  0  0  0  3  0  0  0  0  0  0
  184.7530  177.9160  143.0700 C   0  0  1  0  0  3  0  0  0  0  0  0
  185.5800  178.5430  147.5440 C   0  0  0  0  0  3  0  0  0  0  0  0
  184.8800  179.0970  146.4600 C   0  0  0  0  0  3  0  0  0  0  0  0
  184.4000  178.8580  144.1360 N   0  0  0  0  0  2  0  0  0  0  0  0
  185.5260  178.6290  142.0060 C   0  0  0  0  0  3  0  0  0  0  0  0
  185.7600  177.6510  139.6680 O   0  0  0  0  0  0  0  0  0  0  0  0
  185.6460  178.1240  140.8080 C   0  0  0  0  0  0  0  0  0  0  0  0
  191.5940  173.2970  141.8530 N   0  0  0  0  0  2  0  0  0  0  0  0
  191.7200  172.8670  143.2390 C   0  0  1  0  0  3  0  0  0  0  0  0
  193.0100  172.3820  143.4610 O   0  0  0  0  0  1  0  0  0  0  0  0
  191.4420  174.0420  144.1750 C   0  0  2  0  0  3  0  0  0  0  0  0
  193.1360  174.0590  145.9170 O   0  0  0  0  0  1  0  0  0  0  0  0
  193.0620  175.9530  142.9040 O   0  0  0  0  0  0  0  0  0  0  0  0
  192.6860  174.5570  144.7400 N   0  0  0  0  0  0  0  0  0  0  0  0
  193.3950  175.6140  144.0720 C   0  0  0  0  0  0  0  0  0  0  0  0
  194.5330  176.3400  144.7290 C   0  0  1  0  0  3  0  0  0  0  0  0
  194.4130  176.3250  146.1200 O   0  0  0  0  0  1  0  0  0  0  0  0
  195.8970  175.8140  144.2860 C   0  0  0  0  0  2  0  0  0  0  0  0
  196.4610  174.9790  145.2550 O   0  0  0  0  0  0  0  0  0  0  0  0
  196.9400  172.6950  145.6960 C   0  0  0  0  0  1  0  0  0  0  0  0
  196.2410  173.6820  144.7870 C   0  0  0  0  0  2  0  0  0  0  0  0
  190.5480  173.6290  145.2510 N   0  0  0  0  0  2  0  0  0  0  0  0
  189.7320  174.7820  145.6030 C   0  0  0  0  0  2  0  0  0  0  0  0
  189.5190  174.8280  147.1050 C   0  0  0  0  0  2  0  0  0  0  0  0
  190.6820  175.2700  147.7360 O   0  0  0  0  0  1  0  0  0  0  0  0
  1 22  1  0  0  0  0
  1  2  1  1  0  0  0
  4  3  1  1  0  0  0
  4  5  1  0  0  0  0
  4  1  1  0  0  0  0
  5  9  1  0  0  0  0
  6  8  2  0  0  0  0
  6  7  1  0  0  0  0
  9  6  1  0  0  0  0
 10 13  2  0  0  0  0
 10 12  1  0  0  0  0
 11  7  1  6  0  0  0
 11 10  1  0  0  0  0
 12 14  2  0  0  0  0
 13 17  1  0  0  0  0
 14 16  1  0  0  0  0
 15 19  1  6  0  0  0
 15 11  1  0  0  0  0
 15 18  1  0  0  0  0
 17 16  2  0  0  0  0
 18 13  1  0  0  0  0
 20 21  2  0  0  0  0
 21 19  2  0  0  0  0
 22 23  1  0  0  0  0
 23 24  1  6  0  0  0
 23 25  1  0  0  0  0
 25 28  1  0  0  0  0
 25 36  1  1  0  0  0
 27 29  2  0  0  0  0
 28 26  1  0  0  0  0
 29 30  1  0  0  0  0
 29 28  1  0  0  0  0
 30 31  1  1  0  0  0
 32 30  1  0  0  0  0
 32 33  1  0  0  0  0
 35 33  1  0  0  0  0
 35 34  1  0  0  0  0
 36 37  1  0  0  0  0
 37 38  1  0  0  0  0
 38 39  1  0  0  0  0
M  END
>  <MODEL>
6

>  <REMARK>
 VINA RESULT:      -5.8      1.560      3.490
  Name = 
  16 active torsions:
  status: ('A' for Active; 'I' for Inactive)
    1  A    between atoms: C_1  and  C_19
    2  A    between atoms: C_1  and  N_35
    3  A    between atoms: C_3  and  C_25
    4  A    between atoms: C_4  and  N_14
    5  A    between atoms: C_11  and  O_32
    6  A    between atoms: N_13  and  C_23
    7  A    between atoms: N_13  and  C_27
    8  A    between atoms: C_15  and  C_19
    9  A    between atoms: C_15  and  N_34
   10  A    between atoms: N_18  and  C_27
   11  A    between atoms: C_22  and  C_27
   12  A    between atoms: C_22  and  N_34
   13  A    between atoms: C_23  and  C_24
   14  A    between atoms: C_26  and  C_28
   15  A    between atoms: C_26  and  C_38
   16  A    between atoms: C_28  and  O_32
                            x       y       z     vdW  Elec       q    Type
                         _______ _______ _______ _____ _____    ______ ____

>  <TORSDO>
F 16

$$$$
=
 OpenBabel11042414583D

 39 40  0  0  1  0  0  0  0  0999 V2000
  189.2860  172.7570  141.0680 C   0  0  1  0  0  3  0  0  0  0  0  0
  188.3920  172.8290  139.8420 C   0  0  0  0  0  1  0  0  0  0  0  0
  190.5490  171.5020  139.4280 O   0  0  0  0  0  1  0  0  0  0  0  0
  190.6000  172.0630  140.7110 C   0  0  1  0  0  3  0  0  0  0  0  0
  191.8030  172.9890  140.8420 C   0  0  0  0  0  2  0  0  0  0  0  0
  192.7990  174.0930  142.8790 C   0  0  0  0  0  0  0  0  0  0  0  0
  193.4240  173.9560  144.1590 N   0  0  0  0  0  2  0  0  0  0  0  0
  192.6540  175.2320  142.3540 O   0  0  0  0  0  0  0  0  0  0  0  0
  192.3720  172.9230  142.1800 N   0  0  0  0  0  2  0  0  0  0  0  0
  192.7160  175.4270  146.0150 C   0  0  0  0  0  0  0  0  0  0  0  0
  193.5970  175.0070  145.1190 C   0  0  1  0  0  3  0  0  0  0  0  0
  191.4110  174.9920  146.2620 C   0  0  0  0  0  3  0  0  0  0  0  0
  193.3020  176.4040  146.7830 C   0  0  0  0  0  0  0  0  0  0  0  0
  190.6960  175.6010  147.3070 C   0  0  0  0  0  3  0  0  0  0  0  0
  194.8730  175.7690  145.3320 C   0  0  1  0  0  3  0  0  0  0  0  0
  191.2940  176.6160  148.0820 C   0  0  0  0  0  3  0  0  0  0  0  0
  192.6120  177.0240  147.8250 C   0  0  0  0  0  3  0  0  0  0  0  0
  194.5250  176.6510  146.4500 N   0  0  0  0  0  2  0  0  0  0  0  0
  195.9960  174.8670  145.7340 C   0  0  0  0  0  3  0  0  0  0  0  0
  197.5260  173.8110  143.9970 O   0  0  0  0  0  0  0  0  0  0  0  0
  196.7780  174.3250  144.8410 C   0  0  0  0  0  0  0  0  0  0  0  0
  189.5320  174.1010  141.5800 N   0  0  0  0  0  2  0  0  0  0  0  0
  188.7390  174.2720  142.7900 C   0  0  1  0  0  3  0  0  0  0  0  0
  189.3360  173.5730  143.8410 O   0  0  0  0  0  1  0  0  0  0  0  0
  188.6460  175.7550  143.1440 C   0  0  2  0  0  3  0  0  0  0  0  0
  186.2740  175.9670  142.6590 O   0  0  0  0  0  1  0  0  0  0  0  0
  187.9550  176.6030  145.7320 O   0  0  0  0  0  0  0  0  0  0  0  0
  187.2870  176.1060  143.5480 N   0  0  0  0  0  0  0  0  0  0  0  0
  187.0420  176.6340  144.8630 C   0  0  0  0  0  0  0  0  0  0  0  0
  185.7180  177.2340  145.2390 C   0  0  1  0  0  3  0  0  0  0  0  0
  185.2810  176.7700  146.4810 O   0  0  0  0  0  1  0  0  0  0  0  0
  185.7340  178.7610  145.1920 C   0  0  0  0  0  2  0  0  0  0  0  0
  185.4220  179.2360  143.9150 O   0  0  0  0  0  0  0  0  0  0  0  0
  183.6810  178.3190  142.5850 C   0  0  0  0  0  1  0  0  0  0  0  0
  184.0340  179.1230  143.8180 C   0  0  0  0  0  2  0  0  0  0  0  0
  189.0440  176.5720  142.0030 N   0  0  0  0  0  2  0  0  0  0  0  0
  189.5210  177.8430  142.5270 C   0  0  0  0  0  2  0  0  0  0  0  0
  190.6810  177.6110  143.4780 C   0  0  0  0  0  2  0  0  0  0  0  0
  191.3050  178.8240  143.7710 O   0  0  0  0  0  1  0  0  0  0  0  0
  1  2  1  6  0  0  0
  1 22  1  0  0  0  0
  4  3  1  6  0  0  0
  4  5  1  0  0  0  0
  4  1  1  0  0  0  0
  5  9  1  0  0  0  0
  6  7  1  0  0  0  0
  8  6  2  0  0  0  0
  9  6  1  0  0  0  0
 10 12  2  0  0  0  0
 10 13  1  0  0  0  0
 11  7  1  1  0  0  0
 11 15  1  0  0  0  0
 11 10  1  0  0  0  0
 12 14  1  0  0  0  0
 13 17  2  0  0  0  0
 14 16  2  0  0  0  0
 15 19  1  1  0  0  0
 15 18  1  0  0  0  0
 17 16  1  0  0  0  0
 18 13  1  0  0  0  0
 20 21  2  0  0  0  0
 21 19  2  0  0  0  0
 22 23  1  0  0  0  0
 23 25  1  0  0  0  0
 23 24  1  1  0  0  0
 25 36  1  6  0  0  0
 25 28  1  0  0  0  0
 26 28  1  0  0  0  0
 28 29  1  0  0  0  0
 29 30  1  0  0  0  0
 29 27  2  0  0  0  0
 30 31  1  1  0  0  0
 32 30  1  0  0  0  0
 33 32  1  0  0  0  0
 34 35  1  0  0  0  0
 35 33  1  0  0  0  0
 36 37  1  0  0  0  0
 37 38  1  0  0  0  0
 38 39  1  0  0  0  0
M  END
>  <MODEL>
7

>  <REMARK>
 VINA RESULT:      -5.8      1.995      7.275
  Name = 
  16 active torsions:
  status: ('A' for Active; 'I' for Inactive)
    1  A    between atoms: C_1  and  C_19
    2  A    between atoms: C_1  and  N_35
    3  A    between atoms: C_3  and  C_25
    4  A    between atoms: C_4  and  N_14
    5  A    between atoms: C_11  and  O_32
    6  A    between atoms: N_13  and  C_23
    7  A    between atoms: N_13  and  C_27
    8  A    between atoms: C_15  and  C_19
    9  A    between atoms: C_15  and  N_34
   10  A    between atoms: N_18  and  C_27
   11  A    between atoms: C_22  and  C_27
   12  A    between atoms: C_22  and  N_34
   13  A    between atoms: C_23  and  C_24
   14  A    between atoms: C_26  and  C_28
   15  A    between atoms: C_26  and  C_38
   16  A    between atoms: C_28  and  O_32
                            x       y       z     vdW  Elec       q    Type
                         _______ _______ _______ _____ _____    ______ ____

>  <TORSDO>
F 16

$$$$
=
 OpenBabel11042414583D

 39 40  0  0  1  0  0  0  0  0999 V2000
  191.5510  173.6880  140.6660 C   0  0  1  0  0  3  0  0  0  0  0  0
  192.8530  174.1250  140.0140 C   0  0  0  0  0  1  0  0  0  0  0  0
  190.8840  171.6240  139.5930 O   0  0  0  0  0  1  0  0  0  0  0  0
  190.6580  173.0060  139.6310 C   0  0  1  0  0  3  0  0  0  0  0  0
  189.1790  173.3000  139.8540 C   0  0  0  0  0  2  0  0  0  0  0  0
  188.1540  174.7780  141.6210 C   0  0  0  0  0  0  0  0  0  0  0  0
  187.9460  176.0960  142.1400 N   0  0  0  0  0  2  0  0  0  0  0  0
  187.5790  173.7840  142.1450 O   0  0  0  0  0  0  0  0  0  0  0  0
  188.9910  174.6010  140.4770 N   0  0  0  0  0  2  0  0  0  0  0  0
  188.1250  176.6060  144.5520 C   0  0  0  0  0  0  0  0  0  0  0  0
  187.4310  176.4070  143.4420 C   0  0  1  0  0  3  0  0  0  0  0  0
  189.5050  176.5590  144.7670 C   0  0  0  0  0  3  0  0  0  0  0  0
  187.2550  176.9460  145.5590 C   0  0  0  0  0  0  0  0  0  0  0  0
  189.9850  176.8420  146.0570 C   0  0  0  0  0  3  0  0  0  0  0  0
  185.9820  176.6510  143.7520 C   0  0  1  0  0  3  0  0  0  0  0  0
  189.0890  177.1730  147.0930 C   0  0  0  0  0  3  0  0  0  0  0  0
  187.7070  177.2310  146.8480 C   0  0  0  0  0  3  0  0  0  0  0  0
  186.0220  176.9890  145.1770 N   0  0  0  0  0  2  0  0  0  0  0  0
  185.4380  177.8090  142.9760 C   0  0  0  0  0  3  0  0  0  0  0  0
  185.5490  180.1800  143.8950 O   0  0  0  0  0  0  0  0  0  0  0  0
  185.4950  179.0240  143.4500 C   0  0  0  0  0  0  0  0  0  0  0  0
  191.8350  172.7910  141.7800 N   0  0  0  0  0  2  0  0  0  0  0  0
  191.2690  173.3800  142.9870 C   0  0  1  0  0  3  0  0  0  0  0  0
  190.2410  172.5640  143.4650 O   0  0  0  0  0  1  0  0  0  0  0  0
  192.3530  173.5220  144.0530 C   0  0  2  0  0  3  0  0  0  0  0  0
  192.6530  175.7460  143.1220 O   0  0  0  0  0  1  0  0  0  0  0  0
  193.2800  174.6540  146.4520 O   0  0  0  0  0  0  0  0  0  0  0  0
  192.7670  174.9150  144.1860 N   0  0  0  0  0  0  0  0  0  0  0  0
  193.3310  175.3820  145.4240 C   0  0  0  0  0  0  0  0  0  0  0  0
  193.9930  176.7250  145.5330 C   0  0  1  0  0  3  0  0  0  0  0  0
  194.1480  177.1110  146.8660 O   0  0  0  0  0  1  0  0  0  0  0  0
  195.3210  176.7860  144.7810 C   0  0  0  0  0  2  0  0  0  0  0  0
  196.0280  175.5850  144.8960 O   0  0  0  0  0  0  0  0  0  0  0  0
  197.8200  174.4820  143.7940 C   0  0  0  0  0  1  0  0  0  0  0  0
  196.6200  175.3940  143.6460 C   0  0  0  0  0  2  0  0  0  0  0  0
  193.5070  172.6970  143.7120 N   0  0  0  0  0  2  0  0  0  0  0  0
  193.5290  171.5770  144.6420 C   0  0  0  0  0  2  0  0  0  0  0  0
  194.9610  171.2470  145.0220 C   0  0  0  0  0  2  0  0  0  0  0  0
  195.5720  172.3670  145.5880 O   0  0  0  0  0  1  0  0  0  0  0  0
  1  2  1  6  0  0  0
  1 22  1  0  0  0  0
  4  3  1  1  0  0  0
  4  5  1  0  0  0  0
  4  1  1  0  0  0  0
  5  9  1  0  0  0  0
  6  7  1  0  0  0  0
  6  8  2  0  0  0  0
  9  6  1  0  0  0  0
 10 12  2  0  0  0  0
 10 13  1  0  0  0  0
 11  7  1  6  0  0  0
 11 15  1  0  0  0  0
 11 10  1  0  0  0  0
 12 14  1  0  0  0  0
 13 17  2  0  0  0  0
 14 16  2  0  0  0  0
 15 19  1  6  0  0  0
 15 18  1  0  0  0  0
 17 16  1  0  0  0  0
 18 13  1  0  0  0  0
 19 21  2  0  0  0  0
 21 20  2  0  0  0  0
 22 23  1  0  0  0  0
 23 24  1  1  0  0  0
 23 25  1  0  0  0  0
 25 36  1  6  0  0  0
 25 28  1  0  0  0  0
 26 28  1  0  0  0  0
 28 29  1  0  0  0  0
 29 30  1  0  0  0  0
 29 27  2  0  0  0  0
 30 31  1  1  0  0  0
 32 33  1  0  0  0  0
 32 30  1  0  0  0  0
 35 34  1  0  0  0  0
 35 33  1  0  0  0  0
 36 37  1  0  0  0  0
 37 38  1  0  0  0  0
 38 39  1  0  0  0  0
M  END
>  <MODEL>
8

>  <REMARK>
 VINA RESULT:      -5.8      2.137      3.419
  Name = 
  16 active torsions:
  status: ('A' for Active; 'I' for Inactive)
    1  A    between atoms: C_1  and  C_19
    2  A    between atoms: C_1  and  N_35
    3  A    between atoms: C_3  and  C_25
    4  A    between atoms: C_4  and  N_14
    5  A    between atoms: C_11  and  O_32
    6  A    between atoms: N_13  and  C_23
    7  A    between atoms: N_13  and  C_27
    8  A    between atoms: C_15  and  C_19
    9  A    between atoms: C_15  and  N_34
   10  A    between atoms: N_18  and  C_27
   11  A    between atoms: C_22  and  C_27
   12  A    between atoms: C_22  and  N_34
   13  A    between atoms: C_23  and  C_24
   14  A    between atoms: C_26  and  C_28
   15  A    between atoms: C_26  and  C_38
   16  A    between atoms: C_28  and  O_32
                            x       y       z     vdW  Elec       q    Type
                         _______ _______ _______ _____ _____    ______ ____

>  <TORSDO>
F 16

$$$$
=
 OpenBabel11042414583D

 39 40  0  0  1  0  0  0  0  0999 V2000
  191.0460  173.1150  140.1690 C   0  0  1  0  0  3  0  0  0  0  0  0
  190.8920  172.2880  138.9030 C   0  0  0  0  0  1  0  0  0  0  0  0
  189.6240  172.3880  141.9880 O   0  0  0  0  0  1  0  0  0  0  0  0
  189.6960  173.2350  140.8750 C   0  0  1  0  0  3  0  0  0  0  0  0
  189.3730  174.6700  141.2730 C   0  0  0  0  0  2  0  0  0  0  0  0
  187.6420  175.8010  142.7170 C   0  0  0  0  0  0  0  0  0  0  0  0
  186.3150  175.8070  143.2530 N   0  0  0  0  0  2  0  0  0  0  0  0
  188.4850  176.6680  143.0800 O   0  0  0  0  0  0  0  0  0  0  0  0
  188.0180  174.7790  141.7930 N   0  0  0  0  0  2  0  0  0  0  0  0
  185.7990  177.2710  145.1770 C   0  0  0  0  0  0  0  0  0  0  0  0
  185.6850  176.9180  143.9050 C   0  0  1  0  0  3  0  0  0  0  0  0
  186.5260  176.6750  146.2110 C   0  0  0  0  0  3  0  0  0  0  0  0
  185.0900  178.4300  145.3770 C   0  0  0  0  0  0  0  0  0  0  0  0
  186.4940  177.2800  147.4790 C   0  0  0  0  0  3  0  0  0  0  0  0
  184.8370  177.9470  143.2140 C   0  0  1  0  0  3  0  0  0  0  0  0
  185.7510  178.4600  147.6860 C   0  0  0  0  0  3  0  0  0  0  0  0
  185.0410  179.0490  146.6270 C   0  0  0  0  0  3  0  0  0  0  0  0
  184.5160  178.8700  144.3060 N   0  0  0  0  0  2  0  0  0  0  0  0
  185.6020  178.6720  142.1520 C   0  0  0  0  0  3  0  0  0  0  0  0
  185.6120  177.8530  139.7430 O   0  0  0  0  0  0  0  0  0  0  0  0
  185.6060  178.2490  140.9180 C   0  0  0  0  0  0  0  0  0  0  0  0
  192.0370  172.4980  141.0450 N   0  0  0  0  0  2  0  0  0  0  0  0
  193.2340  173.3280  141.0220 C   0  0  1  0  0  3  0  0  0  0  0  0
  192.9750  174.4990  140.3060 O   0  0  0  0  0  1  0  0  0  0  0  0
  193.6510  173.6770  142.4490 C   0  0  2  0  0  3  0  0  0  0  0  0
  192.3760  175.7320  142.6850 O   0  0  0  0  0  1  0  0  0  0  0  0
  192.0130  172.6980  144.5110 O   0  0  0  0  0  0  0  0  0  0  0  0
  192.6180  174.4690  143.1110 N   0  0  0  0  0  0  0  0  0  0  0  0
  191.9000  173.9220  144.2300 C   0  0  0  0  0  0  0  0  0  0  0  0
  191.0120  174.7720  145.0900 C   0  0  1  0  0  3  0  0  0  0  0  0
  189.7050  174.2810  145.1180 O   0  0  0  0  0  1  0  0  0  0  0  0
  191.5650  174.9530  146.5030 C   0  0  0  0  0  2  0  0  0  0  0  0
  192.9560  175.0900  146.4920 O   0  0  0  0  0  0  0  0  0  0  0  0
  194.1540  176.8530  145.4440 C   0  0  0  0  0  1  0  0  0  0  0  0
  193.1840  176.4670  146.5390 C   0  0  0  0  0  2  0  0  0  0  0  0
  194.9070  174.4200  142.4400 N   0  0  0  0  0  2  0  0  0  0  0  0
  195.9270  173.5530  143.0120 C   0  0  0  0  0  2  0  0  0  0  0  0
  195.8730  173.6190  144.5270 C   0  0  0  0  0  2  0  0  0  0  0  0
  196.7780  174.5730  144.9940 O   0  0  0  0  0  1  0  0  0  0  0  0
  1  2  1  6  0  0  0
  1  4  1  0  0  0  0
  1 22  1  0  0  0  0
  4  5  1  0  0  0  0
  4  3  1  1  0  0  0
  5  9  1  0  0  0  0
  6  8  2  0  0  0  0
  6  7  1  0  0  0  0
  9  6  1  0  0  0  0
 10 13  2  0  0  0  0
 10 12  1  0  0  0  0
 11  7  1  6  0  0  0
 11 10  1  0  0  0  0
 12 14  2  0  0  0  0
 13 17  1  0  0  0  0
 14 16  1  0  0  0  0
 15 19  1  6  0  0  0
 15 11  1  0  0  0  0
 15 18  1  0  0  0  0
 17 16  2  0  0  0  0
 18 13  1  0  0  0  0
 20 21  2  0  0  0  0
 21 19  2  0  0  0  0
 23 24  1  6  0  0  0
 23 22  1  0  0  0  0
 23 25  1  0  0  0  0
 25 36  1  6  0  0  0
 25 28  1  0  0  0  0
 26 28  1  0  0  0  0
 28 29  1  0  0  0  0
 29 27  2  0  0  0  0
 29 30  1  0  0  0  0
 30 31  1  1  0  0  0
 30 32  1  0  0  0  0
 33 32  1  0  0  0  0
 33 35  1  0  0  0  0
 34 35  1  0  0  0  0
 36 37  1  0  0  0  0
 37 38  1  0  0  0  0
 38 39  1  0  0  0  0
M  END
>  <MODEL>
9

>  <REMARK>
 VINA RESULT:      -5.8      1.294      1.690
  Name = 
  16 active torsions:
  status: ('A' for Active; 'I' for Inactive)
    1  A    between atoms: C_1  and  C_19
    2  A    between atoms: C_1  and  N_35
    3  A    between atoms: C_3  and  C_25
    4  A    between atoms: C_4  and  N_14
    5  A    between atoms: C_11  and  O_32
    6  A    between atoms: N_13  and  C_23
    7  A    between atoms: N_13  and  C_27
    8  A    between atoms: C_15  and  C_19
    9  A    between atoms: C_15  and  N_34
   10  A    between atoms: N_18  and  C_27
   11  A    between atoms: C_22  and  C_27
   12  A    between atoms: C_22  and  N_34
   13  A    between atoms: C_23  and  C_24
   14  A    between atoms: C_26  and  C_28
   15  A    between atoms: C_26  and  C_38
   16  A    between atoms: C_28  and  O_32
                            x       y       z     vdW  Elec       q    Type
                         _______ _______ _______ _____ _____    ______ ____

>  <TORSDO>
F 16

$$$$
