=
 OpenBabel11042420003D

 52 56  0  0  1  0  0  0  0  0999 V2000
  193.9420  175.2640  144.8290 C   0  0  2  0  0  3  0  0  0  0  0  0
  192.9650  176.4900  146.6190 O   0  0  0  0  0  0  0  0  0  0  0  0
  192.7650  175.7960  145.5880 C   0  0  0  0  0  0  0  0  0  0  0  0
  191.4330  175.5060  145.1390 N   0  0  0  0  0  2  0  0  0  0  0  0
  189.7660  177.3290  145.3840 C   0  0  0  0  0  3  0  0  0  0  0  0
  187.7720  176.9650  146.7150 C   0  0  0  0  0  0  0  0  0  0  0  0
  190.2110  176.0300  145.6750 C   0  0  0  0  0  0  0  0  0  0  0  0
  188.5520  177.7930  145.9010 C   0  0  0  0  0  3  0  0  0  0  0  0
  189.4250  175.2030  146.4830 C   0  0  0  0  0  3  0  0  0  0  0  0
  188.2130  175.6650  147.0010 C   0  0  0  0  0  3  0  0  0  0  0  0
  186.5200  177.4510  147.2110 N   0  0  0  0  0  2  0  0  0  0  0  0
  185.8370  178.6140  146.6580 C   0  0  0  0  0  2  0  0  0  0  0  0
  184.8610  178.1920  145.5710 C   0  0  0  0  0  2  0  0  0  0  0  0
  185.0690  179.0130  144.3080 C   0  0  0  0  0  2  0  0  0  0  0  0
  186.4410  178.7310  143.6900 C   0  0  0  0  0  2  0  0  0  0  0  0
  186.4150  177.7260  142.5300 C   0  0  1  0  0  0  0  0  0  0  0  0
  187.8170  177.6770  141.9630 C   0  0  0  0  0  0  0  0  0  0  0  0
  188.5450  178.7060  141.9850 O   0  0  0  0  0  1  0  0  0  0  0  0
  188.3460  176.4900  141.4730 O   0  0  0  0  0  0  0  0  0  0  0  0
  186.9810  175.7720  143.8480 F   0  0  0  0  0  0  0  0  0  0  0  0
  185.9940  176.3500  143.0690 C   0  0  0  0  0  2  0  0  0  0  0  0
  185.4130  178.2290  141.4730 C   0  0  0  0  0  2  0  0  0  0  0  0
  185.7330  177.7820  140.0530 C   0  0  0  0  0  1  0  0  0  0  0  0
  194.7190  174.2400  145.6460 C   0  0  0  0  0  2  0  0  0  0  0  0
  193.9300  172.9460  145.7370 C   0  0  0  0  0  2  0  0  0  0  0  0
  194.6800  171.8150  145.0540 C   0  0  2  0  0  0  0  0  0  0  0  0
  193.2490  169.5090  143.0780 N   0  0  0  0  0  0  0  0  0  0  0  0
  194.3010  169.9680  143.6780 C   0  0  0  0  0  0  0  0  0  0  0  0
  191.4880  170.4890  141.6840 C   0  0  0  0  0  0  0  0  0  0  0  0
  194.7040  169.4460  144.9290 N   0  0  0  0  0  2  0  0  0  0  0  0
  192.5760  170.6050  142.4720 C   0  0  0  0  0  0  0  0  0  0  0  0
  194.5030  171.4360  143.5820 C   0  0  1  0  0  3  0  0  0  0  0  0
  192.8820  173.0100  142.6580 O   0  0  0  0  0  0  0  0  0  0  0  0
  193.2480  171.8290  142.8930 C   0  0  0  0  0  0  0  0  0  0  0  0
  194.7890  170.5400  145.8910 C   0  0  1  0  0  3  0  0  0  0  0  0
  196.0130  171.4210  145.6530 C   0  0  0  0  0  2  0  0  0  0  0  0
  190.9650  171.6780  139.5520 C   0  0  0  0  0  2  0  0  0  0  0  0
  190.2680  172.9050  138.9660 C   0  0  0  0  0  2  0  0  0  0  0  0
  189.4130  171.8830  141.5250 C   0  0  0  0  0  2  0  0  0  0  0  0
  190.8680  171.7150  141.0780 C   0  0  0  0  0  3  0  0  0  0  0  0
  188.8650  172.9310  139.3810 N   0  0  0  0  0  0  0  0  0  0  0  0
  188.2820  174.1240  138.7980 C   0  0  0  0  0  1  0  0  0  0  0  0
  188.8110  173.1020  140.8320 C   0  0  0  0  0  2  0  0  0  0  0  0
  191.4340  168.3580  140.5670 O   0  0  0  0  0  0  0  0  0  0  0  0
  190.8890  169.1770  141.3520 C   0  0  0  0  0  3  0  0  0  0  0  0
  194.8360  176.3820  144.2950 C   0  0  0  0  0  2  0  0  0  0  0  0
  196.2640  175.9210  144.0230 C   0  0  0  0  0  2  0  0  0  0  0  0
  196.7810  176.5180  142.7260 C   0  0  0  0  0  2  0  0  0  0  0  0
  197.0070  175.9370  140.2830 N   0  0  0  0  0  2  0  0  0  0  0  0
  196.5470  175.5830  141.5880 C   0  0  0  0  0  0  0  0  0  0  0  0
  195.9620  174.4830  141.7870 O   0  0  0  0  0  0  0  0  0  0  0  0
  196.8600  175.0470  139.1440 C   0  0  0  0  0  1  0  0  0  0  0  0
  1 46  1  1  0  0  0
  1  3  1  0  0  0  0
  1 24  1  0  0  0  0
  3  2  2  0  0  0  0
  4  3  1  0  0  0  0
  4  7  1  0  0  0  0
  5  7  2  0  0  0  0
  5  8  1  0  0  0  0
  6 10  1  0  0  0  0
  6 11  1  0  0  0  0
  7  9  1  0  0  0  0
  8  6  2  0  0  0  0
  9 10  2  0  0  0  0
 12 11  1  0  0  0  0
 13 12  1  0  0  0  0
 14 13  1  0  0  0  0
 15 14  1  0  0  0  0
 16 22  1  6  0  0  0
 16 21  1  0  0  0  0
 16 15  1  0  0  0  0
 17 18  1  0  0  0  0
 17 16  1  0  0  0  0
 19 17  2  0  0  0  0
 21 20  1  0  0  0  0
 23 22  1  0  0  0  0
 24 25  1  0  0  0  0
 26 36  1  0  0  0  0
 26 25  1  1  0  0  0
 26 35  1  0  0  0  0
 27 28  2  0  0  0  0
 28 30  1  0  0  0  0
 29 31  2  0  0  0  0
 30 35  1  0  0  0  0
 31 34  1  0  0  0  0
 31 27  1  0  0  0  0
 32 34  1  1  0  0  0
 32 28  1  0  0  0  0
 32 26  1  0  0  0  0
 33 34  2  0  0  0  0
 35 36  1  6  0  0  0
 37 40  1  0  0  0  0
 38 41  1  0  0  0  0
 38 37  1  0  0  0  0
 40 39  1  0  0  0  0
 40 29  1  0  0  0  0
 41 43  1  0  0  0  0
 42 41  1  0  0  0  0
 43 39  1  0  0  0  0
 44 45  2  0  0  0  0
 45 29  1  0  0  0  0
 47 46  1  0  0  0  0
 48 47  1  0  0  0  0
 49 50  1  0  0  0  0
 50 51  2  0  0  0  0
 50 48  1  0  0  0  0
 52 49  1  0  0  0  0
M  END
>  <MODEL>
1

>  <REMARK>
 VINA RESULT:      -6.5      0.000      0.000
  Name = 
  20 active torsions:
  status: ('A' for Active; 'I' for Inactive)
    1  A    between atoms: C_1  and  C_49
    2  A    between atoms: C_3  and  N_4
    3  A    between atoms: C_3  and  C_35
    4  A    between atoms: N_4  and  C_19
    5  A    between atoms: C_12  and  C_47
    6  A    between atoms: C_14  and  C_23
    7  A    between atoms: C_14  and  C_52
    8  A    between atoms: C_15  and  C_20
    9  A    between atoms: C_15  and  C_31
   10  A    between atoms: C_16  and  C_23
   11  A    between atoms: C_18  and  C_24
   12  A    between atoms: C_21  and  C_47
   13  A    between atoms: C_22  and  N_36
   14  A    between atoms: C_24  and  C_42
   15  A    between atoms: C_24  and  C_52
   16  A    between atoms: C_27  and  C_47
   17  A    between atoms: C_28  and  C_33
   18  A    between atoms: C_28  and  C_47
   19  A    between atoms: C_33  and  C_35
   20  A    between atoms: C_42  and  C_49
                            x       y       z     vdW  Elec       q    Type
                         _______ _______ _______ _____ _____    ______ ____

>  <TORSDO>
F 20

$$$$
=
 OpenBabel11042420003D

 52 56  0  0  1  0  0  0  0  0999 V2000
  195.4520  173.1600  145.7720 C   0  0  2  0  0  3  0  0  0  0  0  0
  193.2370  172.4610  145.2480 O   0  0  0  0  0  0  0  0  0  0  0  0
  193.9890  173.4170  145.5740 C   0  0  0  0  0  0  0  0  0  0  0  0
  193.4650  174.7420  145.7500 N   0  0  0  0  0  2  0  0  0  0  0  0
  191.4680  175.5800  144.5370 C   0  0  0  0  0  3  0  0  0  0  0  0
  189.3610  175.8230  145.7120 C   0  0  0  0  0  0  0  0  0  0  0  0
  192.0860  175.1330  145.7150 C   0  0  0  0  0  0  0  0  0  0  0  0
  190.1120  175.9220  144.5370 C   0  0  0  0  0  3  0  0  0  0  0  0
  191.3310  175.0280  146.8870 C   0  0  0  0  0  3  0  0  0  0  0  0
  189.9760  175.3690  146.8880 C   0  0  0  0  0  3  0  0  0  0  0  0
  187.9680  176.1520  145.6820 N   0  0  0  0  0  2  0  0  0  0  0  0
  187.2910  176.8660  146.7580 C   0  0  0  0  0  2  0  0  0  0  0  0
  186.3900  177.9520  146.1910 C   0  0  0  0  0  2  0  0  0  0  0  0
  185.2470  177.3450  145.3910 C   0  0  0  0  0  2  0  0  0  0  0  0
  185.6240  177.2100  143.9130 C   0  0  0  0  0  2  0  0  0  0  0  0
  185.4170  178.4890  143.0910 C   0  0  1  0  0  0  0  0  0  0  0  0
  184.4940  178.1290  141.9480 C   0  0  0  0  0  0  0  0  0  0  0  0
  183.2560  177.9950  142.1520 O   0  0  0  0  0  1  0  0  0  0  0  0
  184.9780  178.0060  140.6520 O   0  0  0  0  0  0  0  0  0  0  0  0
  185.6710  180.5920  144.2690 F   0  0  0  0  0  0  0  0  0  0  0  0
  184.7850  179.5660  143.9880 C   0  0  0  0  0  2  0  0  0  0  0  0
  186.7880  178.9550  142.5620 C   0  0  0  0  0  2  0  0  0  0  0  0
  187.8000  177.8300  142.3890 C   0  0  0  0  0  1  0  0  0  0  0  0
  196.2970  174.3280  145.2800 C   0  0  0  0  0  2  0  0  0  0  0  0
  196.4050  174.2850  143.7660 C   0  0  0  0  0  2  0  0  0  0  0  0
  195.8330  175.5530  143.1540 C   0  0  2  0  0  0  0  0  0  0  0  0
  194.7660  175.8190  139.9830 N   0  0  0  0  0  0  0  0  0  0  0  0
  195.0050  176.3690  141.1310 C   0  0  0  0  0  0  0  0  0  0  0  0
  193.6180  173.7820  139.2480 C   0  0  0  0  0  0  0  0  0  0  0  0
  196.2190  177.0580  141.3620 N   0  0  0  0  0  2  0  0  0  0  0  0
  194.1030  174.5840  140.2180 C   0  0  0  0  0  0  0  0  0  0  0  0
  194.5540  175.5990  142.3160 C   0  0  1  0  0  3  0  0  0  0  0  0
  193.6930  173.3150  142.2520 O   0  0  0  0  0  0  0  0  0  0  0  0
  194.0910  174.3510  141.6580 C   0  0  0  0  0  0  0  0  0  0  0  0
  196.8790  176.4710  142.5230 C   0  0  1  0  0  3  0  0  0  0  0  0
  196.1930  176.8590  143.8310 C   0  0  0  0  0  2  0  0  0  0  0  0
  191.4040  172.6390  139.4070 C   0  0  0  0  0  2  0  0  0  0  0  0
  190.7280  171.3060  139.7230 C   0  0  0  0  0  2  0  0  0  0  0  0
  193.4670  171.3190  138.8180 C   0  0  0  0  0  2  0  0  0  0  0  0
  192.9140  172.5060  139.6120 C   0  0  0  0  0  3  0  0  0  0  0  0
  191.2630  170.2540  138.8580 N   0  0  0  0  0  0  0  0  0  0  0  0
  190.5820  169.0280  139.2270 C   0  0  0  0  0  1  0  0  0  0  0  0
  192.6770  170.0630  139.1750 C   0  0  0  0  0  2  0  0  0  0  0  0
  194.7820  174.0080  137.1540 O   0  0  0  0  0  0  0  0  0  0  0  0
  193.7170  174.1300  137.8130 C   0  0  0  0  0  3  0  0  0  0  0  0
  195.8890  171.8290  145.1630 C   0  0  0  0  0  2  0  0  0  0  0  0
  196.2370  170.7810  146.2150 C   0  0  0  0  0  2  0  0  0  0  0  0
  196.4690  169.4280  145.5670 C   0  0  0  0  0  2  0  0  0  0  0  0
  194.0920  168.6120  145.7770 N   0  0  0  0  0  2  0  0  0  0  0  0
  195.2120  168.9200  144.9460 C   0  0  0  0  0  0  0  0  0  0  0  0
  195.1410  168.7810  143.6940 O   0  0  0  0  0  0  0  0  0  0  0  0
  192.8230  168.1660  145.2300 C   0  0  0  0  0  1  0  0  0  0  0  0
  1 46  1  6  0  0  0
  2  3  2  0  0  0  0
  3  4  1  0  0  0  0
  3  1  1  0  0  0  0
  5  7  1  0  0  0  0
  6 10  2  0  0  0  0
  7  4  1  0  0  0  0
  7  9  2  0  0  0  0
  8  5  2  0  0  0  0
  8  6  1  0  0  0  0
  9 10  1  0  0  0  0
 11  6  1  0  0  0  0
 11 12  1  0  0  0  0
 13 12  1  0  0  0  0
 14 13  1  0  0  0  0
 15 14  1  0  0  0  0
 16 22  1  6  0  0  0
 16 15  1  0  0  0  0
 16 21  1  0  0  0  0
 17 18  1  0  0  0  0
 17 16  1  0  0  0  0
 19 17  2  0  0  0  0
 21 20  1  0  0  0  0
 23 22  1  0  0  0  0
 24  1  1  0  0  0  0
 25 24  1  0  0  0  0
 26 25  1  1  0  0  0
 26 36  1  0  0  0  0
 27 31  1  0  0  0  0
 27 28  2  0  0  0  0
 28 30  1  0  0  0  0
 29 40  1  0  0  0  0
 29 31  2  0  0  0  0
 30 35  1  0  0  0  0
 31 34  1  0  0  0  0
 32 28  1  6  0  0  0
 32 26  1  0  0  0  0
 34 33  2  0  0  0  0
 34 32  1  0  0  0  0
 35 26  1  0  0  0  0
 35 36  1  1  0  0  0
 37 40  1  0  0  0  0
 37 38  1  0  0  0  0
 39 43  1  0  0  0  0
 39 40  1  0  0  0  0
 41 43  1  0  0  0  0
 41 42  1  0  0  0  0
 41 38  1  0  0  0  0
 44 45  2  0  0  0  0
 45 29  1  0  0  0  0
 46 47  1  0  0  0  0
 48 47  1  0  0  0  0
 50 48  1  0  0  0  0
 50 49  1  0  0  0  0
 51 50  2  0  0  0  0
 52 49  1  0  0  0  0
M  END
>  <MODEL>
2

>  <REMARK>
 VINA RESULT:      -5.8      2.291      4.736
  Name = 
  20 active torsions:
  status: ('A' for Active; 'I' for Inactive)
    1  A    between atoms: C_1  and  C_49
    2  A    between atoms: C_3  and  N_4
    3  A    between atoms: C_3  and  C_35
    4  A    between atoms: N_4  and  C_19
    5  A    between atoms: C_12  and  C_47
    6  A    between atoms: C_14  and  C_23
    7  A    between atoms: C_14  and  C_52
    8  A    between atoms: C_15  and  C_20
    9  A    between atoms: C_15  and  C_31
   10  A    between atoms: C_16  and  C_23
   11  A    between atoms: C_18  and  C_24
   12  A    between atoms: C_21  and  C_47
   13  A    between atoms: C_22  and  N_36
   14  A    between atoms: C_24  and  C_42
   15  A    between atoms: C_24  and  C_52
   16  A    between atoms: C_27  and  C_47
   17  A    between atoms: C_28  and  C_33
   18  A    between atoms: C_28  and  C_47
   19  A    between atoms: C_33  and  C_35
   20  A    between atoms: C_42  and  C_49
                            x       y       z     vdW  Elec       q    Type
                         _______ _______ _______ _____ _____    ______ ____

>  <TORSDO>
F 20

$$$$
=
 OpenBabel11042420003D

 52 56  0  0  1  0  0  0  0  0999 V2000
  193.0560  172.9280  144.2810 C   0  0  2  0  0  3  0  0  0  0  0  0
  191.3730  174.3300  143.3500 O   0  0  0  0  0  0  0  0  0  0  0  0
  191.9560  173.9390  144.3950 C   0  0  0  0  0  0  0  0  0  0  0  0
  191.5850  174.4510  145.6840 N   0  0  0  0  0  2  0  0  0  0  0  0
  189.2430  174.8380  146.4080 C   0  0  0  0  0  3  0  0  0  0  0  0
  188.4020  177.1040  146.6000 C   0  0  0  0  0  0  0  0  0  0  0  0
  190.4880  175.3240  145.9790 C   0  0  0  0  0  0  0  0  0  0  0  0
  188.2070  175.7240  146.7170 C   0  0  0  0  0  3  0  0  0  0  0  0
  190.6830  176.7050  145.8700 C   0  0  0  0  0  3  0  0  0  0  0  0
  189.6480  177.5910  146.1790 C   0  0  0  0  0  3  0  0  0  0  0  0
  187.3360  177.9940  146.9480 N   0  0  0  0  0  2  0  0  0  0  0  0
  185.9290  177.6130  146.9060 C   0  0  0  0  0  2  0  0  0  0  0  0
  185.2550  178.2040  145.6770 C   0  0  0  0  0  2  0  0  0  0  0  0
  185.5470  177.3660  144.4430 C   0  0  0  0  0  2  0  0  0  0  0  0
  186.4200  178.1380  143.4500 C   0  0  0  0  0  2  0  0  0  0  0  0
  187.1210  177.2570  142.4080 C   0  0  1  0  0  0  0  0  0  0  0  0
  186.4290  177.5080  141.0870 C   0  0  0  0  0  0  0  0  0  0  0  0
  186.9380  177.0820  140.0140 O   0  0  0  0  0  0  0  0  0  0  0  0
  185.1970  178.1480  141.0380 O   0  0  0  0  0  1  0  0  0  0  0  0
  188.8280  178.6570  141.4090 F   0  0  0  0  0  0  0  0  0  0  0  0
  188.6050  177.6510  142.3330 C   0  0  0  0  0  2  0  0  0  0  0  0
  186.9690  175.7840  142.8360 C   0  0  0  0  0  2  0  0  0  0  0  0
  188.0430  174.8610  142.2730 C   0  0  0  0  0  1  0  0  0  0  0  0
  194.4280  173.5760  144.4110 C   0  0  0  0  0  2  0  0  0  0  0  0
  195.1590  173.5060  143.0810 C   0  0  0  0  0  2  0  0  0  0  0  0
  195.8030  174.8440  142.7560 C   0  0  2  0  0  0  0  0  0  0  0  0
  196.9240  175.7240  139.7170 N   0  0  0  0  0  0  0  0  0  0  0  0
  196.7770  175.9950  140.9750 C   0  0  0  0  0  0  0  0  0  0  0  0
  195.4470  174.9000  137.9430 C   0  0  0  0  0  0  0  0  0  0  0  0
  197.8220  175.7430  141.8940 N   0  0  0  0  0  2  0  0  0  0  0  0
  195.6920  175.2050  139.2330 C   0  0  0  0  0  0  0  0  0  0  0  0
  195.4380  175.6990  141.5420 C   0  0  1  0  0  3  0  0  0  0  0  0
  193.6600  174.5020  140.3710 O   0  0  0  0  0  0  0  0  0  0  0  0
  194.7990  175.0380  140.3750 C   0  0  0  0  0  0  0  0  0  0  0  0
  197.3190  174.8720  142.9520 C   0  0  1  0  0  3  0  0  0  0  0  0
  196.3970  175.6140  143.9160 C   0  0  0  0  0  2  0  0  0  0  0  0
  193.2590  175.4760  136.8880 C   0  0  0  0  0  2  0  0  0  0  0  0
  191.9230  174.8940  136.4310 C   0  0  0  0  0  2  0  0  0  0  0  0
  194.2280  173.1680  136.6060 C   0  0  0  0  0  2  0  0  0  0  0  0
  194.0990  174.3760  137.5380 C   0  0  0  0  0  3  0  0  0  0  0  0
  192.1490  173.8040  135.4800 N   0  0  0  0  0  0  0  0  0  0  0  0
  190.8400  173.3020  135.1070 C   0  0  0  0  0  1  0  0  0  0  0  0
  192.8360  172.7160  136.1730 C   0  0  0  0  0  2  0  0  0  0  0  0
  196.6170  176.1970  136.2870 O   0  0  0  0  0  0  0  0  0  0  0  0
  196.4580  175.0980  136.8790 C   0  0  0  0  0  3  0  0  0  0  0  0
  192.9300  172.0810  143.0140 C   0  0  0  0  0  2  0  0  0  0  0  0
  192.1540  170.7880  143.2410 C   0  0  0  0  0  2  0  0  0  0  0  0
  192.9160  169.6020  142.6800 C   0  0  0  0  0  2  0  0  0  0  0  0
  195.1960  169.4080  143.7410 N   0  0  0  0  0  2  0  0  0  0  0  0
  193.8210  169.0220  143.7130 C   0  0  0  0  0  0  0  0  0  0  0  0
  193.3650  168.2090  144.5640 O   0  0  0  0  0  0  0  0  0  0  0  0
  196.1150  168.9220  144.7540 C   0  0  0  0  0  1  0  0  0  0  0  0
  1 46  1  6  0  0  0
  1  3  1  0  0  0  0
  1 24  1  0  0  0  0
  2  3  2  0  0  0  0
  3  4  1  0  0  0  0
  4  7  1  0  0  0  0
  5  8  1  0  0  0  0
  6  8  2  0  0  0  0
  6 11  1  0  0  0  0
  7  5  2  0  0  0  0
  9  7  1  0  0  0  0
  9 10  2  0  0  0  0
 10  6  1  0  0  0  0
 12 11  1  0  0  0  0
 13 12  1  0  0  0  0
 14 13  1  0  0  0  0
 15 14  1  0  0  0  0
 16 21  1  6  0  0  0
 16 22  1  0  0  0  0
 16 15  1  0  0  0  0
 17 16  1  0  0  0  0
 18 17  2  0  0  0  0
 19 17  1  0  0  0  0
 20 21  1  0  0  0  0
 23 22  1  0  0  0  0
 25 24  1  0  0  0  0
 26 35  1  0  0  0  0
 26 25  1  1  0  0  0
 26 36  1  0  0  0  0
 27 28  2  0  0  0  0
 28 32  1  0  0  0  0
 28 30  1  0  0  0  0
 29 31  2  0  0  0  0
 30 35  1  0  0  0  0
 31 27  1  0  0  0  0
 31 34  1  0  0  0  0
 32 34  1  6  0  0  0
 32 26  1  0  0  0  0
 33 34  2  0  0  0  0
 35 36  1  1  0  0  0
 37 40  1  0  0  0  0
 38 37  1  0  0  0  0
 39 40  1  0  0  0  0
 40 29  1  0  0  0  0
 41 43  1  0  0  0  0
 41 38  1  0  0  0  0
 42 41  1  0  0  0  0
 43 39  1  0  0  0  0
 44 45  2  0  0  0  0
 45 29  1  0  0  0  0
 46 47  1  0  0  0  0
 48 47  1  0  0  0  0
 48 50  1  0  0  0  0
 49 52  1  0  0  0  0
 50 49  1  0  0  0  0
 50 51  2  0  0  0  0
M  END
>  <MODEL>
3

>  <REMARK>
 VINA RESULT:      -5.8      2.348      5.001
  Name = 
  20 active torsions:
  status: ('A' for Active; 'I' for Inactive)
    1  A    between atoms: C_1  and  C_49
    2  A    between atoms: C_3  and  N_4
    3  A    between atoms: C_3  and  C_35
    4  A    between atoms: N_4  and  C_19
    5  A    between atoms: C_12  and  C_47
    6  A    between atoms: C_14  and  C_23
    7  A    between atoms: C_14  and  C_52
    8  A    between atoms: C_15  and  C_20
    9  A    between atoms: C_15  and  C_31
   10  A    between atoms: C_16  and  C_23
   11  A    between atoms: C_18  and  C_24
   12  A    between atoms: C_21  and  C_47
   13  A    between atoms: C_22  and  N_36
   14  A    between atoms: C_24  and  C_42
   15  A    between atoms: C_24  and  C_52
   16  A    between atoms: C_27  and  C_47
   17  A    between atoms: C_28  and  C_33
   18  A    between atoms: C_28  and  C_47
   19  A    between atoms: C_33  and  C_35
   20  A    between atoms: C_42  and  C_49
                            x       y       z     vdW  Elec       q    Type
                         _______ _______ _______ _____ _____    ______ ____

>  <TORSDO>
F 20

$$$$
=
 OpenBabel11042420003D

 52 56  0  0  1  0  0  0  0  0999 V2000
  193.3250  172.8850  144.0820 C   0  0  2  0  0  3  0  0  0  0  0  0
  191.1470  173.6070  143.4450 O   0  0  0  0  0  0  0  0  0  0  0  0
  192.0780  173.6910  144.2890 C   0  0  0  0  0  0  0  0  0  0  0  0
  191.9620  174.5480  145.4340 N   0  0  0  0  0  2  0  0  0  0  0  0
  189.7320  174.6840  146.5150 C   0  0  0  0  0  3  0  0  0  0  0  0
  188.5940  176.8200  146.6610 C   0  0  0  0  0  0  0  0  0  0  0  0
  190.8040  175.2890  145.8400 C   0  0  0  0  0  0  0  0  0  0  0  0
  188.6340  175.4470  146.9230 C   0  0  0  0  0  3  0  0  0  0  0  0
  190.7650  176.6630  145.5870 C   0  0  0  0  0  3  0  0  0  0  0  0
  189.6680  177.4260  145.9940 C   0  0  0  0  0  3  0  0  0  0  0  0
  187.4720  177.5860  147.1130 N   0  0  0  0  0  2  0  0  0  0  0  0
  186.0890  177.1620  146.9350 C   0  0  0  0  0  2  0  0  0  0  0  0
  185.4610  177.8750  145.7470 C   0  0  0  0  0  2  0  0  0  0  0  0
  185.7280  177.1140  144.4570 C   0  0  0  0  0  2  0  0  0  0  0  0
  186.6310  177.9220  143.5210 C   0  0  0  0  0  2  0  0  0  0  0  0
  187.1720  177.1260  142.3260 C   0  0  1  0  0  0  0  0  0  0  0  0
  186.4320  177.6190  141.1020 C   0  0  0  0  0  0  0  0  0  0  0  0
  185.4570  178.4090  141.2270 O   0  0  0  0  0  1  0  0  0  0  0  0
  186.8520  177.2670  139.8260 O   0  0  0  0  0  0  0  0  0  0  0  0
  188.9530  178.6750  141.7730 F   0  0  0  0  0  0  0  0  0  0  0  0
  188.6820  177.3840  142.1940 C   0  0  0  0  0  2  0  0  0  0  0  0
  186.8930  175.6300  142.5700 C   0  0  0  0  0  2  0  0  0  0  0  0
  188.0730  174.7200  142.2520 C   0  0  0  0  0  1  0  0  0  0  0  0
  193.1470  171.4480  144.5530 C   0  0  0  0  0  2  0  0  0  0  0  0
  192.8480  170.5490  143.3660 C   0  0  0  0  0  2  0  0  0  0  0  0
  194.1090  170.2960  142.5570 C   0  0  2  0  0  0  0  0  0  0  0  0
  194.1440  169.4460  139.3100 N   0  0  0  0  0  0  0  0  0  0  0  0
  194.7850  169.6680  140.4130 C   0  0  0  0  0  0  0  0  0  0  0  0
  192.4050  170.6300  138.0530 C   0  0  0  0  0  0  0  0  0  0  0  0
  195.1470  168.5980  141.2650 N   0  0  0  0  0  2  0  0  0  0  0  0
  193.1890  170.4850  139.1410 C   0  0  0  0  0  0  0  0  0  0  0  0
  194.3650  170.8770  141.1650 C   0  0  1  0  0  3  0  0  0  0  0  0
  192.4200  172.2510  140.6260 O   0  0  0  0  0  0  0  0  0  0  0  0
  193.2010  171.3030  140.3480 C   0  0  0  0  0  0  0  0  0  0  0  0
  194.5960  168.8470  142.5940 C   0  0  1  0  0  3  0  0  0  0  0  0
  195.3580  169.9430  143.3360 C   0  0  0  0  0  2  0  0  0  0  0  0
  192.0490  172.9430  137.1850 C   0  0  0  0  0  2  0  0  0  0  0  0
  191.0220  174.0680  137.0640 C   0  0  0  0  0  2  0  0  0  0  0  0
  190.1090  171.3470  137.3550 C   0  0  0  0  0  2  0  0  0  0  0  0
  191.4420  171.7800  137.9700 C   0  0  0  0  0  3  0  0  0  0  0  0
  189.8190  173.5780  136.3900 N   0  0  0  0  0  0  0  0  0  0  0  0
  188.8960  174.6950  136.3260 C   0  0  0  0  0  1  0  0  0  0  0  0
  189.1930  172.5610  137.2330 C   0  0  0  0  0  2  0  0  0  0  0  0
  193.1430  169.9680  135.8600 O   0  0  0  0  0  0  0  0  0  0  0  0
  192.4790  169.7080  136.8970 C   0  0  0  0  0  3  0  0  0  0  0  0
  194.5510  173.5530  144.7020 C   0  0  0  0  0  2  0  0  0  0  0  0
  195.5880  173.9700  143.6630 C   0  0  0  0  0  2  0  0  0  0  0  0
  194.9190  174.2900  142.3390 C   0  0  0  0  0  2  0  0  0  0  0  0
  195.6850  175.1480  140.0940 N   0  0  0  0  0  2  0  0  0  0  0  0
  195.9240  174.3250  141.2370 C   0  0  0  0  0  0  0  0  0  0  0  0
  196.9810  173.6430  141.3300 O   0  0  0  0  0  0  0  0  0  0  0  0
  196.6480  175.2680  139.0140 C   0  0  0  0  0  1  0  0  0  0  0  0
  1  3  1  0  0  0  0
  1 24  1  1  0  0  0
  1 46  1  0  0  0  0
  2  3  2  0  0  0  0
  3  4  1  0  0  0  0
  4  7  1  0  0  0  0
  5  8  1  0  0  0  0
  6  8  2  0  0  0  0
  6 11  1  0  0  0  0
  7  5  2  0  0  0  0
  9  7  1  0  0  0  0
  9 10  2  0  0  0  0
 10  6  1  0  0  0  0
 12 11  1  0  0  0  0
 13 12  1  0  0  0  0
 14 13  1  0  0  0  0
 15 14  1  0  0  0  0
 16 21  1  6  0  0  0
 16 22  1  0  0  0  0
 16 15  1  0  0  0  0
 17 18  1  0  0  0  0
 17 16  1  0  0  0  0
 19 17  2  0  0  0  0
 20 21  1  0  0  0  0
 23 22  1  0  0  0  0
 25 24  1  0  0  0  0
 26 35  1  0  0  0  0
 26 36  1  0  0  0  0
 26 25  1  1  0  0  0
 27 28  2  0  0  0  0
 28 32  1  0  0  0  0
 28 30  1  0  0  0  0
 29 31  2  0  0  0  0
 30 35  1  0  0  0  0
 31 27  1  0  0  0  0
 31 34  1  0  0  0  0
 32 34  1  6  0  0  0
 32 26  1  0  0  0  0
 34 33  2  0  0  0  0
 35 36  1  1  0  0  0
 37 40  1  0  0  0  0
 38 37  1  0  0  0  0
 39 40  1  0  0  0  0
 40 29  1  0  0  0  0
 41 38  1  0  0  0  0
 41 43  1  0  0  0  0
 42 41  1  0  0  0  0
 43 39  1  0  0  0  0
 44 45  2  0  0  0  0
 45 29  1  0  0  0  0
 47 46  1  0  0  0  0
 48 47  1  0  0  0  0
 49 50  1  0  0  0  0
 50 51  2  0  0  0  0
 50 48  1  0  0  0  0
 52 49  1  0  0  0  0
M  END
>  <MODEL>
4

>  <REMARK>
 VINA RESULT:      -5.8      2.124      2.895
  Name = 
  20 active torsions:
  status: ('A' for Active; 'I' for Inactive)
    1  A    between atoms: C_1  and  C_49
    2  A    between atoms: C_3  and  N_4
    3  A    between atoms: C_3  and  C_35
    4  A    between atoms: N_4  and  C_19
    5  A    between atoms: C_12  and  C_47
    6  A    between atoms: C_14  and  C_23
    7  A    between atoms: C_14  and  C_52
    8  A    between atoms: C_15  and  C_20
    9  A    between atoms: C_15  and  C_31
   10  A    between atoms: C_16  and  C_23
   11  A    between atoms: C_18  and  C_24
   12  A    between atoms: C_21  and  C_47
   13  A    between atoms: C_22  and  N_36
   14  A    between atoms: C_24  and  C_42
   15  A    between atoms: C_24  and  C_52
   16  A    between atoms: C_27  and  C_47
   17  A    between atoms: C_28  and  C_33
   18  A    between atoms: C_28  and  C_47
   19  A    between atoms: C_33  and  C_35
   20  A    between atoms: C_42  and  C_49
                            x       y       z     vdW  Elec       q    Type
                         _______ _______ _______ _____ _____    ______ ____

>  <TORSDO>
F 20

$$$$
=
 OpenBabel11042420003D

 52 56  0  0  1  0  0  0  0  0999 V2000
  192.3920  169.7540  143.1210 C   0  0  2  0  0  3  0  0  0  0  0  0
  192.6100  172.0090  142.3910 O   0  0  0  0  0  0  0  0  0  0  0  0
  191.8290  171.0990  142.7730 C   0  0  0  0  0  0  0  0  0  0  0  0
  190.4180  171.3340  142.8850 N   0  0  0  0  0  2  0  0  0  0  0  0
  189.5030  173.5930  143.3580 C   0  0  0  0  0  3  0  0  0  0  0  0
  188.3620  174.8200  141.6060 C   0  0  0  0  0  0  0  0  0  0  0  0
  189.7080  172.5140  142.4840 C   0  0  0  0  0  0  0  0  0  0  0  0
  188.8340  174.7400  142.9200 C   0  0  0  0  0  3  0  0  0  0  0  0
  189.2430  172.6000  141.1690 C   0  0  0  0  0  3  0  0  0  0  0  0
  188.5740  173.7450  140.7300 C   0  0  0  0  0  3  0  0  0  0  0  0
  187.7040  176.0150  141.1700 N   0  0  0  0  0  2  0  0  0  0  0  0
  186.6640  176.6820  141.9430 C   0  0  0  0  0  2  0  0  0  0  0  0
  187.2450  177.8560  142.7160 C   0  0  0  0  0  2  0  0  0  0  0  0
  186.3560  178.2220  143.8940 C   0  0  0  0  0  2  0  0  0  0  0  0
  187.1760  178.3490  145.1810 C   0  0  0  0  0  2  0  0  0  0  0  0
  186.5600  177.6380  146.3930 C   0  0  1  0  0  0  0  0  0  0  0  0
  187.4360  176.4410  146.6890 C   0  0  0  0  0  0  0  0  0  0  0  0
  188.4300  176.1870  145.9560 O   0  0  0  0  0  0  0  0  0  0  0  0
  187.2010  175.6440  147.8020 O   0  0  0  0  0  1  0  0  0  0  0  0
  187.8030  178.8190  148.1060 F   0  0  0  0  0  0  0  0  0  0  0  0
  186.5380  178.6080  147.5860 C   0  0  0  0  0  2  0  0  0  0  0  0
  185.1310  177.1950  146.0240 C   0  0  0  0  0  2  0  0  0  0  0  0
  184.0360  178.0280  146.6770 C   0  0  0  0  0  1  0  0  0  0  0  0
  193.8620  169.8450  143.5090 C   0  0  0  0  0  2  0  0  0  0  0  0
  194.0240  169.5460  144.9890 C   0  0  0  0  0  2  0  0  0  0  0  0
  195.3550  170.0740  145.4970 C   0  0  2  0  0  0  0  0  0  0  0  0
  196.9030  172.7990  144.2950 N   0  0  0  0  0  0  0  0  0  0  0  0
  196.8970  171.7780  145.0920 C   0  0  0  0  0  0  0  0  0  0  0  0
  195.3020  174.5710  143.7460 C   0  0  0  0  0  0  0  0  0  0  0  0
  197.5420  170.5730  144.7260 N   0  0  0  0  0  2  0  0  0  0  0  0
  195.6280  173.4220  144.3720 C   0  0  0  0  0  0  0  0  0  0  0  0
  195.6270  171.5430  145.8230 C   0  0  1  0  0  3  0  0  0  0  0  0
  193.5380  172.7360  145.4090 O   0  0  0  0  0  0  0  0  0  0  0  0
  194.7690  172.5800  145.1970 C   0  0  0  0  0  0  0  0  0  0  0  0
  196.5740  169.4830  144.7880 C   0  0  1  0  0  3  0  0  0  0  0  0
  196.2450  169.0890  146.2260 C   0  0  0  0  0  2  0  0  0  0  0  0
  193.9140  176.2090  145.0200 C   0  0  0  0  0  2  0  0  0  0  0  0
  192.5200  176.8260  145.1200 C   0  0  0  0  0  2  0  0  0  0  0  0
  193.4070  175.7390  142.5980 C   0  0  0  0  0  2  0  0  0  0  0  0
  193.9280  175.1540  143.9130 C   0  0  0  0  0  3  0  0  0  0  0  0
  192.1470  177.4320  143.8410 N   0  0  0  0  0  0  0  0  0  0  0  0
  190.8160  177.9800  144.0150 C   0  0  0  0  0  1  0  0  0  0  0  0
  192.0400  176.3750  142.8370 C   0  0  0  0  0  2  0  0  0  0  0  0
  197.2720  175.9110  143.3980 O   0  0  0  0  0  0  0  0  0  0  0  0
  196.2710  175.3200  142.9140 C   0  0  0  0  0  3  0  0  0  0  0  0
  192.1450  168.7250  142.0180 C   0  0  0  0  0  2  0  0  0  0  0  0
  192.1180  169.3440  140.6240 C   0  0  0  0  0  2  0  0  0  0  0  0
  190.7460  169.1830  139.9940 C   0  0  0  0  0  2  0  0  0  0  0  0
  191.3210  170.4630  137.8980 N   0  0  0  0  0  2  0  0  0  0  0  0
  190.8370  169.2650  138.5080 C   0  0  0  0  0  0  0  0  0  0  0  0
  190.5040  168.2740  137.8020 O   0  0  0  0  0  0  0  0  0  0  0  0
  191.4850  170.5870  136.4610 C   0  0  0  0  0  1  0  0  0  0  0  0
  1 46  1  6  0  0  0
  1 24  1  0  0  0  0
  2  3  2  0  0  0  0
  3  4  1  0  0  0  0
  3  1  1  0  0  0  0
  6  8  2  0  0  0  0
  7  4  1  0  0  0  0
  7  5  2  0  0  0  0
  8  5  1  0  0  0  0
  9  7  1  0  0  0  0
 10  9  2  0  0  0  0
 10  6  1  0  0  0  0
 11  6  1  0  0  0  0
 11 12  1  0  0  0  0
 12 13  1  0  0  0  0
 13 14  1  0  0  0  0
 14 15  1  0  0  0  0
 16 15  1  6  0  0  0
 16 17  1  0  0  0  0
 16 21  1  0  0  0  0
 17 19  1  0  0  0  0
 18 17  2  0  0  0  0
 21 20  1  0  0  0  0
 22 16  1  0  0  0  0
 22 23  1  0  0  0  0
 24 25  1  0  0  0  0
 26 25  1  6  0  0  0
 26 32  1  0  0  0  0
 26 36  1  0  0  0  0
 27 31  1  0  0  0  0
 27 28  2  0  0  0  0
 29 40  1  0  0  0  0
 29 31  2  0  0  0  0
 30 35  1  0  0  0  0
 30 28  1  0  0  0  0
 31 34  1  0  0  0  0
 32 28  1  6  0  0  0
 34 33  2  0  0  0  0
 34 32  1  0  0  0  0
 35 26  1  0  0  0  0
 35 36  1  1  0  0  0
 37 38  1  0  0  0  0
 39 43  1  0  0  0  0
 39 40  1  0  0  0  0
 40 37  1  0  0  0  0
 41 42  1  0  0  0  0
 41 38  1  0  0  0  0
 43 41  1  0  0  0  0
 45 44  2  0  0  0  0
 45 29  1  0  0  0  0
 47 46  1  0  0  0  0
 48 47  1  0  0  0  0
 49 50  1  0  0  0  0
 50 48  1  0  0  0  0
 51 50  2  0  0  0  0
 52 49  1  0  0  0  0
M  END
>  <MODEL>
5

>  <REMARK>
 VINA RESULT:      -5.6      2.432      5.864
  Name = 
  20 active torsions:
  status: ('A' for Active; 'I' for Inactive)
    1  A    between atoms: C_1  and  C_49
    2  A    between atoms: C_3  and  N_4
    3  A    between atoms: C_3  and  C_35
    4  A    between atoms: N_4  and  C_19
    5  A    between atoms: C_12  and  C_47
    6  A    between atoms: C_14  and  C_23
    7  A    between atoms: C_14  and  C_52
    8  A    between atoms: C_15  and  C_20
    9  A    between atoms: C_15  and  C_31
   10  A    between atoms: C_16  and  C_23
   11  A    between atoms: C_18  and  C_24
   12  A    between atoms: C_21  and  C_47
   13  A    between atoms: C_22  and  N_36
   14  A    between atoms: C_24  and  C_42
   15  A    between atoms: C_24  and  C_52
   16  A    between atoms: C_27  and  C_47
   17  A    between atoms: C_28  and  C_33
   18  A    between atoms: C_28  and  C_47
   19  A    between atoms: C_33  and  C_35
   20  A    between atoms: C_42  and  C_49
                            x       y       z     vdW  Elec       q    Type
                         _______ _______ _______ _____ _____    ______ ____

>  <TORSDO>
F 20

$$$$
=
 OpenBabel11042420003D

 52 56  0  0  1  0  0  0  0  0999 V2000
  196.3010  174.4120  142.2150 C   0  0  2  0  0  3  0  0  0  0  0  0
  193.9900  174.7400  141.7460 O   0  0  0  0  0  0  0  0  0  0  0  0
  194.9320  174.9120  142.5630 C   0  0  0  0  0  0  0  0  0  0  0  0
  194.7120  175.5840  143.8130 N   0  0  0  0  0  2  0  0  0  0  0  0
  192.7050  177.0430  143.7530 C   0  0  0  0  0  3  0  0  0  0  0  0
  190.9640  176.7640  145.4170 C   0  0  0  0  0  0  0  0  0  0  0  0
  193.4540  176.0160  144.3470 C   0  0  0  0  0  0  0  0  0  0  0  0
  191.4660  177.4140  144.2850 C   0  0  0  0  0  3  0  0  0  0  0  0
  192.9460  175.3630  145.4750 C   0  0  0  0  0  3  0  0  0  0  0  0
  191.7090  175.7330  146.0080 C   0  0  0  0  0  3  0  0  0  0  0  0
  189.6820  177.1420  145.9300 N   0  0  0  0  0  2  0  0  0  0  0  0
  189.0610  176.5030  147.0840 C   0  0  0  0  0  2  0  0  0  0  0  0
  187.5600  176.3740  146.8780 C   0  0  0  0  0  2  0  0  0  0  0  0
  187.0440  177.4660  145.9540 C   0  0  0  0  0  2  0  0  0  0  0  0
  186.2380  176.8700  144.7970 C   0  0  0  0  0  2  0  0  0  0  0  0
  186.3840  177.6280  143.4710 C   0  0  1  0  0  0  0  0  0  0  0  0
  185.2840  178.6650  143.4360 C   0  0  0  0  0  0  0  0  0  0  0  0
  185.5260  179.8570  143.7690 O   0  0  0  0  0  1  0  0  0  0  0  0
  184.0130  178.3400  142.9770 O   0  0  0  0  0  0  0  0  0  0  0  0
  188.2570  178.3880  142.1330 F   0  0  0  0  0  0  0  0  0  0  0  0
  187.7680  178.2950  143.4250 C   0  0  0  0  0  2  0  0  0  0  0  0
  186.2260  176.6200  142.3150 C   0  0  0  0  0  2  0  0  0  0  0  0
  187.0560  175.3540  142.4790 C   0  0  0  0  0  1  0  0  0  0  0  0
  196.8570  173.5010  143.3020 C   0  0  0  0  0  2  0  0  0  0  0  0
  196.6140  172.0480  142.9310 C   0  0  0  0  0  2  0  0  0  0  0  0
  195.7020  171.3830  143.9490 C   0  0  2  0  0  0  0  0  0  0  0  0
  192.4390  172.0780  144.3160 N   0  0  0  0  0  0  0  0  0  0  0  0
  193.4950  171.4380  144.7060 C   0  0  0  0  0  0  0  0  0  0  0  0
  191.3560  172.4700  142.1530 C   0  0  0  0  0  0  0  0  0  0  0  0
  194.2850  171.9300  145.7710 N   0  0  0  0  0  2  0  0  0  0  0  0
  192.3740  171.9960  142.8980 C   0  0  0  0  0  0  0  0  0  0  0  0
  194.3120  170.8330  143.6250 C   0  0  1  0  0  3  0  0  0  0  0  0
  193.9660  171.2080  141.2370 O   0  0  0  0  0  0  0  0  0  0  0  0
  193.6010  171.3580  142.4320 C   0  0  0  0  0  0  0  0  0  0  0  0
  195.6590  172.0890  145.3050 C   0  0  1  0  0  3  0  0  0  0  0  0
  196.3710  170.7470  145.1490 C   0  0  0  0  0  2  0  0  0  0  0  0
  190.5320  171.1160  140.2240 C   0  0  0  0  0  2  0  0  0  0  0  0
  190.5270  171.0230  138.7000 C   0  0  0  0  0  2  0  0  0  0  0  0
  190.9200  173.5900  139.9550 C   0  0  0  0  0  2  0  0  0  0  0  0
  191.3810  172.3110  140.6600 C   0  0  0  0  0  3  0  0  0  0  0  0
  189.9930  172.2570  138.1230 N   0  0  0  0  0  0  0  0  0  0  0  0
  190.0330  172.0930  136.6820 C   0  0  0  0  0  1  0  0  0  0  0  0
  190.9010  173.3550  138.4470 C   0  0  0  0  0  2  0  0  0  0  0  0
  190.1810  174.3120  143.1640 O   0  0  0  0  0  0  0  0  0  0  0  0
  190.1710  173.1210  142.7570 C   0  0  0  0  0  3  0  0  0  0  0  0
  197.2570  175.5510  141.8650 C   0  0  0  0  0  2  0  0  0  0  0  0
  197.1480  175.9900  140.4080 C   0  0  0  0  0  2  0  0  0  0  0  0
  197.0580  174.7830  139.4920 C   0  0  0  0  0  2  0  0  0  0  0  0
  197.5940  175.4910  137.1310 N   0  0  0  0  0  2  0  0  0  0  0  0
  196.6150  175.1910  138.1270 C   0  0  0  0  0  0  0  0  0  0  0  0
  195.3840  175.2520  137.8580 O   0  0  0  0  0  0  0  0  0  0  0  0
  197.2290  175.8400  135.7700 C   0  0  0  0  0  1  0  0  0  0  0  0
  1 46  1  1  0  0  0
  1  3  1  0  0  0  0
  1 24  1  0  0  0  0
  2  3  2  0  0  0  0
  3  4  1  0  0  0  0
  4  7  1  0  0  0  0
  5  8  2  0  0  0  0
  5  7  1  0  0  0  0
  6 11  1  0  0  0  0
  6 10  2  0  0  0  0
  7  9  2  0  0  0  0
  8  6  1  0  0  0  0
  9 10  1  0  0  0  0
 11 12  1  0  0  0  0
 13 12  1  0  0  0  0
 14 13  1  0  0  0  0
 15 14  1  0  0  0  0
 16 22  1  6  0  0  0
 16 15  1  0  0  0  0
 17 16  1  0  0  0  0
 17 18  1  0  0  0  0
 19 17  2  0  0  0  0
 20 21  1  0  0  0  0
 21 16  1  0  0  0  0
 22 23  1  0  0  0  0
 25 24  1  0  0  0  0
 26 25  1  6  0  0  0
 26 36  1  0  0  0  0
 26 35  1  0  0  0  0
 27 28  2  0  0  0  0
 28 30  1  0  0  0  0
 29 45  1  0  0  0  0
 29 31  2  0  0  0  0
 31 27  1  0  0  0  0
 32 34  1  6  0  0  0
 32 26  1  0  0  0  0
 32 28  1  0  0  0  0
 33 34  2  0  0  0  0
 34 31  1  0  0  0  0
 35 36  1  1  0  0  0
 35 30  1  0  0  0  0
 37 40  1  0  0  0  0
 38 37  1  0  0  0  0
 39 40  1  0  0  0  0
 40 29  1  0  0  0  0
 41 43  1  0  0  0  0
 41 38  1  0  0  0  0
 42 41  1  0  0  0  0
 43 39  1  0  0  0  0
 45 44  2  0  0  0  0
 47 46  1  0  0  0  0
 48 47  1  0  0  0  0
 49 50  1  0  0  0  0
 50 48  1  0  0  0  0
 51 50  2  0  0  0  0
 52 49  1  0  0  0  0
M  END
>  <MODEL>
6

>  <REMARK>
 VINA RESULT:      -5.5      2.059      3.212
  Name = 
  20 active torsions:
  status: ('A' for Active; 'I' for Inactive)
    1  A    between atoms: C_1  and  C_49
    2  A    between atoms: C_3  and  N_4
    3  A    between atoms: C_3  and  C_35
    4  A    between atoms: N_4  and  C_19
    5  A    between atoms: C_12  and  C_47
    6  A    between atoms: C_14  and  C_23
    7  A    between atoms: C_14  and  C_52
    8  A    between atoms: C_15  and  C_20
    9  A    between atoms: C_15  and  C_31
   10  A    between atoms: C_16  and  C_23
   11  A    between atoms: C_18  and  C_24
   12  A    between atoms: C_21  and  C_47
   13  A    between atoms: C_22  and  N_36
   14  A    between atoms: C_24  and  C_42
   15  A    between atoms: C_24  and  C_52
   16  A    between atoms: C_27  and  C_47
   17  A    between atoms: C_28  and  C_33
   18  A    between atoms: C_28  and  C_47
   19  A    between atoms: C_33  and  C_35
   20  A    between atoms: C_42  and  C_49
                            x       y       z     vdW  Elec       q    Type
                         _______ _______ _______ _____ _____    ______ ____

>  <TORSDO>
F 20

$$$$
=
 OpenBabel11042420003D

 52 56  0  0  1  0  0  0  0  0999 V2000
  195.5670  174.0790  144.9440 C   0  0  2  0  0  3  0  0  0  0  0  0
  194.7200  175.6860  146.4820 O   0  0  0  0  0  0  0  0  0  0  0  0
  194.4500  174.8430  145.5870 C   0  0  0  0  0  0  0  0  0  0  0  0
  193.0930  174.6030  145.1830 N   0  0  0  0  0  2  0  0  0  0  0  0
  191.4500  176.4440  144.9090 C   0  0  0  0  0  3  0  0  0  0  0  0
  189.6030  176.6490  146.4660 C   0  0  0  0  0  0  0  0  0  0  0  0
  191.9290  175.3250  145.6080 C   0  0  0  0  0  0  0  0  0  0  0  0
  190.2920  177.1010  145.3370 C   0  0  0  0  0  3  0  0  0  0  0  0
  191.2330  174.8700  146.7320 C   0  0  0  0  0  3  0  0  0  0  0  0
  190.0770  175.5270  147.1610 C   0  0  0  0  0  3  0  0  0  0  0  0
  188.4050  177.3210  146.8700 N   0  0  0  0  0  2  0  0  0  0  0  0
  187.4170  177.8320  145.9280 C   0  0  0  0  0  2  0  0  0  0  0  0
  186.3020  176.8180  145.7230 C   0  0  0  0  0  2  0  0  0  0  0  0
  186.0130  176.6230  144.2430 C   0  0  0  0  0  2  0  0  0  0  0  0
  187.2950  176.2990  143.4710 C   0  0  0  0  0  2  0  0  0  0  0  0
  187.5010  177.1450  142.2080 C   0  0  1  0  0  0  0  0  0  0  0  0
  186.2950  178.0490  142.0860 C   0  0  0  0  0  0  0  0  0  0  0  0
  185.3140  177.7050  141.3730 O   0  0  0  0  0  0  0  0  0  0  0  0
  186.2190  179.2360  142.8050 O   0  0  0  0  0  1  0  0  0  0  0  0
  189.0480  178.7390  141.2400 F   0  0  0  0  0  0  0  0  0  0  0  0
  188.7900  177.9680  142.3590 C   0  0  0  0  0  2  0  0  0  0  0  0
  187.5990  176.1950  140.9980 C   0  0  0  0  0  2  0  0  0  0  0  0
  188.4670  174.9680  141.2420 C   0  0  0  0  0  1  0  0  0  0  0  0
  195.9280  172.8350  145.7460 C   0  0  0  0  0  2  0  0  0  0  0  0
  197.0290  172.0670  145.0360 C   0  0  0  0  0  2  0  0  0  0  0  0
  196.6740  170.5920  144.9410 C   0  0  2  0  0  0  0  0  0  0  0  0
  193.6670  169.4180  144.0210 N   0  0  0  0  0  0  0  0  0  0  0  0
  194.8720  169.1970  144.4420 C   0  0  0  0  0  0  0  0  0  0  0  0
  192.6850  170.7720  142.2290 C   0  0  0  0  0  0  0  0  0  0  0  0
  195.1320  169.0190  145.8210 N   0  0  0  0  0  2  0  0  0  0  0  0
  193.7390  170.3710  142.9680 C   0  0  0  0  0  0  0  0  0  0  0  0
  195.9420  169.9620  143.7550 C   0  0  1  0  0  3  0  0  0  0  0  0
  195.5590  171.7620  142.1500 O   0  0  0  0  0  0  0  0  0  0  0  0
  195.1190  170.8370  142.8820 C   0  0  0  0  0  0  0  0  0  0  0  0
  196.1350  169.9930  146.2400 C   0  0  1  0  0  3  0  0  0  0  0  0
  197.5310  169.6320  145.7380 C   0  0  0  0  0  2  0  0  0  0  0  0
  192.9650  171.0740  139.7670 C   0  0  0  0  0  2  0  0  0  0  0  0
  193.0960  172.1220  138.6630 C   0  0  0  0  0  2  0  0  0  0  0  0
  191.7680  172.8250  141.1260 C   0  0  0  0  0  2  0  0  0  0  0  0
  192.8790  171.7720  141.1250 C   0  0  0  0  0  3  0  0  0  0  0  0
  191.9480  173.0290  138.6930 N   0  0  0  0  0  0  0  0  0  0  0  0
  192.1540  173.9940  137.6290 C   0  0  0  0  0  1  0  0  0  0  0  0
  191.9740  173.7750  139.9490 C   0  0  0  0  0  2  0  0  0  0  0  0
  190.9280  169.1570  141.9120 O   0  0  0  0  0  0  0  0  0  0  0  0
  191.3230  170.2310  142.4380 C   0  0  0  0  0  3  0  0  0  0  0  0
  196.7810  174.9630  144.6620 C   0  0  0  0  0  2  0  0  0  0  0  0
  196.6730  175.7130  143.3370 C   0  0  0  0  0  2  0  0  0  0  0  0
  195.7750  174.9630  142.3700 C   0  0  0  0  0  2  0  0  0  0  0  0
  195.4500  174.6350  139.8910 N   0  0  0  0  0  2  0  0  0  0  0  0
  196.1220  175.3030  140.9600 C   0  0  0  0  0  0  0  0  0  0  0  0
  196.9910  176.1850  140.7220 O   0  0  0  0  0  0  0  0  0  0  0  0
  195.7030  174.9590  138.4980 C   0  0  0  0  0  1  0  0  0  0  0  0
  1 46  1  1  0  0  0
  1  3  1  0  0  0  0
  1 24  1  0  0  0  0
  3  2  2  0  0  0  0
  4  3  1  0  0  0  0
  4  7  1  0  0  0  0
  5  8  2  0  0  0  0
  5  7  1  0  0  0  0
  6 11  1  0  0  0  0
  6 10  2  0  0  0  0
  7  9  2  0  0  0  0
  8  6  1  0  0  0  0
  9 10  1  0  0  0  0
 12 11  1  0  0  0  0
 13 12  1  0  0  0  0
 14 13  1  0  0  0  0
 15 14  1  0  0  0  0
 16 22  1  6  0  0  0
 16 21  1  0  0  0  0
 16 15  1  0  0  0  0
 17 16  1  0  0  0  0
 17 19  1  0  0  0  0
 18 17  2  0  0  0  0
 20 21  1  0  0  0  0
 22 23  1  0  0  0  0
 25 24  1  0  0  0  0
 26 25  1  6  0  0  0
 26 36  1  0  0  0  0
 26 35  1  0  0  0  0
 27 28  2  0  0  0  0
 28 30  1  0  0  0  0
 29 45  1  0  0  0  0
 29 31  2  0  0  0  0
 30 35  1  0  0  0  0
 31 27  1  0  0  0  0
 32 34  1  6  0  0  0
 32 28  1  0  0  0  0
 32 26  1  0  0  0  0
 33 34  2  0  0  0  0
 34 31  1  0  0  0  0
 35 36  1  6  0  0  0
 37 40  1  0  0  0  0
 38 41  1  0  0  0  0
 38 37  1  0  0  0  0
 40 39  1  0  0  0  0
 40 29  1  0  0  0  0
 41 43  1  0  0  0  0
 42 41  1  0  0  0  0
 43 39  1  0  0  0  0
 44 45  2  0  0  0  0
 47 46  1  0  0  0  0
 48 47  1  0  0  0  0
 49 50  1  0  0  0  0
 50 48  1  0  0  0  0
 51 50  2  0  0  0  0
 52 49  1  0  0  0  0
M  END
>  <MODEL>
7

>  <REMARK>
 VINA RESULT:      -5.5      1.819      2.357
  Name = 
  20 active torsions:
  status: ('A' for Active; 'I' for Inactive)
    1  A    between atoms: C_1  and  C_49
    2  A    between atoms: C_3  and  N_4
    3  A    between atoms: C_3  and  C_35
    4  A    between atoms: N_4  and  C_19
    5  A    between atoms: C_12  and  C_47
    6  A    between atoms: C_14  and  C_23
    7  A    between atoms: C_14  and  C_52
    8  A    between atoms: C_15  and  C_20
    9  A    between atoms: C_15  and  C_31
   10  A    between atoms: C_16  and  C_23
   11  A    between atoms: C_18  and  C_24
   12  A    between atoms: C_21  and  C_47
   13  A    between atoms: C_22  and  N_36
   14  A    between atoms: C_24  and  C_42
   15  A    between atoms: C_24  and  C_52
   16  A    between atoms: C_27  and  C_47
   17  A    between atoms: C_28  and  C_33
   18  A    between atoms: C_28  and  C_47
   19  A    between atoms: C_33  and  C_35
   20  A    between atoms: C_42  and  C_49
                            x       y       z     vdW  Elec       q    Type
                         _______ _______ _______ _____ _____    ______ ____

>  <TORSDO>
F 20

$$$$
=
 OpenBabel11042420003D

 52 56  0  0  1  0  0  0  0  0999 V2000
  187.6460  176.2820  146.0030 C   0  0  2  0  0  3  0  0  0  0  0  0
  189.1730  174.6720  146.8650 O   0  0  0  0  0  0  0  0  0  0  0  0
  189.0290  175.7600  146.2480 C   0  0  0  0  0  0  0  0  0  0  0  0
  190.1670  176.5040  145.7860 N   0  0  0  0  0  2  0  0  0  0  0  0
  192.1500  175.4120  144.7700 C   0  0  0  0  0  3  0  0  0  0  0  0
  194.2540  175.3770  145.9740 C   0  0  0  0  0  0  0  0  0  0  0  0
  191.5390  176.0940  145.8330 C   0  0  0  0  0  0  0  0  0  0  0  0
  193.5010  175.0570  144.8410 C   0  0  0  0  0  3  0  0  0  0  0  0
  192.2970  176.4200  146.9630 C   0  0  0  0  0  3  0  0  0  0  0  0
  193.6460  176.0650  147.0340 C   0  0  0  0  0  3  0  0  0  0  0  0
  195.6420  175.0280  146.0140 N   0  0  0  0  0  2  0  0  0  0  0  0
  196.1200  173.6700  146.2460 C   0  0  0  0  0  2  0  0  0  0  0  0
  196.3140  172.9400  144.9260 C   0  0  0  0  0  2  0  0  0  0  0  0
  197.3460  173.6490  144.0630 C   0  0  0  0  0  2  0  0  0  0  0  0
  196.9240  173.6470  142.5910 C   0  0  0  0  0  2  0  0  0  0  0  0
  196.7520  175.0450  141.9830 C   0  0  1  0  0  0  0  0  0  0  0  0
  195.4000  175.0630  141.3050 C   0  0  0  0  0  0  0  0  0  0  0  0
  194.5090  174.2390  141.6470 O   0  0  0  0  0  1  0  0  0  0  0  0
  195.0960  176.0220  140.3480 O   0  0  0  0  0  0  0  0  0  0  0  0
  197.5330  177.2140  142.7300 F   0  0  0  0  0  0  0  0  0  0  0  0
  196.8160  176.0920  143.1070 C   0  0  0  0  0  2  0  0  0  0  0  0
  197.8820  175.2730  140.9600 C   0  0  0  0  0  2  0  0  0  0  0  0
  197.9120  174.2510  139.8310 C   0  0  0  0  0  1  0  0  0  0  0  0
  187.4510  176.6890  144.5480 C   0  0  0  0  0  2  0  0  0  0  0  0
  188.3780  175.8810  143.6570 C   0  0  0  0  0  2  0  0  0  0  0  0
  187.6570  175.4430  142.3940 C   0  0  2  0  0  0  0  0  0  0  0  0
  189.0690  173.6730  139.9160 N   0  0  0  0  0  0  0  0  0  0  0  0
  188.0460  174.3070  140.3930 C   0  0  0  0  0  0  0  0  0  0  0  0
  190.6130  171.9810  140.7890 C   0  0  0  0  0  0  0  0  0  0  0  0
  187.8010  175.6540  140.0350 N   0  0  0  0  0  2  0  0  0  0  0  0
  189.5980  172.8540  140.9510 C   0  0  0  0  0  0  0  0  0  0  0  0
  187.7240  174.0290  141.8150 C   0  0  1  0  0  3  0  0  0  0  0  0
  189.1270  172.7310  143.3340 O   0  0  0  0  0  0  0  0  0  0  0  0
  188.8760  173.1660  142.1800 C   0  0  0  0  0  0  0  0  0  0  0  0
  187.7230  176.4570  141.2510 C   0  0  1  0  0  3  0  0  0  0  0  0
  186.4190  176.2250  142.0100 C   0  0  0  0  0  2  0  0  0  0  0  0
  191.2520  169.6860  141.5360 C   0  0  0  0  0  2  0  0  0  0  0  0
  191.7880  168.8820  142.7190 C   0  0  0  0  0  2  0  0  0  0  0  0
  192.3770  171.7010  142.5460 C   0  0  0  0  0  2  0  0  0  0  0  0
  191.0790  171.1490  141.9490 C   0  0  0  0  0  3  0  0  0  0  0  0
  193.0690  169.4350  143.1620 N   0  0  0  0  0  0  0  0  0  0  0  0
  193.5010  168.6290  144.2880 C   0  0  0  0  0  1  0  0  0  0  0  0
  192.8420  170.7860  143.6740 C   0  0  0  0  0  2  0  0  0  0  0  0
  192.4960  171.4780  139.3760 O   0  0  0  0  0  0  0  0  0  0  0  0
  191.2770  171.7760  139.4820 C   0  0  0  0  0  3  0  0  0  0  0  0
  187.2720  177.4000  146.9750 C   0  0  0  0  0  2  0  0  0  0  0  0
  185.7880  177.7520  146.9330 C   0  0  0  0  0  2  0  0  0  0  0  0
  185.5930  179.1920  146.4950 C   0  0  0  0  0  2  0  0  0  0  0  0
  184.2410  178.3280  144.5490 N   0  0  0  0  0  2  0  0  0  0  0  0
  185.1990  179.2560  145.0580 C   0  0  0  0  0  0  0  0  0  0  0  0
  185.7020  180.1380  144.3080 O   0  0  0  0  0  0  0  0  0  0  0  0
  183.7760  178.3730  143.1750 C   0  0  0  0  0  1  0  0  0  0  0  0
  1 24  1  6  0  0  0
  1  3  1  0  0  0  0
  1 46  1  0  0  0  0
  3  2  2  0  0  0  0
  4  7  1  0  0  0  0
  4  3  1  0  0  0  0
  5  8  2  0  0  0  0
  5  7  1  0  0  0  0
  6 11  1  0  0  0  0
  6 10  2  0  0  0  0
  7  9  2  0  0  0  0
  8  6  1  0  0  0  0
  9 10  1  0  0  0  0
 11 12  1  0  0  0  0
 13 12  1  0  0  0  0
 14 13  1  0  0  0  0
 15 14  1  0  0  0  0
 16 22  1  6  0  0  0
 16 15  1  0  0  0  0
 16 21  1  0  0  0  0
 17 18  1  0  0  0  0
 17 16  1  0  0  0  0
 19 17  2  0  0  0  0
 20 21  1  0  0  0  0
 23 22  1  0  0  0  0
 25 24  1  0  0  0  0
 26 25  1  1  0  0  0
 27 28  2  0  0  0  0
 27 31  1  0  0  0  0
 29 31  2  0  0  0  0
 29 40  1  0  0  0  0
 30 28  1  0  0  0  0
 30 35  1  0  0  0  0
 31 34  1  0  0  0  0
 32 28  1  6  0  0  0
 32 34  1  0  0  0  0
 32 26  1  0  0  0  0
 34 33  2  0  0  0  0
 35 36  1  6  0  0  0
 35 26  1  0  0  0  0
 36 26  1  0  0  0  0
 37 40  1  0  0  0  0
 37 38  1  0  0  0  0
 38 41  1  0  0  0  0
 39 43  1  0  0  0  0
 40 39  1  0  0  0  0
 41 43  1  0  0  0  0
 41 42  1  0  0  0  0
 44 45  2  0  0  0  0
 45 29  1  0  0  0  0
 47 46  1  0  0  0  0
 48 47  1  0  0  0  0
 49 50  1  0  0  0  0
 50 48  1  0  0  0  0
 51 50  2  0  0  0  0
 52 49  1  0  0  0  0
M  END
>  <MODEL>
8

>  <REMARK>
 VINA RESULT:      -5.5      2.508      8.479
  Name = 
  20 active torsions:
  status: ('A' for Active; 'I' for Inactive)
    1  A    between atoms: C_1  and  C_49
    2  A    between atoms: C_3  and  N_4
    3  A    between atoms: C_3  and  C_35
    4  A    between atoms: N_4  and  C_19
    5  A    between atoms: C_12  and  C_47
    6  A    between atoms: C_14  and  C_23
    7  A    between atoms: C_14  and  C_52
    8  A    between atoms: C_15  and  C_20
    9  A    between atoms: C_15  and  C_31
   10  A    between atoms: C_16  and  C_23
   11  A    between atoms: C_18  and  C_24
   12  A    between atoms: C_21  and  C_47
   13  A    between atoms: C_22  and  N_36
   14  A    between atoms: C_24  and  C_42
   15  A    between atoms: C_24  and  C_52
   16  A    between atoms: C_27  and  C_47
   17  A    between atoms: C_28  and  C_33
   18  A    between atoms: C_28  and  C_47
   19  A    between atoms: C_33  and  C_35
   20  A    between atoms: C_42  and  C_49
                            x       y       z     vdW  Elec       q    Type
                         _______ _______ _______ _____ _____    ______ ____

>  <TORSDO>
F 20

$$$$
=
 OpenBabel11042420003D

 52 56  0  0  1  0  0  0  0  0999 V2000
  193.5360  172.7540  140.0650 C   0  0  2  0  0  3  0  0  0  0  0  0
  191.8170  174.2610  140.7280 O   0  0  0  0  0  0  0  0  0  0  0  0
  192.8990  173.6980  141.0390 C   0  0  0  0  0  0  0  0  0  0  0  0
  193.5270  173.9520  142.3050 N   0  0  0  0  0  2  0  0  0  0  0  0
  192.9990  176.1310  143.3700 C   0  0  0  0  0  3  0  0  0  0  0  0
  191.8810  176.1790  145.5210 C   0  0  0  0  0  0  0  0  0  0  0  0
  192.9970  174.7280  143.3880 C   0  0  0  0  0  0  0  0  0  0  0  0
  192.4430  176.8520  144.4320 C   0  0  0  0  0  3  0  0  0  0  0  0
  192.4280  174.0580  144.4750 C   0  0  0  0  0  3  0  0  0  0  0  0
  191.8730  174.7770  145.5360 C   0  0  0  0  0  3  0  0  0  0  0  0
  191.2940  176.9370  146.5840 N   0  0  0  0  0  2  0  0  0  0  0  0
  189.9440  176.7030  147.0830 C   0  0  0  0  0  2  0  0  0  0  0  0
  188.9670  176.5560  145.9270 C   0  0  0  0  0  2  0  0  0  0  0  0
  187.5660  176.9760  146.3440 C   0  0  0  0  0  2  0  0  0  0  0  0
  187.1560  178.2790  145.6530 C   0  0  0  0  0  2  0  0  0  0  0  0
  185.7540  178.2490  145.0320 C   0  0  1  0  0  0  0  0  0  0  0  0
  184.7850  178.6580  146.1180 C   0  0  0  0  0  0  0  0  0  0  0  0
  185.2160  179.0720  147.2280 O   0  0  0  0  0  1  0  0  0  0  0  0
  183.4140  178.6480  145.8920 O   0  0  0  0  0  0  0  0  0  0  0  0
  185.7680  180.5520  144.2780 F   0  0  0  0  0  0  0  0  0  0  0  0
  185.7060  179.2360  143.8540 C   0  0  0  0  0  2  0  0  0  0  0  0
  185.4650  176.8130  144.5510 C   0  0  0  0  0  2  0  0  0  0  0  0
  186.0800  176.4760  143.1990 C   0  0  0  0  0  1  0  0  0  0  0  0
  194.4980  173.4770  139.1330 C   0  0  0  0  0  2  0  0  0  0  0  0
  195.8540  172.7940  139.1600 C   0  0  0  0  0  2  0  0  0  0  0  0
  196.9110  173.7270  139.7280 C   0  0  2  0  0  0  0  0  0  0  0  0
  196.9430  174.8640  142.8860 N   0  0  0  0  0  0  0  0  0  0  0  0
  197.4550  174.8560  141.6970 C   0  0  0  0  0  0  0  0  0  0  0  0
  196.2210  173.1380  144.4690 C   0  0  0  0  0  0  0  0  0  0  0  0
  197.1130  175.8550  140.7560 N   0  0  0  0  0  2  0  0  0  0  0  0
  196.6730  173.5180  143.2570 C   0  0  0  0  0  0  0  0  0  0  0  0
  197.6070  173.5170  141.0740 C   0  0  1  0  0  3  0  0  0  0  0  0
  196.7100  171.4410  141.9930 O   0  0  0  0  0  0  0  0  0  0  0  0
  196.9360  172.6750  142.0960 C   0  0  0  0  0  0  0  0  0  0  0  0
  196.5920  175.2120  139.5540 C   0  0  1  0  0  3  0  0  0  0  0  0
  197.6970  174.5530  138.7310 C   0  0  0  0  0  2  0  0  0  0  0  0
  196.9800  171.1720  145.8080 C   0  0  0  0  0  2  0  0  0  0  0  0
  196.6750  169.7100  146.1270 C   0  0  0  0  0  2  0  0  0  0  0  0
  194.5470  171.4260  145.2060 C   0  0  0  0  0  2  0  0  0  0  0  0
  195.9890  171.6830  144.7600 C   0  0  0  0  0  3  0  0  0  0  0  0
  195.3050  169.5800  146.6240 N   0  0  0  0  0  0  0  0  0  0  0  0
  195.0920  168.1700  146.8910 C   0  0  0  0  0  1  0  0  0  0  0  0
  194.3820  169.9490  145.5520 C   0  0  0  0  0  2  0  0  0  0  0  0
  196.7460  174.2380  146.5440 O   0  0  0  0  0  0  0  0  0  0  0  0
  195.9730  174.1080  145.5590 C   0  0  0  0  0  3  0  0  0  0  0  0
  192.5000  171.9270  139.3050 C   0  0  0  0  0  2  0  0  0  0  0  0
  192.2330  170.5710  139.9510 C   0  0  0  0  0  2  0  0  0  0  0  0
  190.8020  170.4890  140.4500 C   0  0  0  0  0  2  0  0  0  0  0  0
  189.6900  171.6450  142.3950 N   0  0  0  0  0  2  0  0  0  0  0  0
  190.7340  170.8030  141.9060 C   0  0  0  0  0  0  0  0  0  0  0  0
  191.5860  170.3100  142.6960 O   0  0  0  0  0  0  0  0  0  0  0  0
  189.5360  171.9440  143.8080 C   0  0  0  0  0  1  0  0  0  0  0  0
  1 24  1  6  0  0  0
  1  3  1  0  0  0  0
  2  3  2  0  0  0  0
  3  4  1  0  0  0  0
  4  7  1  0  0  0  0
  5  7  2  0  0  0  0
  5  8  1  0  0  0  0
  6 10  1  0  0  0  0
  6 11  1  0  0  0  0
  7  9  1  0  0  0  0
  8  6  2  0  0  0  0
  9 10  2  0  0  0  0
 11 12  1  0  0  0  0
 13 14  1  0  0  0  0
 13 12  1  0  0  0  0
 15 14  1  0  0  0  0
 16 21  1  6  0  0  0
 16 15  1  0  0  0  0
 16 17  1  0  0  0  0
 17 18  1  0  0  0  0
 19 17  2  0  0  0  0
 21 20  1  0  0  0  0
 22 16  1  0  0  0  0
 23 22  1  0  0  0  0
 24 25  1  0  0  0  0
 26 25  1  6  0  0  0
 26 32  1  0  0  0  0
 27 31  1  0  0  0  0
 28 27  2  0  0  0  0
 29 40  1  0  0  0  0
 29 45  1  0  0  0  0
 30 28  1  0  0  0  0
 31 29  2  0  0  0  0
 32 28  1  1  0  0  0
 32 34  1  0  0  0  0
 33 34  2  0  0  0  0
 34 31  1  0  0  0  0
 35 36  1  6  0  0  0
 35 26  1  0  0  0  0
 35 30  1  0  0  0  0
 36 26  1  0  0  0  0
 37 38  1  0  0  0  0
 38 41  1  0  0  0  0
 39 43  1  0  0  0  0
 40 39  1  0  0  0  0
 40 37  1  0  0  0  0
 41 42  1  0  0  0  0
 43 41  1  0  0  0  0
 45 44  2  0  0  0  0
 46 47  1  0  0  0  0
 46  1  1  0  0  0  0
 47 48  1  0  0  0  0
 48 50  1  0  0  0  0
 49 52  1  0  0  0  0
 50 49  1  0  0  0  0
 50 51  2  0  0  0  0
M  END
>  <MODEL>
9

>  <REMARK>
 VINA RESULT:      -5.5      2.439      6.456
  Name = 
  20 active torsions:
  status: ('A' for Active; 'I' for Inactive)
    1  A    between atoms: C_1  and  C_49
    2  A    between atoms: C_3  and  N_4
    3  A    between atoms: C_3  and  C_35
    4  A    between atoms: N_4  and  C_19
    5  A    between atoms: C_12  and  C_47
    6  A    between atoms: C_14  and  C_23
    7  A    between atoms: C_14  and  C_52
    8  A    between atoms: C_15  and  C_20
    9  A    between atoms: C_15  and  C_31
   10  A    between atoms: C_16  and  C_23
   11  A    between atoms: C_18  and  C_24
   12  A    between atoms: C_21  and  C_47
   13  A    between atoms: C_22  and  N_36
   14  A    between atoms: C_24  and  C_42
   15  A    between atoms: C_24  and  C_52
   16  A    between atoms: C_27  and  C_47
   17  A    between atoms: C_28  and  C_33
   18  A    between atoms: C_28  and  C_47
   19  A    between atoms: C_33  and  C_35
   20  A    between atoms: C_42  and  C_49
                            x       y       z     vdW  Elec       q    Type
                         _______ _______ _______ _____ _____    ______ ____

>  <TORSDO>
F 20

$$$$
