=
 OpenBabel11042418203D

 35 36  0  0  1  0  0  0  0  0999 V2000
  191.4160  177.0610  143.9420 O   0  0  0  0  0  0  0  0  0  0  0  0
  190.6410  177.0150  142.8290 C   0  0  1  0  0  3  0  0  0  0  0  0
  190.5280  175.9980  143.8500 N   0  0  0  0  0  0  0  0  0  0  0  0
  189.4990  177.9980  142.9720 C   0  0  0  0  0  2  0  0  0  0  0  0
  188.7570  178.0620  141.7240 N   0  0  0  0  0  2  0  0  0  0  0  0
  186.8390  177.8280  140.4550 O   0  0  0  0  0  0  0  0  0  0  0  0
  187.3290  178.0010  141.6030 C   0  0  0  0  0  0  0  0  0  0  0  0
  185.5810  179.1820  145.5030 C   0  0  0  0  0  3  0  0  0  0  0  0
  185.9120  176.9290  143.4610 C   0  0  0  0  0  3  0  0  0  0  0  0
  186.0620  179.3380  143.1250 N   0  0  0  0  0  0  0  0  0  0  0  0
  185.1000  179.6520  144.1730 C   0  0  0  0  0  2  0  0  0  0  0  0
  186.4040  178.1370  142.7560 C   0  0  0  0  0  0  0  0  0  0  0  0
  185.8160  177.8970  145.7710 C   0  0  0  0  0  0  0  0  0  0  0  0
  185.6610  176.8220  144.7710 C   0  0  0  0  0  3  0  0  0  0  0  0
  186.1570  177.5150  147.1680 C   0  0  0  0  0  2  0  0  0  0  0  0
  187.0230  176.3460  147.1640 N   0  0  0  0  0  2  0  0  0  0  0  0
  188.4300  176.4480  146.9430 C   0  0  0  0  0  0  0  0  0  0  0  0
  188.9600  177.5750  146.7330 O   0  0  0  0  0  0  0  0  0  0  0  0
  190.5470  175.2970  147.4300 C   0  0  0  0  0  1  0  0  0  0  0  0
  189.2070  175.2910  146.9630 O   0  0  0  0  0  0  0  0  0  0  0  0
  191.2580  174.8750  143.4110 N   0  0  0  0  0  0  0  0  0  0  0  0
  192.8170  173.8650  144.9560 C   0  0  0  0  0  3  0  0  0  0  0  0
  192.5860  174.6240  143.8900 C   0  0  0  0  0  3  0  0  0  0  0  0
  194.2100  173.6250  145.4350 C   0  0  0  0  0  2  0  0  0  0  0  0
  195.0280  174.9090  145.4050 C   0  0  2  0  0  3  0  0  0  0  0  0
  196.5630  173.4650  144.7260 C   0  0  0  0  0  1  0  0  0  0  0  0
  196.3850  174.5960  145.5240 O   0  0  0  0  0  0  0  0  0  0  0  0
  194.6310  175.7720  146.5070 N   0  0  0  0  0  2  0  0  0  0  0  0
  194.5120  177.1180  145.9730 C   0  0  0  0  0  1  0  0  0  0  0  0
  190.8190  174.1380  142.2320 C   0  0  0  0  0  2  0  0  0  0  0  0
  189.5420  173.1200  143.9820 O   0  0  0  0  0  1  0  0  0  0  0  0
  189.7350  173.1360  142.6000 C   0  0  1  0  0  3  0  0  0  0  0  0
  188.3580  174.6790  141.2130 O   0  0  0  0  0  0  0  0  0  0  0  0
  187.4650  172.7110  141.9760 O   0  0  0  0  0  1  0  0  0  0  0  0
  188.4590  173.4830  141.9100 C   0  0  0  0  0  0  0  0  0  0  0  0
  2  4  1  1  0  0  0
  2  3  1  0  0  0  0
  2  1  1  0  0  0  0
  3  1  1  0  0  0  0
  5  4  1  0  0  0  0
  6  7  2  0  0  0  0
  7  5  1  0  0  0  0
  7 12  1  0  0  0  0
  8 13  2  0  0  0  0
  9 14  2  0  0  0  0
 10 11  1  0  0  0  0
 11  8  1  0  0  0  0
 12 10  2  0  0  0  0
 12  9  1  0  0  0  0
 13 15  1  0  0  0  0
 14 13  1  0  0  0  0
 16 15  1  0  0  0  0
 17 20  1  0  0  0  0
 17 16  1  0  0  0  0
 18 17  2  0  0  0  0
 20 19  1  0  0  0  0
 21  3  1  0  0  0  0
 21 23  1  0  0  0  0
 22 24  1  0  0  0  0
 23 22  2  0  0  0  0
 25 24  1  1  0  0  0
 25 27  1  0  0  0  0
 25 28  1  0  0  0  0
 26 27  1  0  0  0  0
 29 28  1  0  0  0  0
 30 32  1  0  0  0  0
 30 21  1  0  0  0  0
 32 31  1  1  0  0  0
 33 35  2  0  0  0  0
 35 34  1  0  0  0  0
 35 32  1  0  0  0  0
M  END
>  <MODEL>
1

>  <REMARK>
 VINA RESULT:      -6.1      0.000      0.000
  Name = 
  15 active torsions:
  status: ('A' for Active; 'I' for Inactive)
    1  A    between atoms: N_1  and  C_34
    2  A    between atoms: N_2  and  C_3
    3  A    between atoms: C_3  and  C_17
    4  A    between atoms: N_6  and  C_19
    5  A    between atoms: C_8  and  C_24
    6  A    between atoms: C_8  and  N_25
    7  A    between atoms: C_13  and  O_31
    8  A    between atoms: O_16  and  C_19
    9  A    between atoms: C_19  and  C_21
   10  A    between atoms: C_20  and  C_35
   11  A    between atoms: C_21  and  C_22
   12  A    between atoms: C_24  and  C_30
   13  A    between atoms: N_25  and  N_26
   14  A    between atoms: N_25  and  C_27
   15  A    between atoms: C_32  and  C_34
                            x       y       z     vdW  Elec       q    Type
                         _______ _______ _______ _____ _____    ______ ____

>  <TORSDO>
F 15

$$$$
=
 OpenBabel11042418203D

 35 36  0  0  1  0  0  0  0  0999 V2000
  189.0510  175.4160  141.6330 O   0  0  0  0  0  0  0  0  0  0  0  0
  188.9510  176.1630  142.7610 C   0  0  1  0  0  3  0  0  0  0  0  0
  190.1960  175.5210  142.4100 N   0  0  0  0  0  0  0  0  0  0  0  0
  189.0220  177.6310  142.3990 C   0  0  0  0  0  2  0  0  0  0  0  0
  188.0950  177.9080  141.3150 N   0  0  0  0  0  2  0  0  0  0  0  0
  185.9750  178.0450  140.4020 O   0  0  0  0  0  0  0  0  0  0  0  0
  186.6730  178.0440  141.4510 C   0  0  0  0  0  0  0  0  0  0  0  0
  185.7540  179.1780  145.6380 C   0  0  0  0  0  3  0  0  0  0  0  0
  185.5610  176.9860  143.5130 C   0  0  0  0  0  3  0  0  0  0  0  0
  185.7950  179.3940  143.2160 N   0  0  0  0  0  0  0  0  0  0  0  0
  185.0650  179.7230  144.4330 C   0  0  0  0  0  2  0  0  0  0  0  0
  185.9880  178.1900  142.7600 C   0  0  0  0  0  0  0  0  0  0  0  0
  185.9540  177.8740  145.8240 C   0  0  0  0  0  0  0  0  0  0  0  0
  185.5510  176.8460  144.8450 C   0  0  0  0  0  3  0  0  0  0  0  0
  186.5240  177.4220  147.1230 C   0  0  0  0  0  2  0  0  0  0  0  0
  187.9550  177.6780  147.1510 N   0  0  0  0  0  2  0  0  0  0  0  0
  188.9050  176.7020  146.7210 C   0  0  0  0  0  0  0  0  0  0  0  0
  188.5160  175.5740  146.3090 O   0  0  0  0  0  0  0  0  0  0  0  0
  191.0770  176.6730  147.8740 C   0  0  0  0  0  1  0  0  0  0  0  0
  190.2640  177.0130  146.7610 O   0  0  0  0  0  0  0  0  0  0  0  0
  190.2970  174.3430  143.1770 N   0  0  0  0  0  0  0  0  0  0  0  0
  192.2040  175.1570  144.4190 C   0  0  0  0  0  3  0  0  0  0  0  0
  191.3160  174.1980  144.1750 C   0  0  0  0  0  3  0  0  0  0  0  0
  193.2570  174.9760  145.4610 C   0  0  0  0  0  2  0  0  0  0  0  0
  194.6100  175.4660  144.9630 C   0  0  2  0  0  3  0  0  0  0  0  0
  194.4610  177.1380  146.4080 C   0  0  0  0  0  1  0  0  0  0  0  0
  194.6600  176.8600  145.0540 O   0  0  0  0  0  0  0  0  0  0  0  0
  194.8010  175.0630  143.5790 N   0  0  0  0  0  2  0  0  0  0  0  0
  195.5700  176.1110  142.9310 C   0  0  0  0  0  1  0  0  0  0  0  0
  189.5940  173.1380  142.7550 C   0  0  0  0  0  2  0  0  0  0  0  0
  190.1350  170.8440  142.3320 O   0  0  0  0  0  1  0  0  0  0  0  0
  190.5600  172.1540  142.1090 C   0  0  1  0  0  3  0  0  0  0  0  0
  191.8220  172.9600  140.1200 O   0  0  0  0  0  1  0  0  0  0  0  0
  189.6830  172.1740  139.8840 O   0  0  0  0  0  0  0  0  0  0  0  0
  190.6570  172.4170  140.6440 C   0  0  0  0  0  0  0  0  0  0  0  0
  1  3  1  0  0  0  0
  1  2  1  0  0  0  0
  2  4  1  6  0  0  0
  3  2  1  0  0  0  0
  3 21  1  0  0  0  0
  5  7  1  0  0  0  0
  5  4  1  0  0  0  0
  6  7  2  0  0  0  0
  7 12  1  0  0  0  0
  8 13  2  0  0  0  0
  9 14  2  0  0  0  0
 10 11  1  0  0  0  0
 11  8  1  0  0  0  0
 12 10  2  0  0  0  0
 12  9  1  0  0  0  0
 13 15  1  0  0  0  0
 14 13  1  0  0  0  0
 15 16  1  0  0  0  0
 17 20  1  0  0  0  0
 17 16  1  0  0  0  0
 18 17  2  0  0  0  0
 20 19  1  0  0  0  0
 21 23  1  0  0  0  0
 22 24  1  0  0  0  0
 23 22  2  0  0  0  0
 25 27  1  0  0  0  0
 25 24  1  6  0  0  0
 27 26  1  0  0  0  0
 28 25  1  0  0  0  0
 29 28  1  0  0  0  0
 30 21  1  0  0  0  0
 32 31  1  6  0  0  0
 32 30  1  0  0  0  0
 33 35  1  0  0  0  0
 34 35  2  0  0  0  0
 35 32  1  0  0  0  0
M  END
>  <MODEL>
2

>  <REMARK>
 VINA RESULT:      -6.0      1.618      2.010
  Name = 
  15 active torsions:
  status: ('A' for Active; 'I' for Inactive)
    1  A    between atoms: N_1  and  C_34
    2  A    between atoms: N_2  and  C_3
    3  A    between atoms: C_3  and  C_17
    4  A    between atoms: N_6  and  C_19
    5  A    between atoms: C_8  and  C_24
    6  A    between atoms: C_8  and  N_25
    7  A    between atoms: C_13  and  O_31
    8  A    between atoms: O_16  and  C_19
    9  A    between atoms: C_19  and  C_21
   10  A    between atoms: C_20  and  C_35
   11  A    between atoms: C_21  and  C_22
   12  A    between atoms: C_24  and  C_30
   13  A    between atoms: N_25  and  N_26
   14  A    between atoms: N_25  and  C_27
   15  A    between atoms: C_32  and  C_34
                            x       y       z     vdW  Elec       q    Type
                         _______ _______ _______ _____ _____    ______ ____

>  <TORSDO>
F 15

$$$$
=
 OpenBabel11042418203D

 35 36  0  0  1  0  0  0  0  0999 V2000
  191.6810  177.8110  143.8580 O   0  0  0  0  0  0  0  0  0  0  0  0
  190.8980  177.3460  142.8530 C   0  0  1  0  0  3  0  0  0  0  0  0
  191.3180  176.4730  143.9250 N   0  0  0  0  0  0  0  0  0  0  0  0
  189.4680  177.7800  143.0880 C   0  0  0  0  0  2  0  0  0  0  0  0
  188.7780  177.8850  141.8140 N   0  0  0  0  0  2  0  0  0  0  0  0
  186.8970  177.7700  140.4740 O   0  0  0  0  0  0  0  0  0  0  0  0
  187.3540  177.9160  141.6390 C   0  0  0  0  0  0  0  0  0  0  0  0
  185.5090  179.3010  145.4260 C   0  0  0  0  0  3  0  0  0  0  0  0
  185.8690  176.9510  143.5020 C   0  0  0  0  0  3  0  0  0  0  0  0
  186.0610  179.3390  143.0580 N   0  0  0  0  0  0  0  0  0  0  0  0
  185.0740  179.7150  144.0610 C   0  0  0  0  0  2  0  0  0  0  0  0
  186.3980  178.1180  142.7560 C   0  0  0  0  0  0  0  0  0  0  0  0
  185.7190  178.0280  145.7600 C   0  0  0  0  0  0  0  0  0  0  0  0
  185.5780  176.9090  144.8080 C   0  0  0  0  0  3  0  0  0  0  0  0
  186.0140  177.7080  147.1830 C   0  0  0  0  0  2  0  0  0  0  0  0
  186.7390  176.4500  147.2670 N   0  0  0  0  0  2  0  0  0  0  0  0
  188.1440  176.3710  147.0310 C   0  0  0  0  0  0  0  0  0  0  0  0
  188.7980  177.4080  146.7290 O   0  0  0  0  0  0  0  0  0  0  0  0
  190.1800  175.0330  147.3730 C   0  0  0  0  0  1  0  0  0  0  0  0
  188.7830  175.1360  147.1400 O   0  0  0  0  0  0  0  0  0  0  0  0
  192.4080  175.7150  143.4530 N   0  0  0  0  0  0  0  0  0  0  0  0
  192.4120  173.8220  141.9520 C   0  0  0  0  0  3  0  0  0  0  0  0
  192.2680  174.3150  143.1780 C   0  0  0  0  0  3  0  0  0  0  0  0
  192.2570  172.3600  141.6940 C   0  0  0  0  0  2  0  0  0  0  0  0
  191.5590  171.6690  142.8580 C   0  0  2  0  0  3  0  0  0  0  0  0
  192.9910  170.7940  144.3030 C   0  0  0  0  0  1  0  0  0  0  0  0
  192.2370  170.4870  143.1690 O   0  0  0  0  0  0  0  0  0  0  0  0
  190.1850  171.3600  142.4960 N   0  0  0  0  0  2  0  0  0  0  0  0
  189.3270  172.0880  143.4150 C   0  0  0  0  0  1  0  0  0  0  0  0
  193.7610  176.2490  143.5480 C   0  0  0  0  0  2  0  0  0  0  0  0
  195.7800  175.5190  144.6070 O   0  0  0  0  0  1  0  0  0  0  0  0
  194.4290  175.7850  144.8340 C   0  0  1  0  0  3  0  0  0  0  0  0
  193.3650  176.6410  146.9160 O   0  0  0  0  0  1  0  0  0  0  0  0
  194.9720  177.8800  145.8520 O   0  0  0  0  0  0  0  0  0  0  0  0
  194.2850  176.8250  145.8930 C   0  0  0  0  0  0  0  0  0  0  0  0
  1  3  1  0  0  0  0
  2  4  1  1  0  0  0
  2  1  1  0  0  0  0
  2  3  1  0  0  0  0
  5  4  1  0  0  0  0
  6  7  2  0  0  0  0
  7  5  1  0  0  0  0
  7 12  1  0  0  0  0
  8 13  2  0  0  0  0
  9 14  2  0  0  0  0
 10 11  1  0  0  0  0
 11  8  1  0  0  0  0
 12 10  2  0  0  0  0
 12  9  1  0  0  0  0
 13 15  1  0  0  0  0
 14 13  1  0  0  0  0
 15 16  1  0  0  0  0
 17 20  1  0  0  0  0
 17 16  1  0  0  0  0
 18 17  2  0  0  0  0
 20 19  1  0  0  0  0
 21 30  1  0  0  0  0
 21  3  1  0  0  0  0
 22 23  2  0  0  0  0
 23 21  1  0  0  0  0
 24 22  1  0  0  0  0
 25 24  1  6  0  0  0
 25 27  1  0  0  0  0
 27 26  1  0  0  0  0
 28 25  1  0  0  0  0
 28 29  1  0  0  0  0
 30 32  1  0  0  0  0
 32 31  1  6  0  0  0
 32 35  1  0  0  0  0
 34 35  2  0  0  0  0
 35 33  1  0  0  0  0
M  END
>  <MODEL>
3

>  <REMARK>
 VINA RESULT:      -6.0      1.745      3.968
  Name = 
  15 active torsions:
  status: ('A' for Active; 'I' for Inactive)
    1  A    between atoms: N_1  and  C_34
    2  A    between atoms: N_2  and  C_3
    3  A    between atoms: C_3  and  C_17
    4  A    between atoms: N_6  and  C_19
    5  A    between atoms: C_8  and  C_24
    6  A    between atoms: C_8  and  N_25
    7  A    between atoms: C_13  and  O_31
    8  A    between atoms: O_16  and  C_19
    9  A    between atoms: C_19  and  C_21
   10  A    between atoms: C_20  and  C_35
   11  A    between atoms: C_21  and  C_22
   12  A    between atoms: C_24  and  C_30
   13  A    between atoms: N_25  and  N_26
   14  A    between atoms: N_25  and  C_27
   15  A    between atoms: C_32  and  C_34
                            x       y       z     vdW  Elec       q    Type
                         _______ _______ _______ _____ _____    ______ ____

>  <TORSDO>
F 15

$$$$
=
 OpenBabel11042418203D

 35 36  0  0  1  0  0  0  0  0999 V2000
  190.7970  172.1200  142.5790 O   0  0  0  0  0  0  0  0  0  0  0  0
  191.3780  173.3440  142.6430 C   0  0  1  0  0  3  0  0  0  0  0  0
  189.9510  173.1950  142.8140 N   0  0  0  0  0  0  0  0  0  0  0  0
  192.0300  173.5200  143.9970 C   0  0  0  0  0  2  0  0  0  0  0  0
  193.1520  174.4370  143.8780 N   0  0  0  0  0  2  0  0  0  0  0  0
  194.1130  176.5370  143.9610 O   0  0  0  0  0  0  0  0  0  0  0  0
  193.1690  175.7940  144.3410 C   0  0  0  0  0  0  0  0  0  0  0  0
  189.9500  176.1820  147.3650 C   0  0  0  0  0  3  0  0  0  0  0  0
  191.0420  177.1950  144.6930 C   0  0  0  0  0  3  0  0  0  0  0  0
  192.2260  176.0930  146.5160 N   0  0  0  0  0  0  0  0  0  0  0  0
  191.3580  176.6360  147.5520 C   0  0  0  0  0  2  0  0  0  0  0  0
  192.1380  176.3630  145.2450 C   0  0  0  0  0  0  0  0  0  0  0  0
  189.2380  176.4750  146.2780 C   0  0  0  0  0  0  0  0  0  0  0  0
  189.7800  177.2410  145.1380 C   0  0  0  0  0  3  0  0  0  0  0  0
  187.7980  176.0980  146.2490 C   0  0  0  0  0  2  0  0  0  0  0  0
  186.9920  177.2480  145.8740 N   0  0  0  0  0  2  0  0  0  0  0  0
  186.1190  177.8930  146.8020 C   0  0  0  0  0  0  0  0  0  0  0  0
  186.0190  177.4640  147.9850 O   0  0  0  0  0  0  0  0  0  0  0  0
  184.1260  178.8610  145.7340 C   0  0  0  0  0  1  0  0  0  0  0  0
  185.3810  179.0000  146.3830 O   0  0  0  0  0  0  0  0  0  0  0  0
  189.3400  173.5280  141.5880 N   0  0  0  0  0  0  0  0  0  0  0  0
  187.8270  175.1080  142.6140 C   0  0  0  0  0  3  0  0  0  0  0  0
  188.3170  174.5300  141.5220 C   0  0  0  0  0  3  0  0  0  0  0  0
  186.7590  176.1460  142.5150 C   0  0  0  0  0  2  0  0  0  0  0  0
  187.1680  177.2640  141.5650 C   0  0  2  0  0  3  0  0  0  0  0  0
  186.2460  178.9290  142.6980 C   0  0  0  0  0  1  0  0  0  0  0  0
  187.4800  178.4090  142.3040 O   0  0  0  0  0  0  0  0  0  0  0  0
  186.0750  177.5590  140.6520 N   0  0  0  0  0  2  0  0  0  0  0  0
  186.5560  177.2880  139.3090 C   0  0  0  0  0  1  0  0  0  0  0  0
  189.4910  172.6470  140.4360 C   0  0  0  0  0  2  0  0  0  0  0  0
  191.2180  173.1070  138.8430 O   0  0  0  0  0  1  0  0  0  0  0  0
  189.9130  173.4400  139.2080 C   0  0  1  0  0  3  0  0  0  0  0  0
  189.3110  172.2060  137.1310 O   0  0  0  0  0  0  0  0  0  0  0  0
  187.9100  173.8200  137.9570 O   0  0  0  0  0  1  0  0  0  0  0  0
  188.9810  173.1670  138.0760 C   0  0  0  0  0  0  0  0  0  0  0  0
  1  2  1  0  0  0  0
  1  3  1  0  0  0  0
  2  3  1  0  0  0  0
  2  4  1  1  0  0  0
  5  4  1  0  0  0  0
  5  7  1  0  0  0  0
  6  7  2  0  0  0  0
  7 12  1  0  0  0  0
  8 11  1  0  0  0  0
  9 14  2  0  0  0  0
  9 12  1  0  0  0  0
 10 11  1  0  0  0  0
 12 10  2  0  0  0  0
 13  8  2  0  0  0  0
 14 13  1  0  0  0  0
 15 13  1  0  0  0  0
 16 15  1  0  0  0  0
 16 17  1  0  0  0  0
 17 18  2  0  0  0  0
 19 20  1  0  0  0  0
 20 17  1  0  0  0  0
 21  3  1  0  0  0  0
 23 21  1  0  0  0  0
 23 22  2  0  0  0  0
 24 22  1  0  0  0  0
 25 27  1  0  0  0  0
 25 24  1  1  0  0  0
 27 26  1  0  0  0  0
 28 25  1  0  0  0  0
 29 28  1  0  0  0  0
 30 21  1  0  0  0  0
 32 31  1  6  0  0  0
 32 30  1  0  0  0  0
 33 35  2  0  0  0  0
 34 35  1  0  0  0  0
 35 32  1  0  0  0  0
M  END
>  <MODEL>
4

>  <REMARK>
 VINA RESULT:      -5.8      2.376      6.271
  Name = 
  15 active torsions:
  status: ('A' for Active; 'I' for Inactive)
    1  A    between atoms: N_1  and  C_34
    2  A    between atoms: N_2  and  C_3
    3  A    between atoms: C_3  and  C_17
    4  A    between atoms: N_6  and  C_19
    5  A    between atoms: C_8  and  C_24
    6  A    between atoms: C_8  and  N_25
    7  A    between atoms: C_13  and  O_31
    8  A    between atoms: O_16  and  C_19
    9  A    between atoms: C_19  and  C_21
   10  A    between atoms: C_20  and  C_35
   11  A    between atoms: C_21  and  C_22
   12  A    between atoms: C_24  and  C_30
   13  A    between atoms: N_25  and  N_26
   14  A    between atoms: N_25  and  C_27
   15  A    between atoms: C_32  and  C_34
                            x       y       z     vdW  Elec       q    Type
                         _______ _______ _______ _____ _____    ______ ____

>  <TORSDO>
F 15

$$$$
=
 OpenBabel11042418203D

 35 36  0  0  1  0  0  0  0  0999 V2000
  191.6520  177.6320  143.8890 O   0  0  0  0  0  0  0  0  0  0  0  0
  190.8690  177.3930  142.8070 C   0  0  1  0  0  3  0  0  0  0  0  0
  191.1430  176.3470  143.7640 N   0  0  0  0  0  0  0  0  0  0  0  0
  189.4850  177.9520  143.0550 C   0  0  0  0  0  2  0  0  0  0  0  0
  188.7530  178.0080  141.8010 N   0  0  0  0  0  2  0  0  0  0  0  0
  186.8420  177.7840  140.5200 O   0  0  0  0  0  0  0  0  0  0  0  0
  187.3250  177.9670  141.6690 C   0  0  0  0  0  0  0  0  0  0  0  0
  185.5300  179.3020  145.4970 C   0  0  0  0  0  3  0  0  0  0  0  0
  185.9420  176.9520  143.5830 C   0  0  0  0  0  3  0  0  0  0  0  0
  186.0100  179.3420  143.1140 N   0  0  0  0  0  0  0  0  0  0  0  0
  185.0350  179.6810  144.1430 C   0  0  0  0  0  2  0  0  0  0  0  0
  186.3940  178.1350  142.8130 C   0  0  0  0  0  0  0  0  0  0  0  0
  185.8080  178.0430  145.8360 C   0  0  0  0  0  0  0  0  0  0  0  0
  185.6920  176.9090  144.8980 C   0  0  0  0  0  3  0  0  0  0  0  0
  186.1590  177.7510  147.2520 C   0  0  0  0  0  2  0  0  0  0  0  0
  186.7520  176.4270  147.3520 N   0  0  0  0  0  2  0  0  0  0  0  0
  188.1290  176.1910  147.0580 C   0  0  0  0  0  0  0  0  0  0  0  0
  188.8720  177.1430  146.6880 O   0  0  0  0  0  0  0  0  0  0  0  0
  189.7010  174.4310  146.3650 C   0  0  0  0  0  1  0  0  0  0  0  0
  188.6410  174.9000  147.1840 O   0  0  0  0  0  0  0  0  0  0  0  0
  192.1650  175.5380  143.2280 N   0  0  0  0  0  0  0  0  0  0  0  0
  192.6810  173.5690  141.9250 C   0  0  0  0  0  3  0  0  0  0  0  0
  191.8920  174.6110  142.1680 C   0  0  0  0  0  3  0  0  0  0  0  0
  192.3750  172.6240  140.8110 C   0  0  0  0  0  2  0  0  0  0  0  0
  190.8920  172.2800  140.7760 C   0  0  2  0  0  3  0  0  0  0  0  0
  189.8250  171.4510  142.5300 C   0  0  0  0  0  1  0  0  0  0  0  0
  190.6740  171.0940  141.4820 O   0  0  0  0  0  0  0  0  0  0  0  0
  190.4580  172.1110  139.3980 N   0  0  0  0  0  2  0  0  0  0  0  0
  190.2910  173.4410  138.8370 C   0  0  0  0  0  1  0  0  0  0  0  0
  193.4240  175.3840  143.9450 C   0  0  0  0  0  2  0  0  0  0  0  0
  193.9220  173.6100  145.4740 O   0  0  0  0  0  1  0  0  0  0  0  0
  193.1850  174.7850  145.3240 C   0  0  1  0  0  3  0  0  0  0  0  0
  192.5740  176.4730  147.0490 O   0  0  0  0  0  1  0  0  0  0  0  0
  194.7750  175.9710  146.6600 O   0  0  0  0  0  0  0  0  0  0  0  0
  193.5640  175.7650  146.3830 C   0  0  0  0  0  0  0  0  0  0  0  0
  2  4  1  1  0  0  0
  2  3  1  0  0  0  0
  2  1  1  0  0  0  0
  3  1  1  0  0  0  0
  5  4  1  0  0  0  0
  6  7  2  0  0  0  0
  7  5  1  0  0  0  0
  7 12  1  0  0  0  0
  8 13  2  0  0  0  0
  9 14  2  0  0  0  0
 10 11  1  0  0  0  0
 11  8  1  0  0  0  0
 12 10  2  0  0  0  0
 12  9  1  0  0  0  0
 13 15  1  0  0  0  0
 14 13  1  0  0  0  0
 15 16  1  0  0  0  0
 17 20  1  0  0  0  0
 17 16  1  0  0  0  0
 18 17  2  0  0  0  0
 19 20  1  0  0  0  0
 21  3  1  0  0  0  0
 21 30  1  0  0  0  0
 22 23  2  0  0  0  0
 23 21  1  0  0  0  0
 24 22  1  0  0  0  0
 25 24  1  6  0  0  0
 25 27  1  0  0  0  0
 27 26  1  0  0  0  0
 28 25  1  0  0  0  0
 29 28  1  0  0  0  0
 30 32  1  0  0  0  0
 32 31  1  1  0  0  0
 32 35  1  0  0  0  0
 35 34  2  0  0  0  0
 35 33  1  0  0  0  0
M  END
>  <MODEL>
5

>  <REMARK>
 VINA RESULT:      -5.8      1.725      4.197
  Name = 
  15 active torsions:
  status: ('A' for Active; 'I' for Inactive)
    1  A    between atoms: N_1  and  C_34
    2  A    between atoms: N_2  and  C_3
    3  A    between atoms: C_3  and  C_17
    4  A    between atoms: N_6  and  C_19
    5  A    between atoms: C_8  and  C_24
    6  A    between atoms: C_8  and  N_25
    7  A    between atoms: C_13  and  O_31
    8  A    between atoms: O_16  and  C_19
    9  A    between atoms: C_19  and  C_21
   10  A    between atoms: C_20  and  C_35
   11  A    between atoms: C_21  and  C_22
   12  A    between atoms: C_24  and  C_30
   13  A    between atoms: N_25  and  N_26
   14  A    between atoms: N_25  and  C_27
   15  A    between atoms: C_32  and  C_34
                            x       y       z     vdW  Elec       q    Type
                         _______ _______ _______ _____ _____    ______ ____

>  <TORSDO>
F 15

$$$$
=
 OpenBabel11042418203D

 35 36  0  0  1  0  0  0  0  0999 V2000
  190.4340  175.8720  144.1500 O   0  0  0  0  0  0  0  0  0  0  0  0
  190.0690  176.5740  145.2530 C   0  0  1  0  0  3  0  0  0  0  0  0
  189.1800  175.5920  144.6750 N   0  0  0  0  0  0  0  0  0  0  0  0
  190.7470  175.9850  146.4700 C   0  0  0  0  0  2  0  0  0  0  0  0
  191.9700  176.7190  146.7460 N   0  0  0  0  0  2  0  0  0  0  0  0
  194.2700  176.9370  146.8180 O   0  0  0  0  0  0  0  0  0  0  0  0
  193.2830  176.3420  146.3090 C   0  0  0  0  0  0  0  0  0  0  0  0
  193.0840  173.9230  142.5980 C   0  0  0  0  0  3  0  0  0  0  0  0
  193.3950  173.8620  145.6410 C   0  0  0  0  0  3  0  0  0  0  0  0
  193.8620  175.6810  144.0870 N   0  0  0  0  0  0  0  0  0  0  0  0
  194.2290  174.7940  142.9910 C   0  0  0  0  0  2  0  0  0  0  0  0
  193.5350  175.2950  145.2870 C   0  0  0  0  0  0  0  0  0  0  0  0
  192.5230  173.0510  143.4350 C   0  0  0  0  0  0  0  0  0  0  0  0
  192.9500  172.8870  144.8390 C   0  0  0  0  0  3  0  0  0  0  0  0
  191.4810  172.1290  142.9060 C   0  0  0  0  0  2  0  0  0  0  0  0
  190.4740  172.8860  142.1780 N   0  0  0  0  0  2  0  0  0  0  0  0
  190.0280  172.4970  140.8790 C   0  0  0  0  0  0  0  0  0  0  0  0
  190.5140  171.4740  140.3200 O   0  0  0  0  0  0  0  0  0  0  0  0
  188.1920  172.7010  139.2560 C   0  0  0  0  0  1  0  0  0  0  0  0
  189.0510  173.2590  140.2400 O   0  0  0  0  0  0  0  0  0  0  0  0
  188.2310  176.2840  143.8970 N   0  0  0  0  0  0  0  0  0  0  0  0
  186.6420  176.4170  145.7130 C   0  0  0  0  0  3  0  0  0  0  0  0
  186.9770  176.6960  144.4570 C   0  0  0  0  0  3  0  0  0  0  0  0
  185.3270  176.8540  146.2680 C   0  0  0  0  0  2  0  0  0  0  0  0
  185.5180  177.7930  147.4520 C   0  0  2  0  0  3  0  0  0  0  0  0
  184.1620  178.7750  146.0020 C   0  0  0  0  0  1  0  0  0  0  0  0
  184.7730  178.9570  147.2440 O   0  0  0  0  0  0  0  0  0  0  0  0
  186.9250  178.1360  147.5870 N   0  0  0  0  0  2  0  0  0  0  0  0
  187.0000  179.2970  148.4560 C   0  0  0  0  0  1  0  0  0  0  0  0
  188.3560  176.3050  142.4450 C   0  0  0  0  0  2  0  0  0  0  0  0
  188.9100  178.4470  141.5320 O   0  0  0  0  0  1  0  0  0  0  0  0
  187.8420  177.6220  141.8830 C   0  0  1  0  0  3  0  0  0  0  0  0
  187.3220  176.3670  139.7950 O   0  0  0  0  0  0  0  0  0  0  0  0
  185.9560  178.0740  140.4820 O   0  0  0  0  0  1  0  0  0  0  0  0
  186.9790  177.3690  140.6920 C   0  0  0  0  0  0  0  0  0  0  0  0
  1  3  1  0  0  0  0
  1  2  1  0  0  0  0
  2  4  1  1  0  0  0
  3  2  1  0  0  0  0
  4  5  1  0  0  0  0
  7  5  1  0  0  0  0
  7  6  2  0  0  0  0
  8 11  1  0  0  0  0
  8 13  2  0  0  0  0
 10 12  2  0  0  0  0
 11 10  1  0  0  0  0
 12  9  1  0  0  0  0
 12  7  1  0  0  0  0
 13 14  1  0  0  0  0
 14  9  2  0  0  0  0
 15 13  1  0  0  0  0
 16 15  1  0  0  0  0
 17 16  1  0  0  0  0
 18 17  2  0  0  0  0
 19 20  1  0  0  0  0
 20 17  1  0  0  0  0
 21 23  1  0  0  0  0
 21  3  1  0  0  0  0
 22 24  1  0  0  0  0
 23 22  2  0  0  0  0
 25 24  1  6  0  0  0
 25 28  1  0  0  0  0
 26 27  1  0  0  0  0
 27 25  1  0  0  0  0
 28 29  1  0  0  0  0
 30 21  1  0  0  0  0
 32 31  1  6  0  0  0
 32 30  1  0  0  0  0
 33 35  2  0  0  0  0
 34 35  1  0  0  0  0
 35 32  1  0  0  0  0
M  END
>  <MODEL>
6

>  <REMARK>
 VINA RESULT:      -5.5      2.141      7.659
  Name = 
  15 active torsions:
  status: ('A' for Active; 'I' for Inactive)
    1  A    between atoms: N_1  and  C_34
    2  A    between atoms: N_2  and  C_3
    3  A    between atoms: C_3  and  C_17
    4  A    between atoms: N_6  and  C_19
    5  A    between atoms: C_8  and  C_24
    6  A    between atoms: C_8  and  N_25
    7  A    between atoms: C_13  and  O_31
    8  A    between atoms: O_16  and  C_19
    9  A    between atoms: C_19  and  C_21
   10  A    between atoms: C_20  and  C_35
   11  A    between atoms: C_21  and  C_22
   12  A    between atoms: C_24  and  C_30
   13  A    between atoms: N_25  and  N_26
   14  A    between atoms: N_25  and  C_27
   15  A    between atoms: C_32  and  C_34
                            x       y       z     vdW  Elec       q    Type
                         _______ _______ _______ _____ _____    ______ ____

>  <TORSDO>
F 15

$$$$
=
 OpenBabel11042418203D

 35 36  0  0  1  0  0  0  0  0999 V2000
  189.7690  172.5390  144.2450 O   0  0  0  0  0  0  0  0  0  0  0  0
  190.3760  173.4550  145.0410 C   0  0  1  0  0  3  0  0  0  0  0  0
  189.8200  173.8400  143.7650 N   0  0  0  0  0  0  0  0  0  0  0  0
  189.4280  173.8650  146.1470 C   0  0  0  0  0  2  0  0  0  0  0  0
  190.1250  174.7280  147.0860 N   0  0  0  0  0  2  0  0  0  0  0  0
  191.0690  176.7390  147.7250 O   0  0  0  0  0  0  0  0  0  0  0  0
  190.2430  176.1530  146.9760 C   0  0  0  0  0  0  0  0  0  0  0  0
  187.0960  177.4590  144.1380 C   0  0  0  0  0  3  0  0  0  0  0  0
  190.0750  177.5530  144.8260 C   0  0  0  0  0  3  0  0  0  0  0  0
  188.1740  177.1350  146.2930 N   0  0  0  0  0  0  0  0  0  0  0  0
  187.2610  177.9740  145.5270 C   0  0  0  0  0  2  0  0  0  0  0  0
  189.4390  176.9690  146.0320 C   0  0  0  0  0  0  0  0  0  0  0  0
  188.1110  177.3640  143.2800 C   0  0  0  0  0  0  0  0  0  0  0  0
  189.5010  177.7210  143.6280 C   0  0  0  0  0  3  0  0  0  0  0  0
  187.8180  176.9720  141.8740 C   0  0  0  0  0  2  0  0  0  0  0  0
  186.4020  177.1490  141.5960 N   0  0  0  0  0  2  0  0  0  0  0  0
  185.9230  177.4860  140.2940 C   0  0  0  0  0  0  0  0  0  0  0  0
  186.7360  177.6500  139.3410 O   0  0  0  0  0  0  0  0  0  0  0  0
  183.7600  178.4870  140.8980 C   0  0  0  0  0  1  0  0  0  0  0  0
  184.5510  177.6290  140.0900 O   0  0  0  0  0  0  0  0  0  0  0  0
  190.8830  173.9090  142.8420 N   0  0  0  0  0  0  0  0  0  0  0  0
  193.1070  174.8440  142.7170 C   0  0  0  0  0  3  0  0  0  0  0  0
  191.7960  175.0140  142.8500 C   0  0  0  0  0  3  0  0  0  0  0  0
  194.0350  176.0130  142.7340 C   0  0  0  0  0  2  0  0  0  0  0  0
  195.2460  175.7390  143.6160 C   0  0  2  0  0  3  0  0  0  0  0  0
  194.3120  176.8960  145.2560 C   0  0  0  0  0  1  0  0  0  0  0  0
  195.4580  176.8310  144.4630 O   0  0  0  0  0  0  0  0  0  0  0  0
  196.4230  175.5330  142.7860 N   0  0  0  0  0  2  0  0  0  0  0  0
  196.3180  176.4480  141.6620 C   0  0  0  0  0  1  0  0  0  0  0  0
  190.8840  173.0460  141.6680 C   0  0  0  0  0  2  0  0  0  0  0  0
  191.1240  173.4410  139.3180 O   0  0  0  0  0  1  0  0  0  0  0  0
  190.3870  173.8050  140.4460 C   0  0  1  0  0  3  0  0  0  0  0  0
  188.2750  172.6320  141.0510 O   0  0  0  0  0  1  0  0  0  0  0  0
  188.3210  174.0770  139.2720 O   0  0  0  0  0  0  0  0  0  0  0  0
  188.9390  173.5260  140.2220 C   0  0  0  0  0  0  0  0  0  0  0  0
  1  2  1  0  0  0  0
  2  4  1  1  0  0  0
  3  1  1  0  0  0  0
  3  2  1  0  0  0  0
  4  5  1  0  0  0  0
  7  5  1  0  0  0  0
  7  6  2  0  0  0  0
  8 11  1  0  0  0  0
  9 12  1  0  0  0  0
 11 10  1  0  0  0  0
 12 10  2  0  0  0  0
 12  7  1  0  0  0  0
 13 14  1  0  0  0  0
 13  8  2  0  0  0  0
 14  9  2  0  0  0  0
 15 13  1  0  0  0  0
 16 15  1  0  0  0  0
 17 16  1  0  0  0  0
 18 17  2  0  0  0  0
 20 17  1  0  0  0  0
 20 19  1  0  0  0  0
 21 23  1  0  0  0  0
 21  3  1  0  0  0  0
 22 24  1  0  0  0  0
 22 23  2  0  0  0  0
 25 24  1  6  0  0  0
 25 27  1  0  0  0  0
 27 26  1  0  0  0  0
 28 25  1  0  0  0  0
 29 28  1  0  0  0  0
 30 21  1  0  0  0  0
 32 31  1  6  0  0  0
 32 30  1  0  0  0  0
 34 35  2  0  0  0  0
 35 32  1  0  0  0  0
 35 33  1  0  0  0  0
M  END
>  <MODEL>
7

>  <REMARK>
 VINA RESULT:      -5.4      2.156      4.837
  Name = 
  15 active torsions:
  status: ('A' for Active; 'I' for Inactive)
    1  A    between atoms: N_1  and  C_34
    2  A    between atoms: N_2  and  C_3
    3  A    between atoms: C_3  and  C_17
    4  A    between atoms: N_6  and  C_19
    5  A    between atoms: C_8  and  C_24
    6  A    between atoms: C_8  and  N_25
    7  A    between atoms: C_13  and  O_31
    8  A    between atoms: O_16  and  C_19
    9  A    between atoms: C_19  and  C_21
   10  A    between atoms: C_20  and  C_35
   11  A    between atoms: C_21  and  C_22
   12  A    between atoms: C_24  and  C_30
   13  A    between atoms: N_25  and  N_26
   14  A    between atoms: N_25  and  C_27
   15  A    between atoms: C_32  and  C_34
                            x       y       z     vdW  Elec       q    Type
                         _______ _______ _______ _____ _____    ______ ____

>  <TORSDO>
F 15

$$$$
=
 OpenBabel11042418203D

 35 36  0  0  1  0  0  0  0  0999 V2000
  190.9560  177.2760  142.8300 O   0  0  0  0  0  0  0  0  0  0  0  0
  192.0020  177.2040  143.6900 C   0  0  1  0  0  3  0  0  0  0  0  0
  190.8490  176.3490  143.8570 N   0  0  0  0  0  0  0  0  0  0  0  0
  193.1240  176.4150  143.0500 C   0  0  0  0  0  2  0  0  0  0  0  0
  194.2550  176.3550  143.9610 N   0  0  0  0  0  2  0  0  0  0  0  0
  195.5370  175.3300  145.5880 O   0  0  0  0  0  0  0  0  0  0  0  0
  194.7010  175.1830  144.6570 C   0  0  0  0  0  0  0  0  0  0  0  0
  193.1370  171.6580  142.4690 C   0  0  0  0  0  3  0  0  0  0  0  0
  193.1290  173.2000  145.1100 C   0  0  0  0  0  3  0  0  0  0  0  0
  194.8100  173.1880  143.3460 N   0  0  0  0  0  0  0  0  0  0  0  0
  194.5400  171.8130  142.9490 C   0  0  0  0  0  2  0  0  0  0  0  0
  194.2330  173.8120  144.3320 C   0  0  0  0  0  0  0  0  0  0  0  0
  192.0800  171.8960  143.2440 C   0  0  0  0  0  0  0  0  0  0  0  0
  192.1900  172.3710  144.6380 C   0  0  0  0  0  3  0  0  0  0  0  0
  190.7260  171.5760  142.7160 C   0  0  0  0  0  2  0  0  0  0  0  0
  190.2660  172.6500  141.8500 N   0  0  0  0  0  2  0  0  0  0  0  0
  188.8810  172.9620  141.7030 C   0  0  0  0  0  0  0  0  0  0  0  0
  188.0090  172.2930  142.3250 O   0  0  0  0  0  0  0  0  0  0  0  0
  188.2040  175.3030  141.3740 C   0  0  0  0  0  1  0  0  0  0  0  0
  188.5050  174.0120  140.8660 O   0  0  0  0  0  0  0  0  0  0  0  0
  190.0400  176.9200  144.8600 N   0  0  0  0  0  0  0  0  0  0  0  0
  187.7050  177.3880  144.4570 C   0  0  0  0  0  3  0  0  0  0  0  0
  188.9650  177.8060  144.5250 C   0  0  0  0  0  3  0  0  0  0  0  0
  186.6050  178.3330  144.1000 C   0  0  0  0  0  2  0  0  0  0  0  0
  185.7880  177.8050  142.9280 C   0  0  2  0  0  3  0  0  0  0  0  0
  185.3840  177.9510  140.7560 C   0  0  0  0  0  1  0  0  0  0  0  0
  186.3170  178.3020  141.7340 O   0  0  0  0  0  0  0  0  0  0  0  0
  184.4040  178.2320  143.0620 N   0  0  0  0  0  2  0  0  0  0  0  0
  184.2940  178.9350  144.3280 C   0  0  0  0  0  1  0  0  0  0  0  0
  190.4760  176.8890  146.2510 C   0  0  0  0  0  2  0  0  0  0  0  0
  191.2290  175.4360  147.9990 O   0  0  0  0  0  1  0  0  0  0  0  0
  190.6850  175.4540  146.7140 C   0  0  1  0  0  3  0  0  0  0  0  0
  188.2630  175.2910  147.2670 O   0  0  0  0  0  1  0  0  0  0  0  0
  189.3170  173.5630  146.1910 O   0  0  0  0  0  0  0  0  0  0  0  0
  189.3900  174.7150  146.6960 C   0  0  0  0  0  0  0  0  0  0  0  0
  1  2  1  0  0  0  0
  1  3  1  0  0  0  0
  2  4  1  6  0  0  0
  2  3  1  0  0  0  0
  3 21  1  0  0  0  0
  4  5  1  0  0  0  0
  5  7  1  0  0  0  0
  7  6  2  0  0  0  0
  8 11  1  0  0  0  0
  8 13  2  0  0  0  0
 10 12  2  0  0  0  0
 11 10  1  0  0  0  0
 12  7  1  0  0  0  0
 12  9  1  0  0  0  0
 13 14  1  0  0  0  0
 14  9  2  0  0  0  0
 15 13  1  0  0  0  0
 16 15  1  0  0  0  0
 17 16  1  0  0  0  0
 17 18  2  0  0  0  0
 20 19  1  0  0  0  0
 20 17  1  0  0  0  0
 21 30  1  0  0  0  0
 22 23  2  0  0  0  0
 23 21  1  0  0  0  0
 24 22  1  0  0  0  0
 25 28  1  0  0  0  0
 25 24  1  1  0  0  0
 26 27  1  0  0  0  0
 27 25  1  0  0  0  0
 28 29  1  0  0  0  0
 30 32  1  0  0  0  0
 32 31  1  1  0  0  0
 34 35  2  0  0  0  0
 35 32  1  0  0  0  0
 35 33  1  0  0  0  0
M  END
>  <MODEL>
8

>  <REMARK>
 VINA RESULT:      -5.4      1.872      7.840
  Name = 
  15 active torsions:
  status: ('A' for Active; 'I' for Inactive)
    1  A    between atoms: N_1  and  C_34
    2  A    between atoms: N_2  and  C_3
    3  A    between atoms: C_3  and  C_17
    4  A    between atoms: N_6  and  C_19
    5  A    between atoms: C_8  and  C_24
    6  A    between atoms: C_8  and  N_25
    7  A    between atoms: C_13  and  O_31
    8  A    between atoms: O_16  and  C_19
    9  A    between atoms: C_19  and  C_21
   10  A    between atoms: C_20  and  C_35
   11  A    between atoms: C_21  and  C_22
   12  A    between atoms: C_24  and  C_30
   13  A    between atoms: N_25  and  N_26
   14  A    between atoms: N_25  and  C_27
   15  A    between atoms: C_32  and  C_34
                            x       y       z     vdW  Elec       q    Type
                         _______ _______ _______ _____ _____    ______ ____

>  <TORSDO>
F 15

$$$$
=
 OpenBabel11042418203D

 35 36  0  0  1  0  0  0  0  0999 V2000
  188.5450  174.7360  140.4240 O   0  0  0  0  0  0  0  0  0  0  0  0
  188.3400  174.9460  141.7490 C   0  0  1  0  0  3  0  0  0  0  0  0
  189.6440  174.5660  141.2550 N   0  0  0  0  0  0  0  0  0  0  0  0
  188.3220  176.4340  142.0240 C   0  0  0  0  0  2  0  0  0  0  0  0
  187.4720  177.0960  141.0480 N   0  0  0  0  0  2  0  0  0  0  0  0
  185.4590  177.9750  140.3300 O   0  0  0  0  0  0  0  0  0  0  0  0
  186.1750  177.6470  141.3140 C   0  0  0  0  0  0  0  0  0  0  0  0
  185.5510  179.2120  145.4150 C   0  0  0  0  0  3  0  0  0  0  0  0
  185.5780  176.7230  143.6370 C   0  0  0  0  0  3  0  0  0  0  0  0
  185.2480  179.0540  143.0080 N   0  0  0  0  0  0  0  0  0  0  0  0
  184.6190  179.4180  144.2710 C   0  0  0  0  0  2  0  0  0  0  0  0
  185.6390  177.8560  142.6820 C   0  0  0  0  0  0  0  0  0  0  0  0
  186.0500  178.0170  145.7320 C   0  0  0  0  0  0  0  0  0  0  0  0
  185.7610  176.7910  144.9610 C   0  0  0  0  0  3  0  0  0  0  0  0
  186.8580  177.8910  146.9750 C   0  0  0  0  0  2  0  0  0  0  0  0
  187.6270  176.6570  146.9440 N   0  0  0  0  0  2  0  0  0  0  0  0
  189.0530  176.6570  146.8820 C   0  0  0  0  0  0  0  0  0  0  0  0
  189.6880  177.7480  146.8440 O   0  0  0  0  0  0  0  0  0  0  0  0
  191.0230  175.2950  147.4400 C   0  0  0  0  0  1  0  0  0  0  0  0
  189.7320  175.4390  146.8670 O   0  0  0  0  0  0  0  0  0  0  0  0
  189.7950  173.1830  141.4790 N   0  0  0  0  0  0  0  0  0  0  0  0
  191.2640  173.4660  143.3760 C   0  0  0  0  0  3  0  0  0  0  0  0
  190.4640  172.6930  142.6490 C   0  0  0  0  0  3  0  0  0  0  0  0
  191.9510  172.9280  144.5870 C   0  0  0  0  0  2  0  0  0  0  0  0
  193.3960  173.4030  144.6530 C   0  0  2  0  0  3  0  0  0  0  0  0
  194.2000  171.4840  145.4100 C   0  0  0  0  0  1  0  0  0  0  0  0
  194.0250  172.8230  145.7590 O   0  0  0  0  0  0  0  0  0  0  0  0
  193.4340  174.8510  144.7770 N   0  0  0  0  0  2  0  0  0  0  0  0
  194.6290  175.1850  145.5320 C   0  0  0  0  0  1  0  0  0  0  0  0
  189.5750  172.2410  140.3880 C   0  0  0  0  0  2  0  0  0  0  0  0
  190.5030  170.0810  139.9330 O   0  0  0  0  0  1  0  0  0  0  0  0
  190.8320  171.4230  140.1270 C   0  0  1  0  0  3  0  0  0  0  0  0
  191.1570  173.1600  138.3730 O   0  0  0  0  0  0  0  0  0  0  0  0
  192.4900  171.2960  138.4080 O   0  0  0  0  0  1  0  0  0  0  0  0
  191.5490  171.9510  138.9300 C   0  0  0  0  0  0  0  0  0  0  0  0
  1  3  1  0  0  0  0
  1  2  1  0  0  0  0
  2  4  1  6  0  0  0
  3 21  1  0  0  0  0
  3  2  1  0  0  0  0
  5  7  1  0  0  0  0
  5  4  1  0  0  0  0
  6  7  2  0  0  0  0
  7 12  1  0  0  0  0
  8 13  2  0  0  0  0
  9 14  2  0  0  0  0
 10 11  1  0  0  0  0
 11  8  1  0  0  0  0
 12 10  2  0  0  0  0
 12  9  1  0  0  0  0
 13 15  1  0  0  0  0
 14 13  1  0  0  0  0
 16 15  1  0  0  0  0
 17 16  1  0  0  0  0
 18 17  2  0  0  0  0
 20 17  1  0  0  0  0
 20 19  1  0  0  0  0
 21 23  1  0  0  0  0
 22 24  1  0  0  0  0
 23 22  2  0  0  0  0
 25 24  1  1  0  0  0
 25 28  1  0  0  0  0
 25 27  1  0  0  0  0
 26 27  1  0  0  0  0
 28 29  1  0  0  0  0
 30 21  1  0  0  0  0
 32 31  1  6  0  0  0
 32 30  1  0  0  0  0
 33 35  2  0  0  0  0
 34 35  1  0  0  0  0
 35 32  1  0  0  0  0
M  END
>  <MODEL>
9

>  <REMARK>
 VINA RESULT:      -5.3      2.166      2.673
  Name = 
  15 active torsions:
  status: ('A' for Active; 'I' for Inactive)
    1  A    between atoms: N_1  and  C_34
    2  A    between atoms: N_2  and  C_3
    3  A    between atoms: C_3  and  C_17
    4  A    between atoms: N_6  and  C_19
    5  A    between atoms: C_8  and  C_24
    6  A    between atoms: C_8  and  N_25
    7  A    between atoms: C_13  and  O_31
    8  A    between atoms: O_16  and  C_19
    9  A    between atoms: C_19  and  C_21
   10  A    between atoms: C_20  and  C_35
   11  A    between atoms: C_21  and  C_22
   12  A    between atoms: C_24  and  C_30
   13  A    between atoms: N_25  and  N_26
   14  A    between atoms: N_25  and  C_27
   15  A    between atoms: C_32  and  C_34
                            x       y       z     vdW  Elec       q    Type
                         _______ _______ _______ _____ _____    ______ ____

>  <TORSDO>
F 15

$$$$
