=
 OpenBabel11042416433D

 48 54  0  0  1  0  0  0  0  0999 V2000
  188.4630  176.9970  141.9630 C   0  0  0  0  0  0  0  0  0  0  0  0
  188.2730  178.2100  141.6950 O   0  0  0  0  0  0  0  0  0  0  0  0
  190.0340  175.1150  142.4210 C   0  0  0  0  0  0  0  0  0  0  0  0
  189.6840  176.5600  142.7240 C   0  0  2  0  0  3  0  0  0  0  0  0
  187.7610  174.7260  141.6720 N   0  0  0  0  0  0  0  0  0  0  0  0
  190.4060  177.2750  146.4020 C   0  0  0  0  0  3  0  0  0  0  0  0
  192.5220  175.5360  142.7530 C   0  0  0  0  0  2  0  0  0  0  0  0
  192.9920  176.9470  144.7770 C   0  0  0  0  0  2  0  0  0  0  0  0
  189.0700  174.2510  142.0400 C   0  0  0  0  0  0  0  0  0  0  0  0
  187.4620  175.9890  141.6010 C   0  0  0  0  0  3  0  0  0  0  0  0
  191.3780  174.6460  142.5870 N   0  0  0  0  0  2  0  0  0  0  0  0
  194.6060  175.1170  144.0460 C   0  0  2  0  0  3  0  0  0  0  0  0
  194.3810  173.0140  145.1040 C   0  0  0  0  0  2  0  0  0  0  0  0
  188.1440  176.4440  146.2220 C   0  0  0  0  0  3  0  0  0  0  0  0
  193.1140  175.5370  144.1800 C   0  0  2  0  0  0  0  0  0  0  0  0
  189.2020  176.9020  147.0060 C   0  0  0  0  0  3  0  0  0  0  0  0
  195.0480  174.3100  145.1780 N   0  0  0  0  0  2  0  0  0  0  0  0
  189.4910  176.7440  144.2130 C   0  0  0  0  0  0  0  0  0  0  0  0
  192.3750  174.5700  145.1410 C   0  0  0  0  0  2  0  0  0  0  0  0
  191.7600  177.5650  144.4120 O   0  0  0  0  0  0  0  0  0  0  0  0
  190.5530  177.2020  145.0100 C   0  0  0  0  0  0  0  0  0  0  0  0
  192.8610  173.1290  145.0010 C   0  0  0  0  0  2  0  0  0  0  0  0
  188.2920  176.3570  144.8360 C   0  0  0  0  0  3  0  0  0  0  0  0
  195.5930  176.2540  143.7870 C   0  0  1  0  0  3  0  0  0  0  0  0
  196.9070  175.7360  143.7540 O   0  0  0  0  0  0  0  0  0  0  0  0
  196.3770  176.1530  142.5160 C   0  0  1  0  0  3  0  0  0  0  0  0
  196.0360  174.9870  141.7160 N   0  0  0  0  0  2  0  0  0  0  0  0
  194.0250  175.1660  139.4690 C   0  0  0  0  0  1  0  0  0  0  0  0
  195.3630  173.4660  137.4230 C   0  0  0  0  0  1  0  0  0  0  0  0
  197.9380  175.3450  137.1300 C   0  0  0  0  0  1  0  0  0  0  0  0
  197.3030  174.5030  138.2260 C   0  0  2  0  0  3  0  0  0  0  0  0
  195.8460  174.6310  138.1590 N   0  0  0  0  0  0  0  0  0  0  0  0
  197.9090  175.0640  139.8310 S   0  0  0  0  0  0  0  0  0  0  0  0
  195.3430  174.5330  139.4700 N   0  0  0  0  0  0  0  0  0  0  0  0
  196.2010  175.3570  140.3150 C   0  0  1  0  0  3  0  0  0  0  0  0
  189.3600  172.7910  141.9170 C   0  0  0  0  0  2  0  0  0  0  0  0
  189.5420  172.3990  140.4760 C   0  0  0  0  0  2  0  0  0  0  0  0
  190.5750  171.4650  140.3670 O   0  0  0  0  0  0  0  0  0  0  0  0
  191.6730  172.1880  139.8910 C   0  0  1  0  0  3  0  0  0  0  0  0
  192.8040  172.0170  140.8100 C   0  0  0  0  0  0  0  0  0  0  0  0
  193.7300  171.8770  141.5650 C   0  0  0  0  0  3  0  0  0  0  0  0
  192.0700  171.7740  138.4890 C   0  0  0  0  0  0  0  0  0  0  0  0
  192.9070  170.8930  138.3600 O   0  0  0  0  0  0  0  0  0  0  0  0
  190.1930  171.8310  136.8420 C   0  0  0  0  0  2  0  0  0  0  0  0
  191.1970  173.8480  137.4260 C   0  0  0  0  0  2  0  0  0  0  0  0
  191.5150  172.4010  137.2390 C   0  0  1  0  0  3  0  0  0  0  0  0
  190.0020  174.0990  136.7360 O   0  0  0  0  0  0  0  0  0  0  0  0
  189.2690  172.9550  136.8190 N   0  0  0  0  0  2  0  0  0  0  0  0
  2  1  2  0  0  0  0
  3 11  1  0  0  0  0
  3  4  1  0  0  0  0
  4  1  1  6  0  0  0
  4 18  1  0  0  0  0
  5  9  1  0  0  0  0
  6 16  1  0  0  0  0
  9  3  2  0  0  0  0
 10  5  2  0  0  0  0
 10  1  1  0  0  0  0
 11  7  1  0  0  0  0
 12 15  1  0  0  0  0
 12 17  1  1  0  0  0
 13 17  1  0  0  0  0
 14 16  2  0  0  0  0
 15  7  1  6  0  0  0
 15  8  1  0  0  0  0
 15 19  1  0  0  0  0
 18 23  2  0  0  0  0
 18 21  1  0  0  0  0
 20  8  1  0  0  0  0
 20 21  1  0  0  0  0
 21  6  2  0  0  0  0
 22 13  1  0  0  0  0
 22 19  1  0  0  0  0
 23 14  1  0  0  0  0
 24 25  1  1  0  0  0
 24 12  1  0  0  0  0
 26 27  1  6  0  0  0
 26 25  1  0  0  0  0
 26 24  1  0  0  0  0
 28 34  1  0  0  0  0
 29 32  1  0  0  0  0
 31 30  1  6  0  0  0
 31 33  1  0  0  0  0
 32 31  1  0  0  0  0
 32 34  1  0  0  0  0
 33 35  1  0  0  0  0
 34 35  1  0  0  0  0
 35 27  1  1  0  0  0
 36  9  1  0  0  0  0
 37 36  1  0  0  0  0
 38 37  1  0  0  0  0
 39 38  1  0  0  0  0
 39 40  1  1  0  0  0
 40 41  3  0  0  0  0
 42 39  1  0  0  0  0
 43 42  2  0  0  0  0
 44 46  1  0  0  0  0
 46 45  1  0  0  0  0
 46 42  1  1  0  0  0
 47 48  1  0  0  0  0
 47 45  1  0  0  0  0
 48 44  1  0  0  0  0
M  END
>  <MODEL>
1

>  <REMARK>
 VINA RESULT:      -6.9      0.000      0.000
  Name = 
  10 active torsions:
  status: ('A' for Active; 'I' for Inactive)
    1  A    between atoms: C_3  and  C_42
    2  A    between atoms: C_5  and  C_9
    3  A    between atoms: C_5  and  C_42
    4  A    between atoms: N_6  and  C_44
    5  A    between atoms: N_6  and  C_45
    6  A    between atoms: C_21  and  C_48
    7  A    between atoms: C_22  and  C_25
    8  A    between atoms: C_31  and  O_38
    9  A    between atoms: C_31  and  C_48
   10  A    between atoms: O_38  and  C_42
                            x       y       z     vdW  Elec       q    Type
                         _______ _______ _______ _____ _____    ______ ____

>  <TORSDO>
F 10

$$$$
=
 OpenBabel11042416433D

 48 54  0  0  1  0  0  0  0  0999 V2000
  194.0490  170.0090  144.5140 C   0  0  0  0  0  0  0  0  0  0  0  0
  194.1550  169.3470  145.5770 O   0  0  0  0  0  0  0  0  0  0  0  0
  193.0620  171.9270  143.2620 C   0  0  0  0  0  0  0  0  0  0  0  0
  193.7250  171.4760  144.5510 C   0  0  2  0  0  3  0  0  0  0  0  0
  193.9810  169.9950  142.1200 N   0  0  0  0  0  0  0  0  0  0  0  0
  196.0280  174.2480  145.8060 C   0  0  0  0  0  3  0  0  0  0  0  0
  191.7010  173.7130  144.4610 C   0  0  0  0  0  2  0  0  0  0  0  0
  193.0660  174.9920  146.1370 C   0  0  0  0  0  2  0  0  0  0  0  0
  193.3050  171.2670  142.1110 C   0  0  0  0  0  0  0  0  0  0  0  0
  194.3090  169.3790  143.2170 C   0  0  0  0  0  3  0  0  0  0  0  0
  192.2180  173.0840  143.2500 N   0  0  0  0  0  2  0  0  0  0  0  0
  191.1900  176.1200  144.8330 C   0  0  2  0  0  3  0  0  0  0  0  0
  191.8120  177.2930  142.8760 C   0  0  0  0  0  2  0  0  0  0  0  0
  197.2900  172.8370  144.3040 C   0  0  0  0  0  3  0  0  0  0  0  0
  192.3470  175.0800  144.7820 C   0  0  2  0  0  0  0  0  0  0  0  0
  197.2200  173.9510  145.1400 C   0  0  0  0  0  3  0  0  0  0  0  0
  191.6050  177.4190  144.3150 N   0  0  0  0  0  2  0  0  0  0  0  0
  194.9670  172.3010  144.8100 C   0  0  0  0  0  0  0  0  0  0  0  0
  193.4030  175.5100  143.7330 C   0  0  0  0  0  2  0  0  0  0  0  0
  193.7120  173.7320  146.3060 O   0  0  0  0  0  0  0  0  0  0  0  0
  194.9040  173.4270  145.6480 C   0  0  0  0  0  0  0  0  0  0  0  0
  192.7690  176.1620  142.5050 C   0  0  0  0  0  2  0  0  0  0  0  0
  196.1670  172.0240  144.1330 C   0  0  0  0  0  3  0  0  0  0  0  0
  190.5050  176.2820  146.1890 C   0  0  1  0  0  3  0  0  0  0  0  0
  189.9510  177.5780  146.2810 O   0  0  0  0  0  0  0  0  0  0  0  0
  189.0290  176.5210  146.1420 C   0  0  1  0  0  3  0  0  0  0  0  0
  188.4850  176.5250  144.7930 N   0  0  0  0  0  2  0  0  0  0  0  0
  186.5750  177.6860  142.7610 C   0  0  0  0  0  1  0  0  0  0  0  0
  185.4900  179.9880  144.3070 C   0  0  0  0  0  1  0  0  0  0  0  0
  184.1540  178.1910  146.5940 C   0  0  0  0  0  1  0  0  0  0  0  0
  185.5610  178.4720  146.0900 C   0  0  2  0  0  3  0  0  0  0  0  0
  185.5480  178.5650  144.6290 N   0  0  0  0  0  0  0  0  0  0  0  0
  186.6590  177.1430  146.6240 S   0  0  0  0  0  0  0  0  0  0  0  0
  186.7810  178.0800  144.1540 N   0  0  0  0  0  0  0  0  0  0  0  0
  187.0680  176.8570  144.8960 C   0  0  1  0  0  3  0  0  0  0  0  0
  192.8110  171.8040  140.8060 C   0  0  0  0  0  2  0  0  0  0  0  0
  192.3500  170.6890  139.9080 C   0  0  0  0  0  2  0  0  0  0  0  0
  190.9600  170.5670  139.9850 O   0  0  0  0  0  0  0  0  0  0  0  0
  190.4590  171.5800  139.1610 C   0  0  1  0  0  3  0  0  0  0  0  0
  190.1260  171.0170  137.8470 C   0  0  0  0  0  0  0  0  0  0  0  0
  189.8540  170.5560  136.7700 C   0  0  0  0  0  3  0  0  0  0  0  0
  189.2460  172.2610  139.7600 C   0  0  0  0  0  0  0  0  0  0  0  0
  188.2200  172.3080  139.0990 O   0  0  0  0  0  0  0  0  0  0  0  0
  189.8240  174.2830  141.1100 C   0  0  0  0  0  2  0  0  0  0  0  0
  187.8460  173.1620  141.6110 C   0  0  0  0  0  2  0  0  0  0  0  0
  189.2340  172.9110  141.1170 C   0  0  1  0  0  3  0  0  0  0  0  0
  187.8580  174.4080  142.2540 O   0  0  0  0  0  0  0  0  0  0  0  0
  188.7760  175.1670  141.5950 N   0  0  0  0  0  2  0  0  0  0  0  0
  1  4  1  0  0  0  0
  1  2  2  0  0  0  0
  4  3  1  6  0  0  0
  4 18  1  0  0  0  0
  5 10  2  0  0  0  0
  7 15  1  0  0  0  0
  8 20  1  0  0  0  0
  9  5  1  0  0  0  0
  9  3  2  0  0  0  0
 10  1  1  0  0  0  0
 11  3  1  0  0  0  0
 11  7  1  0  0  0  0
 12 17  1  1  0  0  0
 12 24  1  0  0  0  0
 13 17  1  0  0  0  0
 14 16  1  0  0  0  0
 15 19  1  6  0  0  0
 15 12  1  0  0  0  0
 15  8  1  0  0  0  0
 16  6  2  0  0  0  0
 18 21  2  0  0  0  0
 21  6  1  0  0  0  0
 21 20  1  0  0  0  0
 22 13  1  0  0  0  0
 22 19  1  0  0  0  0
 23 14  2  0  0  0  0
 23 18  1  0  0  0  0
 24 25  1  6  0  0  0
 26 27  1  6  0  0  0
 26 24  1  0  0  0  0
 26 25  1  0  0  0  0
 28 34  1  0  0  0  0
 29 32  1  0  0  0  0
 31 30  1  6  0  0  0
 31 33  1  0  0  0  0
 32 31  1  0  0  0  0
 34 32  1  0  0  0  0
 34 35  1  0  0  0  0
 35 27  1  1  0  0  0
 35 33  1  0  0  0  0
 36  9  1  0  0  0  0
 37 38  1  0  0  0  0
 37 36  1  0  0  0  0
 39 40  1  6  0  0  0
 39 42  1  0  0  0  0
 39 38  1  0  0  0  0
 41 40  3  0  0  0  0
 43 42  2  0  0  0  0
 44 46  1  0  0  0  0
 44 48  1  0  0  0  0
 45 47  1  0  0  0  0
 46 42  1  6  0  0  0
 46 45  1  0  0  0  0
 48 47  1  0  0  0  0
M  END
>  <MODEL>
2

>  <REMARK>
 VINA RESULT:      -6.8      3.489      7.596
  Name = 
  10 active torsions:
  status: ('A' for Active; 'I' for Inactive)
    1  A    between atoms: C_3  and  C_42
    2  A    between atoms: C_5  and  C_9
    3  A    between atoms: C_5  and  C_42
    4  A    between atoms: N_6  and  C_44
    5  A    between atoms: N_6  and  C_45
    6  A    between atoms: C_21  and  C_48
    7  A    between atoms: C_22  and  C_25
    8  A    between atoms: C_31  and  O_38
    9  A    between atoms: C_31  and  C_48
   10  A    between atoms: O_38  and  C_42
                            x       y       z     vdW  Elec       q    Type
                         _______ _______ _______ _____ _____    ______ ____

>  <TORSDO>
F 10

$$$$
=
 OpenBabel11042416433D

 48 54  0  0  1  0  0  0  0  0999 V2000
  188.2850  177.2030  142.0640 C   0  0  0  0  0  0  0  0  0  0  0  0
  188.1210  178.4270  141.8300 O   0  0  0  0  0  0  0  0  0  0  0  0
  189.8170  175.2700  142.4340 C   0  0  0  0  0  0  0  0  0  0  0  0
  189.5120  176.7160  142.7820 C   0  0  2  0  0  3  0  0  0  0  0  0
  187.5160  174.9590  141.7350 N   0  0  0  0  0  0  0  0  0  0  0  0
  190.3450  177.3170  146.4570 C   0  0  0  0  0  3  0  0  0  0  0  0
  192.3230  175.6180  142.7130 C   0  0  0  0  0  2  0  0  0  0  0  0
  192.8800  176.9650  144.7580 C   0  0  0  0  0  2  0  0  0  0  0  0
  188.8210  174.4420  142.0560 C   0  0  0  0  0  0  0  0  0  0  0  0
  187.2500  176.2310  141.7020 C   0  0  0  0  0  3  0  0  0  0  0  0
  191.1520  174.7630  142.5540 N   0  0  0  0  0  2  0  0  0  0  0  0
  194.4270  175.1130  143.9400 C   0  0  2  0  0  3  0  0  0  0  0  0
  194.1720  172.9900  144.9520 C   0  0  0  0  0  2  0  0  0  0  0  0
  188.0580  176.5500  146.3140 C   0  0  0  0  0  3  0  0  0  0  0  0
  192.9500  175.5670  144.1240 C   0  0  2  0  0  0  0  0  0  0  0  0
  189.1470  176.9600  147.0820 C   0  0  0  0  0  3  0  0  0  0  0  0
  194.8760  174.2660  145.0410 N   0  0  0  0  0  2  0  0  0  0  0  0
  189.3620  176.8670  144.2790 C   0  0  0  0  0  0  0  0  0  0  0  0
  192.2100  174.5960  145.0780 C   0  0  0  0  0  2  0  0  0  0  0  0
  191.6560  177.6240  144.4400 O   0  0  0  0  0  0  0  0  0  0  0  0
  190.4560  177.2770  145.0600 C   0  0  0  0  0  0  0  0  0  0  0  0
  192.6550  173.1470  144.8900 C   0  0  0  0  0  2  0  0  0  0  0  0
  188.1690  176.4940  144.9230 C   0  0  0  0  0  3  0  0  0  0  0  0
  195.4360  176.2310  143.6850 C   0  0  1  0  0  3  0  0  0  0  0  0
  196.7420  175.6900  143.6770 O   0  0  0  0  0  0  0  0  0  0  0  0
  196.2370  176.1030  142.4270 C   0  0  1  0  0  3  0  0  0  0  0  0
  195.8880  174.9350  141.6340 N   0  0  0  0  0  2  0  0  0  0  0  0
  193.7720  174.7780  139.4850 C   0  0  0  0  0  1  0  0  0  0  0  0
  195.2800  173.3430  137.3570 C   0  0  0  0  0  1  0  0  0  0  0  0
  197.4800  175.6360  136.9700 C   0  0  0  0  0  1  0  0  0  0  0  0
  197.0510  174.6920  138.0830 C   0  0  2  0  0  3  0  0  0  0  0  0
  195.5920  174.5690  138.0860 N   0  0  0  0  0  0  0  0  0  0  0  0
  197.6290  175.3400  139.6660 S   0  0  0  0  0  0  0  0  0  0  0  0
  195.1770  174.3810  139.4170 N   0  0  0  0  0  0  0  0  0  0  0  0
  195.9210  175.3350  140.2320 C   0  0  1  0  0  3  0  0  0  0  0  0
  189.0700  172.9770  141.8900 C   0  0  0  0  0  2  0  0  0  0  0  0
  189.0300  172.5890  140.4370 C   0  0  0  0  0  2  0  0  0  0  0  0
  190.1930  173.0280  139.7990 O   0  0  0  0  0  0  0  0  0  0  0  0
  190.5600  171.9800  138.9490 C   0  0  1  0  0  3  0  0  0  0  0  0
  191.1290  172.5330  137.7140 C   0  0  0  0  0  0  0  0  0  0  0  0
  191.5960  172.9850  136.7020 C   0  0  0  0  0  3  0  0  0  0  0  0
  191.5440  171.0300  139.5990 C   0  0  0  0  0  0  0  0  0  0  0  0
  191.4230  169.8330  139.3860 O   0  0  0  0  0  0  0  0  0  0  0  0
  192.4390  171.0450  141.9320 C   0  0  0  0  0  2  0  0  0  0  0  0
  193.9550  170.8160  140.1800 C   0  0  0  0  0  2  0  0  0  0  0  0
  192.6540  171.4690  140.5160 C   0  0  1  0  0  3  0  0  0  0  0  0
  194.5890  170.5130  141.3940 O   0  0  0  0  0  0  0  0  0  0  0  0
  193.5940  170.2330  142.2810 N   0  0  0  0  0  2  0  0  0  0  0  0
  2  1  2  0  0  0  0
  3 11  1  0  0  0  0
  3  4  1  0  0  0  0
  4  1  1  6  0  0  0
  4 18  1  0  0  0  0
  5  9  1  0  0  0  0
  6 16  1  0  0  0  0
  9  3  2  0  0  0  0
 10  5  2  0  0  0  0
 10  1  1  0  0  0  0
 11  7  1  0  0  0  0
 12 15  1  0  0  0  0
 12 17  1  1  0  0  0
 13 17  1  0  0  0  0
 14 16  2  0  0  0  0
 15  7  1  6  0  0  0
 15  8  1  0  0  0  0
 15 19  1  0  0  0  0
 18 23  2  0  0  0  0
 18 21  1  0  0  0  0
 20  8  1  0  0  0  0
 20 21  1  0  0  0  0
 21  6  2  0  0  0  0
 22 13  1  0  0  0  0
 22 19  1  0  0  0  0
 23 14  1  0  0  0  0
 24 25  1  1  0  0  0
 24 12  1  0  0  0  0
 26 27  1  6  0  0  0
 26 25  1  0  0  0  0
 26 24  1  0  0  0  0
 29 32  1  0  0  0  0
 31 30  1  6  0  0  0
 31 32  1  0  0  0  0
 31 33  1  0  0  0  0
 32 34  1  0  0  0  0
 33 35  1  0  0  0  0
 34 28  1  0  0  0  0
 34 35  1  0  0  0  0
 35 27  1  1  0  0  0
 36  9  1  0  0  0  0
 37 36  1  0  0  0  0
 38 37  1  0  0  0  0
 39 40  1  6  0  0  0
 39 42  1  0  0  0  0
 39 38  1  0  0  0  0
 41 40  3  0  0  0  0
 43 42  2  0  0  0  0
 44 48  1  0  0  0  0
 45 46  1  0  0  0  0
 45 47  1  0  0  0  0
 46 42  1  6  0  0  0
 46 44  1  0  0  0  0
 47 48  1  0  0  0  0
M  END
>  <MODEL>
3

>  <REMARK>
 VINA RESULT:      -6.5      1.139      2.221
  Name = 
  10 active torsions:
  status: ('A' for Active; 'I' for Inactive)
    1  A    between atoms: C_3  and  C_42
    2  A    between atoms: C_5  and  C_9
    3  A    between atoms: C_5  and  C_42
    4  A    between atoms: N_6  and  C_44
    5  A    between atoms: N_6  and  C_45
    6  A    between atoms: C_21  and  C_48
    7  A    between atoms: C_22  and  C_25
    8  A    between atoms: C_31  and  O_38
    9  A    between atoms: C_31  and  C_48
   10  A    between atoms: O_38  and  C_42
                            x       y       z     vdW  Elec       q    Type
                         _______ _______ _______ _____ _____    ______ ____

>  <TORSDO>
F 10

$$$$
=
 OpenBabel11042416433D

 48 54  0  0  1  0  0  0  0  0999 V2000
  196.4520  172.8880  146.0340 C   0  0  0  0  0  0  0  0  0  0  0  0
  197.1900  173.4420  146.8870 O   0  0  0  0  0  0  0  0  0  0  0  0
  194.2490  172.7280  144.8770 C   0  0  0  0  0  0  0  0  0  0  0  0
  195.3490  173.6550  145.3600 C   0  0  2  0  0  3  0  0  0  0  0  0
  195.8010  170.8670  144.9280 N   0  0  0  0  0  0  0  0  0  0  0  0
  195.8040  176.4760  142.8310 C   0  0  0  0  0  3  0  0  0  0  0  0
  192.4560  174.5020  145.2200 C   0  0  0  0  0  2  0  0  0  0  0  0
  193.1760  176.7620  144.3940 C   0  0  0  0  0  2  0  0  0  0  0  0
  194.5310  171.4450  144.5700 C   0  0  0  0  0  0  0  0  0  0  0  0
  196.6930  171.5010  145.6280 C   0  0  0  0  0  3  0  0  0  0  0  0
  192.9150  173.2210  144.6940 N   0  0  0  0  0  2  0  0  0  0  0  0
  190.7410  176.0230  144.2510 C   0  0  2  0  0  3  0  0  0  0  0  0
  190.0330  175.0870  142.1980 C   0  0  0  0  0  2  0  0  0  0  0  0
  197.2240  174.6340  142.1750 C   0  0  0  0  0  3  0  0  0  0  0  0
  192.2290  175.5800  144.1360 C   0  0  2  0  0  0  0  0  0  0  0  0
  196.7260  175.9150  141.9430 C   0  0  0  0  0  3  0  0  0  0  0  0
  190.1640  176.3330  142.9460 N   0  0  0  0  0  2  0  0  0  0  0  0
  195.8830  174.4710  144.2030 C   0  0  0  0  0  0  0  0  0  0  0  0
  192.5210  175.0660  142.7030 C   0  0  0  0  0  2  0  0  0  0  0  0
  194.4560  176.3200  144.8400 O   0  0  0  0  0  0  0  0  0  0  0  0
  195.3840  175.7620  143.9610 C   0  0  0  0  0  0  0  0  0  0  0  0
  191.3400  174.3020  142.1090 C   0  0  0  0  0  2  0  0  0  0  0  0
  196.7960  173.9130  143.2920 C   0  0  0  0  0  3  0  0  0  0  0  0
  190.4630  177.1560  145.2370 C   0  0  1  0  0  3  0  0  0  0  0  0
  189.4110  177.9600  144.7420 O   0  0  0  0  0  0  0  0  0  0  0  0
  189.1000  177.1530  145.8560 C   0  0  1  0  0  3  0  0  0  0  0  0
  188.2730  176.0360  145.4300 N   0  0  0  0  0  2  0  0  0  0  0  0
  186.3310  176.3880  143.1430 C   0  0  0  0  0  1  0  0  0  0  0  0
  185.4920  179.2100  143.5880 C   0  0  0  0  0  1  0  0  0  0  0  0
  184.1730  178.6660  146.4540 C   0  0  0  0  0  1  0  0  0  0  0  0
  185.5640  178.5880  145.8450 C   0  0  2  0  0  3  0  0  0  0  0  0
  185.4740  178.0560  144.4840 N   0  0  0  0  0  0  0  0  0  0  0  0
  186.6000  177.5200  146.8680 S   0  0  0  0  0  0  0  0  0  0  0  0
  186.6420  177.3130  144.2310 N   0  0  0  0  0  0  0  0  0  0  0  0
  186.8900  176.4980  145.4160 C   0  0  1  0  0  3  0  0  0  0  0  0
  193.5070  170.5730  143.9210 C   0  0  0  0  0  2  0  0  0  0  0  0
  193.8090  170.3870  142.4590 C   0  0  0  0  0  2  0  0  0  0  0  0
  193.4220  171.5260  141.7490 O   0  0  0  0  0  0  0  0  0  0  0  0
  193.2120  171.0850  140.4380 C   0  0  1  0  0  3  0  0  0  0  0  0
  191.7790  171.1400  140.1310 C   0  0  0  0  0  0  0  0  0  0  0  0
  190.6030  171.1840  139.8800 C   0  0  0  0  0  3  0  0  0  0  0  0
  193.9960  171.8960  139.4270 C   0  0  0  0  0  0  0  0  0  0  0  0
  193.9860  171.5350  138.2600 O   0  0  0  0  0  0  0  0  0  0  0  0
  196.0340  173.2530  138.9310 C   0  0  0  0  0  2  0  0  0  0  0  0
  194.0790  174.3830  139.4940 C   0  0  0  0  0  2  0  0  0  0  0  0
  194.8110  173.1120  139.7760 C   0  0  1  0  0  3  0  0  0  0  0  0
  195.0130  175.2900  138.9740 O   0  0  0  0  0  0  0  0  0  0  0  0
  195.9140  174.5460  138.2760 N   0  0  0  0  0  2  0  0  0  0  0  0
  1  2  2  0  0  0  0
  3  4  1  0  0  0  0
  4 18  1  6  0  0  0
  4  1  1  0  0  0  0
  5 10  2  0  0  0  0
  6 21  1  0  0  0  0
  8 20  1  0  0  0  0
  9  3  2  0  0  0  0
  9  5  1  0  0  0  0
 10  1  1  0  0  0  0
 11  3  1  0  0  0  0
 11  7  1  0  0  0  0
 12 17  1  6  0  0  0
 12 24  1  0  0  0  0
 13 17  1  0  0  0  0
 14 23  2  0  0  0  0
 15 19  1  6  0  0  0
 15 12  1  0  0  0  0
 15  8  1  0  0  0  0
 15  7  1  0  0  0  0
 16 14  1  0  0  0  0
 16  6  2  0  0  0  0
 21 18  2  0  0  0  0
 21 20  1  0  0  0  0
 22 13  1  0  0  0  0
 22 19  1  0  0  0  0
 23 18  1  0  0  0  0
 24 25  1  6  0  0  0
 24 26  1  0  0  0  0
 25 26  1  0  0  0  0
 26 27  1  6  0  0  0
 28 34  1  0  0  0  0
 29 32  1  0  0  0  0
 31 30  1  1  0  0  0
 31 33  1  0  0  0  0
 32 31  1  0  0  0  0
 34 32  1  0  0  0  0
 34 35  1  0  0  0  0
 35 27  1  6  0  0  0
 35 33  1  0  0  0  0
 36  9  1  0  0  0  0
 37 36  1  0  0  0  0
 38 37  1  0  0  0  0
 39 40  1  6  0  0  0
 39 38  1  0  0  0  0
 41 40  3  0  0  0  0
 42 39  1  0  0  0  0
 43 42  2  0  0  0  0
 44 46  1  0  0  0  0
 45 46  1  0  0  0  0
 46 42  1  6  0  0  0
 47 45  1  0  0  0  0
 48 44  1  0  0  0  0
 48 47  1  0  0  0  0
M  END
>  <MODEL>
4

>  <REMARK>
 VINA RESULT:      -6.5      3.040      7.694
  Name = 
  10 active torsions:
  status: ('A' for Active; 'I' for Inactive)
    1  A    between atoms: C_3  and  C_42
    2  A    between atoms: C_5  and  C_9
    3  A    between atoms: C_5  and  C_42
    4  A    between atoms: N_6  and  C_44
    5  A    between atoms: N_6  and  C_45
    6  A    between atoms: C_21  and  C_48
    7  A    between atoms: C_22  and  C_25
    8  A    between atoms: C_31  and  O_38
    9  A    between atoms: C_31  and  C_48
   10  A    between atoms: O_38  and  C_42
                            x       y       z     vdW  Elec       q    Type
                         _______ _______ _______ _____ _____    ______ ____

>  <TORSDO>
F 10

$$$$
=
 OpenBabel11042416433D

 48 54  0  0  1  0  0  0  0  0999 V2000
  194.3320  176.9480  145.5210 C   0  0  0  0  0  0  0  0  0  0  0  0
  195.0600  177.9700  145.5770 O   0  0  0  0  0  0  0  0  0  0  0  0
  193.1870  175.1940  144.1670 C   0  0  0  0  0  0  0  0  0  0  0  0
  194.4750  175.9640  144.3940 C   0  0  2  0  0  3  0  0  0  0  0  0
  192.4730  175.7350  146.4200 N   0  0  0  0  0  0  0  0  0  0  0  0
  197.4400  173.6310  143.8200 C   0  0  0  0  0  3  0  0  0  0  0  0
  193.6400  174.9590  141.6730 C   0  0  0  0  0  2  0  0  0  0  0  0
  196.0250  174.3420  141.1880 C   0  0  0  0  0  2  0  0  0  0  0  0
  192.3220  175.0080  145.1860 C   0  0  1  0  0  3  0  0  0  0  0  0
  193.3740  176.6560  146.5910 C   0  0  0  0  0  3  0  0  0  0  0  0
  192.9050  174.6160  142.8860 N   0  0  0  0  0  0  0  0  0  0  0  0
  194.1230  173.4990  139.7170 C   0  0  2  0  0  3  0  0  0  0  0  0
  193.2750  171.3460  140.2050 C   0  0  0  0  0  2  0  0  0  0  0  0
  196.7770  173.4570  146.1370 C   0  0  0  0  0  3  0  0  0  0  0  0
  194.5740  173.8380  141.1670 C   0  0  2  0  0  0  0  0  0  0  0  0
  197.6060  173.0650  145.0870 C   0  0  0  0  0  3  0  0  0  0  0  0
  194.2650  172.0780  139.4210 N   0  0  0  0  0  2  0  0  0  0  0  0
  195.6140  175.0010  144.6530 C   0  0  0  0  0  0  0  0  0  0  0  0
  194.5220  172.5650  142.0500 C   0  0  0  0  0  2  0  0  0  0  0  0
  196.2810  175.1540  142.3310 O   0  0  0  0  0  0  0  0  0  0  0  0
  196.4520  174.5990  143.6000 C   0  0  0  0  0  0  0  0  0  0  0  0
  193.3410  171.6620  141.6980 C   0  0  0  0  0  2  0  0  0  0  0  0
  195.7810  174.4110  145.9180 C   0  0  0  0  0  3  0  0  0  0  0  0
  194.7630  174.3390  138.6120 C   0  0  1  0  0  3  0  0  0  0  0  0
  194.5520  173.7100  137.3650 O   0  0  0  0  0  0  0  0  0  0  0  0
  193.8180  174.8910  137.5920 C   0  0  1  0  0  3  0  0  0  0  0  0
  192.4270  174.5570  137.8490 N   0  0  0  0  0  2  0  0  0  0  0  0
  191.6610  175.8790  135.2430 C   0  0  0  0  0  1  0  0  0  0  0  0
  188.8730  174.8820  134.9400 C   0  0  0  0  0  1  0  0  0  0  0  0
  189.6940  171.7950  134.7380 C   0  0  0  0  0  1  0  0  0  0  0  0
  189.7820  172.8960  135.7830 C   0  0  2  0  0  3  0  0  0  0  0  0
  190.1280  174.1620  135.1340 N   0  0  0  0  0  0  0  0  0  0  0  0
  191.0350  172.4550  137.0050 S   0  0  0  0  0  0  0  0  0  0  0  0
  190.9050  174.9120  136.0360 N   0  0  0  0  0  0  0  0  0  0  0  0
  191.8790  173.9960  136.6190 C   0  0  1  0  0  3  0  0  0  0  0  0
  191.1450  174.1010  145.0310 C   0  0  0  0  0  2  0  0  0  0  0  0
  189.9250  174.6880  145.6870 C   0  0  0  0  0  2  0  0  0  0  0  0
  189.1910  175.4190  144.7500 O   0  0  0  0  0  0  0  0  0  0  0  0
  189.1380  176.7200  145.2610 C   0  0  1  0  0  3  0  0  0  0  0  0
  190.0630  177.5750  144.5080 C   0  0  0  0  0  0  0  0  0  0  0  0
  190.8200  178.2770  143.8900 C   0  0  0  0  0  3  0  0  0  0  0  0
  187.7390  177.2980  145.2200 C   0  0  0  0  0  0  0  0  0  0  0  0
  187.4490  178.0520  144.3040 O   0  0  0  0  0  0  0  0  0  0  0  0
  186.5480  178.1230  147.2560 C   0  0  0  0  0  2  0  0  0  0  0  0
  185.3150  176.9490  145.6680 C   0  0  0  0  0  2  0  0  0  0  0  0
  186.6860  177.0200  146.2580 C   0  0  1  0  0  3  0  0  0  0  0  0
  184.4450  177.5740  146.5720 O   0  0  0  0  0  0  0  0  0  0  0  0
  185.1640  178.5630  147.1700 N   0  0  0  0  0  2  0  0  0  0  0  0
  1  2  2  0  0  0  0
  1 10  1  0  0  0  0
  3  9  1  0  0  0  0
  4  3  1  1  0  0  0
  4 18  1  0  0  0  0
  4  1  1  0  0  0  0
  5 10  2  0  0  0  0
  6 16  1  0  0  0  0
  7 11  1  0  0  0  0
  8 20  1  0  0  0  0
  9 36  1  6  0  0  0
  9  5  1  0  0  0  0
 11  3  2  0  0  0  0
 12 17  1  6  0  0  0
 12 15  1  0  0  0  0
 13 22  1  0  0  0  0
 15  8  1  6  0  0  0
 15  7  1  0  0  0  0
 15 19  1  0  0  0  0
 16 14  2  0  0  0  0
 17 13  1  0  0  0  0
 18 23  2  0  0  0  0
 20 21  1  0  0  0  0
 21  6  2  0  0  0  0
 21 18  1  0  0  0  0
 22 19  1  0  0  0  0
 23 14  1  0  0  0  0
 24 25  1  6  0  0  0
 24 12  1  0  0  0  0
 25 26  1  0  0  0  0
 26 27  1  1  0  0  0
 26 24  1  0  0  0  0
 28 34  1  0  0  0  0
 29 32  1  0  0  0  0
 31 30  1  6  0  0  0
 31 33  1  0  0  0  0
 32 31  1  0  0  0  0
 32 34  1  0  0  0  0
 34 35  1  0  0  0  0
 35 33  1  0  0  0  0
 35 27  1  1  0  0  0
 36 37  1  0  0  0  0
 38 39  1  0  0  0  0
 38 37  1  0  0  0  0
 39 40  1  6  0  0  0
 41 40  3  0  0  0  0
 42 39  1  0  0  0  0
 43 42  2  0  0  0  0
 45 46  1  0  0  0  0
 45 47  1  0  0  0  0
 46 42  1  6  0  0  0
 46 44  1  0  0  0  0
 47 48  1  0  0  0  0
 48 44  1  0  0  0  0
M  END
>  <MODEL>
5

>  <REMARK>
 VINA RESULT:      -6.4      2.793      7.289
  Name = 
  10 active torsions:
  status: ('A' for Active; 'I' for Inactive)
    1  A    between atoms: C_3  and  C_42
    2  A    between atoms: C_5  and  C_9
    3  A    between atoms: C_5  and  C_42
    4  A    between atoms: N_6  and  C_44
    5  A    between atoms: N_6  and  C_45
    6  A    between atoms: C_21  and  C_48
    7  A    between atoms: C_22  and  C_25
    8  A    between atoms: C_31  and  O_38
    9  A    between atoms: C_31  and  C_48
   10  A    between atoms: O_38  and  C_42
                            x       y       z     vdW  Elec       q    Type
                         _______ _______ _______ _____ _____    ______ ____

>  <TORSDO>
F 10

$$$$
=
 OpenBabel11042416433D

 48 54  0  0  1  0  0  0  0  0999 V2000
  195.7550  176.4940  143.9350 C   0  0  0  0  0  0  0  0  0  0  0  0
  196.7880  176.9620  143.3950 O   0  0  0  0  0  0  0  0  0  0  0  0
  193.6970  175.0920  143.7880 C   0  0  0  0  0  0  0  0  0  0  0  0
  195.1820  175.1780  143.4850 C   0  0  2  0  0  3  0  0  0  0  0  0
  193.9420  176.8260  145.4640 N   0  0  0  0  0  0  0  0  0  0  0  0
  196.7640  171.7470  144.0170 C   0  0  0  0  0  3  0  0  0  0  0  0
  193.2620  173.6110  141.7640 C   0  0  0  0  0  2  0  0  0  0  0  0
  194.9910  171.8070  141.5100 C   0  0  0  0  0  2  0  0  0  0  0  0
  193.1730  175.8000  144.8090 C   0  0  1  0  0  3  0  0  0  0  0  0
  195.1250  177.1860  145.0620 C   0  0  0  0  0  3  0  0  0  0  0  0
  192.8530  174.2210  143.0240 N   0  0  0  0  0  0  0  0  0  0  0  0
  192.5650  171.4090  140.8380 C   0  0  2  0  0  3  0  0  0  0  0  0
  191.1740  170.3660  142.4410 C   0  0  0  0  0  2  0  0  0  0  0  0
  196.8110  172.9370  146.1190 C   0  0  0  0  0  3  0  0  0  0  0  0
  193.5220  172.0900  141.8590 C   0  0  2  0  0  0  0  0  0  0  0  0
  197.0830  171.7880  145.3770 C   0  0  0  0  0  3  0  0  0  0  0  0
  192.0800  170.1210  141.3230 N   0  0  0  0  0  2  0  0  0  0  0  0
  195.9090  174.0190  144.1320 C   0  0  0  0  0  0  0  0  0  0  0  0
  193.2730  171.5230  143.2800 C   0  0  0  0  0  2  0  0  0  0  0  0
  195.8570  172.8100  142.0350 O   0  0  0  0  0  0  0  0  0  0  0  0
  196.1830  172.8580  143.3910 C   0  0  0  0  0  0  0  0  0  0  0  0
  191.7960  171.2300  143.5370 C   0  0  0  0  0  2  0  0  0  0  0  0
  196.2190  174.0400  145.5030 C   0  0  0  0  0  3  0  0  0  0  0  0
  193.1060  171.2710  139.4150 C   0  0  1  0  0  3  0  0  0  0  0  0
  192.1920  170.5260  138.6370 O   0  0  0  0  0  0  0  0  0  0  0  0
  192.2730  171.9020  138.3440 C   0  0  1  0  0  3  0  0  0  0  0  0
  191.0900  172.5780  138.8520 N   0  0  0  0  0  2  0  0  0  0  0  0
  188.5850  173.8890  137.7890 C   0  0  0  0  0  1  0  0  0  0  0  0
  189.3030  174.1530  134.9120 C   0  0  0  0  0  1  0  0  0  0  0  0
  191.7850  176.1110  135.4150 C   0  0  0  0  0  1  0  0  0  0  0  0
  191.4170  174.6790  135.7690 C   0  0  2  0  0  3  0  0  0  0  0  0
  189.9960  174.6070  136.1140 N   0  0  0  0  0  0  0  0  0  0  0  0
  192.4280  174.1340  137.1620 S   0  0  0  0  0  0  0  0  0  0  0  0
  189.8380  173.6070  137.0910 N   0  0  0  0  0  0  0  0  0  0  0  0
  190.9100  173.7910  138.0630 C   0  0  1  0  0  3  0  0  0  0  0  0
  191.7560  175.5880  145.2360 C   0  0  0  0  0  2  0  0  0  0  0  0
  190.8670  176.6800  144.7080 C   0  0  0  0  0  2  0  0  0  0  0  0
  189.6620  176.1320  144.2610 O   0  0  0  0  0  0  0  0  0  0  0  0
  189.7450  176.1590  142.8650 C   0  0  1  0  0  3  0  0  0  0  0  0
  189.5910  174.7970  142.3420 C   0  0  0  0  0  0  0  0  0  0  0  0
  189.4660  173.6790  141.9150 C   0  0  0  0  0  3  0  0  0  0  0  0
  188.7110  177.0770  142.2460 C   0  0  0  0  0  0  0  0  0  0  0  0
  188.9710  178.2670  142.1540 O   0  0  0  0  0  0  0  0  0  0  0  0
  186.3180  176.6460  142.8210 C   0  0  0  0  0  2  0  0  0  0  0  0
  186.7960  177.5300  140.7210 C   0  0  0  0  0  2  0  0  0  0  0  0
  187.3650  176.6150  141.7570 C   0  0  1  0  0  3  0  0  0  0  0  0
  185.4200  177.6300  140.9730 O   0  0  0  0  0  0  0  0  0  0  0  0
  185.2730  177.5260  142.3220 N   0  0  0  0  0  2  0  0  0  0  0  0
  1 10  1  0  0  0  0
  2  1  2  0  0  0  0
  3  9  1  0  0  0  0
  4  3  1  1  0  0  0
  4  1  1  0  0  0  0
  4 18  1  0  0  0  0
  6 16  1  0  0  0  0
  7 15  1  0  0  0  0
  7 11  1  0  0  0  0
  8 20  1  0  0  0  0
  9 36  1  6  0  0  0
  9  5  1  0  0  0  0
 10  5  2  0  0  0  0
 11  3  2  0  0  0  0
 12 17  1  1  0  0  0
 12 15  1  0  0  0  0
 13 22  1  0  0  0  0
 15  8  1  6  0  0  0
 15 19  1  0  0  0  0
 16 14  2  0  0  0  0
 17 13  1  0  0  0  0
 18 23  2  0  0  0  0
 19 22  1  0  0  0  0
 20 21  1  0  0  0  0
 21  6  2  0  0  0  0
 21 18  1  0  0  0  0
 23 14  1  0  0  0  0
 24 25  1  6  0  0  0
 24 12  1  0  0  0  0
 26 25  1  0  0  0  0
 26 27  1  1  0  0  0
 26 24  1  0  0  0  0
 29 32  1  0  0  0  0
 31 30  1  1  0  0  0
 31 32  1  0  0  0  0
 31 33  1  0  0  0  0
 32 34  1  0  0  0  0
 33 35  1  0  0  0  0
 34 28  1  0  0  0  0
 34 35  1  0  0  0  0
 35 27  1  6  0  0  0
 37 36  1  0  0  0  0
 38 37  1  0  0  0  0
 39 40  1  6  0  0  0
 39 38  1  0  0  0  0
 41 40  3  0  0  0  0
 42 39  1  0  0  0  0
 43 42  2  0  0  0  0
 45 47  1  0  0  0  0
 45 46  1  0  0  0  0
 46 42  1  1  0  0  0
 46 44  1  0  0  0  0
 47 48  1  0  0  0  0
 48 44  1  0  0  0  0
M  END
>  <MODEL>
6

>  <REMARK>
 VINA RESULT:      -6.4      2.590      6.637
  Name = 
  10 active torsions:
  status: ('A' for Active; 'I' for Inactive)
    1  A    between atoms: C_3  and  C_42
    2  A    between atoms: C_5  and  C_9
    3  A    between atoms: C_5  and  C_42
    4  A    between atoms: N_6  and  C_44
    5  A    between atoms: N_6  and  C_45
    6  A    between atoms: C_21  and  C_48
    7  A    between atoms: C_22  and  C_25
    8  A    between atoms: C_31  and  O_38
    9  A    between atoms: C_31  and  C_48
   10  A    between atoms: O_38  and  C_42
                            x       y       z     vdW  Elec       q    Type
                         _______ _______ _______ _____ _____    ______ ____

>  <TORSDO>
F 10

$$$$
=
 OpenBabel11042416433D

 48 54  0  0  1  0  0  0  0  0999 V2000
  194.8280  174.8090  138.2590 C   0  0  0  0  0  0  0  0  0  0  0  0
  194.6550  175.3220  137.1240 O   0  0  0  0  0  0  0  0  0  0  0  0
  193.9440  174.2410  140.5200 C   0  0  0  0  0  0  0  0  0  0  0  0
  193.6700  174.2360  139.0270 C   0  0  2  0  0  3  0  0  0  0  0  0
  196.3240  174.3820  140.0790 N   0  0  0  0  0  0  0  0  0  0  0  0
  191.7280  171.0770  138.1260 C   0  0  0  0  0  3  0  0  0  0  0  0
  191.4800  174.5460  141.0790 C   0  0  0  0  0  2  0  0  0  0  0  0
  189.9940  173.0730  139.6890 C   0  0  0  0  0  2  0  0  0  0  0  0
  195.2130  174.1900  140.9750 C   0  0  0  0  0  0  0  0  0  0  0  0
  196.1740  174.6980  138.8270 C   0  0  0  0  0  3  0  0  0  0  0  0
  192.8580  174.2470  141.4550 N   0  0  0  0  0  2  0  0  0  0  0  0
  189.3930  173.6520  142.0970 C   0  0  2  0  0  3  0  0  0  0  0  0
  190.0200  172.0870  143.7560 C   0  0  0  0  0  2  0  0  0  0  0  0
  194.0880  170.5750  138.0050 C   0  0  0  0  0  3  0  0  0  0  0  0
  190.5430  173.3170  141.1040 C   0  0  2  0  0  0  0  0  0  0  0  0
  192.7610  170.1640  137.8960 C   0  0  0  0  0  3  0  0  0  0  0  0
  188.9530  172.4730  142.8370 N   0  0  0  0  0  2  0  0  0  0  0  0
  193.3540  172.8300  138.5650 C   0  0  0  0  0  0  0  0  0  0  0  0
  191.2640  172.0180  141.5430 C   0  0  0  0  0  2  0  0  0  0  0  0
  190.9850  173.3150  138.6940 O   0  0  0  0  0  0  0  0  0  0  0  0
  192.0180  172.4080  138.4550 C   0  0  0  0  0  0  0  0  0  0  0  0
  191.3670  171.8980  143.0630 C   0  0  0  0  0  2  0  0  0  0  0  0
  194.3820  171.8970  138.3470 C   0  0  0  0  0  3  0  0  0  0  0  0
  188.1910  174.3800  141.4970 C   0  0  1  0  0  3  0  0  0  0  0  0
  187.1020  174.3050  142.3940 O   0  0  0  0  0  0  0  0  0  0  0  0
  187.7090  175.5710  142.2640 C   0  0  1  0  0  3  0  0  0  0  0  0
  188.4990  175.8550  143.4520 N   0  0  0  0  0  2  0  0  0  0  0  0
  187.8610  176.4110  146.3510 C   0  0  0  0  0  1  0  0  0  0  0  0
  185.0040  177.2140  146.1220 C   0  0  0  0  0  1  0  0  0  0  0  0
  185.5760  179.7910  144.3110 C   0  0  0  0  0  1  0  0  0  0  0  0
  185.7450  178.2860  144.1770 C   0  0  2  0  0  3  0  0  0  0  0  0
  186.1960  177.7270  145.4520 N   0  0  0  0  0  0  0  0  0  0  0  0
  186.9500  177.9370  142.8780 S   0  0  0  0  0  0  0  0  0  0  0  0
  187.0240  176.6240  145.1730 N   0  0  0  0  0  0  0  0  0  0  0  0
  187.9170  177.0280  144.0920 C   0  0  1  0  0  3  0  0  0  0  0  0
  195.4940  174.0090  142.4320 C   0  0  0  0  0  2  0  0  0  0  0  0
  196.7770  174.6910  142.8200 C   0  0  0  0  0  2  0  0  0  0  0  0
  196.5400  175.5790  143.8720 O   0  0  0  0  0  0  0  0  0  0  0  0
  195.6720  174.9000  144.7330 C   0  0  1  0  0  3  0  0  0  0  0  0
  196.4560  174.1340  145.7090 C   0  0  0  0  0  0  0  0  0  0  0  0
  197.1000  173.5060  146.5080 C   0  0  0  0  0  3  0  0  0  0  0  0
  194.7210  175.8380  145.4470 C   0  0  0  0  0  0  0  0  0  0  0  0
  194.9410  177.0390  145.3950 O   0  0  0  0  0  0  0  0  0  0  0  0
  192.4820  176.4350  146.3820 C   0  0  0  0  0  2  0  0  0  0  0  0
  192.7840  174.2780  145.5600 C   0  0  0  0  0  2  0  0  0  0  0  0
  193.5280  175.3790  146.2420 C   0  0  1  0  0  3  0  0  0  0  0  0
  191.4170  174.5170  145.7650 O   0  0  0  0  0  0  0  0  0  0  0  0
  191.2710  175.8700  145.8070 N   0  0  0  0  0  2  0  0  0  0  0  0
  1 10  1  0  0  0  0
  2  1  2  0  0  0  0
  3  9  2  0  0  0  0
  3 11  1  0  0  0  0
  4  1  1  6  0  0  0
  4  3  1  0  0  0  0
  5  9  1  0  0  0  0
  6 21  1  0  0  0  0
  7 15  1  0  0  0  0
  7 11  1  0  0  0  0
  9 36  1  0  0  0  0
 10  5  2  0  0  0  0
 12 17  1  6  0  0  0
 14 23  2  0  0  0  0
 15  8  1  6  0  0  0
 15 19  1  0  0  0  0
 15 12  1  0  0  0  0
 16 14  1  0  0  0  0
 16  6  2  0  0  0  0
 17 13  1  0  0  0  0
 18  4  1  0  0  0  0
 19 22  1  0  0  0  0
 20  8  1  0  0  0  0
 21 18  2  0  0  0  0
 21 20  1  0  0  0  0
 22 13  1  0  0  0  0
 23 18  1  0  0  0  0
 24 12  1  0  0  0  0
 24 26  1  0  0  0  0
 24 25  1  1  0  0  0
 26 25  1  0  0  0  0
 26 27  1  1  0  0  0
 31 30  1  1  0  0  0
 31 32  1  0  0  0  0
 32 29  1  0  0  0  0
 33 35  1  0  0  0  0
 33 31  1  0  0  0  0
 34 32  1  0  0  0  0
 34 28  1  0  0  0  0
 35 27  1  6  0  0  0
 35 34  1  0  0  0  0
 36 37  1  0  0  0  0
 37 38  1  0  0  0  0
 38 39  1  0  0  0  0
 39 42  1  0  0  0  0
 39 40  1  1  0  0  0
 40 41  3  0  0  0  0
 43 42  2  0  0  0  0
 45 47  1  0  0  0  0
 45 46  1  0  0  0  0
 46 42  1  6  0  0  0
 46 44  1  0  0  0  0
 47 48  1  0  0  0  0
 48 44  1  0  0  0  0
M  END
>  <MODEL>
7

>  <REMARK>
 VINA RESULT:      -6.3      2.889      8.722
  Name = 
  10 active torsions:
  status: ('A' for Active; 'I' for Inactive)
    1  A    between atoms: C_3  and  C_42
    2  A    between atoms: C_5  and  C_9
    3  A    between atoms: C_5  and  C_42
    4  A    between atoms: N_6  and  C_44
    5  A    between atoms: N_6  and  C_45
    6  A    between atoms: C_21  and  C_48
    7  A    between atoms: C_22  and  C_25
    8  A    between atoms: C_31  and  O_38
    9  A    between atoms: C_31  and  C_48
   10  A    between atoms: O_38  and  C_42
                            x       y       z     vdW  Elec       q    Type
                         _______ _______ _______ _____ _____    ______ ____

>  <TORSDO>
F 10

$$$$
=
 OpenBabel11042416433D

 48 54  0  0  1  0  0  0  0  0999 V2000
  195.7220  176.4610  143.9460 C   0  0  0  0  0  0  0  0  0  0  0  0
  196.7470  176.9260  143.3860 O   0  0  0  0  0  0  0  0  0  0  0  0
  193.6640  175.0570  143.8410 C   0  0  0  0  0  0  0  0  0  0  0  0
  195.1440  175.1410  143.5150 C   0  0  2  0  0  3  0  0  0  0  0  0
  193.9330  176.8040  145.5000 N   0  0  0  0  0  0  0  0  0  0  0  0
  196.7380  171.7160  144.0490 C   0  0  0  0  0  3  0  0  0  0  0  0
  193.1990  173.5590  141.8360 C   0  0  0  0  0  2  0  0  0  0  0  0
  194.9260  171.7550  141.5690 C   0  0  0  0  0  2  0  0  0  0  0  0
  193.1550  175.7720  144.8660 C   0  0  1  0  0  3  0  0  0  0  0  0
  195.1100  177.1620  145.0770 C   0  0  0  0  0  3  0  0  0  0  0  0
  192.8090  174.1790  143.0980 N   0  0  0  0  0  0  0  0  0  0  0  0
  192.4900  171.3490  140.9380 C   0  0  2  0  0  3  0  0  0  0  0  0
  191.1250  170.3180  142.5710 C   0  0  0  0  0  2  0  0  0  0  0  0
  196.8160  172.9220  146.1410 C   0  0  0  0  0  3  0  0  0  0  0  0
  193.4620  172.0400  141.9390 C   0  0  2  0  0  0  0  0  0  0  0  0
  197.0770  171.7680  145.4040 C   0  0  0  0  0  3  0  0  0  0  0  0
  192.0140  170.0650  141.4410 N   0  0  0  0  0  2  0  0  0  0  0  0
  195.8820  173.9880  144.1590 C   0  0  0  0  0  0  0  0  0  0  0  0
  193.2360  171.4830  143.3680 C   0  0  0  0  0  2  0  0  0  0  0  0
  195.7990  172.7620  142.0730 O   0  0  0  0  0  0  0  0  0  0  0  0
  196.1460  172.8210  143.4230 C   0  0  0  0  0  0  0  0  0  0  0  0
  191.7630  171.1910  143.6500 C   0  0  0  0  0  2  0  0  0  0  0  0
  196.2130  174.0200  145.5250 C   0  0  0  0  0  3  0  0  0  0  0  0
  193.0090  171.2010  139.5090 C   0  0  1  0  0  3  0  0  0  0  0  0
  192.0550  170.5010  138.7350 O   0  0  0  0  0  0  0  0  0  0  0  0
  192.1920  171.8750  138.4520 C   0  0  1  0  0  3  0  0  0  0  0  0
  191.0430  172.5950  138.9780 N   0  0  0  0  0  2  0  0  0  0  0  0
  188.5430  173.8460  137.8350 C   0  0  0  0  0  1  0  0  0  0  0  0
  189.3150  174.0500  134.9660 C   0  0  0  0  0  1  0  0  0  0  0  0
  191.7600  176.0530  135.4700 C   0  0  0  0  0  1  0  0  0  0  0  0
  191.4050  174.6250  135.8520 C   0  0  2  0  0  3  0  0  0  0  0  0
  189.9780  174.5430  136.1700 N   0  0  0  0  0  0  0  0  0  0  0  0
  192.3950  174.1280  137.2780 S   0  0  0  0  0  0  0  0  0  0  0  0
  189.8130  173.5640  137.1680 N   0  0  0  0  0  0  0  0  0  0  0  0
  190.8630  173.7870  138.1570 C   0  0  1  0  0  3  0  0  0  0  0  0
  191.7460  175.5620  145.3160 C   0  0  0  0  0  2  0  0  0  0  0  0
  190.8820  176.7340  144.9400 C   0  0  0  0  0  2  0  0  0  0  0  0
  189.5390  176.3490  144.9370 O   0  0  0  0  0  0  0  0  0  0  0  0
  188.8180  177.5390  144.7990 C   0  0  1  0  0  3  0  0  0  0  0  0
  188.4050  177.6980  143.4000 C   0  0  0  0  0  0  0  0  0  0  0  0
  188.0670  177.8280  142.2530 C   0  0  0  0  0  3  0  0  0  0  0  0
  187.6090  177.5880  145.7100 C   0  0  0  0  0  0  0  0  0  0  0  0
  187.7890  177.5220  146.9170 O   0  0  0  0  0  0  0  0  0  0  0  0
  185.2240  176.9380  146.0750 C   0  0  0  0  0  2  0  0  0  0  0  0
  185.6650  179.0850  145.2890 C   0  0  0  0  0  2  0  0  0  0  0  0
  186.1910  177.6880  145.2180 C   0  0  1  0  0  3  0  0  0  0  0  0
  184.3280  179.0010  145.7050 O   0  0  0  0  0  0  0  0  0  0  0  0
  184.2570  177.9230  146.5340 N   0  0  0  0  0  2  0  0  0  0  0  0
  1 10  1  0  0  0  0
  2  1  2  0  0  0  0
  3  9  1  0  0  0  0
  4  3  1  1  0  0  0
  4  1  1  0  0  0  0
  4 18  1  0  0  0  0
  6 16  1  0  0  0  0
  7 15  1  0  0  0  0
  7 11  1  0  0  0  0
  8 20  1  0  0  0  0
  9 36  1  6  0  0  0
  9  5  1  0  0  0  0
 10  5  2  0  0  0  0
 11  3  2  0  0  0  0
 12 17  1  1  0  0  0
 12 15  1  0  0  0  0
 13 22  1  0  0  0  0
 15  8  1  6  0  0  0
 15 19  1  0  0  0  0
 16 14  2  0  0  0  0
 17 13  1  0  0  0  0
 18 23  2  0  0  0  0
 19 22  1  0  0  0  0
 20 21  1  0  0  0  0
 21  6  2  0  0  0  0
 21 18  1  0  0  0  0
 23 14  1  0  0  0  0
 24 25  1  6  0  0  0
 24 12  1  0  0  0  0
 26 25  1  0  0  0  0
 26 27  1  1  0  0  0
 26 24  1  0  0  0  0
 29 32  1  0  0  0  0
 31 30  1  1  0  0  0
 31 32  1  0  0  0  0
 31 33  1  0  0  0  0
 32 34  1  0  0  0  0
 33 35  1  0  0  0  0
 34 28  1  0  0  0  0
 34 35  1  0  0  0  0
 35 27  1  6  0  0  0
 37 36  1  0  0  0  0
 38 37  1  0  0  0  0
 39 40  1  6  0  0  0
 39 38  1  0  0  0  0
 39 42  1  0  0  0  0
 41 40  3  0  0  0  0
 42 43  2  0  0  0  0
 44 48  1  0  0  0  0
 45 47  1  0  0  0  0
 46 45  1  0  0  0  0
 46 42  1  1  0  0  0
 46 44  1  0  0  0  0
 47 48  1  0  0  0  0
M  END
>  <MODEL>
8

>  <REMARK>
 VINA RESULT:      -6.3      2.805      7.523
  Name = 
  10 active torsions:
  status: ('A' for Active; 'I' for Inactive)
    1  A    between atoms: C_3  and  C_42
    2  A    between atoms: C_5  and  C_9
    3  A    between atoms: C_5  and  C_42
    4  A    between atoms: N_6  and  C_44
    5  A    between atoms: N_6  and  C_45
    6  A    between atoms: C_21  and  C_48
    7  A    between atoms: C_22  and  C_25
    8  A    between atoms: C_31  and  O_38
    9  A    between atoms: C_31  and  C_48
   10  A    between atoms: O_38  and  C_42
                            x       y       z     vdW  Elec       q    Type
                         _______ _______ _______ _____ _____    ______ ____

>  <TORSDO>
F 10

$$$$
=
 OpenBabel11042416433D

 48 54  0  0  1  0  0  0  0  0999 V2000
  188.3500  177.4060  141.9240 C   0  0  0  0  0  0  0  0  0  0  0  0
  188.2890  178.6430  141.7130 O   0  0  0  0  0  0  0  0  0  0  0  0
  189.7140  175.3630  142.3570 C   0  0  0  0  0  0  0  0  0  0  0  0
  189.4830  176.8190  142.7200 C   0  0  2  0  0  3  0  0  0  0  0  0
  187.4590  175.2290  141.4770 N   0  0  0  0  0  0  0  0  0  0  0  0
  190.0660  177.2800  146.4630 C   0  0  0  0  0  3  0  0  0  0  0  0
  192.2090  175.5290  142.8350 C   0  0  0  0  0  2  0  0  0  0  0  0
  192.6950  176.7890  144.9530 C   0  0  0  0  0  2  0  0  0  0  0  0
  188.6970  174.6150  141.8830 C   0  0  0  0  0  0  0  0  0  0  0  0
  187.2830  176.5170  141.4590 C   0  0  0  0  0  3  0  0  0  0  0  0
  190.9980  174.7610  142.5650 N   0  0  0  0  0  2  0  0  0  0  0  0
  194.1720  174.8510  144.2050 C   0  0  2  0  0  3  0  0  0  0  0  0
  193.6960  172.7300  145.1360 C   0  0  0  0  0  2  0  0  0  0  0  0
  187.7500  176.6780  146.1260 C   0  0  0  0  0  3  0  0  0  0  0  0
  192.7200  175.4040  144.2880 C   0  0  2  0  0  0  0  0  0  0  0  0
  188.8010  176.9940  146.9850 C   0  0  0  0  0  3  0  0  0  0  0  0
  194.4750  173.9510  145.3130 N   0  0  0  0  0  2  0  0  0  0  0  0
  189.2270  176.9470  144.2060 C   0  0  0  0  0  0  0  0  0  0  0  0
  191.8430  174.4660  145.1570 C   0  0  0  0  0  2  0  0  0  0  0  0
  191.5480  177.5380  144.5610 O   0  0  0  0  0  0  0  0  0  0  0  0
  190.2820  177.2620  145.0790 C   0  0  0  0  0  0  0  0  0  0  0  0
  192.2010  172.9930  144.9640 C   0  0  0  0  0  2  0  0  0  0  0  0
  187.9650  176.6440  144.7460 C   0  0  0  0  0  3  0  0  0  0  0  0
  195.2720  175.9010  144.0580 C   0  0  1  0  0  3  0  0  0  0  0  0
  196.5290  175.2980  144.2880 O   0  0  0  0  0  0  0  0  0  0  0  0
  196.2530  175.6590  142.9540 C   0  0  1  0  0  3  0  0  0  0  0  0
  195.9670  174.4630  142.1770 N   0  0  0  0  0  2  0  0  0  0  0  0
  194.1380  173.6270  139.9230 C   0  0  0  0  0  1  0  0  0  0  0  0
  196.1450  172.7580  137.9040 C   0  0  0  0  0  1  0  0  0  0  0  0
  197.5020  175.6410  137.5910 C   0  0  0  0  0  1  0  0  0  0  0  0
  197.3400  174.6090  138.6970 C   0  0  2  0  0  3  0  0  0  0  0  0
  196.0020  174.0190  138.6250 N   0  0  0  0  0  0  0  0  0  0  0  0
  197.5890  175.4100  140.2950 S   0  0  0  0  0  0  0  0  0  0  0  0
  195.5970  173.7070  139.9370 N   0  0  0  0  0  0  0  0  0  0  0  0
  195.9460  174.8510  140.7720 C   0  0  1  0  0  3  0  0  0  0  0  0
  188.8580  173.1410  141.6960 C   0  0  0  0  0  2  0  0  0  0  0  0
  188.4530  172.7290  140.3070 C   0  0  0  0  0  2  0  0  0  0  0  0
  189.4760  173.0390  139.4060 O   0  0  0  0  0  0  0  0  0  0  0  0
  188.8650  173.0430  138.1480 C   0  0  1  0  0  3  0  0  0  0  0  0
  188.0820  174.2740  137.9920 C   0  0  0  0  0  0  0  0  0  0  0  0
  187.4410  175.2830  137.8620 C   0  0  0  0  0  3  0  0  0  0  0  0
  189.8690  172.9140  137.0210 C   0  0  0  0  0  0  0  0  0  0  0  0
  190.0670  171.8070  136.5430 O   0  0  0  0  0  0  0  0  0  0  0  0
  191.9610  174.2720  137.1750 C   0  0  0  0  0  2  0  0  0  0  0  0
  191.0980  173.8280  135.0590 C   0  0  0  0  0  2  0  0  0  0  0  0
  190.6620  174.0670  136.4680 C   0  0  1  0  0  3  0  0  0  0  0  0
  192.4000  174.3360  134.9400 O   0  0  0  0  0  0  0  0  0  0  0  0
  192.9900  174.1540  136.1540 N   0  0  0  0  0  2  0  0  0  0  0  0
  2  1  2  0  0  0  0
  3 11  1  0  0  0  0
  3  4  1  0  0  0  0
  4  1  1  6  0  0  0
  4 18  1  0  0  0  0
  5  9  1  0  0  0  0
  6 16  1  0  0  0  0
  9  3  2  0  0  0  0
 10  5  2  0  0  0  0
 10  1  1  0  0  0  0
 11  7  1  0  0  0  0
 12 15  1  0  0  0  0
 12 17  1  1  0  0  0
 13 17  1  0  0  0  0
 14 16  2  0  0  0  0
 15  7  1  6  0  0  0
 15  8  1  0  0  0  0
 15 19  1  0  0  0  0
 18 23  2  0  0  0  0
 18 21  1  0  0  0  0
 20  8  1  0  0  0  0
 20 21  1  0  0  0  0
 21  6  2  0  0  0  0
 22 13  1  0  0  0  0
 22 19  1  0  0  0  0
 23 14  1  0  0  0  0
 24 12  1  0  0  0  0
 24 25  1  1  0  0  0
 26 27  1  6  0  0  0
 26 24  1  0  0  0  0
 26 25  1  0  0  0  0
 28 34  1  0  0  0  0
 29 32  1  0  0  0  0
 31 30  1  6  0  0  0
 31 33  1  0  0  0  0
 32 31  1  0  0  0  0
 32 34  1  0  0  0  0
 33 35  1  0  0  0  0
 34 35  1  0  0  0  0
 35 27  1  1  0  0  0
 36  9  1  0  0  0  0
 37 36  1  0  0  0  0
 38 37  1  0  0  0  0
 39 40  1  6  0  0  0
 39 38  1  0  0  0  0
 41 40  3  0  0  0  0
 42 39  1  0  0  0  0
 43 42  2  0  0  0  0
 45 46  1  0  0  0  0
 46 42  1  1  0  0  0
 46 44  1  0  0  0  0
 47 45  1  0  0  0  0
 47 48  1  0  0  0  0
 48 44  1  0  0  0  0
M  END
>  <MODEL>
9

>  <REMARK>
 VINA RESULT:      -6.3      1.341      2.024
  Name = 
  10 active torsions:
  status: ('A' for Active; 'I' for Inactive)
    1  A    between atoms: C_3  and  C_42
    2  A    between atoms: C_5  and  C_9
    3  A    between atoms: C_5  and  C_42
    4  A    between atoms: N_6  and  C_44
    5  A    between atoms: N_6  and  C_45
    6  A    between atoms: C_21  and  C_48
    7  A    between atoms: C_22  and  C_25
    8  A    between atoms: C_31  and  O_38
    9  A    between atoms: C_31  and  C_48
   10  A    between atoms: O_38  and  C_42
                            x       y       z     vdW  Elec       q    Type
                         _______ _______ _______ _____ _____    ______ ____

>  <TORSDO>
F 10

$$$$
