=
 OpenBabel11042416443D

 48 53  0  0  1  0  0  0  0  0999 V2000
  188.5730  176.1880  143.6290 N   0  0  2  0  0  0  0  0  0  0  0  0
  188.6090  175.3010  142.4480 C   0  0  2  0  0  3  0  0  0  0  0  0
  190.8510  170.8250  140.2700 O   0  0  0  0  0  0  0  0  0  0  0  0
  189.9510  174.8200  142.1590 N   0  0  0  0  0  2  0  0  0  0  0  0
  191.5180  173.1940  144.1180 C   0  0  0  0  0  3  0  0  0  0  0  0
  189.9630  171.8870  140.0570 C   0  0  0  0  0  0  0  0  0  0  0  0
  189.3370  177.4420  143.6460 C   0  0  2  0  0  3  0  0  0  0  0  0
  190.7890  177.2810  143.2150 C   0  0  0  0  0  1  0  0  0  0  0  0
  191.7020  170.6590  141.3960 C   0  0  0  0  0  3  0  0  0  0  0  0
  189.1460  176.6420  145.9190 C   0  0  0  0  0  2  0  0  0  0  0  0
  189.9280  172.8000  140.9570 C   0  0  0  0  0  0  0  0  0  0  0  0
  189.4650  174.2680  145.0600 C   0  0  0  0  0  2  0  0  0  0  0  0
  191.8480  171.4440  142.4960 C   0  0  0  0  0  3  0  0  0  0  0  0
  188.6470  175.5720  144.9620 C   0  0  2  0  0  3  0  0  0  0  0  0
  190.2090  173.4260  142.0400 C   0  0  0  0  0  0  0  0  0  0  0  0
  190.9600  174.4330  144.7700 C   0  0  1  0  0  3  0  0  0  0  0  0
  191.1940  172.7310  142.9030 C   0  0  0  0  0  0  0  0  0  0  0  0
  189.3180  177.9020  145.0880 C   0  0  0  0  0  2  0  0  0  0  0  0
  189.1090  171.9590  138.8730 C   0  0  0  0  0  3  0  0  0  0  0  0
  188.6730  173.0970  138.4450 N   0  0  0  0  0  2  0  0  0  0  0  0
  187.9800  175.9540  141.2220 C   0  0  0  0  0  2  0  0  0  0  0  0
  186.7530  176.5420  141.5510 O   0  0  0  0  0  0  0  0  0  0  0  0
  186.7580  177.7430  140.9210 N   0  0  0  0  0  0  0  0  0  0  0  0
  186.1230  177.5200  139.6280 C   0  0  0  0  0  1  0  0  0  0  0  0
  186.3370  178.6970  143.0810 N   0  0  0  0  0  0  0  0  0  0  0  0
  185.3930  178.2840  143.8500 C   0  0  0  0  0  0  0  0  0  0  0  0
  184.2140  177.8890  143.1760 N   0  0  0  0  0  0  0  0  0  0  0  0
  184.4640  178.0960  141.7600 C   0  0  0  0  0  3  0  0  0  0  0  0
  185.8980  178.6450  141.6900 C   0  0  2  0  0  3  0  0  0  0  0  0
  185.5200  177.1190  145.9740 N   0  0  0  0  0  0  0  0  0  0  0  0
  185.7190  179.3310  146.1150 O   0  0  0  0  0  0  0  0  0  0  0  0
  185.5420  178.2200  145.3060 C   0  0  0  0  0  0  0  0  0  0  0  0
  185.6870  177.4260  147.3270 N   0  0  0  0  0  0  0  0  0  0  0  0
  185.8190  178.8730  147.4560 C   0  0  0  0  0  3  0  0  0  0  0  0
  191.7400  174.7850  146.0440 C   0  0  1  0  0  3  0  0  0  0  0  0
  193.5180  176.3740  145.1460 C   0  0  0  0  0  0  0  0  0  0  0  0
  192.3560  176.1060  145.9370 N   0  0  0  0  0  2  0  0  0  0  0  0
  193.6970  177.5430  144.7100 O   0  0  0  0  0  0  0  0  0  0  0  0
  196.3280  173.7140  145.5880 C   0  0  0  0  0  0  0  0  0  0  0  0
  196.4120  173.2460  144.2420 N   0  0  0  0  0  2  0  0  0  0  0  0
  195.4910  174.9150  145.9290 C   0  0  0  0  0  2  0  0  0  0  0  0
  197.0840  173.1900  146.4930 N   0  0  0  0  0  2  0  0  0  0  0  0
  195.6600  173.4130  142.0470 O   0  0  0  0  0  0  0  0  0  0  0  0
  195.5740  173.8100  143.2380 C   0  0  0  0  0  0  0  0  0  0  0  0
  194.5970  174.8430  143.6000 C   0  0  0  0  0  3  0  0  0  0  0  0
  194.5120  175.3220  144.8480 C   0  0  0  0  0  0  0  0  0  0  0  0
  191.5520  175.4890  148.1320 C   0  0  0  0  0  1  0  0  0  0  0  0
  190.8860  174.7540  147.1480 O   0  0  0  0  0  0  0  0  0  0  0  0
  1  7  1  0  0  0  0
  1 14  1  0  0  0  0
  2  1  1  0  0  0  0
  3  9  1  0  0  0  0
  4  2  1  0  0  0  0
  5 16  1  0  0  0  0
  6  3  1  0  0  0  0
  6 11  2  0  0  0  0
  7 18  1  0  0  0  0
  8  7  1  0  0  0  0
  9 13  2  0  0  0  0
 11 15  2  0  0  0  0
 13 17  1  0  0  0  0
 14 12  1  0  0  0  0
 14 10  1  0  0  0  0
 15  4  1  0  0  0  0
 15 17  1  0  0  0  0
 16 12  1  0  0  0  0
 16 35  1  0  0  0  0
 17  5  2  0  0  0  0
 18 10  1  0  0  0  0
 19  6  1  0  0  0  0
 20 19  2  0  0  0  0
 21 22  1  0  0  0  0
 21  2  1  0  0  0  0
 23 22  1  0  0  0  0
 23 29  1  0  0  0  0
 24 23  1  0  0  0  0
 25 26  2  0  0  0  0
 26 32  1  0  0  0  0
 27 26  1  0  0  0  0
 28 27  2  0  0  0  0
 29 28  1  0  0  0  0
 29 25  1  0  0  0  0
 30 33  1  0  0  0  0
 31 34  1  0  0  0  0
 32 30  2  0  0  0  0
 32 31  1  0  0  0  0
 33 34  2  0  0  0  0
 35 48  1  0  0  0  0
 36 37  1  0  0  0  0
 37 35  1  0  0  0  0
 38 36  2  0  0  0  0
 39 41  1  0  0  0  0
 39 42  2  0  0  0  0
 40 39  1  0  0  0  0
 43 44  2  0  0  0  0
 44 45  1  0  0  0  0
 44 40  1  0  0  0  0
 45 46  2  0  0  0  0
 46 36  1  0  0  0  0
 46 41  1  0  0  0  0
 48 47  1  0  0  0  0
M  END
>  <MODEL>
1

>  <REMARK>
 VINA RESULT:      -8.2      0.000      0.000
  Name = 
  10 active torsions:
  status: ('A' for Active; 'I' for Inactive)
    1  A    between atoms: C_2  and  C_6
    2  A    between atoms: C_6  and  O_10
    3  A    between atoms: C_7  and  C_15
    4  A    between atoms: O_10  and  N_19
    5  A    between atoms: C_14  and  C_40
    6  A    between atoms: C_18  and  N_29
    7  A    between atoms: C_18  and  O_33
    8  A    between atoms: C_18  and  C_43
    9  A    between atoms: N_19  and  C_45
   10  A    between atoms: C_21  and  C_30
                            x       y       z     vdW  Elec       q    Type
                         _______ _______ _______ _____ _____    ______ ____

>  <TORSDO>
F 10

$$$$
=
 OpenBabel11042416443D

 48 53  0  0  1  0  0  0  0  0999 V2000
  188.9630  176.2110  143.6270 N   0  0  2  0  0  0  0  0  0  0  0  0
  188.7770  175.3900  142.4130 C   0  0  2  0  0  3  0  0  0  0  0  0
  190.3830  170.9080  139.7410 O   0  0  0  0  0  0  0  0  0  0  0  0
  190.0300  174.8420  141.9180 N   0  0  0  0  0  2  0  0  0  0  0  0
  191.7320  173.0150  143.5630 C   0  0  0  0  0  3  0  0  0  0  0  0
  189.5510  172.0340  139.7030 C   0  0  0  0  0  0  0  0  0  0  0  0
  189.8080  177.4120  143.5950 C   0  0  2  0  0  3  0  0  0  0  0  0
  191.1740  177.1840  142.9590 C   0  0  0  0  0  1  0  0  0  0  0  0
  191.3660  170.6270  140.7290 C   0  0  0  0  0  3  0  0  0  0  0  0
  189.8740  176.5010  145.8330 C   0  0  0  0  0  2  0  0  0  0  0  0
  189.7030  172.8960  140.6400 C   0  0  0  0  0  0  0  0  0  0  0  0
  189.9060  174.1630  144.8310 C   0  0  0  0  0  2  0  0  0  0  0  0
  191.7150  171.3400  141.8330 C   0  0  0  0  0  3  0  0  0  0  0  0
  189.1760  175.5190  144.9070 C   0  0  2  0  0  3  0  0  0  0  0  0
  190.1710  173.4430  141.7010 C   0  0  0  0  0  0  0  0  0  0  0  0
  191.3550  174.2490  144.3430 C   0  0  1  0  0  3  0  0  0  0  0  0
  191.2130  172.6410  142.3850 C   0  0  0  0  0  0  0  0  0  0  0  0
  190.0180  177.7910  145.0460 C   0  0  0  0  0  2  0  0  0  0  0  0
  188.5510  172.2250  138.6540 C   0  0  0  0  0  3  0  0  0  0  0  0
  188.3290  173.3980  138.1620 N   0  0  0  0  0  2  0  0  0  0  0  0
  188.0340  176.1480  141.3190 C   0  0  0  0  0  2  0  0  0  0  0  0
  186.8360  176.6770  141.8110 O   0  0  0  0  0  0  0  0  0  0  0  0
  186.7280  177.9000  141.2320 N   0  0  0  0  0  0  0  0  0  0  0  0
  185.8930  177.7110  140.0520 C   0  0  0  0  0  1  0  0  0  0  0  0
  186.5340  178.6200  143.5120 N   0  0  0  0  0  0  0  0  0  0  0  0
  185.6180  178.1850  144.3020 C   0  0  0  0  0  0  0  0  0  0  0  0
  184.3670  177.9540  143.6830 N   0  0  0  0  0  0  0  0  0  0  0  0
  184.5320  178.3080  142.2840 C   0  0  0  0  0  3  0  0  0  0  0  0
  185.9960  178.7620  142.1630 C   0  0  2  0  0  3  0  0  0  0  0  0
  186.0460  176.7670  146.2230 N   0  0  0  0  0  0  0  0  0  0  0  0
  185.9230  178.9410  146.6830 O   0  0  0  0  0  0  0  0  0  0  0  0
  185.8640  177.9400  145.7260 C   0  0  0  0  0  0  0  0  0  0  0  0
  186.2480  176.9020  147.5990 N   0  0  0  0  0  0  0  0  0  0  0  0
  186.1710  178.3190  147.9360 C   0  0  0  0  0  3  0  0  0  0  0  0
  192.3240  174.4810  145.5100 C   0  0  1  0  0  3  0  0  0  0  0  0
  194.6640  173.5540  145.1130 C   0  0  0  0  0  0  0  0  0  0  0  0
  193.3210  173.4160  145.5880 N   0  0  0  0  0  2  0  0  0  0  0  0
  195.5650  172.8390  145.6270 O   0  0  0  0  0  0  0  0  0  0  0  0
  194.7640  175.3140  141.6390 C   0  0  0  0  0  0  0  0  0  0  0  0
  195.6700  176.3720  141.9460 N   0  0  0  0  0  2  0  0  0  0  0  0
  194.5230  174.2040  142.6230 C   0  0  0  0  0  2  0  0  0  0  0  0
  194.2550  175.2340  140.4560 N   0  0  0  0  0  2  0  0  0  0  0  0
  197.0420  177.3980  143.5210 O   0  0  0  0  0  0  0  0  0  0  0  0
  196.2280  176.4760  143.2530 C   0  0  0  0  0  0  0  0  0  0  0  0
  195.8360  175.5170  144.2910 C   0  0  0  0  0  3  0  0  0  0  0  0
  195.0080  174.4970  144.0270 C   0  0  0  0  0  0  0  0  0  0  0  0
  193.0670  176.2200  146.6570 C   0  0  0  0  0  1  0  0  0  0  0  0
  192.9640  175.7120  145.3590 O   0  0  0  0  0  0  0  0  0  0  0  0
  1 14  1  0  0  0  0
  2  1  1  0  0  0  0
  3  9  1  0  0  0  0
  4  2  1  0  0  0  0
  5 16  1  0  0  0  0
  6  3  1  0  0  0  0
  6 11  2  0  0  0  0
  7  1  1  0  0  0  0
  7 18  1  0  0  0  0
  8  7  1  0  0  0  0
  9 13  2  0  0  0  0
 11 15  2  0  0  0  0
 12 14  1  0  0  0  0
 13 17  1  0  0  0  0
 14 10  1  0  0  0  0
 15  4  1  0  0  0  0
 15 17  1  0  0  0  0
 16 12  1  0  0  0  0
 16 35  1  0  0  0  0
 17  5  2  0  0  0  0
 18 10  1  0  0  0  0
 19  6  1  0  0  0  0
 20 19  2  0  0  0  0
 21 22  1  0  0  0  0
 21  2  1  0  0  0  0
 23 22  1  0  0  0  0
 23 29  1  0  0  0  0
 24 23  1  0  0  0  0
 25 26  2  0  0  0  0
 26 32  1  0  0  0  0
 27 26  1  0  0  0  0
 28 27  2  0  0  0  0
 29 28  1  0  0  0  0
 29 25  1  0  0  0  0
 30 33  1  0  0  0  0
 31 34  1  0  0  0  0
 32 30  2  0  0  0  0
 32 31  1  0  0  0  0
 33 34  2  0  0  0  0
 35 37  1  0  0  0  0
 36 37  1  0  0  0  0
 36 38  2  0  0  0  0
 39 40  1  0  0  0  0
 39 41  1  0  0  0  0
 40 44  1  0  0  0  0
 41 46  1  0  0  0  0
 42 39  2  0  0  0  0
 44 43  2  0  0  0  0
 44 45  1  0  0  0  0
 46 45  2  0  0  0  0
 46 36  1  0  0  0  0
 48 35  1  0  0  0  0
 48 47  1  0  0  0  0
M  END
>  <MODEL>
2

>  <REMARK>
 VINA RESULT:      -8.1      1.486      2.029
  Name = 
  10 active torsions:
  status: ('A' for Active; 'I' for Inactive)
    1  A    between atoms: C_2  and  C_6
    2  A    between atoms: C_6  and  O_10
    3  A    between atoms: C_7  and  C_15
    4  A    between atoms: O_10  and  N_19
    5  A    between atoms: C_14  and  C_40
    6  A    between atoms: C_18  and  N_29
    7  A    between atoms: C_18  and  O_33
    8  A    between atoms: C_18  and  C_43
    9  A    between atoms: N_19  and  C_45
   10  A    between atoms: C_21  and  C_30
                            x       y       z     vdW  Elec       q    Type
                         _______ _______ _______ _____ _____    ______ ____

>  <TORSDO>
F 10

$$$$
=
 OpenBabel11042416443D

 48 53  0  0  1  0  0  0  0  0999 V2000
  192.0790  171.7220  143.5540 N   0  0  2  0  0  0  0  0  0  0  0  0
  193.4610  171.8620  143.0520 C   0  0  2  0  0  3  0  0  0  0  0  0
  197.1330  175.2990  140.9280 O   0  0  0  0  0  0  0  0  0  0  0  0
  193.5440  172.7470  141.9010 N   0  0  0  0  0  2  0  0  0  0  0  0
  192.7120  175.6160  142.0340 C   0  0  0  0  0  3  0  0  0  0  0  0
  196.8870  173.9770  141.3190 C   0  0  0  0  0  0  0  0  0  0  0  0
  191.0230  171.1730  142.6940 C   0  0  2  0  0  3  0  0  0  0  0  0
  190.9650  171.8110  141.3110 C   0  0  0  0  0  1  0  0  0  0  0  0
  196.1790  176.3530  140.8920 C   0  0  0  0  0  3  0  0  0  0  0  0
  190.0030  172.7070  144.2600 C   0  0  0  0  0  2  0  0  0  0  0  0
  195.6830  173.6910  141.6610 C   0  0  0  0  0  0  0  0  0  0  0  0
  192.0190  174.2370  144.0020 C   0  0  0  0  0  2  0  0  0  0  0  0
  194.8610  176.3410  141.2220 C   0  0  0  0  0  3  0  0  0  0  0  0
  191.5160  172.8210  144.3510 C   0  0  2  0  0  3  0  0  0  0  0  0
  194.4360  173.8560  141.9040 C   0  0  0  0  0  0  0  0  0  0  0  0
  191.6410  174.7170  142.5980 C   0  0  1  0  0  3  0  0  0  0  0  0
  193.9620  175.2480  141.7200 C   0  0  0  0  0  0  0  0  0  0  0  0
  189.7250  171.4780  143.4120 C   0  0  0  0  0  2  0  0  0  0  0  0
  197.9410  172.9660  141.3450 C   0  0  0  0  0  3  0  0  0  0  0  0
  197.6500  171.7100  141.2610 N   0  0  0  0  0  2  0  0  0  0  0  0
  194.1020  170.5100  142.7560 C   0  0  0  0  0  2  0  0  0  0  0  0
  195.3050  170.3700  143.4580 O   0  0  0  0  0  0  0  0  0  0  0  0
  194.9370  170.1260  144.7410 N   0  0  0  0  0  0  0  0  0  0  0  0
  195.2930  168.7370  145.0010 C   0  0  0  0  0  1  0  0  0  0  0  0
  195.1280  172.2620  145.8170 N   0  0  0  0  0  0  0  0  0  0  0  0
  195.8820  173.2010  145.3670 C   0  0  0  0  0  0  0  0  0  0  0  0
  197.0950  172.7570  144.7910 N   0  0  0  0  0  0  0  0  0  0  0  0
  197.0970  171.3090  144.9080 C   0  0  0  0  0  3  0  0  0  0  0  0
  195.7690  170.9680  145.6030 C   0  0  2  0  0  3  0  0  0  0  0  0
  194.7140  175.0910  146.3410 N   0  0  0  0  0  0  0  0  0  0  0  0
  195.9380  175.5790  144.5470 O   0  0  0  0  0  0  0  0  0  0  0  0
  195.4990  174.6130  145.4390 C   0  0  0  0  0  0  0  0  0  0  0  0
  194.5660  176.4610  146.1090 N   0  0  0  0  0  0  0  0  0  0  0  0
  195.3560  176.8150  144.9350 C   0  0  0  0  0  3  0  0  0  0  0  0
  190.2760  175.4180  142.5970 C   0  0  1  0  0  3  0  0  0  0  0  0
  190.1200  177.6150  143.8770 C   0  0  0  0  0  0  0  0  0  0  0  0
  190.4270  176.8680  142.6960 N   0  0  0  0  0  2  0  0  0  0  0  0
  190.7060  178.7140  144.0670 O   0  0  0  0  0  0  0  0  0  0  0  0
  186.7700  177.1270  145.8040 C   0  0  0  0  0  0  0  0  0  0  0  0
  187.1970  176.1600  146.7620 N   0  0  0  0  0  2  0  0  0  0  0  0
  187.7660  177.8080  144.9080 C   0  0  0  0  0  2  0  0  0  0  0  0
  185.5410  177.5210  145.8020 N   0  0  0  0  0  2  0  0  0  0  0  0
  188.9330  174.8700  147.6210 O   0  0  0  0  0  0  0  0  0  0  0  0
  188.5490  175.7090  146.7650 C   0  0  0  0  0  0  0  0  0  0  0  0
  189.4870  176.2110  145.7550 C   0  0  0  0  0  3  0  0  0  0  0  0
  189.1230  177.1380  144.8590 C   0  0  0  0  0  0  0  0  0  0  0  0
  188.2620  174.8890  141.8520 C   0  0  0  0  0  1  0  0  0  0  0  0
  189.5790  175.0970  141.4310 O   0  0  0  0  0  0  0  0  0  0  0  0
  1 14  1  0  0  0  0
  2  1  1  0  0  0  0
  3  6  1  0  0  0  0
  4 15  1  0  0  0  0
  4  2  1  0  0  0  0
  5 16  1  0  0  0  0
  6 19  1  0  0  0  0
  6 11  2  0  0  0  0
  7 18  1  0  0  0  0
  7  1  1  0  0  0  0
  8  7  1  0  0  0  0
  9  3  1  0  0  0  0
  9 13  2  0  0  0  0
 10 14  1  0  0  0  0
 11 15  2  0  0  0  0
 12 14  1  0  0  0  0
 13 17  1  0  0  0  0
 16 12  1  0  0  0  0
 17 15  1  0  0  0  0
 17  5  2  0  0  0  0
 18 10  1  0  0  0  0
 20 19  2  0  0  0  0
 21  2  1  0  0  0  0
 21 22  1  0  0  0  0
 22 23  1  0  0  0  0
 23 24  1  0  0  0  0
 23 29  1  0  0  0  0
 26 32  1  0  0  0  0
 26 25  2  0  0  0  0
 27 28  2  0  0  0  0
 27 26  1  0  0  0  0
 28 29  1  0  0  0  0
 29 25  1  0  0  0  0
 31 34  1  0  0  0  0
 31 32  1  0  0  0  0
 32 30  2  0  0  0  0
 33 30  1  0  0  0  0
 34 33  2  0  0  0  0
 35 16  1  0  0  0  0
 35 37  1  0  0  0  0
 36 38  2  0  0  0  0
 36 46  1  0  0  0  0
 37 36  1  0  0  0  0
 39 40  1  0  0  0  0
 40 44  1  0  0  0  0
 41 39  1  0  0  0  0
 42 39  2  0  0  0  0
 44 43  2  0  0  0  0
 45 44  1  0  0  0  0
 46 41  1  0  0  0  0
 46 45  2  0  0  0  0
 48 47  1  0  0  0  0
 48 35  1  0  0  0  0
M  END
>  <MODEL>
3

>  <REMARK>
 VINA RESULT:      -7.9      2.515      8.352
  Name = 
  10 active torsions:
  status: ('A' for Active; 'I' for Inactive)
    1  A    between atoms: C_2  and  C_6
    2  A    between atoms: C_6  and  O_10
    3  A    between atoms: C_7  and  C_15
    4  A    between atoms: O_10  and  N_19
    5  A    between atoms: C_14  and  C_40
    6  A    between atoms: C_18  and  N_29
    7  A    between atoms: C_18  and  O_33
    8  A    between atoms: C_18  and  C_43
    9  A    between atoms: N_19  and  C_45
   10  A    between atoms: C_21  and  C_30
                            x       y       z     vdW  Elec       q    Type
                         _______ _______ _______ _____ _____    ______ ____

>  <TORSDO>
F 10

$$$$
=
 OpenBabel11042416443D

 48 53  0  0  1  0  0  0  0  0999 V2000
  191.3310  174.2700  141.8780 N   0  0  2  0  0  0  0  0  0  0  0  0
  190.3870  174.8620  142.8480 C   0  0  2  0  0  3  0  0  0  0  0  0
  189.8930  177.2780  147.7190 O   0  0  0  0  0  0  0  0  0  0  0  0
  190.7470  174.5580  144.2240 N   0  0  0  0  0  2  0  0  0  0  0  0
  193.3590  175.3970  145.4130 C   0  0  0  0  0  3  0  0  0  0  0  0
  189.2040  176.7940  146.6000 C   0  0  0  0  0  0  0  0  0  0  0  0
  191.5200  172.8150  141.8100 C   0  0  2  0  0  3  0  0  0  0  0  0
  191.7600  172.1640  143.1660 C   0  0  0  0  0  1  0  0  0  0  0  0
  191.2830  177.1290  147.9740 C   0  0  0  0  0  3  0  0  0  0  0  0
  193.5790  173.8780  141.1230 C   0  0  0  0  0  2  0  0  0  0  0  0
  189.8930  176.1440  145.7340 C   0  0  0  0  0  0  0  0  0  0  0  0
  193.2190  175.6360  142.9270 C   0  0  0  0  0  2  0  0  0  0  0  0
  192.2430  176.5220  147.2270 C   0  0  0  0  0  3  0  0  0  0  0  0
  192.6340  174.9240  141.6900 C   0  0  2  0  0  3  0  0  0  0  0  0
  190.9120  175.6030  145.1760 C   0  0  0  0  0  0  0  0  0  0  0  0
  193.5660  174.7030  144.0910 C   0  0  1  0  0  3  0  0  0  0  0  0
  192.1830  175.8050  145.9100 C   0  0  0  0  0  0  0  0  0  0  0  0
  192.7560  172.6120  140.9600 C   0  0  0  0  0  2  0  0  0  0  0  0
  187.7710  177.0160  146.4140 C   0  0  0  0  0  3  0  0  0  0  0  0
  186.9170  176.5420  147.2580 N   0  0  0  0  0  2  0  0  0  0  0  0
  188.9430  174.4690  142.5540 C   0  0  0  0  0  2  0  0  0  0  0  0
  188.1300  175.6050  142.4740 O   0  0  0  0  0  0  0  0  0  0  0  0
  188.4540  176.1860  141.2910 N   0  0  0  0  0  0  0  0  0  0  0  0
  187.8140  175.3780  140.2600 C   0  0  0  0  0  1  0  0  0  0  0  0
  187.4820  177.9280  142.6230 N   0  0  0  0  0  0  0  0  0  0  0  0
  186.2120  178.1110  142.7080 C   0  0  0  0  0  0  0  0  0  0  0  0
  185.5000  177.8620  141.5120 N   0  0  0  0  0  0  0  0  0  0  0  0
  186.4880  177.4660  140.5230 C   0  0  0  0  0  3  0  0  0  0  0  0
  187.8310  177.5120  141.2690 C   0  0  2  0  0  3  0  0  0  0  0  0
  186.0370  179.4470  144.7260 N   0  0  0  0  0  0  0  0  0  0  0  0
  184.3800  177.9910  144.4290 O   0  0  0  0  0  0  0  0  0  0  0  0
  185.5640  178.5320  143.9530 C   0  0  0  0  0  0  0  0  0  0  0  0
  185.1720  179.5890  145.8140 N   0  0  0  0  0  0  0  0  0  0  0  0
  184.0720  178.6440  145.6520 C   0  0  0  0  0  3  0  0  0  0  0  0
  194.9980  174.1670  143.9680 C   0  0  1  0  0  3  0  0  0  0  0  0
  196.7150  175.8210  143.0700 C   0  0  0  0  0  0  0  0  0  0  0  0
  195.9790  175.2340  144.1480 N   0  0  0  0  0  2  0  0  0  0  0  0
  197.1420  177.0000  143.1990 O   0  0  0  0  0  0  0  0  0  0  0  0
  197.6210  172.9300  140.6220 C   0  0  0  0  0  0  0  0  0  0  0  0
  197.5060  173.6340  139.3860 N   0  0  0  0  0  2  0  0  0  0  0  0
  197.5490  173.6660  141.9300 C   0  0  0  0  0  2  0  0  0  0  0  0
  197.9290  171.6770  140.6150 N   0  0  0  0  0  2  0  0  0  0  0  0
  197.0720  175.6430  138.2940 O   0  0  0  0  0  0  0  0  0  0  0  0
  197.1550  175.0150  139.3820 C   0  0  0  0  0  0  0  0  0  0  0  0
  196.8730  175.6980  140.6490 C   0  0  0  0  0  3  0  0  0  0  0  0
  196.9980  175.0730  141.8270 C   0  0  0  0  0  0  0  0  0  0  0  0
  194.9560  171.9720  144.2380 C   0  0  0  0  0  1  0  0  0  0  0  0
  195.2140  173.1670  144.9180 O   0  0  0  0  0  0  0  0  0  0  0  0
  1  2  1  0  0  0  0
  2  4  1  0  0  0  0
  3  9  1  0  0  0  0
  4 15  1  0  0  0  0
  5 17  2  0  0  0  0
  6  3  1  0  0  0  0
  7  1  1  0  0  0  0
  7  8  1  0  0  0  0
 10 14  1  0  0  0  0
 11  6  2  0  0  0  0
 12 16  1  0  0  0  0
 13  9  2  0  0  0  0
 14  1  1  0  0  0  0
 14 12  1  0  0  0  0
 15 11  2  0  0  0  0
 15 17  1  0  0  0  0
 16  5  1  0  0  0  0
 17 13  1  0  0  0  0
 18 10  1  0  0  0  0
 18  7  1  0  0  0  0
 19  6  1  0  0  0  0
 19 20  2  0  0  0  0
 21  2  1  0  0  0  0
 22 21  1  0  0  0  0
 23 22  1  0  0  0  0
 24 23  1  0  0  0  0
 25 26  2  0  0  0  0
 26 32  1  0  0  0  0
 27 26  1  0  0  0  0
 28 29  1  0  0  0  0
 28 27  2  0  0  0  0
 29 23  1  0  0  0  0
 29 25  1  0  0  0  0
 30 33  1  0  0  0  0
 31 34  1  0  0  0  0
 32 31  1  0  0  0  0
 32 30  2  0  0  0  0
 34 33  2  0  0  0  0
 35 16  1  0  0  0  0
 35 37  1  0  0  0  0
 35 48  1  0  0  0  0
 36 38  2  0  0  0  0
 36 37  1  0  0  0  0
 39 41  1  0  0  0  0
 40 39  1  0  0  0  0
 42 39  2  0  0  0  0
 43 44  2  0  0  0  0
 44 40  1  0  0  0  0
 44 45  1  0  0  0  0
 45 46  2  0  0  0  0
 46 41  1  0  0  0  0
 46 36  1  0  0  0  0
 47 48  1  0  0  0  0
M  END
>  <MODEL>
4

>  <REMARK>
 VINA RESULT:      -7.8      2.295      4.947
  Name = 
  10 active torsions:
  status: ('A' for Active; 'I' for Inactive)
    1  A    between atoms: C_2  and  C_6
    2  A    between atoms: C_6  and  O_10
    3  A    between atoms: C_7  and  C_15
    4  A    between atoms: O_10  and  N_19
    5  A    between atoms: C_14  and  C_40
    6  A    between atoms: C_18  and  N_29
    7  A    between atoms: C_18  and  O_33
    8  A    between atoms: C_18  and  C_43
    9  A    between atoms: N_19  and  C_45
   10  A    between atoms: C_21  and  C_30
                            x       y       z     vdW  Elec       q    Type
                         _______ _______ _______ _____ _____    ______ ____

>  <TORSDO>
F 10

$$$$
=
 OpenBabel11042416443D

 48 53  0  0  1  0  0  0  0  0999 V2000
  189.7700  174.2570  141.9160 N   0  0  2  0  0  0  0  0  0  0  0  0
  189.1730  175.0940  142.9770 C   0  0  2  0  0  3  0  0  0  0  0  0
  189.9470  177.3140  147.9040 O   0  0  0  0  0  0  0  0  0  0  0  0
  189.5140  174.6240  144.3100 N   0  0  0  0  0  2  0  0  0  0  0  0
  192.3420  174.4560  145.2660 C   0  0  0  0  0  3  0  0  0  0  0  0
  189.0440  177.1480  146.8470 C   0  0  0  0  0  0  0  0  0  0  0  0
  189.4340  172.8310  141.8120 C   0  0  2  0  0  3  0  0  0  0  0  0
  189.5420  172.0770  143.1320 C   0  0  0  0  0  1  0  0  0  0  0  0
  191.2150  176.6830  148.0290 C   0  0  0  0  0  3  0  0  0  0  0  0
  191.6720  173.1450  140.9540 C   0  0  0  0  0  2  0  0  0  0  0  0
  189.3920  176.3390  145.9130 C   0  0  0  0  0  0  0  0  0  0  0  0
  192.0940  174.8380  142.8070 C   0  0  0  0  0  2  0  0  0  0  0  0
  191.8390  175.8150  147.1890 C   0  0  0  0  0  3  0  0  0  0  0  0
  191.1990  174.4270  141.6190 C   0  0  2  0  0  3  0  0  0  0  0  0
  190.1090  175.5040  145.2570 C   0  0  0  0  0  0  0  0  0  0  0  0
  192.1870  173.7920  143.9210 C   0  0  1  0  0  3  0  0  0  0  0  0
  191.4270  175.2220  145.8750 C   0  0  0  0  0  0  0  0  0  0  0  0
  190.4500  172.2510  140.8500 C   0  0  0  0  0  2  0  0  0  0  0  0
  187.7690  177.8600  146.7950 C   0  0  0  0  0  3  0  0  0  0  0  0
  186.7460  177.4250  147.4510 N   0  0  0  0  0  2  0  0  0  0  0  0
  187.6640  175.2380  142.8110 C   0  0  0  0  0  2  0  0  0  0  0  0
  187.3280  176.5550  142.4780 O   0  0  0  0  0  0  0  0  0  0  0  0
  185.9920  176.6420  142.6950 N   0  0  0  0  0  0  0  0  0  0  0  0
  185.8240  176.6990  144.1420 C   0  0  0  0  0  1  0  0  0  0  0  0
  184.1140  178.1040  142.3920 N   0  0  0  0  0  0  0  0  0  0  0  0
  183.4860  178.2070  141.2740 C   0  0  0  0  0  0  0  0  0  0  0  0
  184.3090  178.1110  140.1270 N   0  0  0  0  0  0  0  0  0  0  0  0
  185.6660  177.9250  140.6110 C   0  0  0  0  0  3  0  0  0  0  0  0
  185.5400  177.9220  142.1430 C   0  0  2  0  0  3  0  0  0  0  0  0
  181.3450  178.9370  142.1470 N   0  0  0  0  0  0  0  0  0  0  0  0
  181.2560  178.0070  140.1270 O   0  0  0  0  0  0  0  0  0  0  0  0
  182.0350  178.3940  141.2060 C   0  0  0  0  0  0  0  0  0  0  0  0
  180.0040  178.9530  141.7510 N   0  0  0  0  0  0  0  0  0  0  0  0
  179.9100  178.3460  140.4280 C   0  0  0  0  0  3  0  0  0  0  0  0
  193.3280  172.7990  143.6610 C   0  0  1  0  0  3  0  0  0  0  0  0
  195.4960  173.7720  144.5810 C   0  0  0  0  0  0  0  0  0  0  0  0
  194.3630  172.9040  144.6870 N   0  0  0  0  0  2  0  0  0  0  0  0
  196.0500  174.1770  145.6380 O   0  0  0  0  0  0  0  0  0  0  0  0
  197.2690  173.6620  141.1140 C   0  0  0  0  0  0  0  0  0  0  0  0
  197.0410  175.0080  140.6990 N   0  0  0  0  0  2  0  0  0  0  0  0
  196.9320  173.2260  142.5130 C   0  0  0  0  0  2  0  0  0  0  0  0
  197.8970  172.8520  140.3310 N   0  0  0  0  0  2  0  0  0  0  0  0
  196.1520  177.1000  141.1960 O   0  0  0  0  0  0  0  0  0  0  0  0
  196.3380  175.9080  141.5520 C   0  0  0  0  0  0  0  0  0  0  0  0
  195.8160  175.4340  142.8380 C   0  0  0  0  0  3  0  0  0  0  0  0
  196.0360  174.1840  143.2670 C   0  0  0  0  0  0  0  0  0  0  0  0
  193.7380  170.7850  142.8470 C   0  0  0  0  0  1  0  0  0  0  0  0
  192.8270  171.4970  143.6320 O   0  0  0  0  0  0  0  0  0  0  0  0
  1  2  1  0  0  0  0
  2  4  1  0  0  0  0
  3  9  1  0  0  0  0
  4 15  1  0  0  0  0
  5 17  2  0  0  0  0
  6  3  1  0  0  0  0
  7  1  1  0  0  0  0
  7  8  1  0  0  0  0
 10 14  1  0  0  0  0
 11  6  2  0  0  0  0
 12 16  1  0  0  0  0
 13  9  2  0  0  0  0
 14  1  1  0  0  0  0
 14 12  1  0  0  0  0
 15 17  1  0  0  0  0
 15 11  2  0  0  0  0
 16  5  1  0  0  0  0
 17 13  1  0  0  0  0
 18 10  1  0  0  0  0
 18  7  1  0  0  0  0
 19  6  1  0  0  0  0
 19 20  2  0  0  0  0
 21  2  1  0  0  0  0
 22 23  1  0  0  0  0
 22 21  1  0  0  0  0
 23 24  1  0  0  0  0
 26 25  2  0  0  0  0
 27 28  2  0  0  0  0
 27 26  1  0  0  0  0
 28 29  1  0  0  0  0
 29 25  1  0  0  0  0
 29 23  1  0  0  0  0
 31 34  1  0  0  0  0
 31 32  1  0  0  0  0
 32 26  1  0  0  0  0
 32 30  2  0  0  0  0
 33 30  1  0  0  0  0
 34 33  2  0  0  0  0
 35 16  1  0  0  0  0
 35 37  1  0  0  0  0
 36 37  1  0  0  0  0
 36 38  2  0  0  0  0
 39 41  1  0  0  0  0
 40 39  1  0  0  0  0
 40 44  1  0  0  0  0
 41 46  1  0  0  0  0
 42 39  2  0  0  0  0
 43 44  2  0  0  0  0
 44 45  1  0  0  0  0
 45 46  2  0  0  0  0
 46 36  1  0  0  0  0
 47 48  1  0  0  0  0
 48 35  1  0  0  0  0
M  END
>  <MODEL>
5

>  <REMARK>
 VINA RESULT:      -7.8      2.358      5.322
  Name = 
  10 active torsions:
  status: ('A' for Active; 'I' for Inactive)
    1  A    between atoms: C_2  and  C_6
    2  A    between atoms: C_6  and  O_10
    3  A    between atoms: C_7  and  C_15
    4  A    between atoms: O_10  and  N_19
    5  A    between atoms: C_14  and  C_40
    6  A    between atoms: C_18  and  N_29
    7  A    between atoms: C_18  and  O_33
    8  A    between atoms: C_18  and  C_43
    9  A    between atoms: N_19  and  C_45
   10  A    between atoms: C_21  and  C_30
                            x       y       z     vdW  Elec       q    Type
                         _______ _______ _______ _____ _____    ______ ____

>  <TORSDO>
F 10

$$$$
=
 OpenBabel11042416443D

 48 53  0  0  1  0  0  0  0  0999 V2000
  194.1780  175.9050  144.9760 N   0  0  2  0  0  0  0  0  0  0  0  0
  195.0250  175.4970  143.8370 C   0  0  2  0  0  3  0  0  0  0  0  0
  195.0470  173.8350  138.6360 O   0  0  0  0  0  0  0  0  0  0  0  0
  194.4310  174.4150  143.0660 N   0  0  0  0  0  2  0  0  0  0  0  0
  191.7800  174.6910  141.7120 C   0  0  0  0  0  3  0  0  0  0  0  0
  195.8380  174.1190  139.7560 C   0  0  0  0  0  0  0  0  0  0  0  0
  193.8410  174.9480  146.0380 C   0  0  2  0  0  3  0  0  0  0  0  0
  193.3290  173.6100  145.5180 C   0  0  0  0  0  1  0  0  0  0  0  0
  193.6260  173.8120  138.5990 C   0  0  0  0  0  3  0  0  0  0  0  0
  192.0390  176.5490  145.8640 C   0  0  0  0  0  2  0  0  0  0  0  0
  195.2190  174.3690  140.8520 C   0  0  0  0  0  0  0  0  0  0  0  0
  192.3170  176.5170  143.3360 C   0  0  0  0  0  2  0  0  0  0  0  0
  192.7280  174.0610  139.5900 C   0  0  0  0  0  3  0  0  0  0  0  0
  192.9990  176.7380  144.7010 C   0  0  2  0  0  3  0  0  0  0  0  0
  194.2420  174.5470  141.6620 C   0  0  0  0  0  0  0  0  0  0  0  0
  191.6980  175.1280  143.1530 C   0  0  1  0  0  3  0  0  0  0  0  0
  192.9050  174.4290  141.0330 C   0  0  0  0  0  0  0  0  0  0  0  0
  192.7320  175.6050  146.8310 C   0  0  0  0  0  2  0  0  0  0  0  0
  197.2980  174.1410  139.6900 C   0  0  0  0  0  3  0  0  0  0  0  0
  197.9410  175.2600  139.7180 N   0  0  0  0  0  2  0  0  0  0  0  0
  196.4440  175.1500  144.2740 C   0  0  0  0  0  2  0  0  0  0  0  0
  196.8660  173.9560  143.6780 O   0  0  0  0  0  0  0  0  0  0  0  0
  197.6730  173.3710  144.5970 N   0  0  0  0  0  0  0  0  0  0  0  0
  197.1730  173.7970  145.8980 C   0  0  0  0  0  1  0  0  0  0  0  0
  196.4600  171.6210  143.4930 N   0  0  0  0  0  0  0  0  0  0  0  0
  195.4740  171.0050  144.0420 C   0  0  0  0  0  0  0  0  0  0  0  0
  195.6150  170.7930  145.4340 N   0  0  0  0  0  0  0  0  0  0  0  0
  196.8980  171.3630  145.8070 C   0  0  0  0  0  3  0  0  0  0  0  0
  197.4760  171.9220  144.4970 C   0  0  2  0  0  3  0  0  0  0  0  0
  194.0100  171.0200  142.1080 N   0  0  0  0  0  0  0  0  0  0  0  0
  193.3760  169.6490  143.7430 O   0  0  0  0  0  0  0  0  0  0  0  0
  194.2990  170.5740  143.2810 C   0  0  0  0  0  0  0  0  0  0  0  0
  192.8310  170.4010  141.6840 N   0  0  0  0  0  0  0  0  0  0  0  0
  192.3860  169.4940  142.7370 C   0  0  0  0  0  3  0  0  0  0  0  0
  190.2490  175.0920  143.6590 C   0  0  1  0  0  3  0  0  0  0  0  0
  188.4740  176.8140  143.0480 C   0  0  0  0  0  0  0  0  0  0  0  0
  189.3420  175.7290  142.7070 N   0  0  0  0  0  2  0  0  0  0  0  0
  188.1100  177.6070  142.1390 O   0  0  0  0  0  0  0  0  0  0  0  0
  186.1180  176.9830  146.1460 C   0  0  0  0  0  0  0  0  0  0  0  0
  187.0720  177.3640  147.1360 N   0  0  0  0  0  2  0  0  0  0  0  0
  186.4940  176.9620  144.6900 C   0  0  0  0  0  2  0  0  0  0  0  0
  184.8880  176.7920  146.4860 N   0  0  0  0  0  2  0  0  0  0  0  0
  189.2740  177.9210  147.6410 O   0  0  0  0  0  0  0  0  0  0  0  0
  188.4340  177.5660  146.7730 C   0  0  0  0  0  0  0  0  0  0  0  0
  188.8600  177.3430  145.3880 C   0  0  0  0  0  3  0  0  0  0  0  0
  187.9850  177.0100  144.4300 C   0  0  0  0  0  0  0  0  0  0  0  0
  189.6920  173.6690  145.2570 C   0  0  0  0  0  1  0  0  0  0  0  0
  189.8540  173.7700  143.8720 O   0  0  0  0  0  0  0  0  0  0  0  0
  1  7  1  0  0  0  0
  2 21  1  0  0  0  0
  2  1  1  0  0  0  0
  3  6  1  0  0  0  0
  4  2  1  0  0  0  0
  5 16  1  0  0  0  0
  6 11  2  0  0  0  0
  7 18  1  0  0  0  0
  8  7  1  0  0  0  0
  9  3  1  0  0  0  0
  9 13  2  0  0  0  0
 10 18  1  0  0  0  0
 11 15  2  0  0  0  0
 12 14  1  0  0  0  0
 13 17  1  0  0  0  0
 14  1  1  0  0  0  0
 14 10  1  0  0  0  0
 15  4  1  0  0  0  0
 16 12  1  0  0  0  0
 16 35  1  0  0  0  0
 17 15  1  0  0  0  0
 17  5  2  0  0  0  0
 19 20  2  0  0  0  0
 19  6  1  0  0  0  0
 22 21  1  0  0  0  0
 22 23  1  0  0  0  0
 23 24  1  0  0  0  0
 25 26  2  0  0  0  0
 25 29  1  0  0  0  0
 26 27  1  0  0  0  0
 27 28  2  0  0  0  0
 29 23  1  0  0  0  0
 29 28  1  0  0  0  0
 30 32  2  0  0  0  0
 32 31  1  0  0  0  0
 32 26  1  0  0  0  0
 33 30  1  0  0  0  0
 33 34  2  0  0  0  0
 34 31  1  0  0  0  0
 35 48  1  0  0  0  0
 36 46  1  0  0  0  0
 37 36  1  0  0  0  0
 37 35  1  0  0  0  0
 38 36  2  0  0  0  0
 39 42  2  0  0  0  0
 39 40  1  0  0  0  0
 41 39  1  0  0  0  0
 44 40  1  0  0  0  0
 44 43  2  0  0  0  0
 45 44  1  0  0  0  0
 46 41  1  0  0  0  0
 46 45  2  0  0  0  0
 48 47  1  0  0  0  0
M  END
>  <MODEL>
6

>  <REMARK>
 VINA RESULT:      -7.5      2.563      8.592
  Name = 
  10 active torsions:
  status: ('A' for Active; 'I' for Inactive)
    1  A    between atoms: C_2  and  C_6
    2  A    between atoms: C_6  and  O_10
    3  A    between atoms: C_7  and  C_15
    4  A    between atoms: O_10  and  N_19
    5  A    between atoms: C_14  and  C_40
    6  A    between atoms: C_18  and  N_29
    7  A    between atoms: C_18  and  O_33
    8  A    between atoms: C_18  and  C_43
    9  A    between atoms: N_19  and  C_45
   10  A    between atoms: C_21  and  C_30
                            x       y       z     vdW  Elec       q    Type
                         _______ _______ _______ _____ _____    ______ ____

>  <TORSDO>
F 10

$$$$
=
 OpenBabel11042416443D

 48 53  0  0  1  0  0  0  0  0999 V2000
  188.7630  176.0860  141.6900 N   0  0  2  0  0  0  0  0  0  0  0  0
  187.7610  176.9720  142.3170 C   0  0  2  0  0  3  0  0  0  0  0  0
  185.7870  178.8710  147.0400 O   0  0  0  0  0  0  0  0  0  0  0  0
  187.2130  176.4080  143.5410 N   0  0  0  0  0  2  0  0  0  0  0  0
  188.9270  175.7540  145.9020 C   0  0  0  0  0  3  0  0  0  0  0  0
  185.6500  178.8880  145.6470 C   0  0  0  0  0  0  0  0  0  0  0  0
  188.3920  174.7370  141.2430 C   0  0  2  0  0  3  0  0  0  0  0  0
  187.6310  173.9320  142.2890 C   0  0  0  0  0  1  0  0  0  0  0  0
  186.6680  178.0400  147.7840 C   0  0  0  0  0  3  0  0  0  0  0  0
  190.7310  174.7150  141.8500 C   0  0  0  0  0  2  0  0  0  0  0  0
  186.3800  178.0660  144.9850 C   0  0  0  0  0  0  0  0  0  0  0  0
  190.1910  176.2540  143.8020 C   0  0  0  0  0  2  0  0  0  0  0  0
  187.5600  177.1110  147.3480 C   0  0  0  0  0  3  0  0  0  0  0  0
  190.1090  176.0330  142.2780 C   0  0  2  0  0  3  0  0  0  0  0  0
  187.2450  177.1490  144.7560 C   0  0  0  0  0  0  0  0  0  0  0  0
  189.5040  175.1700  144.6380 C   0  0  1  0  0  3  0  0  0  0  0  0
  187.9210  176.6370  145.9720 C   0  0  0  0  0  0  0  0  0  0  0  0
  189.7030  174.0330  140.9640 C   0  0  0  0  0  2  0  0  0  0  0  0
  184.7300  179.7980  144.9680 C   0  0  0  0  0  3  0  0  0  0  0  0
  185.1780  180.7930  144.2770 N   0  0  0  0  0  2  0  0  0  0  0  0
  186.6540  177.3630  141.3450 C   0  0  0  0  0  2  0  0  0  0  0  0
  185.9400  178.4660  141.8270 O   0  0  0  0  0  0  0  0  0  0  0  0
  184.9070  178.6220  140.9610 N   0  0  0  0  0  0  0  0  0  0  0  0
  185.3000  177.9260  139.7420 C   0  0  0  0  0  1  0  0  0  0  0  0
  182.6170  177.9990  140.6110 N   0  0  0  0  0  0  0  0  0  0  0  0
  181.6380  178.6020  141.1870 C   0  0  0  0  0  0  0  0  0  0  0  0
  181.9040  179.0250  142.5110 N   0  0  0  0  0  0  0  0  0  0  0  0
  183.2660  178.6140  142.8050 C   0  0  0  0  0  3  0  0  0  0  0  0
  183.7530  177.9170  141.5240 C   0  0  2  0  0  3  0  0  0  0  0  0
  179.7350  177.9330  139.8400 N   0  0  0  0  0  0  0  0  0  0  0  0
  179.6880  180.0490  140.5290 O   0  0  0  0  0  0  0  0  0  0  0  0
  180.3580  178.8360  140.5140 C   0  0  0  0  0  0  0  0  0  0  0  0
  178.5590  178.4980  139.3370 N   0  0  0  0  0  0  0  0  0  0  0  0
  178.4990  179.8890  139.7690 C   0  0  0  0  0  3  0  0  0  0  0  0
  190.4650  174.0160  144.9530 C   0  0  1  0  0  3  0  0  0  0  0  0
  192.6500  174.8710  145.9460 C   0  0  0  0  0  0  0  0  0  0  0  0
  191.3280  174.3410  146.0860 N   0  0  0  0  0  2  0  0  0  0  0  0
  193.1270  175.5640  146.8850 O   0  0  0  0  0  0  0  0  0  0  0  0
  194.7440  173.0210  143.2330 C   0  0  0  0  0  0  0  0  0  0  0  0
  195.0230  174.1230  142.3700 N   0  0  0  0  0  2  0  0  0  0  0  0
  194.0980  173.2430  144.5720 C   0  0  0  0  0  2  0  0  0  0  0  0
  195.1760  171.8450  142.9240 N   0  0  0  0  0  2  0  0  0  0  0  0
  194.8010  176.4000  141.9470 O   0  0  0  0  0  0  0  0  0  0  0  0
  194.5400  175.4230  142.6960 C   0  0  0  0  0  0  0  0  0  0  0  0
  193.7240  175.6170  143.8990 C   0  0  0  0  0  3  0  0  0  0  0  0
  193.4670  174.6080  144.7420 C   0  0  0  0  0  0  0  0  0  0  0  0
  190.2190  171.9100  144.3230 C   0  0  0  0  0  1  0  0  0  0  0  0
  189.7390  172.8570  145.2330 O   0  0  0  0  0  0  0  0  0  0  0  0
  1 14  1  0  0  0  0
  1  2  1  0  0  0  0
  2  4  1  0  0  0  0
  3  9  1  0  0  0  0
  4 15  1  0  0  0  0
  5 17  2  0  0  0  0
  6  3  1  0  0  0  0
  7  1  1  0  0  0  0
  7  8  1  0  0  0  0
 10 14  1  0  0  0  0
 11  6  2  0  0  0  0
 12 16  1  0  0  0  0
 13  9  2  0  0  0  0
 14 12  1  0  0  0  0
 15 11  2  0  0  0  0
 15 17  1  0  0  0  0
 16 35  1  0  0  0  0
 16  5  1  0  0  0  0
 17 13  1  0  0  0  0
 18  7  1  0  0  0  0
 18 10  1  0  0  0  0
 19  6  1  0  0  0  0
 20 19  2  0  0  0  0
 21 22  1  0  0  0  0
 21  2  1  0  0  0  0
 23 29  1  0  0  0  0
 23 22  1  0  0  0  0
 24 23  1  0  0  0  0
 25 26  2  0  0  0  0
 25 29  1  0  0  0  0
 26 27  1  0  0  0  0
 27 28  2  0  0  0  0
 29 28  1  0  0  0  0
 30 32  2  0  0  0  0
 32 31  1  0  0  0  0
 32 26  1  0  0  0  0
 33 34  2  0  0  0  0
 33 30  1  0  0  0  0
 34 31  1  0  0  0  0
 35 48  1  0  0  0  0
 35 37  1  0  0  0  0
 36 37  1  0  0  0  0
 36 38  2  0  0  0  0
 39 41  1  0  0  0  0
 40 44  1  0  0  0  0
 40 39  1  0  0  0  0
 41 46  1  0  0  0  0
 42 39  2  0  0  0  0
 43 44  2  0  0  0  0
 44 45  1  0  0  0  0
 45 46  2  0  0  0  0
 46 36  1  0  0  0  0
 47 48  1  0  0  0  0
M  END
>  <MODEL>
7

>  <REMARK>
 VINA RESULT:      -7.5      2.676      5.634
  Name = 
  10 active torsions:
  status: ('A' for Active; 'I' for Inactive)
    1  A    between atoms: C_2  and  C_6
    2  A    between atoms: C_6  and  O_10
    3  A    between atoms: C_7  and  C_15
    4  A    between atoms: O_10  and  N_19
    5  A    between atoms: C_14  and  C_40
    6  A    between atoms: C_18  and  N_29
    7  A    between atoms: C_18  and  O_33
    8  A    between atoms: C_18  and  C_43
    9  A    between atoms: N_19  and  C_45
   10  A    between atoms: C_21  and  C_30
                            x       y       z     vdW  Elec       q    Type
                         _______ _______ _______ _____ _____    ______ ____

>  <TORSDO>
F 10

$$$$
=
 OpenBabel11042416443D

 48 53  0  0  1  0  0  0  0  0999 V2000
  190.6310  173.7310  140.8940 N   0  0  2  0  0  0  0  0  0  0  0  0
  189.3830  174.5070  141.0450 C   0  0  2  0  0  3  0  0  0  0  0  0
  186.5080  177.7780  144.3380 O   0  0  0  0  0  0  0  0  0  0  0  0
  188.8580  174.4520  142.4010 N   0  0  0  0  0  2  0  0  0  0  0  0
  190.4130  175.4430  144.7540 C   0  0  0  0  0  3  0  0  0  0  0  0
  186.5240  177.1120  143.1070 C   0  0  0  0  0  0  0  0  0  0  0  0
  190.6480  172.2840  141.1490 C   0  0  2  0  0  3  0  0  0  0  0  0
  189.9950  171.8870  142.4670 C   0  0  0  0  0  1  0  0  0  0  0  0
  187.4780  177.6520  145.3700 C   0  0  0  0  0  3  0  0  0  0  0  0
  192.8440  173.1650  141.6460 C   0  0  0  0  0  2  0  0  0  0  0  0
  187.4980  176.3020  142.9000 C   0  0  0  0  0  0  0  0  0  0  0  0
  191.7390  175.2280  142.6440 C   0  0  0  0  0  2  0  0  0  0  0  0
  188.6110  176.9000  145.4090 C   0  0  0  0  0  3  0  0  0  0  0  0
  191.8780  174.3140  141.4090 C   0  0  2  0  0  3  0  0  0  0  0  0
  188.5790  175.6490  143.1170 C   0  0  0  0  0  0  0  0  0  0  0  0
  191.2480  174.5160  143.9080 C   0  0  1  0  0  3  0  0  0  0  0  0
  189.2220  175.9570  144.4160 C   0  0  0  0  0  0  0  0  0  0  0  0
  192.1130  171.9070  141.2110 C   0  0  0  0  0  2  0  0  0  0  0  0
  185.4890  177.3240  142.0960 C   0  0  0  0  0  3  0  0  0  0  0  0
  184.3690  177.8840  142.4090 N   0  0  0  0  0  2  0  0  0  0  0  0
  188.3270  174.0950  140.0260 C   0  0  0  0  0  2  0  0  0  0  0  0
  188.8050  173.0660  139.2070 O   0  0  0  0  0  0  0  0  0  0  0  0
  188.2400  173.2900  137.9950 N   0  0  0  0  0  0  0  0  0  0  0  0
  187.8550  174.6960  137.9860 C   0  0  0  0  0  1  0  0  0  0  0  0
  190.5630  172.8190  137.6250 N   0  0  0  0  0  0  0  0  0  0  0  0
  191.4170  173.7310  137.3240 C   0  0  0  0  0  0  0  0  0  0  0  0
  190.9160  174.7530  136.4840 N   0  0  0  0  0  0  0  0  0  0  0  0
  189.5280  174.4170  136.2160 C   0  0  0  0  0  3  0  0  0  0  0  0
  189.2840  173.1080  136.9830 C   0  0  2  0  0  3  0  0  0  0  0  0
  193.4520  174.7730  138.1340 N   0  0  0  0  0  0  0  0  0  0  0  0
  193.5290  172.5520  138.0180 O   0  0  0  0  0  0  0  0  0  0  0  0
  192.7930  173.7110  137.8250 C   0  0  0  0  0  0  0  0  0  0  0  0
  194.7220  174.3870  138.5710 N   0  0  0  0  0  0  0  0  0  0  0  0
  194.8070  172.9330  138.5050 C   0  0  0  0  0  3  0  0  0  0  0  0
  192.4200  173.9390  144.7140 C   0  0  1  0  0  3  0  0  0  0  0  0
  193.7630  175.6320  146.0630 C   0  0  0  0  0  0  0  0  0  0  0  0
  192.6660  174.7230  145.9210 N   0  0  0  0  0  2  0  0  0  0  0  0
  193.6510  176.5950  146.8690 O   0  0  0  0  0  0  0  0  0  0  0  0
  197.1390  174.1600  144.7950 C   0  0  0  0  0  0  0  0  0  0  0  0
  197.4390  175.1190  143.7810 N   0  0  0  0  0  2  0  0  0  0  0  0
  195.9920  174.3810  145.7410 C   0  0  0  0  0  2  0  0  0  0  0  0
  197.9400  173.1680  144.9900 N   0  0  0  0  0  2  0  0  0  0  0  0
  196.8260  177.0680  142.6690 O   0  0  0  0  0  0  0  0  0  0  0  0
  196.5540  176.2110  143.5500 C   0  0  0  0  0  0  0  0  0  0  0  0
  195.3160  176.3240  144.3280 C   0  0  0  0  0  3  0  0  0  0  0  0
  195.0190  175.4550  145.3040 C   0  0  0  0  0  0  0  0  0  0  0  0
  193.3760  171.9570  144.9310 C   0  0  0  0  0  1  0  0  0  0  0  0
  192.1500  172.6140  145.0610 O   0  0  0  0  0  0  0  0  0  0  0  0
  1  2  1  0  0  0  0
  1  7  1  0  0  0  0
  1 14  1  0  0  0  0
  2  4  1  0  0  0  0
  3  9  1  0  0  0  0
  4 15  1  0  0  0  0
  6  3  1  0  0  0  0
  7 18  1  0  0  0  0
  7  8  1  0  0  0  0
  9 13  2  0  0  0  0
 11  6  2  0  0  0  0
 11 15  2  0  0  0  0
 12 16  1  0  0  0  0
 14 10  1  0  0  0  0
 14 12  1  0  0  0  0
 15 17  1  0  0  0  0
 16 35  1  0  0  0  0
 16  5  1  0  0  0  0
 17  5  2  0  0  0  0
 17 13  1  0  0  0  0
 18 10  1  0  0  0  0
 19 20  2  0  0  0  0
 19  6  1  0  0  0  0
 21  2  1  0  0  0  0
 22 21  1  0  0  0  0
 23 22  1  0  0  0  0
 24 23  1  0  0  0  0
 26 25  2  0  0  0  0
 26 32  1  0  0  0  0
 27 26  1  0  0  0  0
 28 27  2  0  0  0  0
 28 29  1  0  0  0  0
 29 25  1  0  0  0  0
 29 23  1  0  0  0  0
 30 33  1  0  0  0  0
 31 34  1  0  0  0  0
 32 31  1  0  0  0  0
 32 30  2  0  0  0  0
 34 33  2  0  0  0  0
 35 48  1  0  0  0  0
 35 37  1  0  0  0  0
 36 38  2  0  0  0  0
 37 36  1  0  0  0  0
 39 42  2  0  0  0  0
 39 41  1  0  0  0  0
 40 39  1  0  0  0  0
 43 44  2  0  0  0  0
 44 40  1  0  0  0  0
 44 45  1  0  0  0  0
 45 46  2  0  0  0  0
 46 41  1  0  0  0  0
 46 36  1  0  0  0  0
 47 48  1  0  0  0  0
M  END
>  <MODEL>
8

>  <REMARK>
 VINA RESULT:      -7.5      2.475      6.487
  Name = 
  10 active torsions:
  status: ('A' for Active; 'I' for Inactive)
    1  A    between atoms: C_2  and  C_6
    2  A    between atoms: C_6  and  O_10
    3  A    between atoms: C_7  and  C_15
    4  A    between atoms: O_10  and  N_19
    5  A    between atoms: C_14  and  C_40
    6  A    between atoms: C_18  and  N_29
    7  A    between atoms: C_18  and  O_33
    8  A    between atoms: C_18  and  C_43
    9  A    between atoms: N_19  and  C_45
   10  A    between atoms: C_21  and  C_30
                            x       y       z     vdW  Elec       q    Type
                         _______ _______ _______ _____ _____    ______ ____

>  <TORSDO>
F 10

$$$$
=
 OpenBabel11042416443D

 48 53  0  0  1  0  0  0  0  0999 V2000
  189.7820  174.0170  141.2580 N   0  0  2  0  0  0  0  0  0  0  0  0
  188.6680  174.9370  140.9510 C   0  0  2  0  0  3  0  0  0  0  0  0
  185.4320  178.8730  142.9130 O   0  0  0  0  0  0  0  0  0  0  0  0
  187.7600  175.1020  142.0750 N   0  0  0  0  0  2  0  0  0  0  0  0
  188.6660  176.1920  144.7080 C   0  0  0  0  0  3  0  0  0  0  0  0
  185.7200  178.0660  141.8050 C   0  0  0  0  0  0  0  0  0  0  0  0
  189.5180  172.6180  141.6200 C   0  0  2  0  0  3  0  0  0  0  0  0
  188.4530  172.4540  142.6980 C   0  0  0  0  0  1  0  0  0  0  0  0
  186.0230  178.7660  144.2020 C   0  0  0  0  0  3  0  0  0  0  0  0
  191.5670  173.3060  142.7030 C   0  0  0  0  0  2  0  0  0  0  0  0
  186.5880  177.1370  141.9770 C   0  0  0  0  0  0  0  0  0  0  0  0
  190.5170  175.5820  143.1390 C   0  0  0  0  0  2  0  0  0  0  0  0
  186.9750  177.9050  144.6510 C   0  0  0  0  0  3  0  0  0  0  0  0
  190.8880  174.5180  142.0860 C   0  0  2  0  0  3  0  0  0  0  0  0
  187.4510  176.4000  142.5710 C   0  0  0  0  0  0  0  0  0  0  0  0
  189.5770  175.0850  144.2410 C   0  0  1  0  0  3  0  0  0  0  0  0
  187.7150  176.7890  143.9770 C   0  0  0  0  0  0  0  0  0  0  0  0
  190.8290  172.0930  142.1650 C   0  0  0  0  0  2  0  0  0  0  0  0
  185.0750  178.2680  140.5090 C   0  0  0  0  0  3  0  0  0  0  0  0
  183.7940  178.4060  140.4270 N   0  0  0  0  0  2  0  0  0  0  0  0
  187.9160  174.5250  139.6900 C   0  0  0  0  0  2  0  0  0  0  0  0
  188.4260  173.3250  139.1810 O   0  0  0  0  0  0  0  0  0  0  0  0
  188.1620  173.3660  137.8510 N   0  0  0  0  0  0  0  0  0  0  0  0
  187.9310  174.7700  137.5330 C   0  0  0  0  0  1  0  0  0  0  0  0
  190.3310  172.3710  138.0930 N   0  0  0  0  0  0  0  0  0  0  0  0
  191.4160  173.0610  138.0870 C   0  0  0  0  0  0  0  0  0  0  0  0
  191.4060  174.1670  137.2050 N   0  0  0  0  0  0  0  0  0  0  0  0
  190.1070  174.1590  136.5550 C   0  0  0  0  0  3  0  0  0  0  0  0
  189.3770  172.9440  137.1490 C   0  0  2  0  0  3  0  0  0  0  0  0
  192.9810  171.5240  139.1230 N   0  0  0  0  0  0  0  0  0  0  0  0
  193.3060  173.6660  139.6340 O   0  0  0  0  0  0  0  0  0  0  0  0
  192.5600  172.7270  138.9390 C   0  0  0  0  0  0  0  0  0  0  0  0
  194.0780  171.5730  139.9870 N   0  0  0  0  0  0  0  0  0  0  0  0
  194.3180  172.9670  140.3440 C   0  0  0  0  0  3  0  0  0  0  0  0
  190.3610  174.4830  145.4140 C   0  0  1  0  0  3  0  0  0  0  0  0
  192.3830  175.9290  145.9760 C   0  0  0  0  0  0  0  0  0  0  0  0
  191.0270  175.5250  146.1930 N   0  0  0  0  0  2  0  0  0  0  0  0
  192.7270  177.0960  146.3050 O   0  0  0  0  0  0  0  0  0  0  0  0
  195.3020  174.5300  143.8090 C   0  0  0  0  0  0  0  0  0  0  0  0
  195.3440  173.1970  144.3170 N   0  0  0  0  0  2  0  0  0  0  0  0
  194.1890  175.4620  144.1990 C   0  0  0  0  0  2  0  0  0  0  0  0
  196.1450  174.8930  142.9030 N   0  0  0  0  0  2  0  0  0  0  0  0
  194.4470  171.6100  145.7630 O   0  0  0  0  0  0  0  0  0  0  0  0
  194.4240  172.7900  145.3270 C   0  0  0  0  0  0  0  0  0  0  0  0
  193.4650  173.7560  145.8700 C   0  0  0  0  0  3  0  0  0  0  0  0
  193.3830  175.0070  145.3970 C   0  0  0  0  0  0  0  0  0  0  0  0
  189.3050  174.5780  147.3550 C   0  0  0  0  0  1  0  0  0  0  0  0
  189.5000  173.7580  146.2390 O   0  0  0  0  0  0  0  0  0  0  0  0
  1  7  1  0  0  0  0
  1 14  1  0  0  0  0
  2  1  1  0  0  0  0
  2  4  1  0  0  0  0
  3  9  1  0  0  0  0
  4 15  1  0  0  0  0
  6 11  2  0  0  0  0
  6  3  1  0  0  0  0
  7 18  1  0  0  0  0
  7  8  1  0  0  0  0
  9 13  2  0  0  0  0
 11 15  2  0  0  0  0
 12 16  1  0  0  0  0
 14 10  1  0  0  0  0
 14 12  1  0  0  0  0
 15 17  1  0  0  0  0
 16  5  1  0  0  0  0
 16 35  1  0  0  0  0
 17 13  1  0  0  0  0
 17  5  2  0  0  0  0
 18 10  1  0  0  0  0
 19  6  1  0  0  0  0
 20 19  2  0  0  0  0
 21  2  1  0  0  0  0
 22 21  1  0  0  0  0
 23 22  1  0  0  0  0
 24 23  1  0  0  0  0
 26 25  2  0  0  0  0
 26 32  1  0  0  0  0
 27 26  1  0  0  0  0
 28 29  1  0  0  0  0
 28 27  2  0  0  0  0
 29 23  1  0  0  0  0
 29 25  1  0  0  0  0
 30 33  1  0  0  0  0
 31 34  1  0  0  0  0
 32 30  2  0  0  0  0
 32 31  1  0  0  0  0
 33 34  2  0  0  0  0
 35 37  1  0  0  0  0
 35 48  1  0  0  0  0
 36 37  1  0  0  0  0
 36 38  2  0  0  0  0
 39 41  1  0  0  0  0
 39 40  1  0  0  0  0
 40 44  1  0  0  0  0
 41 46  1  0  0  0  0
 42 39  2  0  0  0  0
 44 43  2  0  0  0  0
 44 45  1  0  0  0  0
 46 45  2  0  0  0  0
 46 36  1  0  0  0  0
 48 47  1  0  0  0  0
M  END
>  <MODEL>
9

>  <REMARK>
 VINA RESULT:      -7.5      2.276      6.437
  Name = 
  10 active torsions:
  status: ('A' for Active; 'I' for Inactive)
    1  A    between atoms: C_2  and  C_6
    2  A    between atoms: C_6  and  O_10
    3  A    between atoms: C_7  and  C_15
    4  A    between atoms: O_10  and  N_19
    5  A    between atoms: C_14  and  C_40
    6  A    between atoms: C_18  and  N_29
    7  A    between atoms: C_18  and  O_33
    8  A    between atoms: C_18  and  C_43
    9  A    between atoms: N_19  and  C_45
   10  A    between atoms: C_21  and  C_30
                            x       y       z     vdW  Elec       q    Type
                         _______ _______ _______ _____ _____    ______ ____

>  <TORSDO>
F 10

$$$$
