=
 OpenBabel11042416393D

 65 74  0  0  1  0  0  0  0  0999 V2000
  194.7060  175.3840  144.8950 C   0  0  0  0  0  0  0  0  0  0  0  0
  190.8360  173.7540  139.6430 C   0  0  0  0  0  2  0  0  0  0  0  0
  188.8660  175.8750  143.8820 N   0  0  0  0  0  2  0  0  0  0  0  0
  195.7240  175.2700  142.6510 C   0  0  0  0  0  0  0  0  0  0  0  0
  189.8050  175.9200  145.0240 C   0  0  1  0  0  3  0  0  0  0  0  0
  193.9390  176.3690  146.9200 N   0  0  0  0  0  0  0  0  0  0  0  0
  192.9020  174.9400  143.2790 N   0  0  0  0  0  0  0  0  0  0  0  0
  189.5350  178.2420  147.8050 C   0  0  0  0  0  3  0  0  0  0  0  0
  191.8970  172.1930  141.3320 C   0  0  0  0  0  2  0  0  0  0  0  0
  191.1340  177.9960  149.5950 C   0  0  0  0  0  0  0  0  0  0  0  0
  192.9490  173.1250  141.3780 O   0  0  0  0  0  0  0  0  0  0  0  0
  191.5890  176.9760  147.4220 C   0  0  0  0  0  0  0  0  0  0  0  0
  189.9280  178.5050  149.1160 C   0  0  0  0  0  3  0  0  0  0  0  0
  195.7950  175.1380  139.0770 C   0  0  0  0  0  3  0  0  0  0  0  0
  190.3310  177.4680  146.9530 C   0  0  0  0  0  0  0  0  0  0  0  0
  195.5270  175.5800  141.5020 C   0  0  0  0  0  0  0  0  0  0  0  0
  194.6200  172.9830  139.6690 C   0  0  0  0  0  2  0  0  0  0  0  0
  193.3810  175.2640  144.4940 C   0  0  0  0  0  0  0  0  0  0  0  0
  191.9620  177.2600  148.7470 C   0  0  0  0  0  3  0  0  0  0  0  0
  191.1830  175.5040  144.6550 C   0  0  0  0  0  0  0  0  0  0  0  0
  190.5920  172.8670  140.8790 C   0  0  1  0  0  0  0  0  0  0  0  0
  191.5590  175.0830  143.3940 C   0  0  0  0  0  0  0  0  0  0  0  0
  195.8650  174.8950  144.0650 C   0  0  0  0  0  2  0  0  0  0  0  0
  192.3320  175.6820  145.3670 C   0  0  0  0  0  0  0  0  0  0  0  0
  190.6010  175.0860  142.2470 C   0  0  1  0  0  3  0  0  0  0  0  0
  192.2060  173.4910  139.0110 C   0  0  0  0  0  2  0  0  0  0  0  0
  194.9310  175.9140  146.1340 N   0  0  0  0  0  2  0  0  0  0  0  0
  189.9970  173.6870  142.0400 C   0  0  0  0  0  2  0  0  0  0  0  0
  195.4850  173.8550  138.7950 C   0  0  0  0  0  0  0  0  0  0  0  0
  189.5170  176.1400  142.5830 C   0  0  1  0  0  3  0  0  0  0  0  0
  195.1810  175.9990  140.1420 C   0  0  0  0  0  2  0  0  0  0  0  0
  189.8260  177.2380  145.6310 N   0  0  0  0  0  2  0  0  0  0  0  0
  193.2970  173.6010  140.0870 C   0  0  1  0  0  3  0  0  0  0  0  0
  192.6150  176.3100  146.5690 C   0  0  0  0  0  0  0  0  0  0  0  0
  197.2440  172.2150  138.2030 C   0  0  1  0  0  3  0  0  0  0  0  0
  197.5970  173.5030  137.7610 O   0  0  0  0  0  0  0  0  0  0  0  0
  196.2300  173.1690  137.6910 C   0  0  2  0  0  3  0  0  0  0  0  0
  197.5860  171.1950  137.1160 C   0  0  2  0  0  3  0  0  0  0  0  0
  197.0590  171.6010  135.8750 O   0  0  0  0  0  0  0  0  0  0  0  0
  197.4280  169.4190  134.9600 N   0  0  0  0  0  2  0  0  0  0  0  0
  197.2050  169.7220  137.4240 C   0  0  2  0  0  3  0  0  0  0  0  0
  197.7590  170.8580  134.9080 C   0  0  0  0  0  2  0  0  0  0  0  0
  196.6560  169.0570  136.1580 C   0  0  0  0  0  2  0  0  0  0  0  0
  196.1810  169.5440  138.5450 C   0  0  0  0  0  2  0  0  0  0  0  0
  194.8010  169.4380  137.9890 C   0  0  0  0  0  0  0  0  0  0  0  0
  194.3600  170.3460  137.2420 O   0  0  0  0  0  0  0  0  0  0  0  0
  194.0100  168.3340  138.2790 O   0  0  0  0  0  1  0  0  0  0  0  0
  191.8060  177.0440  151.7020 N   0  0  0  0  0  1  0  0  0  0  0  0
  191.5710  178.2890  150.9880 C   0  0  0  0  0  2  0  0  0  0  0  0
  187.8030  177.4840  141.3850 C   0  0  0  0  0  3  0  0  0  0  0  0
  188.5050  176.3540  141.4940 C   0  0  0  0  0  3  0  0  0  0  0  0
  186.8110  177.6680  140.2820 C   0  0  2  0  0  3  0  0  0  0  0  0
  185.4180  177.8350  140.8650 C   0  0  0  0  0  1  0  0  0  0  0  0
  186.8290  176.5030  139.4200 N   0  0  0  0  0  1  0  0  0  0  0  0
  189.5430  171.7990  140.5470 C   0  0  0  0  0  2  0  0  0  0  0  0
  187.8590  172.3870  138.9480 O   0  0  0  0  0  0  0  0  0  0  0  0
  188.9770  171.8380  139.1510 C   0  0  0  0  0  0  0  0  0  0  0  0
  189.6820  171.1410  138.0440 C   0  0  0  0  0  0  0  0  0  0  0  0
  190.4800  171.0290  135.7390 C   0  0  0  0  0  0  0  0  0  0  0  0
  190.7920  169.1350  137.2130 C   0  0  0  0  0  3  0  0  0  0  0  0
  190.9480  169.7310  135.9590 C   0  0  0  0  0  3  0  0  0  0  0  0
  189.8500  171.7380  136.7730 C   0  0  0  0  0  0  0  0  0  0  0  0
  190.6250  171.5930  134.5130 F   0  0  0  0  0  0  0  0  0  0  0  0
  189.3920  172.9910  136.5200 F   0  0  0  0  0  0  0  0  0  0  0  0
  190.1620  169.8360  138.2460 C   0  0  0  0  0  3  0  0  0  0  0  0
  1 27  1  0  0  0  0
  2 21  1  0  0  0  0
  4 23  1  0  0  0  0
  5  3  1  6  0  0  0
  5 32  1  0  0  0  0
  7 22  2  0  0  0  0
  7 18  1  0  0  0  0
  8 13  1  0  0  0  0
  9 11  1  0  0  0  0
 10 49  1  0  0  0  0
 12 19  2  0  0  0  0
 13 10  2  0  0  0  0
 14 31  1  0  0  0  0
 15 12  1  0  0  0  0
 15  8  2  0  0  0  0
 16  4  3  0  0  0  0
 17 33  1  0  0  0  0
 18  1  2  0  0  0  0
 18 24  1  0  0  0  0
 19 10  1  0  0  0  0
 20  5  1  0  0  0  0
 20 24  2  0  0  0  0
 21 55  1  6  0  0  0
 21  9  1  0  0  0  0
 21 28  1  0  0  0  0
 22 20  1  0  0  0  0
 23  1  1  0  0  0  0
 24 34  1  0  0  0  0
 25 28  1  1  0  0  0
 25 30  1  0  0  0  0
 25 22  1  0  0  0  0
 26  2  1  0  0  0  0
 27  6  1  0  0  0  0
 29 14  2  0  0  0  0
 29 17  1  0  0  0  0
 30 51  1  6  0  0  0
 30  3  1  0  0  0  0
 31 16  1  0  0  0  0
 32 15  1  0  0  0  0
 33 26  1  6  0  0  0
 33 11  1  0  0  0  0
 34  6  2  0  0  0  0
 34 12  1  0  0  0  0
 35 36  1  6  0  0  0
 37 36  1  0  0  0  0
 37 35  1  0  0  0  0
 37 29  1  1  0  0  0
 38 39  1  6  0  0  0
 38 41  1  0  0  0  0
 38 35  1  0  0  0  0
 40 43  1  0  0  0  0
 41 44  1  1  0  0  0
 42 40  1  0  0  0  0
 42 39  1  0  0  0  0
 43 41  1  0  0  0  0
 45 47  1  0  0  0  0
 45 44  1  0  0  0  0
 46 45  2  0  0  0  0
 49 48  1  0  0  0  0
 50 51  2  0  0  0  0
 52 53  1  1  0  0  0
 52 50  1  0  0  0  0
 54 52  1  0  0  0  0
 56 57  2  0  0  0  0
 57 55  1  0  0  0  0
 58 65  1  0  0  0  0
 58 57  1  0  0  0  0
 59 61  2  0  0  0  0
 59 62  1  0  0  0  0
 60 65  2  0  0  0  0
 61 60  1  0  0  0  0
 62 58  2  0  0  0  0
 63 59  1  0  0  0  0
 64 62  1  0  0  0  0
M  END
>  <MODEL>
1

>  <REMARK>
 VINA RESULT:      -6.2      0.000      0.000
  Name = 
  10 active torsions:
  status: ('A' for Active; 'I' for Inactive)
    1  A    between atoms: C_2  and  C_18
    2  A    between atoms: C_2  and  C_35
    3  A    between atoms: C_4  and  C_25
    4  A    between atoms: C_7  and  C_12
    5  A    between atoms: C_15  and  C_25
    6  A    between atoms: C_15  and  C_41
    7  A    between atoms: C_19  and  C_52
    8  A    between atoms: C_39  and  C_45
    9  A    between atoms: C_50  and  C_60
   10  A    between atoms: C_56  and  C_61
                            x       y       z     vdW  Elec       q    Type
                         _______ _______ _______ _____ _____    ______ ____

>  <TORSDO>
F 10

$$$$
=
 OpenBabel11042416393D

 65 74  0  0  1  0  0  0  0  0999 V2000
  187.8730  175.4160  139.6580 C   0  0  0  0  0  0  0  0  0  0  0  0
  192.4500  175.1200  144.5760 C   0  0  0  0  0  2  0  0  0  0  0  0
  188.0450  177.6920  145.1500 N   0  0  0  0  0  2  0  0  0  0  0  0
  189.4380  173.5100  139.7190 C   0  0  0  0  0  0  0  0  0  0  0  0
  187.2860  177.8730  143.8940 C   0  0  1  0  0  3  0  0  0  0  0  0
  185.7930  176.5650  139.7770 N   0  0  0  0  0  0  0  0  0  0  0  0
  189.2250  175.6280  141.7050 N   0  0  0  0  0  0  0  0  0  0  0  0
  183.7100  178.4890  143.7330 C   0  0  0  0  0  3  0  0  0  0  0  0
  192.5580  176.4690  142.4340 C   0  0  0  0  0  2  0  0  0  0  0  0
  182.7640  178.8800  141.5480 C   0  0  0  0  0  0  0  0  0  0  0  0
  191.8400  175.4090  141.8520 O   0  0  0  0  0  0  0  0  0  0  0  0
  184.9600  177.8270  141.7410 C   0  0  0  0  0  0  0  0  0  0  0  0
  182.6650  178.9540  142.9370 C   0  0  0  0  0  3  0  0  0  0  0  0
  191.8630  171.2940  141.1340 C   0  0  0  0  0  3  0  0  0  0  0  0
  184.8660  177.9460  143.1620 C   0  0  0  0  0  0  0  0  0  0  0  0
  189.9450  172.7230  140.4790 C   0  0  0  0  0  0  0  0  0  0  0  0
  193.0920  173.4990  141.1300 C   0  0  0  0  0  2  0  0  0  0  0  0
  188.1980  175.9520  140.8980 C   0  0  0  0  0  0  0  0  0  0  0  0
  183.8910  178.3010  140.9620 C   0  0  0  0  0  3  0  0  0  0  0  0
  187.8690  177.1200  142.7540 C   0  0  0  0  0  0  0  0  0  0  0  0
  192.3150  176.5230  143.9500 C   0  0  1  0  0  0  0  0  0  0  0  0
  189.0150  176.3540  142.8300 C   0  0  1  0  0  3  0  0  0  0  0  0
  188.8060  174.5320  138.8720 C   0  0  0  0  0  2  0  0  0  0  0  0
  187.2930  176.8440  141.5490 C   0  0  0  0  0  0  0  0  0  0  0  0
  189.7400  176.1520  144.1210 C   0  0  1  0  0  3  0  0  0  0  0  0
  193.0870  174.1200  143.6060 C   0  0  0  0  0  2  0  0  0  0  0  0
  186.6690  175.7810  139.1250 N   0  0  0  0  0  0  0  0  0  0  0  0
  190.9260  177.1250  144.2370 C   0  0  0  0  0  2  0  0  0  0  0  0
  193.0150  171.9950  141.0740 C   0  0  0  0  0  0  0  0  0  0  0  0
  188.7000  176.3720  145.2480 C   0  0  1  0  0  3  0  0  0  0  0  0
  190.5050  171.8240  141.4910 C   0  0  0  0  0  2  0  0  0  0  0  0
  185.8910  177.5160  144.0690 N   0  0  0  0  0  2  0  0  0  0  0  0
  192.3250  174.1420  142.2720 C   0  0  1  0  0  3  0  0  0  0  0  0
  186.0400  177.0990  141.0160 C   0  0  0  0  0  0  0  0  0  0  0  0
  195.4390  171.7040  141.4870 C   0  0  1  0  0  3  0  0  0  0  0  0
  195.2120  172.1930  140.1870 O   0  0  0  0  0  0  0  0  0  0  0  0
  194.2680  171.2720  140.6850 C   0  0  2  0  0  3  0  0  0  0  0  0
  196.5210  170.6250  141.4390 C   0  0  2  0  0  3  0  0  0  0  0  0
  196.2960  169.7470  140.3610 O   0  0  0  0  0  0  0  0  0  0  0  0
  197.8560  168.1730  141.2650 N   0  0  0  0  0  2  0  0  0  0  0  0
  196.7500  169.8360  142.7570 C   0  0  2  0  0  3  0  0  0  0  0  0
  197.5190  169.0850  140.1530 C   0  0  0  0  0  2  0  0  0  0  0  0
  196.9840  168.3560  142.4350 C   0  0  0  0  0  2  0  0  0  0  0  0
  195.6100  169.9340  143.7700 C   0  0  0  0  0  2  0  0  0  0  0  0
  196.1000  170.4880  145.0650 C   0  0  0  0  0  0  0  0  0  0  0  0
  195.4800  171.4350  145.6110 O   0  0  0  0  0  0  0  0  0  0  0  0
  197.2250  169.9520  145.6780 O   0  0  0  0  0  1  0  0  0  0  0  0
  180.5900  178.3570  140.6540 N   0  0  0  0  0  1  0  0  0  0  0  0
  181.6440  179.3570  140.6900 C   0  0  0  0  0  2  0  0  0  0  0  0
  190.2980  176.7520  147.1130 C   0  0  0  0  0  3  0  0  0  0  0  0
  189.2260  176.1200  146.6320 C   0  0  0  0  0  3  0  0  0  0  0  0
  190.7890  176.4850  148.5000 C   0  0  2  0  0  3  0  0  0  0  0  0
  191.6080  177.6650  148.9930 C   0  0  0  0  0  1  0  0  0  0  0  0
  191.6200  175.2970  148.4960 N   0  0  0  0  0  1  0  0  0  0  0  0
  193.3220  177.4760  144.6060 C   0  0  0  0  0  2  0  0  0  0  0  0
  194.4080  176.9200  146.6670 O   0  0  0  0  0  0  0  0  0  0  0  0
  194.4220  176.8300  145.4080 C   0  0  0  0  0  0  0  0  0  0  0  0
  195.5660  176.1850  144.7140 C   0  0  0  0  0  0  0  0  0  0  0  0
  197.2800  174.4530  144.5510 C   0  0  0  0  0  0  0  0  0  0  0  0
  197.1990  176.2230  142.9030 C   0  0  0  0  0  3  0  0  0  0  0  0
  197.7920  175.0610  143.4020 C   0  0  0  0  0  3  0  0  0  0  0  0
  196.1710  175.0050  145.2090 C   0  0  0  0  0  0  0  0  0  0  0  0
  197.8730  173.3320  145.0350 F   0  0  0  0  0  0  0  0  0  0  0  0
  195.7080  174.3980  146.3320 F   0  0  0  0  0  0  0  0  0  0  0  0
  196.0940  176.7790  143.5560 C   0  0  0  0  0  3  0  0  0  0  0  0
  1 18  1  0  0  0  0
  3 30  1  0  0  0  0
  4 16  3  0  0  0  0
  5 20  1  6  0  0  0
  5 32  1  0  0  0  0
  5  3  1  0  0  0  0
  6 34  2  0  0  0  0
  9 21  1  0  0  0  0
 10 13  1  0  0  0  0
 11 33  1  0  0  0  0
 11  9  1  0  0  0  0
 12 15  2  0  0  0  0
 13  8  2  0  0  0  0
 14 31  1  0  0  0  0
 15  8  1  0  0  0  0
 15 32  1  0  0  0  0
 16 31  1  0  0  0  0
 18 24  1  0  0  0  0
 18  7  2  0  0  0  0
 19 10  2  0  0  0  0
 19 12  1  0  0  0  0
 20 22  1  0  0  0  0
 21 28  1  0  0  0  0
 21  2  1  0  0  0  0
 21 55  1  1  0  0  0
 22  7  1  1  0  0  0
 22 25  1  0  0  0  0
 23  1  1  0  0  0  0
 23  4  1  0  0  0  0
 24 20  2  0  0  0  0
 25 28  1  1  0  0  0
 25 30  1  0  0  0  0
 26  2  1  0  0  0  0
 27  1  2  0  0  0  0
 27  6  1  0  0  0  0
 29 17  1  0  0  0  0
 29 14  2  0  0  0  0
 30 51  1  1  0  0  0
 33 17  1  6  0  0  0
 33 26  1  0  0  0  0
 34 24  1  0  0  0  0
 34 12  1  0  0  0  0
 35 36  1  6  0  0  0
 36 37  1  0  0  0  0
 37 29  1  1  0  0  0
 37 35  1  0  0  0  0
 38 39  1  6  0  0  0
 38 35  1  0  0  0  0
 38 41  1  0  0  0  0
 40 43  1  0  0  0  0
 41 44  1  1  0  0  0
 42 39  1  0  0  0  0
 42 40  1  0  0  0  0
 43 41  1  0  0  0  0
 44 45  1  0  0  0  0
 45 46  2  0  0  0  0
 45 47  1  0  0  0  0
 48 49  1  0  0  0  0
 49 10  1  0  0  0  0
 50 52  1  0  0  0  0
 51 50  2  0  0  0  0
 52 53  1  6  0  0  0
 54 52  1  0  0  0  0
 55 57  1  0  0  0  0
 57 56  2  0  0  0  0
 58 62  1  0  0  0  0
 58 57  1  0  0  0  0
 59 63  1  0  0  0  0
 59 62  2  0  0  0  0
 60 61  2  0  0  0  0
 60 65  1  0  0  0  0
 61 59  1  0  0  0  0
 62 64  1  0  0  0  0
 65 58  2  0  0  0  0
M  END
>  <MODEL>
2

>  <REMARK>
 VINA RESULT:      -6.1      3.590      7.895
  Name = 
  10 active torsions:
  status: ('A' for Active; 'I' for Inactive)
    1  A    between atoms: C_2  and  C_18
    2  A    between atoms: C_2  and  C_35
    3  A    between atoms: C_4  and  C_25
    4  A    between atoms: C_7  and  C_12
    5  A    between atoms: C_15  and  C_25
    6  A    between atoms: C_15  and  C_41
    7  A    between atoms: C_19  and  C_52
    8  A    between atoms: C_39  and  C_45
    9  A    between atoms: C_50  and  C_60
   10  A    between atoms: C_56  and  C_61
                            x       y       z     vdW  Elec       q    Type
                         _______ _______ _______ _____ _____    ______ ____

>  <TORSDO>
F 10

$$$$
=
 OpenBabel11042416393D

 65 74  0  0  1  0  0  0  0  0999 V2000
  190.5010  171.2820  138.3770 C   0  0  0  0  0  0  0  0  0  0  0  0
  191.5160  175.1090  143.8130 C   0  0  0  0  0  2  0  0  0  0  0  0
  195.4230  172.9930  141.2430 N   0  0  0  0  0  2  0  0  0  0  0  0
  188.8030  172.9640  138.9870 C   0  0  0  0  0  0  0  0  0  0  0  0
  195.0100  171.9800  140.2480 C   0  0  1  0  0  3  0  0  0  0  0  0
  192.2060  170.2380  137.0880 N   0  0  0  0  0  0  0  0  0  0  0  0
  191.3680  172.5540  140.2980 N   0  0  0  0  0  0  0  0  0  0  0  0
  197.0040  171.0030  137.3730 C   0  0  0  0  0  3  0  0  0  0  0  0
  190.6270  172.7390  143.7280 C   0  0  0  0  0  2  0  0  0  0  0  0
  196.1360  169.2250  135.9920 C   0  0  0  0  0  0  0  0  0  0  0  0
  190.0480  173.1100  142.5020 O   0  0  0  0  0  0  0  0  0  0  0  0
  194.6400  170.4030  137.5230 C   0  0  0  0  0  0  0  0  0  0  0  0
  197.2010  170.0280  136.3980 C   0  0  0  0  0  3  0  0  0  0  0  0
  187.4710  175.8320  140.6600 C   0  0  0  0  0  3  0  0  0  0  0  0
  195.7480  171.1940  137.9610 C   0  0  0  0  0  0  0  0  0  0  0  0
  188.6890  174.1050  139.3630 C   0  0  0  0  0  0  0  0  0  0  0  0
  187.9530  174.2680  142.5810 C   0  0  0  0  0  2  0  0  0  0  0  0
  191.4790  171.6830  139.2790 C   0  0  0  0  0  0  0  0  0  0  0  0
  194.8670  169.4300  136.5360 C   0  0  0  0  0  3  0  0  0  0  0  0
  193.5360  171.9110  140.0730 C   0  0  0  0  0  0  0  0  0  0  0  0
  191.8440  173.6210  144.0440 C   0  0  1  0  0  0  0  0  0  0  0  0
  192.6300  172.6780  140.7780 C   0  0  1  0  0  3  0  0  0  0  0  0
  189.0350  171.5750  138.5680 C   0  0  0  0  0  2  0  0  0  0  0  0
  192.8390  171.3030  139.0710 C   0  0  0  0  0  0  0  0  0  0  0  0
  193.0750  173.7250  141.7470 C   0  0  1  0  0  3  0  0  0  0  0  0
  190.0120  175.3430  143.6430 C   0  0  0  0  0  2  0  0  0  0  0  0
  190.9130  170.5310  137.3130 N   0  0  0  0  0  0  0  0  0  0  0  0
  193.0470  173.1800  143.1850 C   0  0  0  0  0  2  0  0  0  0  0  0
  187.2000  175.3840  141.9030 C   0  0  0  0  0  0  0  0  0  0  0  0
  194.5010  174.1450  141.3160 C   0  0  1  0  0  3  0  0  0  0  0  0
  188.6700  175.4950  139.8230 C   0  0  0  0  0  2  0  0  0  0  0  0
  195.6570  172.2090  138.9700 N   0  0  0  0  0  2  0  0  0  0  0  0
  189.4660  174.4030  142.5560 C   0  0  1  0  0  3  0  0  0  0  0  0
  193.2210  170.6310  137.9210 C   0  0  0  0  0  0  0  0  0  0  0  0
  185.9340  177.2940  142.8420 C   0  0  1  0  0  3  0  0  0  0  0  0
  186.2220  176.3480  143.8430 O   0  0  0  0  0  0  0  0  0  0  0  0
  185.9330  175.8370  142.5630 C   0  0  2  0  0  3  0  0  0  0  0  0
  184.4960  177.7860  143.0100 C   0  0  2  0  0  3  0  0  0  0  0  0
  184.0900  178.5200  141.8790 O   0  0  0  0  0  0  0  0  0  0  0  0
  182.1970  179.3780  143.0660 N   0  0  0  0  0  2  0  0  0  0  0  0
  184.1960  178.5700  144.3160 C   0  0  2  0  0  3  0  0  0  0  0  0
  182.6860  178.5570  141.9390 C   0  0  0  0  0  2  0  0  0  0  0  0
  183.2660  179.7470  144.0060 C   0  0  0  0  0  2  0  0  0  0  0  0
  185.4300  179.1100  145.0390 C   0  0  0  0  0  2  0  0  0  0  0  0
  185.3350  178.8620  146.5060 C   0  0  0  0  0  0  0  0  0  0  0  0
  184.4100  178.1410  146.9570 O   0  0  0  0  0  0  0  0  0  0  0  0
  186.2730  179.4090  147.3730 O   0  0  0  0  0  1  0  0  0  0  0  0
  197.7280  168.1660  134.5300 N   0  0  0  0  0  1  0  0  0  0  0  0
  196.3330  168.1930  134.9370 C   0  0  0  0  0  2  0  0  0  0  0  0
  195.7210  175.0570  143.2800 C   0  0  0  0  0  3  0  0  0  0  0  0
  195.0860  175.2670  142.1260 C   0  0  0  0  0  3  0  0  0  0  0  0
  196.3010  176.1950  144.0560 C   0  0  2  0  0  3  0  0  0  0  0  0
  195.2000  177.1670  144.4470 C   0  0  0  0  0  1  0  0  0  0  0  0
  197.2770  176.8870  143.2380 N   0  0  0  0  0  1  0  0  0  0  0  0
  192.2770  173.4110  145.5000 C   0  0  0  0  0  2  0  0  0  0  0  0
  193.6150  174.9180  146.7930 O   0  0  0  0  0  0  0  0  0  0  0  0
  192.4740  174.6590  146.3200 C   0  0  0  0  0  0  0  0  0  0  0  0
  191.3100  175.5190  146.6560 C   0  0  0  0  0  0  0  0  0  0  0  0
  188.9460  175.8230  147.1860 C   0  0  0  0  0  0  0  0  0  0  0  0
  190.3820  177.7550  146.9440 C   0  0  0  0  0  3  0  0  0  0  0  0
  189.1210  177.2090  147.1980 C   0  0  0  0  0  3  0  0  0  0  0  0
  190.0310  174.9750  146.9190 C   0  0  0  0  0  0  0  0  0  0  0  0
  187.7130  175.3030  147.4200 F   0  0  0  0  0  0  0  0  0  0  0  0
  189.8220  173.6330  146.8990 F   0  0  0  0  0  0  0  0  0  0  0  0
  191.4660  176.9150  146.6750 C   0  0  0  0  0  3  0  0  0  0  0  0
  1 23  1  0  0  0  0
  1 18  1  0  0  0  0
  2 21  1  0  0  0  0
  3 30  1  0  0  0  0
  4 16  3  0  0  0  0
  5 32  1  6  0  0  0
  5  3  1  0  0  0  0
  6 27  1  0  0  0  0
  6 34  2  0  0  0  0
  7 22  1  0  0  0  0
  8 15  1  0  0  0  0
  9 21  1  0  0  0  0
 10 13  1  0  0  0  0
 10 19  2  0  0  0  0
 11 33  1  0  0  0  0
 11  9  1  0  0  0  0
 12 34  1  0  0  0  0
 12 15  2  0  0  0  0
 13  8  2  0  0  0  0
 14 29  2  0  0  0  0
 15 32  1  0  0  0  0
 16 31  1  0  0  0  0
 18  7  2  0  0  0  0
 19 12  1  0  0  0  0
 20  5  1  0  0  0  0
 21 55  1  1  0  0  0
 22 20  1  6  0  0  0
 22 25  1  0  0  0  0
 23  4  1  0  0  0  0
 24 18  1  0  0  0  0
 24 20  2  0  0  0  0
 25 28  1  1  0  0  0
 26  2  1  0  0  0  0
 27  1  2  0  0  0  0
 28 21  1  0  0  0  0
 29 17  1  0  0  0  0
 30 25  1  0  0  0  0
 30 51  1  1  0  0  0
 31 14  1  0  0  0  0
 33 17  1  1  0  0  0
 33 26  1  0  0  0  0
 34 24  1  0  0  0  0
 35 38  1  0  0  0  0
 35 36  1  1  0  0  0
 37 29  1  6  0  0  0
 37 35  1  0  0  0  0
 37 36  1  0  0  0  0
 38 39  1  6  0  0  0
 38 41  1  0  0  0  0
 39 42  1  0  0  0  0
 40 43  1  0  0  0  0
 41 44  1  6  0  0  0
 42 40  1  0  0  0  0
 43 41  1  0  0  0  0
 44 45  1  0  0  0  0
 45 46  2  0  0  0  0
 45 47  1  0  0  0  0
 48 49  1  0  0  0  0
 49 10  1  0  0  0  0
 50 52  1  0  0  0  0
 51 50  2  0  0  0  0
 52 53  1  6  0  0  0
 54 52  1  0  0  0  0
 55 57  1  0  0  0  0
 57 58  1  0  0  0  0
 57 56  2  0  0  0  0
 58 65  2  0  0  0  0
 58 62  1  0  0  0  0
 59 61  1  0  0  0  0
 59 63  1  0  0  0  0
 60 61  2  0  0  0  0
 62 59  2  0  0  0  0
 64 62  1  0  0  0  0
 65 60  1  0  0  0  0
M  END
>  <MODEL>
3

>  <REMARK>
 VINA RESULT:      -5.1      3.949     11.601
  Name = 
  10 active torsions:
  status: ('A' for Active; 'I' for Inactive)
    1  A    between atoms: C_2  and  C_18
    2  A    between atoms: C_2  and  C_35
    3  A    between atoms: C_4  and  C_25
    4  A    between atoms: C_7  and  C_12
    5  A    between atoms: C_15  and  C_25
    6  A    between atoms: C_15  and  C_41
    7  A    between atoms: C_19  and  C_52
    8  A    between atoms: C_39  and  C_45
    9  A    between atoms: C_50  and  C_60
   10  A    between atoms: C_56  and  C_61
                            x       y       z     vdW  Elec       q    Type
                         _______ _______ _______ _____ _____    ______ ____

>  <TORSDO>
F 10

$$$$
=
 OpenBabel11042416393D

 65 74  0  0  1  0  0  0  0  0999 V2000
  188.8070  172.9110  138.8430 C   0  0  0  0  0  0  0  0  0  0  0  0
  189.1370  177.0760  144.1130 C   0  0  0  0  0  2  0  0  0  0  0  0
  193.0420  173.9800  142.8800 N   0  0  0  0  0  2  0  0  0  0  0  0
  187.4080  174.9420  138.8490 C   0  0  0  0  0  0  0  0  0  0  0  0
  192.7010  172.9560  141.8690 C   0  0  1  0  0  3  0  0  0  0  0  0
  190.5300  171.4230  138.1510 N   0  0  0  0  0  0  0  0  0  0  0  0
  189.3850  174.2090  140.8540 N   0  0  0  0  0  0  0  0  0  0  0  0
  195.1300  171.2980  139.7370 C   0  0  0  0  0  3  0  0  0  0  0  0
  187.8190  174.9220  143.9170 C   0  0  0  0  0  2  0  0  0  0  0  0
  194.3000  169.5680  138.2720 C   0  0  0  0  0  0  0  0  0  0  0  0
  187.6780  175.2520  142.5580 O   0  0  0  0  0  0  0  0  0  0  0  0
  192.7390  171.1760  139.2470 C   0  0  0  0  0  0  0  0  0  0  0  0
  195.3660  170.1970  138.9150 C   0  0  0  0  0  3  0  0  0  0  0  0
  186.3220  178.1830  139.9080 C   0  0  0  0  0  3  0  0  0  0  0  0
  193.8340  171.7870  139.9340 C   0  0  0  0  0  0  0  0  0  0  0  0
  187.4440  176.1190  139.1100 C   0  0  0  0  0  0  0  0  0  0  0  0
  185.9340  176.7860  141.9750 C   0  0  0  0  0  2  0  0  0  0  0  0
  189.5740  173.2210  139.9590 C   0  0  0  0  0  0  0  0  0  0  0  0
  193.0070  170.0700  138.4220 C   0  0  0  0  0  3  0  0  0  0  0  0
  191.3470  173.1460  141.2880 C   0  0  0  0  0  0  0  0  0  0  0  0
  189.0680  175.5890  144.5130 C   0  0  1  0  0  0  0  0  0  0  0  0
  190.4710  174.1460  141.6630 C   0  0  1  0  0  3  0  0  0  0  0  0
  187.4410  173.4950  138.5940 C   0  0  0  0  0  2  0  0  0  0  0  0
  190.8270  172.5700  140.1670 C   0  0  0  0  0  0  0  0  0  0  0  0
  190.8550  175.1950  142.6560 C   0  0  1  0  0  3  0  0  0  0  0  0
  187.8170  177.5680  143.5110 C   0  0  0  0  0  2  0  0  0  0  0  0
  189.3170  171.9790  137.9840 N   0  0  0  0  0  0  0  0  0  0  0  0
  190.3320  174.8340  144.0560 C   0  0  0  0  0  2  0  0  0  0  0  0
  185.6430  177.9390  141.0480 C   0  0  0  0  0  0  0  0  0  0  0  0
  192.4010  175.2860  142.6220 C   0  0  1  0  0  3  0  0  0  0  0  0
  187.6010  177.5320  139.4650 C   0  0  0  0  0  2  0  0  0  0  0  0
  193.6970  172.9100  140.8150 N   0  0  0  0  0  2  0  0  0  0  0  0
  187.3920  176.6300  142.3700 C   0  0  1  0  0  3  0  0  0  0  0  0
  191.3480  171.7110  139.2140 C   0  0  0  0  0  0  0  0  0  0  0  0
  183.2720  178.2520  140.4060 C   0  0  1  0  0  3  0  0  0  0  0  0
  184.0170  179.4140  140.1380 O   0  0  0  0  0  0  0  0  0  0  0  0
  184.3730  178.6950  141.2950 C   0  0  2  0  0  3  0  0  0  0  0  0
  181.9270  178.6430  141.0200 C   0  0  2  0  0  3  0  0  0  0  0  0
  181.8840  178.2880  142.3820 O   0  0  0  0  0  0  0  0  0  0  0  0
  179.5110  178.6060  142.4300 N   0  0  0  0  0  2  0  0  0  0  0  0
  180.6660  178.1290  140.2740 C   0  0  2  0  0  3  0  0  0  0  0  0
  180.8310  179.0400  142.9340 C   0  0  0  0  0  2  0  0  0  0  0  0
  179.6130  177.6810  141.2920 C   0  0  0  0  0  2  0  0  0  0  0  0
  180.9190  176.9760  139.3030 C   0  0  0  0  0  2  0  0  0  0  0  0
  179.7600  176.7930  138.3840 C   0  0  0  0  0  0  0  0  0  0  0  0
  179.7920  175.8890  137.5130 O   0  0  0  0  0  0  0  0  0  0  0  0
  178.6390  177.6060  138.4970 O   0  0  0  0  0  1  0  0  0  0  0  0
  193.9150  168.6320  136.0880 N   0  0  0  0  0  1  0  0  0  0  0  0
  194.5460  168.4030  137.3780 C   0  0  0  0  0  2  0  0  0  0  0  0
  193.4570  176.1090  144.7160 C   0  0  0  0  0  3  0  0  0  0  0  0
  192.9750  176.3630  143.4980 C   0  0  0  0  0  3  0  0  0  0  0  0
  194.0320  177.2030  145.5580 C   0  0  2  0  0  3  0  0  0  0  0  0
  195.4350  177.5380  145.0800 C   0  0  0  0  0  1  0  0  0  0  0  0
  194.0920  176.7650  146.9390 N   0  0  0  0  0  1  0  0  0  0  0  0
  189.0450  175.4690  146.0410 C   0  0  0  0  0  2  0  0  0  0  0  0
  190.0410  177.2390  147.3100 O   0  0  0  0  0  0  0  0  0  0  0  0
  188.9840  176.7650  146.8070 C   0  0  0  0  0  0  0  0  0  0  0  0
  187.6750  177.4210  147.0560 C   0  0  0  0  0  0  0  0  0  0  0  0
  186.3160  179.2100  148.0140 C   0  0  0  0  0  0  0  0  0  0  0  0
  185.2440  177.3620  146.8780 C   0  0  0  0  0  3  0  0  0  0  0  0
  185.1540  178.5680  147.5760 C   0  0  0  0  0  3  0  0  0  0  0  0
  187.5750  178.6460  147.7580 C   0  0  0  0  0  0  0  0  0  0  0  0
  186.2160  180.3750  148.7040 F   0  0  0  0  0  0  0  0  0  0  0  0
  188.6830  179.2860  148.2120 F   0  0  0  0  0  0  0  0  0  0  0  0
  186.4960  176.7930  146.6210 C   0  0  0  0  0  3  0  0  0  0  0  0
  1 18  1  0  0  0  0
  2 21  1  0  0  0  0
  4 16  3  0  0  0  0
  5 32  1  6  0  0  0
  5  3  1  0  0  0  0
  6 34  2  0  0  0  0
  8 15  1  0  0  0  0
  9 21  1  0  0  0  0
 10 19  2  0  0  0  0
 10 13  1  0  0  0  0
 11  9  1  0  0  0  0
 12 15  2  0  0  0  0
 13  8  2  0  0  0  0
 14 29  2  0  0  0  0
 15 32  1  0  0  0  0
 16 31  1  0  0  0  0
 18 24  1  0  0  0  0
 18  7  2  0  0  0  0
 19 12  1  0  0  0  0
 20 22  1  0  0  0  0
 20  5  1  0  0  0  0
 21 55  1  1  0  0  0
 22  7  1  6  0  0  0
 22 25  1  0  0  0  0
 23  1  1  0  0  0  0
 23  4  1  0  0  0  0
 24 20  2  0  0  0  0
 25 28  1  1  0  0  0
 26  2  1  0  0  0  0
 27  6  1  0  0  0  0
 27  1  2  0  0  0  0
 28 21  1  0  0  0  0
 29 17  1  0  0  0  0
 30 25  1  0  0  0  0
 30  3  1  0  0  0  0
 30 51  1  1  0  0  0
 31 14  1  0  0  0  0
 33 17  1  1  0  0  0
 33 11  1  0  0  0  0
 33 26  1  0  0  0  0
 34 12  1  0  0  0  0
 34 24  1  0  0  0  0
 35 36  1  6  0  0  0
 35 38  1  0  0  0  0
 35 37  1  0  0  0  0
 36 37  1  0  0  0  0
 37 29  1  6  0  0  0
 38 39  1  1  0  0  0
 39 42  1  0  0  0  0
 40 42  1  0  0  0  0
 41 44  1  6  0  0  0
 41 38  1  0  0  0  0
 41 43  1  0  0  0  0
 43 40  1  0  0  0  0
 45 47  1  0  0  0  0
 45 44  1  0  0  0  0
 46 45  2  0  0  0  0
 48 49  1  0  0  0  0
 49 10  1  0  0  0  0
 50 52  1  0  0  0  0
 51 50  2  0  0  0  0
 52 53  1  6  0  0  0
 52 54  1  0  0  0  0
 55 57  1  0  0  0  0
 57 58  1  0  0  0  0
 57 56  2  0  0  0  0
 58 62  1  0  0  0  0
 59 63  1  0  0  0  0
 60 61  2  0  0  0  0
 61 59  1  0  0  0  0
 62 59  2  0  0  0  0
 62 64  1  0  0  0  0
 65 60  1  0  0  0  0
 65 58  2  0  0  0  0
M  END
>  <MODEL>
4

>  <REMARK>
 VINA RESULT:      -3.7      4.531     11.908
  Name = 
  10 active torsions:
  status: ('A' for Active; 'I' for Inactive)
    1  A    between atoms: C_2  and  C_18
    2  A    between atoms: C_2  and  C_35
    3  A    between atoms: C_4  and  C_25
    4  A    between atoms: C_7  and  C_12
    5  A    between atoms: C_15  and  C_25
    6  A    between atoms: C_15  and  C_41
    7  A    between atoms: C_19  and  C_52
    8  A    between atoms: C_39  and  C_45
    9  A    between atoms: C_50  and  C_60
   10  A    between atoms: C_56  and  C_61
                            x       y       z     vdW  Elec       q    Type
                         _______ _______ _______ _____ _____    ______ ____

>  <TORSDO>
F 10

$$$$
=
 OpenBabel11042416393D

 65 74  0  0  1  0  0  0  0  0999 V2000
  187.5280  175.4690  138.9380 C   0  0  0  0  0  0  0  0  0  0  0  0
  192.1900  174.2910  143.6390 C   0  0  0  0  0  2  0  0  0  0  0  0
  188.0110  177.1000  144.6370 N   0  0  0  0  0  2  0  0  0  0  0  0
  188.9430  173.4590  138.7390 C   0  0  0  0  0  0  0  0  0  0  0  0
  187.2380  177.4760  143.4340 C   0  0  1  0  0  3  0  0  0  0  0  0
  185.5470  176.7480  139.2510 N   0  0  0  0  0  0  0  0  0  0  0  0
  188.9440  175.3520  140.9490 N   0  0  0  0  0  0  0  0  0  0  0  0
  183.7170  178.3680  143.4600 C   0  0  0  0  0  3  0  0  0  0  0  0
  192.3480  175.8580  141.6560 C   0  0  0  0  0  2  0  0  0  0  0  0
  182.7500  179.0690  141.3630 C   0  0  0  0  0  0  0  0  0  0  0  0
  191.5370  174.9250  140.9850 O   0  0  0  0  0  0  0  0  0  0  0  0
  184.8630  177.8420  141.3670 C   0  0  0  0  0  0  0  0  0  0  0  0
  182.6920  178.9950  142.7540 C   0  0  0  0  0  3  0  0  0  0  0  0
  191.2250  170.9260  139.8220 C   0  0  0  0  0  3  0  0  0  0  0  0
  184.8140  177.8080  142.7950 C   0  0  0  0  0  0  0  0  0  0  0  0
  189.4070  172.5560  139.3910 C   0  0  0  0  0  0  0  0  0  0  0  0
  192.6200  173.0210  140.0170 C   0  0  0  0  0  2  0  0  0  0  0  0
  187.9250  175.8390  140.2170 C   0  0  0  0  0  0  0  0  0  0  0  0
  183.8140  178.4770  140.6810 C   0  0  0  0  0  3  0  0  0  0  0  0
  187.7330  176.8130  142.1990 C   0  0  0  0  0  0  0  0  0  0  0  0
  192.1480  175.7600  143.1750 C   0  0  1  0  0  0  0  0  0  0  0  0
  188.8180  175.9610  142.1540 C   0  0  1  0  0  3  0  0  0  0  0  0
  188.3710  174.6120  138.0300 C   0  0  0  0  0  2  0  0  0  0  0  0
  187.1070  176.7160  140.9920 C   0  0  0  0  0  0  0  0  0  0  0  0
  189.5570  175.5640  143.3900 C   0  0  1  0  0  3  0  0  0  0  0  0
  192.7240  173.3610  142.5460 C   0  0  0  0  0  2  0  0  0  0  0  0
  186.3430  175.9790  138.4880 N   0  0  0  0  0  0  0  0  0  0  0  0
  190.8160  176.4280  143.5720 C   0  0  0  0  0  2  0  0  0  0  0  0
  192.4250  171.5420  139.8000 C   0  0  0  0  0  0  0  0  0  0  0  0
  188.5650  175.7330  144.5680 C   0  0  1  0  0  3  0  0  0  0  0  0
  189.9210  171.5110  140.2790 C   0  0  0  0  0  2  0  0  0  0  0  0
  185.8240  177.2050  143.6150 N   0  0  0  0  0  2  0  0  0  0  0  0
  191.9330  173.5870  141.2480 C   0  0  1  0  0  3  0  0  0  0  0  0
  185.8650  177.1210  140.5310 C   0  0  0  0  0  0  0  0  0  0  0  0
  193.7140  170.8180  137.8140 C   0  0  1  0  0  3  0  0  0  0  0  0
  193.1740  169.7070  138.4870 O   0  0  0  0  0  0  0  0  0  0  0  0
  193.6100  170.7770  139.2930 C   0  0  2  0  0  3  0  0  0  0  0  0
  195.1500  170.5030  137.3910 C   0  0  2  0  0  3  0  0  0  0  0  0
  195.9060  170.0680  138.4960 O   0  0  0  0  0  0  0  0  0  0  0  0
  197.9410  170.3690  137.2730 N   0  0  0  0  0  2  0  0  0  0  0  0
  195.8920  171.6290  136.6220 C   0  0  2  0  0  3  0  0  0  0  0  0
  197.0320  169.4240  137.9520 C   0  0  0  0  0  2  0  0  0  0  0  0
  197.3470  171.7020  137.0950 C   0  0  0  0  0  2  0  0  0  0  0  0
  195.2700  173.0190  136.7600 C   0  0  0  0  0  2  0  0  0  0  0  0
  194.7640  173.5050  135.4440 C   0  0  0  0  0  0  0  0  0  0  0  0
  195.5760  173.9180  134.5790 O   0  0  0  0  0  0  0  0  0  0  0  0
  193.4030  173.4880  135.1650 O   0  0  0  0  0  1  0  0  0  0  0  0
  180.4570  178.8900  140.6510 N   0  0  0  0  0  1  0  0  0  0  0  0
  181.6490  179.7200  140.6000 C   0  0  0  0  0  2  0  0  0  0  0  0
  190.2620  175.7420  146.3840 C   0  0  0  0  0  3  0  0  0  0  0  0
  189.1040  175.2900  145.8980 C   0  0  0  0  0  3  0  0  0  0  0  0
  190.7640  175.2890  147.7170 C   0  0  2  0  0  3  0  0  0  0  0  0
  189.6600  174.5600  148.4640 C   0  0  0  0  0  1  0  0  0  0  0  0
  191.1800  176.4420  148.4920 N   0  0  0  0  0  1  0  0  0  0  0  0
  193.2410  176.5580  143.8970 C   0  0  0  0  0  2  0  0  0  0  0  0
  193.6380  175.8880  146.1620 O   0  0  0  0  0  0  0  0  0  0  0  0
  194.0120  175.8160  144.9590 C   0  0  0  0  0  0  0  0  0  0  0  0
  195.2600  175.0940  144.6030 C   0  0  0  0  0  0  0  0  0  0  0  0
  196.7200  173.1400  144.7200 C   0  0  0  0  0  0  0  0  0  0  0  0
  197.4490  175.1160  143.5290 C   0  0  0  0  0  3  0  0  0  0  0  0
  197.6880  173.8120  143.9690 C   0  0  0  0  0  3  0  0  0  0  0  0
  195.5080  173.7710  145.0380 C   0  0  0  0  0  0  0  0  0  0  0  0
  196.9680  171.8780  145.1540 F   0  0  0  0  0  0  0  0  0  0  0  0
  194.5960  173.0960  145.7850 F   0  0  0  0  0  0  0  0  0  0  0  0
  196.2440  175.7510  143.8450 C   0  0  0  0  0  3  0  0  0  0  0  0
  1 18  1  0  0  0  0
  4 16  3  0  0  0  0
  5 20  1  6  0  0  0
  5 32  1  0  0  0  0
  5  3  1  0  0  0  0
  6 34  2  0  0  0  0
  9 21  1  0  0  0  0
 10 13  1  0  0  0  0
 11 33  1  0  0  0  0
 11  9  1  0  0  0  0
 12 15  2  0  0  0  0
 13  8  2  0  0  0  0
 14 31  1  0  0  0  0
 15  8  1  0  0  0  0
 15 32  1  0  0  0  0
 16 31  1  0  0  0  0
 18  7  2  0  0  0  0
 18 24  1  0  0  0  0
 19 10  2  0  0  0  0
 19 12  1  0  0  0  0
 21 28  1  0  0  0  0
 21  2  1  0  0  0  0
 21 55  1  1  0  0  0
 22  7  1  1  0  0  0
 22 20  1  0  0  0  0
 22 25  1  0  0  0  0
 23  4  1  0  0  0  0
 23  1  1  0  0  0  0
 24 20  2  0  0  0  0
 25 28  1  1  0  0  0
 25 30  1  0  0  0  0
 26  2  1  0  0  0  0
 27  1  2  0  0  0  0
 27  6  1  0  0  0  0
 29 14  2  0  0  0  0
 29 17  1  0  0  0  0
 30  3  1  0  0  0  0
 30 51  1  1  0  0  0
 33 17  1  6  0  0  0
 33 26  1  0  0  0  0
 34 24  1  0  0  0  0
 34 12  1  0  0  0  0
 35 36  1  6  0  0  0
 35 37  1  0  0  0  0
 36 37  1  0  0  0  0
 37 29  1  6  0  0  0
 38 35  1  0  0  0  0
 38 39  1  1  0  0  0
 40 42  1  0  0  0  0
 41 44  1  1  0  0  0
 41 43  1  0  0  0  0
 41 38  1  0  0  0  0
 42 39  1  0  0  0  0
 43 40  1  0  0  0  0
 45 44  1  0  0  0  0
 46 45  2  0  0  0  0
 47 45  1  0  0  0  0
 49 48  1  0  0  0  0
 49 10  1  0  0  0  0
 50 52  1  0  0  0  0
 51 50  2  0  0  0  0
 52 53  1  1  0  0  0
 52 54  1  0  0  0  0
 55 57  1  0  0  0  0
 57 56  2  0  0  0  0
 58 57  1  0  0  0  0
 58 62  1  0  0  0  0
 59 62  2  0  0  0  0
 59 63  1  0  0  0  0
 60 65  1  0  0  0  0
 60 61  2  0  0  0  0
 61 59  1  0  0  0  0
 62 64  1  0  0  0  0
 65 58  2  0  0  0  0
M  END
>  <MODEL>
5

>  <REMARK>
 VINA RESULT:      -3.5      3.051      7.556
  Name = 
  10 active torsions:
  status: ('A' for Active; 'I' for Inactive)
    1  A    between atoms: C_2  and  C_18
    2  A    between atoms: C_2  and  C_35
    3  A    between atoms: C_4  and  C_25
    4  A    between atoms: C_7  and  C_12
    5  A    between atoms: C_15  and  C_25
    6  A    between atoms: C_15  and  C_41
    7  A    between atoms: C_19  and  C_52
    8  A    between atoms: C_39  and  C_45
    9  A    between atoms: C_50  and  C_60
   10  A    between atoms: C_56  and  C_61
                            x       y       z     vdW  Elec       q    Type
                         _______ _______ _______ _____ _____    ______ ____

>  <TORSDO>
F 10

$$$$
=
 OpenBabel11042416393D

 65 74  0  0  1  0  0  0  0  0999 V2000
  186.3660  177.7100  144.9790 C   0  0  0  0  0  0  0  0  0  0  0  0
  190.3330  174.7240  140.4440 C   0  0  0  0  0  2  0  0  0  0  0  0
  185.6400  176.4070  139.2220 N   0  0  0  0  0  2  0  0  0  0  0  0
  188.8090  177.7750  145.3040 C   0  0  0  0  0  0  0  0  0  0  0  0
  184.8160  176.7900  140.3880 C   0  0  1  0  0  3  0  0  0  0  0  0
  184.1740  178.5380  144.5620 N   0  0  0  0  0  0  0  0  0  0  0  0
  187.4070  176.6660  143.0080 N   0  0  0  0  0  0  0  0  0  0  0  0
  182.0010  179.0820  140.2410 C   0  0  0  0  0  3  0  0  0  0  0  0
  189.0710  173.6410  142.3550 C   0  0  0  0  0  2  0  0  0  0  0  0
  180.7550  179.4170  142.2800 C   0  0  0  0  0  0  0  0  0  0  0  0
  189.2990  174.8420  143.0500 O   0  0  0  0  0  0  0  0  0  0  0  0
  182.9990  178.4550  142.3820 C   0  0  0  0  0  0  0  0  0  0  0  0
  180.8510  179.5220  140.8930 C   0  0  0  0  0  3  0  0  0  0  0  0
  192.2560  177.4690  144.3940 C   0  0  0  0  0  3  0  0  0  0  0  0
  183.0700  178.5300  140.9560 C   0  0  0  0  0  0  0  0  0  0  0  0
  189.8420  177.9480  144.7060 C   0  0  0  0  0  0  0  0  0  0  0  0
  191.4200  175.1010  144.1310 C   0  0  0  0  0  2  0  0  0  0  0  0
  186.3720  177.1840  143.6930 C   0  0  0  0  0  0  0  0  0  0  0  0
  181.8290  178.9100  143.0130 C   0  0  0  0  0  3  0  0  0  0  0  0
  185.5780  176.7770  141.6630 C   0  0  0  0  0  0  0  0  0  0  0  0
  189.1080  173.8750  140.8370 C   0  0  1  0  0  0  0  0  0  0  0  0
  186.9070  176.4150  141.7730 C   0  0  0  0  0  0  0  0  0  0  0  0
  187.5080  177.5370  145.9450 C   0  0  0  0  0  2  0  0  0  0  0  0
  185.2210  177.3240  142.8600 C   0  0  0  0  0  0  0  0  0  0  0  0
  187.7290  176.0720  140.5740 C   0  0  1  0  0  3  0  0  0  0  0  0
  191.3400  174.8400  141.5920 C   0  0  0  0  0  2  0  0  0  0  0  0
  185.2270  178.3510  145.3780 N   0  0  0  0  0  2  0  0  0  0  0  0
  187.7980  174.5480  140.3800 C   0  0  0  0  0  2  0  0  0  0  0  0
  192.4770  176.1380  144.4130 C   0  0  0  0  0  0  0  0  0  0  0  0
  187.0620  176.7790  139.3680 C   0  0  1  0  0  3  0  0  0  0  0  0
  191.0320  178.1700  143.8800 C   0  0  0  0  0  2  0  0  0  0  0  0
  184.1980  178.0880  140.1880 N   0  0  0  0  0  2  0  0  0  0  0  0
  190.6200  175.3260  142.8600 C   0  0  1  0  0  3  0  0  0  0  0  0
  184.1310  178.0730  143.2720 C   0  0  0  0  0  0  0  0  0  0  0  0
  193.9120  174.1690  144.8570 C   0  0  1  0  0  3  0  0  0  0  0  0
  193.5120  174.7740  146.0620 O   0  0  0  0  0  0  0  0  0  0  0  0
  193.7710  175.6400  144.9820 C   0  0  2  0  0  3  0  0  0  0  0  0
  195.3890  173.7840  144.9500 C   0  0  2  0  0  3  0  0  0  0  0  0
  196.0710  174.1550  143.7750 O   0  0  0  0  0  0  0  0  0  0  0  0
  197.9410  172.7900  144.3820 N   0  0  0  0  0  2  0  0  0  0  0  0
  195.6820  172.3040  145.3160 C   0  0  2  0  0  3  0  0  0  0  0  0
  197.4360  174.1520  144.1150 C   0  0  0  0  0  2  0  0  0  0  0  0
  196.8640  171.7940  144.4860 C   0  0  0  0  0  2  0  0  0  0  0  0
  194.5060  171.3480  145.1160 C   0  0  0  0  0  2  0  0  0  0  0  0
  194.8550  169.9750  145.5840 C   0  0  0  0  0  0  0  0  0  0  0  0
  195.0520  169.0630  144.7430 O   0  0  0  0  0  0  0  0  0  0  0  0
  194.9780  169.7060  146.9410 O   0  0  0  0  0  1  0  0  0  0  0  0
  178.8250  178.7780  143.5690 N   0  0  0  0  0  1  0  0  0  0  0  0
  179.5370  179.9030  142.9870 C   0  0  0  0  0  2  0  0  0  0  0  0
  187.2950  175.9650  137.0310 C   0  0  0  0  0  3  0  0  0  0  0  0
  187.8060  176.6240  138.0720 C   0  0  0  0  0  3  0  0  0  0  0  0
  188.0590  175.8400  135.7520 C   0  0  2  0  0  3  0  0  0  0  0  0
  189.2580  174.9290  135.9540 C   0  0  0  0  0  1  0  0  0  0  0  0
  188.5210  177.1500  135.3370 N   0  0  0  0  0  1  0  0  0  0  0  0
  189.1580  172.5300  140.1030 C   0  0  0  0  0  2  0  0  0  0  0  0
  190.9130  172.3390  138.4840 O   0  0  0  0  0  0  0  0  0  0  0  0
  190.5210  172.0700  139.6540 C   0  0  0  0  0  0  0  0  0  0  0  0
  191.3500  171.2190  140.5450 C   0  0  0  0  0  0  0  0  0  0  0  0
  193.4800  170.6340  141.5880 C   0  0  0  0  0  0  0  0  0  0  0  0
  191.5370  169.2410  141.9590 C   0  0  0  0  0  3  0  0  0  0  0  0
  192.8900  169.5130  142.1760 C   0  0  0  0  0  3  0  0  0  0  0  0
  192.7190  171.4890  140.7760 C   0  0  0  0  0  0  0  0  0  0  0  0
  194.7980  170.8810  141.7940 F   0  0  0  0  0  0  0  0  0  0  0  0
  193.3280  172.5610  140.2060 F   0  0  0  0  0  0  0  0  0  0  0  0
  190.7740  170.0880  141.1490 C   0  0  0  0  0  3  0  0  0  0  0  0
  1 27  1  0  0  0  0
  1 23  1  0  0  0  0
  2 21  1  0  0  0  0
  2 26  1  0  0  0  0
  3 30  1  0  0  0  0
  4 23  1  0  0  0  0
  5  3  1  6  0  0  0
  5 20  1  0  0  0  0
  6 27  1  0  0  0  0
  7 18  1  0  0  0  0
  8 13  2  0  0  0  0
  8 15  1  0  0  0  0
  9 11  1  0  0  0  0
 10 49  1  0  0  0  0
 10 19  2  0  0  0  0
 12 19  1  0  0  0  0
 12 34  1  0  0  0  0
 13 10  1  0  0  0  0
 14 29  2  0  0  0  0
 15 12  2  0  0  0  0
 16  4  3  0  0  0  0
 17 29  1  0  0  0  0
 18  1  2  0  0  0  0
 20 22  1  0  0  0  0
 20 24  2  0  0  0  0
 21 55  1  6  0  0  0
 21  9  1  0  0  0  0
 22  7  2  0  0  0  0
 24 34  1  0  0  0  0
 24 18  1  0  0  0  0
 25 28  1  6  0  0  0
 25 22  1  0  0  0  0
 28 21  1  0  0  0  0
 30 51  1  6  0  0  0
 30 25  1  0  0  0  0
 31 14  1  0  0  0  0
 31 16  1  0  0  0  0
 32  5  1  0  0  0  0
 32 15  1  0  0  0  0
 33 26  1  6  0  0  0
 33 11  1  0  0  0  0
 33 17  1  0  0  0  0
 34  6  2  0  0  0  0
 35 38  1  0  0  0  0
 35 37  1  0  0  0  0
 35 36  1  1  0  0  0
 37 29  1  6  0  0  0
 37 36  1  0  0  0  0
 38 39  1  6  0  0  0
 38 41  1  0  0  0  0
 39 42  1  0  0  0  0
 40 43  1  0  0  0  0
 41 44  1  6  0  0  0
 42 40  1  0  0  0  0
 43 41  1  0  0  0  0
 44 45  1  0  0  0  0
 45 47  1  0  0  0  0
 46 45  2  0  0  0  0
 49 48  1  0  0  0  0
 50 51  2  0  0  0  0
 52 53  1  1  0  0  0
 52 50  1  0  0  0  0
 54 52  1  0  0  0  0
 56 57  2  0  0  0  0
 57 55  1  0  0  0  0
 57 58  1  0  0  0  0
 58 62  2  0  0  0  0
 58 65  1  0  0  0  0
 59 63  1  0  0  0  0
 59 61  2  0  0  0  0
 60 61  1  0  0  0  0
 62 59  1  0  0  0  0
 64 62  1  0  0  0  0
 65 60  2  0  0  0  0
M  END
>  <MODEL>
6

>  <REMARK>
 VINA RESULT:      -3.4      4.097      7.561
  Name = 
  10 active torsions:
  status: ('A' for Active; 'I' for Inactive)
    1  A    between atoms: C_2  and  C_18
    2  A    between atoms: C_2  and  C_35
    3  A    between atoms: C_4  and  C_25
    4  A    between atoms: C_7  and  C_12
    5  A    between atoms: C_15  and  C_25
    6  A    between atoms: C_15  and  C_41
    7  A    between atoms: C_19  and  C_52
    8  A    between atoms: C_39  and  C_45
    9  A    between atoms: C_50  and  C_60
   10  A    between atoms: C_56  and  C_61
                            x       y       z     vdW  Elec       q    Type
                         _______ _______ _______ _____ _____    ______ ____

>  <TORSDO>
F 10

$$$$
=
 OpenBabel11042416393D

 65 74  0  0  1  0  0  0  0  0999 V2000
  189.2550  172.7250  138.4280 C   0  0  0  0  0  0  0  0  0  0  0  0
  189.5880  176.7400  143.8130 C   0  0  0  0  0  2  0  0  0  0  0  0
  193.6090  173.9340  142.2950 N   0  0  0  0  0  2  0  0  0  0  0  0
  187.7360  174.6640  138.5680 C   0  0  0  0  0  0  0  0  0  0  0  0
  193.2830  172.9210  141.2680 C   0  0  1  0  0  3  0  0  0  0  0  0
  191.0300  171.3690  137.6080 N   0  0  0  0  0  0  0  0  0  0  0  0
  189.8510  173.9950  140.4520 N   0  0  0  0  0  0  0  0  0  0  0  0
  195.7010  171.4840  138.9700 C   0  0  0  0  0  3  0  0  0  0  0  0
  188.3960  174.5150  143.6080 C   0  0  0  0  0  2  0  0  0  0  0  0
  194.9080  169.7510  137.4890 C   0  0  0  0  0  0  0  0  0  0  0  0
  188.1680  174.8770  142.2680 O   0  0  0  0  0  0  0  0  0  0  0  0
  193.3010  171.2270  138.5890 C   0  0  0  0  0  0  0  0  0  0  0  0
  195.9630  170.4250  138.1020 C   0  0  0  0  0  3  0  0  0  0  0  0
  186.5080  177.7960  139.7840 C   0  0  0  0  0  3  0  0  0  0  0  0
  194.3880  171.8850  139.2440 C   0  0  0  0  0  0  0  0  0  0  0  0
  187.7130  175.8320  138.8670 C   0  0  0  0  0  0  0  0  0  0  0  0
  186.3070  176.3160  141.8190 C   0  0  0  0  0  2  0  0  0  0  0  0
  190.0550  173.0480  139.5180 C   0  0  0  0  0  0  0  0  0  0  0  0
  193.5940  170.1660  137.7160 C   0  0  0  0  0  3  0  0  0  0  0  0
  191.8930  173.0440  140.7580 C   0  0  0  0  0  0  0  0  0  0  0  0
  189.6290  175.2400  144.1660 C   0  0  1  0  0  0  0  0  0  0  0  0
  190.9770  173.9760  141.2070 C   0  0  1  0  0  3  0  0  0  0  0  0
  187.8450  173.2300  138.2640 C   0  0  0  0  0  2  0  0  0  0  0  0
  191.3550  172.4710  139.6440 C   0  0  0  0  0  0  0  0  0  0  0  0
  191.3440  175.0150  142.2150 C   0  0  1  0  0  3  0  0  0  0  0  0
  188.2130  177.1670  143.2910 C   0  0  0  0  0  2  0  0  0  0  0  0
  189.7780  171.8530  137.5160 N   0  0  0  0  0  0  0  0  0  0  0  0
  190.9130  174.5800  143.6260 C   0  0  0  0  0  2  0  0  0  0  0  0
  185.9020  177.4750  140.9460 C   0  0  0  0  0  0  0  0  0  0  0  0
  192.8780  175.2040  142.1120 C   0  0  1  0  0  3  0  0  0  0  0  0
  187.8010  177.2400  139.2610 C   0  0  0  0  0  2  0  0  0  0  0  0
  194.2270  172.9700  140.1670 N   0  0  0  0  0  2  0  0  0  0  0  0
  187.7900  176.2390  142.1410 C   0  0  1  0  0  3  0  0  0  0  0  0
  191.8800  171.6750  138.6390 C   0  0  0  0  0  0  0  0  0  0  0  0
  183.4760  177.6170  140.4680 C   0  0  1  0  0  3  0  0  0  0  0  0
  184.1170  178.8270  140.1460 O   0  0  0  0  0  0  0  0  0  0  0  0
  184.6020  178.1430  141.2780 C   0  0  2  0  0  3  0  0  0  0  0  0
  182.1520  177.9180  141.1720 C   0  0  2  0  0  3  0  0  0  0  0  0
  181.3520  178.7630  140.3790 O   0  0  0  0  0  0  0  0  0  0  0  0
  179.9210  179.2220  142.2430 N   0  0  0  0  0  2  0  0  0  0  0  0
  182.2640  178.4620  142.6220 C   0  0  2  0  0  3  0  0  0  0  0  0
  180.0490  178.6370  140.8920 C   0  0  0  0  0  2  0  0  0  0  0  0
  181.2210  179.5620  142.8400 C   0  0  0  0  0  2  0  0  0  0  0  0
  183.6380  179.0200  142.9950 C   0  0  0  0  0  2  0  0  0  0  0  0
  184.0670  178.5210  144.3330 C   0  0  0  0  0  0  0  0  0  0  0  0
  184.8200  177.5190  144.4110 O   0  0  0  0  0  0  0  0  0  0  0  0
  183.6520  179.1680  145.4900 O   0  0  0  0  0  1  0  0  0  0  0  0
  194.0280  168.4250  135.6830 N   0  0  0  0  0  1  0  0  0  0  0  0
  195.1790  168.6320  136.5460 C   0  0  0  0  0  2  0  0  0  0  0  0
  194.1750  176.0220  144.0680 C   0  0  0  0  0  3  0  0  0  0  0  0
  193.4280  176.2880  142.9950 C   0  0  0  0  0  3  0  0  0  0  0  0
  194.7160  177.1250  144.9200 C   0  0  2  0  0  3  0  0  0  0  0  0
  196.1930  177.3270  144.6260 C   0  0  0  0  0  1  0  0  0  0  0  0
  194.5530  176.7760  146.3180 N   0  0  0  0  0  1  0  0  0  0  0  0
  189.6880  175.0730  145.6890 C   0  0  0  0  0  2  0  0  0  0  0  0
  190.7800  176.8480  146.8690 O   0  0  0  0  0  0  0  0  0  0  0  0
  189.6840  176.3450  146.4970 C   0  0  0  0  0  0  0  0  0  0  0  0
  188.3970  176.9400  146.9390 C   0  0  0  0  0  0  0  0  0  0  0  0
  187.1140  178.6440  148.1290 C   0  0  0  0  0  0  0  0  0  0  0  0
  185.9680  176.7890  147.0800 C   0  0  0  0  0  3  0  0  0  0  0  0
  185.9280  177.9700  147.8260 C   0  0  0  0  0  3  0  0  0  0  0  0
  188.3470  178.1380  147.6900 C   0  0  0  0  0  0  0  0  0  0  0  0
  187.0660  179.7820  148.8660 F   0  0  0  0  0  0  0  0  0  0  0  0
  189.4820  178.8090  148.0160 F   0  0  0  0  0  0  0  0  0  0  0  0
  187.1930  176.2790  146.6420 C   0  0  0  0  0  3  0  0  0  0  0  0
  1 18  1  0  0  0  0
  2 21  1  0  0  0  0
  4 16  3  0  0  0  0
  5 32  1  6  0  0  0
  5  3  1  0  0  0  0
  6 34  2  0  0  0  0
  8 15  1  0  0  0  0
  9 21  1  0  0  0  0
 10 19  2  0  0  0  0
 10 13  1  0  0  0  0
 11  9  1  0  0  0  0
 12 34  1  0  0  0  0
 12 15  2  0  0  0  0
 13  8  2  0  0  0  0
 14 29  2  0  0  0  0
 15 32  1  0  0  0  0
 16 31  1  0  0  0  0
 18 24  1  0  0  0  0
 18  7  2  0  0  0  0
 19 12  1  0  0  0  0
 20 22  1  0  0  0  0
 20  5  1  0  0  0  0
 21 55  1  1  0  0  0
 22  7  1  6  0  0  0
 22 25  1  0  0  0  0
 23  1  1  0  0  0  0
 23  4  1  0  0  0  0
 24 20  2  0  0  0  0
 25 28  1  1  0  0  0
 26  2  1  0  0  0  0
 27  6  1  0  0  0  0
 27  1  2  0  0  0  0
 28 21  1  0  0  0  0
 29 17  1  0  0  0  0
 30 25  1  0  0  0  0
 30  3  1  0  0  0  0
 30 51  1  1  0  0  0
 31 14  1  0  0  0  0
 33 17  1  1  0  0  0
 33 11  1  0  0  0  0
 33 26  1  0  0  0  0
 34 24  1  0  0  0  0
 35 36  1  6  0  0  0
 35 38  1  0  0  0  0
 35 37  1  0  0  0  0
 36 37  1  0  0  0  0
 37 29  1  6  0  0  0
 38 39  1  6  0  0  0
 38 41  1  0  0  0  0
 39 42  1  0  0  0  0
 40 43  1  0  0  0  0
 41 43  1  0  0  0  0
 41 44  1  6  0  0  0
 42 40  1  0  0  0  0
 44 45  1  0  0  0  0
 45 46  2  0  0  0  0
 45 47  1  0  0  0  0
 48 49  1  0  0  0  0
 49 10  1  0  0  0  0
 50 52  1  0  0  0  0
 51 50  2  0  0  0  0
 52 53  1  6  0  0  0
 52 54  1  0  0  0  0
 55 57  1  0  0  0  0
 57 56  2  0  0  0  0
 57 58  1  0  0  0  0
 58 62  1  0  0  0  0
 59 63  1  0  0  0  0
 60 61  2  0  0  0  0
 61 59  1  0  0  0  0
 62 64  1  0  0  0  0
 62 59  2  0  0  0  0
 65 58  2  0  0  0  0
 65 60  1  0  0  0  0
M  END
>  <MODEL>
7

>  <REMARK>
 VINA RESULT:      -3.4      4.282     11.765
  Name = 
  10 active torsions:
  status: ('A' for Active; 'I' for Inactive)
    1  A    between atoms: C_2  and  C_18
    2  A    between atoms: C_2  and  C_35
    3  A    between atoms: C_4  and  C_25
    4  A    between atoms: C_7  and  C_12
    5  A    between atoms: C_15  and  C_25
    6  A    between atoms: C_15  and  C_41
    7  A    between atoms: C_19  and  C_52
    8  A    between atoms: C_39  and  C_45
    9  A    between atoms: C_50  and  C_60
   10  A    between atoms: C_56  and  C_61
                            x       y       z     vdW  Elec       q    Type
                         _______ _______ _______ _____ _____    ______ ____

>  <TORSDO>
F 10

$$$$
=
 OpenBabel11042416393D

 65 74  0  0  1  0  0  0  0  0999 V2000
  187.8350  175.0450  138.4040 C   0  0  0  0  0  0  0  0  0  0  0  0
  192.7200  173.6450  142.8080 C   0  0  0  0  0  2  0  0  0  0  0  0
  188.7440  176.6390  144.0620 N   0  0  0  0  0  2  0  0  0  0  0  0
  189.1420  172.9730  138.1190 C   0  0  0  0  0  0  0  0  0  0  0  0
  187.9150  177.0530  142.9090 C   0  0  1  0  0  3  0  0  0  0  0  0
  185.9370  176.4120  138.8390 N   0  0  0  0  0  0  0  0  0  0  0  0
  189.3650  174.8590  140.3240 N   0  0  0  0  0  0  0  0  0  0  0  0
  184.4470  178.1030  143.1530 C   0  0  0  0  0  3  0  0  0  0  0  0
  192.8260  175.2080  140.8180 C   0  0  0  0  0  2  0  0  0  0  0  0
  183.3850  178.8530  141.1200 C   0  0  0  0  0  0  0  0  0  0  0  0
  191.9340  174.3140  140.2000 O   0  0  0  0  0  0  0  0  0  0  0  0
  185.4360  177.5310  140.9930 C   0  0  0  0  0  0  0  0  0  0  0  0
  183.4100  178.7780  142.5110 C   0  0  0  0  0  3  0  0  0  0  0  0
  191.3690  170.3360  139.0590 C   0  0  0  0  0  3  0  0  0  0  0  0
  185.4740  177.4960  142.4220 C   0  0  0  0  0  0  0  0  0  0  0  0
  189.6040  172.0490  138.7410 C   0  0  0  0  0  0  0  0  0  0  0  0
  192.8670  172.3660  139.1670 C   0  0  0  0  0  2  0  0  0  0  0  0
  188.3260  175.3940  139.6560 C   0  0  0  0  0  0  0  0  0  0  0  0
  184.3760  178.2150  140.3730 C   0  0  0  0  0  3  0  0  0  0  0  0
  188.3020  176.3710  141.6460 C   0  0  0  0  0  0  0  0  0  0  0  0
  192.7170  175.1160  142.3470 C   0  0  1  0  0  0  0  0  0  0  0  0
  189.3430  175.4700  141.5340 C   0  0  1  0  0  3  0  0  0  0  0  0
  188.5800  174.1530  137.4460 C   0  0  0  0  0  2  0  0  0  0  0  0
  187.5990  176.3050  140.4800 C   0  0  0  0  0  0  0  0  0  0  0  0
  190.1380  175.0370  142.7220 C   0  0  1  0  0  3  0  0  0  0  0  0
  193.1420  172.6940  141.6840 C   0  0  0  0  0  2  0  0  0  0  0  0
  186.6490  175.6100  138.0290 N   0  0  0  0  0  0  0  0  0  0  0  0
  191.4440  175.8420  142.8250 C   0  0  0  0  0  2  0  0  0  0  0  0
  192.5920  170.8970  138.9640 C   0  0  0  0  0  0  0  0  0  0  0  0
  189.2300  175.2480  143.9590 C   0  0  1  0  0  3  0  0  0  0  0  0
  190.1230  170.9790  139.5970 C   0  0  0  0  0  2  0  0  0  0  0  0
  186.5050  176.8460  143.1780 N   0  0  0  0  0  2  0  0  0  0  0  0
  192.2840  172.9600  140.4380 C   0  0  1  0  0  3  0  0  0  0  0  0
  186.3510  176.7680  140.0970 C   0  0  0  0  0  0  0  0  0  0  0  0
  193.7870  170.2050  136.9080 C   0  0  1  0  0  3  0  0  0  0  0  0
  193.1770  169.0980  137.5250 O   0  0  0  0  0  0  0  0  0  0  0  0
  193.7070  170.0800  138.3840 C   0  0  2  0  0  3  0  0  0  0  0  0
  195.1870  169.8130  136.4350 C   0  0  2  0  0  3  0  0  0  0  0  0
  195.8330  169.0220  137.4050 O   0  0  0  0  0  0  0  0  0  0  0  0
  197.9410  169.3360  136.3150 N   0  0  0  0  0  2  0  0  0  0  0  0
  196.1000  170.9830  135.9770 C   0  0  2  0  0  3  0  0  0  0  0  0
  196.8890  168.3850  136.7290 C   0  0  0  0  0  2  0  0  0  0  0  0
  197.5310  170.7400  136.4690 C   0  0  0  0  0  2  0  0  0  0  0  0
  195.6570  172.3670  136.4510 C   0  0  0  0  0  2  0  0  0  0  0  0
  196.4630  173.4340  135.7930 C   0  0  0  0  0  0  0  0  0  0  0  0
  196.4910  173.5110  134.5390 O   0  0  0  0  0  0  0  0  0  0  0  0
  197.1700  174.3540  136.5590 O   0  0  0  0  0  1  0  0  0  0  0  0
  181.0350  178.8070  140.5950 N   0  0  0  0  0  1  0  0  0  0  0  0
  182.2700  179.5550  140.4260 C   0  0  0  0  0  2  0  0  0  0  0  0
  191.1200  174.9510  145.5460 C   0  0  0  0  0  3  0  0  0  0  0  0
  189.8290  174.7780  145.2530 C   0  0  0  0  0  3  0  0  0  0  0  0
  191.6820  174.4810  146.8480 C   0  0  2  0  0  3  0  0  0  0  0  0
  190.8360  175.0070  147.9950 C   0  0  0  0  0  1  0  0  0  0  0  0
  193.0380  174.9740  146.9930 N   0  0  0  0  0  1  0  0  0  0  0  0
  193.8870  175.8610  143.0000 C   0  0  0  0  0  2  0  0  0  0  0  0
  195.6930  176.8090  141.7440 O   0  0  0  0  0  0  0  0  0  0  0  0
  195.2100  175.7750  142.2830 C   0  0  0  0  0  0  0  0  0  0  0  0
  195.8850  174.4620  142.1240 C   0  0  0  0  0  0  0  0  0  0  0  0
  196.8020  172.6710  140.7390 C   0  0  0  0  0  0  0  0  0  0  0  0
  196.7750  172.4350  143.1470 C   0  0  0  0  0  3  0  0  0  0  0  0
  197.0840  171.9220  141.8850 C   0  0  0  0  0  3  0  0  0  0  0  0
  196.2070  173.9360  140.8500 C   0  0  0  0  0  0  0  0  0  0  0  0
  197.0930  172.1570  139.5170 F   0  0  0  0  0  0  0  0  0  0  0  0
  195.9310  174.6310  139.7160 F   0  0  0  0  0  0  0  0  0  0  0  0
  196.1800  173.6950  143.2640 C   0  0  0  0  0  3  0  0  0  0  0  0
  1 18  1  0  0  0  0
  4 16  3  0  0  0  0
  5 20  1  6  0  0  0
  5 32  1  0  0  0  0
  5  3  1  0  0  0  0
  6 34  2  0  0  0  0
  9 21  1  0  0  0  0
 10 13  2  0  0  0  0
 11 33  1  0  0  0  0
 11  9  1  0  0  0  0
 12 15  1  0  0  0  0
 13  8  1  0  0  0  0
 14 31  1  0  0  0  0
 15  8  2  0  0  0  0
 15 32  1  0  0  0  0
 16 31  1  0  0  0  0
 18  7  2  0  0  0  0
 18 24  1  0  0  0  0
 19 12  2  0  0  0  0
 19 10  1  0  0  0  0
 21  2  1  0  0  0  0
 21 28  1  0  0  0  0
 21 55  1  1  0  0  0
 22  7  1  1  0  0  0
 22 20  1  0  0  0  0
 22 25  1  0  0  0  0
 23  4  1  0  0  0  0
 23  1  1  0  0  0  0
 24 20  2  0  0  0  0
 25 28  1  1  0  0  0
 25 30  1  0  0  0  0
 26  2  1  0  0  0  0
 27  1  2  0  0  0  0
 27  6  1  0  0  0  0
 29 14  2  0  0  0  0
 29 17  1  0  0  0  0
 30  3  1  0  0  0  0
 30 51  1  1  0  0  0
 33 17  1  6  0  0  0
 33 26  1  0  0  0  0
 34 24  1  0  0  0  0
 34 12  1  0  0  0  0
 35 36  1  6  0  0  0
 35 37  1  0  0  0  0
 36 37  1  0  0  0  0
 37 29  1  6  0  0  0
 38 35  1  0  0  0  0
 38 39  1  1  0  0  0
 40 43  1  0  0  0  0
 40 42  1  0  0  0  0
 41 38  1  0  0  0  0
 41 44  1  1  0  0  0
 41 43  1  0  0  0  0
 42 39  1  0  0  0  0
 45 44  1  0  0  0  0
 45 47  1  0  0  0  0
 46 45  2  0  0  0  0
 49 48  1  0  0  0  0
 49 10  1  0  0  0  0
 50 52  1  0  0  0  0
 51 50  2  0  0  0  0
 52 54  1  0  0  0  0
 52 53  1  1  0  0  0
 56 57  2  0  0  0  0
 57 55  1  0  0  0  0
 58 57  1  0  0  0  0
 58 65  1  0  0  0  0
 59 62  1  0  0  0  0
 59 61  2  0  0  0  0
 60 65  2  0  0  0  0
 61 60  1  0  0  0  0
 62 58  2  0  0  0  0
 63 59  1  0  0  0  0
 64 62  1  0  0  0  0
M  END
>  <MODEL>
8

>  <REMARK>
 VINA RESULT:      -3.4      2.501      7.068
  Name = 
  10 active torsions:
  status: ('A' for Active; 'I' for Inactive)
    1  A    between atoms: C_2  and  C_18
    2  A    between atoms: C_2  and  C_35
    3  A    between atoms: C_4  and  C_25
    4  A    between atoms: C_7  and  C_12
    5  A    between atoms: C_15  and  C_25
    6  A    between atoms: C_15  and  C_41
    7  A    between atoms: C_19  and  C_52
    8  A    between atoms: C_39  and  C_45
    9  A    between atoms: C_50  and  C_60
   10  A    between atoms: C_56  and  C_61
                            x       y       z     vdW  Elec       q    Type
                         _______ _______ _______ _____ _____    ______ ____

>  <TORSDO>
F 10

$$$$
=
 OpenBabel11042416393D

 65 74  0  0  1  0  0  0  0  0999 V2000
  186.2270  177.7840  145.0710 C   0  0  0  0  0  0  0  0  0  0  0  0
  190.0360  174.9080  140.3330 C   0  0  0  0  0  2  0  0  0  0  0  0
  185.3120  176.6350  139.3070 N   0  0  0  0  0  2  0  0  0  0  0  0
  188.6800  177.8330  145.3190 C   0  0  0  0  0  0  0  0  0  0  0  0
  184.5270  176.9890  140.5100 C   0  0  1  0  0  3  0  0  0  0  0  0
  184.0260  178.6280  144.7460 N   0  0  0  0  0  0  0  0  0  0  0  0
  187.2010  176.7890  143.0400 N   0  0  0  0  0  0  0  0  0  0  0  0
  181.7160  179.2910  140.5140 C   0  0  0  0  0  3  0  0  0  0  0  0
  188.8320  173.7780  142.2540 C   0  0  0  0  0  2  0  0  0  0  0  0
  180.5380  179.5760  142.6000 C   0  0  0  0  0  0  0  0  0  0  0  0
  189.0870  174.9590  142.9730 O   0  0  0  0  0  0  0  0  0  0  0  0
  182.7810  178.6060  142.6040 C   0  0  0  0  0  0  0  0  0  0  0  0
  180.5890  179.7170  141.2140 C   0  0  0  0  0  3  0  0  0  0  0  0
  192.0940  177.5420  144.2890 C   0  0  0  0  0  3  0  0  0  0  0  0
  182.8060  178.7170  141.1790 C   0  0  0  0  0  0  0  0  0  0  0  0
  189.6940  178.0200  144.6920 C   0  0  0  0  0  0  0  0  0  0  0  0
  191.2420  175.1840  143.9910 C   0  0  0  0  0  2  0  0  0  0  0  0
  186.1900  177.2920  143.7720 C   0  0  0  0  0  0  0  0  0  0  0  0
  181.6330  179.0470  143.2850 C   0  0  0  0  0  3  0  0  0  0  0  0
  185.3300  176.9400  141.7590 C   0  0  0  0  0  0  0  0  0  0  0  0
  188.8210  174.0520  140.7430 C   0  0  1  0  0  0  0  0  0  0  0  0
  186.6600  176.5720  141.8160 C   0  0  0  0  0  0  0  0  0  0  0  0
  187.3990  177.5820  145.9950 C   0  0  0  0  0  2  0  0  0  0  0  0
  185.0130  177.4560  142.9800 C   0  0  0  0  0  0  0  0  0  0  0  0
  187.4420  176.2590  140.5820 C   0  0  1  0  0  3  0  0  0  0  0  0
  191.0790  174.9910  141.4510 C   0  0  0  0  0  2  0  0  0  0  0  0
  185.1040  178.4170  145.5230 N   0  0  0  0  0  2  0  0  0  0  0  0
  187.5000  174.7400  140.3460 C   0  0  0  0  0  2  0  0  0  0  0  0
  192.3120  176.2110  144.2660 C   0  0  0  0  0  0  0  0  0  0  0  0
  186.7390  176.9990  139.4170 C   0  0  1  0  0  3  0  0  0  0  0  0
  190.8570  178.2600  143.8340 C   0  0  0  0  0  2  0  0  0  0  0  0
  183.9070  178.2930  140.3630 N   0  0  0  0  0  2  0  0  0  0  0  0
  190.4020  175.4450  142.7530 C   0  0  1  0  0  3  0  0  0  0  0  0
  183.9400  178.1970  143.4470 C   0  0  0  0  0  0  0  0  0  0  0  0
  193.7710  174.2330  144.5730 C   0  0  1  0  0  3  0  0  0  0  0  0
  193.3930  174.7700  145.8170 O   0  0  0  0  0  0  0  0  0  0  0  0
  193.6210  175.6950  144.7800 C   0  0  2  0  0  3  0  0  0  0  0  0
  195.2520  173.8580  144.6130 C   0  0  2  0  0  3  0  0  0  0  0  0
  195.7850  173.8080  143.3110 O   0  0  0  0  0  0  0  0  0  0  0  0
  197.7290  172.6600  144.1070 N   0  0  0  0  0  2  0  0  0  0  0  0
  195.6030  172.5680  145.4040 C   0  0  2  0  0  3  0  0  0  0  0  0
  197.1810  173.8760  143.4720 C   0  0  0  0  0  2  0  0  0  0  0  0
  196.6830  171.7830  144.6540 C   0  0  0  0  0  2  0  0  0  0  0  0
  194.4220  171.6330  145.6650 C   0  0  0  0  0  2  0  0  0  0  0  0
  194.3270  170.5920  144.6010 C   0  0  0  0  0  0  0  0  0  0  0  0
  194.5180  169.3850  144.8920 O   0  0  0  0  0  1  0  0  0  0  0  0
  194.0100  170.9480  143.2960 O   0  0  0  0  0  0  0  0  0  0  0  0
  178.6090  178.9040  143.8740 N   0  0  0  0  0  1  0  0  0  0  0  0
  179.3460  180.0460  143.3580 C   0  0  0  0  0  2  0  0  0  0  0  0
  186.8610  176.3210  137.0290 C   0  0  0  0  0  3  0  0  0  0  0  0
  187.4410  176.8770  138.0950 C   0  0  0  0  0  3  0  0  0  0  0  0
  187.5850  176.2250  135.7240 C   0  0  2  0  0  3  0  0  0  0  0  0
  188.7590  175.2700  135.8540 C   0  0  0  0  0  1  0  0  0  0  0  0
  188.0780  177.5370  135.3510 N   0  0  0  0  0  1  0  0  0  0  0  0
  188.8430  172.7260  139.9720 C   0  0  0  0  0  2  0  0  0  0  0  0
  191.0920  171.9740  140.3120 O   0  0  0  0  0  0  0  0  0  0  0  0
  190.1910  172.2700  139.4780 C   0  0  0  0  0  0  0  0  0  0  0  0
  190.4880  172.2710  138.0220 C   0  0  0  0  0  0  0  0  0  0  0  0
  191.7440  173.0710  136.0860 C   0  0  0  0  0  0  0  0  0  0  0  0
  189.9210  171.5100  135.7760 C   0  0  0  0  0  3  0  0  0  0  0  0
  190.9430  172.2990  135.2410 C   0  0  0  0  0  3  0  0  0  0  0  0
  191.5250  173.0620  137.4720 C   0  0  0  0  0  0  0  0  0  0  0  0
  192.7250  173.8440  135.5550 F   0  0  0  0  0  0  0  0  0  0  0  0
  192.3100  173.8370  138.2630 F   0  0  0  0  0  0  0  0  0  0  0  0
  189.6960  171.4990  137.1560 C   0  0  0  0  0  3  0  0  0  0  0  0
  1 27  1  0  0  0  0
  1 23  1  0  0  0  0
  2 21  1  0  0  0  0
  2 26  1  0  0  0  0
  3 30  1  0  0  0  0
  4 23  1  0  0  0  0
  5  3  1  6  0  0  0
  5 20  1  0  0  0  0
  6 27  1  0  0  0  0
  7 18  1  0  0  0  0
  8 15  2  0  0  0  0
  8 13  1  0  0  0  0
  9 11  1  0  0  0  0
 10 19  1  0  0  0  0
 10 49  1  0  0  0  0
 12 19  2  0  0  0  0
 12 34  1  0  0  0  0
 13 10  2  0  0  0  0
 15 12  1  0  0  0  0
 16  4  3  0  0  0  0
 17 29  1  0  0  0  0
 18  1  2  0  0  0  0
 20 22  1  0  0  0  0
 20 24  2  0  0  0  0
 21 55  1  6  0  0  0
 21  9  1  0  0  0  0
 22  7  2  0  0  0  0
 24 34  1  0  0  0  0
 24 18  1  0  0  0  0
 25 28  1  6  0  0  0
 25 22  1  0  0  0  0
 28 21  1  0  0  0  0
 29 14  2  0  0  0  0
 30 51  1  6  0  0  0
 30 25  1  0  0  0  0
 31 14  1  0  0  0  0
 31 16  1  0  0  0  0
 32  5  1  0  0  0  0
 32 15  1  0  0  0  0
 33 26  1  6  0  0  0
 33 11  1  0  0  0  0
 33 17  1  0  0  0  0
 34  6  2  0  0  0  0
 35 38  1  0  0  0  0
 35 37  1  0  0  0  0
 35 36  1  1  0  0  0
 37 29  1  6  0  0  0
 37 36  1  0  0  0  0
 38 39  1  6  0  0  0
 38 41  1  0  0  0  0
 39 42  1  0  0  0  0
 40 43  1  0  0  0  0
 41 44  1  6  0  0  0
 42 40  1  0  0  0  0
 43 41  1  0  0  0  0
 45 46  1  0  0  0  0
 45 44  1  0  0  0  0
 47 45  2  0  0  0  0
 49 48  1  0  0  0  0
 50 51  2  0  0  0  0
 52 53  1  1  0  0  0
 52 50  1  0  0  0  0
 54 52  1  0  0  0  0
 57 55  1  0  0  0  0
 57 56  2  0  0  0  0
 58 57  1  0  0  0  0
 59 62  2  0  0  0  0
 60 65  1  0  0  0  0
 61 60  2  0  0  0  0
 61 59  1  0  0  0  0
 62 58  1  0  0  0  0
 62 64  1  0  0  0  0
 63 59  1  0  0  0  0
 65 58  2  0  0  0  0
M  END
>  <MODEL>
9

>  <REMARK>
 VINA RESULT:      -3.4      3.970      7.329
  Name = 
  10 active torsions:
  status: ('A' for Active; 'I' for Inactive)
    1  A    between atoms: C_2  and  C_18
    2  A    between atoms: C_2  and  C_35
    3  A    between atoms: C_4  and  C_25
    4  A    between atoms: C_7  and  C_12
    5  A    between atoms: C_15  and  C_25
    6  A    between atoms: C_15  and  C_41
    7  A    between atoms: C_19  and  C_52
    8  A    between atoms: C_39  and  C_45
    9  A    between atoms: C_50  and  C_60
   10  A    between atoms: C_56  and  C_61
                            x       y       z     vdW  Elec       q    Type
                         _______ _______ _______ _____ _____    ______ ____

>  <TORSDO>
F 10

$$$$
