=
 OpenBabel11042414253D

 48 50  0  0  1  0  0  0  0  0999 V2000
  194.2990  175.0750  144.1800 C   0  0  0  0  0  3  0  0  0  0  0  0
  193.9270  176.1050  144.9580 C   0  0  0  0  0  0  0  0  0  0  0  0
  189.8510  176.3000  146.3130 C   0  0  0  0  0  0  0  0  0  0  0  0
  191.5610  176.9060  144.7000 C   0  0  0  0  0  3  0  0  0  0  0  0
  192.5240  176.1870  145.4240 C   0  0  0  0  0  0  0  0  0  0  0  0
  192.1330  175.5180  146.5940 C   0  0  0  0  0  3  0  0  0  0  0  0
  190.8090  175.5790  147.0360 C   0  0  0  0  0  3  0  0  0  0  0  0
  190.2370  176.9610  145.1400 C   0  0  0  0  0  3  0  0  0  0  0  0
  187.6880  177.5540  146.5890 N   0  0  0  0  0  2  0  0  0  0  0  0
  188.4530  176.3590  146.7730 C   0  0  0  0  0  0  0  0  0  0  0  0
  187.9260  175.3520  147.3200 O   0  0  0  0  0  0  0  0  0  0  0  0
  186.3120  177.6860  147.0460 C   0  0  0  0  0  2  0  0  0  0  0  0
  185.3460  177.2010  145.9750 C   0  0  0  0  0  2  0  0  0  0  0  0
  184.7480  178.3730  145.2080 C   0  0  0  0  0  2  0  0  0  0  0  0
  185.8140  179.1270  144.4230 C   0  0  2  0  0  3  0  0  0  0  0  0
  185.3830  180.4290  144.1820 O   0  0  0  0  0  1  0  0  0  0  0  0
  187.7500  176.9900  141.8060 C   0  0  0  0  0  0  0  0  0  0  0  0
  186.1090  178.4460  143.1270 C   0  0  0  0  0  0  0  0  0  0  0  0
  187.2950  177.6480  142.9940 N   0  0  0  0  0  2  0  0  0  0  0  0
  187.0550  177.1480  140.4970 C   0  0  0  0  0  1  0  0  0  0  0  0
  188.7820  176.2710  141.8610 O   0  0  0  0  0  0  0  0  0  0  0  0
  185.3040  178.5770  142.1690 O   0  0  0  0  0  0  0  0  0  0  0  0
  194.8340  177.1540  145.3260 N   0  0  0  0  0  2  0  0  0  0  0  0
  194.8010  177.7700  146.5320 O   0  0  0  0  0  1  0  0  0  0  0  0
  195.6510  174.7940  143.7960 N   0  0  0  0  0  0  0  0  0  0  0  0
  197.1690  176.4490  142.7790 C   0  0  0  0  0  1  0  0  0  0  0  0
  196.1280  175.3620  142.5370 C   0  0  1  0  0  3  0  0  0  0  0  0
  196.6470  174.2560  141.6040 C   0  0  0  0  0  2  0  0  0  0  0  0
  194.4150  174.3050  138.1950 N   0  0  0  0  0  2  0  0  0  0  0  0
  194.4500  174.2670  140.5410 C   0  0  2  0  0  3  0  0  0  0  0  0
  193.7640  174.7880  139.3470 N   0  0  0  0  0  2  0  0  0  0  0  0
  196.3990  175.1450  139.4030 C   0  0  0  0  0  2  0  0  0  0  0  0
  195.6880  175.0130  138.0530 C   0  0  0  0  0  2  0  0  0  0  0  0
  195.9070  174.1320  140.3360 N   0  0  0  0  0  0  0  0  0  0  0  0
  193.8400  172.9350  140.9520 C   0  0  0  0  0  2  0  0  0  0  0  0
  192.4640  172.9720  140.7240 O   0  0  0  0  0  0  0  0  0  0  0  0
  191.8830  172.6770  141.9560 C   0  0  0  0  0  2  0  0  0  0  0  0
  190.5420  171.9580  141.7770 C   0  0  2  0  0  3  0  0  0  0  0  0
  191.6610  170.4640  142.9320 O   0  0  0  0  0  1  0  0  0  0  0  0
  190.4990  170.6710  142.3450 O   0  0  0  0  0  0  0  0  0  0  0  0
  189.9240  172.0520  140.3760 C   0  0  0  0  0  2  0  0  0  0  0  0
  188.0710  172.7180  139.1090 C   0  0  0  0  0  2  0  0  0  0  0  0
  188.8950  173.9210  139.1500 C   0  0  1  0  0  3  0  0  0  0  0  0
  188.8290  173.0210  140.3320 N   0  0  0  0  0  0  0  0  0  0  0  0
  189.6620  173.9700  137.0760 C   0  0  0  0  0  1  0  0  0  0  0  0
  190.0590  173.7340  138.3930 O   0  0  0  0  0  0  0  0  0  0  0  0
  196.3860  173.7020  144.4380 C   0  0  0  0  0  2  0  0  0  0  0  0
  196.5130  173.9410  145.9340 C   0  0  0  0  0  1  0  0  0  0  0  0
  1  2  2  0  0  0  0
  2 23  1  0  0  0  0
  2  5  1  0  0  0  0
  3 10  1  0  0  0  0
  3  7  1  0  0  0  0
  4  8  1  0  0  0  0
  4  5  2  0  0  0  0
  5  6  1  0  0  0  0
  6  7  2  0  0  0  0
  8  3  2  0  0  0  0
  9 10  1  0  0  0  0
  9 12  1  0  0  0  0
 10 11  2  0  0  0  0
 13 12  1  0  0  0  0
 14 13  1  0  0  0  0
 15 16  1  6  0  0  0
 15 14  1  0  0  0  0
 17 21  2  0  0  0  0
 17 19  1  0  0  0  0
 18 15  1  0  0  0  0
 19 18  1  0  0  0  0
 20 17  1  0  0  0  0
 22 18  2  0  0  0  0
 23 24  1  0  0  0  0
 25  1  1  0  0  0  0
 25 47  1  0  0  0  0
 27 26  1  1  0  0  0
 27 25  1  0  0  0  0
 28 27  1  0  0  0  0
 29 31  1  0  0  0  0
 30 35  1  6  0  0  0
 31 30  1  0  0  0  0
 32 34  1  0  0  0  0
 33 29  1  0  0  0  0
 33 32  1  0  0  0  0
 34 30  1  0  0  0  0
 34 28  1  0  0  0  0
 36 35  1  0  0  0  0
 36 37  1  0  0  0  0
 38 41  1  6  0  0  0
 38 37  1  0  0  0  0
 38 40  1  0  0  0  0
 40 39  1  0  0  0  0
 42 43  1  0  0  0  0
 42 44  1  0  0  0  0
 43 46  1  6  0  0  0
 43 44  1  0  0  0  0
 44 41  1  0  0  0  0
 45 46  1  0  0  0  0
 47 48  1  0  0  0  0
M  END
>  <MODEL>
1

>  <REMARK>
 VINA RESULT:      -6.1      0.000      0.000
  Name = 
  21 active torsions:
  status: ('A' for Active; 'I' for Inactive)
    1  A    between atoms: C_1  and  C_23
    2  A    between atoms: C_1  and  C_35
    3  A    between atoms: C_2  and  N_22
    4  A    between atoms: C_2  and  C_23
    5  A    between atoms: C_3  and  N_15
    6  A    between atoms: C_5  and  N_15
    7  A    between atoms: C_6  and  C_25
    8  A    between atoms: C_7  and  N_15
    9  A    between atoms: C_7  and  C_36
   10  A    between atoms: C_8  and  C_16
   11  A    between atoms: C_8  and  N_29
   12  A    between atoms: O_12  and  C_16
   13  A    between atoms: C_13  and  C_38
   14  A    between atoms: C_16  and  C_19
   15  A    between atoms: N_18  and  C_32
   16  A    between atoms: C_19  and  O_31
   17  A    between atoms: C_24  and  C_35
   18  A    between atoms: C_26  and  C_32
   19  A    between atoms: C_27  and  O_41
   20  A    between atoms: O_31  and  C_38
   21  A    between atoms: C_36  and  N_48
                            x       y       z     vdW  Elec       q    Type
                         _______ _______ _______ _____ _____    ______ ____

>  <TORSDO>
F 21

$$$$
=
 OpenBabel11042414253D

 48 50  0  0  1  0  0  0  0  0999 V2000
  193.9530  175.3360  143.4120 C   0  0  0  0  0  3  0  0  0  0  0  0
  193.1380  176.1820  144.0620 C   0  0  0  0  0  0  0  0  0  0  0  0
  189.0130  176.4960  142.8890 C   0  0  0  0  0  0  0  0  0  0  0  0
  190.8850  175.1520  143.6530 C   0  0  0  0  0  3  0  0  0  0  0  0
  191.7200  176.2800  143.6480 C   0  0  0  0  0  0  0  0  0  0  0  0
  191.1830  177.5190  143.2670 C   0  0  0  0  0  3  0  0  0  0  0  0
  189.8430  177.6250  142.8870 C   0  0  0  0  0  3  0  0  0  0  0  0
  189.5440  175.2600  143.2780 C   0  0  0  0  0  3  0  0  0  0  0  0
  187.0900  177.8440  141.9900 N   0  0  0  0  0  2  0  0  0  0  0  0
  187.5980  176.6060  142.4980 C   0  0  0  0  0  0  0  0  0  0  0  0
  186.8350  175.6070  142.6010 O   0  0  0  0  0  0  0  0  0  0  0  0
  185.6950  178.0260  141.6130 C   0  0  0  0  0  2  0  0  0  0  0  0
  184.9700  178.8730  142.6490 C   0  0  0  0  0  2  0  0  0  0  0  0
  184.5490  178.0300  143.8450 C   0  0  0  0  0  2  0  0  0  0  0  0
  185.1210  178.5820  145.1440 C   0  0  2  0  0  3  0  0  0  0  0  0
  185.7750  179.7860  144.8920 O   0  0  0  0  0  1  0  0  0  0  0  0
  188.5060  177.1040  146.3780 C   0  0  0  0  0  0  0  0  0  0  0  0
  186.0720  177.6130  145.7670 C   0  0  0  0  0  0  0  0  0  0  0  0
  187.4640  177.9470  145.8710 N   0  0  0  0  0  2  0  0  0  0  0  0
  188.2560  175.6920  146.7850 C   0  0  0  0  0  1  0  0  0  0  0  0
  189.6750  177.5620  146.4650 O   0  0  0  0  0  0  0  0  0  0  0  0
  185.6320  176.5170  146.2000 O   0  0  0  0  0  0  0  0  0  0  0  0
  193.6010  177.0270  145.1260 N   0  0  0  0  0  2  0  0  0  0  0  0
  193.4260  176.7280  146.4360 O   0  0  0  0  0  1  0  0  0  0  0  0
  195.2950  175.0310  143.8130 N   0  0  0  0  0  0  0  0  0  0  0  0
  196.2210  174.2830  145.9710 C   0  0  0  0  0  1  0  0  0  0  0  0
  195.4920  173.8820  144.6940 C   0  0  1  0  0  3  0  0  0  0  0  0
  194.1550  173.1810  144.9820 C   0  0  0  0  0  2  0  0  0  0  0  0
  194.4570  169.2880  143.8210 N   0  0  0  0  0  2  0  0  0  0  0  0
  194.8770  171.5420  143.3240 C   0  0  2  0  0  3  0  0  0  0  0  0
  195.3880  170.1650  143.2320 N   0  0  0  0  0  2  0  0  0  0  0  0
  194.6070  170.9370  145.6540 C   0  0  0  0  0  2  0  0  0  0  0  0
  194.5210  169.4560  145.2740 C   0  0  0  0  0  2  0  0  0  0  0  0
  194.1030  171.7710  144.5630 N   0  0  0  0  0  0  0  0  0  0  0  0
  194.0350  171.8690  142.0990 C   0  0  0  0  0  2  0  0  0  0  0  0
  192.6850  171.7020  142.4140 O   0  0  0  0  0  0  0  0  0  0  0  0
  191.9950  172.4560  141.4670 C   0  0  0  0  0  2  0  0  0  0  0  0
  190.5010  172.1150  141.4720 C   0  0  2  0  0  3  0  0  0  0  0  0
  189.4070  171.7190  143.3340 O   0  0  0  0  0  1  0  0  0  0  0  0
  190.1400  171.1290  142.4100 O   0  0  0  0  0  0  0  0  0  0  0  0
  189.8590  171.9380  140.0910 C   0  0  0  0  0  2  0  0  0  0  0  0
  188.4370  173.1830  138.7080 C   0  0  0  0  0  2  0  0  0  0  0  0
  189.6480  173.0510  137.9060 C   0  0  1  0  0  3  0  0  0  0  0  0
  189.7440  173.2120  139.3810 N   0  0  0  0  0  0  0  0  0  0  0  0
  189.5520  171.7430  136.1250 C   0  0  0  0  0  1  0  0  0  0  0  0
  189.8130  171.7210  137.4960 O   0  0  0  0  0  0  0  0  0  0  0  0
  196.3540  176.0300  143.6540 C   0  0  0  0  0  2  0  0  0  0  0  0
  196.3560  176.5980  142.2450 C   0  0  0  0  0  1  0  0  0  0  0  0
  1 25  1  0  0  0  0
  1  2  2  0  0  0  0
  2 23  1  0  0  0  0
  3  8  1  0  0  0  0
  5  4  1  0  0  0  0
  5  2  1  0  0  0  0
  6  5  2  0  0  0  0
  7  3  2  0  0  0  0
  7  6  1  0  0  0  0
  8  4  2  0  0  0  0
  9 10  1  0  0  0  0
 10 11  2  0  0  0  0
 10  3  1  0  0  0  0
 12  9  1  0  0  0  0
 12 13  1  0  0  0  0
 13 14  1  0  0  0  0
 14 15  1  0  0  0  0
 15 16  1  6  0  0  0
 15 18  1  0  0  0  0
 17 21  2  0  0  0  0
 17 20  1  0  0  0  0
 18 19  1  0  0  0  0
 18 22  2  0  0  0  0
 19 17  1  0  0  0  0
 23 24  1  0  0  0  0
 25 27  1  0  0  0  0
 27 28  1  0  0  0  0
 27 26  1  1  0  0  0
 29 33  1  0  0  0  0
 30 35  1  6  0  0  0
 30 34  1  0  0  0  0
 31 30  1  0  0  0  0
 31 29  1  0  0  0  0
 33 32  1  0  0  0  0
 34 28  1  0  0  0  0
 34 32  1  0  0  0  0
 35 36  1  0  0  0  0
 37 38  1  0  0  0  0
 37 36  1  0  0  0  0
 38 41  1  6  0  0  0
 38 40  1  0  0  0  0
 40 39  1  0  0  0  0
 42 44  1  0  0  0  0
 43 46  1  1  0  0  0
 43 42  1  0  0  0  0
 43 44  1  0  0  0  0
 44 41  1  0  0  0  0
 45 46  1  0  0  0  0
 47 25  1  0  0  0  0
 48 47  1  0  0  0  0
M  END
>  <MODEL>
2

>  <REMARK>
 VINA RESULT:      -6.1      2.066      3.797
  Name = 
  21 active torsions:
  status: ('A' for Active; 'I' for Inactive)
    1  A    between atoms: C_1  and  C_23
    2  A    between atoms: C_1  and  C_35
    3  A    between atoms: C_2  and  N_22
    4  A    between atoms: C_2  and  C_23
    5  A    between atoms: C_3  and  N_15
    6  A    between atoms: C_5  and  N_15
    7  A    between atoms: C_6  and  C_25
    8  A    between atoms: C_7  and  N_15
    9  A    between atoms: C_7  and  C_36
   10  A    between atoms: C_8  and  C_16
   11  A    between atoms: C_8  and  N_29
   12  A    between atoms: O_12  and  C_16
   13  A    between atoms: C_13  and  C_38
   14  A    between atoms: C_16  and  C_19
   15  A    between atoms: N_18  and  C_32
   16  A    between atoms: C_19  and  O_31
   17  A    between atoms: C_24  and  C_35
   18  A    between atoms: C_26  and  C_32
   19  A    between atoms: C_27  and  O_41
   20  A    between atoms: O_31  and  C_38
   21  A    between atoms: C_36  and  N_48
                            x       y       z     vdW  Elec       q    Type
                         _______ _______ _______ _____ _____    ______ ____

>  <TORSDO>
F 21

$$$$
=
 OpenBabel11042414253D

 48 50  0  0  1  0  0  0  0  0999 V2000
  192.2950  174.7650  144.4730 C   0  0  0  0  0  3  0  0  0  0  0  0
  192.0720  175.3280  145.6730 C   0  0  0  0  0  0  0  0  0  0  0  0
  188.0740  176.5540  146.6710 C   0  0  0  0  0  0  0  0  0  0  0  0
  190.2160  177.0180  145.6280 C   0  0  0  0  0  3  0  0  0  0  0  0
  190.7010  175.7620  146.0230 C   0  0  0  0  0  0  0  0  0  0  0  0
  189.8540  174.9030  146.7390 C   0  0  0  0  0  3  0  0  0  0  0  0
  188.5530  175.2980  147.0640 C   0  0  0  0  0  3  0  0  0  0  0  0
  188.9150  177.4100  145.9480 C   0  0  0  0  0  3  0  0  0  0  0  0
  185.8850  177.6040  146.0150 N   0  0  0  0  0  2  0  0  0  0  0  0
  186.7010  176.9700  147.0050 C   0  0  0  0  0  0  0  0  0  0  0  0
  186.2410  176.7590  148.1600 O   0  0  0  0  0  0  0  0  0  0  0  0
  184.5310  178.0650  146.2890 C   0  0  0  0  0  2  0  0  0  0  0  0
  184.0200  178.9290  145.1460 C   0  0  0  0  0  2  0  0  0  0  0  0
  185.1680  179.4020  144.2640 C   0  0  0  0  0  2  0  0  0  0  0  0
  185.1100  178.7620  142.8830 C   0  0  2  0  0  3  0  0  0  0  0  0
  183.8910  178.1080  142.7230 O   0  0  0  0  0  1  0  0  0  0  0  0
  188.7440  177.4860  142.3150 C   0  0  0  0  0  0  0  0  0  0  0  0
  186.2310  177.7940  142.6910 C   0  0  0  0  0  0  0  0  0  0  0  0
  187.5760  178.2770  142.5670 N   0  0  0  0  0  2  0  0  0  0  0  0
  188.6680  176.0210  142.0500 C   0  0  0  0  0  1  0  0  0  0  0  0
  189.8710  178.0480  142.2940 O   0  0  0  0  0  0  0  0  0  0  0  0
  185.9750  176.5630  142.6500 O   0  0  0  0  0  0  0  0  0  0  0  0
  193.1270  175.5570  146.6190 N   0  0  0  0  0  2  0  0  0  0  0  0
  193.7160  176.7650  146.7900 O   0  0  0  0  0  1  0  0  0  0  0  0
  193.5320  174.1610  144.0770 N   0  0  0  0  0  0  0  0  0  0  0  0
  194.2720  172.3280  145.5490 C   0  0  0  0  0  1  0  0  0  0  0  0
  193.6500  172.7110  144.2110 C   0  0  1  0  0  3  0  0  0  0  0  0
  192.2900  172.0310  143.9860 C   0  0  0  0  0  2  0  0  0  0  0  0
  192.7360  169.1460  141.1440 N   0  0  0  0  0  2  0  0  0  0  0  0
  193.2320  171.3290  141.8470 C   0  0  2  0  0  3  0  0  0  0  0  0
  193.7460  170.1280  141.1680 N   0  0  0  0  0  2  0  0  0  0  0  0
  192.6320  169.7110  143.5460 C   0  0  0  0  0  2  0  0  0  0  0  0
  192.5940  168.5990  142.4940 C   0  0  0  0  0  2  0  0  0  0  0  0
  192.2920  170.9970  142.9380 N   0  0  0  0  0  0  0  0  0  0  0  0
  192.5750  172.2580  140.8370 C   0  0  0  0  0  2  0  0  0  0  0  0
  191.2040  171.9970  140.8000 O   0  0  0  0  0  0  0  0  0  0  0  0
  190.6050  173.2320  140.5570 C   0  0  0  0  0  2  0  0  0  0  0  0
  189.7960  173.2060  139.2570 C   0  0  2  0  0  3  0  0  0  0  0  0
  188.0320  173.8580  138.1230 O   0  0  0  0  0  1  0  0  0  0  0  0
  188.5960  173.9400  139.3120 O   0  0  0  0  0  0  0  0  0  0  0  0
  189.6680  171.8340  138.5840 C   0  0  0  0  0  2  0  0  0  0  0  0
  190.0030  170.6970  136.5650 C   0  0  0  0  0  2  0  0  0  0  0  0
  191.1680  170.3190  137.3550 C   0  0  1  0  0  3  0  0  0  0  0  0
  190.6030  171.6900  137.4680 N   0  0  0  0  0  0  0  0  0  0  0  0
  190.4930  168.2630  137.8110 C   0  0  0  0  0  1  0  0  0  0  0  0
  190.7840  169.4870  138.4150 O   0  0  0  0  0  0  0  0  0  0  0  0
  194.7300  174.9860  143.9020 C   0  0  0  0  0  2  0  0  0  0  0  0
  195.2690  174.8650  142.4860 C   0  0  0  0  0  1  0  0  0  0  0  0
  1  2  2  0  0  0  0
  2  5  1  0  0  0  0
  2 23  1  0  0  0  0
  3 10  1  0  0  0  0
  3  7  1  0  0  0  0
  4  8  1  0  0  0  0
  4  5  2  0  0  0  0
  5  6  1  0  0  0  0
  6  7  2  0  0  0  0
  8  3  2  0  0  0  0
  9 12  1  0  0  0  0
  9 10  1  0  0  0  0
 10 11  2  0  0  0  0
 13 12  1  0  0  0  0
 14 13  1  0  0  0  0
 15 16  1  1  0  0  0
 15 14  1  0  0  0  0
 17 19  1  0  0  0  0
 18 15  1  0  0  0  0
 19 18  1  0  0  0  0
 20 17  1  0  0  0  0
 21 17  2  0  0  0  0
 22 18  2  0  0  0  0
 23 24  1  0  0  0  0
 25 27  1  0  0  0  0
 25  1  1  0  0  0  0
 27 26  1  1  0  0  0
 28 27  1  0  0  0  0
 29 31  1  0  0  0  0
 29 33  1  0  0  0  0
 30 35  1  6  0  0  0
 30 34  1  0  0  0  0
 31 30  1  0  0  0  0
 33 32  1  0  0  0  0
 34 32  1  0  0  0  0
 34 28  1  0  0  0  0
 36 35  1  0  0  0  0
 37 36  1  0  0  0  0
 38 41  1  1  0  0  0
 38 40  1  0  0  0  0
 38 37  1  0  0  0  0
 39 40  1  0  0  0  0
 42 43  1  0  0  0  0
 42 44  1  0  0  0  0
 43 44  1  0  0  0  0
 43 46  1  1  0  0  0
 44 41  1  0  0  0  0
 45 46  1  0  0  0  0
 47 25  1  0  0  0  0
 48 47  1  0  0  0  0
M  END
>  <MODEL>
3

>  <REMARK>
 VINA RESULT:      -6.0      2.394      3.617
  Name = 
  21 active torsions:
  status: ('A' for Active; 'I' for Inactive)
    1  A    between atoms: C_1  and  C_23
    2  A    between atoms: C_1  and  C_35
    3  A    between atoms: C_2  and  N_22
    4  A    between atoms: C_2  and  C_23
    5  A    between atoms: C_3  and  N_15
    6  A    between atoms: C_5  and  N_15
    7  A    between atoms: C_6  and  C_25
    8  A    between atoms: C_7  and  N_15
    9  A    between atoms: C_7  and  C_36
   10  A    between atoms: C_8  and  C_16
   11  A    between atoms: C_8  and  N_29
   12  A    between atoms: O_12  and  C_16
   13  A    between atoms: C_13  and  C_38
   14  A    between atoms: C_16  and  C_19
   15  A    between atoms: N_18  and  C_32
   16  A    between atoms: C_19  and  O_31
   17  A    between atoms: C_24  and  C_35
   18  A    between atoms: C_26  and  C_32
   19  A    between atoms: C_27  and  O_41
   20  A    between atoms: O_31  and  C_38
   21  A    between atoms: C_36  and  N_48
                            x       y       z     vdW  Elec       q    Type
                         _______ _______ _______ _____ _____    ______ ____

>  <TORSDO>
F 21

$$$$
=
 OpenBabel11042414253D

 48 50  0  0  1  0  0  0  0  0999 V2000
  194.1690  175.7630  144.0460 C   0  0  0  0  0  3  0  0  0  0  0  0
  193.8560  176.4560  145.1530 C   0  0  0  0  0  0  0  0  0  0  0  0
  189.7540  176.6720  146.4220 C   0  0  0  0  0  0  0  0  0  0  0  0
  192.0450  175.9790  146.8260 C   0  0  0  0  0  3  0  0  0  0  0  0
  192.4430  176.5150  145.5910 C   0  0  0  0  0  0  0  0  0  0  0  0
  191.4820  177.1380  144.7810 C   0  0  0  0  0  3  0  0  0  0  0  0
  190.1480  177.2110  145.1910 C   0  0  0  0  0  3  0  0  0  0  0  0
  190.7130  176.0580  147.2370 C   0  0  0  0  0  3  0  0  0  0  0  0
  187.7710  178.0270  147.1690 N   0  0  0  0  0  2  0  0  0  0  0  0
  188.3500  176.7550  146.8610 C   0  0  0  0  0  0  0  0  0  0  0  0
  187.6550  175.7070  146.9570 O   0  0  0  0  0  0  0  0  0  0  0  0
  186.3990  178.1750  147.6360 C   0  0  0  0  0  2  0  0  0  0  0  0
  185.5790  178.9740  146.6340 C   0  0  0  0  0  2  0  0  0  0  0  0
  184.8810  178.0530  145.6420 C   0  0  0  0  0  2  0  0  0  0  0  0
  184.9900  178.5840  144.2180 C   0  0  2  0  0  3  0  0  0  0  0  0
  183.7240  178.6310  143.6390 O   0  0  0  0  0  1  0  0  0  0  0  0
  186.8570  177.2640  141.0670 C   0  0  0  0  0  0  0  0  0  0  0  0
  185.8900  177.7250  143.3920 C   0  0  0  0  0  0  0  0  0  0  0  0
  186.0830  178.0250  142.0020 N   0  0  0  0  0  2  0  0  0  0  0  0
  187.4980  175.9700  141.4360 C   0  0  0  0  0  1  0  0  0  0  0  0
  186.9840  177.6890  139.8890 O   0  0  0  0  0  0  0  0  0  0  0  0
  186.4750  176.7520  143.9350 O   0  0  0  0  0  0  0  0  0  0  0  0
  194.8400  177.1740  145.9120 N   0  0  0  0  0  2  0  0  0  0  0  0
  195.1570  178.4690  145.6730 O   0  0  0  0  0  1  0  0  0  0  0  0
  195.5070  175.4960  143.6060 N   0  0  0  0  0  0  0  0  0  0  0  0
  196.0620  174.0220  145.5030 C   0  0  0  0  0  1  0  0  0  0  0  0
  196.1020  174.2190  143.9910 C   0  0  1  0  0  3  0  0  0  0  0  0
  195.4340  173.0570  143.2360 C   0  0  0  0  0  2  0  0  0  0  0  0
  194.1040  169.7660  145.2360 N   0  0  0  0  0  2  0  0  0  0  0  0
  193.5730  171.6320  143.9170 C   0  0  2  0  0  3  0  0  0  0  0  0
  193.2640  170.2210  144.2010 N   0  0  0  0  0  2  0  0  0  0  0  0
  195.8330  170.7700  143.7840 C   0  0  0  0  0  2  0  0  0  0  0  0
  195.4530  169.5970  144.6930 C   0  0  0  0  0  2  0  0  0  0  0  0
  195.0090  171.9380  144.0930 N   0  0  0  0  0  0  0  0  0  0  0  0
  192.7210  172.5400  144.7910 C   0  0  0  0  0  2  0  0  0  0  0  0
  191.3730  172.3080  144.5130 O   0  0  0  0  0  0  0  0  0  0  0  0
  190.9760  173.3840  143.7190 C   0  0  0  0  0  2  0  0  0  0  0  0
  190.2090  172.9030  142.4830 C   0  0  2  0  0  3  0  0  0  0  0  0
  188.0690  172.4160  142.4090 O   0  0  0  0  0  1  0  0  0  0  0  0
  189.2400  171.9190  142.7550 O   0  0  0  0  0  0  0  0  0  0  0  0
  191.0640  172.6230  141.2420 C   0  0  0  0  0  2  0  0  0  0  0  0
  191.5770  173.4360  139.1070 C   0  0  0  0  0  2  0  0  0  0  0  0
  192.7230  173.8540  139.9050 C   0  0  1  0  0  3  0  0  0  0  0  0
  191.3600  173.8490  140.5020 N   0  0  0  0  0  0  0  0  0  0  0  0
  194.6710  172.8650  139.5620 C   0  0  0  0  0  1  0  0  0  0  0  0
  193.4820  172.7390  140.2820 O   0  0  0  0  0  0  0  0  0  0  0  0
  196.3540  176.5880  143.1220 C   0  0  0  0  0  2  0  0  0  0  0  0
  196.3590  176.6380  141.6030 C   0  0  0  0  0  1  0  0  0  0  0  0
  1  2  2  0  0  0  0
  2  5  1  0  0  0  0
  2 23  1  0  0  0  0
  3 10  1  0  0  0  0
  3  8  1  0  0  0  0
  4  8  2  0  0  0  0
  5  4  1  0  0  0  0
  6  7  1  0  0  0  0
  6  5  2  0  0  0  0
  7  3  2  0  0  0  0
  9 12  1  0  0  0  0
 10 11  2  0  0  0  0
 10  9  1  0  0  0  0
 13 12  1  0  0  0  0
 14 13  1  0  0  0  0
 15 16  1  6  0  0  0
 15 14  1  0  0  0  0
 17 20  1  0  0  0  0
 17 19  1  0  0  0  0
 18 22  2  0  0  0  0
 18 15  1  0  0  0  0
 19 18  1  0  0  0  0
 21 17  2  0  0  0  0
 24 23  1  0  0  0  0
 25 27  1  0  0  0  0
 25  1  1  0  0  0  0
 27 26  1  1  0  0  0
 28 27  1  0  0  0  0
 28 34  1  0  0  0  0
 30 34  1  0  0  0  0
 30 31  1  0  0  0  0
 30 35  1  1  0  0  0
 31 29  1  0  0  0  0
 32 34  1  0  0  0  0
 32 33  1  0  0  0  0
 33 29  1  0  0  0  0
 36 35  1  0  0  0  0
 37 36  1  0  0  0  0
 38 41  1  6  0  0  0
 38 40  1  0  0  0  0
 38 37  1  0  0  0  0
 39 40  1  0  0  0  0
 42 43  1  0  0  0  0
 42 44  1  0  0  0  0
 43 46  1  1  0  0  0
 43 44  1  0  0  0  0
 44 41  1  0  0  0  0
 45 46  1  0  0  0  0
 47 25  1  0  0  0  0
 48 47  1  0  0  0  0
M  END
>  <MODEL>
4

>  <REMARK>
 VINA RESULT:      -6.0      2.024      3.336
  Name = 
  21 active torsions:
  status: ('A' for Active; 'I' for Inactive)
    1  A    between atoms: C_1  and  C_23
    2  A    between atoms: C_1  and  C_35
    3  A    between atoms: C_2  and  N_22
    4  A    between atoms: C_2  and  C_23
    5  A    between atoms: C_3  and  N_15
    6  A    between atoms: C_5  and  N_15
    7  A    between atoms: C_6  and  C_25
    8  A    between atoms: C_7  and  N_15
    9  A    between atoms: C_7  and  C_36
   10  A    between atoms: C_8  and  C_16
   11  A    between atoms: C_8  and  N_29
   12  A    between atoms: O_12  and  C_16
   13  A    between atoms: C_13  and  C_38
   14  A    between atoms: C_16  and  C_19
   15  A    between atoms: N_18  and  C_32
   16  A    between atoms: C_19  and  O_31
   17  A    between atoms: C_24  and  C_35
   18  A    between atoms: C_26  and  C_32
   19  A    between atoms: C_27  and  O_41
   20  A    between atoms: O_31  and  C_38
   21  A    between atoms: C_36  and  N_48
                            x       y       z     vdW  Elec       q    Type
                         _______ _______ _______ _____ _____    ______ ____

>  <TORSDO>
F 21

$$$$
=
 OpenBabel11042414253D

 48 50  0  0  1  0  0  0  0  0999 V2000
  187.6070  176.0570  142.4660 C   0  0  0  0  0  3  0  0  0  0  0  0
  188.9440  176.0770  142.5840 C   0  0  0  0  0  0  0  0  0  0  0  0
  191.0800  172.3470  142.7120 C   0  0  0  0  0  0  0  0  0  0  0  0
  189.3250  173.7940  143.5590 C   0  0  0  0  0  3  0  0  0  0  0  0
  189.6830  174.7950  142.6420 C   0  0  0  0  0  0  0  0  0  0  0  0
  190.7420  174.5540  141.7550 C   0  0  0  0  0  3  0  0  0  0  0  0
  191.4380  173.3420  141.7930 C   0  0  0  0  0  3  0  0  0  0  0  0
  190.0160  172.5820  143.5920 C   0  0  0  0  0  3  0  0  0  0  0  0
  192.3070  170.5630  143.9900 N   0  0  0  0  0  2  0  0  0  0  0  0
  191.8050  171.0660  142.7480 C   0  0  0  0  0  0  0  0  0  0  0  0
  191.9770  170.4070  141.6860 O   0  0  0  0  0  0  0  0  0  0  0  0
  193.0570  169.3180  144.0890 C   0  0  0  0  0  2  0  0  0  0  0  0
  194.1490  169.4370  145.1420 C   0  0  0  0  0  2  0  0  0  0  0  0
  194.5280  170.8930  145.3750 C   0  0  0  0  0  2  0  0  0  0  0  0
  196.0150  171.1260  145.1430 C   0  0  2  0  0  3  0  0  0  0  0  0
  196.4980  172.0340  146.0830 O   0  0  0  0  0  1  0  0  0  0  0  0
  195.5510  173.2810  141.9340 C   0  0  0  0  0  0  0  0  0  0  0  0
  196.2700  171.6430  143.7650 C   0  0  0  0  0  0  0  0  0  0  0  0
  195.4750  172.7210  143.2500 N   0  0  0  0  0  2  0  0  0  0  0  0
  196.4410  172.7140  140.8820 C   0  0  0  0  0  1  0  0  0  0  0  0
  194.8280  174.2710  141.6470 O   0  0  0  0  0  0  0  0  0  0  0  0
  197.1880  171.1260  143.0780 O   0  0  0  0  0  0  0  0  0  0  0  0
  189.6870  177.3010  142.6920 N   0  0  0  0  0  2  0  0  0  0  0  0
  190.6440  177.5040  143.6280 O   0  0  0  0  0  1  0  0  0  0  0  0
  186.7940  177.2160  142.2400 N   0  0  0  0  0  0  0  0  0  0  0  0
  185.8180  179.3420  143.0180 C   0  0  0  0  0  1  0  0  0  0  0  0
  186.3460  177.9660  143.4100 C   0  0  1  0  0  3  0  0  0  0  0  0
  185.3170  177.1560  144.2150 C   0  0  0  0  0  2  0  0  0  0  0  0
  185.9460  177.8230  148.1840 N   0  0  0  0  0  2  0  0  0  0  0  0
  186.8810  177.4590  146.0640 C   0  0  2  0  0  3  0  0  0  0  0  0
  187.0110  178.1850  147.3380 N   0  0  0  0  0  2  0  0  0  0  0  0
  184.6330  178.3550  146.1610 C   0  0  0  0  0  2  0  0  0  0  0  0
  184.7250  178.4590  147.6860 C   0  0  0  0  0  2  0  0  0  0  0  0
  185.4680  177.2570  145.6760 N   0  0  0  0  0  0  0  0  0  0  0  0
  187.6090  176.1260  146.1460 C   0  0  0  0  0  2  0  0  0  0  0  0
  188.9860  176.3570  146.1540 O   0  0  0  0  0  0  0  0  0  0  0  0
  189.5100  175.4020  147.0240 C   0  0  0  0  0  2  0  0  0  0  0  0
  190.8080  175.8980  147.6700 C   0  0  2  0  0  3  0  0  0  0  0  0
  191.6140  177.4900  148.9490 O   0  0  0  0  0  1  0  0  0  0  0  0
  190.8410  177.2860  147.9000 O   0  0  0  0  0  0  0  0  0  0  0  0
  192.1010  175.3240  147.0800 C   0  0  0  0  0  2  0  0  0  0  0  0
  193.0350  174.0390  145.3590 C   0  0  0  0  0  2  0  0  0  0  0  0
  193.0990  175.3970  144.8320 C   0  0  1  0  0  3  0  0  0  0  0  0
  191.9440  174.9760  145.6680 N   0  0  0  0  0  0  0  0  0  0  0  0
  195.2170  176.0350  144.8080 C   0  0  0  0  0  1  0  0  0  0  0  0
  194.0390  176.1500  145.5490 O   0  0  0  0  0  0  0  0  0  0  0  0
  186.1460  177.4180  140.9420 C   0  0  0  0  0  2  0  0  0  0  0  0
  187.0940  177.0760  139.8040 C   0  0  0  0  0  1  0  0  0  0  0  0
  1  2  2  0  0  0  0
  2  5  1  0  0  0  0
  2 23  1  0  0  0  0
  3 10  1  0  0  0  0
  3  8  1  0  0  0  0
  4  8  2  0  0  0  0
  5  4  1  0  0  0  0
  6  7  1  0  0  0  0
  6  5  2  0  0  0  0
  7  3  2  0  0  0  0
  9 12  1  0  0  0  0
 10  9  1  0  0  0  0
 11 10  2  0  0  0  0
 12 13  1  0  0  0  0
 13 14  1  0  0  0  0
 15 14  1  0  0  0  0
 15 16  1  1  0  0  0
 17 19  1  0  0  0  0
 18 15  1  0  0  0  0
 19 18  1  0  0  0  0
 20 17  1  0  0  0  0
 21 17  2  0  0  0  0
 22 18  2  0  0  0  0
 23 24  1  0  0  0  0
 25  1  1  0  0  0  0
 25 27  1  0  0  0  0
 27 26  1  6  0  0  0
 27 28  1  0  0  0  0
 28 34  1  0  0  0  0
 30 35  1  1  0  0  0
 30 31  1  0  0  0  0
 31 29  1  0  0  0  0
 32 33  1  0  0  0  0
 33 29  1  0  0  0  0
 34 30  1  0  0  0  0
 34 32  1  0  0  0  0
 35 36  1  0  0  0  0
 36 37  1  0  0  0  0
 38 37  1  6  0  0  0
 38 40  1  0  0  0  0
 40 39  1  0  0  0  0
 41 38  1  0  0  0  0
 42 44  1  0  0  0  0
 43 42  1  0  0  0  0
 43 46  1  1  0  0  0
 43 44  1  0  0  0  0
 44 41  1  0  0  0  0
 45 46  1  0  0  0  0
 47 25  1  0  0  0  0
 48 47  1  0  0  0  0
M  END
>  <MODEL>
5

>  <REMARK>
 VINA RESULT:      -5.8      2.777      9.578
  Name = 
  21 active torsions:
  status: ('A' for Active; 'I' for Inactive)
    1  A    between atoms: C_1  and  C_23
    2  A    between atoms: C_1  and  C_35
    3  A    between atoms: C_2  and  N_22
    4  A    between atoms: C_2  and  C_23
    5  A    between atoms: C_3  and  N_15
    6  A    between atoms: C_5  and  N_15
    7  A    between atoms: C_6  and  C_25
    8  A    between atoms: C_7  and  N_15
    9  A    between atoms: C_7  and  C_36
   10  A    between atoms: C_8  and  C_16
   11  A    between atoms: C_8  and  N_29
   12  A    between atoms: O_12  and  C_16
   13  A    between atoms: C_13  and  C_38
   14  A    between atoms: C_16  and  C_19
   15  A    between atoms: N_18  and  C_32
   16  A    between atoms: C_19  and  O_31
   17  A    between atoms: C_24  and  C_35
   18  A    between atoms: C_26  and  C_32
   19  A    between atoms: C_27  and  O_41
   20  A    between atoms: O_31  and  C_38
   21  A    between atoms: C_36  and  N_48
                            x       y       z     vdW  Elec       q    Type
                         _______ _______ _______ _____ _____    ______ ____

>  <TORSDO>
F 21

$$$$
=
 OpenBabel11042414253D

 48 50  0  0  1  0  0  0  0  0999 V2000
  192.1160  172.4040  141.8000 C   0  0  0  0  0  3  0  0  0  0  0  0
  190.8480  172.2320  141.3910 C   0  0  0  0  0  0  0  0  0  0  0  0
  188.0140  175.4260  141.8880 C   0  0  0  0  0  0  0  0  0  0  0  0
  189.2600  173.9280  140.4400 C   0  0  0  0  0  3  0  0  0  0  0  0
  189.8800  173.3400  141.5530 C   0  0  0  0  0  0  0  0  0  0  0  0
  189.5510  173.8020  142.8360 C   0  0  0  0  0  3  0  0  0  0  0  0
  188.6280  174.8390  143.0010 C   0  0  0  0  0  3  0  0  0  0  0  0
  188.3340  174.9610  140.6070 C   0  0  0  0  0  3  0  0  0  0  0  0
  186.1630  176.5200  143.1950 N   0  0  0  0  0  2  0  0  0  0  0  0
  187.0350  176.5130  142.0590 C   0  0  0  0  0  0  0  0  0  0  0  0
  186.9700  177.4440  141.2110 O   0  0  0  0  0  0  0  0  0  0  0  0
  185.1550  177.5490  143.4070 C   0  0  0  0  0  2  0  0  0  0  0  0
  185.1910  178.0400  144.8460 C   0  0  0  0  0  2  0  0  0  0  0  0
  185.4570  176.8910  145.8090 C   0  0  0  0  0  2  0  0  0  0  0  0
  186.2320  177.3590  147.0340 C   0  0  2  0  0  3  0  0  0  0  0  0
  186.1110  178.7410  147.1630 O   0  0  0  0  0  1  0  0  0  0  0  0
  189.3760  175.0970  146.6340 C   0  0  0  0  0  0  0  0  0  0  0  0
  187.6750  176.9870  146.9320 C   0  0  0  0  0  0  0  0  0  0  0  0
  188.0430  175.6210  146.6920 N   0  0  0  0  0  2  0  0  0  0  0  0
  190.5720  175.9370  146.9230 C   0  0  0  0  0  1  0  0  0  0  0  0
  189.5430  173.8820  146.3520 O   0  0  0  0  0  0  0  0  0  0  0  0
  188.5480  177.8850  147.0510 O   0  0  0  0  0  0  0  0  0  0  0  0
  190.3840  170.9940  140.8310 N   0  0  0  0  0  2  0  0  0  0  0  0
  190.2220  170.7990  139.5010 O   0  0  0  0  0  1  0  0  0  0  0  0
  193.1810  171.4760  141.5560 N   0  0  0  0  0  0  0  0  0  0  0  0
  194.6150  169.5720  142.1840 C   0  0  0  0  0  1  0  0  0  0  0  0
  193.4750  170.4970  142.5980 C   0  0  1  0  0  3  0  0  0  0  0  0
  193.7520  171.1950  143.9400 C   0  0  0  0  0  2  0  0  0  0  0  0
  197.1130  170.3370  146.0770 N   0  0  0  0  0  2  0  0  0  0  0  0
  195.9080  171.9160  144.8280 C   0  0  2  0  0  3  0  0  0  0  0  0
  196.7900  171.7050  145.9880 N   0  0  0  0  0  2  0  0  0  0  0  0
  194.6620  170.1160  145.8630 C   0  0  0  0  0  2  0  0  0  0  0  0
  195.9330  169.6160  146.5570 C   0  0  0  0  0  2  0  0  0  0  0  0
  194.9990  170.7730  144.6010 N   0  0  0  0  0  0  0  0  0  0  0  0
  196.7390  172.1950  143.5850 C   0  0  0  0  0  2  0  0  0  0  0  0
  196.9650  173.5690  143.4840 O   0  0  0  0  0  0  0  0  0  0  0  0
  196.3150  173.9600  142.3150 C   0  0  0  0  0  2  0  0  0  0  0  0
  196.2410  175.4860  142.2090 C   0  0  2  0  0  3  0  0  0  0  0  0
  196.9770  177.1610  143.4230 O   0  0  0  0  0  1  0  0  0  0  0  0
  197.3880  176.1510  142.6810 O   0  0  0  0  0  0  0  0  0  0  0  0
  194.9160  176.1170  142.6550 C   0  0  0  0  0  2  0  0  0  0  0  0
  192.7040  175.7840  143.3460 C   0  0  0  0  0  2  0  0  0  0  0  0
  193.4720  175.5270  144.5580 C   0  0  1  0  0  3  0  0  0  0  0  0
  194.0120  175.1230  143.2330 N   0  0  0  0  0  0  0  0  0  0  0  0
  194.2810  176.4750  146.3850 C   0  0  0  0  0  1  0  0  0  0  0  0
  194.0390  176.7180  145.0330 O   0  0  0  0  0  0  0  0  0  0  0  0
  194.1530  171.7360  140.4920 C   0  0  0  0  0  2  0  0  0  0  0  0
  193.6120  171.2920  139.1430 C   0  0  0  0  0  1  0  0  0  0  0  0
  2  5  1  0  0  0  0
  2  1  2  0  0  0  0
  3 10  1  0  0  0  0
  3  7  1  0  0  0  0
  4  8  1  0  0  0  0
  4  5  2  0  0  0  0
  5  6  1  0  0  0  0
  6  7  2  0  0  0  0
  8  3  2  0  0  0  0
  9 12  1  0  0  0  0
 10  9  1  0  0  0  0
 11 10  2  0  0  0  0
 12 13  1  0  0  0  0
 13 14  1  0  0  0  0
 14 15  1  0  0  0  0
 15 16  1  6  0  0  0
 17 19  1  0  0  0  0
 17 20  1  0  0  0  0
 18 15  1  0  0  0  0
 18 22  2  0  0  0  0
 19 18  1  0  0  0  0
 21 17  2  0  0  0  0
 23  2  1  0  0  0  0
 24 23  1  0  0  0  0
 25  1  1  0  0  0  0
 25 27  1  0  0  0  0
 27 26  1  6  0  0  0
 27 28  1  0  0  0  0
 28 34  1  0  0  0  0
 29 33  1  0  0  0  0
 30 35  1  6  0  0  0
 30 31  1  0  0  0  0
 31 29  1  0  0  0  0
 32 33  1  0  0  0  0
 34 30  1  0  0  0  0
 34 32  1  0  0  0  0
 36 35  1  0  0  0  0
 37 36  1  0  0  0  0
 38 37  1  1  0  0  0
 38 41  1  0  0  0  0
 38 40  1  0  0  0  0
 40 39  1  0  0  0  0
 41 44  1  0  0  0  0
 42 43  1  0  0  0  0
 43 46  1  6  0  0  0
 44 42  1  0  0  0  0
 44 43  1  0  0  0  0
 46 45  1  0  0  0  0
 47 25  1  0  0  0  0
 48 47  1  0  0  0  0
M  END
>  <MODEL>
6

>  <REMARK>
 VINA RESULT:      -5.7      2.594      6.363
  Name = 
  21 active torsions:
  status: ('A' for Active; 'I' for Inactive)
    1  A    between atoms: C_1  and  C_23
    2  A    between atoms: C_1  and  C_35
    3  A    between atoms: C_2  and  N_22
    4  A    between atoms: C_2  and  C_23
    5  A    between atoms: C_3  and  N_15
    6  A    between atoms: C_5  and  N_15
    7  A    between atoms: C_6  and  C_25
    8  A    between atoms: C_7  and  N_15
    9  A    between atoms: C_7  and  C_36
   10  A    between atoms: C_8  and  C_16
   11  A    between atoms: C_8  and  N_29
   12  A    between atoms: O_12  and  C_16
   13  A    between atoms: C_13  and  C_38
   14  A    between atoms: C_16  and  C_19
   15  A    between atoms: N_18  and  C_32
   16  A    between atoms: C_19  and  O_31
   17  A    between atoms: C_24  and  C_35
   18  A    between atoms: C_26  and  C_32
   19  A    between atoms: C_27  and  O_41
   20  A    between atoms: O_31  and  C_38
   21  A    between atoms: C_36  and  N_48
                            x       y       z     vdW  Elec       q    Type
                         _______ _______ _______ _____ _____    ______ ____

>  <TORSDO>
F 21

$$$$
=
 OpenBabel11042414253D

 48 50  0  0  1  0  0  0  0  0999 V2000
  193.0300  175.1110  145.0950 C   0  0  0  0  0  3  0  0  0  0  0  0
  191.8090  174.5530  145.0830 C   0  0  0  0  0  0  0  0  0  0  0  0
  188.4300  176.7840  146.5280 C   0  0  0  0  0  0  0  0  0  0  0  0
  190.5020  176.6890  145.2670 C   0  0  0  0  0  3  0  0  0  0  0  0
  190.6550  175.3310  145.5870 C   0  0  0  0  0  0  0  0  0  0  0  0
  189.6770  174.7060  146.3760 C   0  0  0  0  0  3  0  0  0  0  0  0
  188.5770  175.4280  146.8460 C   0  0  0  0  0  3  0  0  0  0  0  0
  189.3990  177.4080  145.7320 C   0  0  0  0  0  3  0  0  0  0  0  0
  185.9610  177.2640  146.5000 N   0  0  0  0  0  2  0  0  0  0  0  0
  187.2670  177.5450  147.0140 C   0  0  0  0  0  0  0  0  0  0  0  0
  187.4190  178.4400  147.8910 O   0  0  0  0  0  0  0  0  0  0  0  0
  184.7760  178.0000  146.9180 C   0  0  0  0  0  2  0  0  0  0  0  0
  184.0590  178.5840  145.7100 C   0  0  0  0  0  2  0  0  0  0  0  0
  185.0080  179.4210  144.8630 C   0  0  0  0  0  2  0  0  0  0  0  0
  184.9220  179.0400  143.3900 C   0  0  2  0  0  3  0  0  0  0  0  0
  183.6360  178.5920  143.0980 O   0  0  0  0  0  1  0  0  0  0  0  0
  188.2910  177.4530  142.2550 C   0  0  0  0  0  0  0  0  0  0  0  0
  185.9150  177.9780  143.0510 C   0  0  0  0  0  0  0  0  0  0  0  0
  187.2500  178.3440  142.6700 N   0  0  0  0  0  2  0  0  0  0  0  0
  188.0600  175.9910  142.0770 C   0  0  0  0  0  1  0  0  0  0  0  0
  189.4350  177.9190  142.0100 O   0  0  0  0  0  0  0  0  0  0  0  0
  185.5650  176.7710  143.1130 O   0  0  0  0  0  0  0  0  0  0  0  0
  191.5840  173.2090  144.6300 N   0  0  0  0  0  2  0  0  0  0  0  0
  191.0420  172.9170  143.4230 O   0  0  0  0  0  1  0  0  0  0  0  0
  194.1950  174.5300  144.4930 N   0  0  0  0  0  0  0  0  0  0  0  0
  193.8490  176.0380  142.5740 C   0  0  0  0  0  1  0  0  0  0  0  0
  194.3540  174.6800  143.0490 C   0  0  1  0  0  3  0  0  0  0  0  0
  195.8120  174.4230  142.6330 C   0  0  0  0  0  2  0  0  0  0  0  0
  196.6720  172.2260  139.3110 N   0  0  0  0  0  2  0  0  0  0  0  0
  196.7800  174.3040  140.3960 C   0  0  2  0  0  3  0  0  0  0  0  0
  197.4810  173.3630  139.5070 N   0  0  0  0  0  2  0  0  0  0  0  0
  196.5630  172.3270  141.7770 C   0  0  0  0  0  2  0  0  0  0  0  0
  196.6900  171.4320  140.5410 C   0  0  0  0  0  2  0  0  0  0  0  0
  195.9640  173.6110  141.4150 N   0  0  0  0  0  0  0  0  0  0  0  0
  195.9200  175.2540  139.5760 C   0  0  0  0  0  2  0  0  0  0  0  0
  194.6500  174.6990  139.4170 O   0  0  0  0  0  0  0  0  0  0  0  0
  194.3910  174.7690  138.0490 C   0  0  0  0  0  2  0  0  0  0  0  0
  193.3770  173.7020  137.6250 C   0  0  2  0  0  3  0  0  0  0  0  0
  194.4920  173.6820  135.7330 O   0  0  0  0  0  1  0  0  0  0  0  0
  193.7990  172.9060  136.5430 O   0  0  0  0  0  0  0  0  0  0  0  0
  191.9200  174.1740  137.5320 C   0  0  0  0  0  2  0  0  0  0  0  0
  189.7190  173.7470  136.8560 C   0  0  0  0  0  2  0  0  0  0  0  0
  189.9440  172.7540  137.8990 C   0  0  1  0  0  3  0  0  0  0  0  0
  191.0500  173.1350  136.9800 N   0  0  0  0  0  0  0  0  0  0  0  0
  189.9160  172.3380  140.0710 C   0  0  0  0  0  1  0  0  0  0  0  0
  190.0410  173.3790  139.1500 O   0  0  0  0  0  0  0  0  0  0  0  0
  194.9790  173.5310  145.2230 C   0  0  0  0  0  2  0  0  0  0  0  0
  196.0250  174.1990  146.1000 C   0  0  0  0  0  1  0  0  0  0  0  0
  2  1  2  0  0  0  0
  2  5  1  0  0  0  0
  3  7  1  0  0  0  0
  3 10  1  0  0  0  0
  4  5  2  0  0  0  0
  4  8  1  0  0  0  0
  5  6  1  0  0  0  0
  6  7  2  0  0  0  0
  8  3  2  0  0  0  0
  9 12  1  0  0  0  0
  9 10  1  0  0  0  0
 10 11  2  0  0  0  0
 13 12  1  0  0  0  0
 14 13  1  0  0  0  0
 15 16  1  1  0  0  0
 15 14  1  0  0  0  0
 17 19  1  0  0  0  0
 18 22  2  0  0  0  0
 18 15  1  0  0  0  0
 19 18  1  0  0  0  0
 20 17  1  0  0  0  0
 21 17  2  0  0  0  0
 23  2  1  0  0  0  0
 24 23  1  0  0  0  0
 25  1  1  0  0  0  0
 25 47  1  0  0  0  0
 27 26  1  1  0  0  0
 27 25  1  0  0  0  0
 28 27  1  0  0  0  0
 29 31  1  0  0  0  0
 29 33  1  0  0  0  0
 30 35  1  6  0  0  0
 30 34  1  0  0  0  0
 31 30  1  0  0  0  0
 33 32  1  0  0  0  0
 34 32  1  0  0  0  0
 34 28  1  0  0  0  0
 36 35  1  0  0  0  0
 37 36  1  0  0  0  0
 38 41  1  6  0  0  0
 38 37  1  0  0  0  0
 39 40  1  0  0  0  0
 40 38  1  0  0  0  0
 42 44  1  0  0  0  0
 42 43  1  0  0  0  0
 43 46  1  1  0  0  0
 44 41  1  0  0  0  0
 44 43  1  0  0  0  0
 46 45  1  0  0  0  0
 47 48  1  0  0  0  0
M  END
>  <MODEL>
7

>  <REMARK>
 VINA RESULT:      -5.6      2.122      3.207
  Name = 
  21 active torsions:
  status: ('A' for Active; 'I' for Inactive)
    1  A    between atoms: C_1  and  C_23
    2  A    between atoms: C_1  and  C_35
    3  A    between atoms: C_2  and  N_22
    4  A    between atoms: C_2  and  C_23
    5  A    between atoms: C_3  and  N_15
    6  A    between atoms: C_5  and  N_15
    7  A    between atoms: C_6  and  C_25
    8  A    between atoms: C_7  and  N_15
    9  A    between atoms: C_7  and  C_36
   10  A    between atoms: C_8  and  C_16
   11  A    between atoms: C_8  and  N_29
   12  A    between atoms: O_12  and  C_16
   13  A    between atoms: C_13  and  C_38
   14  A    between atoms: C_16  and  C_19
   15  A    between atoms: N_18  and  C_32
   16  A    between atoms: C_19  and  O_31
   17  A    between atoms: C_24  and  C_35
   18  A    between atoms: C_26  and  C_32
   19  A    between atoms: C_27  and  O_41
   20  A    between atoms: O_31  and  C_38
   21  A    between atoms: C_36  and  N_48
                            x       y       z     vdW  Elec       q    Type
                         _______ _______ _______ _____ _____    ______ ____

>  <TORSDO>
F 21

$$$$
=
 OpenBabel11042414253D

 48 50  0  0  1  0  0  0  0  0999 V2000
  191.2890  176.6580  145.4240 C   0  0  0  0  0  3  0  0  0  0  0  0
  190.4500  175.8890  144.7100 C   0  0  0  0  0  0  0  0  0  0  0  0
  186.9110  177.6650  143.0360 C   0  0  0  0  0  0  0  0  0  0  0  0
  188.2700  177.1060  144.9680 C   0  0  0  0  0  3  0  0  0  0  0  0
  189.2240  176.4920  144.1420 C   0  0  0  0  0  0  0  0  0  0  0  0
  189.0110  176.4780  142.7560 C   0  0  0  0  0  3  0  0  0  0  0  0
  187.8630  177.0570  142.2080 C   0  0  0  0  0  3  0  0  0  0  0  0
  187.1250  177.6880  144.4200 C   0  0  0  0  0  3  0  0  0  0  0  0
  185.2360  177.8740  141.1720 N   0  0  0  0  0  2  0  0  0  0  0  0
  185.7040  178.2830  142.4610 C   0  0  0  0  0  0  0  0  0  0  0  0
  185.0780  179.1660  143.1080 O   0  0  0  0  0  0  0  0  0  0  0  0
  184.0670  178.4660  140.5360 C   0  0  0  0  0  2  0  0  0  0  0  0
  182.8410  178.3100  141.4240 C   0  0  0  0  0  2  0  0  0  0  0  0
  181.5980  178.0220  140.5940 C   0  0  0  0  0  2  0  0  0  0  0  0
  180.3630  178.6840  141.1920 C   0  0  2  0  0  3  0  0  0  0  0  0
  179.5300  177.7100  141.7380 O   0  0  0  0  0  1  0  0  0  0  0  0
  179.1770  181.7650  139.1280 C   0  0  0  0  0  0  0  0  0  0  0  0
  179.6180  179.4630  140.1590 C   0  0  0  0  0  0  0  0  0  0  0  0
  179.8550  180.8720  140.0200 N   0  0  0  0  0  2  0  0  0  0  0  0
  178.0370  181.3220  138.2770 C   0  0  0  0  0  1  0  0  0  0  0  0
  179.5410  182.9690  139.0750 O   0  0  0  0  0  0  0  0  0  0  0  0
  178.7950  178.8670  139.4180 O   0  0  0  0  0  0  0  0  0  0  0  0
  190.6830  174.4870  144.5050 N   0  0  0  0  0  2  0  0  0  0  0  0
  189.8580  173.5240  144.9820 O   0  0  0  0  0  1  0  0  0  0  0  0
  192.5790  176.2390  145.8880 N   0  0  0  0  0  0  0  0  0  0  0  0
  194.5360  177.7320  145.7620 C   0  0  0  0  0  1  0  0  0  0  0  0
  193.7400  176.6190  145.0890 C   0  0  1  0  0  3  0  0  0  0  0  0
  194.6100  175.3910  144.7740 C   0  0  0  0  0  2  0  0  0  0  0  0
  195.8960  175.6980  140.9200 N   0  0  0  0  0  2  0  0  0  0  0  0
  194.0860  175.4460  142.3910 C   0  0  2  0  0  3  0  0  0  0  0  0
  194.5520  176.0580  141.1360 N   0  0  0  0  0  2  0  0  0  0  0  0
  196.1010  176.4720  143.2570 C   0  0  0  0  0  2  0  0  0  0  0  0
  196.7310  176.4480  141.8610 C   0  0  0  0  0  2  0  0  0  0  0  0
  195.1560  175.3660  143.4070 N   0  0  0  0  0  0  0  0  0  0  0  0
  193.5050  174.0670  142.1140 C   0  0  0  0  0  2  0  0  0  0  0  0
  192.1940  174.2060  141.6560 O   0  0  0  0  0  0  0  0  0  0  0  0
  192.0280  173.1930  140.7130 C   0  0  0  0  0  2  0  0  0  0  0  0
  191.3880  171.9520  141.3440 C   0  0  2  0  0  3  0  0  0  0  0  0
  193.3160  170.9730  140.9580 O   0  0  0  0  0  1  0  0  0  0  0  0
  192.0180  170.7420  140.9980 O   0  0  0  0  0  0  0  0  0  0  0  0
  189.8560  171.9030  141.2990 C   0  0  0  0  0  2  0  0  0  0  0  0
  187.8170  173.0010  141.6450 C   0  0  0  0  0  2  0  0  0  0  0  0
  188.3400  173.6440  140.4460 C   0  0  1  0  0  3  0  0  0  0  0  0
  189.2670  173.2220  141.5310 N   0  0  0  0  0  0  0  0  0  0  0  0
  188.1900  173.5550  138.2410 C   0  0  0  0  0  1  0  0  0  0  0  0
  188.3230  172.7460  139.3700 O   0  0  0  0  0  0  0  0  0  0  0  0
  192.6900  175.1820  146.8950 C   0  0  0  0  0  2  0  0  0  0  0  0
  191.6020  175.3190  147.9480 C   0  0  0  0  0  1  0  0  0  0  0  0
  1 25  1  0  0  0  0
  2  1  2  0  0  0  0
  3  8  1  0  0  0  0
  5  2  1  0  0  0  0
  5  4  1  0  0  0  0
  6  5  2  0  0  0  0
  7  6  1  0  0  0  0
  7  3  2  0  0  0  0
  8  4  2  0  0  0  0
  9 10  1  0  0  0  0
 10  3  1  0  0  0  0
 10 11  2  0  0  0  0
 12  9  1  0  0  0  0
 12 13  1  0  0  0  0
 14 15  1  0  0  0  0
 14 13  1  0  0  0  0
 15 16  1  6  0  0  0
 17 19  1  0  0  0  0
 18 15  1  0  0  0  0
 19 18  1  0  0  0  0
 20 17  1  0  0  0  0
 21 17  2  0  0  0  0
 22 18  2  0  0  0  0
 23  2  1  0  0  0  0
 23 24  1  0  0  0  0
 25 47  1  0  0  0  0
 27 26  1  1  0  0  0
 27 25  1  0  0  0  0
 28 27  1  0  0  0  0
 29 31  1  0  0  0  0
 29 33  1  0  0  0  0
 30 35  1  6  0  0  0
 30 34  1  0  0  0  0
 31 30  1  0  0  0  0
 32 34  1  0  0  0  0
 33 32  1  0  0  0  0
 34 28  1  0  0  0  0
 36 35  1  0  0  0  0
 37 36  1  0  0  0  0
 38 37  1  6  0  0  0
 39 40  1  0  0  0  0
 40 38  1  0  0  0  0
 41 38  1  0  0  0  0
 41 44  1  0  0  0  0
 43 46  1  6  0  0  0
 43 44  1  0  0  0  0
 43 42  1  0  0  0  0
 44 42  1  0  0  0  0
 45 46  1  0  0  0  0
 47 48  1  0  0  0  0
M  END
>  <MODEL>
8

>  <REMARK>
 VINA RESULT:      -5.5      3.690      5.112
  Name = 
  21 active torsions:
  status: ('A' for Active; 'I' for Inactive)
    1  A    between atoms: C_1  and  C_23
    2  A    between atoms: C_1  and  C_35
    3  A    between atoms: C_2  and  N_22
    4  A    between atoms: C_2  and  C_23
    5  A    between atoms: C_3  and  N_15
    6  A    between atoms: C_5  and  N_15
    7  A    between atoms: C_6  and  C_25
    8  A    between atoms: C_7  and  N_15
    9  A    between atoms: C_7  and  C_36
   10  A    between atoms: C_8  and  C_16
   11  A    between atoms: C_8  and  N_29
   12  A    between atoms: O_12  and  C_16
   13  A    between atoms: C_13  and  C_38
   14  A    between atoms: C_16  and  C_19
   15  A    between atoms: N_18  and  C_32
   16  A    between atoms: C_19  and  O_31
   17  A    between atoms: C_24  and  C_35
   18  A    between atoms: C_26  and  C_32
   19  A    between atoms: C_27  and  O_41
   20  A    between atoms: O_31  and  C_38
   21  A    between atoms: C_36  and  N_48
                            x       y       z     vdW  Elec       q    Type
                         _______ _______ _______ _____ _____    ______ ____

>  <TORSDO>
F 21

$$$$
=
 OpenBabel11042414253D

 48 50  0  0  1  0  0  0  0  0999 V2000
  187.3040  176.7170  142.0150 C   0  0  0  0  0  3  0  0  0  0  0  0
  188.6440  176.6400  142.0680 C   0  0  0  0  0  0  0  0  0  0  0  0
  190.4850  172.7850  142.5510 C   0  0  0  0  0  0  0  0  0  0  0  0
  190.6780  175.1970  142.3550 C   0  0  0  0  0  3  0  0  0  0  0  0
  189.2860  175.3160  142.2220 C   0  0  0  0  0  0  0  0  0  0  0  0
  188.5000  174.1550  142.2630 C   0  0  0  0  0  3  0  0  0  0  0  0
  189.0950  172.9000  142.4220 C   0  0  0  0  0  3  0  0  0  0  0  0
  191.2710  173.9440  142.5190 C   0  0  0  0  0  3  0  0  0  0  0  0
  190.6750  170.3530  141.9410 N   0  0  0  0  0  2  0  0  0  0  0  0
  191.1140  171.4650  142.7270 C   0  0  0  0  0  0  0  0  0  0  0  0
  192.0460  171.3170  143.5630 O   0  0  0  0  0  0  0  0  0  0  0  0
  191.2360  169.0160  142.0870 C   0  0  0  0  0  2  0  0  0  0  0  0
  191.2780  168.3060  140.7420 C   0  0  0  0  0  2  0  0  0  0  0  0
  192.0450  169.1280  139.7140 C   0  0  0  0  0  2  0  0  0  0  0  0
  191.2280  169.3370  138.4460 C   0  0  2  0  0  3  0  0  0  0  0  0
  192.0520  169.1970  137.3310 O   0  0  0  0  0  1  0  0  0  0  0  0
  190.8930  173.1950  138.8470 C   0  0  0  0  0  0  0  0  0  0  0  0
  190.5890  170.6870  138.4350 C   0  0  0  0  0  0  0  0  0  0  0  0
  191.3710  171.8480  138.7510 N   0  0  0  0  0  2  0  0  0  0  0  0
  189.4480  173.5350  138.7140 C   0  0  0  0  0  1  0  0  0  0  0  0
  191.7150  174.1210  139.0730 O   0  0  0  0  0  0  0  0  0  0  0  0
  189.3700  170.7840  138.1390 O   0  0  0  0  0  0  0  0  0  0  0  0
  189.4810  177.8060  142.0150 N   0  0  0  0  0  2  0  0  0  0  0  0
  190.1700  178.2690  143.0840 O   0  0  0  0  0  1  0  0  0  0  0  0
  186.5700  177.9090  141.7100 N   0  0  0  0  0  0  0  0  0  0  0  0
  184.5740  177.7690  143.1500 C   0  0  0  0  0  1  0  0  0  0  0  0
  185.8370  178.5490  142.7990 C   0  0  1  0  0  3  0  0  0  0  0  0
  186.7480  178.7600  144.0190 C   0  0  0  0  0  2  0  0  0  0  0  0
  185.5930  177.4110  147.6860 N   0  0  0  0  0  2  0  0  0  0  0  0
  187.3510  177.8010  146.1810 C   0  0  2  0  0  3  0  0  0  0  0  0
  186.9360  177.8260  147.5930 N   0  0  0  0  0  2  0  0  0  0  0  0
  185.3260  179.1000  145.9040 C   0  0  0  0  0  2  0  0  0  0  0  0
  184.7420  178.4890  147.1810 C   0  0  0  0  0  2  0  0  0  0  0  0
  186.2460  178.1590  145.2660 N   0  0  0  0  0  0  0  0  0  0  0  0
  187.9160  176.4330  145.8280 C   0  0  0  0  0  2  0  0  0  0  0  0
  189.2340  176.5820  145.3930 O   0  0  0  0  0  0  0  0  0  0  0  0
  190.0110  176.4760  146.5460 C   0  0  0  0  0  2  0  0  0  0  0  0
  191.3180  175.7280  146.2640 C   0  0  2  0  0  3  0  0  0  0  0  0
  191.0930  175.2970  148.4050 O   0  0  0  0  0  1  0  0  0  0  0  0
  191.7610  174.9240  147.3310 O   0  0  0  0  0  0  0  0  0  0  0  0
  192.4220  176.5540  145.5940 C   0  0  0  0  0  2  0  0  0  0  0  0
  194.6080  177.3850  145.7230 C   0  0  0  0  0  2  0  0  0  0  0  0
  194.7980  176.0290  145.2220 C   0  0  1  0  0  3  0  0  0  0  0  0
  193.7260  176.3150  146.2130 N   0  0  0  0  0  0  0  0  0  0  0  0
  195.4420  176.0500  143.1070 C   0  0  0  0  0  1  0  0  0  0  0  0
  194.3100  175.9250  143.9130 O   0  0  0  0  0  0  0  0  0  0  0  0
  186.2700  178.2520  140.3180 C   0  0  0  0  0  2  0  0  0  0  0  0
  186.6410  177.1090  139.3870 C   0  0  0  0  0  1  0  0  0  0  0  0
  1  2  2  0  0  0  0
  2  5  1  0  0  0  0
  3 10  1  0  0  0  0
  4  8  2  0  0  0  0
  5  6  2  0  0  0  0
  5  4  1  0  0  0  0
  6  7  1  0  0  0  0
  7  3  2  0  0  0  0
  8  3  1  0  0  0  0
  9 12  1  0  0  0  0
  9 10  1  0  0  0  0
 10 11  2  0  0  0  0
 13 12  1  0  0  0  0
 14 13  1  0  0  0  0
 15 16  1  6  0  0  0
 15 14  1  0  0  0  0
 17 21  2  0  0  0  0
 18 15  1  0  0  0  0
 18 19  1  0  0  0  0
 19 17  1  0  0  0  0
 20 17  1  0  0  0  0
 22 18  2  0  0  0  0
 23  2  1  0  0  0  0
 23 24  1  0  0  0  0
 25  1  1  0  0  0  0
 25 27  1  0  0  0  0
 27 26  1  1  0  0  0
 27 28  1  0  0  0  0
 28 34  1  0  0  0  0
 30 35  1  6  0  0  0
 30 31  1  0  0  0  0
 31 29  1  0  0  0  0
 32 33  1  0  0  0  0
 33 29  1  0  0  0  0
 34 32  1  0  0  0  0
 34 30  1  0  0  0  0
 36 35  1  0  0  0  0
 36 37  1  0  0  0  0
 38 41  1  1  0  0  0
 38 37  1  0  0  0  0
 38 40  1  0  0  0  0
 40 39  1  0  0  0  0
 41 44  1  0  0  0  0
 42 44  1  0  0  0  0
 43 46  1  6  0  0  0
 43 42  1  0  0  0  0
 43 44  1  0  0  0  0
 45 46  1  0  0  0  0
 47 25  1  0  0  0  0
 48 47  1  0  0  0  0
M  END
>  <MODEL>
9

>  <REMARK>
 VINA RESULT:      -5.4      2.517      9.212
  Name = 
  21 active torsions:
  status: ('A' for Active; 'I' for Inactive)
    1  A    between atoms: C_1  and  C_23
    2  A    between atoms: C_1  and  C_35
    3  A    between atoms: C_2  and  N_22
    4  A    between atoms: C_2  and  C_23
    5  A    between atoms: C_3  and  N_15
    6  A    between atoms: C_5  and  N_15
    7  A    between atoms: C_6  and  C_25
    8  A    between atoms: C_7  and  N_15
    9  A    between atoms: C_7  and  C_36
   10  A    between atoms: C_8  and  C_16
   11  A    between atoms: C_8  and  N_29
   12  A    between atoms: O_12  and  C_16
   13  A    between atoms: C_13  and  C_38
   14  A    between atoms: C_16  and  C_19
   15  A    between atoms: N_18  and  C_32
   16  A    between atoms: C_19  and  O_31
   17  A    between atoms: C_24  and  C_35
   18  A    between atoms: C_26  and  C_32
   19  A    between atoms: C_27  and  O_41
   20  A    between atoms: O_31  and  C_38
   21  A    between atoms: C_36  and  N_48
                            x       y       z     vdW  Elec       q    Type
                         _______ _______ _______ _____ _____    ______ ____

>  <TORSDO>
F 21

$$$$
