=
 OpenBabel11042418113D

 25 27  0  0  1  0  0  0  0  0999 V2000
  188.7590  174.8870  143.4690 O   0  0  0  0  0  1  0  0  0  0  0  0
  189.1920  175.7070  144.5140 C   0  0  1  0  0  0  0  0  0  0  0  0
  189.9810  174.8600  145.4610 C   0  0  0  0  0  0  0  0  0  0  0  0
  191.3760  175.2270  145.4570 C   0  0  0  0  0  0  0  0  0  0  0  0
  190.2760  176.6850  143.9730 C   0  0  2  0  0  3  0  0  0  0  0  0
  189.5060  173.9040  146.1330 O   0  0  0  0  0  0  0  0  0  0  0  0
  191.5630  176.2330  144.6040 C   0  0  0  0  0  0  0  0  0  0  0  0
  190.0370  178.1590  144.2910 C   0  0  0  0  0  1  0  0  0  0  0  0
  184.6150  178.1390  144.6750 C   0  0  0  0  0  0  0  0  0  0  0  0
  186.8340  176.7440  142.9120 C   0  0  0  0  0  1  0  0  0  0  0  0
  186.8930  176.8740  144.4000 C   0  0  0  0  0  0  0  0  0  0  0  0
  185.8570  177.5180  145.0790 C   0  0  0  0  0  0  0  0  0  0  0  0
  183.9740  178.6640  145.8360 N   0  0  0  0  0  0  0  0  0  0  0  0
  184.7030  178.4190  146.8550 N   0  0  0  0  0  0  0  0  0  0  0  0
  186.9320  177.2890  147.2180 C   0  0  0  0  0  3  0  0  0  0  0  0
  187.9920  176.6280  146.5750 C   0  0  0  0  0  3  0  0  0  0  0  0
  187.9900  176.3920  145.1720 C   0  0  0  0  0  0  0  0  0  0  0  0
  185.8710  177.7170  146.4310 C   0  0  0  0  0  0  0  0  0  0  0  0
  184.1530  178.2200  143.5060 O   0  0  0  0  0  0  0  0  0  0  0  0
  192.3330  174.5680  146.2450 O   0  0  0  0  0  0  0  0  0  0  0  0
  193.1770  173.5930  145.7830 C   0  0  0  0  0  0  0  0  0  0  0  0
  193.8910  172.7680  145.3960 N   0  0  0  0  0  0  0  0  0  0  0  0
  192.8800  176.8430  144.2410 C   0  0  0  0  0  2  0  0  0  0  0  0
  193.4840  176.1170  143.0550 C   0  0  0  0  0  2  0  0  0  0  0  0
  194.9430  175.8250  143.3310 C   0  0  0  0  0  1  0  0  0  0  0  0
  2  1  1  6  0  0  0
  2 17  1  0  0  0  0
  2  3  1  0  0  0  0
  3  6  2  0  0  0  0
  4  3  1  0  0  0  0
  4 20  1  0  0  0  0
  5  8  1  1  0  0  0
  5  2  1  0  0  0  0
  5  7  1  0  0  0  0
  7  4  2  0  0  0  0
  9 12  1  0  0  0  0
  9 13  1  0  0  0  0
 10 11  1  0  0  0  0
 11 12  2  0  0  0  0
 11 17  1  0  0  0  0
 12 18  1  0  0  0  0
 13 14  2  0  0  0  0
 16 15  1  0  0  0  0
 17 16  2  0  0  0  0
 18 14  1  0  0  0  0
 18 15  2  0  0  0  0
 19  9  2  0  0  0  0
 21 20  1  0  0  0  0
 22 21  3  0  0  0  0
 23  7  1  0  0  0  0
 24 25  1  0  0  0  0
 24 23  1  0  0  0  0
M  END
>  <MODEL>
1

>  <REMARK>
 VINA RESULT:      -6.7      0.000      0.000
  Name = 
  5 active torsions:
  status: ('A' for Active; 'I' for Inactive)
    1  A    between atoms: O_1  and  C_4
    2  A    between atoms: O_1  and  C_12
    3  A    between atoms: C_6  and  C_9
    4  A    between atoms: C_9  and  C_20
    5  A    between atoms: C_10  and  C_22
                            x       y       z     vdW  Elec       q    Type
                         _______ _______ _______ _____ _____    ______ ____

>  <TORSDO>
F 5

$$$$
=
 OpenBabel11042418113D

 25 27  0  0  1  0  0  0  0  0999 V2000
  188.1660  174.8990  143.0330 O   0  0  0  0  0  1  0  0  0  0  0  0
  188.3380  176.1720  143.5840 C   0  0  1  0  0  0  0  0  0  0  0  0
  187.7790  177.1660  142.6160 C   0  0  0  0  0  0  0  0  0  0  0  0
  186.5990  177.8060  143.1430 C   0  0  0  0  0  0  0  0  0  0  0  0
  187.3790  176.3290  144.8010 C   0  0  2  0  0  3  0  0  0  0  0  0
  188.2400  177.3780  141.4620 O   0  0  0  0  0  0  0  0  0  0  0  0
  186.3440  177.3260  144.3600 C   0  0  0  0  0  0  0  0  0  0  0  0
  188.0410  176.8110  146.0890 C   0  0  0  0  0  1  0  0  0  0  0  0
  193.0610  174.9600  145.3490 C   0  0  0  0  0  0  0  0  0  0  0  0
  190.0970  174.0180  144.7950 C   0  0  0  0  0  1  0  0  0  0  0  0
  190.6260  175.3790  144.4770 C   0  0  0  0  0  0  0  0  0  0  0  0
  191.9540  175.6910  144.7720 C   0  0  0  0  0  0  0  0  0  0  0  0
  194.1860  175.8330  145.4280 N   0  0  0  0  0  0  0  0  0  0  0  0
  193.8530  176.9760  144.9680 N   0  0  0  0  0  0  0  0  0  0  0  0
  191.7290  177.9660  144.0270 C   0  0  0  0  0  3  0  0  0  0  0  0
  190.3890  177.6930  143.7080 C   0  0  0  0  0  3  0  0  0  0  0  0
  189.8170  176.4050  143.9060 C   0  0  0  0  0  0  0  0  0  0  0  0
  192.4880  176.9300  144.5550 C   0  0  0  0  0  0  0  0  0  0  0  0
  193.0610  173.7580  145.7280 O   0  0  0  0  0  0  0  0  0  0  0  0
  185.8730  178.7660  142.4200 O   0  0  0  0  0  0  0  0  0  0  0  0
  184.9350  178.4690  141.4660 C   0  0  0  0  0  0  0  0  0  0  0  0
  184.1400  178.2190  140.6630 N   0  0  0  0  0  0  0  0  0  0  0  0
  185.1580  177.6620  145.2060 C   0  0  0  0  0  2  0  0  0  0  0  0
  185.2710  179.0830  145.7250 C   0  0  0  0  0  2  0  0  0  0  0  0
  185.5240  179.0570  147.2170 C   0  0  0  0  0  1  0  0  0  0  0  0
  2  1  1  6  0  0  0
  2 17  1  0  0  0  0
  2  5  1  0  0  0  0
  3  4  1  0  0  0  0
  3  2  1  0  0  0  0
  4  7  2  0  0  0  0
  5  8  1  1  0  0  0
  6  3  2  0  0  0  0
  7  5  1  0  0  0  0
  7 23  1  0  0  0  0
  9 13  1  0  0  0  0
  9 19  2  0  0  0  0
 11 12  1  0  0  0  0
 11 10  1  0  0  0  0
 12  9  1  0  0  0  0
 14 13  2  0  0  0  0
 15 18  1  0  0  0  0
 16 17  1  0  0  0  0
 16 15  2  0  0  0  0
 17 11  2  0  0  0  0
 18 12  2  0  0  0  0
 18 14  1  0  0  0  0
 20  4  1  0  0  0  0
 21 20  1  0  0  0  0
 22 21  3  0  0  0  0
 23 24  1  0  0  0  0
 24 25  1  0  0  0  0
M  END
>  <MODEL>
2

>  <REMARK>
 VINA RESULT:      -6.6      2.209      7.200
  Name = 
  5 active torsions:
  status: ('A' for Active; 'I' for Inactive)
    1  A    between atoms: O_1  and  C_4
    2  A    between atoms: O_1  and  C_12
    3  A    between atoms: C_6  and  C_9
    4  A    between atoms: C_9  and  C_20
    5  A    between atoms: C_10  and  C_22
                            x       y       z     vdW  Elec       q    Type
                         _______ _______ _______ _____ _____    ______ ____

>  <TORSDO>
F 5

$$$$
=
 OpenBabel11042418113D

 25 27  0  0  1  0  0  0  0  0999 V2000
  190.1370  177.5800  146.0540 O   0  0  0  0  0  1  0  0  0  0  0  0
  190.0790  177.0120  144.7790 C   0  0  1  0  0  0  0  0  0  0  0  0
  191.3240  177.4060  144.0490 C   0  0  0  0  0  0  0  0  0  0  0  0
  192.1770  176.2670  143.8110 C   0  0  0  0  0  0  0  0  0  0  0  0
  190.2520  175.4690  144.9050 C   0  0  2  0  0  3  0  0  0  0  0  0
  191.6260  178.5890  143.7340 O   0  0  0  0  0  0  0  0  0  0  0  0
  191.6010  175.1740  144.3120 C   0  0  0  0  0  0  0  0  0  0  0  0
  189.1850  174.6390  144.1950 C   0  0  0  0  0  1  0  0  0  0  0  0
  185.0260  178.0870  144.3400 C   0  0  0  0  0  0  0  0  0  0  0  0
  187.4120  177.1970  146.2100 C   0  0  0  0  0  1  0  0  0  0  0  0
  187.5520  177.5310  144.7600 C   0  0  0  0  0  0  0  0  0  0  0  0
  186.4250  177.9070  144.0250 C   0  0  0  0  0  0  0  0  0  0  0  0
  184.3390  178.4590  143.1470 N   0  0  0  0  0  0  0  0  0  0  0  0
  185.1780  178.5100  142.1870 N   0  0  0  0  0  0  0  0  0  0  0  0
  187.6580  178.0840  141.9680 C   0  0  0  0  0  3  0  0  0  0  0  0
  188.8170  177.7170  142.6710 C   0  0  0  0  0  3  0  0  0  0  0  0
  188.7960  177.4530  144.0680 C   0  0  0  0  0  0  0  0  0  0  0  0
  186.4730  178.1750  142.6860 C   0  0  0  0  0  0  0  0  0  0  0  0
  184.4780  177.9460  145.4660 O   0  0  0  0  0  0  0  0  0  0  0  0
  193.4170  176.3740  143.1620 O   0  0  0  0  0  0  0  0  0  0  0  0
  194.6300  176.3180  143.7960 C   0  0  0  0  0  0  0  0  0  0  0  0
  195.6550  176.2670  144.3300 N   0  0  0  0  0  0  0  0  0  0  0  0
  192.2010  173.8050  144.3530 C   0  0  0  0  0  2  0  0  0  0  0  0
  193.0280  173.6340  145.6120 C   0  0  0  0  0  2  0  0  0  0  0  0
  194.2490  172.7940  145.3040 C   0  0  0  0  0  1  0  0  0  0  0  0
  2  5  1  0  0  0  0
  2  1  1  1  0  0  0
  3  2  1  0  0  0  0
  4  3  1  0  0  0  0
  4  7  2  0  0  0  0
  5  8  1  6  0  0  0
  6  3  2  0  0  0  0
  7 23  1  0  0  0  0
  7  5  1  0  0  0  0
  9 19  2  0  0  0  0
 11 10  1  0  0  0  0
 12  9  1  0  0  0  0
 12 11  2  0  0  0  0
 13  9  1  0  0  0  0
 14 18  1  0  0  0  0
 14 13  2  0  0  0  0
 15 16  1  0  0  0  0
 15 18  2  0  0  0  0
 16 17  2  0  0  0  0
 17 11  1  0  0  0  0
 17  2  1  0  0  0  0
 18 12  1  0  0  0  0
 20 21  1  0  0  0  0
 20  4  1  0  0  0  0
 21 22  3  0  0  0  0
 23 24  1  0  0  0  0
 25 24  1  0  0  0  0
M  END
>  <MODEL>
3

>  <REMARK>
 VINA RESULT:      -6.4      2.194      3.306
  Name = 
  5 active torsions:
  status: ('A' for Active; 'I' for Inactive)
    1  A    between atoms: O_1  and  C_4
    2  A    between atoms: O_1  and  C_12
    3  A    between atoms: C_6  and  C_9
    4  A    between atoms: C_9  and  C_20
    5  A    between atoms: C_10  and  C_22
                            x       y       z     vdW  Elec       q    Type
                         _______ _______ _______ _____ _____    ______ ____

>  <TORSDO>
F 5

$$$$
=
 OpenBabel11042418113D

 25 27  0  0  1  0  0  0  0  0999 V2000
  189.6890  174.2540  145.4510 O   0  0  0  0  0  1  0  0  0  0  0  0
  189.8020  175.3510  144.5930 C   0  0  1  0  0  0  0  0  0  0  0  0
  188.8640  175.1330  143.4490 C   0  0  0  0  0  0  0  0  0  0  0  0
  187.7780  176.0820  143.4700 C   0  0  0  0  0  0  0  0  0  0  0  0
  189.1820  176.6000  145.2870 C   0  0  2  0  0  3  0  0  0  0  0  0
  188.9690  174.2010  142.6060 O   0  0  0  0  0  0  0  0  0  0  0  0
  187.9270  176.8970  144.5140 C   0  0  0  0  0  0  0  0  0  0  0  0
  190.0750  177.8380  145.3120 C   0  0  0  0  0  1  0  0  0  0  0  0
  194.9490  175.5290  145.1980 C   0  0  0  0  0  0  0  0  0  0  0  0
  192.1250  175.0160  146.5150 C   0  0  0  0  0  1  0  0  0  0  0  0
  192.3370  175.3650  145.0770 C   0  0  0  0  0  0  0  0  0  0  0  0
  193.6320  175.5780  144.6020 C   0  0  0  0  0  0  0  0  0  0  0  0
  195.9080  175.8770  144.2010 N   0  0  0  0  0  0  0  0  0  0  0  0
  195.2960  176.1210  143.1080 N   0  0  0  0  0  0  0  0  0  0  0  0
  192.8750  176.1440  142.3910 C   0  0  0  0  0  3  0  0  0  0  0  0
  191.5560  175.9320  142.8260 C   0  0  0  0  0  3  0  0  0  0  0  0
  191.2600  175.5260  144.1570 C   0  0  0  0  0  0  0  0  0  0  0  0
  193.8940  175.9500  143.3130 C   0  0  0  0  0  0  0  0  0  0  0  0
  195.2320  175.2350  146.3890 O   0  0  0  0  0  0  0  0  0  0  0  0
  186.7510  176.0760  142.5140 O   0  0  0  0  0  0  0  0  0  0  0  0
  186.7420  176.8490  141.3830 C   0  0  0  0  0  0  0  0  0  0  0  0
  186.7340  177.4980  140.4250 N   0  0  0  0  0  0  0  0  0  0  0  0
  186.9660  177.9600  144.9430 C   0  0  0  0  0  2  0  0  0  0  0  0
  186.4640  177.6770  146.3450 C   0  0  0  0  0  2  0  0  0  0  0  0
  185.1960  176.8550  146.2710 C   0  0  0  0  0  1  0  0  0  0  0  0
  2  5  1  0  0  0  0
  2  1  1  1  0  0  0
  3  4  1  0  0  0  0
  3  2  1  0  0  0  0
  4  7  2  0  0  0  0
  5  8  1  6  0  0  0
  6  3  2  0  0  0  0
  7 23  1  0  0  0  0
  7  5  1  0  0  0  0
  9 19  2  0  0  0  0
 11 10  1  0  0  0  0
 12 11  1  0  0  0  0
 12  9  1  0  0  0  0
 13  9  1  0  0  0  0
 14 18  1  0  0  0  0
 14 13  2  0  0  0  0
 15 16  2  0  0  0  0
 15 18  1  0  0  0  0
 16 17  1  0  0  0  0
 17  2  1  0  0  0  0
 17 11  2  0  0  0  0
 18 12  2  0  0  0  0
 20  4  1  0  0  0  0
 21 20  1  0  0  0  0
 22 21  3  0  0  0  0
 23 24  1  0  0  0  0
 25 24  1  0  0  0  0
M  END
>  <MODEL>
4

>  <REMARK>
 VINA RESULT:      -6.4      2.448      7.311
  Name = 
  5 active torsions:
  status: ('A' for Active; 'I' for Inactive)
    1  A    between atoms: O_1  and  C_4
    2  A    between atoms: O_1  and  C_12
    3  A    between atoms: C_6  and  C_9
    4  A    between atoms: C_9  and  C_20
    5  A    between atoms: C_10  and  C_22
                            x       y       z     vdW  Elec       q    Type
                         _______ _______ _______ _____ _____    ______ ____

>  <TORSDO>
F 5

$$$$
=
 OpenBabel11042418113D

 25 27  0  0  1  0  0  0  0  0999 V2000
  189.8940  177.8350  145.5350 O   0  0  0  0  0  1  0  0  0  0  0  0
  189.2290  176.7160  145.0270 C   0  0  1  0  0  0  0  0  0  0  0  0
  188.0600  176.4370  145.9180 C   0  0  0  0  0  0  0  0  0  0  0  0
  186.8110  176.6830  145.2400 C   0  0  0  0  0  0  0  0  0  0  0  0
  188.5310  177.1080  143.6910 C   0  0  2  0  0  3  0  0  0  0  0  0
  188.1500  176.0920  147.1280 O   0  0  0  0  0  0  0  0  0  0  0  0
  187.0590  177.0880  143.9950 C   0  0  0  0  0  0  0  0  0  0  0  0
  188.8250  176.1840  142.5110 C   0  0  0  0  0  1  0  0  0  0  0  0
  193.7570  174.3680  144.0930 C   0  0  0  0  0  0  0  0  0  0  0  0
  192.1420  177.0770  144.2630 C   0  0  0  0  0  1  0  0  0  0  0  0
  191.5660  175.7290  144.5530 C   0  0  0  0  0  0  0  0  0  0  0  0
  192.3710  174.5940  144.4380 C   0  0  0  0  0  0  0  0  0  0  0  0
  194.0040  172.9630  144.1180 N   0  0  0  0  0  0  0  0  0  0  0  0
  192.9240  172.3610  144.4340 N   0  0  0  0  0  0  0  0  0  0  0  0
  190.5670  173.0940  144.9650 C   0  0  0  0  0  3  0  0  0  0  0  0
  189.7240  174.2090  145.0980 C   0  0  0  0  0  3  0  0  0  0  0  0
  190.2000  175.5370  144.9140 C   0  0  0  0  0  0  0  0  0  0  0  0
  191.8960  173.3280  144.6380 C   0  0  0  0  0  0  0  0  0  0  0  0
  194.6200  175.2400  143.8110 O   0  0  0  0  0  0  0  0  0  0  0  0
  185.5660  176.5160  145.8660 O   0  0  0  0  0  0  0  0  0  0  0  0
  184.9330  177.4850  146.6000 C   0  0  0  0  0  0  0  0  0  0  0  0
  184.3940  178.3020  147.2170 N   0  0  0  0  0  0  0  0  0  0  0  0
  186.0380  177.5320  142.9960 C   0  0  0  0  0  2  0  0  0  0  0  0
  186.1730  179.0200  142.7360 C   0  0  0  0  0  2  0  0  0  0  0  0
  185.5660  179.7910  143.8880 C   0  0  0  0  0  1  0  0  0  0  0  0
  2  1  1  1  0  0  0
  2  3  1  0  0  0  0
  3  6  2  0  0  0  0
  4 20  1  0  0  0  0
  4  3  1  0  0  0  0
  5  8  1  6  0  0  0
  5  7  1  0  0  0  0
  5  2  1  0  0  0  0
  7  4  2  0  0  0  0
  9 13  1  0  0  0  0
  9 12  1  0  0  0  0
 10 11  1  0  0  0  0
 11 17  1  0  0  0  0
 12 11  2  0  0  0  0
 12 18  1  0  0  0  0
 13 14  2  0  0  0  0
 14 18  1  0  0  0  0
 15 16  1  0  0  0  0
 17  2  1  0  0  0  0
 17 16  2  0  0  0  0
 18 15  2  0  0  0  0
 19  9  2  0  0  0  0
 20 21  1  0  0  0  0
 21 22  3  0  0  0  0
 23  7  1  0  0  0  0
 24 23  1  0  0  0  0
 24 25  1  0  0  0  0
M  END
>  <MODEL>
5

>  <REMARK>
 VINA RESULT:      -6.4      1.848      7.035
  Name = 
  5 active torsions:
  status: ('A' for Active; 'I' for Inactive)
    1  A    between atoms: O_1  and  C_4
    2  A    between atoms: O_1  and  C_12
    3  A    between atoms: C_6  and  C_9
    4  A    between atoms: C_9  and  C_20
    5  A    between atoms: C_10  and  C_22
                            x       y       z     vdW  Elec       q    Type
                         _______ _______ _______ _____ _____    ______ ____

>  <TORSDO>
F 5

$$$$
=
 OpenBabel11042418113D

 25 27  0  0  1  0  0  0  0  0999 V2000
  188.9370  174.6000  143.8030 O   0  0  0  0  0  1  0  0  0  0  0  0
  189.3260  175.7470  144.5000 C   0  0  1  0  0  0  0  0  0  0  0  0
  188.7370  176.9290  143.7960 C   0  0  0  0  0  0  0  0  0  0  0  0
  187.7240  177.5680  144.6000 C   0  0  0  0  0  0  0  0  0  0  0  0
  188.5830  175.7820  145.8690 C   0  0  2  0  0  3  0  0  0  0  0  0
  189.0380  177.2870  142.6250 O   0  0  0  0  0  0  0  0  0  0  0  0
  187.6060  176.9180  145.7570 C   0  0  0  0  0  0  0  0  0  0  0  0
  189.4800  175.9920  147.0870 C   0  0  0  0  0  1  0  0  0  0  0  0
  194.1080  173.8720  145.2090 C   0  0  0  0  0  0  0  0  0  0  0  0
  191.0110  173.2780  145.0090 C   0  0  0  0  0  1  0  0  0  0  0  0
  191.6260  174.6300  144.8450 C   0  0  0  0  0  0  0  0  0  0  0  0
  193.0100  174.7800  144.9620 C   0  0  0  0  0  0  0  0  0  0  0  0
  195.3170  174.6270  145.2470 N   0  0  0  0  0  0  0  0  0  0  0  0
  195.0410  175.8570  145.0520 N   0  0  0  0  0  0  0  0  0  0  0  0
  192.9150  177.1640  144.6670 C   0  0  0  0  0  3  0  0  0  0  0  0
  191.5200  177.0580  144.5360 C   0  0  0  0  0  3  0  0  0  0  0  0
  190.8530  175.8030  144.6040 C   0  0  0  0  0  0  0  0  0  0  0  0
  193.6310  175.9940  144.8740 C   0  0  0  0  0  0  0  0  0  0  0  0
  194.0390  172.6240  145.3700 O   0  0  0  0  0  0  0  0  0  0  0  0
  187.0040  178.6890  144.1570 O   0  0  0  0  0  0  0  0  0  0  0  0
  185.9470  178.6350  143.2870 C   0  0  0  0  0  0  0  0  0  0  0  0
  185.0570  178.5920  142.5490 N   0  0  0  0  0  0  0  0  0  0  0  0
  186.6040  177.2080  146.8290 C   0  0  0  0  0  2  0  0  0  0  0  0
  185.2180  176.7940  146.3760 C   0  0  0  0  0  2  0  0  0  0  0  0
  184.2690  177.9640  146.5180 C   0  0  0  0  0  1  0  0  0  0  0  0
  2  1  1  6  0  0  0
  2 17  1  0  0  0  0
  2  5  1  0  0  0  0
  3  2  1  0  0  0  0
  3  4  1  0  0  0  0
  4  7  2  0  0  0  0
  5  8  1  1  0  0  0
  6  3  2  0  0  0  0
  7  5  1  0  0  0  0
  7 23  1  0  0  0  0
  9 13  1  0  0  0  0
  9 19  2  0  0  0  0
 11 12  1  0  0  0  0
 11 10  1  0  0  0  0
 12  9  1  0  0  0  0
 14 13  2  0  0  0  0
 15 18  1  0  0  0  0
 16 17  1  0  0  0  0
 16 15  2  0  0  0  0
 17 11  2  0  0  0  0
 18 12  2  0  0  0  0
 18 14  1  0  0  0  0
 20  4  1  0  0  0  0
 21 20  1  0  0  0  0
 22 21  3  0  0  0  0
 24 25  1  0  0  0  0
 24 23  1  0  0  0  0
M  END
>  <MODEL>
6

>  <REMARK>
 VINA RESULT:      -6.3      1.909      7.363
  Name = 
  5 active torsions:
  status: ('A' for Active; 'I' for Inactive)
    1  A    between atoms: O_1  and  C_4
    2  A    between atoms: O_1  and  C_12
    3  A    between atoms: C_6  and  C_9
    4  A    between atoms: C_9  and  C_20
    5  A    between atoms: C_10  and  C_22
                            x       y       z     vdW  Elec       q    Type
                         _______ _______ _______ _____ _____    ______ ____

>  <TORSDO>
F 5

$$$$
=
 OpenBabel11042418113D

 25 27  0  0  1  0  0  0  0  0999 V2000
  188.1890  177.6170  141.2570 O   0  0  0  0  0  1  0  0  0  0  0  0
  188.4850  177.1760  142.5490 C   0  0  1  0  0  0  0  0  0  0  0  0
  188.5420  175.6810  142.5180 C   0  0  0  0  0  0  0  0  0  0  0  0
  189.8840  175.2020  142.7440 C   0  0  0  0  0  0  0  0  0  0  0  0
  189.9590  177.5500  142.8850 C   0  0  2  0  0  3  0  0  0  0  0  0
  187.5600  174.9320  142.2640 O   0  0  0  0  0  0  0  0  0  0  0  0
  190.6980  176.2420  142.9240 C   0  0  0  0  0  0  0  0  0  0  0  0
  190.1540  178.2910  144.2060 C   0  0  0  0  0  1  0  0  0  0  0  0
  185.8540  177.4290  147.0110 C   0  0  0  0  0  0  0  0  0  0  0  0
  188.1490  176.0410  145.3420 C   0  0  0  0  0  1  0  0  0  0  0  0
  187.3070  177.1720  144.8450 C   0  0  0  0  0  0  0  0  0  0  0  0
  186.3130  177.7060  145.6670 C   0  0  0  0  0  0  0  0  0  0  0  0
  184.7640  178.3010  147.3030 N   0  0  0  0  0  0  0  0  0  0  0  0
  184.5440  179.0410  146.2870 N   0  0  0  0  0  0  0  0  0  0  0  0
  185.5600  179.2500  143.9850 C   0  0  0  0  0  3  0  0  0  0  0  0
  186.5520  178.7460  143.1270 C   0  0  0  0  0  3  0  0  0  0  0  0
  187.4490  177.7210  143.5380 C   0  0  0  0  0  0  0  0  0  0  0  0
  185.4740  178.7050  145.2580 C   0  0  0  0  0  0  0  0  0  0  0  0
  186.3160  176.5710  147.8080 O   0  0  0  0  0  0  0  0  0  0  0  0
  190.2090  173.8360  142.7420 O   0  0  0  0  0  0  0  0  0  0  0  0
  189.9970  172.9900  143.7980 C   0  0  0  0  0  0  0  0  0  0  0  0
  189.8210  172.2760  144.6920 N   0  0  0  0  0  0  0  0  0  0  0  0
  192.1820  176.1760  143.0960 C   0  0  0  0  0  2  0  0  0  0  0  0
  192.5270  175.7270  144.5020 C   0  0  0  0  0  2  0  0  0  0  0  0
  193.5220  176.6910  145.1110 C   0  0  0  0  0  1  0  0  0  0  0  0
  2  1  1  6  0  0  0
  2  5  1  0  0  0  0
  2 17  1  0  0  0  0
  3  2  1  0  0  0  0
  3  4  1  0  0  0  0
  4  7  2  0  0  0  0
  5  7  1  0  0  0  0
  5  8  1  1  0  0  0
  6  3  2  0  0  0  0
  7 23  1  0  0  0  0
  9 13  1  0  0  0  0
  9 19  2  0  0  0  0
 11 10  1  0  0  0  0
 11 12  1  0  0  0  0
 12  9  1  0  0  0  0
 14 13  2  0  0  0  0
 15 18  1  0  0  0  0
 16 17  1  0  0  0  0
 16 15  2  0  0  0  0
 17 11  2  0  0  0  0
 18 12  2  0  0  0  0
 18 14  1  0  0  0  0
 20  4  1  0  0  0  0
 20 21  1  0  0  0  0
 21 22  3  0  0  0  0
 23 24  1  0  0  0  0
 24 25  1  0  0  0  0
M  END
>  <MODEL>
7

>  <REMARK>
 VINA RESULT:      -6.3      2.071      2.926
  Name = 
  5 active torsions:
  status: ('A' for Active; 'I' for Inactive)
    1  A    between atoms: O_1  and  C_4
    2  A    between atoms: O_1  and  C_12
    3  A    between atoms: C_6  and  C_9
    4  A    between atoms: C_9  and  C_20
    5  A    between atoms: C_10  and  C_22
                            x       y       z     vdW  Elec       q    Type
                         _______ _______ _______ _____ _____    ______ ____

>  <TORSDO>
F 5

$$$$
=
 OpenBabel11042418113D

 25 27  0  0  1  0  0  0  0  0999 V2000
  188.3950  177.2160  141.6380 O   0  0  0  0  0  1  0  0  0  0  0  0
  188.8760  176.7410  142.8610 C   0  0  1  0  0  0  0  0  0  0  0  0
  189.2380  175.3010  142.6810 C   0  0  0  0  0  0  0  0  0  0  0  0
  190.6630  175.1000  142.7780 C   0  0  0  0  0  0  0  0  0  0  0  0
  190.2630  177.3910  143.1440 C   0  0  2  0  0  3  0  0  0  0  0  0
  188.4140  174.3840  142.4140 O   0  0  0  0  0  0  0  0  0  0  0  0
  191.2570  176.2710  143.0110 C   0  0  0  0  0  0  0  0  0  0  0  0
  190.4050  178.0430  144.5170 C   0  0  0  0  0  1  0  0  0  0  0  0
  184.7180  178.9040  145.0790 C   0  0  0  0  0  0  0  0  0  0  0  0
  186.5920  178.7110  142.5440 C   0  0  0  0  0  1  0  0  0  0  0  0
  186.7660  177.9020  143.7890 C   0  0  0  0  0  0  0  0  0  0  0  0
  185.8810  178.0750  144.8540 C   0  0  0  0  0  0  0  0  0  0  0  0
  184.2370  178.6570  146.3990 N   0  0  0  0  0  0  0  0  0  0  0  0
  184.9880  177.7890  146.9560 N   0  0  0  0  0  0  0  0  0  0  0  0
  187.0500  176.5100  146.2570 C   0  0  0  0  0  3  0  0  0  0  0  0
  187.9600  176.3010  145.2070 C   0  0  0  0  0  3  0  0  0  0  0  0
  187.8320  176.9700  143.9580 C   0  0  0  0  0  0  0  0  0  0  0  0
  186.0130  177.4060  146.0390 C   0  0  0  0  0  0  0  0  0  0  0  0
  184.1960  179.7140  144.2680 O   0  0  0  0  0  0  0  0  0  0  0  0
  191.2610  173.8400  142.6240 O   0  0  0  0  0  0  0  0  0  0  0  0
  191.3470  172.8980  143.6160 C   0  0  0  0  0  0  0  0  0  0  0  0
  191.4200  172.1000  144.4500 N   0  0  0  0  0  0  0  0  0  0  0  0
  192.7310  176.5080  143.0870 C   0  0  0  0  0  2  0  0  0  0  0  0
  193.3000  175.8720  144.3410 C   0  0  0  0  0  2  0  0  0  0  0  0
  194.1670  176.8770  145.0680 C   0  0  0  0  0  1  0  0  0  0  0  0
  2  1  1  6  0  0  0
  2  5  1  0  0  0  0
  2 17  1  0  0  0  0
  3  4  1  0  0  0  0
  3  2  1  0  0  0  0
  4  7  2  0  0  0  0
  5  8  1  1  0  0  0
  6  3  2  0  0  0  0
  7 23  1  0  0  0  0
  7  5  1  0  0  0  0
  9 13  1  0  0  0  0
 10 11  1  0  0  0  0
 11 17  2  0  0  0  0
 11 12  1  0  0  0  0
 12  9  1  0  0  0  0
 12 18  2  0  0  0  0
 13 14  2  0  0  0  0
 16 15  2  0  0  0  0
 17 16  1  0  0  0  0
 18 15  1  0  0  0  0
 18 14  1  0  0  0  0
 19  9  2  0  0  0  0
 20  4  1  0  0  0  0
 20 21  1  0  0  0  0
 21 22  3  0  0  0  0
 23 24  1  0  0  0  0
 24 25  1  0  0  0  0
M  END
>  <MODEL>
8

>  <REMARK>
 VINA RESULT:      -6.2      1.796      2.029
  Name = 
  5 active torsions:
  status: ('A' for Active; 'I' for Inactive)
    1  A    between atoms: O_1  and  C_4
    2  A    between atoms: O_1  and  C_12
    3  A    between atoms: C_6  and  C_9
    4  A    between atoms: C_9  and  C_20
    5  A    between atoms: C_10  and  C_22
                            x       y       z     vdW  Elec       q    Type
                         _______ _______ _______ _____ _____    ______ ____

>  <TORSDO>
F 5

$$$$
=
 OpenBabel11042418113D

 25 27  0  0  1  0  0  0  0  0999 V2000
  191.5070  175.2900  147.8330 O   0  0  0  0  0  1  0  0  0  0  0  0
  191.7710  175.3990  146.4660 C   0  0  1  0  0  0  0  0  0  0  0  0
  193.1320  176.0000  146.3110 C   0  0  0  0  0  0  0  0  0  0  0  0
  194.0670  175.0510  145.7590 C   0  0  0  0  0  0  0  0  0  0  0  0
  191.9790  173.9720  145.8770 C   0  0  2  0  0  3  0  0  0  0  0  0
  193.4440  177.1670  146.6740 O   0  0  0  0  0  0  0  0  0  0  0  0
  193.4410  173.8970  145.5350 C   0  0  0  0  0  0  0  0  0  0  0  0
  191.1440  173.6540  144.6390 C   0  0  0  0  0  1  0  0  0  0  0  0
  186.9210  176.9860  145.5460 C   0  0  0  0  0  0  0  0  0  0  0  0
  188.8540  175.1690  147.2620 C   0  0  0  0  0  1  0  0  0  0  0  0
  189.3020  176.0890  146.1720 C   0  0  0  0  0  0  0  0  0  0  0  0
  188.3580  176.8420  145.4710 C   0  0  0  0  0  0  0  0  0  0  0  0
  186.5060  177.8980  144.5320 N   0  0  0  0  0  0  0  0  0  0  0  0
  187.5340  178.2900  143.8850 N   0  0  0  0  0  0  0  0  0  0  0  0
  190.0070  177.7920  144.0010 C   0  0  0  0  0  3  0  0  0  0  0  0
  190.9900  177.0570  144.6850 C   0  0  0  0  0  3  0  0  0  0  0  0
  190.6680  176.2130  145.7830 C   0  0  0  0  0  0  0  0  0  0  0  0
  188.6930  177.6620  144.4310 C   0  0  0  0  0  0  0  0  0  0  0  0
  186.1430  176.4160  146.3560 O   0  0  0  0  0  0  0  0  0  0  0  0
  195.4170  175.3640  145.5340 O   0  0  0  0  0  0  0  0  0  0  0  0
  195.8890  176.0000  144.4170 C   0  0  0  0  0  0  0  0  0  0  0  0
  196.2840  176.5390  143.4710 N   0  0  0  0  0  0  0  0  0  0  0  0
  194.0770  172.6320  145.0530 C   0  0  0  0  0  2  0  0  0  0  0  0
  194.4190  172.7460  143.5800 C   0  0  0  0  0  2  0  0  0  0  0  0
  193.7300  171.6370  142.8140 C   0  0  0  0  0  1  0  0  0  0  0  0
  2  1  1  1  0  0  0
  3  2  1  0  0  0  0
  3  6  2  0  0  0  0
  4  3  1  0  0  0  0
  5  8  1  6  0  0  0
  5  2  1  0  0  0  0
  7  4  2  0  0  0  0
  7  5  1  0  0  0  0
  9 19  2  0  0  0  0
 11 10  1  0  0  0  0
 12  9  1  0  0  0  0
 12 11  2  0  0  0  0
 13  9  1  0  0  0  0
 14 18  1  0  0  0  0
 14 13  2  0  0  0  0
 15 18  2  0  0  0  0
 15 16  1  0  0  0  0
 16 17  2  0  0  0  0
 17 11  1  0  0  0  0
 17  2  1  0  0  0  0
 18 12  1  0  0  0  0
 20  4  1  0  0  0  0
 21 20  1  0  0  0  0
 22 21  3  0  0  0  0
 23  7  1  0  0  0  0
 24 23  1  0  0  0  0
 25 24  1  0  0  0  0
M  END
>  <MODEL>
9

>  <REMARK>
 VINA RESULT:      -5.8      2.341      3.857
  Name = 
  5 active torsions:
  status: ('A' for Active; 'I' for Inactive)
    1  A    between atoms: O_1  and  C_4
    2  A    between atoms: O_1  and  C_12
    3  A    between atoms: C_6  and  C_9
    4  A    between atoms: C_9  and  C_20
    5  A    between atoms: C_10  and  C_22
                            x       y       z     vdW  Elec       q    Type
                         _______ _______ _______ _____ _____    ______ ____

>  <TORSDO>
F 5

$$$$
