=
 OpenBabel11042419333D

 32 37  0  0  1  0  0  0  0  0999 V2000
  190.6050  173.6590  137.4270 C   0  0  0  0  0  1  0  0  0  0  0  0
  188.1880  174.8370  139.4780 C   0  0  0  0  0  0  0  0  0  0  0  0
  184.6600  177.9780  140.4600 C   0  0  0  0  0  1  0  0  0  0  0  0
  189.4120  174.8710  143.7840 C   0  0  0  0  0  0  0  0  0  0  0  0
  188.4460  174.3950  138.2000 O   0  0  0  0  0  0  0  0  0  0  0  0
  185.2680  178.7210  145.9330 C   0  0  0  0  0  0  0  0  0  0  0  0
  190.1140  174.8150  145.0280 N   0  0  0  0  0  2  0  0  0  0  0  0
  183.3150  179.0950  144.3970 C   0  0  0  0  0  3  0  0  0  0  0  0
  185.4750  177.8590  141.6570 N   0  0  0  0  0  0  0  0  0  0  0  0
  188.1740  175.7070  143.5770 C   0  0  1  0  0  3  0  0  0  0  0  0
  187.3220  176.2820  141.2140 C   0  0  0  0  0  0  0  0  0  0  0  0
  187.3690  178.0140  143.0120 N   0  0  0  0  0  0  0  0  0  0  0  0
  186.2770  179.2640  144.9750 C   0  0  0  0  0  2  0  0  0  0  0  0
  187.4240  175.9600  139.8430 C   0  0  0  0  0  3  0  0  0  0  0  0
  189.7110  174.1010  142.7770 N   0  0  0  0  0  0  0  0  0  0  0  0
  188.8860  174.1020  140.4010 C   0  0  0  0  0  0  0  0  0  0  0  0
  185.1520  178.4600  142.9010 C   0  0  0  0  0  0  0  0  0  0  0  0
  186.2240  178.5520  143.6670 C   0  0  0  0  0  0  0  0  0  0  0  0
  183.8460  178.9670  143.2150 N   0  0  0  0  0  0  0  0  0  0  0  0
  188.7870  174.4250  141.7500 C   0  0  0  0  0  0  0  0  0  0  0  0
  186.9200  177.6730  141.6430 C   0  0  2  0  0  3  0  0  0  0  0  0
  188.2940  177.1890  143.7430 C   0  0  0  0  0  0  0  0  0  0  0  0
  189.0640  177.6930  144.6030 O   0  0  0  0  0  0  0  0  0  0  0  0
  189.7530  173.1120  139.7180 C   0  0  0  0  0  2  0  0  0  0  0  0
  189.3710  173.3070  138.2330 C   0  0  2  0  0  3  0  0  0  0  0  0
  187.9330  175.4230  142.1470 C   0  0  0  0  0  0  0  0  0  0  0  0
  183.9580  178.7270  145.6770 C   0  0  0  0  0  3  0  0  0  0  0  0
  185.7160  178.3090  147.2320 C   0  0  0  0  0  0  0  0  0  0  0  0
  186.0770  177.9750  148.2800 N   0  0  0  0  0  0  0  0  0  0  0  0
  191.2890  173.9800  145.2280 C   0  0  0  0  0  2  0  0  0  0  0  0
  192.3350  174.7530  145.8760 N   0  0  0  0  0  2  0  0  0  0  0  0
  191.6890  175.5430  146.9080 C   0  0  0  0  0  1  0  0  0  0  0  0
  2 14  2  0  0  0  0
  2 16  1  0  0  0  0
  3  9  1  0  0  0  0
  4  7  1  0  0  0  0
  5 25  1  0  0  0  0
  5  2  1  0  0  0  0
  6 28  1  0  0  0  0
  7 30  1  0  0  0  0
  8 27  1  0  0  0  0
  9 17  1  0  0  0  0
 10 26  1  6  0  0  0
 10 22  1  0  0  0  0
 10  4  1  0  0  0  0
 11 26  2  0  0  0  0
 12 18  1  0  0  0  0
 12 22  1  0  0  0  0
 13  6  1  0  0  0  0
 14 11  1  0  0  0  0
 15  4  2  0  0  0  0
 16 20  2  0  0  0  0
 17 19  1  0  0  0  0
 17 18  2  0  0  0  0
 18 13  1  0  0  0  0
 19  8  2  0  0  0  0
 20 26  1  0  0  0  0
 20 15  1  0  0  0  0
 21 11  1  1  0  0  0
 21  9  1  0  0  0  0
 21 12  1  0  0  0  0
 22 23  2  0  0  0  0
 24 16  1  0  0  0  0
 25  1  1  6  0  0  0
 25 24  1  0  0  0  0
 27  6  2  0  0  0  0
 28 29  3  0  0  0  0
 30 31  1  0  0  0  0
 31 32  1  0  0  0  0
M  END
>  <MODEL>
1

>  <REMARK>
 VINA RESULT:      -7.6      0.000      0.000
  Name = 
  3 active torsions:
  status: ('A' for Active; 'I' for Inactive)
    1  A    between atoms: C_4  and  C_8
    2  A    between atoms: N_7  and  C_25
    3  A    between atoms: N_9  and  C_25
                            x       y       z     vdW  Elec       q    Type
                         _______ _______ _______ _____ _____    ______ ____

>  <TORSDO>
F 3

$$$$
=
 OpenBabel11042419333D

 32 37  0  0  1  0  0  0  0  0999 V2000
  180.0600  180.5650  140.5200 C   0  0  0  0  0  1  0  0  0  0  0  0
  182.1910  178.8150  142.4760 C   0  0  0  0  0  0  0  0  0  0  0  0
  184.4750  178.1520  146.6740 C   0  0  0  0  0  1  0  0  0  0  0  0
  185.8310  177.4140  140.2790 C   0  0  0  0  0  0  0  0  0  0  0  0
  180.9190  179.3350  142.4050 O   0  0  0  0  0  0  0  0  0  0  0  0
  189.4170  176.2360  145.0090 C   0  0  0  0  0  0  0  0  0  0  0  0
  186.8760  177.1770  139.3330 N   0  0  0  0  0  2  0  0  0  0  0  0
  188.2050  176.0630  147.2020 C   0  0  0  0  0  3  0  0  0  0  0  0
  185.4550  177.9680  145.6180 N   0  0  0  0  0  0  0  0  0  0  0  0
  186.0300  177.2910  141.7700 C   0  0  1  0  0  3  0  0  0  0  0  0
  184.3560  178.3210  143.4360 C   0  0  0  0  0  0  0  0  0  0  0  0
  186.8160  178.5250  143.8060 N   0  0  0  0  0  0  0  0  0  0  0  0
  189.0350  177.6600  144.7760 C   0  0  0  0  0  2  0  0  0  0  0  0
  183.0620  178.8700  143.5790 C   0  0  0  0  0  3  0  0  0  0  0  0
  184.5960  177.6190  139.9210 N   0  0  0  0  0  0  0  0  0  0  0  0
  182.5850  178.3140  141.2630 C   0  0  0  0  0  0  0  0  0  0  0  0
  186.7850  177.5230  145.8370 C   0  0  0  0  0  0  0  0  0  0  0  0
  187.5570  177.8410  144.8140 C   0  0  0  0  0  0  0  0  0  0  0  0
  187.2140  176.8950  147.0540 N   0  0  0  0  0  0  0  0  0  0  0  0
  183.8610  177.7790  141.1240 C   0  0  0  0  0  0  0  0  0  0  0  0
  185.4660  178.7290  144.3760 C   0  0  2  0  0  3  0  0  0  0  0  0
  187.0240  178.2020  142.4200 C   0  0  0  0  0  0  0  0  0  0  0  0
  188.0820  178.5480  141.8300 O   0  0  0  0  0  0  0  0  0  0  0  0
  181.5390  178.5630  140.2410 C   0  0  0  0  0  2  0  0  0  0  0  0
  180.4060  179.1990  141.0780 C   0  0  2  0  0  3  0  0  0  0  0  0
  184.6800  177.6870  142.2210 C   0  0  0  0  0  0  0  0  0  0  0  0
  189.0950  175.5790  146.1250 C   0  0  0  0  0  3  0  0  0  0  0  0
  190.2810  175.5980  144.0570 C   0  0  0  0  0  0  0  0  0  0  0  0
  190.9770  175.0820  143.2890 N   0  0  0  0  0  0  0  0  0  0  0  0
  186.6660  177.2660  137.8960 C   0  0  0  0  0  2  0  0  0  0  0  0
  186.6380  175.9320  137.3210 N   0  0  0  0  0  2  0  0  0  0  0  0
  186.0120  176.0540  136.0160 C   0  0  0  0  0  1  0  0  0  0  0  0
  2 14  1  0  0  0  0
  5  2  1  0  0  0  0
  6 27  2  0  0  0  0
  7  4  1  0  0  0  0
  9 17  1  0  0  0  0
  9  3  1  0  0  0  0
 10  4  1  6  0  0  0
 10 26  1  0  0  0  0
 10 22  1  0  0  0  0
 11 14  2  0  0  0  0
 12 21  1  0  0  0  0
 12 18  1  0  0  0  0
 13 18  1  0  0  0  0
 13  6  1  0  0  0  0
 15  4  2  0  0  0  0
 15 20  1  0  0  0  0
 16  2  2  0  0  0  0
 17 19  1  0  0  0  0
 18 17  2  0  0  0  0
 19  8  2  0  0  0  0
 20 16  1  0  0  0  0
 20 26  2  0  0  0  0
 21 11  1  6  0  0  0
 21  9  1  0  0  0  0
 22 12  1  0  0  0  0
 23 22  2  0  0  0  0
 24 25  1  0  0  0  0
 24 16  1  0  0  0  0
 25  1  1  6  0  0  0
 25  5  1  0  0  0  0
 26 11  1  0  0  0  0
 27  8  1  0  0  0  0
 28  6  1  0  0  0  0
 29 28  3  0  0  0  0
 30  7  1  0  0  0  0
 31 30  1  0  0  0  0
 32 31  1  0  0  0  0
M  END
>  <MODEL>
2

>  <REMARK>
 VINA RESULT:      -7.5      2.875      6.921
  Name = 
  3 active torsions:
  status: ('A' for Active; 'I' for Inactive)
    1  A    between atoms: C_4  and  C_8
    2  A    between atoms: N_7  and  C_25
    3  A    between atoms: N_9  and  C_25
                            x       y       z     vdW  Elec       q    Type
                         _______ _______ _______ _____ _____    ______ ____

>  <TORSDO>
F 3

$$$$
=
 OpenBabel11042419333D

 32 37  0  0  1  0  0  0  0  0999 V2000
  185.9840  180.1970  148.2110 C   0  0  0  0  0  1  0  0  0  0  0  0
  186.9640  177.3670  146.6420 C   0  0  0  0  0  0  0  0  0  0  0  0
  190.2460  173.9280  145.8200 C   0  0  0  0  0  1  0  0  0  0  0  0
  185.7750  177.2580  142.3280 C   0  0  0  0  0  0  0  0  0  0  0  0
  186.8130  177.9610  147.8750 O   0  0  0  0  0  0  0  0  0  0  0  0
  189.5430  172.9350  140.3990 C   0  0  0  0  0  0  0  0  0  0  0  0
  185.3180  177.5530  141.0060 N   0  0  0  0  0  2  0  0  0  0  0  0
  190.5550  171.5550  142.2380 C   0  0  0  0  0  3  0  0  0  0  0  0
  189.7240  174.3410  144.5290 N   0  0  0  0  0  0  0  0  0  0  0  0
  186.8050  176.1960  142.6220 C   0  0  1  0  0  3  0  0  0  0  0  0
  188.0530  176.1250  144.8740 C   0  0  0  0  0  0  0  0  0  0  0  0
  189.2710  175.7540  142.7270 N   0  0  0  0  0  0  0  0  0  0  0  0
  190.1510  174.2160  140.8640 C   0  0  0  0  0  2  0  0  0  0  0  0
  188.0620  176.6070  146.2020 C   0  0  0  0  0  3  0  0  0  0  0  0
  185.2370  177.7890  143.3890 N   0  0  0  0  0  0  0  0  0  0  0  0
  185.9340  177.7070  145.8040 C   0  0  0  0  0  0  0  0  0  0  0  0
  190.0450  173.7050  143.3010 C   0  0  0  0  0  0  0  0  0  0  0  0
  189.7930  174.5050  142.2810 C   0  0  0  0  0  0  0  0  0  0  0  0
  190.6430  172.4020  143.2230 N   0  0  0  0  0  0  0  0  0  0  0  0
  185.9300  177.2350  144.4960 C   0  0  0  0  0  0  0  0  0  0  0  0
  189.3410  175.7090  144.2050 C   0  0  2  0  0  3  0  0  0  0  0  0
  188.1690  176.3620  142.0300 C   0  0  0  0  0  0  0  0  0  0  0  0
  188.3330  176.8750  140.8910 O   0  0  0  0  0  0  0  0  0  0  0  0
  185.0250  178.6690  146.4740 C   0  0  0  0  0  2  0  0  0  0  0  0
  185.6280  178.7590  147.8940 C   0  0  2  0  0  3  0  0  0  0  0  0
  186.9150  176.3720  144.0840 C   0  0  0  0  0  0  0  0  0  0  0  0
  189.7990  171.7630  140.9840 C   0  0  0  0  0  3  0  0  0  0  0  0
  188.7680  172.9480  139.1910 C   0  0  0  0  0  0  0  0  0  0  0  0
  188.1420  172.9560  138.2170 N   0  0  0  0  0  0  0  0  0  0  0  0
  184.2990  178.5580  140.7350 C   0  0  0  0  0  2  0  0  0  0  0  0
  183.0980  177.9150  140.2320 N   0  0  0  0  0  2  0  0  0  0  0  0
  182.0190  178.2880  141.1290 C   0  0  0  0  0  1  0  0  0  0  0  0
  2  5  1  0  0  0  0
  4 10  1  0  0  0  0
  4 15  2  0  0  0  0
  5 25  1  0  0  0  0
  6 13  1  0  0  0  0
  6 27  2  0  0  0  0
  7  4  1  0  0  0  0
  8 19  2  0  0  0  0
  9  3  1  0  0  0  0
 10 22  1  6  0  0  0
 10 26  1  0  0  0  0
 11 14  2  0  0  0  0
 12 21  1  0  0  0  0
 13 18  1  0  0  0  0
 14  2  1  0  0  0  0
 15 20  1  0  0  0  0
 16 24  1  0  0  0  0
 16  2  2  0  0  0  0
 17  9  1  0  0  0  0
 18 12  1  0  0  0  0
 18 17  2  0  0  0  0
 19 17  1  0  0  0  0
 20 16  1  0  0  0  0
 21  9  1  0  0  0  0
 21 11  1  1  0  0  0
 22 12  1  0  0  0  0
 23 22  2  0  0  0  0
 24 25  1  0  0  0  0
 25  1  1  6  0  0  0
 26 20  2  0  0  0  0
 26 11  1  0  0  0  0
 27  8  1  0  0  0  0
 28  6  1  0  0  0  0
 29 28  3  0  0  0  0
 30  7  1  0  0  0  0
 31 30  1  0  0  0  0
 31 32  1  0  0  0  0
M  END
>  <MODEL>
3

>  <REMARK>
 VINA RESULT:      -7.4      2.023      8.089
  Name = 
  3 active torsions:
  status: ('A' for Active; 'I' for Inactive)
    1  A    between atoms: C_4  and  C_8
    2  A    between atoms: N_7  and  C_25
    3  A    between atoms: N_9  and  C_25
                            x       y       z     vdW  Elec       q    Type
                         _______ _______ _______ _____ _____    ______ ____

>  <TORSDO>
F 3

$$$$
=
 OpenBabel11042419333D

 32 37  0  0  1  0  0  0  0  0999 V2000
  194.6650  172.0700  145.6940 C   0  0  0  0  0  1  0  0  0  0  0  0
  192.4460  174.5870  145.2730 C   0  0  0  0  0  0  0  0  0  0  0  0
  189.0080  177.5030  146.9910 C   0  0  0  0  0  1  0  0  0  0  0  0
  190.3140  174.3960  141.3410 C   0  0  0  0  0  0  0  0  0  0  0  0
  193.4930  174.1440  146.0500 O   0  0  0  0  0  0  0  0  0  0  0  0
  185.6330  178.0140  142.6080 C   0  0  0  0  0  0  0  0  0  0  0  0
  189.7780  174.0250  140.0690 N   0  0  0  0  0  2  0  0  0  0  0  0
  185.9580  179.4430  144.6490 C   0  0  0  0  0  3  0  0  0  0  0  0
  188.5590  177.0260  145.6950 N   0  0  0  0  0  0  0  0  0  0  0  0
  189.6160  175.3510  142.2780 C   0  0  1  0  0  3  0  0  0  0  0  0
  190.2640  175.5010  144.7670 C   0  0  0  0  0  0  0  0  0  0  0  0
  187.8680  175.5010  144.0690 N   0  0  0  0  0  0  0  0  0  0  0  0
  185.7220  176.7240  143.3530 C   0  0  0  0  0  2  0  0  0  0  0  0
  191.2450  175.1600  145.7250 C   0  0  0  0  0  3  0  0  0  0  0  0
  191.5070  174.0450  141.7270 N   0  0  0  0  0  0  0  0  0  0  0  0
  192.6570  174.2890  143.9510 C   0  0  0  0  0  0  0  0  0  0  0  0
  187.3880  177.4900  145.0400 C   0  0  0  0  0  0  0  0  0  0  0  0
  186.9940  176.6260  144.1220 C   0  0  0  0  0  0  0  0  0  0  0  0
  186.7050  178.6960  145.4110 N   0  0  0  0  0  0  0  0  0  0  0  0
  191.6880  174.6220  143.0110 C   0  0  0  0  0  0  0  0  0  0  0  0
  188.8240  175.6880  145.1820 C   0  0  2  0  0  3  0  0  0  0  0  0
  188.2680  174.9620  142.7960 C   0  0  0  0  0  0  0  0  0  0  0  0
  187.4510  174.3190  142.0850 O   0  0  0  0  0  0  0  0  0  0  0  0
  193.9130  173.5170  143.7930 C   0  0  0  0  0  2  0  0  0  0  0  0
  194.4740  173.5010  145.2330 C   0  0  2  0  0  3  0  0  0  0  0  0
  190.5700  175.3130  143.4060 C   0  0  0  0  0  0  0  0  0  0  0  0
  185.6680  179.2010  143.2200 C   0  0  0  0  0  3  0  0  0  0  0  0
  185.3570  177.9720  141.2010 C   0  0  0  0  0  0  0  0  0  0  0  0
  185.1370  177.9370  140.0650 N   0  0  0  0  0  0  0  0  0  0  0  0
  190.4740  173.1280  139.1570 C   0  0  0  0  0  2  0  0  0  0  0  0
  189.5900  172.0440  138.7650 N   0  0  0  0  0  2  0  0  0  0  0  0
  188.2370  172.4860  139.0540 C   0  0  0  0  0  1  0  0  0  0  0  0
  2 14  1  0  0  0  0
  2  5  1  0  0  0  0
  4 15  2  0  0  0  0
  6 27  2  0  0  0  0
  6 13  1  0  0  0  0
  7  4  1  0  0  0  0
  8 19  2  0  0  0  0
  9  3  1  0  0  0  0
 10  4  1  6  0  0  0
 10 22  1  0  0  0  0
 10 26  1  0  0  0  0
 11 14  2  0  0  0  0
 12 18  1  0  0  0  0
 12 21  1  0  0  0  0
 13 18  1  0  0  0  0
 15 20  1  0  0  0  0
 16  2  2  0  0  0  0
 17 19  1  0  0  0  0
 17  9  1  0  0  0  0
 18 17  2  0  0  0  0
 20 26  2  0  0  0  0
 20 16  1  0  0  0  0
 21 11  1  6  0  0  0
 21  9  1  0  0  0  0
 22 12  1  0  0  0  0
 23 22  2  0  0  0  0
 24 16  1  0  0  0  0
 24 25  1  0  0  0  0
 25  1  1  1  0  0  0
 25  5  1  0  0  0  0
 26 11  1  0  0  0  0
 27  8  1  0  0  0  0
 28  6  1  0  0  0  0
 29 28  3  0  0  0  0
 30  7  1  0  0  0  0
 31 32  1  0  0  0  0
 31 30  1  0  0  0  0
M  END
>  <MODEL>
4

>  <REMARK>
 VINA RESULT:      -7.2      2.439      5.569
  Name = 
  3 active torsions:
  status: ('A' for Active; 'I' for Inactive)
    1  A    between atoms: C_4  and  C_8
    2  A    between atoms: N_7  and  C_25
    3  A    between atoms: N_9  and  C_25
                            x       y       z     vdW  Elec       q    Type
                         _______ _______ _______ _____ _____    ______ ____

>  <TORSDO>
F 3

$$$$
=
 OpenBabel11042419333D

 32 37  0  0  1  0  0  0  0  0999 V2000
  184.2870  178.9150  143.8890 C   0  0  0  0  0  1  0  0  0  0  0  0
  186.7390  177.2260  142.2850 C   0  0  0  0  0  0  0  0  0  0  0  0
  188.2430  174.4180  138.6620 C   0  0  0  0  0  1  0  0  0  0  0  0
  189.5130  175.0990  145.0810 C   0  0  0  0  0  0  0  0  0  0  0  0
  185.7470  178.1670  142.1240 O   0  0  0  0  0  0  0  0  0  0  0  0
  192.0130  171.2060  141.1800 C   0  0  0  0  0  0  0  0  0  0  0  0
  190.1610  174.5010  146.2060 N   0  0  0  0  0  2  0  0  0  0  0  0
  191.6640  171.8020  138.7650 C   0  0  0  0  0  3  0  0  0  0  0  0
  188.8170  173.8850  139.8850 N   0  0  0  0  0  0  0  0  0  0  0  0
  189.6950  174.5990  143.6690 C   0  0  1  0  0  3  0  0  0  0  0  0
  188.0630  175.2630  141.7900 C   0  0  0  0  0  0  0  0  0  0  0  0
  188.8740  172.9120  142.0060 N   0  0  0  0  0  0  0  0  0  0  0  0
  190.5590  171.0440  141.4730 C   0  0  0  0  0  2  0  0  0  0  0  0
  187.0350  176.1580  141.4190 C   0  0  0  0  0  3  0  0  0  0  0  0
  188.8260  176.2010  145.1720 N   0  0  0  0  0  0  0  0  0  0  0  0
  187.3650  177.3760  143.4950 C   0  0  0  0  0  0  0  0  0  0  0  0
  189.7620  172.8260  139.9250 C   0  0  0  0  0  0  0  0  0  0  0  0
  189.7920  172.2720  141.1230 C   0  0  0  0  0  0  0  0  0  0  0  0
  190.5010  172.3890  138.7750 N   0  0  0  0  0  0  0  0  0  0  0  0
  188.3730  176.4890  143.8590 C   0  0  0  0  0  0  0  0  0  0  0  0
  188.1350  173.8860  141.1730 C   0  0  2  0  0  3  0  0  0  0  0  0
  189.2620  173.2000  143.3610 C   0  0  0  0  0  0  0  0  0  0  0  0
  189.3800  172.2740  144.2070 O   0  0  0  0  0  0  0  0  0  0  0  0
  186.7200  178.4590  144.2760 C   0  0  0  0  0  2  0  0  0  0  0  0
  185.6720  179.0050  143.2790 C   0  0  2  0  0  3  0  0  0  0  0  0
  188.7820  175.5260  142.9710 C   0  0  0  0  0  0  0  0  0  0  0  0
  192.4750  171.4700  139.9560 C   0  0  0  0  0  3  0  0  0  0  0  0
  192.9540  170.9280  142.2270 C   0  0  0  0  0  0  0  0  0  0  0  0
  193.7120  170.7040  143.0730 N   0  0  0  0  0  0  0  0  0  0  0  0
  190.0040  175.0110  147.5610 C   0  0  0  0  0  2  0  0  0  0  0  0
  191.2950  175.4300  148.0800 N   0  0  0  0  0  2  0  0  0  0  0  0
  191.3050  176.8810  148.0480 C   0  0  0  0  0  1  0  0  0  0  0  0
  2 16  1  0  0  0  0
  3  9  1  0  0  0  0
  4 15  2  0  0  0  0
  4  7  1  0  0  0  0
  5  2  1  0  0  0  0
  5 25  1  0  0  0  0
  6 13  1  0  0  0  0
  6 28  1  0  0  0  0
  7 30  1  0  0  0  0
  8 19  2  0  0  0  0
  8 27  1  0  0  0  0
  9 17  1  0  0  0  0
  9 21  1  0  0  0  0
 10 26  1  6  0  0  0
 10  4  1  0  0  0  0
 11 26  2  0  0  0  0
 12 22  1  0  0  0  0
 14 11  1  0  0  0  0
 14  2  2  0  0  0  0
 16 20  2  0  0  0  0
 16 24  1  0  0  0  0
 17 18  2  0  0  0  0
 18 13  1  0  0  0  0
 18 12  1  0  0  0  0
 19 17  1  0  0  0  0
 20 15  1  0  0  0  0
 21 11  1  1  0  0  0
 21 12  1  0  0  0  0
 22 10  1  0  0  0  0
 22 23  2  0  0  0  0
 25  1  1  1  0  0  0
 25 24  1  0  0  0  0
 26 20  1  0  0  0  0
 27  6  2  0  0  0  0
 28 29  3  0  0  0  0
 30 31  1  0  0  0  0
 32 31  1  0  0  0  0
M  END
>  <MODEL>
5

>  <REMARK>
 VINA RESULT:      -7.1      2.571      6.958
  Name = 
  3 active torsions:
  status: ('A' for Active; 'I' for Inactive)
    1  A    between atoms: C_4  and  C_8
    2  A    between atoms: N_7  and  C_25
    3  A    between atoms: N_9  and  C_25
                            x       y       z     vdW  Elec       q    Type
                         _______ _______ _______ _____ _____    ______ ____

>  <TORSDO>
F 3

$$$$
=
 OpenBabel11042419333D

 32 37  0  0  1  0  0  0  0  0999 V2000
  184.3050  178.8850  147.1540 C   0  0  0  0  0  1  0  0  0  0  0  0
  187.2210  177.1900  146.9090 C   0  0  0  0  0  0  0  0  0  0  0  0
  191.7940  176.4590  148.2590 C   0  0  0  0  0  1  0  0  0  0  0  0
  188.3120  176.1900  142.6850 C   0  0  0  0  0  0  0  0  0  0  0  0
  186.2520  177.6170  147.7890 O   0  0  0  0  0  0  0  0  0  0  0  0
  194.1960  175.0140  143.4630 C   0  0  0  0  0  0  0  0  0  0  0  0
  188.4030  176.0860  141.2620 N   0  0  0  0  0  2  0  0  0  0  0  0
  194.8620  174.6260  145.8540 C   0  0  0  0  0  3  0  0  0  0  0  0
  191.7620  176.4090  146.8080 N   0  0  0  0  0  0  0  0  0  0  0  0
  189.4970  175.9980  143.5990 C   0  0  1  0  0  3  0  0  0  0  0  0
  189.4470  176.8040  146.0450 C   0  0  0  0  0  0  0  0  0  0  0  0
  191.4650  177.1680  144.6210 N   0  0  0  0  0  0  0  0  0  0  0  0
  193.7420  176.4170  143.6930 C   0  0  0  0  0  2  0  0  0  0  0  0
  188.6130  177.2460  147.0960 C   0  0  0  0  0  3  0  0  0  0  0  0
  187.1750  176.3240  143.3050 N   0  0  0  0  0  0  0  0  0  0  0  0
  186.6620  176.7890  145.7230 C   0  0  0  0  0  0  0  0  0  0  0  0
  192.8730  176.0530  146.0000 C   0  0  0  0  0  0  0  0  0  0  0  0
  192.7080  176.4850  144.7630 C   0  0  0  0  0  0  0  0  0  0  0  0
  194.0380  175.3900  146.5130 N   0  0  0  0  0  0  0  0  0  0  0  0
  187.4870  176.3590  144.6890 C   0  0  0  0  0  0  0  0  0  0  0  0
  190.8920  177.2390  145.9840 C   0  0  2  0  0  3  0  0  0  0  0  0
  190.6490  176.9420  143.4580 C   0  0  0  0  0  0  0  0  0  0  0  0
  190.9910  177.3980  142.3340 O   0  0  0  0  0  0  0  0  0  0  0  0
  185.1970  177.0180  145.7430 C   0  0  0  0  0  2  0  0  0  0  0  0
  184.9610  177.5190  147.1850 C   0  0  2  0  0  3  0  0  0  0  0  0
  188.8400  176.2660  144.8950 C   0  0  0  0  0  0  0  0  0  0  0  0
  194.7540  174.2720  144.4220 C   0  0  0  0  0  3  0  0  0  0  0  0
  194.1600  174.4970  142.1250 C   0  0  0  0  0  0  0  0  0  0  0  0
  194.1290  174.0820  141.0440 N   0  0  0  0  0  0  0  0  0  0  0  0
  187.2480  176.2410  140.3890 C   0  0  0  0  0  2  0  0  0  0  0  0
  187.0130  177.6510  140.1320 N   0  0  0  0  0  2  0  0  0  0  0  0
  185.6320  177.9150  140.4920 C   0  0  0  0  0  1  0  0  0  0  0  0
  2 14  1  0  0  0  0
  2  5  1  0  0  0  0
  4 15  2  0  0  0  0
  6 13  1  0  0  0  0
  6 27  2  0  0  0  0
  7  4  1  0  0  0  0
  8 19  2  0  0  0  0
  9  3  1  0  0  0  0
 10  4  1  6  0  0  0
 10 26  1  0  0  0  0
 11 14  2  0  0  0  0
 12 18  1  0  0  0  0
 12 21  1  0  0  0  0
 13 18  1  0  0  0  0
 15 20  1  0  0  0  0
 16 24  1  0  0  0  0
 16  2  2  0  0  0  0
 17 19  1  0  0  0  0
 17  9  1  0  0  0  0
 18 17  2  0  0  0  0
 20 26  2  0  0  0  0
 20 16  1  0  0  0  0
 21 11  1  6  0  0  0
 21  9  1  0  0  0  0
 22 10  1  0  0  0  0
 22 12  1  0  0  0  0
 23 22  2  0  0  0  0
 24 25  1  0  0  0  0
 25  1  1  6  0  0  0
 25  5  1  0  0  0  0
 26 11  1  0  0  0  0
 27  8  1  0  0  0  0
 28  6  1  0  0  0  0
 29 28  3  0  0  0  0
 30  7  1  0  0  0  0
 31 30  1  0  0  0  0
 31 32  1  0  0  0  0
M  END
>  <MODEL>
6

>  <REMARK>
 VINA RESULT:      -7.0      2.778      8.113
  Name = 
  3 active torsions:
  status: ('A' for Active; 'I' for Inactive)
    1  A    between atoms: C_4  and  C_8
    2  A    between atoms: N_7  and  C_25
    3  A    between atoms: N_9  and  C_25
                            x       y       z     vdW  Elec       q    Type
                         _______ _______ _______ _____ _____    ______ ____

>  <TORSDO>
F 3

$$$$
=
 OpenBabel11042419333D

 32 37  0  0  1  0  0  0  0  0999 V2000
  185.9980  178.9290  144.7690 C   0  0  0  0  0  1  0  0  0  0  0  0
  188.8080  177.1520  145.3850 C   0  0  0  0  0  0  0  0  0  0  0  0
  193.3660  176.8850  146.9430 C   0  0  0  0  0  1  0  0  0  0  0  0
  189.7370  174.1810  142.1680 C   0  0  0  0  0  0  0  0  0  0  0  0
  187.8870  178.0070  145.9460 O   0  0  0  0  0  0  0  0  0  0  0  0
  195.5650  173.1700  143.4450 C   0  0  0  0  0  0  0  0  0  0  0  0
  189.7870  173.4010  140.9710 N   0  0  0  0  0  2  0  0  0  0  0  0
  196.2660  173.9390  145.7310 C   0  0  0  0  0  3  0  0  0  0  0  0
  193.2940  176.1460  145.6950 N   0  0  0  0  0  0  0  0  0  0  0  0
  190.9320  174.3810  143.0680 C   0  0  1  0  0  3  0  0  0  0  0  0
  190.9870  176.2640  144.8240 C   0  0  0  0  0  0  0  0  0  0  0  0
  192.9860  175.7770  143.4110 N   0  0  0  0  0  0  0  0  0  0  0  0
  195.1940  174.5360  142.9700 C   0  0  0  0  0  2  0  0  0  0  0  0
  190.2050  177.2060  145.5290 C   0  0  0  0  0  3  0  0  0  0  0  0
  188.6250  174.6650  142.6420 N   0  0  0  0  0  0  0  0  0  0  0  0
  188.1990  176.2650  144.5350 C   0  0  0  0  0  0  0  0  0  0  0  0
  194.3640  175.3780  145.1630 C   0  0  0  0  0  0  0  0  0  0  0  0
  194.1930  175.1720  143.8700 C   0  0  0  0  0  0  0  0  0  0  0  0
  195.5030  174.9740  145.9370 N   0  0  0  0  0  0  0  0  0  0  0  0
  188.9720  175.3420  143.8390 C   0  0  0  0  0  0  0  0  0  0  0  0
  192.4520  176.5280  144.5690 C   0  0  2  0  0  3  0  0  0  0  0  0
  192.1310  175.0690  142.4960 C   0  0  0  0  0  0  0  0  0  0  0  0
  192.4690  174.9080  141.2930 O   0  0  0  0  0  0  0  0  0  0  0  0
  186.7500  176.5630  144.4350 C   0  0  0  0  0  2  0  0  0  0  0  0
  186.5770  177.7090  145.4570 C   0  0  2  0  0  3  0  0  0  0  0  0
  190.3230  175.2780  144.0710 C   0  0  0  0  0  0  0  0  0  0  0  0
  196.1040  172.9490  144.6460 C   0  0  0  0  0  3  0  0  0  0  0  0
  195.4660  172.0770  142.5210 C   0  0  0  0  0  0  0  0  0  0  0  0
  195.3850  171.1960  141.7740 N   0  0  0  0  0  0  0  0  0  0  0  0
  188.6210  173.1870  140.1260 C   0  0  0  0  0  2  0  0  0  0  0  0
  188.6250  174.1440  139.0340 N   0  0  0  0  0  2  0  0  0  0  0  0
  189.6800  173.7340  138.1240 C   0  0  0  0  0  1  0  0  0  0  0  0
  2 14  1  0  0  0  0
  2  5  1  0  0  0  0
  4 15  2  0  0  0  0
  6 27  2  0  0  0  0
  7  4  1  0  0  0  0
  8 19  2  0  0  0  0
  9  3  1  0  0  0  0
 10  4  1  6  0  0  0
 10 26  1  0  0  0  0
 11 14  2  0  0  0  0
 12 18  1  0  0  0  0
 12 21  1  0  0  0  0
 13  6  1  0  0  0  0
 13 18  1  0  0  0  0
 15 20  1  0  0  0  0
 16  2  2  0  0  0  0
 17  9  1  0  0  0  0
 17 19  1  0  0  0  0
 18 17  2  0  0  0  0
 20 26  2  0  0  0  0
 20 16  1  0  0  0  0
 21 11  1  1  0  0  0
 21  9  1  0  0  0  0
 22 10  1  0  0  0  0
 22 12  1  0  0  0  0
 23 22  2  0  0  0  0
 24 16  1  0  0  0  0
 24 25  1  0  0  0  0
 25  1  1  6  0  0  0
 25  5  1  0  0  0  0
 26 11  1  0  0  0  0
 27  8  1  0  0  0  0
 28  6  1  0  0  0  0
 29 28  3  0  0  0  0
 30  7  1  0  0  0  0
 31 30  1  0  0  0  0
 32 31  1  0  0  0  0
M  END
>  <MODEL>
7

>  <REMARK>
 VINA RESULT:      -6.9      3.072      8.433
  Name = 
  3 active torsions:
  status: ('A' for Active; 'I' for Inactive)
    1  A    between atoms: C_4  and  C_8
    2  A    between atoms: N_7  and  C_25
    3  A    between atoms: N_9  and  C_25
                            x       y       z     vdW  Elec       q    Type
                         _______ _______ _______ _____ _____    ______ ____

>  <TORSDO>
F 3

$$$$
=
 OpenBabel11042419333D

 32 37  0  0  1  0  0  0  0  0999 V2000
  196.8140  173.1640  146.1350 C   0  0  0  0  0  1  0  0  0  0  0  0
  194.1300  175.1330  145.5410 C   0  0  0  0  0  0  0  0  0  0  0  0
  189.9720  177.1270  146.9600 C   0  0  0  0  0  1  0  0  0  0  0  0
  192.4750  174.6330  141.4110 C   0  0  0  0  0  0  0  0  0  0  0  0
  195.1720  174.9050  146.4110 O   0  0  0  0  0  0  0  0  0  0  0  0
  186.9950  177.0500  142.2700 C   0  0  0  0  0  0  0  0  0  0  0  0
  192.1600  174.2040  140.0850 N   0  0  0  0  0  2  0  0  0  0  0  0
  186.7940  178.4280  144.3600 C   0  0  0  0  0  3  0  0  0  0  0  0
  189.7670  176.6160  145.6160 N   0  0  0  0  0  0  0  0  0  0  0  0
  191.4940  175.3660  142.2910 C   0  0  1  0  0  3  0  0  0  0  0  0
  191.8540  175.5540  144.8350 C   0  0  0  0  0  0  0  0  0  0  0  0
  189.5970  175.0440  143.8990 N   0  0  0  0  0  0  0  0  0  0  0  0
  187.3060  175.7820  142.9940 C   0  0  0  0  0  2  0  0  0  0  0  0
  192.7920  175.4020  145.8810 C   0  0  0  0  0  3  0  0  0  0  0  0
  193.6760  174.5430  141.9090 N   0  0  0  0  0  0  0  0  0  0  0  0
  194.5260  174.9460  144.2420 C   0  0  0  0  0  0  0  0  0  0  0  0
  188.5880  176.8320  144.8550 C   0  0  0  0  0  0  0  0  0  0  0  0
  188.4890  175.9410  143.8860 C   0  0  0  0  0  0  0  0  0  0  0  0
  187.6160  177.8370  145.1800 N   0  0  0  0  0  0  0  0  0  0  0  0
  193.5980  175.0920  143.2150 C   0  0  0  0  0  0  0  0  0  0  0  0
  190.3770  175.3950  145.1070 C   0  0  2  0  0  3  0  0  0  0  0  0
  190.2270  174.6630  142.6630 C   0  0  0  0  0  0  0  0  0  0  0  0
  189.6480  173.8830  141.8610 O   0  0  0  0  0  0  0  0  0  0  0  0
  195.9340  174.4830  144.1960 C   0  0  0  0  0  2  0  0  0  0  0  0
  196.3460  174.5340  145.6850 C   0  0  2  0  0  3  0  0  0  0  0  0
  192.3210  175.4970  143.5090 C   0  0  0  0  0  0  0  0  0  0  0  0
  186.7020  178.1870  142.9050 C   0  0  0  0  0  3  0  0  0  0  0  0
  186.8700  177.0050  140.8410 C   0  0  0  0  0  0  0  0  0  0  0  0
  186.7700  176.9710  139.6880 N   0  0  0  0  0  0  0  0  0  0  0  0
  193.1240  173.5250  139.2310 C   0  0  0  0  0  2  0  0  0  0  0  0
  193.7340  174.4820  138.3240 N   0  0  0  0  0  2  0  0  0  0  0  0
  193.5880  173.9380  136.9850 C   0  0  0  0  0  1  0  0  0  0  0  0
  2 14  1  0  0  0  0
  2  5  1  0  0  0  0
  4 15  2  0  0  0  0
  6 27  2  0  0  0  0
  6 13  1  0  0  0  0
  7  4  1  0  0  0  0
  8 19  2  0  0  0  0
  9  3  1  0  0  0  0
 10  4  1  6  0  0  0
 10 22  1  0  0  0  0
 10 26  1  0  0  0  0
 11 14  2  0  0  0  0
 12 21  1  0  0  0  0
 13 18  1  0  0  0  0
 15 20  1  0  0  0  0
 16  2  2  0  0  0  0
 17 19  1  0  0  0  0
 17  9  1  0  0  0  0
 18 12  1  0  0  0  0
 18 17  2  0  0  0  0
 20 26  2  0  0  0  0
 20 16  1  0  0  0  0
 21 11  1  6  0  0  0
 21  9  1  0  0  0  0
 22 12  1  0  0  0  0
 23 22  2  0  0  0  0
 24 16  1  0  0  0  0
 24 25  1  0  0  0  0
 25  1  1  1  0  0  0
 25  5  1  0  0  0  0
 26 11  1  0  0  0  0
 27  8  1  0  0  0  0
 28  6  1  0  0  0  0
 29 28  3  0  0  0  0
 30  7  1  0  0  0  0
 31 30  1  0  0  0  0
 32 31  1  0  0  0  0
M  END
>  <MODEL>
8

>  <REMARK>
 VINA RESULT:      -6.7      3.174      6.504
  Name = 
  3 active torsions:
  status: ('A' for Active; 'I' for Inactive)
    1  A    between atoms: C_4  and  C_8
    2  A    between atoms: N_7  and  C_25
    3  A    between atoms: N_9  and  C_25
                            x       y       z     vdW  Elec       q    Type
                         _______ _______ _______ _____ _____    ______ ____

>  <TORSDO>
F 3

$$$$
=
 OpenBabel11042419333D

 32 37  0  0  1  0  0  0  0  0999 V2000
  189.6590  172.8250  136.2830 C   0  0  0  0  0  1  0  0  0  0  0  0
  188.6220  173.8340  139.3400 C   0  0  0  0  0  0  0  0  0  0  0  0
  186.0960  176.8300  142.1540 C   0  0  0  0  0  1  0  0  0  0  0  0
  191.8600  173.6700  142.4260 C   0  0  0  0  0  0  0  0  0  0  0  0
  188.1930  173.4660  138.0840 O   0  0  0  0  0  0  0  0  0  0  0  0
  189.3990  177.2980  146.5970 C   0  0  0  0  0  0  0  0  0  0  0  0
  193.0950  173.5660  143.1380 N   0  0  0  0  0  2  0  0  0  0  0  0
  186.9390  177.7030  146.2870 C   0  0  0  0  0  3  0  0  0  0  0  0
  187.4040  176.6680  142.7640 N   0  0  0  0  0  0  0  0  0  0  0  0
  190.6920  174.4850  142.9240 C   0  0  1  0  0  3  0  0  0  0  0  0
  188.7640  175.1630  141.3560 C   0  0  0  0  0  0  0  0  0  0  0  0
  189.7250  176.7980  142.9790 N   0  0  0  0  0  0  0  0  0  0  0  0
  189.7850  177.9150  145.2940 C   0  0  0  0  0  2  0  0  0  0  0  0
  188.1540  174.9160  140.1060 C   0  0  0  0  0  3  0  0  0  0  0  0
  191.6020  172.9620  141.3640 N   0  0  0  0  0  0  0  0  0  0  0  0
  189.6860  173.0670  139.7380 C   0  0  0  0  0  0  0  0  0  0  0  0
  187.7600  177.1940  144.0330 C   0  0  0  0  0  0  0  0  0  0  0  0
  189.0730  177.2720  144.1550 C   0  0  0  0  0  0  0  0  0  0  0  0
  186.7960  177.6520  144.9930 N   0  0  0  0  0  0  0  0  0  0  0  0
  190.2870  173.3160  140.9680 C   0  0  0  0  0  0  0  0  0  0  0  0
  188.6420  176.5190  142.0100 C   0  0  2  0  0  3  0  0  0  0  0  0
  190.8880  175.9590  143.0920 C   0  0  0  0  0  0  0  0  0  0  0  0
  191.9910  176.4360  143.4710 O   0  0  0  0  0  0  0  0  0  0  0  0
  190.0820  172.1370  138.6540 C   0  0  0  0  0  2  0  0  0  0  0  0
  189.0010  172.4000  137.5810 C   0  0  2  0  0  3  0  0  0  0  0  0
  189.7580  174.2710  141.7990 C   0  0  0  0  0  0  0  0  0  0  0  0
  188.1400  177.2850  147.0410 C   0  0  0  0  0  3  0  0  0  0  0  0
  190.4410  176.8290  147.4640 C   0  0  0  0  0  0  0  0  0  0  0  0
  191.2810  176.4500  148.1650 N   0  0  0  0  0  0  0  0  0  0  0  0
  194.2050  172.7510  142.6660 C   0  0  0  0  0  2  0  0  0  0  0  0
  195.4350  173.5210  142.7170 N   0  0  0  0  0  2  0  0  0  0  0  0
  195.2300  174.5690  143.7010 C   0  0  0  0  0  1  0  0  0  0  0  0
  2 16  2  0  0  0  0
  2 14  1  0  0  0  0
  3  9  1  0  0  0  0
  4 10  1  0  0  0  0
  4  7  1  0  0  0  0
  5  2  1  0  0  0  0
  6 27  2  0  0  0  0
  6 28  1  0  0  0  0
  8 27  1  0  0  0  0
  9 17  1  0  0  0  0
 10 26  1  6  0  0  0
 10 22  1  0  0  0  0
 11 26  1  0  0  0  0
 12 22  1  0  0  0  0
 12 18  1  0  0  0  0
 13  6  1  0  0  0  0
 14 11  2  0  0  0  0
 15  4  2  0  0  0  0
 16 20  1  0  0  0  0
 17 18  2  0  0  0  0
 17 19  1  0  0  0  0
 18 13  1  0  0  0  0
 19  8  2  0  0  0  0
 20 15  1  0  0  0  0
 20 26  2  0  0  0  0
 21 11  1  1  0  0  0
 21  9  1  0  0  0  0
 21 12  1  0  0  0  0
 22 23  2  0  0  0  0
 24 16  1  0  0  0  0
 25  1  1  6  0  0  0
 25  5  1  0  0  0  0
 25 24  1  0  0  0  0
 28 29  3  0  0  0  0
 30 31  1  0  0  0  0
 30  7  1  0  0  0  0
 31 32  1  0  0  0  0
M  END
>  <MODEL>
9

>  <REMARK>
 VINA RESULT:      -6.6      2.268      3.211
  Name = 
  3 active torsions:
  status: ('A' for Active; 'I' for Inactive)
    1  A    between atoms: C_4  and  C_8
    2  A    between atoms: N_7  and  C_25
    3  A    between atoms: N_9  and  C_25
                            x       y       z     vdW  Elec       q    Type
                         _______ _______ _______ _____ _____    ______ ____

>  <TORSDO>
F 3

$$$$
