=
 OpenBabel11042418353D

 37 41  0  0  1  0  0  0  0  0999 V2000
  188.2100  173.6210  140.6200 C   0  0  0  0  0  3  0  0  0  0  0  0
  188.2100  174.8770  142.7510 C   0  0  0  0  0  1  0  0  0  0  0  0
  192.5360  174.6320  146.0490 C   0  0  0  0  0  2  0  0  0  0  0  0
  196.7770  175.8070  144.1450 O   0  0  0  0  0  0  0  0  0  0  0  0
  190.1080  173.2980  142.2210 C   0  0  0  0  0  0  0  0  0  0  0  0
  192.4610  173.8080  144.7490 C   0  0  1  0  0  3  0  0  0  0  0  0
  189.6340  170.5980  138.2590 N   0  0  0  0  0  1  0  0  0  0  0  0
  188.7130  172.7410  139.8110 N   0  0  0  0  0  0  0  0  0  0  0  0
  194.5110  174.4860  143.6080 C   0  0  0  0  0  2  0  0  0  0  0  0
  189.9360  172.0660  140.1320 C   0  0  0  0  0  0  0  0  0  0  0  0
  191.6480  174.3560  143.7440 O   0  0  0  0  0  0  0  0  0  0  0  0
  194.6170  176.8690  145.3110 C   0  0  0  0  0  2  0  0  0  0  0  0
  192.5330  176.7000  147.2170 O   0  0  0  0  0  1  0  0  0  0  0  0
  190.3680  171.0300  139.4010 C   0  0  0  0  0  0  0  0  0  0  0  0
  190.6110  173.4260  143.6310 C   0  0  0  0  0  2  0  0  0  0  0  0
  193.1080  172.6780  141.9660 C   0  0  0  0  0  2  0  0  0  0  0  0
  193.6280  172.2540  143.3410 C   0  0  0  0  0  2  0  0  0  0  0  0
  188.8570  173.9260  141.8630 N   0  0  0  0  0  0  0  0  0  0  0  0
  193.1430  176.8250  144.9170 C   0  0  0  0  0  2  0  0  0  0  0  0
  195.7810  174.5440  145.9910 O   0  0  0  0  0  0  0  0  0  0  0  0
  191.5560  170.3140  139.7810 N   0  0  0  0  0  0  0  0  0  0  0  0
  192.3170  170.6930  140.7670 C   0  0  0  0  0  3  0  0  0  0  0  0
  190.6920  172.4560  141.3390 C   0  0  0  0  0  0  0  0  0  0  0  0
  193.7840  173.3920  144.2600 N   0  0  2  0  0  0  0  0  0  0  0  0
  195.4830  175.4000  144.7910 S   0  0  0  0  0  0  0  0  0  0  0  0
  192.2460  176.1450  145.9680 C   0  0  1  0  0  0  0  0  0  0  0  0
  191.9880  171.8540  141.5400 N   0  0  0  0  0  0  0  0  0  0  0  0
  190.7740  176.3960  145.6920 C   0  0  0  0  0  0  0  0  0  0  0  0
  188.0350  176.9730  145.3480 C   0  0  0  0  0  0  0  0  0  0  0  0
  188.4400  175.9820  146.2530 C   0  0  0  0  0  3  0  0  0  0  0  0
  188.9990  177.6810  144.6250 C   0  0  0  0  0  3  0  0  0  0  0  0
  190.3560  177.4010  144.8010 C   0  0  0  0  0  3  0  0  0  0  0  0
  189.7970  175.7040  146.4280 C   0  0  0  0  0  3  0  0  0  0  0  0
  186.6520  177.2760  145.1510 N   0  0  0  0  0  2  0  0  0  0  0  0
  185.6010  176.7680  146.0170 C   0  0  0  0  0  2  0  0  0  0  0  0
  184.3690  178.5930  146.1340 C   0  0  0  0  0  1  0  0  0  0  0  0
  185.1990  177.7720  146.8970 O   0  0  0  0  0  0  0  0  0  0  0  0
  1 18  1  0  0  0  0
  4 25  2  0  0  0  0
  5 15  1  0  0  0  0
  6  3  1  1  0  0  0
  7 14  1  0  0  0  0
  8 10  1  0  0  0  0
  8  1  2  0  0  0  0
  9 24  1  0  0  0  0
  9 25  1  0  0  0  0
 10 23  1  0  0  0  0
 11  6  1  0  0  0  0
 14 21  1  0  0  0  0
 14 10  2  0  0  0  0
 15 11  1  0  0  0  0
 16 17  1  0  0  0  0
 18  5  1  0  0  0  0
 18  2  1  0  0  0  0
 19 12  1  0  0  0  0
 19 26  1  0  0  0  0
 21 22  2  0  0  0  0
 22 27  1  0  0  0  0
 23 27  1  0  0  0  0
 23  5  2  0  0  0  0
 24 17  1  6  0  0  0
 24  6  1  0  0  0  0
 25 12  1  0  0  0  0
 25 20  2  0  0  0  0
 26  3  1  0  0  0  0
 26 13  1  1  0  0  0
 27 16  1  0  0  0  0
 28 26  1  0  0  0  0
 28 33  1  0  0  0  0
 29 30  1  0  0  0  0
 30 33  2  0  0  0  0
 31 32  1  0  0  0  0
 31 29  2  0  0  0  0
 32 28  2  0  0  0  0
 34 29  1  0  0  0  0
 34 35  1  0  0  0  0
 35 37  1  0  0  0  0
 36 37  1  0  0  0  0
M  END
>  <MODEL>
1

>  <REMARK>
 VINA RESULT:      -8.1      0.000      0.000
  Name = 
  4 active torsions:
  status: ('A' for Active; 'I' for Inactive)
    1  A    between atoms: C_4  and  C_36
    2  A    between atoms: C_5  and  N_15
    3  A    between atoms: N_15  and  C_27
    4  A    between atoms: O_23  and  C_27
                            x       y       z     vdW  Elec       q    Type
                         _______ _______ _______ _____ _____    ______ ____

>  <TORSDO>
F 4

$$$$
=
 OpenBabel11042418353D

 37 41  0  0  1  0  0  0  0  0999 V2000
  192.2770  172.1510  141.1970 C   0  0  0  0  0  3  0  0  0  0  0  0
  192.9480  173.6140  143.0750 C   0  0  0  0  0  1  0  0  0  0  0  0
  189.7160  177.7180  144.6120 C   0  0  0  0  0  2  0  0  0  0  0  0
  185.1860  176.6050  145.7250 O   0  0  0  0  0  0  0  0  0  0  0  0
  190.8890  174.1680  141.7230 C   0  0  0  0  0  0  0  0  0  0  0  0
  189.3750  176.8280  143.4020 C   0  0  1  0  0  3  0  0  0  0  0  0
  190.0730  171.4650  137.8190 N   0  0  0  0  0  1  0  0  0  0  0  0
  191.5160  171.8630  140.1880 N   0  0  0  0  0  0  0  0  0  0  0  0
  187.1290  176.0510  143.9680 C   0  0  0  0  0  2  0  0  0  0  0  0
  190.3950  172.6930  139.8550 C   0  0  0  0  0  0  0  0  0  0  0  0
  189.9030  175.5280  143.4510 O   0  0  0  0  0  0  0  0  0  0  0  0
  187.6450  176.7470  146.7690 C   0  0  0  0  0  2  0  0  0  0  0  0
  190.1670  178.0200  146.9240 O   0  0  0  0  0  1  0  0  0  0  0  0
  189.7160  172.5140  138.7140 C   0  0  0  0  0  0  0  0  0  0  0  0
  190.8110  175.5130  142.3880 C   0  0  0  0  0  2  0  0  0  0  0  0
  187.9070  174.8890  141.5240 C   0  0  0  0  0  2  0  0  0  0  0  0
  187.7710  176.4060  141.6670 C   0  0  0  0  0  2  0  0  0  0  0  0
  192.0230  173.3160  141.9950 N   0  0  0  0  0  0  0  0  0  0  0  0
  188.9440  176.0520  146.3690 C   0  0  0  0  0  2  0  0  0  0  0  0
  186.5850  178.4820  145.0110 O   0  0  0  0  0  0  0  0  0  0  0  0
  188.6430  173.4030  138.3570 N   0  0  0  0  0  0  0  0  0  0  0  0
  188.2130  174.3370  139.1550 C   0  0  0  0  0  3  0  0  0  0  0  0
  190.0320  173.8210  140.7360 C   0  0  0  0  0  0  0  0  0  0  0  0
  187.9450  176.8590  143.0550 N   0  0  2  0  0  0  0  0  0  0  0  0
  186.5840  177.0210  145.3620 S   0  0  0  0  0  0  0  0  0  0  0  0
  190.0590  177.0270  145.9480 C   0  0  1  0  0  0  0  0  0  0  0  0
  188.8120  174.5330  140.4420 N   0  0  0  0  0  0  0  0  0  0  0  0
  191.4060  176.3310  145.8620 C   0  0  0  0  0  0  0  0  0  0  0  0
  193.9700  175.1560  145.8570 C   0  0  0  0  0  0  0  0  0  0  0  0
  193.7630  176.4040  145.2520 C   0  0  0  0  0  3  0  0  0  0  0  0
  192.8990  174.5040  146.4740 C   0  0  0  0  0  3  0  0  0  0  0  0
  191.6310  175.0890  146.4830 C   0  0  0  0  0  3  0  0  0  0  0  0
  192.4940  176.9870  145.2630 C   0  0  0  0  0  3  0  0  0  0  0  0
  195.2590  174.5380  145.8580 N   0  0  0  0  0  2  0  0  0  0  0  0
  196.2600  174.7980  144.8370 C   0  0  0  0  0  2  0  0  0  0  0  0
  197.0860  173.2340  146.1540 C   0  0  0  0  0  1  0  0  0  0  0  0
  197.4550  174.1710  145.1880 O   0  0  0  0  0  0  0  0  0  0  0  0
  1 18  1  0  0  0  0
  3 26  1  0  0  0  0
  5 18  1  0  0  0  0
  5 15  1  0  0  0  0
  6 11  1  0  0  0  0
  6  3  1  1  0  0  0
  7 14  1  0  0  0  0
  8  1  2  0  0  0  0
  9 25  1  0  0  0  0
 10  8  1  0  0  0  0
 10 23  1  0  0  0  0
 14 10  2  0  0  0  0
 15 11  1  0  0  0  0
 16 17  1  0  0  0  0
 18  2  1  0  0  0  0
 19 12  1  0  0  0  0
 20 25  2  0  0  0  0
 21 14  1  0  0  0  0
 21 22  2  0  0  0  0
 22 27  1  0  0  0  0
 23  5  2  0  0  0  0
 24 17  1  6  0  0  0
 24  6  1  0  0  0  0
 24  9  1  0  0  0  0
 25  4  2  0  0  0  0
 25 12  1  0  0  0  0
 26 19  1  0  0  0  0
 26 13  1  1  0  0  0
 27 23  1  0  0  0  0
 27 16  1  0  0  0  0
 28 26  1  0  0  0  0
 28 32  1  0  0  0  0
 29 34  1  0  0  0  0
 29 31  1  0  0  0  0
 30 33  1  0  0  0  0
 30 29  2  0  0  0  0
 31 32  2  0  0  0  0
 33 28  2  0  0  0  0
 35 37  1  0  0  0  0
 35 34  1  0  0  0  0
 37 36  1  0  0  0  0
M  END
>  <MODEL>
2

>  <REMARK>
 VINA RESULT:      -7.8      2.251      6.291
  Name = 
  4 active torsions:
  status: ('A' for Active; 'I' for Inactive)
    1  A    between atoms: C_4  and  C_36
    2  A    between atoms: C_5  and  N_15
    3  A    between atoms: N_15  and  C_27
    4  A    between atoms: O_23  and  C_27
                            x       y       z     vdW  Elec       q    Type
                         _______ _______ _______ _____ _____    ______ ____

>  <TORSDO>
F 4

$$$$
=
 OpenBabel11042418353D

 37 41  0  0  1  0  0  0  0  0999 V2000
  186.6030  177.2130  140.7920 C   0  0  0  0  0  3  0  0  0  0  0  0
  186.9280  177.1660  143.2440 C   0  0  0  0  0  1  0  0  0  0  0  0
  190.5540  173.7490  145.4410 C   0  0  0  0  0  2  0  0  0  0  0  0
  195.0510  174.0180  143.7990 O   0  0  0  0  0  0  0  0  0  0  0  0
  188.0990  175.4690  141.7870 C   0  0  0  0  0  0  0  0  0  0  0  0
  190.2650  173.7610  143.9270 C   0  0  1  0  0  3  0  0  0  0  0  0
  186.9200  175.4460  137.1160 N   0  0  0  0  0  1  0  0  0  0  0  0
  186.7870  176.7250  139.6050 N   0  0  0  0  0  0  0  0  0  0  0  0
  192.4980  174.0850  142.9940 C   0  0  0  0  0  2  0  0  0  0  0  0
  187.6230  175.5780  139.4060 C   0  0  0  0  0  0  0  0  0  0  0  0
  189.8070  174.9860  143.4180 O   0  0  0  0  0  0  0  0  0  0  0  0
  193.3890  175.0970  145.5960 C   0  0  0  0  0  2  0  0  0  0  0  0
  191.2640  174.8140  147.4420 O   0  0  0  0  0  1  0  0  0  0  0  0
  187.6750  174.9550  138.2210 C   0  0  0  0  0  0  0  0  0  0  0  0
  188.5020  174.6950  143.0100 C   0  0  0  0  0  2  0  0  0  0  0  0
  190.6340  173.9820  140.8850 C   0  0  0  0  0  2  0  0  0  0  0  0
  190.8420  172.7840  141.8130 C   0  0  0  0  0  2  0  0  0  0  0  0
  187.2220  176.6070  141.9350 N   0  0  0  0  0  0  0  0  0  0  0  0
  192.0480  175.8050  145.4220 C   0  0  0  0  0  2  0  0  0  0  0  0
  193.5050  172.4950  144.9310 O   0  0  0  0  0  0  0  0  0  0  0  0
  188.4580  173.7610  138.0580 N   0  0  0  0  0  0  0  0  0  0  0  0
  189.2290  173.2950  138.9980 C   0  0  0  0  0  3  0  0  0  0  0  0
  188.3770  175.0150  140.5440 C   0  0  0  0  0  0  0  0  0  0  0  0
  191.3560  173.1750  143.1330 N   0  0  2  0  0  0  0  0  0  0  0  0
  193.6550  173.8670  144.3330 S   0  0  0  0  0  0  0  0  0  0  0  0
  190.8800  175.0920  146.1280 C   0  0  1  0  0  0  0  0  0  0  0  0
  189.3180  173.9580  140.2660 N   0  0  0  0  0  0  0  0  0  0  0  0
  189.6460  175.9750  146.1960 C   0  0  0  0  0  0  0  0  0  0  0  0
  187.3930  177.6400  146.5200 C   0  0  0  0  0  0  0  0  0  0  0  0
  187.3390  176.2930  146.9070 C   0  0  0  0  0  3  0  0  0  0  0  0
  188.5760  178.1540  145.9840 C   0  0  0  0  0  3  0  0  0  0  0  0
  189.6950  177.3320  145.8300 C   0  0  0  0  0  3  0  0  0  0  0  0
  188.4580  175.4720  146.7520 C   0  0  0  0  0  3  0  0  0  0  0  0
  186.2600  178.4990  146.6670 N   0  0  0  0  0  2  0  0  0  0  0  0
  185.8040  179.3900  145.6130 C   0  0  0  0  0  2  0  0  0  0  0  0
  183.9850  178.3670  146.3230 C   0  0  0  0  0  1  0  0  0  0  0  0
  184.5230  179.0150  145.2110 O   0  0  0  0  0  0  0  0  0  0  0  0
  1 18  1  0  0  0  0
  3 26  1  0  0  0  0
  4 25  2  0  0  0  0
  5 18  1  0  0  0  0
  5 15  1  0  0  0  0
  6  3  1  1  0  0  0
  7 14  1  0  0  0  0
  8  1  2  0  0  0  0
  9 24  1  0  0  0  0
  9 25  1  0  0  0  0
 10  8  1  0  0  0  0
 10 23  1  0  0  0  0
 11  6  1  0  0  0  0
 14 10  2  0  0  0  0
 15 11  1  0  0  0  0
 16 17  1  0  0  0  0
 18  2  1  0  0  0  0
 19 12  1  0  0  0  0
 19 26  1  0  0  0  0
 21 14  1  0  0  0  0
 21 22  2  0  0  0  0
 22 27  1  0  0  0  0
 23  5  2  0  0  0  0
 24 17  1  6  0  0  0
 24  6  1  0  0  0  0
 25 20  2  0  0  0  0
 25 12  1  0  0  0  0
 26 28  1  0  0  0  0
 26 13  1  1  0  0  0
 27 23  1  0  0  0  0
 27 16  1  0  0  0  0
 28 33  1  0  0  0  0
 29 34  1  0  0  0  0
 29 30  1  0  0  0  0
 31 29  2  0  0  0  0
 32 31  1  0  0  0  0
 32 28  2  0  0  0  0
 33 30  2  0  0  0  0
 35 34  1  0  0  0  0
 37 35  1  0  0  0  0
 37 36  1  0  0  0  0
M  END
>  <MODEL>
3

>  <REMARK>
 VINA RESULT:      -7.3      2.052      2.954
  Name = 
  4 active torsions:
  status: ('A' for Active; 'I' for Inactive)
    1  A    between atoms: C_4  and  C_36
    2  A    between atoms: C_5  and  N_15
    3  A    between atoms: N_15  and  C_27
    4  A    between atoms: O_23  and  C_27
                            x       y       z     vdW  Elec       q    Type
                         _______ _______ _______ _____ _____    ______ ____

>  <TORSDO>
F 4

$$$$
=
 OpenBabel11042418353D

 37 41  0  0  1  0  0  0  0  0999 V2000
  190.2010  173.2020  140.7080 C   0  0  0  0  0  3  0  0  0  0  0  0
  191.1010  174.0160  142.8630 C   0  0  0  0  0  1  0  0  0  0  0  0
  188.7720  178.2620  145.3520 C   0  0  0  0  0  2  0  0  0  0  0  0
  184.0710  177.9350  146.2420 O   0  0  0  0  0  0  0  0  0  0  0  0
  189.2600  175.2970  141.7050 C   0  0  0  0  0  0  0  0  0  0  0  0
  188.2920  177.7680  143.9740 C   0  0  1  0  0  3  0  0  0  0  0  0
  188.0270  173.8000  137.2940 N   0  0  0  0  0  1  0  0  0  0  0  0
  189.4340  173.3240  139.6700 N   0  0  0  0  0  0  0  0  0  0  0  0
  185.9130  177.3890  144.3780 C   0  0  0  0  0  2  0  0  0  0  0  0
  188.5300  174.4310  139.5540 C   0  0  0  0  0  0  0  0  0  0  0  0
  188.5270  176.4080  143.7140 O   0  0  0  0  0  0  0  0  0  0  0  0
  186.4630  177.2970  147.2550 C   0  0  0  0  0  2  0  0  0  0  0  0
  189.1920  177.9220  147.6650 O   0  0  0  0  0  1  0  0  0  0  0  0
  187.8700  174.6690  138.4130 C   0  0  0  0  0  0  0  0  0  0  0  0
  189.4480  176.4390  142.6640 C   0  0  0  0  0  2  0  0  0  0  0  0
  186.5120  176.6750  141.7200 C   0  0  0  0  0  2  0  0  0  0  0  0
  186.6990  178.1110  142.2120 C   0  0  0  0  0  2  0  0  0  0  0  0
  190.1740  174.1800  141.7560 N   0  0  0  0  0  0  0  0  0  0  0  0
  187.5970  176.4470  146.6880 C   0  0  0  0  0  2  0  0  0  0  0  0
  185.8660  179.5760  145.9610 O   0  0  0  0  0  0  0  0  0  0  0  0
  187.0270  175.8270  138.2860 N   0  0  0  0  0  0  0  0  0  0  0  0
  186.7790  176.6250  139.2840 C   0  0  0  0  0  3  0  0  0  0  0  0
  188.3860  175.3790  140.6770 C   0  0  0  0  0  0  0  0  0  0  0  0
  186.9160  178.1860  143.6640 N   0  0  2  0  0  0  0  0  0  0  0  0
  185.5370  178.1090  145.9660 S   0  0  0  0  0  0  0  0  0  0  0  0
  188.9090  177.2260  146.4870 C   0  0  1  0  0  0  0  0  0  0  0  0
  187.3590  176.3870  140.5730 N   0  0  0  0  0  0  0  0  0  0  0  0
  190.0780  176.2930  146.2240 C   0  0  0  0  0  0  0  0  0  0  0  0
  192.3170  174.6050  145.9210 C   0  0  0  0  0  0  0  0  0  0  0  0
  192.4480  175.9910  145.7490 C   0  0  0  0  0  3  0  0  0  0  0  0
  191.0720  174.0680  146.2550 C   0  0  0  0  0  3  0  0  0  0  0  0
  189.9640  174.9040  146.4120 C   0  0  0  0  0  3  0  0  0  0  0  0
  191.3390  176.8250  145.9080 C   0  0  0  0  0  3  0  0  0  0  0  0
  193.4370  173.7300  145.7630 N   0  0  0  0  0  2  0  0  0  0  0  0
  194.6940  174.1550  145.1700 C   0  0  0  0  0  2  0  0  0  0  0  0
  195.2470  175.1450  143.2790 C   0  0  0  0  0  1  0  0  0  0  0  0
  194.6300  174.0010  143.7860 O   0  0  0  0  0  0  0  0  0  0  0  0
  1 18  1  0  0  0  0
  3 26  1  0  0  0  0
  5 18  1  0  0  0  0
  5 15  1  0  0  0  0
  6  3  1  1  0  0  0
  7 14  1  0  0  0  0
  8  1  2  0  0  0  0
  9 25  1  0  0  0  0
 10  8  1  0  0  0  0
 10 23  1  0  0  0  0
 11  6  1  0  0  0  0
 14 10  2  0  0  0  0
 15 11  1  0  0  0  0
 16 17  1  0  0  0  0
 18  2  1  0  0  0  0
 19 12  1  0  0  0  0
 20 25  2  0  0  0  0
 21 14  1  0  0  0  0
 21 22  2  0  0  0  0
 22 27  1  0  0  0  0
 23  5  2  0  0  0  0
 24 17  1  6  0  0  0
 24  6  1  0  0  0  0
 24  9  1  0  0  0  0
 25  4  2  0  0  0  0
 25 12  1  0  0  0  0
 26 19  1  0  0  0  0
 26 13  1  1  0  0  0
 27 23  1  0  0  0  0
 27 16  1  0  0  0  0
 28 32  1  0  0  0  0
 28 26  1  0  0  0  0
 29 31  1  0  0  0  0
 30 33  1  0  0  0  0
 30 29  2  0  0  0  0
 31 32  2  0  0  0  0
 33 28  2  0  0  0  0
 34 29  1  0  0  0  0
 35 34  1  0  0  0  0
 36 37  1  0  0  0  0
 37 35  1  0  0  0  0
M  END
>  <MODEL>
4

>  <REMARK>
 VINA RESULT:      -7.2      2.640      6.640
  Name = 
  4 active torsions:
  status: ('A' for Active; 'I' for Inactive)
    1  A    between atoms: C_4  and  C_36
    2  A    between atoms: C_5  and  N_15
    3  A    between atoms: N_15  and  C_27
    4  A    between atoms: O_23  and  C_27
                            x       y       z     vdW  Elec       q    Type
                         _______ _______ _______ _____ _____    ______ ____

>  <TORSDO>
F 4

$$$$
=
 OpenBabel11042418353D

 37 41  0  0  1  0  0  0  0  0999 V2000
  188.2070  173.7180  139.0280 C   0  0  0  0  0  3  0  0  0  0  0  0
  187.8110  175.2730  140.9090 C   0  0  0  0  0  1  0  0  0  0  0  0
  190.9010  174.9700  145.3830 C   0  0  0  0  0  2  0  0  0  0  0  0
  195.6460  175.2730  144.7600 O   0  0  0  0  0  0  0  0  0  0  0  0
  189.4830  173.3970  141.1590 C   0  0  0  0  0  0  0  0  0  0  0  0
  191.0620  173.9750  144.2180 C   0  0  1  0  0  3  0  0  0  0  0  0
  189.7100  170.2100  137.5530 N   0  0  0  0  0  1  0  0  0  0  0  0
  188.7640  172.6670  138.5110 N   0  0  0  0  0  0  0  0  0  0  0  0
  193.4380  174.1950  143.6970 C   0  0  0  0  0  2  0  0  0  0  0  0
  189.7090  171.8940  139.2620 C   0  0  0  0  0  0  0  0  0  0  0  0
  190.6780  174.4640  142.9600 O   0  0  0  0  0  0  0  0  0  0  0  0
  193.4570  176.7760  145.0860 C   0  0  0  0  0  2  0  0  0  0  0  0
  190.9170  177.1740  146.2670 O   0  0  0  0  0  1  0  0  0  0  0  0
  190.1490  170.7110  138.8130 C   0  0  0  0  0  0  0  0  0  0  0  0
  189.5730  173.6710  142.6340 C   0  0  0  0  0  2  0  0  0  0  0  0
  192.2780  172.3580  141.9050 C   0  0  0  0  0  2  0  0  0  0  0  0
  192.3000  172.0840  143.4100 C   0  0  0  0  0  2  0  0  0  0  0  0
  188.5140  174.1220  140.3690 N   0  0  0  0  0  0  0  0  0  0  0  0
  192.1720  176.8660  144.2660 C   0  0  0  0  0  2  0  0  0  0  0  0
  193.9620  174.4490  146.3340 O   0  0  0  0  0  0  0  0  0  0  0  0
  191.0370  169.9110  139.6140 N   0  0  0  0  0  0  0  0  0  0  0  0
  191.5360  170.3330  140.7390 C   0  0  0  0  0  3  0  0  0  0  0  0
  190.1420  172.3610  140.5940 C   0  0  0  0  0  0  0  0  0  0  0  0
  192.3790  173.3180  144.2060 N   0  0  2  0  0  0  0  0  0  0  0  0
  194.1710  175.1440  145.0170 S   0  0  0  0  0  0  0  0  0  0  0  0
  190.9090  176.4780  145.0560 C   0  0  1  0  0  0  0  0  0  0  0  0
  191.2030  171.6320  141.2460 N   0  0  0  0  0  0  0  0  0  0  0  0
  189.6440  176.8740  144.3160 C   0  0  0  0  0  0  0  0  0  0  0  0
  187.3360  177.4650  142.8070 C   0  0  0  0  0  0  0  0  0  0  0  0
  188.5910  177.9330  142.3930 C   0  0  0  0  0  3  0  0  0  0  0  0
  187.2390  176.6930  143.9670 C   0  0  0  0  0  3  0  0  0  0  0  0
  188.3820  176.3940  144.7110 C   0  0  0  0  0  3  0  0  0  0  0  0
  189.7330  177.6330  143.1370 C   0  0  0  0  0  3  0  0  0  0  0  0
  186.1520  177.7600  142.0620 N   0  0  0  0  0  2  0  0  0  0  0  0
  184.9660  178.3470  142.6650 C   0  0  0  0  0  2  0  0  0  0  0  0
  184.5070  178.2830  140.5090 C   0  0  0  0  0  1  0  0  0  0  0  0
  183.9030  178.2710  141.7670 O   0  0  0  0  0  0  0  0  0  0  0  0
  1 18  1  0  0  0  0
  4 25  2  0  0  0  0
  5 15  1  0  0  0  0
  6  3  1  1  0  0  0
  7 14  1  0  0  0  0
  8  1  2  0  0  0  0
  8 10  1  0  0  0  0
  9 24  1  0  0  0  0
  9 25  1  0  0  0  0
 10 23  1  0  0  0  0
 11  6  1  0  0  0  0
 14 10  2  0  0  0  0
 14 21  1  0  0  0  0
 15 11  1  0  0  0  0
 16 17  1  0  0  0  0
 18  2  1  0  0  0  0
 18  5  1  0  0  0  0
 19 26  1  0  0  0  0
 19 12  1  0  0  0  0
 21 22  2  0  0  0  0
 22 27  1  0  0  0  0
 23  5  2  0  0  0  0
 23 27  1  0  0  0  0
 24 17  1  6  0  0  0
 24  6  1  0  0  0  0
 25 12  1  0  0  0  0
 25 20  2  0  0  0  0
 26  3  1  0  0  0  0
 26 13  1  1  0  0  0
 27 16  1  0  0  0  0
 28 32  1  0  0  0  0
 28 26  1  0  0  0  0
 29 31  1  0  0  0  0
 30 29  2  0  0  0  0
 30 33  1  0  0  0  0
 31 32  2  0  0  0  0
 33 28  2  0  0  0  0
 34 35  1  0  0  0  0
 34 29  1  0  0  0  0
 36 37  1  0  0  0  0
 37 35  1  0  0  0  0
M  END
>  <MODEL>
5

>  <REMARK>
 VINA RESULT:      -6.6      1.937      2.240
  Name = 
  4 active torsions:
  status: ('A' for Active; 'I' for Inactive)
    1  A    between atoms: C_4  and  C_36
    2  A    between atoms: C_5  and  N_15
    3  A    between atoms: N_15  and  C_27
    4  A    between atoms: O_23  and  C_27
                            x       y       z     vdW  Elec       q    Type
                         _______ _______ _______ _____ _____    ______ ____

>  <TORSDO>
F 4

$$$$
=
 OpenBabel11042418353D

 37 41  0  0  1  0  0  0  0  0999 V2000
  186.9000  175.7870  142.7590 C   0  0  0  0  0  3  0  0  0  0  0  0
  188.2940  174.7440  141.0020 C   0  0  0  0  0  1  0  0  0  0  0  0
  193.5010  173.5270  142.0310 C   0  0  0  0  0  2  0  0  0  0  0  0
  194.3600  170.7400  145.8370 O   0  0  0  0  0  0  0  0  0  0  0  0
  189.3460  175.4610  143.1830 C   0  0  0  0  0  0  0  0  0  0  0  0
  192.6170  174.2450  143.0680 C   0  0  1  0  0  3  0  0  0  0  0  0
  186.5400  177.9160  146.2340 N   0  0  0  0  0  1  0  0  0  0  0  0
  186.7550  176.3660  143.9100 N   0  0  0  0  0  0  0  0  0  0  0  0
  192.8400  172.7830  145.0130 C   0  0  0  0  0  2  0  0  0  0  0  0
  187.8760  176.5490  144.7840 C   0  0  0  0  0  0  0  0  0  0  0  0
  191.2410  173.9880  142.9570 O   0  0  0  0  0  0  0  0  0  0  0  0
  193.7430  170.6340  143.2360 C   0  0  0  0  0  2  0  0  0  0  0  0
  193.9890  171.6810  140.6190 O   0  0  0  0  0  1  0  0  0  0  0  0
  187.7790  177.3040  145.8870 C   0  0  0  0  0  0  0  0  0  0  0  0
  190.7130  175.2320  142.6010 C   0  0  0  0  0  2  0  0  0  0  0  0
  191.0860  174.8920  145.6530 C   0  0  0  0  0  2  0  0  0  0  0  0
  192.5450  175.1650  145.2840 C   0  0  0  0  0  2  0  0  0  0  0  0
  188.1890  175.3300  142.3280 N   0  0  0  0  0  0  0  0  0  0  0  0
  192.5570  171.2070  142.4640 C   0  0  0  0  0  2  0  0  0  0  0  0
  195.4340  172.3850  144.3760 O   0  0  0  0  0  0  0  0  0  0  0  0
  188.9330  177.5410  146.7120 N   0  0  0  0  0  0  0  0  0  0  0  0
  190.0770  176.9590  146.5000 C   0  0  0  0  0  3  0  0  0  0  0  0
  189.1860  175.9710  144.4250 C   0  0  0  0  0  0  0  0  0  0  0  0
  193.1210  174.1050  144.4430 N   0  0  2  0  0  0  0  0  0  0  0  0
  194.1580  171.6380  144.6500 S   0  0  0  0  0  0  0  0  0  0  0  0
  192.9620  172.2320  141.3890 C   0  0  1  0  0  0  0  0  0  0  0  0
  190.2440  176.0520  145.4030 N   0  0  0  0  0  0  0  0  0  0  0  0
  191.8090  172.5390  140.4480 C   0  0  0  0  0  0  0  0  0  0  0  0
  189.7700  173.0080  138.5570 C   0  0  0  0  0  0  0  0  0  0  0  0
  190.9330  173.7910  138.5520 C   0  0  0  0  0  3  0  0  0  0  0  0
  189.6340  171.9850  139.4990 C   0  0  0  0  0  3  0  0  0  0  0  0
  190.6470  171.7470  140.4310 C   0  0  0  0  0  3  0  0  0  0  0  0
  191.9450  173.5510  139.4840 C   0  0  0  0  0  3  0  0  0  0  0  0
  188.7200  173.2340  137.6140 N   0  0  0  0  0  2  0  0  0  0  0  0
  188.4780  174.5270  136.9970 C   0  0  0  0  0  2  0  0  0  0  0  0
  186.8990  176.0410  136.7190 C   0  0  0  0  0  1  0  0  0  0  0  0
  187.4420  175.1750  137.6680 O   0  0  0  0  0  0  0  0  0  0  0  0
  1  8  2  0  0  0  0
  2 18  1  0  0  0  0
  5 23  2  0  0  0  0
  6  3  1  6  0  0  0
  6 24  1  0  0  0  0
  8 10  1  0  0  0  0
 10 14  2  0  0  0  0
 11  6  1  0  0  0  0
 12 25  1  0  0  0  0
 14  7  1  0  0  0  0
 14 21  1  0  0  0  0
 15 11  1  0  0  0  0
 15  5  1  0  0  0  0
 17 16  1  0  0  0  0
 18  1  1  0  0  0  0
 18  5  1  0  0  0  0
 19 12  1  0  0  0  0
 20 25  2  0  0  0  0
 22 21  2  0  0  0  0
 23 10  1  0  0  0  0
 23 27  1  0  0  0  0
 24  9  1  1  0  0  0
 24 17  1  0  0  0  0
 25  9  1  0  0  0  0
 25  4  2  0  0  0  0
 26 13  1  6  0  0  0
 26  3  1  0  0  0  0
 26 19  1  0  0  0  0
 27 16  1  0  0  0  0
 27 22  1  0  0  0  0
 28 26  1  0  0  0  0
 29 31  1  0  0  0  0
 30 29  2  0  0  0  0
 30 33  1  0  0  0  0
 31 32  2  0  0  0  0
 32 28  1  0  0  0  0
 33 28  2  0  0  0  0
 34 29  1  0  0  0  0
 35 34  1  0  0  0  0
 35 37  1  0  0  0  0
 36 37  1  0  0  0  0
M  END
>  <MODEL>
6

>  <REMARK>
 VINA RESULT:      -6.5      2.627      6.570
  Name = 
  4 active torsions:
  status: ('A' for Active; 'I' for Inactive)
    1  A    between atoms: C_4  and  C_36
    2  A    between atoms: C_5  and  N_15
    3  A    between atoms: N_15  and  C_27
    4  A    between atoms: O_23  and  C_27
                            x       y       z     vdW  Elec       q    Type
                         _______ _______ _______ _____ _____    ______ ____

>  <TORSDO>
F 4

$$$$
=
 OpenBabel11042418353D

 37 41  0  0  1  0  0  0  0  0999 V2000
  190.7530  176.8470  146.8260 C   0  0  0  0  0  3  0  0  0  0  0  0
  192.0680  175.0010  145.8360 C   0  0  0  0  0  1  0  0  0  0  0  0
  190.0050  172.0970  141.7180 C   0  0  0  0  0  2  0  0  0  0  0  0
  188.5690  174.5440  137.8520 O   0  0  0  0  0  0  0  0  0  0  0  0
  189.6840  175.3820  145.1000 C   0  0  0  0  0  0  0  0  0  0  0  0
  189.1930  173.2060  142.4140 C   0  0  1  0  0  3  0  0  0  0  0  0
  187.1760  178.7050  147.5250 N   0  0  0  0  0  1  0  0  0  0  0  0
  189.6520  177.5140  146.9740 N   0  0  0  0  0  0  0  0  0  0  0  0
  188.5650  174.6260  140.5280 C   0  0  0  0  0  2  0  0  0  0  0  0
  188.4830  177.1770  146.2160 C   0  0  0  0  0  0  0  0  0  0  0  0
  189.9590  174.2240  143.0040 O   0  0  0  0  0  0  0  0  0  0  0  0
  190.7290  173.4210  138.9600 C   0  0  0  0  0  2  0  0  0  0  0  0
  191.8950  171.3470  140.4910 O   0  0  0  0  0  1  0  0  0  0  0  0
  187.2950  177.7330  146.4900 C   0  0  0  0  0  0  0  0  0  0  0  0
  189.6980  174.0690  144.3680 C   0  0  0  0  0  2  0  0  0  0  0  0
  187.5700  175.7690  142.9020 C   0  0  0  0  0  2  0  0  0  0  0  0
  187.1050  174.3880  142.4370 C   0  0  0  0  0  2  0  0  0  0  0  0
  190.8230  175.7450  145.9110 N   0  0  0  0  0  0  0  0  0  0  0  0
  191.4110  173.6720  140.3030 C   0  0  0  0  0  2  0  0  0  0  0  0
  188.2370  172.4150  139.0130 O   0  0  0  0  0  0  0  0  0  0  0  0
  186.1170  177.3260  145.7720 N   0  0  0  0  0  0  0  0  0  0  0  0
  186.1590  176.4990  144.7690 C   0  0  0  0  0  3  0  0  0  0  0  0
  188.5630  176.1350  145.1730 C   0  0  0  0  0  0  0  0  0  0  0  0
  188.0940  173.7190  141.5800 N   0  0  2  0  0  0  0  0  0  0  0  0
  188.9740  173.7250  139.0450 S   0  0  0  0  0  0  0  0  0  0  0  0
  191.4260  172.4390  141.2250 C   0  0  1  0  0  0  0  0  0  0  0  0
  187.4040  175.9340  144.3370 N   0  0  0  0  0  0  0  0  0  0  0  0
  192.3710  172.6310  142.3980 C   0  0  0  0  0  0  0  0  0  0  0  0
  194.2440  172.8460  144.4960 C   0  0  0  0  0  0  0  0  0  0  0  0
  193.3160  171.7940  144.4810 C   0  0  0  0  0  3  0  0  0  0  0  0
  194.2410  173.7810  143.4570 C   0  0  0  0  0  3  0  0  0  0  0  0
  193.3180  173.6710  142.4150 C   0  0  0  0  0  3  0  0  0  0  0  0
  192.3950  171.6850  143.4370 C   0  0  0  0  0  3  0  0  0  0  0  0
  195.1960  172.9800  145.5540 N   0  0  0  0  0  2  0  0  0  0  0  0
  195.9940  174.1780  145.7500 C   0  0  0  0  0  2  0  0  0  0  0  0
  197.8580  173.7140  144.6670 C   0  0  0  0  0  1  0  0  0  0  0  0
  197.3260  173.8200  145.9530 O   0  0  0  0  0  0  0  0  0  0  0  0
  1  8  2  0  0  0  0
  2 18  1  0  0  0  0
  4 25  2  0  0  0  0
  5 23  2  0  0  0  0
  5 18  1  0  0  0  0
  6  3  1  6  0  0  0
  6 11  1  0  0  0  0
 10 14  2  0  0  0  0
 10  8  1  0  0  0  0
 11 15  1  0  0  0  0
 12 25  1  0  0  0  0
 12 19  1  0  0  0  0
 14  7  1  0  0  0  0
 15  5  1  0  0  0  0
 16 27  1  0  0  0  0
 17 16  1  0  0  0  0
 18  1  1  0  0  0  0
 19 26  1  0  0  0  0
 20 25  2  0  0  0  0
 21 14  1  0  0  0  0
 22 21  2  0  0  0  0
 23 10  1  0  0  0  0
 24  9  1  6  0  0  0
 24  6  1  0  0  0  0
 24 17  1  0  0  0  0
 25  9  1  0  0  0  0
 26 13  1  6  0  0  0
 26  3  1  0  0  0  0
 26 28  1  0  0  0  0
 27 22  1  0  0  0  0
 27 23  1  0  0  0  0
 28 32  2  0  0  0  0
 28 33  1  0  0  0  0
 29 34  1  0  0  0  0
 30 29  1  0  0  0  0
 31 29  2  0  0  0  0
 32 31  1  0  0  0  0
 33 30  2  0  0  0  0
 34 35  1  0  0  0  0
 35 37  1  0  0  0  0
 36 37  1  0  0  0  0
M  END
>  <MODEL>
7

>  <REMARK>
 VINA RESULT:      -6.5      2.922      7.963
  Name = 
  4 active torsions:
  status: ('A' for Active; 'I' for Inactive)
    1  A    between atoms: C_4  and  C_36
    2  A    between atoms: C_5  and  N_15
    3  A    between atoms: N_15  and  C_27
    4  A    between atoms: O_23  and  C_27
                            x       y       z     vdW  Elec       q    Type
                         _______ _______ _______ _____ _____    ______ ____

>  <TORSDO>
F 4

$$$$
=
 OpenBabel11042418353D

 37 41  0  0  1  0  0  0  0  0999 V2000
  195.3080  174.8330  140.5930 C   0  0  0  0  0  3  0  0  0  0  0  0
  193.2820  173.4870  140.1450 C   0  0  0  0  0  1  0  0  0  0  0  0
  188.9420  173.9440  143.4000 C   0  0  0  0  0  2  0  0  0  0  0  0
  187.1510  178.3500  144.0130 O   0  0  0  0  0  0  0  0  0  0  0  0
  193.4240  174.8880  142.2410 C   0  0  0  0  0  0  0  0  0  0  0  0
  190.2500  174.7060  143.6840 C   0  0  1  0  0  3  0  0  0  0  0  0
  197.6520  177.0170  143.1380 N   0  0  0  0  0  1  0  0  0  0  0  0
  196.0170  175.6170  141.3440 N   0  0  0  0  0  0  0  0  0  0  0  0
  189.4640  177.0140  143.8280 C   0  0  0  0  0  2  0  0  0  0  0  0
  195.5050  176.0930  142.5950 C   0  0  0  0  0  0  0  0  0  0  0  0
  191.0360  174.9810  142.5530 O   0  0  0  0  0  0  0  0  0  0  0  0
  187.0350  176.2290  142.3870 C   0  0  0  0  0  2  0  0  0  0  0  0
  187.0820  173.4250  142.0180 O   0  0  0  0  0  1  0  0  0  0  0  0
  196.2910  176.7480  143.4610 C   0  0  0  0  0  0  0  0  0  0  0  0
  192.1880  174.2200  142.7730 C   0  0  0  0  0  2  0  0  0  0  0  0
  192.2590  176.9800  144.1690 C   0  0  0  0  0  2  0  0  0  0  0  0
  191.3360  176.2610  145.1550 C   0  0  0  0  0  2  0  0  0  0  0  0
  194.0010  174.4130  141.0050 N   0  0  0  0  0  0  0  0  0  0  0  0
  188.1240  175.5220  141.5840 C   0  0  0  0  0  2  0  0  0  0  0  0
  187.2280  176.1420  145.0660 O   0  0  0  0  0  0  0  0  0  0  0  0
  195.7830  177.1510  144.7450 N   0  0  0  0  0  0  0  0  0  0  0  0
  194.5340  177.0040  145.0810 C   0  0  0  0  0  3  0  0  0  0  0  0
  194.1140  175.7850  142.9810 C   0  0  0  0  0  0  0  0  0  0  0  0
  190.0520  175.8800  144.5480 N   0  0  2  0  0  0  0  0  0  0  0  0
  187.6820  176.9510  143.8830 S   0  0  0  0  0  0  0  0  0  0  0  0
  188.3300  174.0510  141.9880 C   0  0  1  0  0  0  0  0  0  0  0  0
  193.5970  176.4090  144.1750 N   0  0  0  0  0  0  0  0  0  0  0  0
  189.1830  173.3080  140.9750 C   0  0  0  0  0  0  0  0  0  0  0  0
  190.6070  171.8090  139.0570 C   0  0  0  0  0  0  0  0  0  0  0  0
  190.4270  171.3080  140.3550 C   0  0  0  0  0  3  0  0  0  0  0  0
  190.0660  173.0510  138.7180 C   0  0  0  0  0  3  0  0  0  0  0  0
  189.3540  173.7910  139.6650 C   0  0  0  0  0  3  0  0  0  0  0  0
  189.7140  172.0490  141.3000 C   0  0  0  0  0  3  0  0  0  0  0  0
  191.3330  171.0700  138.0720 N   0  0  0  0  0  2  0  0  0  0  0  0
  190.6840  170.2700  137.0470 C   0  0  0  0  0  2  0  0  0  0  0  0
  190.4410  168.2450  137.8860 C   0  0  0  0  0  1  0  0  0  0  0  0
  189.7440  169.4290  137.6420 O   0  0  0  0  0  0  0  0  0  0  0  0
  1 18  1  0  0  0  0
  1  8  2  0  0  0  0
  2 18  1  0  0  0  0
  5 15  1  0  0  0  0
  5 23  2  0  0  0  0
  6  3  1  6  0  0  0
  6 24  1  0  0  0  0
  7 14  1  0  0  0  0
  8 10  1  0  0  0  0
  9 25  1  0  0  0  0
 10 23  1  0  0  0  0
 10 14  2  0  0  0  0
 11 15  1  0  0  0  0
 11  6  1  0  0  0  0
 12 25  1  0  0  0  0
 14 21  1  0  0  0  0
 16 27  1  0  0  0  0
 16 17  1  0  0  0  0
 18  5  1  0  0  0  0
 19 26  1  0  0  0  0
 19 12  1  0  0  0  0
 21 22  2  0  0  0  0
 23 27  1  0  0  0  0
 24  9  1  6  0  0  0
 24 17  1  0  0  0  0
 25  4  2  0  0  0  0
 25 20  2  0  0  0  0
 26 13  1  1  0  0  0
 26  3  1  0  0  0  0
 27 22  1  0  0  0  0
 28 33  1  0  0  0  0
 28 26  1  0  0  0  0
 29 30  1  0  0  0  0
 30 33  2  0  0  0  0
 31 29  2  0  0  0  0
 31 32  1  0  0  0  0
 32 28  2  0  0  0  0
 34 29  1  0  0  0  0
 35 37  1  0  0  0  0
 35 34  1  0  0  0  0
 37 36  1  0  0  0  0
M  END
>  <MODEL>
8

>  <REMARK>
 VINA RESULT:      -6.5      3.090      7.711
  Name = 
  4 active torsions:
  status: ('A' for Active; 'I' for Inactive)
    1  A    between atoms: C_4  and  C_36
    2  A    between atoms: C_5  and  N_15
    3  A    between atoms: N_15  and  C_27
    4  A    between atoms: O_23  and  C_27
                            x       y       z     vdW  Elec       q    Type
                         _______ _______ _______ _____ _____    ______ ____

>  <TORSDO>
F 4

$$$$
=
 OpenBabel11042418353D

 37 41  0  0  1  0  0  0  0  0999 V2000
  192.6560  175.4940  146.6650 C   0  0  0  0  0  3  0  0  0  0  0  0
  193.4000  173.4230  145.5360 C   0  0  0  0  0  1  0  0  0  0  0  0
  190.4000  171.2850  141.5260 C   0  0  0  0  0  2  0  0  0  0  0  0
  189.3490  174.1650  137.8390 O   0  0  0  0  0  0  0  0  0  0  0  0
  191.1390  174.4080  144.9950 C   0  0  0  0  0  0  0  0  0  0  0  0
  189.9380  172.5300  142.3080 C   0  0  1  0  0  3  0  0  0  0  0  0
  189.7080  178.1430  147.6810 N   0  0  0  0  0  1  0  0  0  0  0  0
  191.7670  176.4040  146.9130 N   0  0  0  0  0  0  0  0  0  0  0  0
  189.5520  174.1360  140.5080 C   0  0  0  0  0  2  0  0  0  0  0  0
  190.5010  176.3950  146.2410 C   0  0  0  0  0  0  0  0  0  0  0  0
  190.9720  173.3040  142.8590 O   0  0  0  0  0  0  0  0  0  0  0  0
  191.2350  172.5020  138.7510 C   0  0  0  0  0  2  0  0  0  0  0  0
  191.9550  170.1450  140.1400 O   0  0  0  0  0  1  0  0  0  0  0  0
  189.5100  177.2140  146.6190 C   0  0  0  0  0  0  0  0  0  0  0  0
  190.7760  173.1630  144.2360 C   0  0  0  0  0  2  0  0  0  0  0  0
  189.0390  175.3910  142.9770 C   0  0  0  0  0  2  0  0  0  0  0  0
  188.2150  174.1860  142.5190 C   0  0  0  0  0  2  0  0  0  0  0  0
  192.3860  174.4470  145.7240 N   0  0  0  0  0  0  0  0  0  0  0  0
  192.0500  172.5230  140.0420 C   0  0  0  0  0  2  0  0  0  0  0  0
  188.5820  172.1360  138.9750 O   0  0  0  0  0  0  0  0  0  0  0  0
  188.2210  177.1380  145.9860 N   0  0  0  0  0  0  0  0  0  0  0  0
  187.9860  176.3680  144.9640 C   0  0  0  0  0  3  0  0  0  0  0  0
  190.2470  175.4090  145.1720 C   0  0  0  0  0  0  0  0  0  0  0  0
  188.9460  173.3300  141.5730 N   0  0  2  0  0  0  0  0  0  0  0  0
  189.6200  173.2230  138.9780 S   0  0  0  0  0  0  0  0  0  0  0  0
  191.8240  171.2870  140.9320 C   0  0  1  0  0  0  0  0  0  0  0  0
  189.0190  175.5330  144.4240 N   0  0  0  0  0  0  0  0  0  0  0  0
  192.8660  171.1940  142.0330 C   0  0  0  0  0  0  0  0  0  0  0  0
  194.8710  170.8540  143.9860 C   0  0  0  0  0  0  0  0  0  0  0  0
  193.6960  170.0910  144.0390 C   0  0  0  0  0  3  0  0  0  0  0  0
  195.0470  171.7760  142.9520 C   0  0  0  0  0  3  0  0  0  0  0  0
  194.0570  171.9400  141.9800 C   0  0  0  0  0  3  0  0  0  0  0  0
  192.7080  170.2550  143.0660 C   0  0  0  0  0  3  0  0  0  0  0  0
  195.8970  170.7040  144.9710 N   0  0  0  0  0  2  0  0  0  0  0  0
  197.0290  171.6100  145.0750 C   0  0  0  0  0  2  0  0  0  0  0  0
  197.1770  173.7400  145.6250 C   0  0  0  0  0  1  0  0  0  0  0  0
  196.8220  172.4910  146.1350 O   0  0  0  0  0  0  0  0  0  0  0  0
  1  8  2  0  0  0  0
  2 18  1  0  0  0  0
  4 25  2  0  0  0  0
  5 23  2  0  0  0  0
  5 18  1  0  0  0  0
  6  3  1  6  0  0  0
  6 11  1  0  0  0  0
 10 14  2  0  0  0  0
 10  8  1  0  0  0  0
 11 15  1  0  0  0  0
 12 25  1  0  0  0  0
 12 19  1  0  0  0  0
 14  7  1  0  0  0  0
 15  5  1  0  0  0  0
 16 27  1  0  0  0  0
 17 16  1  0  0  0  0
 18  1  1  0  0  0  0
 19 26  1  0  0  0  0
 20 25  2  0  0  0  0
 21 14  1  0  0  0  0
 22 21  2  0  0  0  0
 23 10  1  0  0  0  0
 24  9  1  6  0  0  0
 24  6  1  0  0  0  0
 24 17  1  0  0  0  0
 25  9  1  0  0  0  0
 26 13  1  6  0  0  0
 26  3  1  0  0  0  0
 26 28  1  0  0  0  0
 27 22  1  0  0  0  0
 27 23  1  0  0  0  0
 28 33  1  0  0  0  0
 29 30  1  0  0  0  0
 29 34  1  0  0  0  0
 31 29  2  0  0  0  0
 32 28  2  0  0  0  0
 32 31  1  0  0  0  0
 33 30  2  0  0  0  0
 34 35  1  0  0  0  0
 35 37  1  0  0  0  0
 36 37  1  0  0  0  0
M  END
>  <MODEL>
9

>  <REMARK>
 VINA RESULT:      -6.4      3.006      8.128
  Name = 
  4 active torsions:
  status: ('A' for Active; 'I' for Inactive)
    1  A    between atoms: C_4  and  C_36
    2  A    between atoms: C_5  and  N_15
    3  A    between atoms: N_15  and  C_27
    4  A    between atoms: O_23  and  C_27
                            x       y       z     vdW  Elec       q    Type
                         _______ _______ _______ _____ _____    ______ ____

>  <TORSDO>
F 4

$$$$
