=
 OpenBabel11042414363D

 46 49  0  0  1  0  0  0  0  0999 V2000
  191.6140  172.1610  144.5130 N   0  0  0  0  0  2  0  0  0  0  0  0
  190.6940  173.2290  144.5780 C   0  0  0  0  0  0  0  0  0  0  0  0
  192.8280  174.2500  144.4980 C   0  0  2  0  0  3  0  0  0  0  0  0
  191.3260  174.5660  144.5220 C   0  0  1  0  0  3  0  0  0  0  0  0
  189.4560  173.0440  144.7130 O   0  0  0  0  0  0  0  0  0  0  0  0
  192.9560  172.7030  144.4080 C   0  0  1  0  0  3  0  0  0  0  0  0
  193.7580  172.1660  145.4200 O   0  0  0  0  0  1  0  0  0  0  0  0
  193.5630  174.8740  145.6980 C   0  0  2  0  0  3  0  0  0  0  0  0
  192.6720  175.1690  146.7420 O   0  0  0  0  0  1  0  0  0  0  0  0
  194.4400  177.1380  146.4300 C   0  0  0  0  0  1  0  0  0  0  0  0
  194.3210  176.1380  145.2760 C   0  0  1  0  0  3  0  0  0  0  0  0
  195.6960  175.7680  144.7410 C   0  0  0  0  0  2  0  0  0  0  0  0
  196.8640  176.8590  142.8990 N   0  0  0  0  0  1  0  0  0  0  0  0
  195.7700  175.9650  143.2370 C   0  0  1  0  0  3  0  0  0  0  0  0
  195.9500  173.5060  138.8990 N   0  0  0  0  0  2  0  0  0  0  0  0
  196.1870  173.6120  143.2210 O   0  0  0  0  0  0  0  0  0  0  0  0
  195.9990  173.4200  140.3210 C   0  0  0  0  0  0  0  0  0  0  0  0
  195.8510  174.6020  141.1210 N   0  0  0  0  0  2  0  0  0  0  0  0
  196.1690  172.2950  140.8620 O   0  0  0  0  0  0  0  0  0  0  0  0
  195.9540  174.6550  142.5470 C   0  0  0  0  0  0  0  0  0  0  0  0
  194.5990  175.7820  136.3350 C   0  0  0  0  0  2  0  0  0  0  0  0
  195.7630  174.7660  138.1940 C   0  0  1  0  0  3  0  0  0  0  0  0
  197.1320  175.0530  137.0260 S   0  0  0  0  0  0  0  0  0  0  0  0
  196.4500  177.0340  135.2630 C   0  0  0  0  0  1  0  0  0  0  0  0
  195.9910  175.6720  135.7440 C   0  0  2  0  0  3  0  0  0  0  0  0
  194.4780  174.7160  137.3990 C   0  0  0  0  0  2  0  0  0  0  0  0
  190.9480  175.3150  143.3160 N   0  0  0  0  0  0  0  0  0  0  0  0
  192.1910  173.7850  140.1070 C   0  0  0  0  0  3  0  0  0  0  0  0
  189.7880  173.5350  140.2180 C   0  0  0  0  0  3  0  0  0  0  0  0
  192.1790  174.4260  141.3480 C   0  0  0  0  0  3  0  0  0  0  0  0
  190.9720  174.6310  142.0410 C   0  0  0  0  0  0  0  0  0  0  0  0
  190.9950  173.3370  139.5340 C   0  0  0  0  0  0  0  0  0  0  0  0
  189.7740  174.1780  141.4590 C   0  0  0  0  0  3  0  0  0  0  0  0
  190.9690  172.6970  138.2880 O   0  0  0  0  0  0  0  0  0  0  0  0
  189.7570  172.2540  137.6790 C   0  0  0  0  0  1  0  0  0  0  0  0
  190.3850  176.6680  143.4680 C   0  0  2  0  0  3  0  0  0  0  0  0
  191.4700  177.7320  143.4060 C   0  0  0  0  0  1  0  0  0  0  0  0
  189.5880  176.8020  144.7590 C   0  0  0  0  0  2  0  0  0  0  0  0
  187.7360  176.4910  143.3100 O   0  0  0  0  0  0  0  0  0  0  0  0
  185.2650  178.2140  147.3480 C   0  0  0  0  0  2  0  0  0  0  0  0
  187.1570  177.0430  145.5120 N   0  0  0  0  0  0  0  0  0  0  0  0
  184.8800  177.0310  146.4600 C   0  0  0  0  0  2  0  0  0  0  0  0
  185.7250  177.0010  145.1900 C   0  0  0  0  0  2  0  0  0  0  0  0
  187.5970  177.2810  146.8850 C   0  0  0  0  0  2  0  0  0  0  0  0
  188.1200  176.7720  144.4780 C   0  0  0  0  0  0  0  0  0  0  0  0
  186.7730  178.4010  147.5190 C   0  0  0  0  0  2  0  0  0  0  0  0
  1  2  1  0  0  0  0
  2  5  2  0  0  0  0
  3  4  1  0  0  0  0
  3  8  1  1  0  0  0
  4 27  1  6  0  0  0
  4  2  1  0  0  0  0
  6  3  1  0  0  0  0
  6  1  1  0  0  0  0
  6  7  1  1  0  0  0
  8  9  1  1  0  0  0
 11  8  1  0  0  0  0
 11 10  1  1  0  0  0
 12 11  1  0  0  0  0
 14 13  1  1  0  0  0
 14 12  1  0  0  0  0
 15 17  1  0  0  0  0
 17 19  2  0  0  0  0
 17 18  1  0  0  0  0
 18 20  1  0  0  0  0
 20 16  2  0  0  0  0
 20 14  1  0  0  0  0
 21 26  1  0  0  0  0
 22 15  1  6  0  0  0
 23 22  1  0  0  0  0
 25 24  1  1  0  0  0
 25 21  1  0  0  0  0
 25 23  1  0  0  0  0
 26 22  1  0  0  0  0
 27 36  1  0  0  0  0
 28 30  1  0  0  0  0
 29 33  2  0  0  0  0
 30 31  2  0  0  0  0
 31 27  1  0  0  0  0
 32 28  2  0  0  0  0
 32 29  1  0  0  0  0
 33 31  1  0  0  0  0
 34 32  1  0  0  0  0
 35 34  1  0  0  0  0
 36 37  1  1  0  0  0
 36 38  1  0  0  0  0
 39 45  2  0  0  0  0
 40 46  1  0  0  0  0
 41 44  1  0  0  0  0
 42 40  1  0  0  0  0
 43 41  1  0  0  0  0
 43 42  1  0  0  0  0
 44 46  1  0  0  0  0
 45 38  1  0  0  0  0
 45 41  1  0  0  0  0
M  END
>  <MODEL>
1

>  <REMARK>
 VINA RESULT:      -6.9      0.000      0.000
  Name = 
  12 active torsions:
  status: ('A' for Active; 'I' for Inactive)
    1  A    between atoms: N_4  and  C_6
    2  A    between atoms: N_4  and  C_25
    3  A    between atoms: N_4  and  C_30
    4  A    between atoms: C_6  and  C_13
    5  A    between atoms: C_7  and  C_17
    6  A    between atoms: C_7  and  C_40
    7  A    between atoms: N_10  and  C_11
    8  A    between atoms: O_12  and  C_35
    9  A    between atoms: C_13  and  C_31
   10  A    between atoms: C_32  and  C_37
   11  A    between atoms: C_32  and  C_40
   12  A    between atoms: C_37  and  C_46
                            x       y       z     vdW  Elec       q    Type
                         _______ _______ _______ _____ _____    ______ ____

>  <TORSDO>
F 12

$$$$
=
 OpenBabel11042414363D

 46 49  0  0  1  0  0  0  0  0999 V2000
  193.4740  177.1310  145.0800 N   0  0  0  0  0  2  0  0  0  0  0  0
  193.9970  175.9320  145.6090 C   0  0  0  0  0  0  0  0  0  0  0  0
  192.2010  175.2670  144.2170 C   0  0  2  0  0  3  0  0  0  0  0  0
  193.3250  174.7140  145.1050 C   0  0  1  0  0  3  0  0  0  0  0  0
  194.9230  175.9200  146.4620 O   0  0  0  0  0  0  0  0  0  0  0  0
  192.3920  176.8090  144.1670 C   0  0  1  0  0  3  0  0  0  0  0  0
  191.2420  177.5110  144.5390 O   0  0  0  0  0  1  0  0  0  0  0  0
  190.8120  174.8200  144.7070 C   0  0  2  0  0  3  0  0  0  0  0  0
  190.8650  174.3590  146.0320 O   0  0  0  0  0  1  0  0  0  0  0  0
  189.9740  172.4320  144.5520 C   0  0  0  0  0  1  0  0  0  0  0  0
  190.2340  173.7360  143.7920 C   0  0  1  0  0  3  0  0  0  0  0  0
  188.9580  174.2360  143.1310 C   0  0  0  0  0  2  0  0  0  0  0  0
  188.6560  172.8300  141.1620 N   0  0  0  0  0  1  0  0  0  0  0  0
  189.0530  174.1510  141.6180 C   0  0  1  0  0  3  0  0  0  0  0  0
  186.0890  178.1090  142.2740 N   0  0  0  0  0  2  0  0  0  0  0  0
  188.0620  175.2190  139.7250 O   0  0  0  0  0  0  0  0  0  0  0  0
  186.6510  177.1810  141.3500 C   0  0  0  0  0  0  0  0  0  0  0  0
  187.5130  176.1330  141.8150 N   0  0  0  0  0  2  0  0  0  0  0  0
  186.3760  177.2930  140.1250 O   0  0  0  0  0  0  0  0  0  0  0  0
  188.1920  175.1880  140.9810 C   0  0  0  0  0  0  0  0  0  0  0  0
  185.6280  177.0330  145.7680 C   0  0  0  0  0  2  0  0  0  0  0  0
  186.3580  178.0560  143.7040 C   0  0  1  0  0  3  0  0  0  0  0  0
  185.5830  179.4700  144.5520 S   0  0  0  0  0  0  0  0  0  0  0  0
  185.5200  179.0160  147.2510 C   0  0  0  0  0  1  0  0  0  0  0  0
  185.0420  178.4210  145.9420 C   0  0  2  0  0  3  0  0  0  0  0  0
  185.7720  176.7900  144.2840 C   0  0  0  0  0  2  0  0  0  0  0  0
  194.2230  173.8640  144.3130 N   0  0  0  0  0  0  0  0  0  0  0  0
  196.5160  171.3950  145.9970 C   0  0  0  0  0  3  0  0  0  0  0  0
  194.4140  170.3050  145.5020 C   0  0  0  0  0  3  0  0  0  0  0  0
  196.0280  172.5810  145.4430 C   0  0  0  0  0  3  0  0  0  0  0  0
  194.7280  172.6460  144.9100 C   0  0  0  0  0  0  0  0  0  0  0  0
  195.7120  170.2490  146.0290 C   0  0  0  0  0  0  0  0  0  0  0  0
  193.9260  171.4910  144.9450 C   0  0  0  0  0  3  0  0  0  0  0  0
  196.1710  169.0410  146.5700 O   0  0  0  0  0  0  0  0  0  0  0  0
  195.5740  168.4400  147.7180 C   0  0  0  0  0  1  0  0  0  0  0  0
  194.4300  174.1810  142.8900 C   0  0  2  0  0  3  0  0  0  0  0  0
  194.0060  173.0270  141.9950 C   0  0  0  0  0  1  0  0  0  0  0  0
  195.8760  174.5660  142.6060 C   0  0  0  0  0  2  0  0  0  0  0  0
  195.3920  176.3480  141.1180 O   0  0  0  0  0  0  0  0  0  0  0  0
  197.7450  173.2780  137.8910 C   0  0  0  0  0  2  0  0  0  0  0  0
  196.7690  174.6830  140.2140 N   0  0  0  0  0  0  0  0  0  0  0  0
  197.9380  174.7860  138.0440 C   0  0  0  0  0  2  0  0  0  0  0  0
  196.8520  175.3910  138.9300 C   0  0  0  0  0  2  0  0  0  0  0  0
  197.5330  173.4560  140.4300 C   0  0  0  0  0  2  0  0  0  0  0  0
  195.9890  175.2490  141.2820 C   0  0  0  0  0  0  0  0  0  0  0  0
  197.4410  172.5510  139.2010 C   0  0  0  0  0  2  0  0  0  0  0  0
  1  2  1  0  0  0  0
  2  5  2  0  0  0  0
  3  8  1  1  0  0  0
  3  4  1  0  0  0  0
  4 27  1  6  0  0  0
  4  2  1  0  0  0  0
  6  3  1  0  0  0  0
  6  7  1  1  0  0  0
  6  1  1  0  0  0  0
  8  9  1  1  0  0  0
 11 10  1  1  0  0  0
 11  8  1  0  0  0  0
 12 11  1  0  0  0  0
 14 13  1  6  0  0  0
 14 12  1  0  0  0  0
 16 20  2  0  0  0  0
 17 18  1  0  0  0  0
 17 15  1  0  0  0  0
 19 17  2  0  0  0  0
 20 14  1  0  0  0  0
 20 18  1  0  0  0  0
 21 25  1  0  0  0  0
 22 15  1  6  0  0  0
 22 26  1  0  0  0  0
 22 23  1  0  0  0  0
 23 25  1  0  0  0  0
 25 24  1  1  0  0  0
 26 21  1  0  0  0  0
 27 31  1  0  0  0  0
 28 32  1  0  0  0  0
 29 32  2  0  0  0  0
 30 28  2  0  0  0  0
 31 33  2  0  0  0  0
 31 30  1  0  0  0  0
 32 34  1  0  0  0  0
 33 29  1  0  0  0  0
 34 35  1  0  0  0  0
 36 37  1  6  0  0  0
 36 27  1  0  0  0  0
 38 36  1  0  0  0  0
 39 45  2  0  0  0  0
 40 42  1  0  0  0  0
 40 46  1  0  0  0  0
 41 44  1  0  0  0  0
 41 45  1  0  0  0  0
 42 43  1  0  0  0  0
 43 41  1  0  0  0  0
 45 38  1  0  0  0  0
 46 44  1  0  0  0  0
M  END
>  <MODEL>
2

>  <REMARK>
 VINA RESULT:      -6.8      3.348      9.450
  Name = 
  12 active torsions:
  status: ('A' for Active; 'I' for Inactive)
    1  A    between atoms: N_4  and  C_6
    2  A    between atoms: N_4  and  C_25
    3  A    between atoms: N_4  and  C_30
    4  A    between atoms: C_6  and  C_13
    5  A    between atoms: C_7  and  C_17
    6  A    between atoms: C_7  and  C_40
    7  A    between atoms: N_10  and  C_11
    8  A    between atoms: O_12  and  C_35
    9  A    between atoms: C_13  and  C_31
   10  A    between atoms: C_32  and  C_37
   11  A    between atoms: C_32  and  C_40
   12  A    between atoms: C_37  and  C_46
                            x       y       z     vdW  Elec       q    Type
                         _______ _______ _______ _____ _____    ______ ____

>  <TORSDO>
F 12

$$$$
=
 OpenBabel11042414363D

 46 49  0  0  1  0  0  0  0  0999 V2000
  188.6020  174.4240  140.8860 N   0  0  0  0  0  2  0  0  0  0  0  0
  188.2380  174.7450  142.2110 C   0  0  0  0  0  0  0  0  0  0  0  0
  190.3650  173.7200  142.3800 C   0  0  2  0  0  3  0  0  0  0  0  0
  189.2730  174.4050  143.2130 C   0  0  1  0  0  3  0  0  0  0  0  0
  187.1170  175.2380  142.5010 O   0  0  0  0  0  0  0  0  0  0  0  0
  189.9270  173.8330  140.8930 C   0  0  1  0  0  3  0  0  0  0  0  0
  189.8900  172.5960  140.2420 O   0  0  0  0  0  1  0  0  0  0  0  0
  190.6240  172.2780  142.8520 C   0  0  2  0  0  3  0  0  0  0  0  0
  189.7240  171.9050  143.8640 O   0  0  0  0  0  1  0  0  0  0  0  0
  192.2580  170.8060  144.1150 C   0  0  0  0  0  1  0  0  0  0  0  0
  192.0670  172.1140  143.3410 C   0  0  1  0  0  3  0  0  0  0  0  0
  193.0290  172.1890  142.1640 C   0  0  0  0  0  2  0  0  0  0  0  0
  195.4000  172.2960  142.7190 N   0  0  0  0  0  1  0  0  0  0  0  0
  194.2100  173.0910  142.4770 C   0  0  1  0  0  3  0  0  0  0  0  0
  193.1480  174.3710  137.7740 N   0  0  0  0  0  2  0  0  0  0  0  0
  195.2440  175.0140  141.5080 O   0  0  0  0  0  0  0  0  0  0  0  0
  193.9230  174.6460  138.9380 C   0  0  0  0  0  0  0  0  0  0  0  0
  193.7870  173.8240  140.1060 N   0  0  0  0  0  2  0  0  0  0  0  0
  194.7290  175.6150  138.9240 O   0  0  0  0  0  0  0  0  0  0  0  0
  194.4530  174.0410  141.3540 C   0  0  0  0  0  0  0  0  0  0  0  0
  191.7630  171.1500  136.6410 C   0  0  0  0  0  2  0  0  0  0  0  0
  192.1910  173.2760  137.7070 C   0  0  1  0  0  3  0  0  0  0  0  0
  190.8110  173.7020  136.5950 S   0  0  0  0  0  0  0  0  0  0  0  0
  189.3990  171.4450  135.9590 C   0  0  0  0  0  1  0  0  0  0  0  0
  190.7940  172.0280  135.8720 C   0  0  2  0  0  3  0  0  0  0  0  0
  192.8680  172.0440  137.1540 C   0  0  0  0  0  2  0  0  0  0  0  0
  189.8180  175.5940  143.8820 N   0  0  0  0  0  0  0  0  0  0  0  0
  193.5230  175.9940  144.4320 C   0  0  0  0  0  3  0  0  0  0  0  0
  192.5930  174.7030  146.2530 C   0  0  0  0  0  3  0  0  0  0  0  0
  192.2520  176.1000  143.8620 C   0  0  0  0  0  3  0  0  0  0  0  0
  191.1340  175.5090  144.4780 C   0  0  0  0  0  0  0  0  0  0  0  0
  193.7010  175.2940  145.6310 C   0  0  0  0  0  0  0  0  0  0  0  0
  191.3210  174.8060  145.6830 C   0  0  0  0  0  3  0  0  0  0  0  0
  194.9620  175.1610  146.2270 O   0  0  0  0  0  0  0  0  0  0  0  0
  196.0710  174.5710  145.5510 C   0  0  0  0  0  1  0  0  0  0  0  0
  189.0940  176.8710  143.7630 C   0  0  2  0  0  3  0  0  0  0  0  0
  189.7670  177.8010  142.7650 C   0  0  0  0  0  1  0  0  0  0  0  0
  188.9480  177.5610  145.1130 C   0  0  0  0  0  2  0  0  0  0  0  0
  187.8710  175.9570  146.4870 O   0  0  0  0  0  0  0  0  0  0  0  0
  183.8610  178.7690  145.3080 C   0  0  0  0  0  2  0  0  0  0  0  0
  186.5060  177.7470  145.8410 N   0  0  0  0  0  0  0  0  0  0  0  0
  184.2360  178.2200  146.6850 C   0  0  0  0  0  2  0  0  0  0  0  0
  185.3610  177.1950  146.5780 C   0  0  0  0  0  2  0  0  0  0  0  0
  186.3960  179.0430  145.1730 C   0  0  0  0  0  2  0  0  0  0  0  0
  187.7570  177.0370  145.8470 C   0  0  0  0  0  0  0  0  0  0  0  0
  185.0600  179.1500  144.4390 C   0  0  0  0  0  2  0  0  0  0  0  0
  1  6  1  0  0  0  0
  1  2  1  0  0  0  0
  2  5  2  0  0  0  0
  2  4  1  0  0  0  0
  3  8  1  1  0  0  0
  3  4  1  0  0  0  0
  4 27  1  6  0  0  0
  6  7  1  1  0  0  0
  6  3  1  0  0  0  0
  8 11  1  0  0  0  0
  8  9  1  1  0  0  0
 11 10  1  6  0  0  0
 12 14  1  0  0  0  0
 12 11  1  0  0  0  0
 14 13  1  6  0  0  0
 15 17  1  0  0  0  0
 17 18  1  0  0  0  0
 18 20  1  0  0  0  0
 19 17  2  0  0  0  0
 20 16  2  0  0  0  0
 20 14  1  0  0  0  0
 21 26  1  0  0  0  0
 22 15  1  6  0  0  0
 23 22  1  0  0  0  0
 25 24  1  1  0  0  0
 25 23  1  0  0  0  0
 25 21  1  0  0  0  0
 26 22  1  0  0  0  0
 27 31  1  0  0  0  0
 28 32  1  0  0  0  0
 30 28  2  0  0  0  0
 30 31  1  0  0  0  0
 31 33  2  0  0  0  0
 32 34  1  0  0  0  0
 32 29  2  0  0  0  0
 33 29  1  0  0  0  0
 35 34  1  0  0  0  0
 36 37  1  6  0  0  0
 36 27  1  0  0  0  0
 36 38  1  0  0  0  0
 38 45  1  0  0  0  0
 40 42  1  0  0  0  0
 41 45  1  0  0  0  0
 41 43  1  0  0  0  0
 43 42  1  0  0  0  0
 44 41  1  0  0  0  0
 45 39  2  0  0  0  0
 46 44  1  0  0  0  0
 46 40  1  0  0  0  0
M  END
>  <MODEL>
3

>  <REMARK>
 VINA RESULT:      -6.8      2.384      4.648
  Name = 
  12 active torsions:
  status: ('A' for Active; 'I' for Inactive)
    1  A    between atoms: N_4  and  C_6
    2  A    between atoms: N_4  and  C_25
    3  A    between atoms: N_4  and  C_30
    4  A    between atoms: C_6  and  C_13
    5  A    between atoms: C_7  and  C_17
    6  A    between atoms: C_7  and  C_40
    7  A    between atoms: N_10  and  C_11
    8  A    between atoms: O_12  and  C_35
    9  A    between atoms: C_13  and  C_31
   10  A    between atoms: C_32  and  C_37
   11  A    between atoms: C_32  and  C_40
   12  A    between atoms: C_37  and  C_46
                            x       y       z     vdW  Elec       q    Type
                         _______ _______ _______ _____ _____    ______ ____

>  <TORSDO>
F 12

$$$$
=
 OpenBabel11042414363D

 46 49  0  0  1  0  0  0  0  0999 V2000
  189.7290  178.1180  142.8260 N   0  0  0  0  0  2  0  0  0  0  0  0
  189.5080  176.7630  142.4970 C   0  0  0  0  0  0  0  0  0  0  0  0
  191.0240  176.7240  144.3150 C   0  0  2  0  0  3  0  0  0  0  0  0
  190.2140  175.8110  143.3840 C   0  0  1  0  0  3  0  0  0  0  0  0
  188.8060  176.4140  141.5130 O   0  0  0  0  0  0  0  0  0  0  0  0
  190.6150  178.1850  143.9740 C   0  0  1  0  0  3  0  0  0  0  0  0
  191.7100  178.9990  143.6720 O   0  0  0  0  0  1  0  0  0  0  0  0
  192.5350  176.4530  144.2100 C   0  0  2  0  0  3  0  0  0  0  0  0
  192.8600  175.8620  142.9800 O   0  0  0  0  0  1  0  0  0  0  0  0
  192.1720  175.7810  146.6280 C   0  0  0  0  0  1  0  0  0  0  0  0
  193.0120  175.5660  145.3660 C   0  0  1  0  0  3  0  0  0  0  0  0
  192.9890  174.1040  144.9460 C   0  0  0  0  0  2  0  0  0  0  0  0
  194.0060  171.9130  145.2810 N   0  0  0  0  0  1  0  0  0  0  0  0
  194.1040  173.3220  145.6190 C   0  0  1  0  0  3  0  0  0  0  0  0
  197.1720  174.4700  141.8570 N   0  0  0  0  0  2  0  0  0  0  0  0
  196.2630  174.2330  146.0840 O   0  0  0  0  0  0  0  0  0  0  0  0
  196.9950  174.3900  143.2690 C   0  0  0  0  0  0  0  0  0  0  0  0
  195.7580  173.9110  143.8150 N   0  0  0  0  0  2  0  0  0  0  0  0
  197.9390  174.7410  144.0260 O   0  0  0  0  0  0  0  0  0  0  0  0
  195.4350  173.8520  145.2080 C   0  0  0  0  0  0  0  0  0  0  0  0
  195.7490  173.4950  138.6010 C   0  0  0  0  0  2  0  0  0  0  0  0
  196.1320  174.0900  140.9120 C   0  0  1  0  0  3  0  0  0  0  0  0
  195.2560  175.5660  140.3000 S   0  0  0  0  0  0  0  0  0  0  0  0
  193.7940  174.9250  138.0760 C   0  0  0  0  0  1  0  0  0  0  0  0
  195.2160  174.9150  138.5970 C   0  0  2  0  0  3  0  0  0  0  0  0
  196.7550  173.3960  139.7230 C   0  0  0  0  0  2  0  0  0  0  0  0
  189.2880  174.9830  144.1680 N   0  0  0  0  0  0  0  0  0  0  0  0
  186.3100  176.9370  145.3910 C   0  0  0  0  0  3  0  0  0  0  0  0
  187.6780  176.3210  147.2870 C   0  0  0  0  0  3  0  0  0  0  0  0
  187.2030  176.2840  144.5380 C   0  0  0  0  0  3  0  0  0  0  0  0
  188.3460  175.6410  145.0470 C   0  0  0  0  0  0  0  0  0  0  0  0
  186.5430  176.9610  146.7710 C   0  0  0  0  0  0  0  0  0  0  0  0
  188.5740  175.6690  146.4350 C   0  0  0  0  0  3  0  0  0  0  0  0
  185.6730  177.6120  147.6550 O   0  0  0  0  0  0  0  0  0  0  0  0
  184.6630  178.5160  147.2100 C   0  0  0  0  0  1  0  0  0  0  0  0
  189.2260  173.5370  143.8960 C   0  0  2  0  0  3  0  0  0  0  0  0
  189.8310  172.7300  145.0350 C   0  0  0  0  0  1  0  0  0  0  0  0
  189.9060  173.1830  142.5800 C   0  0  0  0  0  2  0  0  0  0  0  0
  187.6930  172.7570  141.8420 O   0  0  0  0  0  0  0  0  0  0  0  0
  190.0630  172.3610  137.4140 C   0  0  0  0  0  2  0  0  0  0  0  0
  189.2600  172.9800  140.1160 N   0  0  0  0  0  0  0  0  0  0  0  0
  188.7550  173.0970  137.7030 C   0  0  0  0  0  2  0  0  0  0  0  0
  188.2290  172.7540  139.0940 C   0  0  0  0  0  2  0  0  0  0  0  0
  190.6300  173.3000  139.7210 C   0  0  0  0  0  2  0  0  0  0  0  0
  188.8910  172.9580  141.5060 C   0  0  0  0  0  0  0  0  0  0  0  0
  191.0720  172.4060  138.5630 C   0  0  0  0  0  2  0  0  0  0  0  0
  1  6  1  0  0  0  0
  2  1  1  0  0  0  0
  2  4  1  0  0  0  0
  3  8  1  6  0  0  0
  4 27  1  1  0  0  0
  4  3  1  0  0  0  0
  5  2  2  0  0  0  0
  6  7  1  6  0  0  0
  6  3  1  0  0  0  0
  8  9  1  6  0  0  0
  8 11  1  0  0  0  0
 11 10  1  1  0  0  0
 12 11  1  0  0  0  0
 12 14  1  0  0  0  0
 14 13  1  6  0  0  0
 15 17  1  0  0  0  0
 17 18  1  0  0  0  0
 17 19  2  0  0  0  0
 18 20  1  0  0  0  0
 20 14  1  0  0  0  0
 20 16  2  0  0  0  0
 21 26  1  0  0  0  0
 22 15  1  1  0  0  0
 23 22  1  0  0  0  0
 25 24  1  1  0  0  0
 25 21  1  0  0  0  0
 25 23  1  0  0  0  0
 26 22  1  0  0  0  0
 27 31  1  0  0  0  0
 28 32  1  0  0  0  0
 30 31  1  0  0  0  0
 30 28  2  0  0  0  0
 31 33  2  0  0  0  0
 32 29  2  0  0  0  0
 32 34  1  0  0  0  0
 33 29  1  0  0  0  0
 35 34  1  0  0  0  0
 36 27  1  0  0  0  0
 36 37  1  1  0  0  0
 38 36  1  0  0  0  0
 40 42  1  0  0  0  0
 40 46  1  0  0  0  0
 41 45  1  0  0  0  0
 42 43  1  0  0  0  0
 43 41  1  0  0  0  0
 44 41  1  0  0  0  0
 45 39  2  0  0  0  0
 45 38  1  0  0  0  0
 46 44  1  0  0  0  0
M  END
>  <MODEL>
4

>  <REMARK>
 VINA RESULT:      -6.7      2.242      6.093
  Name = 
  12 active torsions:
  status: ('A' for Active; 'I' for Inactive)
    1  A    between atoms: N_4  and  C_6
    2  A    between atoms: N_4  and  C_25
    3  A    between atoms: N_4  and  C_30
    4  A    between atoms: C_6  and  C_13
    5  A    between atoms: C_7  and  C_17
    6  A    between atoms: C_7  and  C_40
    7  A    between atoms: N_10  and  C_11
    8  A    between atoms: O_12  and  C_35
    9  A    between atoms: C_13  and  C_31
   10  A    between atoms: C_32  and  C_37
   11  A    between atoms: C_32  and  C_40
   12  A    between atoms: C_37  and  C_46
                            x       y       z     vdW  Elec       q    Type
                         _______ _______ _______ _____ _____    ______ ____

>  <TORSDO>
F 12

$$$$
=
 OpenBabel11042414363D

 46 49  0  0  1  0  0  0  0  0999 V2000
  192.9870  175.1350  146.4900 N   0  0  0  0  0  2  0  0  0  0  0  0
  193.0410  174.0140  145.6330 C   0  0  0  0  0  0  0  0  0  0  0  0
  191.4930  175.4950  144.6250 C   0  0  2  0  0  3  0  0  0  0  0  0
  192.2000  174.1480  144.4220 C   0  0  1  0  0  3  0  0  0  0  0  0
  193.7140  172.9870  145.9090 O   0  0  0  0  0  0  0  0  0  0  0  0
  192.0930  176.1230  145.9150 C   0  0  1  0  0  3  0  0  0  0  0  0
  191.1170  176.4710  146.8530 O   0  0  0  0  0  1  0  0  0  0  0  0
  189.9620  175.3390  144.6540 C   0  0  2  0  0  3  0  0  0  0  0  0
  189.5810  174.0190  144.3680 O   0  0  0  0  0  1  0  0  0  0  0  0
  190.3250  176.9850  142.7590 C   0  0  0  0  0  1  0  0  0  0  0  0
  189.2960  176.3080  143.6700 C   0  0  1  0  0  3  0  0  0  0  0  0
  188.2480  175.5760  142.8450 C   0  0  0  0  0  2  0  0  0  0  0  0
  188.2140  174.9210  140.4970 N   0  0  0  0  0  1  0  0  0  0  0  0
  188.2500  176.0550  141.4040 C   0  0  1  0  0  3  0  0  0  0  0  0
  184.3440  178.4910  143.3260 N   0  0  0  0  0  2  0  0  0  0  0  0
  186.8520  177.3680  139.9800 O   0  0  0  0  0  0  0  0  0  0  0  0
  185.0730  178.1450  142.1510 C   0  0  0  0  0  0  0  0  0  0  0  0
  186.2300  177.3030  142.2420 N   0  0  0  0  0  2  0  0  0  0  0  0
  184.6830  178.5860  141.0370 O   0  0  0  0  0  0  0  0  0  0  0  0
  187.0820  176.9470  141.1490 C   0  0  0  0  0  0  0  0  0  0  0  0
  184.4870  178.5150  147.0080 C   0  0  0  0  0  2  0  0  0  0  0  0
  184.7270  178.0300  144.6530 C   0  0  1  0  0  3  0  0  0  0  0  0
  186.4010  178.6160  145.0720 S   0  0  0  0  0  0  0  0  0  0  0  0
  186.8410  178.3270  147.7590 C   0  0  0  0  0  1  0  0  0  0  0  0
  185.9040  179.0070  146.7830 C   0  0  2  0  0  3  0  0  0  0  0  0
  183.7700  178.5880  145.6800 C   0  0  0  0  0  2  0  0  0  0  0  0
  192.9950  174.1750  143.1880 N   0  0  0  0  0  0  0  0  0  0  0  0
  191.3250  173.2920  139.9290 C   0  0  0  0  0  3  0  0  0  0  0  0
  192.3100  171.2960  140.8740 C   0  0  0  0  0  3  0  0  0  0  0  0
  191.7940  174.0340  141.0160 C   0  0  0  0  0  3  0  0  0  0  0  0
  192.5260  173.4180  142.0470 C   0  0  0  0  0  0  0  0  0  0  0  0
  191.5790  171.9180  139.8520 C   0  0  0  0  0  0  0  0  0  0  0  0
  192.7780  172.0360  141.9630 C   0  0  0  0  0  3  0  0  0  0  0  0
  191.1190  171.1410  138.7800 O   0  0  0  0  0  0  0  0  0  0  0  0
  190.3540  169.9520  138.9690 C   0  0  0  0  0  1  0  0  0  0  0  0
  194.1300  175.1080  143.0940 C   0  0  2  0  0  3  0  0  0  0  0  0
  193.8340  176.2500  142.1340 C   0  0  0  0  0  1  0  0  0  0  0  0
  195.4120  174.3940  142.6850 C   0  0  0  0  0  2  0  0  0  0  0  0
  196.5400  174.8600  144.7180 O   0  0  0  0  0  0  0  0  0  0  0  0
  197.7770  169.9990  144.2560 C   0  0  0  0  0  2  0  0  0  0  0  0
  196.5290  172.5960  144.1170 N   0  0  0  0  0  0  0  0  0  0  0  0
  197.3040  170.7190  145.5190 C   0  0  0  0  0  2  0  0  0  0  0  0
  197.2960  172.2320  145.3160 C   0  0  0  0  0  2  0  0  0  0  0  0
  196.0500  171.5590  143.2060 C   0  0  0  0  0  2  0  0  0  0  0  0
  196.1900  173.9760  143.8900 C   0  0  0  0  0  0  0  0  0  0  0  0
  197.1430  170.5170  142.9660 C   0  0  0  0  0  2  0  0  0  0  0  0
  2  5  2  0  0  0  0
  2  1  1  0  0  0  0
  3  8  1  1  0  0  0
  3  6  1  0  0  0  0
  4 27  1  6  0  0  0
  4  3  1  0  0  0  0
  4  2  1  0  0  0  0
  6  1  1  0  0  0  0
  6  7  1  1  0  0  0
  8  9  1  6  0  0  0
 11 10  1  6  0  0  0
 11  8  1  0  0  0  0
 12 11  1  0  0  0  0
 14 13  1  6  0  0  0
 14 12  1  0  0  0  0
 16 20  2  0  0  0  0
 17 18  1  0  0  0  0
 17 15  1  0  0  0  0
 19 17  2  0  0  0  0
 20 14  1  0  0  0  0
 20 18  1  0  0  0  0
 22 15  1  6  0  0  0
 22 23  1  0  0  0  0
 22 26  1  0  0  0  0
 23 25  1  0  0  0  0
 25 21  1  0  0  0  0
 25 24  1  1  0  0  0
 26 21  1  0  0  0  0
 28 30  1  0  0  0  0
 29 33  2  0  0  0  0
 30 31  2  0  0  0  0
 31 27  1  0  0  0  0
 32 28  2  0  0  0  0
 32 29  1  0  0  0  0
 33 31  1  0  0  0  0
 34 35  1  0  0  0  0
 34 32  1  0  0  0  0
 36 37  1  6  0  0  0
 36 27  1  0  0  0  0
 38 36  1  0  0  0  0
 38 45  1  0  0  0  0
 40 42  1  0  0  0  0
 41 43  1  0  0  0  0
 43 42  1  0  0  0  0
 44 41  1  0  0  0  0
 45 41  1  0  0  0  0
 45 39  2  0  0  0  0
 46 44  1  0  0  0  0
 46 40  1  0  0  0  0
M  END
>  <MODEL>
5

>  <REMARK>
 VINA RESULT:      -6.7      3.483      9.000
  Name = 
  12 active torsions:
  status: ('A' for Active; 'I' for Inactive)
    1  A    between atoms: N_4  and  C_6
    2  A    between atoms: N_4  and  C_25
    3  A    between atoms: N_4  and  C_30
    4  A    between atoms: C_6  and  C_13
    5  A    between atoms: C_7  and  C_17
    6  A    between atoms: C_7  and  C_40
    7  A    between atoms: N_10  and  C_11
    8  A    between atoms: O_12  and  C_35
    9  A    between atoms: C_13  and  C_31
   10  A    between atoms: C_32  and  C_37
   11  A    between atoms: C_32  and  C_40
   12  A    between atoms: C_37  and  C_46
                            x       y       z     vdW  Elec       q    Type
                         _______ _______ _______ _____ _____    ______ ____

>  <TORSDO>
F 12

$$$$
=
 OpenBabel11042414363D

 46 49  0  0  1  0  0  0  0  0999 V2000
  187.6370  175.3270  140.7170 N   0  0  0  0  0  2  0  0  0  0  0  0
  187.5780  175.4060  142.1250 C   0  0  0  0  0  0  0  0  0  0  0  0
  189.4340  174.0130  141.6570 C   0  0  2  0  0  3  0  0  0  0  0  0
  188.6690  174.6780  142.8100 C   0  0  1  0  0  3  0  0  0  0  0  0
  186.6520  176.0090  142.7280 O   0  0  0  0  0  0  0  0  0  0  0  0
  188.7880  174.5270  140.3390 C   0  0  1  0  0  3  0  0  0  0  0  0
  188.3790  173.4910  139.4950 O   0  0  0  0  0  1  0  0  0  0  0  0
  189.4550  172.4810  141.7920 C   0  0  2  0  0  3  0  0  0  0  0  0
  188.7400  172.0610  142.9240 O   0  0  0  0  0  1  0  0  0  0  0  0
  190.9380  170.4480  142.1060 C   0  0  0  0  0  1  0  0  0  0  0  0
  190.8940  171.9570  141.8500 C   0  0  1  0  0  3  0  0  0  0  0  0
  191.6300  172.3060  140.5650 C   0  0  0  0  0  2  0  0  0  0  0  0
  190.8280  171.0550  138.6320 N   0  0  0  0  0  1  0  0  0  0  0  0
  191.8210  171.0790  139.6910 C   0  0  1  0  0  3  0  0  0  0  0  0
  196.3440  173.1800  139.5690 N   0  0  0  0  0  2  0  0  0  0  0  0
  193.5060  170.1880  138.2510 O   0  0  0  0  0  0  0  0  0  0  0  0
  195.4770  172.1840  139.0310 C   0  0  0  0  0  0  0  0  0  0  0  0
  194.1300  172.0670  139.5100 N   0  0  0  0  0  2  0  0  0  0  0  0
  195.9100  171.4170  138.1310 O   0  0  0  0  0  0  0  0  0  0  0  0
  193.1920  171.0660  139.1020 C   0  0  0  0  0  0  0  0  0  0  0  0
  195.4270  176.4270  141.0490 C   0  0  0  0  0  2  0  0  0  0  0  0
  195.9280  174.1030  140.6150 C   0  0  1  0  0  3  0  0  0  0  0  0
  197.3540  174.5930  141.6370 S   0  0  0  0  0  0  0  0  0  0  0  0
  196.7110  176.7910  143.1380 C   0  0  0  0  0  1  0  0  0  0  0  0
  196.7950  176.3280  141.6980 C   0  0  2  0  0  3  0  0  0  0  0  0
  195.3550  175.3530  139.9890 C   0  0  0  0  0  2  0  0  0  0  0  0
  189.5600  175.5750  143.5570 N   0  0  0  0  0  0  0  0  0  0  0  0
  192.2980  173.8040  145.4430 C   0  0  0  0  0  3  0  0  0  0  0  0
  193.2750  175.0170  143.5930 C   0  0  0  0  0  3  0  0  0  0  0  0
  191.0300  174.2510  145.0620 C   0  0  0  0  0  3  0  0  0  0  0  0
  190.8670  175.0880  143.9440 C   0  0  0  0  0  0  0  0  0  0  0  0
  193.4280  174.1850  144.7100 C   0  0  0  0  0  0  0  0  0  0  0  0
  192.0070  175.4680  143.2130 C   0  0  0  0  0  3  0  0  0  0  0  0
  194.7160  173.7620  145.0660 O   0  0  0  0  0  0  0  0  0  0  0  0
  195.6220  174.5910  145.7920 C   0  0  0  0  0  1  0  0  0  0  0  0
  189.1700  176.9850  143.7240 C   0  0  2  0  0  3  0  0  0  0  0  0
  190.0600  177.9090  142.9080 C   0  0  0  0  0  1  0  0  0  0  0  0
  189.1810  177.4010  145.1900 C   0  0  0  0  0  2  0  0  0  0  0  0
  188.0550  175.8010  146.5290 O   0  0  0  0  0  0  0  0  0  0  0  0
  184.1050  178.6670  145.2790 C   0  0  0  0  0  2  0  0  0  0  0  0
  186.7250  177.6110  145.8640 N   0  0  0  0  0  0  0  0  0  0  0  0
  184.4430  178.1050  146.6600 C   0  0  0  0  0  2  0  0  0  0  0  0
  185.5580  177.0670  146.5710 C   0  0  0  0  0  2  0  0  0  0  0  0
  186.6460  178.9120  145.2030 C   0  0  0  0  0  2  0  0  0  0  0  0
  187.9680  176.8860  145.8930 C   0  0  0  0  0  0  0  0  0  0  0  0
  185.3280  179.0400  144.4400 C   0  0  0  0  0  2  0  0  0  0  0  0
  1  2  1  0  0  0  0
  2  5  2  0  0  0  0
  2  4  1  0  0  0  0
  3  8  1  1  0  0  0
  3  4  1  0  0  0  0
  4 27  1  6  0  0  0
  6  7  1  6  0  0  0
  6  1  1  0  0  0  0
  6  3  1  0  0  0  0
  8 11  1  0  0  0  0
  8  9  1  1  0  0  0
 11 10  1  6  0  0  0
 12 11  1  0  0  0  0
 14 13  1  6  0  0  0
 14 12  1  0  0  0  0
 16 20  2  0  0  0  0
 17 18  1  0  0  0  0
 17 15  1  0  0  0  0
 19 17  2  0  0  0  0
 20 18  1  0  0  0  0
 20 14  1  0  0  0  0
 21 25  1  0  0  0  0
 22 15  1  6  0  0  0
 22 23  1  0  0  0  0
 23 25  1  0  0  0  0
 25 24  1  1  0  0  0
 26 22  1  0  0  0  0
 26 21  1  0  0  0  0
 27 36  1  0  0  0  0
 27 31  1  0  0  0  0
 29 32  1  0  0  0  0
 30 28  1  0  0  0  0
 31 30  2  0  0  0  0
 32 34  1  0  0  0  0
 32 28  2  0  0  0  0
 33 29  2  0  0  0  0
 33 31  1  0  0  0  0
 34 35  1  0  0  0  0
 36 37  1  6  0  0  0
 36 38  1  0  0  0  0
 38 45  1  0  0  0  0
 40 42  1  0  0  0  0
 41 45  1  0  0  0  0
 41 43  1  0  0  0  0
 43 42  1  0  0  0  0
 44 41  1  0  0  0  0
 45 39  2  0  0  0  0
 46 44  1  0  0  0  0
 46 40  1  0  0  0  0
M  END
>  <MODEL>
6

>  <REMARK>
 VINA RESULT:      -6.6      2.336      5.073
  Name = 
  12 active torsions:
  status: ('A' for Active; 'I' for Inactive)
    1  A    between atoms: N_4  and  C_6
    2  A    between atoms: N_4  and  C_25
    3  A    between atoms: N_4  and  C_30
    4  A    between atoms: C_6  and  C_13
    5  A    between atoms: C_7  and  C_17
    6  A    between atoms: C_7  and  C_40
    7  A    between atoms: N_10  and  C_11
    8  A    between atoms: O_12  and  C_35
    9  A    between atoms: C_13  and  C_31
   10  A    between atoms: C_32  and  C_37
   11  A    between atoms: C_32  and  C_40
   12  A    between atoms: C_37  and  C_46
                            x       y       z     vdW  Elec       q    Type
                         _______ _______ _______ _____ _____    ______ ____

>  <TORSDO>
F 12

$$$$
=
 OpenBabel11042414363D

 46 49  0  0  1  0  0  0  0  0999 V2000
  194.1350  171.7670  141.2710 N   0  0  0  0  0  2  0  0  0  0  0  0
  194.7480  172.8980  141.8510 C   0  0  0  0  0  0  0  0  0  0  0  0
  192.4680  173.0340  142.4760 C   0  0  2  0  0  3  0  0  0  0  0  0
  193.8270  173.7250  142.6630 C   0  0  1  0  0  3  0  0  0  0  0  0
  195.9570  173.1850  141.6530 O   0  0  0  0  0  0  0  0  0  0  0  0
  192.7340  171.7440  141.6510 C   0  0  1  0  0  3  0  0  0  0  0  0
  191.9410  171.6610  140.5030 O   0  0  0  0  0  1  0  0  0  0  0  0
  191.4270  173.9790  141.8500 C   0  0  2  0  0  3  0  0  0  0  0  0
  192.0310  174.8800  140.9590 O   0  0  0  0  0  1  0  0  0  0  0  0
  190.8140  176.2570  142.7790 C   0  0  0  0  0  1  0  0  0  0  0  0
  190.6590  174.7420  142.9350 C   0  0  1  0  0  3  0  0  0  0  0  0
  189.1910  174.3450  142.9130 C   0  0  0  0  0  2  0  0  0  0  0  0
  187.8970  172.8850  141.4510 N   0  0  0  0  0  1  0  0  0  0  0  0
  188.7150  174.0840  141.4940 C   0  0  1  0  0  3  0  0  0  0  0  0
  186.0390  178.1450  142.6040 N   0  0  0  0  0  2  0  0  0  0  0  0
  187.8200  175.4330  139.7370 O   0  0  0  0  0  0  0  0  0  0  0  0
  186.5410  177.2920  141.5790 C   0  0  0  0  0  0  0  0  0  0  0  0
  187.3200  176.1370  141.9190 N   0  0  0  0  0  2  0  0  0  0  0  0
  186.2850  177.5640  140.3750 O   0  0  0  0  0  0  0  0  0  0  0  0
  187.9360  175.2480  140.9820 C   0  0  0  0  0  0  0  0  0  0  0  0
  185.3160  176.9700  146.0210 C   0  0  0  0  0  2  0  0  0  0  0  0
  186.2910  177.9080  144.0180 C   0  0  1  0  0  3  0  0  0  0  0  0
  185.9470  179.4110  144.9890 S   0  0  0  0  0  0  0  0  0  0  0  0
  185.7760  178.7820  147.6480 C   0  0  0  0  0  1  0  0  0  0  0  0
  185.1430  178.4480  146.3130 C   0  0  2  0  0  3  0  0  0  0  0  0
  185.3780  176.8130  144.5190 C   0  0  0  0  0  2  0  0  0  0  0  0
  194.1940  173.7420  144.0850 N   0  0  0  0  0  0  0  0  0  0  0  0
  196.6820  171.2450  145.4110 C   0  0  0  0  0  3  0  0  0  0  0  0
  194.4610  170.3020  145.5690 C   0  0  0  0  0  3  0  0  0  0  0  0
  196.1440  172.4140  144.8690 C   0  0  0  0  0  3  0  0  0  0  0  0
  194.7570  172.5430  144.6680 C   0  0  0  0  0  0  0  0  0  0  0  0
  195.8440  170.1810  145.7640 C   0  0  0  0  0  0  0  0  0  0  0  0
  193.9210  171.4700  145.0240 C   0  0  0  0  0  3  0  0  0  0  0  0
  196.3500  168.9910  146.3040 O   0  0  0  0  0  0  0  0  0  0  0  0
  196.7970  168.8910  147.6540 C   0  0  0  0  0  1  0  0  0  0  0  0
  194.1500  175.0210  144.8140 C   0  0  2  0  0  3  0  0  0  0  0  0
  195.5070  175.7080  144.8160 C   0  0  0  0  0  1  0  0  0  0  0  0
  193.6500  174.8360  146.2410 C   0  0  0  0  0  2  0  0  0  0  0  0
  193.3190  177.0370  147.0580 O   0  0  0  0  0  0  0  0  0  0  0  0
  188.5200  175.5060  147.0250 C   0  0  0  0  0  2  0  0  0  0  0  0
  191.3420  175.8850  146.5580 N   0  0  0  0  0  0  0  0  0  0  0  0
  189.0690  176.8460  146.5360 C   0  0  0  0  0  2  0  0  0  0  0  0
  190.5210  177.0330  146.9670 C   0  0  0  0  0  2  0  0  0  0  0  0
  190.7120  174.6920  145.9980 C   0  0  0  0  0  2  0  0  0  0  0  0
  192.7750  175.9770  146.6450 C   0  0  0  0  0  0  0  0  0  0  0  0
  189.4640  174.3240  146.8000 C   0  0  0  0  0  2  0  0  0  0  0  0
  1  6  1  0  0  0  0
  1  2  1  0  0  0  0
  2  4  1  0  0  0  0
  3  8  1  6  0  0  0
  3  4  1  0  0  0  0
  4 27  1  1  0  0  0
  5  2  2  0  0  0  0
  6  7  1  6  0  0  0
  6  3  1  0  0  0  0
  8  9  1  6  0  0  0
  8 11  1  0  0  0  0
 11 10  1  6  0  0  0
 12 11  1  0  0  0  0
 14 13  1  1  0  0  0
 14 12  1  0  0  0  0
 16 20  2  0  0  0  0
 17 18  1  0  0  0  0
 17 15  1  0  0  0  0
 19 17  2  0  0  0  0
 20 14  1  0  0  0  0
 20 18  1  0  0  0  0
 21 25  1  0  0  0  0
 22 15  1  6  0  0  0
 22 26  1  0  0  0  0
 22 23  1  0  0  0  0
 23 25  1  0  0  0  0
 25 24  1  1  0  0  0
 26 21  1  0  0  0  0
 27 31  1  0  0  0  0
 27 36  1  0  0  0  0
 28 32  1  0  0  0  0
 29 32  2  0  0  0  0
 30 28  2  0  0  0  0
 31 30  1  0  0  0  0
 31 33  2  0  0  0  0
 32 34  1  0  0  0  0
 33 29  1  0  0  0  0
 34 35  1  0  0  0  0
 36 37  1  1  0  0  0
 36 38  1  0  0  0  0
 38 45  1  0  0  0  0
 41 45  1  0  0  0  0
 41 43  1  0  0  0  0
 42 43  1  0  0  0  0
 42 40  1  0  0  0  0
 44 41  1  0  0  0  0
 44 46  1  0  0  0  0
 45 39  2  0  0  0  0
 46 40  1  0  0  0  0
M  END
>  <MODEL>
7

>  <REMARK>
 VINA RESULT:      -6.6      3.672      8.122
  Name = 
  12 active torsions:
  status: ('A' for Active; 'I' for Inactive)
    1  A    between atoms: N_4  and  C_6
    2  A    between atoms: N_4  and  C_25
    3  A    between atoms: N_4  and  C_30
    4  A    between atoms: C_6  and  C_13
    5  A    between atoms: C_7  and  C_17
    6  A    between atoms: C_7  and  C_40
    7  A    between atoms: N_10  and  C_11
    8  A    between atoms: O_12  and  C_35
    9  A    between atoms: C_13  and  C_31
   10  A    between atoms: C_32  and  C_37
   11  A    between atoms: C_32  and  C_40
   12  A    between atoms: C_37  and  C_46
                            x       y       z     vdW  Elec       q    Type
                         _______ _______ _______ _____ _____    ______ ____

>  <TORSDO>
F 12

$$$$
=
 OpenBabel11042414363D

 46 49  0  0  1  0  0  0  0  0999 V2000
  189.7310  177.9140  144.6720 N   0  0  0  0  0  2  0  0  0  0  0  0
  190.1220  176.9570  143.7110 C   0  0  0  0  0  0  0  0  0  0  0  0
  188.9610  175.7340  145.3730 C   0  0  2  0  0  3  0  0  0  0  0  0
  189.6550  175.5850  144.0120 C   0  0  1  0  0  3  0  0  0  0  0  0
  190.8360  177.2520  142.7170 O   0  0  0  0  0  0  0  0  0  0  0  0
  188.9620  177.2520  145.7090 C   0  0  1  0  0  3  0  0  0  0  0  0
  189.5260  177.5310  146.9580 O   0  0  0  0  0  1  0  0  0  0  0  0
  189.6160  174.8500  146.4490 C   0  0  2  0  0  3  0  0  0  0  0  0
  188.7780  174.7050  147.5660 O   0  0  0  0  0  1  0  0  0  0  0  0
  191.1910  175.2940  148.3860 C   0  0  0  0  0  1  0  0  0  0  0  0
  190.9720  175.4230  146.8760 C   0  0  1  0  0  3  0  0  0  0  0  0
  192.0930  174.7390  146.1080 C   0  0  0  0  0  2  0  0  0  0  0  0
  193.9250  176.2960  146.5140 N   0  0  0  0  0  1  0  0  0  0  0  0
  193.0400  175.7560  145.4960 C   0  0  1  0  0  3  0  0  0  0  0  0
  195.9440  171.9530  144.0860 N   0  0  0  0  0  2  0  0  0  0  0  0
  193.9050  175.6840  143.2700 O   0  0  0  0  0  0  0  0  0  0  0  0
  195.3550  173.2000  143.7260 C   0  0  0  0  0  0  0  0  0  0  0  0
  194.5430  173.9120  144.6700 N   0  0  0  0  0  2  0  0  0  0  0  0
  195.5620  173.6660  142.5740 O   0  0  0  0  0  0  0  0  0  0  0  0
  193.8430  175.1320  144.4050 C   0  0  0  0  0  0  0  0  0  0  0  0
  196.6460  169.6640  146.8870 C   0  0  0  0  0  2  0  0  0  0  0  0
  195.7530  171.3410  145.3920 C   0  0  1  0  0  3  0  0  0  0  0  0
  194.4570  170.0620  145.3150 S   0  0  0  0  0  0  0  0  0  0  0  0
  194.5680  168.4880  147.5530 C   0  0  0  0  0  1  0  0  0  0  0  0
  195.4170  168.9340  146.3800 C   0  0  2  0  0  3  0  0  0  0  0  0
  197.0360  170.6740  145.8330 C   0  0  0  0  0  2  0  0  0  0  0  0
  188.7040  175.0840  143.0110 N   0  0  0  0  0  0  0  0  0  0  0  0
  186.8650  177.5120  140.7960 C   0  0  0  0  0  3  0  0  0  0  0  0
  185.5690  177.1430  142.8040 C   0  0  0  0  0  3  0  0  0  0  0  0
  187.8370  176.6250  141.2640 C   0  0  0  0  0  3  0  0  0  0  0  0
  187.6900  175.9850  142.5080 C   0  0  0  0  0  0  0  0  0  0  0  0
  185.7250  177.7770  141.5640 C   0  0  0  0  0  0  0  0  0  0  0  0
  186.5420  176.2570  143.2750 C   0  0  0  0  0  3  0  0  0  0  0  0
  184.7330  178.6660  141.1290 O   0  0  0  0  0  0  0  0  0  0  0  0
  183.4120  178.2380  140.7990 C   0  0  0  0  0  1  0  0  0  0  0  0
  188.9280  173.7520  142.4230 C   0  0  2  0  0  3  0  0  0  0  0  0
  189.3320  172.7370  143.4820 C   0  0  0  0  0  1  0  0  0  0  0  0
  189.9680  173.7970  141.3120 C   0  0  0  0  0  2  0  0  0  0  0  0
  188.5370  173.7650  139.4220 O   0  0  0  0  0  0  0  0  0  0  0  0
  190.4500  169.1220  139.0100 C   0  0  0  0  0  2  0  0  0  0  0  0
  189.9460  171.9020  139.5980 N   0  0  0  0  0  0  0  0  0  0  0  0
  190.2480  170.1450  137.8910 C   0  0  0  0  0  2  0  0  0  0  0  0
  189.3950  171.3170  138.3680 C   0  0  0  0  0  2  0  0  0  0  0  0
  191.0510  171.2470  140.2940 C   0  0  0  0  0  2  0  0  0  0  0  0
  189.4380  173.1630  140.0670 C   0  0  0  0  0  0  0  0  0  0  0  0
  190.8160  169.7380  140.3610 C   0  0  0  0  0  2  0  0  0  0  0  0
  1  6  1  0  0  0  0
  2  4  1  0  0  0  0
  2  1  1  0  0  0  0
  3  6  1  0  0  0  0
  3  8  1  1  0  0  0
  4 27  1  6  0  0  0
  4  3  1  0  0  0  0
  5  2  2  0  0  0  0
  6  7  1  1  0  0  0
  8 11  1  0  0  0  0
  8  9  1  1  0  0  0
 11 10  1  1  0  0  0
 12 11  1  0  0  0  0
 14 12  1  0  0  0  0
 14 13  1  1  0  0  0
 16 20  2  0  0  0  0
 17 15  1  0  0  0  0
 17 18  1  0  0  0  0
 19 17  2  0  0  0  0
 20 18  1  0  0  0  0
 20 14  1  0  0  0  0
 22 15  1  6  0  0  0
 22 26  1  0  0  0  0
 23 22  1  0  0  0  0
 23 25  1  0  0  0  0
 25 21  1  0  0  0  0
 25 24  1  1  0  0  0
 26 21  1  0  0  0  0
 28 30  2  0  0  0  0
 28 32  1  0  0  0  0
 29 33  1  0  0  0  0
 30 31  1  0  0  0  0
 31 27  1  0  0  0  0
 31 33  2  0  0  0  0
 32 29  2  0  0  0  0
 34 32  1  0  0  0  0
 35 34  1  0  0  0  0
 36 27  1  0  0  0  0
 36 37  1  1  0  0  0
 38 36  1  0  0  0  0
 39 45  2  0  0  0  0
 40 46  1  0  0  0  0
 41 45  1  0  0  0  0
 41 44  1  0  0  0  0
 42 43  1  0  0  0  0
 42 40  1  0  0  0  0
 43 41  1  0  0  0  0
 44 46  1  0  0  0  0
 45 38  1  0  0  0  0
M  END
>  <MODEL>
8

>  <REMARK>
 VINA RESULT:      -6.5      3.721      7.194
  Name = 
  12 active torsions:
  status: ('A' for Active; 'I' for Inactive)
    1  A    between atoms: N_4  and  C_6
    2  A    between atoms: N_4  and  C_25
    3  A    between atoms: N_4  and  C_30
    4  A    between atoms: C_6  and  C_13
    5  A    between atoms: C_7  and  C_17
    6  A    between atoms: C_7  and  C_40
    7  A    between atoms: N_10  and  C_11
    8  A    between atoms: O_12  and  C_35
    9  A    between atoms: C_13  and  C_31
   10  A    between atoms: C_32  and  C_37
   11  A    between atoms: C_32  and  C_40
   12  A    between atoms: C_37  and  C_46
                            x       y       z     vdW  Elec       q    Type
                         _______ _______ _______ _____ _____    ______ ____

>  <TORSDO>
F 12

$$$$
=
 OpenBabel11042414363D

 46 49  0  0  1  0  0  0  0  0999 V2000
  193.3110  175.1560  145.5470 N   0  0  0  0  0  2  0  0  0  0  0  0
  192.6360  176.1850  144.8560 C   0  0  0  0  0  0  0  0  0  0  0  0
  191.7030  174.1690  144.0370 C   0  0  2  0  0  3  0  0  0  0  0  0
  191.5840  175.6960  143.9360 C   0  0  1  0  0  3  0  0  0  0  0  0
  192.9410  177.3980  144.9900 O   0  0  0  0  0  0  0  0  0  0  0  0
  192.7600  173.8760  145.1390 C   0  0  1  0  0  3  0  0  0  0  0  0
  193.7910  173.0430  144.6960 O   0  0  0  0  0  1  0  0  0  0  0  0
  192.0220  173.5280  142.6740 C   0  0  2  0  0  3  0  0  0  0  0  0
  192.3440  174.5040  141.7170 O   0  0  0  0  0  1  0  0  0  0  0  0
  189.8610  172.3660  143.3150 C   0  0  0  0  0  1  0  0  0  0  0  0
  190.8470  172.6740  142.1840 C   0  0  1  0  0  3  0  0  0  0  0  0
  190.1410  173.3700  141.0300 C   0  0  0  0  0  2  0  0  0  0  0  0
  188.1130  172.8300  139.7890 N   0  0  0  0  0  1  0  0  0  0  0  0
  189.4470  172.3650  140.1260 C   0  0  1  0  0  3  0  0  0  0  0  0
  193.7320  173.1610  137.7000 N   0  0  0  0  0  2  0  0  0  0  0  0
  189.7520  171.4730  137.9310 O   0  0  0  0  0  0  0  0  0  0  0  0
  192.4210  172.6050  137.6520 C   0  0  0  0  0  0  0  0  0  0  0  0
  191.5460  172.7240  138.7830 N   0  0  0  0  0  2  0  0  0  0  0  0
  192.0430  172.0160  136.6050 O   0  0  0  0  0  0  0  0  0  0  0  0
  190.2390  172.1480  138.8820 C   0  0  0  0  0  0  0  0  0  0  0  0
  196.0390  175.2910  139.6290 C   0  0  0  0  0  2  0  0  0  0  0  0
  194.2500  173.8540  138.8710 C   0  0  1  0  0  3  0  0  0  0  0  0
  195.2130  172.7110  139.9140 S   0  0  0  0  0  0  0  0  0  0  0  0
  196.7100  174.1310  141.7140 C   0  0  0  0  0  1  0  0  0  0  0  0
  196.4950  173.9720  140.2230 C   0  0  2  0  0  3  0  0  0  0  0  0
  195.1710  174.9700  138.4350 C   0  0  0  0  0  2  0  0  0  0  0  0
  190.2400  176.1260  144.3410 N   0  0  0  0  0  0  0  0  0  0  0  0
  188.4090  177.9410  141.5950 C   0  0  0  0  0  3  0  0  0  0  0  0
  187.2630  175.8640  142.0650 C   0  0  0  0  0  3  0  0  0  0  0  0
  189.3590  177.6350  142.5730 C   0  0  0  0  0  3  0  0  0  0  0  0
  189.2740  176.4400  143.3100 C   0  0  0  0  0  0  0  0  0  0  0  0
  187.3550  177.0580  141.3360 C   0  0  0  0  0  0  0  0  0  0  0  0
  188.2110  175.5570  143.0450 C   0  0  0  0  0  3  0  0  0  0  0  0
  186.3800  177.3360  140.3680 O   0  0  0  0  0  0  0  0  0  0  0  0
  185.2850  178.2160  140.6140 C   0  0  0  0  0  1  0  0  0  0  0  0
  189.8680  176.0460  145.7640 C   0  0  2  0  0  3  0  0  0  0  0  0
  189.0490  174.7980  146.0560 C   0  0  0  0  0  1  0  0  0  0  0  0
  189.1140  177.2900  146.2170 C   0  0  0  0  0  2  0  0  0  0  0  0
  187.5850  176.0270  147.5180 O   0  0  0  0  0  0  0  0  0  0  0  0
  184.2760  178.4820  144.6190 C   0  0  0  0  0  2  0  0  0  0  0  0
  186.5810  177.6200  146.1240 N   0  0  0  0  0  0  0  0  0  0  0  0
  184.1970  178.2560  146.1290 C   0  0  0  0  0  2  0  0  0  0  0  0
  185.2400  177.2400  146.5860 C   0  0  0  0  0  2  0  0  0  0  0  0
  186.7520  178.7330  145.1930 C   0  0  0  0  0  2  0  0  0  0  0  0
  187.7300  176.9360  146.6560 C   0  0  0  0  0  0  0  0  0  0  0  0
  185.6980  178.6670  144.0880 C   0  0  0  0  0  2  0  0  0  0  0  0
  2  5  2  0  0  0  0
  2  1  1  0  0  0  0
  3  8  1  6  0  0  0
  3  6  1  0  0  0  0
  4  3  1  0  0  0  0
  4 27  1  1  0  0  0
  4  2  1  0  0  0  0
  6  7  1  6  0  0  0
  6  1  1  0  0  0  0
  8  9  1  6  0  0  0
 11  8  1  0  0  0  0
 11 10  1  1  0  0  0
 12 11  1  0  0  0  0
 14 13  1  6  0  0  0
 14 12  1  0  0  0  0
 16 20  2  0  0  0  0
 17 15  1  0  0  0  0
 17 18  1  0  0  0  0
 18 20  1  0  0  0  0
 19 17  2  0  0  0  0
 20 14  1  0  0  0  0
 21 25  1  0  0  0  0
 22 15  1  6  0  0  0
 22 23  1  0  0  0  0
 23 25  1  0  0  0  0
 25 24  1  1  0  0  0
 26 22  1  0  0  0  0
 26 21  1  0  0  0  0
 27 36  1  0  0  0  0
 28 30  1  0  0  0  0
 29 33  2  0  0  0  0
 30 31  2  0  0  0  0
 31 27  1  0  0  0  0
 32 28  2  0  0  0  0
 32 29  1  0  0  0  0
 33 31  1  0  0  0  0
 34 35  1  0  0  0  0
 34 32  1  0  0  0  0
 36 37  1  6  0  0  0
 36 38  1  0  0  0  0
 38 45  1  0  0  0  0
 40 42  1  0  0  0  0
 41 43  1  0  0  0  0
 41 45  1  0  0  0  0
 42 43  1  0  0  0  0
 44 41  1  0  0  0  0
 45 39  2  0  0  0  0
 46 40  1  0  0  0  0
 46 44  1  0  0  0  0
M  END
>  <MODEL>
9

>  <REMARK>
 VINA RESULT:      -6.5      2.393      4.761
  Name = 
  12 active torsions:
  status: ('A' for Active; 'I' for Inactive)
    1  A    between atoms: N_4  and  C_6
    2  A    between atoms: N_4  and  C_25
    3  A    between atoms: N_4  and  C_30
    4  A    between atoms: C_6  and  C_13
    5  A    between atoms: C_7  and  C_17
    6  A    between atoms: C_7  and  C_40
    7  A    between atoms: N_10  and  C_11
    8  A    between atoms: O_12  and  C_35
    9  A    between atoms: C_13  and  C_31
   10  A    between atoms: C_32  and  C_37
   11  A    between atoms: C_32  and  C_40
   12  A    between atoms: C_37  and  C_46
                            x       y       z     vdW  Elec       q    Type
                         _______ _______ _______ _____ _____    ______ ____

>  <TORSDO>
F 12

$$$$
