=
 OpenBabel11042417193D

 26 28  0  0  1  0  0  0  0  0999 V2000
  186.5790  177.2360  145.1190 N   0  0  0  0  0  2  0  0  0  0  0  0
  188.4910  178.0230  141.9660 C   0  0  0  0  0  3  0  0  0  0  0  0
  188.9270  177.4870  144.6570 C   0  0  0  0  0  3  0  0  0  0  0  0
  183.8490  179.3810  144.3380 O   0  0  0  0  0  0  0  0  0  0  0  0
  190.0130  177.7160  143.8110 C   0  0  0  0  0  0  0  0  0  0  0  0
  186.0820  177.8420  142.1400 C   0  0  0  0  0  3  0  0  0  0  0  0
  189.7940  177.9750  142.4590 C   0  0  0  0  0  3  0  0  0  0  0  0
  184.8900  178.1040  142.6630 C   0  0  0  0  0  0  0  0  0  0  0  0
  185.2570  177.7080  145.1290 N   0  0  0  0  0  0  0  0  0  0  0  0
  184.6760  178.4700  144.0660 C   0  0  0  0  0  0  0  0  0  0  0  0
  187.6110  177.5520  144.1800 C   0  0  0  0  0  0  0  0  0  0  0  0
  187.3890  177.8250  142.8090 C   0  0  0  0  0  0  0  0  0  0  0  0
  182.8600  178.1420  141.0460 N   0  0  0  0  0  0  0  0  0  0  0  0
  183.7650  178.1260  141.7670 C   0  0  0  0  0  0  0  0  0  0  0  0
  191.4010  177.6300  144.3400 C   0  0  0  0  0  2  0  0  0  0  0  0
  191.7210  176.2480  144.6520 N   0  0  0  0  0  2  0  0  0  0  0  0
  191.2260  175.4760  148.2110 O   0  0  0  0  0  1  0  0  0  0  0  0
  190.2710  174.5830  146.2150 O   0  0  0  0  0  1  0  0  0  0  0  0
  192.1570  176.2230  146.0390 C   0  0  1  0  0  3  0  0  0  0  0  0
  191.3330  175.2370  146.8420 C   0  0  0  0  0  0  0  0  0  0  0  0
  192.7050  174.8320  146.3740 C   0  0  0  0  0  2  0  0  0  0  0  0
  184.4800  177.4970  146.3430 C   0  0  0  0  0  2  0  0  0  0  0  0
  184.9280  178.4670  147.4200 C   0  0  0  0  0  2  0  0  0  0  0  0
  185.9510  177.8900  148.1690 O   0  0  0  0  0  0  0  0  0  0  0  0
  186.8990  178.9040  148.3070 C   0  0  0  0  0  2  0  0  0  0  0  0
  186.2990  180.1380  148.0660 O   0  0  0  0  0  1  0  0  0  0  0  0
  1  9  1  0  0  0  0
  2  7  2  0  0  0  0
  2 12  1  0  0  0  0
  5 15  1  0  0  0  0
  5  3  2  0  0  0  0
  6  8  2  0  0  0  0
  6 12  1  0  0  0  0
  7  5  1  0  0  0  0
  8 10  1  0  0  0  0
  9 22  1  0  0  0  0
 10  4  2  0  0  0  0
 10  9  1  0  0  0  0
 11  3  1  0  0  0  0
 11  1  1  0  0  0  0
 12 11  2  0  0  0  0
 13 14  3  0  0  0  0
 14  8  1  0  0  0  0
 15 16  1  0  0  0  0
 18 20  1  0  0  0  0
 19 16  1  6  0  0  0
 19 21  1  0  0  0  0
 19 20  1  0  0  0  0
 20 17  1  0  0  0  0
 21 20  1  0  0  0  0
 22 23  1  0  0  0  0
 23 24  1  0  0  0  0
 24 25  1  0  0  0  0
 26 25  1  0  0  0  0
M  END
>  <MODEL>
1

>  <REMARK>
 VINA RESULT:      -6.5      0.000      0.000
  Name = 
  8 active torsions:
  status: ('A' for Active; 'I' for Inactive)
    1  A    between atoms: C_1  and  C_8
    2  A    between atoms: C_1  and  N_15
    3  A    between atoms: C_5  and  N_13
    4  A    between atoms: C_5  and  C_21
    5  A    between atoms: C_6  and  O_26
    6  A    between atoms: C_12  and  C_19
    7  A    between atoms: N_15  and  C_17
    8  A    between atoms: C_21  and  O_26
                            x       y       z     vdW  Elec       q    Type
                         _______ _______ _______ _____ _____    ______ ____

>  <TORSDO>
F 8

$$$$
=
 OpenBabel11042417193D

 26 28  0  0  1  0  0  0  0  0999 V2000
  188.5380  177.2730  143.7650 N   0  0  0  0  0  2  0  0  0  0  0  0
  188.8950  175.1270  146.8440 C   0  0  0  0  0  3  0  0  0  0  0  0
  190.0860  175.5320  144.3670 C   0  0  0  0  0  3  0  0  0  0  0  0
  184.9800  177.3060  143.8540 O   0  0  0  0  0  0  0  0  0  0  0  0
  190.6090  174.5760  145.2390 C   0  0  0  0  0  0  0  0  0  0  0  0
  187.2020  176.8240  146.5040 C   0  0  0  0  0  3  0  0  0  0  0  0
  190.0160  174.3800  146.4850 C   0  0  0  0  0  3  0  0  0  0  0  0
  186.2330  177.4410  145.8370 C   0  0  0  0  0  0  0  0  0  0  0  0
  187.2400  177.7600  143.5450 N   0  0  0  0  0  0  0  0  0  0  0  0
  186.1200  177.4430  144.3760 C   0  0  0  0  0  0  0  0  0  0  0  0
  188.9480  176.2750  144.7050 C   0  0  0  0  0  0  0  0  0  0  0  0
  188.3410  176.0690  145.9680 C   0  0  0  0  0  0  0  0  0  0  0  0
  184.3410  178.5440  147.2320 N   0  0  0  0  0  0  0  0  0  0  0  0
  185.1850  178.0530  146.6100 C   0  0  0  0  0  0  0  0  0  0  0  0
  191.8250  173.8070  144.8600 C   0  0  0  0  0  2  0  0  0  0  0  0
  192.8820  174.0580  145.8240 N   0  0  0  0  0  2  0  0  0  0  0  0
  194.2100  177.4340  145.2350 O   0  0  0  0  0  1  0  0  0  0  0  0
  192.9800  176.4720  147.0400 O   0  0  0  0  0  1  0  0  0  0  0  0
  193.8070  174.9880  145.1980 C   0  0  1  0  0  3  0  0  0  0  0  0
  193.8450  176.2990  145.9570 C   0  0  0  0  0  0  0  0  0  0  0  0
  194.9500  175.2990  146.1700 C   0  0  0  0  0  2  0  0  0  0  0  0
  187.0150  178.5430  142.3370 C   0  0  0  0  0  2  0  0  0  0  0  0
  187.2810  177.6910  141.1100 C   0  0  0  0  0  2  0  0  0  0  0  0
  186.0720  177.2370  140.5890 O   0  0  0  0  0  0  0  0  0  0  0  0
  185.2860  178.3830  140.4750 C   0  0  0  0  0  2  0  0  0  0  0  0
  183.9400  178.0240  140.4520 O   0  0  0  0  0  1  0  0  0  0  0  0
  1 11  1  0  0  0  0
  3 11  2  0  0  0  0
  3  5  1  0  0  0  0
  4 10  2  0  0  0  0
  5  7  2  0  0  0  0
  7  2  1  0  0  0  0
  8  6  2  0  0  0  0
  8 14  1  0  0  0  0
  9  1  1  0  0  0  0
  9 10  1  0  0  0  0
 10  8  1  0  0  0  0
 11 12  1  0  0  0  0
 12  6  1  0  0  0  0
 12  2  2  0  0  0  0
 14 13  3  0  0  0  0
 15  5  1  0  0  0  0
 15 16  1  0  0  0  0
 17 20  1  0  0  0  0
 19 16  1  1  0  0  0
 19 20  1  0  0  0  0
 19 21  1  0  0  0  0
 20 21  1  0  0  0  0
 20 18  1  0  0  0  0
 22  9  1  0  0  0  0
 23 22  1  0  0  0  0
 24 23  1  0  0  0  0
 25 24  1  0  0  0  0
 26 25  1  0  0  0  0
M  END
>  <MODEL>
2

>  <REMARK>
 VINA RESULT:      -6.4      2.538      4.606
  Name = 
  8 active torsions:
  status: ('A' for Active; 'I' for Inactive)
    1  A    between atoms: C_1  and  C_8
    2  A    between atoms: C_1  and  N_15
    3  A    between atoms: C_5  and  N_13
    4  A    between atoms: C_5  and  C_21
    5  A    between atoms: C_6  and  O_26
    6  A    between atoms: C_12  and  C_19
    7  A    between atoms: N_15  and  C_17
    8  A    between atoms: C_21  and  O_26
                            x       y       z     vdW  Elec       q    Type
                         _______ _______ _______ _____ _____    ______ ____

>  <TORSDO>
F 8

$$$$
=
 OpenBabel11042417193D

 26 28  0  0  1  0  0  0  0  0999 V2000
  188.5710  177.3710  143.9610 N   0  0  0  0  0  2  0  0  0  0  0  0
  188.6250  175.3070  147.1160 C   0  0  0  0  0  3  0  0  0  0  0  0
  190.1450  175.7770  144.8380 C   0  0  0  0  0  3  0  0  0  0  0  0
  185.0510  177.1030  143.5060 O   0  0  0  0  0  0  0  0  0  0  0  0
  190.6040  174.8810  145.8050 C   0  0  0  0  0  0  0  0  0  0  0  0
  186.8700  176.8490  146.4760 C   0  0  0  0  0  3  0  0  0  0  0  0
  189.8450  174.6530  146.9510 C   0  0  0  0  0  3  0  0  0  0  0  0
  185.9680  177.3710  145.6530 C   0  0  0  0  0  0  0  0  0  0  0  0
  187.2870  177.7430  143.5320 N   0  0  0  0  0  0  0  0  0  0  0  0
  186.0820  177.3430  144.1920 C   0  0  0  0  0  0  0  0  0  0  0  0
  188.9110  176.4250  144.9790 C   0  0  0  0  0  0  0  0  0  0  0  0
  188.1370  176.1860  146.1400 C   0  0  0  0  0  0  0  0  0  0  0  0
  183.8010  178.3300  146.7140 N   0  0  0  0  0  0  0  0  0  0  0  0
  184.7670  177.9030  146.2400 C   0  0  0  0  0  0  0  0  0  0  0  0
  191.9230  174.2130  145.6370 C   0  0  0  0  0  2  0  0  0  0  0  0
  192.9680  175.0440  146.2090 N   0  0  0  0  0  2  0  0  0  0  0  0
  195.5990  176.7880  144.3250 O   0  0  0  0  0  1  0  0  0  0  0  0
  194.5280  177.2450  146.4080 O   0  0  0  0  0  1  0  0  0  0  0  0
  194.0500  175.0810  145.2390 C   0  0  1  0  0  3  0  0  0  0  0  0
  194.9080  176.3140  145.4390 C   0  0  0  0  0  0  0  0  0  0  0  0
  195.3920  174.9930  145.9720 C   0  0  0  0  0  2  0  0  0  0  0  0
  187.1870  178.4860  142.2840 C   0  0  0  0  0  2  0  0  0  0  0  0
  187.8840  177.7270  141.1710 C   0  0  0  0  0  2  0  0  0  0  0  0
  187.1130  176.6260  140.8050 O   0  0  0  0  0  0  0  0  0  0  0  0
  187.9990  175.5500  140.8420 C   0  0  0  0  0  2  0  0  0  0  0  0
  187.7250  174.7580  141.9550 O   0  0  0  0  0  1  0  0  0  0  0  0
  1 11  1  0  0  0  0
  3 11  2  0  0  0  0
  3  5  1  0  0  0  0
  4 10  2  0  0  0  0
  5  7  2  0  0  0  0
  7  2  1  0  0  0  0
  8 14  1  0  0  0  0
  8  6  2  0  0  0  0
  9  1  1  0  0  0  0
  9 10  1  0  0  0  0
 10  8  1  0  0  0  0
 11 12  1  0  0  0  0
 12  6  1  0  0  0  0
 12  2  2  0  0  0  0
 14 13  3  0  0  0  0
 15  5  1  0  0  0  0
 15 16  1  0  0  0  0
 17 20  1  0  0  0  0
 19 20  1  0  0  0  0
 19 21  1  0  0  0  0
 19 16  1  1  0  0  0
 20 21  1  0  0  0  0
 20 18  1  0  0  0  0
 22  9  1  0  0  0  0
 23 22  1  0  0  0  0
 24 25  1  0  0  0  0
 24 23  1  0  0  0  0
 25 26  1  0  0  0  0
M  END
>  <MODEL>
3

>  <REMARK>
 VINA RESULT:      -6.4      2.789      4.737
  Name = 
  8 active torsions:
  status: ('A' for Active; 'I' for Inactive)
    1  A    between atoms: C_1  and  C_8
    2  A    between atoms: C_1  and  N_15
    3  A    between atoms: C_5  and  N_13
    4  A    between atoms: C_5  and  C_21
    5  A    between atoms: C_6  and  O_26
    6  A    between atoms: C_12  and  C_19
    7  A    between atoms: N_15  and  C_17
    8  A    between atoms: C_21  and  O_26
                            x       y       z     vdW  Elec       q    Type
                         _______ _______ _______ _____ _____    ______ ____

>  <TORSDO>
F 8

$$$$
=
 OpenBabel11042417193D

 26 28  0  0  1  0  0  0  0  0999 V2000
  188.5440  177.5840  144.0810 N   0  0  0  0  0  2  0  0  0  0  0  0
  188.6010  175.5320  147.2430 C   0  0  0  0  0  3  0  0  0  0  0  0
  190.1590  176.0580  145.0040 C   0  0  0  0  0  3  0  0  0  0  0  0
  185.0510  177.1700  143.5370 O   0  0  0  0  0  0  0  0  0  0  0  0
  190.6290  175.1840  145.9860 C   0  0  0  0  0  0  0  0  0  0  0  0
  186.8020  176.9980  146.5530 C   0  0  0  0  0  3  0  0  0  0  0  0
  189.8510  174.9280  147.1130 C   0  0  0  0  0  3  0  0  0  0  0  0
  185.9010  177.4810  145.7050 C   0  0  0  0  0  0  0  0  0  0  0  0
  187.2580  177.9010  143.6180 N   0  0  0  0  0  0  0  0  0  0  0  0
  186.0530  177.4540  144.2480 C   0  0  0  0  0  0  0  0  0  0  0  0
  188.8970  176.6550  145.1100 C   0  0  0  0  0  0  0  0  0  0  0  0
  188.1030  176.3870  146.2520 C   0  0  0  0  0  0  0  0  0  0  0  0
  183.6700  178.3530  146.7060 N   0  0  0  0  0  0  0  0  0  0  0  0
  184.6640  177.9640  146.2600 C   0  0  0  0  0  0  0  0  0  0  0  0
  191.9790  174.5710  145.8540 C   0  0  0  0  0  2  0  0  0  0  0  0
  192.1050  173.9430  144.5500 N   0  0  0  0  0  2  0  0  0  0  0  0
  189.2750  171.9230  143.3600 O   0  0  0  0  0  1  0  0  0  0  0  0
  190.5680  173.6520  142.3440 O   0  0  0  0  0  1  0  0  0  0  0  0
  191.2690  172.7540  144.5760 C   0  0  1  0  0  3  0  0  0  0  0  0
  190.4730  172.6310  143.2920 C   0  0  0  0  0  0  0  0  0  0  0  0
  191.7140  171.7970  143.4650 C   0  0  0  0  0  2  0  0  0  0  0  0
  187.1590  178.6370  142.3650 C   0  0  0  0  0  2  0  0  0  0  0  0
  187.8400  177.8600  141.2530 C   0  0  0  0  0  2  0  0  0  0  0  0
  187.0330  176.7920  140.8700 O   0  0  0  0  0  0  0  0  0  0  0  0
  187.8680  175.6770  140.9420 C   0  0  0  0  0  2  0  0  0  0  0  0
  187.5540  174.9340  142.0780 O   0  0  0  0  0  1  0  0  0  0  0  0
  1 11  1  0  0  0  0
  3 11  2  0  0  0  0
  3  5  1  0  0  0  0
  4 10  2  0  0  0  0
  5  7  2  0  0  0  0
  7  2  1  0  0  0  0
  8 14  1  0  0  0  0
  8  6  2  0  0  0  0
  9  1  1  0  0  0  0
  9 10  1  0  0  0  0
 10  8  1  0  0  0  0
 11 12  1  0  0  0  0
 12  6  1  0  0  0  0
 12  2  2  0  0  0  0
 14 13  3  0  0  0  0
 15  5  1  0  0  0  0
 16 15  1  0  0  0  0
 18 20  1  0  0  0  0
 19 16  1  6  0  0  0
 20 17  1  0  0  0  0
 20 21  1  0  0  0  0
 20 19  1  0  0  0  0
 21 19  1  0  0  0  0
 22  9  1  0  0  0  0
 23 22  1  0  0  0  0
 24 25  1  0  0  0  0
 24 23  1  0  0  0  0
 25 26  1  0  0  0  0
M  END
>  <MODEL>
4

>  <REMARK>
 VINA RESULT:      -6.0      2.831      4.758
  Name = 
  8 active torsions:
  status: ('A' for Active; 'I' for Inactive)
    1  A    between atoms: C_1  and  C_8
    2  A    between atoms: C_1  and  N_15
    3  A    between atoms: C_5  and  N_13
    4  A    between atoms: C_5  and  C_21
    5  A    between atoms: C_6  and  O_26
    6  A    between atoms: C_12  and  C_19
    7  A    between atoms: N_15  and  C_17
    8  A    between atoms: C_21  and  O_26
                            x       y       z     vdW  Elec       q    Type
                         _______ _______ _______ _____ _____    ______ ____

>  <TORSDO>
F 8

$$$$
=
 OpenBabel11042417193D

 26 28  0  0  1  0  0  0  0  0999 V2000
  188.6260  176.2360  144.0940 N   0  0  0  0  0  2  0  0  0  0  0  0
  190.6190  176.2630  147.2950 C   0  0  0  0  0  3  0  0  0  0  0  0
  190.6480  175.1160  144.7650 C   0  0  0  0  0  3  0  0  0  0  0  0
  185.4690  176.4340  145.7240 O   0  0  0  0  0  0  0  0  0  0  0  0
  191.6710  174.8260  145.6690 C   0  0  0  0  0  0  0  0  0  0  0  0
  188.5770  177.5030  146.9010 C   0  0  0  0  0  3  0  0  0  0  0  0
  191.6600  175.4090  146.9340 C   0  0  0  0  0  3  0  0  0  0  0  0
  187.3120  177.6520  146.5240 C   0  0  0  0  0  0  0  0  0  0  0  0
  187.2670  176.5480  144.2540 N   0  0  0  0  0  0  0  0  0  0  0  0
  186.6550  176.8100  145.5210 C   0  0  0  0  0  0  0  0  0  0  0  0
  189.5840  175.9550  145.1200 C   0  0  0  0  0  0  0  0  0  0  0  0
  189.5690  176.5400  146.4090 C   0  0  0  0  0  0  0  0  0  0  0  0
  185.8910  179.4230  147.7830 N   0  0  0  0  0  0  0  0  0  0  0  0
  186.5250  178.6330  147.2220 C   0  0  0  0  0  0  0  0  0  0  0  0
  192.7950  173.9400  145.2630 C   0  0  0  0  0  2  0  0  0  0  0  0
  194.0600  174.5770  145.5840 N   0  0  0  0  0  2  0  0  0  0  0  0
  195.6550  176.3850  142.8090 O   0  0  0  0  0  1  0  0  0  0  0  0
  195.0600  177.0290  145.0290 O   0  0  0  0  0  1  0  0  0  0  0  0
  194.8270  174.6280  144.3500 C   0  0  1  0  0  3  0  0  0  0  0  0
  195.3940  176.0160  144.1280 C   0  0  0  0  0  0  0  0  0  0  0  0
  196.2920  174.9390  144.6750 C   0  0  0  0  0  2  0  0  0  0  0  0
  186.4230  176.4920  143.0680 C   0  0  0  0  0  2  0  0  0  0  0  0
  185.8890  177.8750  142.7470 C   0  0  0  0  0  2  0  0  0  0  0  0
  184.5200  177.9150  143.0030 O   0  0  0  0  0  0  0  0  0  0  0  0
  184.3390  179.0720  143.7620 C   0  0  0  0  0  2  0  0  0  0  0  0
  185.5530  179.7460  143.8780 O   0  0  0  0  0  1  0  0  0  0  0  0
  1  9  1  0  0  0  0
  1 11  1  0  0  0  0
  3 11  2  0  0  0  0
  3  5  1  0  0  0  0
  5  7  2  0  0  0  0
  7  2  1  0  0  0  0
  8  6  2  0  0  0  0
  8 14  1  0  0  0  0
  9 10  1  0  0  0  0
 10  4  2  0  0  0  0
 10  8  1  0  0  0  0
 11 12  1  0  0  0  0
 12  6  1  0  0  0  0
 12  2  2  0  0  0  0
 14 13  3  0  0  0  0
 15 16  1  0  0  0  0
 15  5  1  0  0  0  0
 17 20  1  0  0  0  0
 19 21  1  0  0  0  0
 19 16  1  1  0  0  0
 20 19  1  0  0  0  0
 20 21  1  0  0  0  0
 20 18  1  0  0  0  0
 22  9  1  0  0  0  0
 23 24  1  0  0  0  0
 23 22  1  0  0  0  0
 24 25  1  0  0  0  0
 25 26  1  0  0  0  0
M  END
>  <MODEL>
5

>  <REMARK>
 VINA RESULT:      -5.9      2.720      4.663
  Name = 
  8 active torsions:
  status: ('A' for Active; 'I' for Inactive)
    1  A    between atoms: C_1  and  C_8
    2  A    between atoms: C_1  and  N_15
    3  A    between atoms: C_5  and  N_13
    4  A    between atoms: C_5  and  C_21
    5  A    between atoms: C_6  and  O_26
    6  A    between atoms: C_12  and  C_19
    7  A    between atoms: N_15  and  C_17
    8  A    between atoms: C_21  and  O_26
                            x       y       z     vdW  Elec       q    Type
                         _______ _______ _______ _____ _____    ______ ____

>  <TORSDO>
F 8

$$$$
=
 OpenBabel11042417193D

 26 28  0  0  1  0  0  0  0  0999 V2000
  189.7070  177.5780  143.8780 N   0  0  0  0  0  2  0  0  0  0  0  0
  190.4280  176.2140  147.3180 C   0  0  0  0  0  3  0  0  0  0  0  0
  191.7430  176.9110  144.9730 C   0  0  0  0  0  3  0  0  0  0  0  0
  186.6210  175.8400  143.5250 O   0  0  0  0  0  0  0  0  0  0  0  0
  192.4750  176.4350  146.0620 C   0  0  0  0  0  0  0  0  0  0  0  0
  188.2360  176.7950  146.4690 C   0  0  0  0  0  3  0  0  0  0  0  0
  191.8150  176.0940  147.2410 C   0  0  0  0  0  3  0  0  0  0  0  0
  187.2420  176.7770  145.5880 C   0  0  0  0  0  0  0  0  0  0  0  0
  188.4050  177.3280  143.4160 N   0  0  0  0  0  0  0  0  0  0  0  0
  187.4310  176.5780  144.1490 C   0  0  0  0  0  0  0  0  0  0  0  0
  190.3480  177.0160  145.0280 C   0  0  0  0  0  0  0  0  0  0  0  0
  189.6770  176.6610  146.2230 C   0  0  0  0  0  0  0  0  0  0  0  0
  184.8220  176.9220  146.5160 N   0  0  0  0  0  0  0  0  0  0  0  0
  185.9010  176.8570  146.1030 C   0  0  0  0  0  0  0  0  0  0  0  0
  193.9570  176.3420  145.9810 C   0  0  0  0  0  2  0  0  0  0  0  0
  194.3370  175.5840  144.8020 N   0  0  0  0  0  2  0  0  0  0  0  0
  197.5660  176.1960  143.1560 O   0  0  0  0  0  1  0  0  0  0  0  0
  196.3730  174.1980  143.6840 O   0  0  0  0  0  1  0  0  0  0  0  0
  195.2650  176.4150  144.0520 C   0  0  1  0  0  3  0  0  0  0  0  0
  196.3490  175.5680  143.4160 C   0  0  0  0  0  0  0  0  0  0  0  0
  195.1980  176.0370  142.5680 C   0  0  0  0  0  2  0  0  0  0  0  0
  188.0770  177.7690  142.0670 C   0  0  0  0  0  2  0  0  0  0  0  0
  186.8430  178.6500  142.0960 C   0  0  0  0  0  2  0  0  0  0  0  0
  185.9860  178.2840  141.0610 O   0  0  0  0  0  0  0  0  0  0  0  0
  184.7130  178.3210  141.6300 C   0  0  0  0  0  2  0  0  0  0  0  0
  184.8190  178.6010  142.9900 O   0  0  0  0  0  1  0  0  0  0  0  0
  1 11  1  0  0  0  0
  3 11  2  0  0  0  0
  3  5  1  0  0  0  0
  4 10  2  0  0  0  0
  5  7  2  0  0  0  0
  7  2  1  0  0  0  0
  8 14  1  0  0  0  0
  8  6  2  0  0  0  0
  9  1  1  0  0  0  0
  9 10  1  0  0  0  0
 10  8  1  0  0  0  0
 11 12  1  0  0  0  0
 12  6  1  0  0  0  0
 12  2  2  0  0  0  0
 14 13  3  0  0  0  0
 15  5  1  0  0  0  0
 16 15  1  0  0  0  0
 17 20  1  0  0  0  0
 19 16  1  1  0  0  0
 20 18  1  0  0  0  0
 20 19  1  0  0  0  0
 21 20  1  0  0  0  0
 21 19  1  0  0  0  0
 22 23  1  0  0  0  0
 22  9  1  0  0  0  0
 24 25  1  0  0  0  0
 24 23  1  0  0  0  0
 25 26  1  0  0  0  0
M  END
>  <MODEL>
6

>  <REMARK>
 VINA RESULT:      -5.9      3.131      5.062
  Name = 
  8 active torsions:
  status: ('A' for Active; 'I' for Inactive)
    1  A    between atoms: C_1  and  C_8
    2  A    between atoms: C_1  and  N_15
    3  A    between atoms: C_5  and  N_13
    4  A    between atoms: C_5  and  C_21
    5  A    between atoms: C_6  and  O_26
    6  A    between atoms: C_12  and  C_19
    7  A    between atoms: N_15  and  C_17
    8  A    between atoms: C_21  and  O_26
                            x       y       z     vdW  Elec       q    Type
                         _______ _______ _______ _____ _____    ______ ____

>  <TORSDO>
F 8

$$$$
=
 OpenBabel11042417193D

 26 28  0  0  1  0  0  0  0  0999 V2000
  189.2270  177.9120  144.0150 N   0  0  0  0  0  2  0  0  0  0  0  0
  190.1900  176.6350  147.4290 C   0  0  0  0  0  3  0  0  0  0  0  0
  191.2560  176.9530  144.8830 C   0  0  0  0  0  3  0  0  0  0  0  0
  185.8730  176.7380  144.2080 O   0  0  0  0  0  0  0  0  0  0  0  0
  192.0440  176.4150  145.9020 C   0  0  0  0  0  0  0  0  0  0  0  0
  188.0300  177.5520  146.8300 C   0  0  0  0  0  3  0  0  0  0  0  0
  191.5110  176.2650  147.1810 C   0  0  0  0  0  3  0  0  0  0  0  0
  186.9320  177.6630  146.0910 C   0  0  0  0  0  0  0  0  0  0  0  0
  187.8490  177.8740  143.7480 N   0  0  0  0  0  0  0  0  0  0  0  0
  186.8770  177.3530  144.6590 C   0  0  0  0  0  0  0  0  0  0  0  0
  189.9210  177.3100  145.1110 C   0  0  0  0  0  0  0  0  0  0  0  0
  189.3770  177.1480  146.4090 C   0  0  0  0  0  0  0  0  0  0  0  0
  184.7290  178.2900  147.3120 N   0  0  0  0  0  0  0  0  0  0  0  0
  185.7120  178.0100  146.7680 C   0  0  0  0  0  0  0  0  0  0  0  0
  193.4620  176.0540  145.6350 C   0  0  0  0  0  2  0  0  0  0  0  0
  193.5690  175.4150  144.3350 N   0  0  0  0  0  2  0  0  0  0  0  0
  197.1400  175.6940  143.5130 O   0  0  0  0  0  1  0  0  0  0  0  0
  195.7910  173.8740  144.2620 O   0  0  0  0  0  1  0  0  0  0  0  0
  194.6900  176.0410  143.6530 C   0  0  1  0  0  3  0  0  0  0  0  0
  195.8800  175.1050  143.6090 C   0  0  0  0  0  0  0  0  0  0  0  0
  195.0180  175.2470  142.3840 C   0  0  0  0  0  2  0  0  0  0  0  0
  187.4120  178.2910  142.4230 C   0  0  0  0  0  2  0  0  0  0  0  0
  188.0720  177.4290  141.3640 C   0  0  0  0  0  2  0  0  0  0  0  0
  187.3990  176.2130  141.2670 O   0  0  0  0  0  0  0  0  0  0  0  0
  188.4020  175.2480  141.3660 C   0  0  0  0  0  2  0  0  0  0  0  0
  188.3990  174.7040  142.6490 O   0  0  0  0  0  1  0  0  0  0  0  0
  1 11  1  0  0  0  0
  3 11  2  0  0  0  0
  3  5  1  0  0  0  0
  4 10  2  0  0  0  0
  5  7  2  0  0  0  0
  7  2  1  0  0  0  0
  8 14  1  0  0  0  0
  8  6  2  0  0  0  0
  9  1  1  0  0  0  0
  9 10  1  0  0  0  0
 10  8  1  0  0  0  0
 11 12  1  0  0  0  0
 12  6  1  0  0  0  0
 12  2  2  0  0  0  0
 14 13  3  0  0  0  0
 15  5  1  0  0  0  0
 16 15  1  0  0  0  0
 17 20  1  0  0  0  0
 19 16  1  1  0  0  0
 20 19  1  0  0  0  0
 20 18  1  0  0  0  0
 21 20  1  0  0  0  0
 21 19  1  0  0  0  0
 22  9  1  0  0  0  0
 23 22  1  0  0  0  0
 24 23  1  0  0  0  0
 24 25  1  0  0  0  0
 25 26  1  0  0  0  0
M  END
>  <MODEL>
7

>  <REMARK>
 VINA RESULT:      -5.8      3.141      5.084
  Name = 
  8 active torsions:
  status: ('A' for Active; 'I' for Inactive)
    1  A    between atoms: C_1  and  C_8
    2  A    between atoms: C_1  and  N_15
    3  A    between atoms: C_5  and  N_13
    4  A    between atoms: C_5  and  C_21
    5  A    between atoms: C_6  and  O_26
    6  A    between atoms: C_12  and  C_19
    7  A    between atoms: N_15  and  C_17
    8  A    between atoms: C_21  and  O_26
                            x       y       z     vdW  Elec       q    Type
                         _______ _______ _______ _____ _____    ______ ____

>  <TORSDO>
F 8

$$$$
=
 OpenBabel11042417193D

 26 28  0  0  1  0  0  0  0  0999 V2000
  188.1640  176.2120  145.2840 N   0  0  0  0  0  2  0  0  0  0  0  0
  189.0490  175.1040  141.7900 C   0  0  0  0  0  3  0  0  0  0  0  0
  190.0820  175.0820  144.3690 C   0  0  0  0  0  3  0  0  0  0  0  0
  186.5510  179.2050  144.2320 O   0  0  0  0  0  0  0  0  0  0  0  0
  190.8070  174.5010  143.3280 C   0  0  0  0  0  0  0  0  0  0  0  0
  187.0150  176.2530  142.4260 C   0  0  0  0  0  3  0  0  0  0  0  0
  190.2830  174.5040  142.0360 C   0  0  0  0  0  3  0  0  0  0  0  0
  186.3070  177.2150  143.0070 C   0  0  0  0  0  0  0  0  0  0  0  0
  187.2680  177.2900  145.3410 N   0  0  0  0  0  0  0  0  0  0  0  0
  186.7570  177.9620  144.1850 C   0  0  0  0  0  0  0  0  0  0  0  0
  188.8510  175.7080  144.1340 C   0  0  0  0  0  0  0  0  0  0  0  0
  188.3240  175.7180  142.8200 C   0  0  0  0  0  0  0  0  0  0  0  0
  184.0840  177.9170  141.8630 N   0  0  0  0  0  0  0  0  0  0  0  0
  185.0750  177.6040  142.3740 C   0  0  0  0  0  0  0  0  0  0  0  0
  192.1070  173.8340  143.6060 C   0  0  0  0  0  2  0  0  0  0  0  0
  192.6360  174.3030  144.8750 N   0  0  0  0  0  2  0  0  0  0  0  0
  195.4490  176.5070  144.0150 O   0  0  0  0  0  1  0  0  0  0  0  0
  193.2570  176.9360  144.8540 O   0  0  0  0  0  1  0  0  0  0  0  0
  194.0510  174.5660  144.6670 C   0  0  1  0  0  3  0  0  0  0  0  0
  194.3310  176.0550  144.7140 C   0  0  0  0  0  0  0  0  0  0  0  0
  194.6360  175.2150  145.9250 C   0  0  0  0  0  2  0  0  0  0  0  0
  186.9320  177.8140  146.6580 C   0  0  0  0  0  2  0  0  0  0  0  0
  185.9080  176.9160  147.3270 C   0  0  0  0  0  2  0  0  0  0  0  0
  184.6850  177.0390  146.6730 O   0  0  0  0  0  0  0  0  0  0  0  0
  184.3120  178.3680  146.8730 C   0  0  0  0  0  2  0  0  0  0  0  0
  183.6700  178.8480  145.7330 O   0  0  0  0  0  1  0  0  0  0  0  0
  1  9  1  0  0  0  0
  2  7  2  0  0  0  0
  2 12  1  0  0  0  0
  5 15  1  0  0  0  0
  5  3  2  0  0  0  0
  6 12  1  0  0  0  0
  6  8  2  0  0  0  0
  7  5  1  0  0  0  0
  8 10  1  0  0  0  0
  9 22  1  0  0  0  0
 10  4  2  0  0  0  0
 10  9  1  0  0  0  0
 11  3  1  0  0  0  0
 11  1  1  0  0  0  0
 12 11  2  0  0  0  0
 13 14  3  0  0  0  0
 14  8  1  0  0  0  0
 15 16  1  0  0  0  0
 17 20  1  0  0  0  0
 19 20  1  0  0  0  0
 19 16  1  1  0  0  0
 19 21  1  0  0  0  0
 20 18  1  0  0  0  0
 20 21  1  0  0  0  0
 22 23  1  0  0  0  0
 24 25  1  0  0  0  0
 24 23  1  0  0  0  0
 26 25  1  0  0  0  0
M  END
>  <MODEL>
8

>  <REMARK>
 VINA RESULT:      -5.8      2.503      2.891
  Name = 
  8 active torsions:
  status: ('A' for Active; 'I' for Inactive)
    1  A    between atoms: C_1  and  C_8
    2  A    between atoms: C_1  and  N_15
    3  A    between atoms: C_5  and  N_13
    4  A    between atoms: C_5  and  C_21
    5  A    between atoms: C_6  and  O_26
    6  A    between atoms: C_12  and  C_19
    7  A    between atoms: N_15  and  C_17
    8  A    between atoms: C_21  and  O_26
                            x       y       z     vdW  Elec       q    Type
                         _______ _______ _______ _____ _____    ______ ____

>  <TORSDO>
F 8

$$$$
=
 OpenBabel11042417193D

 26 28  0  0  1  0  0  0  0  0999 V2000
  189.2710  177.9120  143.9900 N   0  0  0  0  0  2  0  0  0  0  0  0
  190.4680  176.5960  147.3140 C   0  0  0  0  0  3  0  0  0  0  0  0
  191.3500  176.9320  144.7010 C   0  0  0  0  0  3  0  0  0  0  0  0
  185.9310  176.7580  144.4150 O   0  0  0  0  0  0  0  0  0  0  0  0
  192.2050  176.3790  145.6550 C   0  0  0  0  0  0  0  0  0  0  0  0
  188.2770  177.5320  146.8810 C   0  0  0  0  0  3  0  0  0  0  0  0
  191.7650  176.2190  146.9680 C   0  0  0  0  0  3  0  0  0  0  0  0
  187.1300  177.6570  146.2240 C   0  0  0  0  0  0  0  0  0  0  0  0
  187.8770  177.8850  143.8230 N   0  0  0  0  0  0  0  0  0  0  0  0
  186.9700  177.3620  144.7980 C   0  0  0  0  0  0  0  0  0  0  0  0
  190.0370  177.2950  145.0290 C   0  0  0  0  0  0  0  0  0  0  0  0
  189.5880  177.1240  146.3600 C   0  0  0  0  0  0  0  0  0  0  0  0
  185.0250  178.2870  147.6070 N   0  0  0  0  0  0  0  0  0  0  0  0
  185.9640  178.0060  146.9910 C   0  0  0  0  0  0  0  0  0  0  0  0
  193.5980  176.0110  145.2840 C   0  0  0  0  0  2  0  0  0  0  0  0
  193.9510  174.7440  145.9010 N   0  0  0  0  0  2  0  0  0  0  0  0
  195.5820  172.5370  143.4560 O   0  0  0  0  0  1  0  0  0  0  0  0
  196.3350  173.5340  145.4890 O   0  0  0  0  0  1  0  0  0  0  0  0
  193.9220  173.7440  144.8470 C   0  0  1  0  0  3  0  0  0  0  0  0
  195.2750  173.0750  144.7050 C   0  0  0  0  0  0  0  0  0  0  0  0
  194.1820  172.3610  145.4530 C   0  0  0  0  0  2  0  0  0  0  0  0
  187.3480  178.3180  142.5370 C   0  0  0  0  0  2  0  0  0  0  0  0
  187.6480  177.2760  141.4760 C   0  0  0  0  0  2  0  0  0  0  0  0
  186.6780  177.3370  140.4780 O   0  0  0  0  0  0  0  0  0  0  0  0
  185.5710  177.9140  141.1000 C   0  0  0  0  0  2  0  0  0  0  0  0
  184.6950  178.4020  140.1320 O   0  0  0  0  0  1  0  0  0  0  0  0
  1 11  1  0  0  0  0
  3 11  2  0  0  0  0
  3  5  1  0  0  0  0
  4 10  2  0  0  0  0
  5  7  2  0  0  0  0
  7  2  1  0  0  0  0
  8  6  2  0  0  0  0
  8 14  1  0  0  0  0
  9  1  1  0  0  0  0
  9 10  1  0  0  0  0
 10  8  1  0  0  0  0
 11 12  1  0  0  0  0
 12  6  1  0  0  0  0
 12  2  2  0  0  0  0
 14 13  3  0  0  0  0
 15  5  1  0  0  0  0
 15 16  1  0  0  0  0
 17 20  1  0  0  0  0
 19 21  1  0  0  0  0
 19 16  1  1  0  0  0
 20 19  1  0  0  0  0
 20 21  1  0  0  0  0
 20 18  1  0  0  0  0
 22  9  1  0  0  0  0
 23 22  1  0  0  0  0
 24 25  1  0  0  0  0
 24 23  1  0  0  0  0
 26 25  1  0  0  0  0
M  END
>  <MODEL>
9

>  <REMARK>
 VINA RESULT:      -5.7      2.890      5.056
  Name = 
  8 active torsions:
  status: ('A' for Active; 'I' for Inactive)
    1  A    between atoms: C_1  and  C_8
    2  A    between atoms: C_1  and  N_15
    3  A    between atoms: C_5  and  N_13
    4  A    between atoms: C_5  and  C_21
    5  A    between atoms: C_6  and  O_26
    6  A    between atoms: C_12  and  C_19
    7  A    between atoms: N_15  and  C_17
    8  A    between atoms: C_21  and  O_26
                            x       y       z     vdW  Elec       q    Type
                         _______ _______ _______ _____ _____    ______ ____

>  <TORSDO>
F 8

$$$$
