=
 OpenBabel11042417213D

 26 29  0  0  1  0  0  0  0  0999 V2000
  184.3100  177.9080  141.2920 C   0  0  1  0  0  3  0  0  0  0  0  0
  187.4100  177.3750  144.1470 C   0  0  0  0  0  0  0  0  0  0  0  0
  189.6680  177.0220  145.1700 C   0  0  0  0  0  3  0  0  0  0  0  0
  186.5550  177.4130  143.0710 N   0  0  0  0  0  0  0  0  0  0  0  0
  187.0680  177.7610  146.6660 C   0  0  0  0  0  0  0  0  0  0  0  0
  186.8750  177.0330  141.3580 S   0  0  0  0  0  0  0  0  0  0  0  0
  184.3870  178.2350  145.7600 C   0  0  0  0  0  3  0  0  0  0  0  0
  188.7910  177.0870  144.0880 C   0  0  0  0  0  0  0  0  0  0  0  0
  186.7030  177.6520  145.2470 C   0  0  0  0  0  0  0  0  0  0  0  0
  188.3280  177.5480  147.1920 C   0  0  0  0  0  3  0  0  0  0  0  0
  189.4690  176.8220  142.7890 C   0  0  0  0  0  1  0  0  0  0  0  0
  184.7230  178.3450  147.1140 C   0  0  0  0  0  3  0  0  0  0  0  0
  185.3320  177.7400  143.5530 C   0  0  0  0  0  0  0  0  0  0  0  0
  185.6890  178.2660  140.7450 C   0  0  0  0  0  2  0  0  0  0  0  0
  186.0390  178.1080  147.5520 C   0  0  0  0  0  3  0  0  0  0  0  0
  189.5100  177.2110  146.5480 C   0  0  0  0  0  0  0  0  0  0  0  0
  185.3590  177.8890  144.8820 N   0  0  0  0  0  0  0  0  0  0  0  0
  184.2640  178.0010  142.7900 C   0  0  0  0  0  3  0  0  0  0  0  0
  183.2870  178.7040  140.6930 O   0  0  0  0  0  0  0  0  0  0  0  0
  179.6560  178.7290  141.7580 C   0  0  0  0  0  1  0  0  0  0  0  0
  181.0790  179.0150  141.6780 N   0  0  0  0  0  2  0  0  0  0  0  0
  181.9240  178.3820  140.7170 C   0  0  0  0  0  0  0  0  0  0  0  0
  181.4440  177.5460  139.9030 O   0  0  0  0  0  0  0  0  0  0  0  0
  190.6230  177.0600  147.3850 O   0  0  0  0  0  0  0  0  0  0  0  0
  191.6970  176.2620  147.0810 C   0  0  0  0  0  0  0  0  0  0  0  0
  192.6030  175.5880  146.8240 N   0  0  0  0  0  0  0  0  0  0  0  0
  1 19  1  6  0  0  0
  1 18  1  0  0  0  0
  2  9  2  0  0  0  0
  3 16  1  0  0  0  0
  4 13  1  0  0  0  0
  4  2  1  0  0  0  0
  5 10  1  0  0  0  0
  5 15  2  0  0  0  0
  6  4  1  0  0  0  0
  7 12  2  0  0  0  0
  8  2  1  0  0  0  0
  8  3  2  0  0  0  0
  9  5  1  0  0  0  0
 11  8  1  0  0  0  0
 12 15  1  0  0  0  0
 13 17  1  0  0  0  0
 14  1  1  0  0  0  0
 14  6  1  0  0  0  0
 16 10  2  0  0  0  0
 16 24  1  0  0  0  0
 17  9  1  0  0  0  0
 17  7  1  0  0  0  0
 18 13  2  0  0  0  0
 19 22  1  0  0  0  0
 21 20  1  0  0  0  0
 22 21  1  0  0  0  0
 23 22  2  0  0  0  0
 25 24  1  0  0  0  0
 26 25  3  0  0  0  0
M  END
>  <MODEL>
1

>  <REMARK>
 VINA RESULT:      -7.6      0.000      0.000
  Name = 
  4 active torsions:
  status: ('A' for Active; 'I' for Inactive)
    1  A    between atoms: C_1  and  O_10
    2  A    between atoms: C_7  and  O_23
    3  A    between atoms: O_10  and  C_21
    4  A    between atoms: C_22  and  O_23
                            x       y       z     vdW  Elec       q    Type
                         _______ _______ _______ _____ _____    ______ ____

>  <TORSDO>
F 4

$$$$
=
 OpenBabel11042417213D

 26 29  0  0  1  0  0  0  0  0999 V2000
  190.9780  176.7930  145.1820 C   0  0  1  0  0  3  0  0  0  0  0  0
  187.1170  177.7750  143.7120 C   0  0  0  0  0  0  0  0  0  0  0  0
  185.1750  178.1230  142.1700 C   0  0  0  0  0  3  0  0  0  0  0  0
  188.4440  177.5150  143.9560 N   0  0  0  0  0  0  0  0  0  0  0  0
  185.1160  178.2550  145.2550 C   0  0  0  0  0  0  0  0  0  0  0  0
  189.7830  177.2870  142.8000 S   0  0  0  0  0  0  0  0  0  0  0  0
  187.1530  177.8880  147.2430 C   0  0  0  0  0  3  0  0  0  0  0  0
  186.5140  177.8390  142.4360 C   0  0  0  0  0  0  0  0  0  0  0  0
  186.5070  177.9590  144.8880 C   0  0  0  0  0  0  0  0  0  0  0  0
  184.0740  178.4500  144.3700 C   0  0  0  0  0  3  0  0  0  0  0  0
  187.2990  177.5850  141.1980 C   0  0  0  0  0  1  0  0  0  0  0  0
  185.8310  178.1680  147.6050 C   0  0  0  0  0  3  0  0  0  0  0  0
  188.6060  177.5260  145.3010 C   0  0  0  0  0  0  0  0  0  0  0  0
  190.6500  176.0960  143.8650 C   0  0  0  0  0  2  0  0  0  0  0  0
  184.8380  178.3500  146.6260 C   0  0  0  0  0  3  0  0  0  0  0  0
  184.0700  178.4030  142.9830 C   0  0  0  0  0  0  0  0  0  0  0  0
  187.4550  177.8040  145.9250 N   0  0  0  0  0  0  0  0  0  0  0  0
  189.7360  177.1850  145.9300 C   0  0  0  0  0  3  0  0  0  0  0  0
  191.8400  175.9950  145.9950 O   0  0  0  0  0  0  0  0  0  0  0  0
  195.4620  175.5260  145.0080 C   0  0  0  0  0  1  0  0  0  0  0  0
  194.0120  175.4390  145.0390 N   0  0  0  0  0  2  0  0  0  0  0  0
  193.2340  176.1210  146.0230 C   0  0  0  0  0  0  0  0  0  0  0  0
  193.8010  176.8260  146.9030 O   0  0  0  0  0  0  0  0  0  0  0  0
  182.8320  178.6580  142.3800 O   0  0  0  0  0  0  0  0  0  0  0  0
  182.4860  178.1960  141.1360 C   0  0  0  0  0  0  0  0  0  0  0  0
  182.1940  177.8060  140.0860 N   0  0  0  0  0  0  0  0  0  0  0  0
  1 18  1  0  0  0  0
  1 19  1  1  0  0  0
  2  4  1  0  0  0  0
  2  9  2  0  0  0  0
  3  8  2  0  0  0  0
  3 16  1  0  0  0  0
  4 13  1  0  0  0  0
  5 15  2  0  0  0  0
  6 14  1  0  0  0  0
  6  4  1  0  0  0  0
  7 12  2  0  0  0  0
  8  2  1  0  0  0  0
  9  5  1  0  0  0  0
  9 17  1  0  0  0  0
 10  5  1  0  0  0  0
 11  8  1  0  0  0  0
 13 17  1  0  0  0  0
 13 18  2  0  0  0  0
 14  1  1  0  0  0  0
 15 12  1  0  0  0  0
 16 10  2  0  0  0  0
 17  7  1  0  0  0  0
 19 22  1  0  0  0  0
 20 21  1  0  0  0  0
 21 22  1  0  0  0  0
 22 23  2  0  0  0  0
 24 16  1  0  0  0  0
 25 24  1  0  0  0  0
 26 25  3  0  0  0  0
M  END
>  <MODEL>
2

>  <REMARK>
 VINA RESULT:      -7.6      1.863      7.887
  Name = 
  4 active torsions:
  status: ('A' for Active; 'I' for Inactive)
    1  A    between atoms: C_1  and  O_10
    2  A    between atoms: C_7  and  O_23
    3  A    between atoms: O_10  and  C_21
    4  A    between atoms: C_22  and  O_23
                            x       y       z     vdW  Elec       q    Type
                         _______ _______ _______ _____ _____    ______ ____

>  <TORSDO>
F 4

$$$$
=
 OpenBabel11042417213D

 26 29  0  0  1  0  0  0  0  0999 V2000
  190.0660  175.5920  147.0770 C   0  0  1  0  0  3  0  0  0  0  0  0
  187.5100  177.0190  144.0000 C   0  0  0  0  0  0  0  0  0  0  0  0
  185.8460  178.4010  142.7380 C   0  0  0  0  0  3  0  0  0  0  0  0
  188.1710  176.6640  145.1510 N   0  0  0  0  0  0  0  0  0  0  0  0
  187.6080  176.1410  141.5850 C   0  0  0  0  0  0  0  0  0  0  0  0
  187.9600  177.2770  146.8120 S   0  0  0  0  0  0  0  0  0  0  0  0
  189.5790  174.4300  142.7770 C   0  0  0  0  0  3  0  0  0  0  0  0
  186.5420  178.0420  143.8910 C   0  0  0  0  0  0  0  0  0  0  0  0
  187.9400  176.2260  143.0130 C   0  0  0  0  0  0  0  0  0  0  0  0
  186.6740  176.9180  140.9270 C   0  0  0  0  0  3  0  0  0  0  0  0
  186.1690  178.8780  145.0650 C   0  0  0  0  0  1  0  0  0  0  0  0
  189.2730  174.3410  141.4150 C   0  0  0  0  0  3  0  0  0  0  0  0
  189.0190  175.6580  144.8230 C   0  0  0  0  0  0  0  0  0  0  0  0
  189.7160  177.0690  147.2340 C   0  0  0  0  0  2  0  0  0  0  0  0
  188.3030  175.1800  140.8370 C   0  0  0  0  0  3  0  0  0  0  0  0
  185.8660  177.9340  141.4180 C   0  0  0  0  0  0  0  0  0  0  0  0
  188.9140  175.3400  143.5280 N   0  0  0  0  0  0  0  0  0  0  0  0
  189.9280  175.1350  145.6530 C   0  0  0  0  0  3  0  0  0  0  0  0
  191.3700  175.3080  147.5860 O   0  0  0  0  0  0  0  0  0  0  0  0
  194.4410  176.7540  145.9140 C   0  0  0  0  0  1  0  0  0  0  0  0
  193.2190  176.6190  146.6890 N   0  0  0  0  0  2  0  0  0  0  0  0
  192.5430  175.3690  146.8230 C   0  0  0  0  0  0  0  0  0  0  0  0
  193.0010  174.3360  146.2610 O   0  0  0  0  0  0  0  0  0  0  0  0
  185.0120  178.5240  140.4770 O   0  0  0  0  0  0  0  0  0  0  0  0
  183.6550  178.3210  140.4540 C   0  0  0  0  0  0  0  0  0  0  0  0
  182.5100  178.1490  140.4330 N   0  0  0  0  0  0  0  0  0  0  0  0
  1 14  1  0  0  0  0
  1 19  1  6  0  0  0
  2  4  1  0  0  0  0
  3  8  2  0  0  0  0
  4  6  1  0  0  0  0
  5  9  1  0  0  0  0
  6 14  1  0  0  0  0
  7 17  1  0  0  0  0
  8  2  1  0  0  0  0
  8 11  1  0  0  0  0
  9 17  1  0  0  0  0
  9  2  2  0  0  0  0
 10 16  2  0  0  0  0
 10  5  1  0  0  0  0
 12  7  2  0  0  0  0
 13  4  1  0  0  0  0
 13 18  2  0  0  0  0
 15 12  1  0  0  0  0
 15  5  2  0  0  0  0
 16  3  1  0  0  0  0
 17 13  1  0  0  0  0
 18  1  1  0  0  0  0
 20 21  1  0  0  0  0
 21 22  1  0  0  0  0
 22 19  1  0  0  0  0
 23 22  2  0  0  0  0
 24 16  1  0  0  0  0
 25 24  1  0  0  0  0
 26 25  3  0  0  0  0
M  END
>  <MODEL>
3

>  <REMARK>
 VINA RESULT:      -7.1      2.291      8.402
  Name = 
  4 active torsions:
  status: ('A' for Active; 'I' for Inactive)
    1  A    between atoms: C_1  and  O_10
    2  A    between atoms: C_7  and  O_23
    3  A    between atoms: O_10  and  C_21
    4  A    between atoms: C_22  and  O_23
                            x       y       z     vdW  Elec       q    Type
                         _______ _______ _______ _____ _____    ______ ____

>  <TORSDO>
F 4

$$$$
=
 OpenBabel11042417213D

 26 29  0  0  1  0  0  0  0  0999 V2000
  191.3550  174.2690  144.2740 C   0  0  1  0  0  3  0  0  0  0  0  0
  187.7500  176.3180  143.3600 C   0  0  0  0  0  0  0  0  0  0  0  0
  185.8170  177.2840  142.0950 C   0  0  0  0  0  3  0  0  0  0  0  0
  188.9820  175.7130  143.4200 N   0  0  0  0  0  0  0  0  0  0  0  0
  186.1110  177.1340  145.1660 C   0  0  0  0  0  0  0  0  0  0  0  0
  190.0900  175.2680  142.0960 S   0  0  0  0  0  0  0  0  0  0  0  0
  188.1760  176.0840  146.8580 C   0  0  0  0  0  3  0  0  0  0  0  0
  187.0560  176.6510  142.1750 C   0  0  0  0  0  0  0  0  0  0  0  0
  187.3330  176.5360  144.6110 C   0  0  0  0  0  0  0  0  0  0  0  0
  185.0690  177.6660  144.4300 C   0  0  0  0  0  3  0  0  0  0  0  0
  187.6180  176.3270  140.8350 C   0  0  0  0  0  1  0  0  0  0  0  0
  187.0160  176.6490  147.3990 C   0  0  0  0  0  3  0  0  0  0  0  0
  189.2780  175.5560  144.7330 C   0  0  0  0  0  0  0  0  0  0  0  0
  190.7240  173.8030  142.9650 C   0  0  0  0  0  2  0  0  0  0  0  0
  186.0090  177.1650  146.5640 C   0  0  0  0  0  3  0  0  0  0  0  0
  184.9120  177.7530  143.0550 C   0  0  0  0  0  0  0  0  0  0  0  0
  188.3090  176.0520  145.5110 N   0  0  0  0  0  0  0  0  0  0  0  0
  190.3410  174.8860  145.1940 C   0  0  0  0  0  3  0  0  0  0  0  0
  192.0590  173.2080  144.9210 O   0  0  0  0  0  0  0  0  0  0  0  0
  195.4420  174.7100  145.7090 C   0  0  0  0  0  1  0  0  0  0  0  0
  194.0610  174.5500  145.2850 N   0  0  0  0  0  2  0  0  0  0  0  0
  193.3910  173.2910  145.3450 C   0  0  0  0  0  0  0  0  0  0  0  0
  193.9960  172.2710  145.7780 O   0  0  0  0  0  0  0  0  0  0  0  0
  183.7260  178.3650  142.6270 O   0  0  0  0  0  0  0  0  0  0  0  0
  183.1720  178.1600  141.3890 C   0  0  0  0  0  0  0  0  0  0  0  0
  182.7030  177.9880  140.3450 N   0  0  0  0  0  0  0  0  0  0  0  0
  1 19  1  1  0  0  0
  1 18  1  0  0  0  0
  2  4  1  0  0  0  0
  2  9  2  0  0  0  0
  3  8  2  0  0  0  0
  3 16  1  0  0  0  0
  4 13  1  0  0  0  0
  5 15  2  0  0  0  0
  6 14  1  0  0  0  0
  6  4  1  0  0  0  0
  7 12  2  0  0  0  0
  8  2  1  0  0  0  0
  9  5  1  0  0  0  0
  9 17  1  0  0  0  0
 10  5  1  0  0  0  0
 11  8  1  0  0  0  0
 13 18  2  0  0  0  0
 13 17  1  0  0  0  0
 14  1  1  0  0  0  0
 15 12  1  0  0  0  0
 16 10  2  0  0  0  0
 17  7  1  0  0  0  0
 19 22  1  0  0  0  0
 21 22  1  0  0  0  0
 21 20  1  0  0  0  0
 22 23  2  0  0  0  0
 24 16  1  0  0  0  0
 25 24  1  0  0  0  0
 26 25  3  0  0  0  0
M  END
>  <MODEL>
4

>  <REMARK>
 VINA RESULT:      -6.9      2.755      8.068
  Name = 
  4 active torsions:
  status: ('A' for Active; 'I' for Inactive)
    1  A    between atoms: C_1  and  O_10
    2  A    between atoms: C_7  and  O_23
    3  A    between atoms: O_10  and  C_21
    4  A    between atoms: C_22  and  O_23
                            x       y       z     vdW  Elec       q    Type
                         _______ _______ _______ _____ _____    ______ ____

>  <TORSDO>
F 4

$$$$
=
 OpenBabel11042417213D

 26 29  0  0  1  0  0  0  0  0999 V2000
  192.6070  175.0390  146.1930 C   0  0  1  0  0  3  0  0  0  0  0  0
  188.7260  176.2130  144.9300 C   0  0  0  0  0  0  0  0  0  0  0  0
  186.4690  177.2950  144.8700 C   0  0  0  0  0  3  0  0  0  0  0  0
  189.8920  175.8670  145.5710 N   0  0  0  0  0  0  0  0  0  0  0  0
  187.8400  175.7770  142.5550 C   0  0  0  0  0  0  0  0  0  0  0  0
  190.3740  176.1400  147.2650 S   0  0  0  0  0  0  0  0  0  0  0  0
  190.3860  174.4730  142.3430 C   0  0  0  0  0  3  0  0  0  0  0  0
  187.6660  176.9540  145.4970 C   0  0  0  0  0  0  0  0  0  0  0  0
  188.7750  175.7220  143.6870 C   0  0  0  0  0  0  0  0  0  0  0  0
  186.5950  176.3780  142.5670 C   0  0  0  0  0  3  0  0  0  0  0  0
  187.7460  177.4720  146.8900 C   0  0  0  0  0  1  0  0  0  0  0  0
  189.5050  174.5200  141.2570 C   0  0  0  0  0  3  0  0  0  0  0  0
  190.6430  175.1800  144.6760 C   0  0  0  0  0  0  0  0  0  0  0  0
  192.1340  176.3310  146.8520 C   0  0  0  0  0  2  0  0  0  0  0  0
  188.2570  175.1580  141.3690 C   0  0  0  0  0  3  0  0  0  0  0  0
  185.9520  177.0600  143.5900 C   0  0  0  0  0  0  0  0  0  0  0  0
  190.0050  175.0510  143.5060 N   0  0  0  0  0  0  0  0  0  0  0  0
  191.9040  174.7890  144.8900 C   0  0  0  0  0  3  0  0  0  0  0  0
  194.0250  175.0280  146.0240 O   0  0  0  0  0  0  0  0  0  0  0  0
  196.3450  176.3910  143.3640 C   0  0  0  0  0  1  0  0  0  0  0  0
  195.5820  175.4840  144.2050 N   0  0  0  0  0  2  0  0  0  0  0  0
  194.7340  175.9560  145.2510 C   0  0  0  0  0  0  0  0  0  0  0  0
  194.6260  177.1940  145.4710 O   0  0  0  0  0  0  0  0  0  0  0  0
  184.6770  177.5460  143.2730 O   0  0  0  0  0  0  0  0  0  0  0  0
  184.3100  177.9470  142.0140 C   0  0  0  0  0  0  0  0  0  0  0  0
  184.0010  178.2860  140.9510 N   0  0  0  0  0  0  0  0  0  0  0  0
  1 19  1  6  0  0  0
  1 14  1  0  0  0  0
  2  8  1  0  0  0  0
  2  4  1  0  0  0  0
  3  8  2  0  0  0  0
  4  6  1  0  0  0  0
  5 10  1  0  0  0  0
  5  9  1  0  0  0  0
  7 17  1  0  0  0  0
  8 11  1  0  0  0  0
  9  2  2  0  0  0  0
 10 16  2  0  0  0  0
 12 15  1  0  0  0  0
 12  7  2  0  0  0  0
 13 18  2  0  0  0  0
 13  4  1  0  0  0  0
 14  6  1  0  0  0  0
 15  5  2  0  0  0  0
 16  3  1  0  0  0  0
 17  9  1  0  0  0  0
 17 13  1  0  0  0  0
 18  1  1  0  0  0  0
 20 21  1  0  0  0  0
 21 22  1  0  0  0  0
 22 23  2  0  0  0  0
 22 19  1  0  0  0  0
 24 16  1  0  0  0  0
 25 24  1  0  0  0  0
 26 25  3  0  0  0  0
M  END
>  <MODEL>
5

>  <REMARK>
 VINA RESULT:      -6.6      3.074      8.801
  Name = 
  4 active torsions:
  status: ('A' for Active; 'I' for Inactive)
    1  A    between atoms: C_1  and  O_10
    2  A    between atoms: C_7  and  O_23
    3  A    between atoms: O_10  and  C_21
    4  A    between atoms: C_22  and  O_23
                            x       y       z     vdW  Elec       q    Type
                         _______ _______ _______ _____ _____    ______ ____

>  <TORSDO>
F 4

$$$$
=
 OpenBabel11042417213D

 26 29  0  0  1  0  0  0  0  0999 V2000
  193.5040  175.6850  143.6380 C   0  0  1  0  0  3  0  0  0  0  0  0
  189.7190  176.6220  145.3200 C   0  0  0  0  0  0  0  0  0  0  0  0
  187.9510  177.4740  146.8750 C   0  0  0  0  0  3  0  0  0  0  0  0
  191.0230  176.3140  145.0140 N   0  0  0  0  0  0  0  0  0  0  0  0
  187.5170  176.4060  144.0090 C   0  0  0  0  0  0  0  0  0  0  0  0
  192.4790  176.4150  146.0380 S   0  0  0  0  0  0  0  0  0  0  0  0
  189.3320  175.3970  142.0290 C   0  0  0  0  0  3  0  0  0  0  0  0
  189.2710  177.1760  146.5390 C   0  0  0  0  0  0  0  0  0  0  0  0
  188.9590  176.3000  144.2680 C   0  0  0  0  0  0  0  0  0  0  0  0
  186.5710  176.8740  144.9000 C   0  0  0  0  0  3  0  0  0  0  0  0
  190.2260  177.5180  147.6280 C   0  0  0  0  0  1  0  0  0  0  0  0
  187.9610  175.4940  141.7700 C   0  0  0  0  0  3  0  0  0  0  0  0
  191.0240  175.8240  143.7500 C   0  0  0  0  0  0  0  0  0  0  0  0
  193.5690  176.8300  144.6440 C   0  0  0  0  0  2  0  0  0  0  0  0
  187.0760  175.9870  142.7460 C   0  0  0  0  0  3  0  0  0  0  0  0
  186.7340  177.3540  146.1920 C   0  0  0  0  0  0  0  0  0  0  0  0
  189.7860  175.7820  143.2450 N   0  0  0  0  0  0  0  0  0  0  0  0
  192.1290  175.5340  143.0530 C   0  0  0  0  0  3  0  0  0  0  0  0
  194.4870  175.8350  142.6120 O   0  0  0  0  0  0  0  0  0  0  0  0
  197.8650  174.4280  143.5760 C   0  0  0  0  0  1  0  0  0  0  0  0
  196.4390  174.5620  143.3260 N   0  0  0  0  0  2  0  0  0  0  0  0
  195.8690  175.7740  142.8310 C   0  0  0  0  0  0  0  0  0  0  0  0
  196.6050  176.7710  142.5960 O   0  0  0  0  0  0  0  0  0  0  0  0
  185.5540  177.7490  146.8350 O   0  0  0  0  0  0  0  0  0  0  0  0
  184.5480  178.4440  146.2140 C   0  0  0  0  0  0  0  0  0  0  0  0
  183.6980  179.0310  145.6900 N   0  0  0  0  0  0  0  0  0  0  0  0
  1 19  1  6  0  0  0
  1 14  1  0  0  0  0
  2  8  1  0  0  0  0
  4  2  1  0  0  0  0
  4  6  1  0  0  0  0
  5  9  1  0  0  0  0
  5 10  1  0  0  0  0
  7 17  1  0  0  0  0
  8  3  2  0  0  0  0
  8 11  1  0  0  0  0
  9  2  2  0  0  0  0
 10 16  2  0  0  0  0
 12  7  2  0  0  0  0
 12 15  1  0  0  0  0
 13  4  1  0  0  0  0
 14  6  1  0  0  0  0
 15  5  2  0  0  0  0
 16 24  1  0  0  0  0
 16  3  1  0  0  0  0
 17 13  1  0  0  0  0
 17  9  1  0  0  0  0
 18  1  1  0  0  0  0
 18 13  2  0  0  0  0
 19 22  1  0  0  0  0
 21 20  1  0  0  0  0
 22 21  1  0  0  0  0
 23 22  2  0  0  0  0
 25 24  1  0  0  0  0
 26 25  3  0  0  0  0
M  END
>  <MODEL>
6

>  <REMARK>
 VINA RESULT:      -6.6      3.799      8.664
  Name = 
  4 active torsions:
  status: ('A' for Active; 'I' for Inactive)
    1  A    between atoms: C_1  and  O_10
    2  A    between atoms: C_7  and  O_23
    3  A    between atoms: O_10  and  C_21
    4  A    between atoms: C_22  and  O_23
                            x       y       z     vdW  Elec       q    Type
                         _______ _______ _______ _____ _____    ______ ____

>  <TORSDO>
F 4

$$$$
=
 OpenBabel11042417213D

 26 29  0  0  1  0  0  0  0  0999 V2000
  187.2140  177.4160  143.1200 C   0  0  1  0  0  3  0  0  0  0  0  0
  190.7260  175.1550  143.8880 C   0  0  0  0  0  0  0  0  0  0  0  0
  192.7230  173.6790  143.5680 C   0  0  0  0  0  3  0  0  0  0  0  0
  189.5510  175.7210  143.4540 N   0  0  0  0  0  0  0  0  0  0  0  0
  192.0360  175.3180  146.0950 C   0  0  0  0  0  0  0  0  0  0  0  0
  188.6700  175.4680  141.9250 S   0  0  0  0  0  0  0  0  0  0  0  0
  189.8580  177.0780  146.7210 C   0  0  0  0  0  3  0  0  0  0  0  0
  191.5410  174.2800  143.1370 C   0  0  0  0  0  0  0  0  0  0  0  0
  190.9530  175.5760  145.1360 C   0  0  0  0  0  0  0  0  0  0  0  0
  193.1180  174.4860  145.8820 C   0  0  0  0  0  3  0  0  0  0  0  0
  191.1920  173.9090  141.7380 C   0  0  0  0  0  1  0  0  0  0  0  0
  190.8850  176.8420  147.6420 C   0  0  0  0  0  3  0  0  0  0  0  0
  189.0960  176.5040  144.4630 C   0  0  0  0  0  0  0  0  0  0  0  0
  188.0500  177.1760  141.8660 C   0  0  0  0  0  2  0  0  0  0  0  0
  191.9480  175.9750  147.3300 C   0  0  0  0  0  3  0  0  0  0  0  0
  193.4500  173.7350  144.7640 C   0  0  0  0  0  0  0  0  0  0  0  0
  189.9090  176.4460  145.5240 N   0  0  0  0  0  0  0  0  0  0  0  0
  188.0420  177.3220  144.3690 C   0  0  0  0  0  3  0  0  0  0  0  0
  186.5200  178.6630  143.0530 O   0  0  0  0  0  0  0  0  0  0  0  0
  184.0670  178.6620  145.9350 C   0  0  0  0  0  1  0  0  0  0  0  0
  184.9550  178.2250  144.8700 N   0  0  0  0  0  2  0  0  0  0  0  0
  185.6810  179.1520  144.0630 C   0  0  0  0  0  0  0  0  0  0  0  0
  185.5660  180.3920  144.2620 O   0  0  0  0  0  0  0  0  0  0  0  0
  194.6270  172.9840  144.8770 O   0  0  0  0  0  0  0  0  0  0  0  0
  195.7370  173.4120  145.5600 C   0  0  0  0  0  0  0  0  0  0  0  0
  196.6730  173.7740  146.1370 N   0  0  0  0  0  0  0  0  0  0  0  0
  1 19  1  6  0  0  0
  1 18  1  0  0  0  0
  2  9  2  0  0  0  0
  3 16  1  0  0  0  0
  4  2  1  0  0  0  0
  4 13  1  0  0  0  0
  5 15  2  0  0  0  0
  6  4  1  0  0  0  0
  7 12  2  0  0  0  0
  8  3  2  0  0  0  0
  8  2  1  0  0  0  0
  9 17  1  0  0  0  0
  9  5  1  0  0  0  0
 10  5  1  0  0  0  0
 11  8  1  0  0  0  0
 13 17  1  0  0  0  0
 14  6  1  0  0  0  0
 14  1  1  0  0  0  0
 15 12  1  0  0  0  0
 16 24  1  0  0  0  0
 16 10  2  0  0  0  0
 17  7  1  0  0  0  0
 18 13  2  0  0  0  0
 19 22  1  0  0  0  0
 21 20  1  0  0  0  0
 22 23  2  0  0  0  0
 22 21  1  0  0  0  0
 24 25  1  0  0  0  0
 25 26  3  0  0  0  0
M  END
>  <MODEL>
7

>  <REMARK>
 VINA RESULT:      -6.5      3.132      4.915
  Name = 
  4 active torsions:
  status: ('A' for Active; 'I' for Inactive)
    1  A    between atoms: C_1  and  O_10
    2  A    between atoms: C_7  and  O_23
    3  A    between atoms: O_10  and  C_21
    4  A    between atoms: C_22  and  O_23
                            x       y       z     vdW  Elec       q    Type
                         _______ _______ _______ _____ _____    ______ ____

>  <TORSDO>
F 4

$$$$
=
 OpenBabel11042417213D

 26 29  0  0  1  0  0  0  0  0999 V2000
  183.8270  178.6660  141.7230 C   0  0  1  0  0  3  0  0  0  0  0  0
  186.7530  177.2700  144.4660 C   0  0  0  0  0  0  0  0  0  0  0  0
  187.9770  176.7780  146.5940 C   0  0  0  0  0  3  0  0  0  0  0  0
  185.7620  177.8980  143.7510 N   0  0  0  0  0  0  0  0  0  0  0  0
  188.6410  175.6580  143.7920 C   0  0  0  0  0  0  0  0  0  0  0  0
  184.5480  179.0830  144.3020 S   0  0  0  0  0  0  0  0  0  0  0  0
  187.4180  176.0330  141.2240 C   0  0  0  0  0  3  0  0  0  0  0  0
  186.9640  177.3890  145.8570 C   0  0  0  0  0  0  0  0  0  0  0  0
  187.4770  176.5360  143.6130 C   0  0  0  0  0  0  0  0  0  0  0  0
  189.2950  175.4210  144.9860 C   0  0  0  0  0  3  0  0  0  0  0  0
  186.0650  178.2190  146.7050 C   0  0  0  0  0  1  0  0  0  0  0  0
  188.5250  175.1920  141.3820 C   0  0  0  0  0  3  0  0  0  0  0  0
  185.8980  177.5050  142.4610 C   0  0  0  0  0  0  0  0  0  0  0  0
  183.2810  178.4970  143.1370 C   0  0  0  0  0  2  0  0  0  0  0  0
  189.1220  175.0150  142.6430 C   0  0  0  0  0  3  0  0  0  0  0  0
  189.0240  175.9120  146.2550 C   0  0  0  0  0  0  0  0  0  0  0  0
  186.9390  176.6780  142.3140 N   0  0  0  0  0  0  0  0  0  0  0  0
  185.0340  177.8050  141.4840 C   0  0  0  0  0  3  0  0  0  0  0  0
  182.8180  178.4230  140.7410 O   0  0  0  0  0  0  0  0  0  0  0  0
  179.1570  178.1600  141.6590 C   0  0  0  0  0  1  0  0  0  0  0  0
  180.5650  177.8520  141.4750 N   0  0  0  0  0  2  0  0  0  0  0  0
  181.4730  178.7840  140.8890 C   0  0  0  0  0  0  0  0  0  0  0  0
  181.0640  179.9170  140.5130 O   0  0  0  0  0  0  0  0  0  0  0  0
  189.8950  175.4750  147.2620 O   0  0  0  0  0  0  0  0  0  0  0  0
  191.2540  175.3750  147.0990 C   0  0  0  0  0  0  0  0  0  0  0  0
  192.4000  175.2910  146.9610 N   0  0  0  0  0  0  0  0  0  0  0  0
  1 19  1  6  0  0  0
  1 14  1  0  0  0  0
  2  8  1  0  0  0  0
  4  6  1  0  0  0  0
  4  2  1  0  0  0  0
  5 10  1  0  0  0  0
  7 12  2  0  0  0  0
  7 17  1  0  0  0  0
  8  3  2  0  0  0  0
  8 11  1  0  0  0  0
  9  5  1  0  0  0  0
  9  2  2  0  0  0  0
 10 16  2  0  0  0  0
 12 15  1  0  0  0  0
 13  4  1  0  0  0  0
 14  6  1  0  0  0  0
 15  5  2  0  0  0  0
 16  3  1  0  0  0  0
 16 24  1  0  0  0  0
 17 13  1  0  0  0  0
 17  9  1  0  0  0  0
 18  1  1  0  0  0  0
 18 13  2  0  0  0  0
 19 22  1  0  0  0  0
 21 20  1  0  0  0  0
 22 21  1  0  0  0  0
 23 22  2  0  0  0  0
 25 24  1  0  0  0  0
 26 25  3  0  0  0  0
M  END
>  <MODEL>
8

>  <REMARK>
 VINA RESULT:      -6.5      1.588      3.210
  Name = 
  4 active torsions:
  status: ('A' for Active; 'I' for Inactive)
    1  A    between atoms: C_1  and  O_10
    2  A    between atoms: C_7  and  O_23
    3  A    between atoms: O_10  and  C_21
    4  A    between atoms: C_22  and  O_23
                            x       y       z     vdW  Elec       q    Type
                         _______ _______ _______ _____ _____    ______ ____

>  <TORSDO>
F 4

$$$$
=
 OpenBabel11042417213D

 26 29  0  0  1  0  0  0  0  0999 V2000
  182.3350  178.4890  141.4910 C   0  0  1  0  0  3  0  0  0  0  0  0
  186.2640  177.8700  142.9810 C   0  0  0  0  0  0  0  0  0  0  0  0
  188.7410  177.5260  143.0870 C   0  0  0  0  0  3  0  0  0  0  0  0
  185.0760  177.9520  142.2930 N   0  0  0  0  0  0  0  0  0  0  0  0
  186.8590  178.0730  145.4740 C   0  0  0  0  0  0  0  0  0  0  0  0
  184.7540  177.7000  140.5580 S   0  0  0  0  0  0  0  0  0  0  0  0
  184.0290  178.5160  145.6390 C   0  0  0  0  0  3  0  0  0  0  0  0
  187.5310  177.6340  142.4040 C   0  0  0  0  0  0  0  0  0  0  0  0
  186.0040  178.0480  144.2800 C   0  0  0  0  0  0  0  0  0  0  0  0
  188.2250  177.8690  145.4910 C   0  0  0  0  0  3  0  0  0  0  0  0
  187.6930  177.4810  140.9320 C   0  0  0  0  0  1  0  0  0  0  0  0
  184.8330  178.5450  146.7840 C   0  0  0  0  0  3  0  0  0  0  0  0
  184.1090  178.2040  143.2090 C   0  0  0  0  0  0  0  0  0  0  0  0
  183.4170  178.9310  140.5110 C   0  0  0  0  0  2  0  0  0  0  0  0
  186.2190  178.3240  146.6960 C   0  0  0  0  0  3  0  0  0  0  0  0
  189.0940  177.6160  144.4390 C   0  0  0  0  0  0  0  0  0  0  0  0
  184.6170  178.2630  144.4460 N   0  0  0  0  0  0  0  0  0  0  0  0
  182.8350  178.4790  142.9070 C   0  0  0  0  0  3  0  0  0  0  0  0
  181.1580  179.2880  141.3650 O   0  0  0  0  0  0  0  0  0  0  0  0
  178.3490  177.3540  139.7260 C   0  0  0  0  0  1  0  0  0  0  0  0
  179.6530  177.9260  140.0150 N   0  0  0  0  0  2  0  0  0  0  0  0
  179.8750  178.7710  141.1440 C   0  0  0  0  0  0  0  0  0  0  0  0
  178.9250  179.0450  141.9280 O   0  0  0  0  0  0  0  0  0  0  0  0
  190.4370  177.4470  144.8020 O   0  0  0  0  0  0  0  0  0  0  0  0
  190.8400  176.7500  145.9130 C   0  0  0  0  0  0  0  0  0  0  0  0
  191.1800  176.1630  146.8510 N   0  0  0  0  0  0  0  0  0  0  0  0
  1 19  1  1  0  0  0
  1 18  1  0  0  0  0
  2  9  2  0  0  0  0
  3 16  1  0  0  0  0
  4  2  1  0  0  0  0
  4 13  1  0  0  0  0
  5 10  1  0  0  0  0
  5 15  2  0  0  0  0
  6  4  1  0  0  0  0
  7 12  2  0  0  0  0
  8  2  1  0  0  0  0
  8  3  2  0  0  0  0
  9 17  1  0  0  0  0
  9  5  1  0  0  0  0
 11  8  1  0  0  0  0
 13 17  1  0  0  0  0
 14  6  1  0  0  0  0
 14  1  1  0  0  0  0
 15 12  1  0  0  0  0
 16 24  1  0  0  0  0
 16 10  2  0  0  0  0
 17  7  1  0  0  0  0
 18 13  2  0  0  0  0
 20 21  1  0  0  0  0
 21 22  1  0  0  0  0
 22 19  1  0  0  0  0
 22 23  2  0  0  0  0
 24 25  1  0  0  0  0
 25 26  3  0  0  0  0
M  END
>  <MODEL>
9

>  <REMARK>
 VINA RESULT:      -6.5      1.689      1.997
  Name = 
  4 active torsions:
  status: ('A' for Active; 'I' for Inactive)
    1  A    between atoms: C_1  and  O_10
    2  A    between atoms: C_7  and  O_23
    3  A    between atoms: O_10  and  C_21
    4  A    between atoms: C_22  and  O_23
                            x       y       z     vdW  Elec       q    Type
                         _______ _______ _______ _____ _____    ______ ____

>  <TORSDO>
F 4

$$$$
