=
 OpenBabel11042418533D

 27 31  0  0  1  0  0  0  0  0999 V2000
  187.6980  178.0940  144.1750 N   0  0  0  0  0  0  0  0  0  0  0  0
  184.9140  178.2840  146.3680 C   0  0  0  0  0  0  0  0  0  0  0  0
  183.8900  178.1820  140.8600 C   0  0  0  0  0  0  0  0  0  0  0  0
  186.4130  178.1860  146.2990 C   0  0  0  0  0  2  0  0  0  0  0  0
  183.9360  178.5080  142.1550 C   0  0  0  0  0  3  0  0  0  0  0  0
  185.2340  178.5170  142.8490 C   0  0  0  0  0  0  0  0  0  0  0  0
  184.2720  178.2270  147.4480 O   0  0  0  0  0  0  0  0  0  0  0  0
  182.6960  178.1530  140.2190 F   0  0  0  0  0  0  0  0  0  0  0  0
  185.1120  177.7490  140.1450 C   0  0  0  0  0  3  0  0  0  0  0  0
  186.5030  178.5860  142.0200 C   0  0  1  0  0  3  0  0  0  0  0  0
  185.3330  178.4740  144.1750 C   0  0  0  0  0  0  0  0  0  0  0  0
  186.6010  178.3050  144.8320 C   0  0  0  0  0  0  0  0  0  0  0  0
  187.6940  178.1160  142.7630 N   0  0  0  0  0  0  0  0  0  0  0  0
  186.3250  177.8860  140.6950 C   0  0  0  0  0  3  0  0  0  0  0  0
  184.2630  178.4420  145.1040 N   0  0  0  0  0  2  0  0  0  0  0  0
  188.9710  177.9930  142.0750 C   0  0  0  0  0  2  0  0  0  0  0  0
  189.8030  176.9370  142.7190 C   0  0  0  0  0  0  0  0  0  0  0  0
  191.4010  175.9670  143.8770 N   0  0  0  0  0  0  0  0  0  0  0  0
  190.5020  175.0230  143.5300 C   0  0  0  0  0  3  0  0  0  0  0  0
  190.9830  177.1520  143.3930 C   0  0  0  0  0  3  0  0  0  0  0  0
  189.4750  175.5980  142.8020 C   0  0  0  0  0  3  0  0  0  0  0  0
  193.3430  176.8370  145.1260 C   0  0  0  0  0  3  0  0  0  0  0  0
  194.9350  175.3220  146.1420 C   0  0  0  0  0  3  0  0  0  0  0  0
  193.0360  174.4440  144.9230 C   0  0  0  0  0  3  0  0  0  0  0  0
  194.2000  174.2320  145.6690 C   0  0  0  0  0  3  0  0  0  0  0  0
  194.5050  176.6240  145.8720 C   0  0  0  0  0  3  0  0  0  0  0  0
  192.5970  175.7490  144.6440 C   0  0  0  0  0  0  0  0  0  0  0  0
  1 12  2  0  0  0  0
  2  7  2  0  0  0  0
  3  5  2  0  0  0  0
  4  2  1  0  0  0  0
  5  6  1  0  0  0  0
  6 11  2  0  0  0  0
  8  3  1  0  0  0  0
  9 14  2  0  0  0  0
  9  3  1  0  0  0  0
 10 14  1  6  0  0  0
 10 13  1  0  0  0  0
 10  6  1  0  0  0  0
 11 12  1  0  0  0  0
 11 15  1  0  0  0  0
 12  4  1  0  0  0  0
 13  1  1  0  0  0  0
 15  2  1  0  0  0  0
 16 17  1  0  0  0  0
 16 13  1  0  0  0  0
 17 21  1  0  0  0  0
 17 20  2  0  0  0  0
 18 27  1  0  0  0  0
 19 18  1  0  0  0  0
 20 18  1  0  0  0  0
 21 19  2  0  0  0  0
 22 26  1  0  0  0  0
 24 25  2  0  0  0  0
 25 23  1  0  0  0  0
 26 23  2  0  0  0  0
 27 24  1  0  0  0  0
 27 22  2  0  0  0  0
M  END
>  <MODEL>
1

>  <REMARK>
 VINA RESULT:      -8.1      0.000      0.000
  Name = 
  3 active torsions:
  status: ('A' for Active; 'I' for Inactive)
    1  A    between atoms: C_13  and  C_17
    2  A    between atoms: C_17  and  N_20
    3  A    between atoms: N_21  and  C_24
                            x       y       z     vdW  Elec       q    Type
                         _______ _______ _______ _____ _____    ______ ____

>  <TORSDO>
F 3

$$$$
=
 OpenBabel11042418533D

 27 31  0  0  0  0  0  0  0  0999 V2000
  189.0080  177.5500  143.7960 N   0  0  0  0  0  0  0  0  0  0  0  0
  186.5630  177.8100  141.2370 C   0  0  0  0  0  0  0  0  0  0  0  0
  184.7950  177.9550  146.5520 C   0  0  0  0  0  0  0  0  0  0  0  0
  188.0360  177.6880  141.5150 C   0  0  0  0  0  2  0  0  0  0  0  0
  184.9770  177.6510  145.2640 C   0  0  0  0  0  2  0  0  0  0  0  0
  186.3460  177.4660  144.7540 C   0  0  0  0  0  0  0  0  0  0  0  0
  186.0960  177.9810  140.0820 O   0  0  0  0  0  0  0  0  0  0  0  0
  183.5390  178.1460  147.0230 F   0  0  0  0  0  0  0  0  0  0  0  0
  185.9530  178.1910  147.4440 C   0  0  0  0  0  3  0  0  0  0  0  0
  187.4620  177.1970  145.7460 C   0  0  0  0  0  0  0  0  0  0  0  0
  186.6360  177.5190  143.4580 C   0  0  0  0  0  0  0  0  0  0  0  0
  187.9960  177.5140  142.9880 C   0  0  0  0  0  0  0  0  0  0  0  0
  188.8010  177.5020  145.1930 N   0  0  0  0  0  0  0  0  0  0  0  0
  187.2000  177.8900  147.0610 C   0  0  0  0  0  3  0  0  0  0  0  0
  185.7240  177.7250  142.3930 N   0  0  0  0  0  2  0  0  0  0  0  0
  189.9730  177.4240  146.0540 C   0  0  0  0  0  2  0  0  0  0  0  0
  190.7220  176.1640  145.7910 C   0  0  0  0  0  0  0  0  0  0  0  0
  192.3720  174.7170  145.6430 N   0  0  0  0  0  0  0  0  0  0  0  0
  191.2190  174.0680  145.3760 C   0  0  0  0  0  3  0  0  0  0  0  0
  192.0840  176.0050  145.9070 C   0  0  0  0  0  3  0  0  0  0  0  0
  190.1550  174.9470  145.4660 C   0  0  0  0  0  3  0  0  0  0  0  0
  193.8480  172.7470  145.4790 C   0  0  0  0  0  3  0  0  0  0  0  0
  196.2490  172.9850  145.6780 C   0  0  0  0  0  3  0  0  0  0  0  0
  194.8220  174.9340  145.8410 C   0  0  0  0  0  3  0  0  0  0  0  0
  196.0980  174.3620  145.8530 C   0  0  0  0  0  3  0  0  0  0  0  0
  195.1240  172.1780  145.4900 C   0  0  0  0  0  3  0  0  0  0  0  0
  193.6840  174.1310  145.6550 C   0  0  0  0  0  0  0  0  0  0  0  0
  1 13  1  0  0  0  0
  2  4  1  0  0  0  0
  2 15  1  0  0  0  0
  3  8  1  0  0  0  0
  3  9  2  0  0  0  0
  4 12  1  0  0  0  0
  5  3  1  0  0  0  0
  6  5  1  0  0  0  0
  6 10  1  0  0  0  0
  7  2  2  0  0  0  0
 10 14  2  0  0  0  0
 11  6  2  0  0  0  0
 12 11  1  0  0  0  0
 12  1  2  0  0  0  0
 13 10  1  0  0  0  0
 13 16  1  0  0  0  0
 14  9  1  0  0  0  0
 15 11  1  0  0  0  0
 17 20  2  0  0  0  0
 17 16  1  0  0  0  0
 18 27  1  0  0  0  0
 18 20  1  0  0  0  0
 19 21  2  0  0  0  0
 19 18  1  0  0  0  0
 21 17  1  0  0  0  0
 22 26  2  0  0  0  0
 22 27  1  0  0  0  0
 23 25  2  0  0  0  0
 24 25  1  0  0  0  0
 26 23  1  0  0  0  0
 27 24  2  0  0  0  0
M  END
>  <MODEL>
2

>  <REMARK>
 VINA RESULT:      -8.1      2.614      4.147
  Name = 
  3 active torsions:
  status: ('A' for Active; 'I' for Inactive)
    1  A    between atoms: C_13  and  C_17
    2  A    between atoms: C_17  and  N_20
    3  A    between atoms: N_21  and  C_24
                            x       y       z     vdW  Elec       q    Type
                         _______ _______ _______ _____ _____    ______ ____

>  <TORSDO>
F 3

$$$$
=
 OpenBabel11042418533D

 27 31  0  0  0  0  0  0  0  0999 V2000
  189.2530  177.4570  144.1150 N   0  0  0  0  0  0  0  0  0  0  0  0
  187.0450  177.6810  141.3460 C   0  0  0  0  0  0  0  0  0  0  0  0
  184.8040  177.7930  146.4800 C   0  0  0  0  0  0  0  0  0  0  0  0
  188.4890  177.5810  141.7550 C   0  0  0  0  0  2  0  0  0  0  0  0
  185.1060  177.4930  145.2130 C   0  0  0  0  0  2  0  0  0  0  0  0
  186.5180  177.3300  144.8290 C   0  0  0  0  0  0  0  0  0  0  0  0
  186.6810  177.8460  140.1530 O   0  0  0  0  0  0  0  0  0  0  0  0
  183.5080  177.9630  146.8370 F   0  0  0  0  0  0  0  0  0  0  0  0
  185.8730  178.0450  147.4730 C   0  0  0  0  0  3  0  0  0  0  0  0
  187.5440  177.0770  145.9180 C   0  0  0  0  0  0  0  0  0  0  0  0
  186.9230  177.3890  143.5640 C   0  0  0  0  0  0  0  0  0  0  0  0
  188.3190  177.4060  143.2190 C   0  0  0  0  0  0  0  0  0  0  0  0
  188.9220  177.4040  145.4870 N   0  0  0  0  0  0  0  0  0  0  0  0
  187.1540  177.7640  147.2040 C   0  0  0  0  0  3  0  0  0  0  0  0
  186.1070  177.5820  142.4210 N   0  0  0  0  0  2  0  0  0  0  0  0
  190.0130  177.3430  146.4510 C   0  0  0  0  0  2  0  0  0  0  0  0
  191.0190  176.3280  146.0260 C   0  0  0  0  0  0  0  0  0  0  0  0
  192.9230  175.4200  145.4070 N   0  0  0  0  0  0  0  0  0  0  0  0
  192.0310  174.4280  145.6070 C   0  0  0  0  0  3  0  0  0  0  0  0
  192.3200  176.5950  145.6680 C   0  0  0  0  0  3  0  0  0  0  0  0
  190.8180  174.9610  146.0050 C   0  0  0  0  0  3  0  0  0  0  0  0
  194.7540  175.8370  143.8070 C   0  0  0  0  0  3  0  0  0  0  0  0
  196.9620  174.9220  144.1930 C   0  0  0  0  0  3  0  0  0  0  0  0
  195.1820  174.5000  145.7790 C   0  0  0  0  0  3  0  0  0  0  0  0
  196.5120  174.3350  145.3780 C   0  0  0  0  0  3  0  0  0  0  0  0
  196.0830  175.6730  143.4080 C   0  0  0  0  0  3  0  0  0  0  0  0
  194.2900  175.2520  144.9970 C   0  0  0  0  0  0  0  0  0  0  0  0
  1 13  1  0  0  0  0
  2  4  1  0  0  0  0
  2 15  1  0  0  0  0
  3  8  1  0  0  0  0
  3  9  2  0  0  0  0
  4 12  1  0  0  0  0
  5  3  1  0  0  0  0
  6  5  1  0  0  0  0
  6 10  1  0  0  0  0
  7  2  2  0  0  0  0
 10 14  2  0  0  0  0
 11  6  2  0  0  0  0
 12 11  1  0  0  0  0
 12  1  2  0  0  0  0
 13 10  1  0  0  0  0
 13 16  1  0  0  0  0
 14  9  1  0  0  0  0
 15 11  1  0  0  0  0
 17 16  1  0  0  0  0
 18 19  1  0  0  0  0
 18 20  1  0  0  0  0
 19 21  2  0  0  0  0
 20 17  2  0  0  0  0
 21 17  1  0  0  0  0
 22 27  1  0  0  0  0
 23 25  2  0  0  0  0
 25 24  1  0  0  0  0
 26 22  2  0  0  0  0
 26 23  1  0  0  0  0
 27 18  1  0  0  0  0
 27 24  2  0  0  0  0
M  END
>  <MODEL>
3

>  <REMARK>
 VINA RESULT:      -7.9      2.688      4.136
  Name = 
  3 active torsions:
  status: ('A' for Active; 'I' for Inactive)
    1  A    between atoms: C_13  and  C_17
    2  A    between atoms: C_17  and  N_20
    3  A    between atoms: N_21  and  C_24
                            x       y       z     vdW  Elec       q    Type
                         _______ _______ _______ _____ _____    ______ ____

>  <TORSDO>
F 3

$$$$
=
 OpenBabel11042418533D

 27 31  0  0  1  0  0  0  0  0999 V2000
  190.9740  175.0400  143.3930 N   0  0  0  0  0  0  0  0  0  0  0  0
  191.6170  171.5800  142.9350 C   0  0  0  0  0  0  0  0  0  0  0  0
  195.3770  174.5670  145.8210 C   0  0  0  0  0  0  0  0  0  0  0  0
  190.6370  172.6890  142.6660 C   0  0  0  0  0  2  0  0  0  0  0  0
  194.7710  173.7700  144.9360 C   0  0  0  0  0  3  0  0  0  0  0  0
  193.5390  174.2330  144.2750 C   0  0  0  0  0  0  0  0  0  0  0  0
  191.3840  170.3770  142.6500 O   0  0  0  0  0  0  0  0  0  0  0  0
  196.5010  174.1400  146.4460 F   0  0  0  0  0  0  0  0  0  0  0  0
  194.7770  175.8650  146.2050 C   0  0  0  0  0  3  0  0  0  0  0  0
  193.2280  175.7180  144.2740 C   0  0  1  0  0  3  0  0  0  0  0  0
  192.6960  173.3980  143.6760 C   0  0  0  0  0  0  0  0  0  0  0  0
  191.4150  173.8380  143.1920 C   0  0  0  0  0  0  0  0  0  0  0  0
  191.7960  175.9980  144.0260 N   0  0  0  0  0  0  0  0  0  0  0  0
  193.7470  176.3840  145.5240 C   0  0  0  0  0  3  0  0  0  0  0  0
  192.8400  171.9940  143.5490 N   0  0  0  0  0  2  0  0  0  0  0  0
  191.3010  177.3660  144.1200 C   0  0  0  0  0  2  0  0  0  0  0  0
  190.0790  177.4130  144.9710 C   0  0  0  0  0  0  0  0  0  0  0  0
  187.9920  177.7110  145.5990 N   0  0  0  0  0  0  0  0  0  0  0  0
  188.6570  177.1250  146.6160 C   0  0  0  0  0  3  0  0  0  0  0  0
  188.8500  177.8890  144.5760 C   0  0  0  0  0  3  0  0  0  0  0  0
  189.9760  176.9150  146.2550 C   0  0  0  0  0  3  0  0  0  0  0  0
  185.7430  177.6010  146.6070 C   0  0  0  0  0  3  0  0  0  0  0  0
  183.8840  178.7860  145.6070 C   0  0  0  0  0  3  0  0  0  0  0  0
  186.0820  178.9110  144.5990 C   0  0  0  0  0  3  0  0  0  0  0  0
  184.7290  179.2640  144.6020 C   0  0  0  0  0  3  0  0  0  0  0  0
  184.3920  177.9550  146.6090 C   0  0  0  0  0  3  0  0  0  0  0  0
  186.6020  178.0750  145.6010 C   0  0  0  0  0  0  0  0  0  0  0  0
  1 13  1  0  0  0  0
  2 15  1  0  0  0  0
  3  9  1  0  0  0  0
  3  8  1  0  0  0  0
  4  2  1  0  0  0  0
  4 12  1  0  0  0  0
  5  3  2  0  0  0  0
  6  5  1  0  0  0  0
  7  2  2  0  0  0  0
 10  6  1  0  0  0  0
 10 14  1  1  0  0  0
 11  6  2  0  0  0  0
 12  1  2  0  0  0  0
 12 11  1  0  0  0  0
 13 16  1  0  0  0  0
 13 10  1  0  0  0  0
 14  9  2  0  0  0  0
 15 11  1  0  0  0  0
 16 17  1  0  0  0  0
 17 21  1  0  0  0  0
 18 27  1  0  0  0  0
 18 19  1  0  0  0  0
 20 17  2  0  0  0  0
 20 18  1  0  0  0  0
 21 19  2  0  0  0  0
 22 26  1  0  0  0  0
 23 26  2  0  0  0  0
 24 25  2  0  0  0  0
 24 27  1  0  0  0  0
 25 23  1  0  0  0  0
 27 22  2  0  0  0  0
M  END
>  <MODEL>
4

>  <REMARK>
 VINA RESULT:      -7.9      4.328      8.835
  Name = 
  3 active torsions:
  status: ('A' for Active; 'I' for Inactive)
    1  A    between atoms: C_13  and  C_17
    2  A    between atoms: C_17  and  N_20
    3  A    between atoms: N_21  and  C_24
                            x       y       z     vdW  Elec       q    Type
                         _______ _______ _______ _____ _____    ______ ____

>  <TORSDO>
F 3

$$$$
=
 OpenBabel11042418533D

 27 31  0  0  0  0  0  0  0  0999 V2000
  187.8090  176.0450  146.8560 N   0  0  0  0  0  0  0  0  0  0  0  0
  185.1750  178.2590  145.9850 C   0  0  0  0  0  0  0  0  0  0  0  0
  188.0240  175.8310  141.8160 C   0  0  0  0  0  0  0  0  0  0  0  0
  185.9050  177.6170  147.1320 C   0  0  0  0  0  2  0  0  0  0  0  0
  187.4400  176.7110  142.6340 C   0  0  0  0  0  2  0  0  0  0  0  0
  187.6610  176.6010  144.0850 C   0  0  0  0  0  0  0  0  0  0  0  0
  184.1500  178.9720  146.1380 O   0  0  0  0  0  0  0  0  0  0  0  0
  187.8100  175.9150  140.4800 F   0  0  0  0  0  0  0  0  0  0  0  0
  188.8150  174.7030  142.3580 C   0  0  0  0  0  3  0  0  0  0  0  0
  188.8490  175.7990  144.5820 C   0  0  0  0  0  0  0  0  0  0  0  0
  186.8610  177.1840  144.9740 C   0  0  0  0  0  0  0  0  0  0  0  0
  186.9820  176.9240  146.3830 C   0  0  0  0  0  0  0  0  0  0  0  0
  188.6970  175.3700  145.9910 N   0  0  0  0  0  0  0  0  0  0  0  0
  189.1610  174.6540  143.6510 C   0  0  0  0  0  3  0  0  0  0  0  0
  185.7310  177.9930  144.6940 N   0  0  0  0  0  2  0  0  0  0  0  0
  189.6870  174.4820  146.5850 C   0  0  0  0  0  2  0  0  0  0  0  0
  191.0370  175.1100  146.5370 C   0  0  0  0  0  0  0  0  0  0  0  0
  193.1110  175.5390  145.9460 N   0  0  0  0  0  0  0  0  0  0  0  0
  192.7180  176.4910  146.8170 C   0  0  0  0  0  3  0  0  0  0  0  0
  192.0870  174.6850  145.7560 C   0  0  0  0  0  3  0  0  0  0  0  0
  191.4110  176.2580  147.2080 C   0  0  0  0  0  3  0  0  0  0  0  0
  194.7770  176.3860  144.3350 C   0  0  0  0  0  3  0  0  0  0  0  0
  196.9220  175.2910  144.0880 C   0  0  0  0  0  3  0  0  0  0  0  0
  195.3050  174.4420  145.6770 C   0  0  0  0  0  3  0  0  0  0  0  0
  196.5590  174.3600  145.0640 C   0  0  0  0  0  3  0  0  0  0  0  0
  196.0300  176.3040  143.7240 C   0  0  0  0  0  3  0  0  0  0  0  0
  194.4010  175.4550  145.3170 C   0  0  0  0  0  0  0  0  0  0  0  0
  2  7  2  0  0  0  0
  2  4  1  0  0  0  0
  3  9  2  0  0  0  0
  3  5  1  0  0  0  0
  5  6  1  0  0  0  0
  6 10  1  0  0  0  0
  6 11  2  0  0  0  0
  8  3  1  0  0  0  0
  9 14  1  0  0  0  0
 10 13  1  0  0  0  0
 11 12  1  0  0  0  0
 12  1  2  0  0  0  0
 12  4  1  0  0  0  0
 13 16  1  0  0  0  0
 13  1  1  0  0  0  0
 14 10  2  0  0  0  0
 15 11  1  0  0  0  0
 15  2  1  0  0  0  0
 17 16  1  0  0  0  0
 17 21  1  0  0  0  0
 18 19  1  0  0  0  0
 19 21  2  0  0  0  0
 20 18  1  0  0  0  0
 20 17  2  0  0  0  0
 22 27  1  0  0  0  0
 23 25  2  0  0  0  0
 25 24  1  0  0  0  0
 26 23  1  0  0  0  0
 26 22  2  0  0  0  0
 27 24  2  0  0  0  0
 27 18  1  0  0  0  0
M  END
>  <MODEL>
5

>  <REMARK>
 VINA RESULT:      -7.8      2.425      3.602
  Name = 
  3 active torsions:
  status: ('A' for Active; 'I' for Inactive)
    1  A    between atoms: C_13  and  C_17
    2  A    between atoms: C_17  and  N_20
    3  A    between atoms: N_21  and  C_24
                            x       y       z     vdW  Elec       q    Type
                         _______ _______ _______ _____ _____    ______ ____

>  <TORSDO>
F 3

$$$$
=
 OpenBabel11042418533D

 27 31  0  0  1  0  0  0  0  0999 V2000
  187.7620  177.3600  142.7880 N   0  0  0  0  0  0  0  0  0  0  0  0
  184.6430  178.2910  141.3730 C   0  0  0  0  0  0  0  0  0  0  0  0
  185.0130  178.0990  146.9600 C   0  0  0  0  0  0  0  0  0  0  0  0
  186.0640  177.9090  141.0600 C   0  0  0  0  0  2  0  0  0  0  0  0
  184.6490  177.9200  145.6870 C   0  0  0  0  0  3  0  0  0  0  0  0
  185.6740  177.5830  144.6850 C   0  0  0  0  0  0  0  0  0  0  0  0
  183.8250  178.6640  140.4930 O   0  0  0  0  0  0  0  0  0  0  0  0
  184.0780  178.4270  147.8840 F   0  0  0  0  0  0  0  0  0  0  0  0
  186.4400  178.0470  147.3530 C   0  0  0  0  0  3  0  0  0  0  0  0
  187.0040  177.0310  145.1620 C   0  0  1  0  0  3  0  0  0  0  0  0
  185.4720  177.7390  143.3800 C   0  0  0  0  0  0  0  0  0  0  0  0
  186.5360  177.5750  142.4270 C   0  0  0  0  0  0  0  0  0  0  0  0
  188.0770  177.1850  144.1540 N   0  0  0  0  0  0  0  0  0  0  0  0
  187.3790  177.6000  146.5080 C   0  0  0  0  0  3  0  0  0  0  0  0
  184.2880  178.2050  142.7550 N   0  0  0  0  0  2  0  0  0  0  0  0
  189.4470  176.8270  144.4980 C   0  0  0  0  0  2  0  0  0  0  0  0
  189.6560  175.3620  144.3170 C   0  0  0  0  0  0  0  0  0  0  0  0
  190.0670  173.4220  143.3660 N   0  0  0  0  0  0  0  0  0  0  0  0
  190.0040  173.2310  144.7000 C   0  0  0  0  0  3  0  0  0  0  0  0
  189.8630  174.7290  143.1130 C   0  0  0  0  0  3  0  0  0  0  0  0
  189.7520  174.4340  145.3350 C   0  0  0  0  0  3  0  0  0  0  0  0
  190.7680  171.1330  142.7710 C   0  0  0  0  0  3  0  0  0  0  0  0
  190.8170  170.4200  140.4580 C   0  0  0  0  0  3  0  0  0  0  0  0
  190.1230  172.6720  141.0170 C   0  0  0  0  0  3  0  0  0  0  0  0
  190.3710  171.6830  140.0590 C   0  0  0  0  0  3  0  0  0  0  0  0
  191.0140  170.1450  141.8140 C   0  0  0  0  0  3  0  0  0  0  0  0
  190.3200  172.4060  142.3820 C   0  0  0  0  0  0  0  0  0  0  0  0
  1 13  1  0  0  0  0
  2 15  1  0  0  0  0
  3  9  1  0  0  0  0
  3  8  1  0  0  0  0
  4  2  1  0  0  0  0
  4 12  1  0  0  0  0
  5  3  2  0  0  0  0
  6 10  1  0  0  0  0
  6  5  1  0  0  0  0
  7  2  2  0  0  0  0
 10 14  1  1  0  0  0
 11  6  2  0  0  0  0
 12  1  2  0  0  0  0
 12 11  1  0  0  0  0
 13 16  1  0  0  0  0
 13 10  1  0  0  0  0
 14  9  2  0  0  0  0
 15 11  1  0  0  0  0
 17 16  1  0  0  0  0
 17 21  1  0  0  0  0
 18 19  1  0  0  0  0
 19 21  2  0  0  0  0
 20 18  1  0  0  0  0
 20 17  2  0  0  0  0
 23 26  1  0  0  0  0
 24 27  2  0  0  0  0
 25 23  2  0  0  0  0
 25 24  1  0  0  0  0
 26 22  2  0  0  0  0
 27 22  1  0  0  0  0
 27 18  1  0  0  0  0
M  END
>  <MODEL>
6

>  <REMARK>
 VINA RESULT:      -7.7      3.140      4.977
  Name = 
  3 active torsions:
  status: ('A' for Active; 'I' for Inactive)
    1  A    between atoms: C_13  and  C_17
    2  A    between atoms: C_17  and  N_20
    3  A    between atoms: N_21  and  C_24
                            x       y       z     vdW  Elec       q    Type
                         _______ _______ _______ _____ _____    ______ ____

>  <TORSDO>
F 3

$$$$
=
 OpenBabel11042418533D

 27 31  0  0  0  0  0  0  0  0999 V2000
  193.0750  176.5150  145.8060 N   0  0  0  0  0  0  0  0  0  0  0  0
  195.8730  175.5810  143.8330 C   0  0  0  0  0  0  0  0  0  0  0  0
  191.5420  172.0330  144.0560 C   0  0  0  0  0  0  0  0  0  0  0  0
  195.2980  176.6610  144.7090 C   0  0  0  0  0  2  0  0  0  0  0  0
  192.7570  172.5870  144.1110 C   0  0  0  0  0  2  0  0  0  0  0  0
  192.9320  173.8690  144.8120 C   0  0  0  0  0  0  0  0  0  0  0  0
  196.9540  175.7130  143.2040 O   0  0  0  0  0  0  0  0  0  0  0  0
  191.3700  170.8620  143.3960 F   0  0  0  0  0  0  0  0  0  0  0  0
  190.3650  172.7360  144.6140 C   0  0  0  0  0  3  0  0  0  0  0  0
  191.8690  174.3100  145.8010 C   0  0  0  0  0  0  0  0  0  0  0  0
  193.9910  174.6500  144.6150 C   0  0  0  0  0  0  0  0  0  0  0  0
  194.0650  175.9750  145.1680 C   0  0  0  0  0  0  0  0  0  0  0  0
  191.9050  175.7670  146.0620 N   0  0  0  0  0  0  0  0  0  0  0  0
  190.5030  173.8230  145.3840 C   0  0  0  0  0  3  0  0  0  0  0  0
  195.0920  174.3850  143.7620 N   0  0  0  0  0  2  0  0  0  0  0  0
  190.8700  176.3780  146.8860 C   0  0  0  0  0  2  0  0  0  0  0  0
  189.7940  176.9450  146.0250 C   0  0  0  0  0  0  0  0  0  0  0  0
  187.8570  177.7670  145.3880 N   0  0  0  0  0  0  0  0  0  0  0  0
  188.7150  177.8650  144.3510 C   0  0  0  0  0  3  0  0  0  0  0  0
  188.5060  177.2100  146.4280 C   0  0  0  0  0  3  0  0  0  0  0  0
  189.9510  177.3610  144.7170 C   0  0  0  0  0  3  0  0  0  0  0  0
  185.6410  177.8860  146.4670 C   0  0  0  0  0  3  0  0  0  0  0  0
  183.8020  179.0290  145.3850 C   0  0  0  0  0  3  0  0  0  0  0  0
  185.9670  178.9280  144.3060 C   0  0  0  0  0  3  0  0  0  0  0  0
  184.6320  179.3430  144.3060 C   0  0  0  0  0  3  0  0  0  0  0  0
  184.3070  178.3020  146.4660 C   0  0  0  0  0  3  0  0  0  0  0  0
  186.4850  178.1950  145.3870 C   0  0  0  0  0  0  0  0  0  0  0  0
  1 13  1  0  0  0  0
  2  4  1  0  0  0  0
  3  5  1  0  0  0  0
  3  9  2  0  0  0  0
  4 12  1  0  0  0  0
  5  6  1  0  0  0  0
  6 10  1  0  0  0  0
  7  2  2  0  0  0  0
  8  3  1  0  0  0  0
  9 14  1  0  0  0  0
 10 13  1  0  0  0  0
 11  6  2  0  0  0  0
 11 12  1  0  0  0  0
 12  1  2  0  0  0  0
 13 16  1  0  0  0  0
 14 10  2  0  0  0  0
 15  2  1  0  0  0  0
 15 11  1  0  0  0  0
 17 20  2  0  0  0  0
 17 16  1  0  0  0  0
 18 20  1  0  0  0  0
 19 21  2  0  0  0  0
 19 18  1  0  0  0  0
 21 17  1  0  0  0  0
 23 26  2  0  0  0  0
 24 27  1  0  0  0  0
 25 24  2  0  0  0  0
 25 23  1  0  0  0  0
 26 22  1  0  0  0  0
 27 18  1  0  0  0  0
 27 22  2  0  0  0  0
M  END
>  <MODEL>
7

>  <REMARK>
 VINA RESULT:      -7.6      4.071      8.667
  Name = 
  3 active torsions:
  status: ('A' for Active; 'I' for Inactive)
    1  A    between atoms: C_13  and  C_17
    2  A    between atoms: C_17  and  N_20
    3  A    between atoms: N_21  and  C_24
                            x       y       z     vdW  Elec       q    Type
                         _______ _______ _______ _____ _____    ______ ____

>  <TORSDO>
F 3

$$$$
=
 OpenBabel11042418533D

 27 31  0  0  1  0  0  0  0  0999 V2000
  191.9930  174.4670  142.1770 N   0  0  0  0  0  0  0  0  0  0  0  0
  195.0850  175.6860  140.9340 C   0  0  0  0  0  0  0  0  0  0  0  0
  193.8160  176.7780  146.2810 C   0  0  0  0  0  0  0  0  0  0  0  0
  193.8540  174.8940  140.5890 C   0  0  0  0  0  2  0  0  0  0  0  0
  194.1560  176.8760  144.9920 C   0  0  0  0  0  3  0  0  0  0  0  0
  193.3480  176.1780  143.9790 C   0  0  0  0  0  0  0  0  0  0  0  0
  196.0630  175.8070  140.1520 O   0  0  0  0  0  0  0  0  0  0  0  0
  194.5670  177.4030  147.2200 F   0  0  0  0  0  0  0  0  0  0  0  0
  192.6950  175.9080  146.7030 C   0  0  0  0  0  3  0  0  0  0  0  0
  191.9430  175.7360  144.3460 C   0  0  1  0  0  3  0  0  0  0  0  0
  193.8030  175.9270  142.7550 C   0  0  0  0  0  0  0  0  0  0  0  0
  193.0760  175.0920  141.8370 C   0  0  0  0  0  0  0  0  0  0  0  0
  191.4340  174.6660  143.4590 N   0  0  0  0  0  0  0  0  0  0  0  0
  191.8500  175.3790  145.8090 C   0  0  0  0  0  3  0  0  0  0  0  0
  195.0670  176.2930  142.2290 N   0  0  0  0  0  2  0  0  0  0  0  0
  190.1540  174.0360  143.7510 C   0  0  0  0  0  2  0  0  0  0  0  0
  189.0410  174.9980  143.5120 C   0  0  0  0  0  0  0  0  0  0  0  0
  187.4400  176.4600  143.8830 N   0  0  0  0  0  0  0  0  0  0  0  0
  187.6220  176.3650  142.5490 C   0  0  0  0  0  3  0  0  0  0  0  0
  188.3090  175.6300  144.4910 C   0  0  0  0  0  3  0  0  0  0  0  0
  188.6290  175.4560  142.2770 C   0  0  0  0  0  3  0  0  0  0  0  0
  185.7030  176.8130  145.5990 C   0  0  0  0  0  3  0  0  0  0  0  0
  184.6250  178.9680  145.8370 C   0  0  0  0  0  3  0  0  0  0  0  0
  186.3290  178.6460  144.1460 C   0  0  0  0  0  3  0  0  0  0  0  0
  185.4010  179.4720  144.7900 C   0  0  0  0  0  3  0  0  0  0  0  0
  184.7770  177.6390  146.2410 C   0  0  0  0  0  3  0  0  0  0  0  0
  186.4880  177.3090  144.5440 C   0  0  0  0  0  0  0  0  0  0  0  0
  1 13  1  0  0  0  0
  2 15  1  0  0  0  0
  3  9  1  0  0  0  0
  3  8  1  0  0  0  0
  4  2  1  0  0  0  0
  4 12  1  0  0  0  0
  5  3  2  0  0  0  0
  6 10  1  0  0  0  0
  6  5  1  0  0  0  0
  7  2  2  0  0  0  0
 10 14  1  1  0  0  0
 11  6  2  0  0  0  0
 12  1  2  0  0  0  0
 12 11  1  0  0  0  0
 13 16  1  0  0  0  0
 13 10  1  0  0  0  0
 14  9  2  0  0  0  0
 15 11  1  0  0  0  0
 17 16  1  0  0  0  0
 17 20  2  0  0  0  0
 18 20  1  0  0  0  0
 18 27  1  0  0  0  0
 19 18  1  0  0  0  0
 21 19  2  0  0  0  0
 21 17  1  0  0  0  0
 22 26  1  0  0  0  0
 23 26  2  0  0  0  0
 24 27  1  0  0  0  0
 24 25  2  0  0  0  0
 25 23  1  0  0  0  0
 27 22  2  0  0  0  0
M  END
>  <MODEL>
8

>  <REMARK>
 VINA RESULT:      -7.5      4.314      8.680
  Name = 
  3 active torsions:
  status: ('A' for Active; 'I' for Inactive)
    1  A    between atoms: C_13  and  C_17
    2  A    between atoms: C_17  and  N_20
    3  A    between atoms: N_21  and  C_24
                            x       y       z     vdW  Elec       q    Type
                         _______ _______ _______ _____ _____    ______ ____

>  <TORSDO>
F 3

$$$$
=
 OpenBabel11042418533D

 27 31  0  0  1  0  0  0  0  0999 V2000
  192.0670  175.4610  142.6000 N   0  0  0  0  0  0  0  0  0  0  0  0
  195.3620  176.2080  143.6860 C   0  0  0  0  0  0  0  0  0  0  0  0
  191.4290  175.4750  147.6100 C   0  0  0  0  0  0  0  0  0  0  0  0
  194.4970  175.9570  142.4810 C   0  0  0  0  0  2  0  0  0  0  0  0
  192.4120  175.9640  146.8470 C   0  0  0  0  0  3  0  0  0  0  0  0
  192.2650  175.9400  145.3820 C   0  0  0  0  0  0  0  0  0  0  0  0
  196.6090  176.3560  143.6160 O   0  0  0  0  0  0  0  0  0  0  0  0
  191.5650  175.4770  148.9580 F   0  0  0  0  0  0  0  0  0  0  0  0
  190.2420  174.8360  146.9970 C   0  0  0  0  0  3  0  0  0  0  0  0
  190.8770  175.7760  144.7920 C   0  0  1  0  0  3  0  0  0  0  0  0
  193.3040  176.0640  144.5610 C   0  0  0  0  0  0  0  0  0  0  0  0
  193.1720  175.8620  143.1430 C   0  0  0  0  0  0  0  0  0  0  0  0
  190.9080  175.2960  143.3920 N   0  0  0  0  0  0  0  0  0  0  0  0
  190.0040  174.9270  145.6820 C   0  0  0  0  0  3  0  0  0  0  0  0
  194.6580  176.2590  144.9310 N   0  0  0  0  0  2  0  0  0  0  0  0
  189.6620  174.9600  142.7160 C   0  0  0  0  0  2  0  0  0  0  0  0
  188.7020  176.0960  142.8130 C   0  0  0  0  0  0  0  0  0  0  0  0
  187.0820  177.3930  143.5390 N   0  0  0  0  0  0  0  0  0  0  0  0
  187.7020  178.0270  142.5220 C   0  0  0  0  0  3  0  0  0  0  0  0
  187.6880  176.2070  143.7360 C   0  0  0  0  0  3  0  0  0  0  0  0
  188.7360  177.2410  142.0420 C   0  0  0  0  0  3  0  0  0  0  0  0
  185.1440  178.9050  143.7560 C   0  0  0  0  0  3  0  0  0  0  0  0
  183.7930  178.8970  145.7640 C   0  0  0  0  0  3  0  0  0  0  0  0
  185.6890  177.4030  145.5750 C   0  0  0  0  0  3  0  0  0  0  0  0
  184.6060  177.8990  146.3080 C   0  0  0  0  0  3  0  0  0  0  0  0
  184.0620  179.3990  144.4880 C   0  0  0  0  0  3  0  0  0  0  0  0
  185.9690  177.9020  144.2920 C   0  0  0  0  0  0  0  0  0  0  0  0
  1 12  2  0  0  0  0
  1 13  1  0  0  0  0
  2 15  1  0  0  0  0
  3  8  1  0  0  0  0
  4 12  1  0  0  0  0
  4  2  1  0  0  0  0
  5  3  2  0  0  0  0
  6  5  1  0  0  0  0
  7  2  2  0  0  0  0
  9  3  1  0  0  0  0
 10  6  1  0  0  0  0
 10 14  1  1  0  0  0
 11 15  1  0  0  0  0
 11  6  2  0  0  0  0
 12 11  1  0  0  0  0
 13 10  1  0  0  0  0
 14  9  2  0  0  0  0
 16 17  1  0  0  0  0
 16 13  1  0  0  0  0
 17 20  2  0  0  0  0
 18 20  1  0  0  0  0
 18 27  1  0  0  0  0
 19 18  1  0  0  0  0
 21 19  2  0  0  0  0
 21 17  1  0  0  0  0
 22 27  2  0  0  0  0
 22 26  1  0  0  0  0
 23 25  1  0  0  0  0
 24 25  2  0  0  0  0
 26 23  2  0  0  0  0
 27 24  1  0  0  0  0
M  END
>  <MODEL>
9

>  <REMARK>
 VINA RESULT:      -7.5      3.928      8.320
  Name = 
  3 active torsions:
  status: ('A' for Active; 'I' for Inactive)
    1  A    between atoms: C_13  and  C_17
    2  A    between atoms: C_17  and  N_20
    3  A    between atoms: N_21  and  C_24
                            x       y       z     vdW  Elec       q    Type
                         _______ _______ _______ _____ _____    ______ ____

>  <TORSDO>
F 3

$$$$
