=
 OpenBabel11042414453D

 36 38  0  0  1  0  0  0  0  0999 V2000
  186.5020  177.5320  143.4050 C   0  0  0  0  0  0  0  0  0  0  0  0
  187.8290  177.8300  143.3340 N   0  0  0  0  0  0  0  0  0  0  0  0
  188.6440  177.7090  144.4160 C   0  0  0  0  0  0  0  0  0  0  0  0
  188.1410  177.2700  145.5990 N   0  0  0  0  0  0  0  0  0  0  0  0
  185.9770  177.0770  144.6220 C   0  0  0  0  0  3  0  0  0  0  0  0
  186.8240  176.9530  145.7220 C   0  0  0  0  0  0  0  0  0  0  0  0
  185.2830  177.7080  139.8190 N   0  0  0  0  0  2  0  0  0  0  0  0
  187.3450  177.2750  140.6310 O   0  0  0  0  0  0  0  0  0  0  0  0
  185.6530  177.6790  142.1880 C   0  0  0  0  0  0  0  0  0  0  0  0
  184.2940  177.9740  142.3560 C   0  0  0  0  0  3  0  0  0  0  0  0
  186.1370  177.5450  140.8670 C   0  0  0  0  0  0  0  0  0  0  0  0
  183.9920  177.9920  140.0010 N   0  0  0  0  0  0  0  0  0  0  0  0
  183.4690  178.1290  141.2450 C   0  0  0  0  0  0  0  0  0  0  0  0
  182.0800  178.4520  141.4090 C   0  0  0  0  0  0  0  0  0  0  0  0
  180.9150  178.7210  141.5610 C   0  0  0  0  0  0  0  0  0  0  0  0
  179.5030  179.0460  141.7630 C   0  0  0  0  0  2  0  0  0  0  0  0
  178.3590  177.1690  142.5390 C   0  0  0  0  0  1  0  0  0  0  0  0
  179.0210  178.3930  142.9660 N   0  0  0  0  0  2  0  0  0  0  0  0
  190.0930  178.0200  144.2940 C   0  0  0  0  0  2  0  0  0  0  0  0
  190.5790  177.6680  142.9030 C   0  0  0  0  0  2  0  0  0  0  0  0
  191.9940  177.1360  142.9840 C   0  0  0  0  0  2  0  0  0  0  0  0
  191.9810  175.7690  143.6400 C   0  0  0  0  0  2  0  0  0  0  0  0
  192.8540  176.5520  145.7540 O   0  0  0  0  0  0  0  0  0  0  0  0
  192.6880  175.2020  146.0510 N   0  0  0  0  0  0  0  0  0  0  0  0
  193.0520  175.6830  144.7320 C   0  0  1  0  0  0  0  0  0  0  0  0
  189.2470  174.7980  147.4200 O   0  0  0  0  0  0  0  0  0  0  0  0
  191.3030  174.9770  146.1240 N   0  0  0  0  0  2  0  0  0  0  0  0
  190.6060  175.0850  147.3640 C   0  0  0  0  0  0  0  0  0  0  0  0
  191.2170  175.4260  148.4110 O   0  0  0  0  0  1  0  0  0  0  0  0
  195.2260  176.4830  144.3060 O   0  0  0  0  0  0  0  0  0  0  0  0
  194.4940  175.5110  144.3880 C   0  0  0  0  0  3  0  0  0  0  0  0
  186.3070  176.4940  146.9350 O   0  0  0  0  0  0  0  0  0  0  0  0
  186.1680  177.3470  148.0620 C   0  0  0  0  0  2  0  0  0  0  0  0
  186.0420  179.7060  147.7560 O   0  0  0  0  0  0  0  0  0  0  0  0
  185.4600  178.5950  147.6630 C   0  0  0  0  0  0  0  0  0  0  0  0
  184.1360  178.5270  147.1480 N   0  0  0  0  0  1  0  0  0  0  0  0
  1  5  2  0  0  0  0
  2  1  1  0  0  0  0
  2  3  2  0  0  0  0
  3  4  1  0  0  0  0
  4  6  2  0  0  0  0
  5  6  1  0  0  0  0
  6 32  1  0  0  0  0
  7 12  1  0  0  0  0
  7 11  1  0  0  0  0
  8 11  2  0  0  0  0
  9 10  2  0  0  0  0
  9  1  1  0  0  0  0
 11  9  1  0  0  0  0
 12 13  2  0  0  0  0
 13 14  1  0  0  0  0
 13 10  1  0  0  0  0
 14 15  3  0  0  0  0
 15 16  1  0  0  0  0
 16 18  1  0  0  0  0
 17 18  1  0  0  0  0
 19  3  1  0  0  0  0
 20 21  1  0  0  0  0
 20 19  1  0  0  0  0
 21 22  1  0  0  0  0
 23 24  1  0  0  0  0
 24 27  1  0  0  0  0
 25 22  1  6  0  0  0
 25 23  1  0  0  0  0
 25 24  1  0  0  0  0
 27 28  1  0  0  0  0
 28 26  2  0  0  0  0
 28 29  1  0  0  0  0
 30 31  2  0  0  0  0
 31 25  1  0  0  0  0
 32 33  1  0  0  0  0
 35 34  2  0  0  0  0
 35 33  1  0  0  0  0
 36 35  1  0  0  0  0
M  END
>  <MODEL>
1

>  <REMARK>
 VINA RESULT:      -6.7      0.000      0.000
  Name = 
  14 active torsions:
  status: ('A' for Active; 'I' for Inactive)
    1  A    between atoms: C_4  and  C_7
    2  A    between atoms: C_8  and  C_12
    3  A    between atoms: C_8  and  O_33
    4  A    between atoms: C_9  and  C_18
    5  A    between atoms: C_9  and  C_27
    6  A    between atoms: C_11  and  C_35
    7  A    between atoms: C_15  and  C_21
    8  A    between atoms: N_16  and  N_23
    9  A    between atoms: C_18  and  C_29
   10  A    between atoms: C_19  and  N_31
   11  A    between atoms: C_19  and  C_34
   12  A    between atoms: C_21  and  C_29
   13  A    between atoms: C_24  and  C_27
   14  A    between atoms: O_33  and  C_36
                            x       y       z     vdW  Elec       q    Type
                         _______ _______ _______ _____ _____    ______ ____

>  <TORSDO>
F 14

$$$$
=
 OpenBabel11042414453D

 36 38  0  0  1  0  0  0  0  0999 V2000
  190.3560  174.6120  143.5490 C   0  0  0  0  0  0  0  0  0  0  0  0
  189.4540  174.6710  144.5690 N   0  0  0  0  0  0  0  0  0  0  0  0
  189.6160  175.5250  145.6130 C   0  0  0  0  0  0  0  0  0  0  0  0
  190.6910  176.3550  145.6510 N   0  0  0  0  0  0  0  0  0  0  0  0
  191.4660  175.4670  143.5810 C   0  0  0  0  0  3  0  0  0  0  0  0
  191.6180  176.3420  144.6550 C   0  0  0  0  0  0  0  0  0  0  0  0
  190.1570  171.4850  141.4130 N   0  0  0  0  0  2  0  0  0  0  0  0
  190.8240  171.7400  143.5560 O   0  0  0  0  0  0  0  0  0  0  0  0
  190.1290  173.6600  142.4240 C   0  0  0  0  0  0  0  0  0  0  0  0
  189.6380  174.1650  141.2130 C   0  0  0  0  0  3  0  0  0  0  0  0
  190.3870  172.2720  142.5000 C   0  0  0  0  0  0  0  0  0  0  0  0
  189.6910  171.9870  140.2680 N   0  0  0  0  0  0  0  0  0  0  0  0
  189.4230  173.3100  140.1350 C   0  0  0  0  0  0  0  0  0  0  0  0
  188.9400  173.8240  138.8850 C   0  0  0  0  0  0  0  0  0  0  0  0
  188.5360  174.2680  137.8400 C   0  0  0  0  0  0  0  0  0  0  0  0
  188.0500  174.8250  136.5770 C   0  0  0  0  0  2  0  0  0  0  0  0
  186.7900  176.5310  135.6120 C   0  0  0  0  0  1  0  0  0  0  0  0
  186.9900  175.7790  136.8410 N   0  0  0  0  0  2  0  0  0  0  0  0
  188.5980  175.5790  146.6950 C   0  0  0  0  0  2  0  0  0  0  0  0
  187.8250  176.8790  146.6090 C   0  0  0  0  0  2  0  0  0  0  0  0
  186.7260  176.7430  145.5780 C   0  0  0  0  0  2  0  0  0  0  0  0
  186.6810  177.9940  144.7220 C   0  0  0  0  0  2  0  0  0  0  0  0
  185.1270  179.5680  143.7460 O   0  0  0  0  0  0  0  0  0  0  0  0
  184.6400  178.3840  143.1990 N   0  0  0  0  0  0  0  0  0  0  0  0
  185.2350  178.4590  144.5190 C   0  0  1  0  0  0  0  0  0  0  0  0
  186.2840  177.6120  139.9470 O   0  0  0  0  0  0  0  0  0  0  0  0
  185.5910  177.9570  142.2570 N   0  0  0  0  0  2  0  0  0  0  0  0
  185.3530  178.0960  140.8580 C   0  0  0  0  0  0  0  0  0  0  0  0
  184.2980  178.6430  140.4420 O   0  0  0  0  0  1  0  0  0  0  0  0
  184.5180  178.9820  146.7010 O   0  0  0  0  0  0  0  0  0  0  0  0
  184.2530  178.4380  145.6420 C   0  0  0  0  0  3  0  0  0  0  0  0
  192.7180  177.2000  144.6880 O   0  0  0  0  0  0  0  0  0  0  0  0
  194.0510  176.7120  144.6540 C   0  0  0  0  0  2  0  0  0  0  0  0
  194.2300  177.1310  146.9920 O   0  0  0  0  0  0  0  0  0  0  0  0
  194.4940  176.3630  146.0320 C   0  0  0  0  0  0  0  0  0  0  0  0
  195.1880  175.1440  146.2680 N   0  0  0  0  0  1  0  0  0  0  0  0
  1  5  2  0  0  0  0
  1  2  1  0  0  0  0
  2  3  2  0  0  0  0
  3  4  1  0  0  0  0
  3 19  1  0  0  0  0
  5  6  1  0  0  0  0
  6 32  1  0  0  0  0
  6  4  2  0  0  0  0
  7 11  1  0  0  0  0
  9 11  1  0  0  0  0
  9  1  1  0  0  0  0
 10  9  2  0  0  0  0
 11  8  2  0  0  0  0
 12  7  1  0  0  0  0
 13 12  2  0  0  0  0
 13 10  1  0  0  0  0
 14 13  1  0  0  0  0
 15 14  3  0  0  0  0
 16 18  1  0  0  0  0
 16 15  1  0  0  0  0
 17 18  1  0  0  0  0
 20 19  1  0  0  0  0
 21 20  1  0  0  0  0
 22 21  1  0  0  0  0
 23 25  1  0  0  0  0
 24 23  1  0  0  0  0
 24 25  1  0  0  0  0
 25 22  1  1  0  0  0
 25 31  1  0  0  0  0
 26 28  2  0  0  0  0
 27 24  1  0  0  0  0
 28 27  1  0  0  0  0
 29 28  1  0  0  0  0
 31 30  2  0  0  0  0
 33 32  1  0  0  0  0
 33 35  1  0  0  0  0
 35 36  1  0  0  0  0
 35 34  2  0  0  0  0
M  END
>  <MODEL>
2

>  <REMARK>
 VINA RESULT:      -6.6      3.335      8.020
  Name = 
  14 active torsions:
  status: ('A' for Active; 'I' for Inactive)
    1  A    between atoms: C_4  and  C_7
    2  A    between atoms: C_8  and  C_12
    3  A    between atoms: C_8  and  O_33
    4  A    between atoms: C_9  and  C_18
    5  A    between atoms: C_9  and  C_27
    6  A    between atoms: C_11  and  C_35
    7  A    between atoms: C_15  and  C_21
    8  A    between atoms: N_16  and  N_23
    9  A    between atoms: C_18  and  C_29
   10  A    between atoms: C_19  and  N_31
   11  A    between atoms: C_19  and  C_34
   12  A    between atoms: C_21  and  C_29
   13  A    between atoms: C_24  and  C_27
   14  A    between atoms: O_33  and  C_36
                            x       y       z     vdW  Elec       q    Type
                         _______ _______ _______ _____ _____    ______ ____

>  <TORSDO>
F 14

$$$$
=
 OpenBabel11042414453D

 36 38  0  0  1  0  0  0  0  0999 V2000
  188.7430  174.9890  141.7880 C   0  0  0  0  0  0  0  0  0  0  0  0
  189.6900  175.9210  142.0900 N   0  0  0  0  0  0  0  0  0  0  0  0
  189.3870  177.0380  142.8030 C   0  0  0  0  0  0  0  0  0  0  0  0
  188.1180  177.2390  143.2430 N   0  0  0  0  0  0  0  0  0  0  0  0
  187.4320  175.1900  142.2410 C   0  0  0  0  0  3  0  0  0  0  0  0
  187.1360  176.3370  142.9750 C   0  0  0  0  0  0  0  0  0  0  0  0
  189.1740  172.4260  139.0270 N   0  0  0  0  0  2  0  0  0  0  0  0
  188.1210  174.4240  139.0020 O   0  0  0  0  0  0  0  0  0  0  0  0
  189.1290  173.7790  141.0070 C   0  0  0  0  0  0  0  0  0  0  0  0
  189.8720  172.7810  141.6490 C   0  0  0  0  0  3  0  0  0  0  0  0
  188.7830  173.5710  139.6520 C   0  0  0  0  0  0  0  0  0  0  0  0
  189.8800  171.4860  139.6590 N   0  0  0  0  0  0  0  0  0  0  0  0
  190.2430  171.6300  140.9580 C   0  0  0  0  0  0  0  0  0  0  0  0
  190.9860  170.5940  141.6160 C   0  0  0  0  0  0  0  0  0  0  0  0
  191.6100  169.7310  142.1800 C   0  0  0  0  0  0  0  0  0  0  0  0
  192.3660  168.6930  142.8810 C   0  0  0  0  0  2  0  0  0  0  0  0
  193.8090  170.2000  143.9200 C   0  0  0  0  0  1  0  0  0  0  0  0
  192.7920  169.1910  144.1760 N   0  0  0  0  0  2  0  0  0  0  0  0
  190.4530  178.0210  143.1350 C   0  0  0  0  0  2  0  0  0  0  0  0
  190.5920  178.1380  144.6390 C   0  0  0  0  0  2  0  0  0  0  0  0
  191.2280  176.8780  145.1850 C   0  0  0  0  0  2  0  0  0  0  0  0
  190.5240  176.4740  146.4660 C   0  0  0  0  0  2  0  0  0  0  0  0
  188.8500  174.9460  147.3080 O   0  0  0  0  0  0  0  0  0  0  0  0
  188.0950  175.6240  146.3560 N   0  0  0  0  0  0  0  0  0  0  0  0
  189.5110  175.3560  146.1970 C   0  0  1  0  0  0  0  0  0  0  0  0
  186.4130  178.7560  147.4670 O   0  0  0  0  0  1  0  0  0  0  0  0
  187.8950  176.9230  146.8540 N   0  0  0  0  0  2  0  0  0  0  0  0
  186.5810  177.4480  147.0300 C   0  0  0  0  0  0  0  0  0  0  0  0
  185.5720  176.7380  146.7780 O   0  0  0  0  0  0  0  0  0  0  0  0
  189.6760  173.0780  145.6190 O   0  0  0  0  0  0  0  0  0  0  0  0
  189.8270  174.2350  145.2640 C   0  0  0  0  0  3  0  0  0  0  0  0
  185.8330  176.5380  143.4320 O   0  0  0  0  0  0  0  0  0  0  0  0
  184.9790  177.5170  142.8590 C   0  0  0  0  0  2  0  0  0  0  0  0
  185.7510  179.6580  143.5630 O   0  0  0  0  0  0  0  0  0  0  0  0
  184.9320  178.7190  143.7370 C   0  0  0  0  0  0  0  0  0  0  0  0
  183.9410  178.8200  144.7510 N   0  0  0  0  0  1  0  0  0  0  0  0
  1  2  1  0  0  0  0
  1  5  2  0  0  0  0
  2  3  2  0  0  0  0
  3 19  1  0  0  0  0
  3  4  1  0  0  0  0
  5  6  1  0  0  0  0
  6  4  2  0  0  0  0
  6 32  1  0  0  0  0
  7 11  1  0  0  0  0
  7 12  1  0  0  0  0
  8 11  2  0  0  0  0
  9 10  2  0  0  0  0
  9  1  1  0  0  0  0
 11  9  1  0  0  0  0
 12 13  2  0  0  0  0
 13 14  1  0  0  0  0
 13 10  1  0  0  0  0
 14 15  3  0  0  0  0
 15 16  1  0  0  0  0
 16 18  1  0  0  0  0
 17 18  1  0  0  0  0
 19 20  1  0  0  0  0
 20 21  1  0  0  0  0
 21 22  1  0  0  0  0
 24 27  1  0  0  0  0
 24 23  1  0  0  0  0
 25 31  1  6  0  0  0
 25 24  1  0  0  0  0
 25 22  1  0  0  0  0
 25 23  1  0  0  0  0
 27 28  1  0  0  0  0
 28 26  1  0  0  0  0
 29 28  2  0  0  0  0
 31 30  2  0  0  0  0
 33 32  1  0  0  0  0
 33 35  1  0  0  0  0
 34 35  2  0  0  0  0
 35 36  1  0  0  0  0
M  END
>  <MODEL>
3

>  <REMARK>
 VINA RESULT:      -6.5      3.682      7.232
  Name = 
  14 active torsions:
  status: ('A' for Active; 'I' for Inactive)
    1  A    between atoms: C_4  and  C_7
    2  A    between atoms: C_8  and  C_12
    3  A    between atoms: C_8  and  O_33
    4  A    between atoms: C_9  and  C_18
    5  A    between atoms: C_9  and  C_27
    6  A    between atoms: C_11  and  C_35
    7  A    between atoms: C_15  and  C_21
    8  A    between atoms: N_16  and  N_23
    9  A    between atoms: C_18  and  C_29
   10  A    between atoms: C_19  and  N_31
   11  A    between atoms: C_19  and  C_34
   12  A    between atoms: C_21  and  C_29
   13  A    between atoms: C_24  and  C_27
   14  A    between atoms: O_33  and  C_36
                            x       y       z     vdW  Elec       q    Type
                         _______ _______ _______ _____ _____    ______ ____

>  <TORSDO>
F 14

$$$$
=
 OpenBabel11042414453D

 36 38  0  0  1  0  0  0  0  0999 V2000
  188.0470  175.8900  143.2770 C   0  0  0  0  0  0  0  0  0  0  0  0
  188.7810  175.4190  144.3250 N   0  0  0  0  0  0  0  0  0  0  0  0
  189.7020  174.4340  144.1620 C   0  0  0  0  0  0  0  0  0  0  0  0
  189.9190  173.9040  142.9300 N   0  0  0  0  0  0  0  0  0  0  0  0
  188.2670  175.3480  142.0030 C   0  0  0  0  0  3  0  0  0  0  0  0
  189.2190  174.3420  141.8490 C   0  0  0  0  0  0  0  0  0  0  0  0
  186.1970  178.8930  144.6660 N   0  0  0  0  0  2  0  0  0  0  0  0
  188.1500  177.9650  145.3150 O   0  0  0  0  0  0  0  0  0  0  0  0
  187.0510  176.9740  143.5090 C   0  0  0  0  0  0  0  0  0  0  0  0
  185.9270  177.0350  142.6750 C   0  0  0  0  0  3  0  0  0  0  0  0
  187.1660  177.9480  144.5280 C   0  0  0  0  0  0  0  0  0  0  0  0
  185.1320  178.9320  143.8630 N   0  0  0  0  0  0  0  0  0  0  0  0
  184.9680  178.0270  142.8660 C   0  0  0  0  0  0  0  0  0  0  0  0
  183.8030  178.0820  142.0290 C   0  0  0  0  0  0  0  0  0  0  0  0
  182.8300  178.1390  141.3200 C   0  0  0  0  0  0  0  0  0  0  0  0
  181.6570  178.2220  140.4500 C   0  0  0  0  0  2  0  0  0  0  0  0
  180.0920  179.8150  141.1190 C   0  0  0  0  0  1  0  0  0  0  0  0
  180.4660  178.4150  141.2550 N   0  0  0  0  0  2  0  0  0  0  0  0
  190.5020  173.9640  145.3240 C   0  0  0  0  0  2  0  0  0  0  0  0
  190.2210  174.8380  146.5290 C   0  0  0  0  0  2  0  0  0  0  0  0
  191.5250  175.3810  147.0710 C   0  0  0  0  0  2  0  0  0  0  0  0
  192.6790  174.8290  146.2570 C   0  0  0  0  0  2  0  0  0  0  0  0
  194.3770  176.5200  146.5790 O   0  0  0  0  0  0  0  0  0  0  0  0
  194.9610  175.7900  145.5470 N   0  0  0  0  0  0  0  0  0  0  0  0
  193.5270  175.9660  145.6790 C   0  0  1  0  0  0  0  0  0  0  0  0
  196.9290  172.7060  146.2420 O   0  0  0  0  0  1  0  0  0  0  0  0
  195.3560  174.5600  146.0990 N   0  0  0  0  0  2  0  0  0  0  0  0
  196.5900  173.9510  145.7260 C   0  0  0  0  0  0  0  0  0  0  0  0
  197.3680  174.5270  144.9210 O   0  0  0  0  0  0  0  0  0  0  0  0
  192.3220  176.6030  143.7570 O   0  0  0  0  0  0  0  0  0  0  0  0
  192.9390  176.9690  144.7440 C   0  0  0  0  0  3  0  0  0  0  0  0
  189.4460  173.8030  140.5810 O   0  0  0  0  0  0  0  0  0  0  0  0
  188.4410  173.0860  139.8800 C   0  0  0  0  0  2  0  0  0  0  0  0
  187.8170  174.6900  138.2340 O   0  0  0  0  0  0  0  0  0  0  0  0
  188.3560  173.5800  138.4790 C   0  0  0  0  0  0  0  0  0  0  0  0
  188.9130  172.8120  137.4190 N   0  0  0  0  0  1  0  0  0  0  0  0
  1  9  1  0  0  0  0
  1  2  1  0  0  0  0
  3  2  2  0  0  0  0
  3 19  1  0  0  0  0
  4  3  1  0  0  0  0
  5  1  2  0  0  0  0
  6  5  1  0  0  0  0
  6  4  2  0  0  0  0
  9 11  1  0  0  0  0
 10 13  1  0  0  0  0
 10  9  2  0  0  0  0
 11  7  1  0  0  0  0
 11  8  2  0  0  0  0
 12  7  1  0  0  0  0
 13 12  2  0  0  0  0
 14 13  1  0  0  0  0
 15 14  3  0  0  0  0
 16 18  1  0  0  0  0
 16 15  1  0  0  0  0
 17 18  1  0  0  0  0
 19 20  1  0  0  0  0
 20 21  1  0  0  0  0
 22 21  1  0  0  0  0
 24 25  1  0  0  0  0
 24 27  1  0  0  0  0
 24 23  1  0  0  0  0
 25 31  1  6  0  0  0
 25 22  1  0  0  0  0
 25 23  1  0  0  0  0
 28 27  1  0  0  0  0
 28 26  1  0  0  0  0
 29 28  2  0  0  0  0
 30 31  2  0  0  0  0
 32  6  1  0  0  0  0
 33 32  1  0  0  0  0
 34 35  2  0  0  0  0
 35 33  1  0  0  0  0
 36 35  1  0  0  0  0
M  END
>  <MODEL>
4

>  <REMARK>
 VINA RESULT:      -6.5      2.815      5.300
  Name = 
  14 active torsions:
  status: ('A' for Active; 'I' for Inactive)
    1  A    between atoms: C_4  and  C_7
    2  A    between atoms: C_8  and  C_12
    3  A    between atoms: C_8  and  O_33
    4  A    between atoms: C_9  and  C_18
    5  A    between atoms: C_9  and  C_27
    6  A    between atoms: C_11  and  C_35
    7  A    between atoms: C_15  and  C_21
    8  A    between atoms: N_16  and  N_23
    9  A    between atoms: C_18  and  C_29
   10  A    between atoms: C_19  and  N_31
   11  A    between atoms: C_19  and  C_34
   12  A    between atoms: C_21  and  C_29
   13  A    between atoms: C_24  and  C_27
   14  A    between atoms: O_33  and  C_36
                            x       y       z     vdW  Elec       q    Type
                         _______ _______ _______ _____ _____    ______ ____

>  <TORSDO>
F 14

$$$$
=
 OpenBabel11042414453D

 36 38  0  0  1  0  0  0  0  0999 V2000
  189.0470  175.0490  143.5510 C   0  0  0  0  0  0  0  0  0  0  0  0
  189.4830  174.6670  144.7840 N   0  0  0  0  0  0  0  0  0  0  0  0
  189.0950  175.3210  145.9100 C   0  0  0  0  0  0  0  0  0  0  0  0
  188.2440  176.3760  145.8230 N   0  0  0  0  0  0  0  0  0  0  0  0
  188.1670  176.1360  143.4540 C   0  0  0  0  0  3  0  0  0  0  0  0
  187.7730  176.7950  144.6170 C   0  0  0  0  0  0  0  0  0  0  0  0
  189.2070  172.7080  140.5730 N   0  0  0  0  0  2  0  0  0  0  0  0
  187.5190  173.1030  142.0200 O   0  0  0  0  0  0  0  0  0  0  0  0
  189.4990  174.2940  142.3480 C   0  0  0  0  0  0  0  0  0  0  0  0
  190.7970  174.5170  141.8710 C   0  0  0  0  0  3  0  0  0  0  0  0
  188.6990  173.3550  141.6570 C   0  0  0  0  0  0  0  0  0  0  0  0
  190.4480  172.9330  140.1360 N   0  0  0  0  0  0  0  0  0  0  0  0
  191.2620  173.8240  140.7560 C   0  0  0  0  0  0  0  0  0  0  0  0
  192.5980  174.0330  140.2740 C   0  0  0  0  0  0  0  0  0  0  0  0
  193.7150  174.2180  139.8630 C   0  0  0  0  0  0  0  0  0  0  0  0
  195.0660  174.4590  139.3550 C   0  0  0  0  0  2  0  0  0  0  0  0
  195.7420  176.0700  140.8980 C   0  0  0  0  0  1  0  0  0  0  0  0
  195.9690  174.6990  140.4650 N   0  0  0  0  0  2  0  0  0  0  0  0
  189.5710  174.8590  147.2410 C   0  0  0  0  0  2  0  0  0  0  0  0
  190.7990  175.6480  147.6490 C   0  0  0  0  0  2  0  0  0  0  0  0
  192.0130  175.0930  146.9370 C   0  0  0  0  0  2  0  0  0  0  0  0
  193.0720  176.1720  146.8310 C   0  0  0  0  0  2  0  0  0  0  0  0
  194.5580  177.1820  145.2130 O   0  0  0  0  0  0  0  0  0  0  0  0
  194.6580  175.8480  144.8280 N   0  0  0  0  0  0  0  0  0  0  0  0
  193.4430  176.4260  145.3670 C   0  0  1  0  0  0  0  0  0  0  0  0
  197.0970  173.6120  146.5390 O   0  0  0  0  0  1  0  0  0  0  0  0
  195.3780  175.1910  145.8400 N   0  0  0  0  0  2  0  0  0  0  0  0
  196.4410  174.2940  145.5220 C   0  0  0  0  0  0  0  0  0  0  0  0
  196.7790  174.1060  144.3230 O   0  0  0  0  0  0  0  0  0  0  0  0
  191.5370  177.5620  144.5730 O   0  0  0  0  0  0  0  0  0  0  0  0
  192.3960  176.7250  144.3460 C   0  0  0  0  0  3  0  0  0  0  0  0
  186.8930  177.8750  144.5260 O   0  0  0  0  0  0  0  0  0  0  0  0
  186.2050  178.1830  143.3220 C   0  0  0  0  0  2  0  0  0  0  0  0
  183.9230  177.9960  142.6680 O   0  0  0  0  0  0  0  0  0  0  0  0
  184.7420  178.2590  143.5850 C   0  0  0  0  0  0  0  0  0  0  0  0
  184.2700  178.6000  144.8820 N   0  0  0  0  0  1  0  0  0  0  0  0
  1  2  1  0  0  0  0
  2  3  2  0  0  0  0
  3 19  1  0  0  0  0
  4  3  1  0  0  0  0
  5  1  2  0  0  0  0
  5  6  1  0  0  0  0
  6  4  2  0  0  0  0
  7 11  1  0  0  0  0
  9  1  1  0  0  0  0
 10  9  2  0  0  0  0
 11  8  2  0  0  0  0
 11  9  1  0  0  0  0
 12  7  1  0  0  0  0
 12 13  2  0  0  0  0
 13 10  1  0  0  0  0
 14 13  1  0  0  0  0
 15 14  3  0  0  0  0
 16 15  1  0  0  0  0
 16 18  1  0  0  0  0
 18 17  1  0  0  0  0
 19 20  1  0  0  0  0
 21 20  1  0  0  0  0
 22 21  1  0  0  0  0
 23 25  1  0  0  0  0
 24 23  1  0  0  0  0
 24 25  1  0  0  0  0
 24 27  1  0  0  0  0
 25 31  1  6  0  0  0
 25 22  1  0  0  0  0
 28 27  1  0  0  0  0
 28 26  1  0  0  0  0
 29 28  2  0  0  0  0
 31 30  2  0  0  0  0
 32  6  1  0  0  0  0
 33 35  1  0  0  0  0
 33 32  1  0  0  0  0
 34 35  2  0  0  0  0
 35 36  1  0  0  0  0
M  END
>  <MODEL>
5

>  <REMARK>
 VINA RESULT:      -6.4      3.247      7.307
  Name = 
  14 active torsions:
  status: ('A' for Active; 'I' for Inactive)
    1  A    between atoms: C_4  and  C_7
    2  A    between atoms: C_8  and  C_12
    3  A    between atoms: C_8  and  O_33
    4  A    between atoms: C_9  and  C_18
    5  A    between atoms: C_9  and  C_27
    6  A    between atoms: C_11  and  C_35
    7  A    between atoms: C_15  and  C_21
    8  A    between atoms: N_16  and  N_23
    9  A    between atoms: C_18  and  C_29
   10  A    between atoms: C_19  and  N_31
   11  A    between atoms: C_19  and  C_34
   12  A    between atoms: C_21  and  C_29
   13  A    between atoms: C_24  and  C_27
   14  A    between atoms: O_33  and  C_36
                            x       y       z     vdW  Elec       q    Type
                         _______ _______ _______ _____ _____    ______ ____

>  <TORSDO>
F 14

$$$$
=
 OpenBabel11042414453D

 36 38  0  0  1  0  0  0  0  0999 V2000
  187.2070  177.0140  142.9990 C   0  0  0  0  0  0  0  0  0  0  0  0
  188.4130  177.6110  143.2150 N   0  0  0  0  0  0  0  0  0  0  0  0
  189.5810  176.9830  142.9160 C   0  0  0  0  0  0  0  0  0  0  0  0
  189.5630  175.7370  142.3760 N   0  0  0  0  0  0  0  0  0  0  0  0
  187.1820  175.7280  142.4420 C   0  0  0  0  0  3  0  0  0  0  0  0
  188.3870  175.0980  142.1340 C   0  0  0  0  0  0  0  0  0  0  0  0
  184.5870  179.1130  144.7610 N   0  0  0  0  0  2  0  0  0  0  0  0
  186.6880  178.5810  145.3960 O   0  0  0  0  0  0  0  0  0  0  0  0
  185.9550  177.7470  143.3420 C   0  0  0  0  0  0  0  0  0  0  0  0
  184.8870  177.6990  142.4370 C   0  0  0  0  0  3  0  0  0  0  0  0
  185.7730  178.4850  144.5340 C   0  0  0  0  0  0  0  0  0  0  0  0
  183.5800  179.0530  143.8860 N   0  0  0  0  0  0  0  0  0  0  0  0
  183.6960  178.3620  142.7240 C   0  0  0  0  0  0  0  0  0  0  0  0
  182.5910  178.3000  141.8110 C   0  0  0  0  0  0  0  0  0  0  0  0
  181.6550  178.2560  141.0530 C   0  0  0  0  0  0  0  0  0  0  0  0
  180.5100  178.2130  140.1430 C   0  0  0  0  0  2  0  0  0  0  0  0
  178.9610  179.1300  141.6240 C   0  0  0  0  0  1  0  0  0  0  0  0
  179.3040  177.9190  140.8920 N   0  0  0  0  0  2  0  0  0  0  0  0
  190.8770  177.6760  143.1420 C   0  0  0  0  0  2  0  0  0  0  0  0
  192.0230  176.7550  142.7760 C   0  0  0  0  0  2  0  0  0  0  0  0
  193.0690  176.7950  143.8680 C   0  0  0  0  0  2  0  0  0  0  0  0
  192.3860  176.7780  145.2220 C   0  0  0  0  0  2  0  0  0  0  0  0
  192.0300  175.3510  147.1400 O   0  0  0  0  0  0  0  0  0  0  0  0
  191.3130  174.6420  146.1800 N   0  0  0  0  0  0  0  0  0  0  0  0
  192.5120  175.3980  145.8740 C   0  0  1  0  0  0  0  0  0  0  0  0
  187.8440  175.9910  146.3320 O   0  0  0  0  0  0  0  0  0  0  0  0
  190.1680  175.4030  145.8920 N   0  0  0  0  0  2  0  0  0  0  0  0
  188.9820  175.2700  146.6740 C   0  0  0  0  0  0  0  0  0  0  0  0
  188.9550  174.4940  147.6650 O   0  0  0  0  0  1  0  0  0  0  0  0
  194.8070  174.9370  146.1410 O   0  0  0  0  0  0  0  0  0  0  0  0
  193.7370  174.5650  145.6890 C   0  0  0  0  0  3  0  0  0  0  0  0
  188.3660  173.8200  141.5730 O   0  0  0  0  0  0  0  0  0  0  0  0
  188.3850  172.6480  142.3750 C   0  0  0  0  0  2  0  0  0  0  0  0
  190.0820  171.1530  141.6280 O   0  0  0  0  0  0  0  0  0  0  0  0
  189.7620  172.0850  142.4100 C   0  0  0  0  0  0  0  0  0  0  0  0
  190.7270  172.6220  143.3060 N   0  0  0  0  0  1  0  0  0  0  0  0
  1  2  1  0  0  0  0
  1  9  1  0  0  0  0
  3 19  1  0  0  0  0
  3  2  2  0  0  0  0
  4  3  1  0  0  0  0
  5  1  2  0  0  0  0
  6  4  2  0  0  0  0
  6  5  1  0  0  0  0
  9 11  1  0  0  0  0
 10 13  1  0  0  0  0
 10  9  2  0  0  0  0
 11  7  1  0  0  0  0
 11  8  2  0  0  0  0
 12  7  1  0  0  0  0
 13 12  2  0  0  0  0
 14 13  1  0  0  0  0
 15 14  3  0  0  0  0
 16 18  1  0  0  0  0
 16 15  1  0  0  0  0
 18 17  1  0  0  0  0
 20 19  1  0  0  0  0
 20 21  1  0  0  0  0
 21 22  1  0  0  0  0
 24 23  1  0  0  0  0
 25 22  1  6  0  0  0
 25 24  1  0  0  0  0
 25 23  1  0  0  0  0
 26 28  2  0  0  0  0
 27 24  1  0  0  0  0
 27 28  1  0  0  0  0
 28 29  1  0  0  0  0
 31 25  1  0  0  0  0
 31 30  2  0  0  0  0
 32  6  1  0  0  0  0
 32 33  1  0  0  0  0
 33 35  1  0  0  0  0
 34 35  2  0  0  0  0
 35 36  1  0  0  0  0
M  END
>  <MODEL>
6

>  <REMARK>
 VINA RESULT:      -6.3      2.389      4.083
  Name = 
  14 active torsions:
  status: ('A' for Active; 'I' for Inactive)
    1  A    between atoms: C_4  and  C_7
    2  A    between atoms: C_8  and  C_12
    3  A    between atoms: C_8  and  O_33
    4  A    between atoms: C_9  and  C_18
    5  A    between atoms: C_9  and  C_27
    6  A    between atoms: C_11  and  C_35
    7  A    between atoms: C_15  and  C_21
    8  A    between atoms: N_16  and  N_23
    9  A    between atoms: C_18  and  C_29
   10  A    between atoms: C_19  and  N_31
   11  A    between atoms: C_19  and  C_34
   12  A    between atoms: C_21  and  C_29
   13  A    between atoms: C_24  and  C_27
   14  A    between atoms: O_33  and  C_36
                            x       y       z     vdW  Elec       q    Type
                         _______ _______ _______ _____ _____    ______ ____

>  <TORSDO>
F 14

$$$$
=
 OpenBabel11042414453D

 36 38  0  0  1  0  0  0  0  0999 V2000
  190.5820  174.4170  143.3920 C   0  0  0  0  0  0  0  0  0  0  0  0
  189.6790  174.5290  144.4070 N   0  0  0  0  0  0  0  0  0  0  0  0
  189.9360  175.2850  145.5060 C   0  0  0  0  0  0  0  0  0  0  0  0
  191.1100  175.9610  145.6070 N   0  0  0  0  0  0  0  0  0  0  0  0
  191.7940  175.1140  143.4880 C   0  0  0  0  0  3  0  0  0  0  0  0
  192.0430  175.8890  144.6190 C   0  0  0  0  0  0  0  0  0  0  0  0
  190.2150  171.5230  140.9700 N   0  0  0  0  0  2  0  0  0  0  0  0
  191.1220  171.5800  143.0380 O   0  0  0  0  0  0  0  0  0  0  0  0
  190.2490  173.5790  142.2050 C   0  0  0  0  0  0  0  0  0  0  0  0
  189.6060  174.1870  141.1190 C   0  0  0  0  0  3  0  0  0  0  0  0
  190.5500  172.2010  142.1020 C   0  0  0  0  0  0  0  0  0  0  0  0
  189.6050  172.1220  139.9460 N   0  0  0  0  0  0  0  0  0  0  0  0
  189.2880  173.4400  139.9870 C   0  0  0  0  0  0  0  0  0  0  0  0
  188.6480  174.0620  138.8620 C   0  0  0  0  0  0  0  0  0  0  0  0
  188.1150  174.5960  137.9230 C   0  0  0  0  0  0  0  0  0  0  0  0
  187.4730  175.2610  136.7890 C   0  0  0  0  0  2  0  0  0  0  0  0
  188.0230  176.4580  134.8660 C   0  0  0  0  0  1  0  0  0  0  0  0
  188.3890  175.2970  135.6640 N   0  0  0  0  0  2  0  0  0  0  0  0
  188.9170  175.4030  146.5830 C   0  0  0  0  0  2  0  0  0  0  0  0
  188.2670  176.7710  146.5270 C   0  0  0  0  0  2  0  0  0  0  0  0
  187.1530  176.7560  145.5030 C   0  0  0  0  0  2  0  0  0  0  0  0
  187.3330  177.9170  144.5450 C   0  0  0  0  0  2  0  0  0  0  0  0
  186.9900  176.2360  142.8410 O   0  0  0  0  0  0  0  0  0  0  0  0
  186.5220  177.3590  142.1640 N   0  0  0  0  0  0  0  0  0  0  0  0
  187.6070  177.4100  143.1250 C   0  0  1  0  0  0  0  0  0  0  0  0
  183.0690  178.6680  142.6510 O   0  0  0  0  0  1  0  0  0  0  0  0
  185.3100  177.7190  142.7760 N   0  0  0  0  0  2  0  0  0  0  0  0
  184.2360  178.2650  142.0130 C   0  0  0  0  0  0  0  0  0  0  0  0
  184.3430  178.3980  140.7650 O   0  0  0  0  0  0  0  0  0  0  0  0
  189.8490  178.1320  143.0880 O   0  0  0  0  0  0  0  0  0  0  0  0
  188.9670  177.5120  142.5180 C   0  0  0  0  0  3  0  0  0  0  0  0
  193.2470  176.5890  144.7170 O   0  0  0  0  0  0  0  0  0  0  0  0
  194.1910  176.3190  145.7430 C   0  0  0  0  0  2  0  0  0  0  0  0
  195.9250  174.6870  145.7450 O   0  0  0  0  0  0  0  0  0  0  0  0
  195.3940  175.6650  145.1590 C   0  0  0  0  0  0  0  0  0  0  0  0
  195.9240  176.1260  143.9230 N   0  0  0  0  0  1  0  0  0  0  0  0
  1  5  2  0  0  0  0
  1  2  1  0  0  0  0
  2  3  2  0  0  0  0
  3  4  1  0  0  0  0
  3 19  1  0  0  0  0
  5  6  1  0  0  0  0
  6 32  1  0  0  0  0
  6  4  2  0  0  0  0
  7 11  1  0  0  0  0
  9  1  1  0  0  0  0
 10  9  2  0  0  0  0
 11  9  1  0  0  0  0
 11  8  2  0  0  0  0
 12 13  2  0  0  0  0
 12  7  1  0  0  0  0
 13 10  1  0  0  0  0
 14 13  1  0  0  0  0
 15 14  3  0  0  0  0
 16 15  1  0  0  0  0
 17 18  1  0  0  0  0
 18 16  1  0  0  0  0
 20 19  1  0  0  0  0
 21 20  1  0  0  0  0
 22 21  1  0  0  0  0
 23 25  1  0  0  0  0
 24 27  1  0  0  0  0
 24 23  1  0  0  0  0
 24 25  1  0  0  0  0
 25 31  1  6  0  0  0
 25 22  1  0  0  0  0
 28 26  1  0  0  0  0
 28 27  1  0  0  0  0
 29 28  2  0  0  0  0
 31 30  2  0  0  0  0
 32 33  1  0  0  0  0
 35 33  1  0  0  0  0
 35 34  2  0  0  0  0
 36 35  1  0  0  0  0
M  END
>  <MODEL>
7

>  <REMARK>
 VINA RESULT:      -6.2      3.527      7.815
  Name = 
  14 active torsions:
  status: ('A' for Active; 'I' for Inactive)
    1  A    between atoms: C_4  and  C_7
    2  A    between atoms: C_8  and  C_12
    3  A    between atoms: C_8  and  O_33
    4  A    between atoms: C_9  and  C_18
    5  A    between atoms: C_9  and  C_27
    6  A    between atoms: C_11  and  C_35
    7  A    between atoms: C_15  and  C_21
    8  A    between atoms: N_16  and  N_23
    9  A    between atoms: C_18  and  C_29
   10  A    between atoms: C_19  and  N_31
   11  A    between atoms: C_19  and  C_34
   12  A    between atoms: C_21  and  C_29
   13  A    between atoms: C_24  and  C_27
   14  A    between atoms: O_33  and  C_36
                            x       y       z     vdW  Elec       q    Type
                         _______ _______ _______ _____ _____    ______ ____

>  <TORSDO>
F 14

$$$$
=
 OpenBabel11042414453D

 36 38  0  0  1  0  0  0  0  0999 V2000
  192.7160  174.5930  144.9960 C   0  0  0  0  0  0  0  0  0  0  0  0
  192.0400  174.1620  143.8940 N   0  0  0  0  0  0  0  0  0  0  0  0
  190.7110  174.3980  143.7370 C   0  0  0  0  0  0  0  0  0  0  0  0
  190.0270  175.0900  144.6860 N   0  0  0  0  0  0  0  0  0  0  0  0
  192.0170  175.3080  145.9780 C   0  0  0  0  0  3  0  0  0  0  0  0
  190.6550  175.5490  145.8020 C   0  0  0  0  0  0  0  0  0  0  0  0
  196.4940  174.9100  145.0080 N   0  0  0  0  0  2  0  0  0  0  0  0
  194.9090  176.4550  144.5570 O   0  0  0  0  0  0  0  0  0  0  0  0
  194.1740  174.3100  145.1180 C   0  0  0  0  0  0  0  0  0  0  0  0
  194.5740  173.0180  145.4810 C   0  0  0  0  0  3  0  0  0  0  0  0
  195.1870  175.2690  144.8810 C   0  0  0  0  0  0  0  0  0  0  0  0
  196.8530  173.6720  145.3520 N   0  0  0  0  0  0  0  0  0  0  0  0
  195.9280  172.7100  145.5950 C   0  0  0  0  0  0  0  0  0  0  0  0
  196.3450  171.3820  145.9450 C   0  0  0  0  0  0  0  0  0  0  0  0
  196.7080  170.2720  146.2390 C   0  0  0  0  0  0  0  0  0  0  0  0
  197.1660  168.9290  146.5970 C   0  0  0  0  0  2  0  0  0  0  0  0
  195.3010  168.3070  147.8500 C   0  0  0  0  0  1  0  0  0  0  0  0
  196.7230  168.6060  147.9400 N   0  0  0  0  0  2  0  0  0  0  0  0
  190.0120  173.9350  142.5090 C   0  0  0  0  0  2  0  0  0  0  0  0
  188.5190  174.1390  142.6600 C   0  0  0  0  0  2  0  0  0  0  0  0
  188.1030  175.3870  141.9120 C   0  0  0  0  0  2  0  0  0  0  0  0
  186.9660  176.0630  142.6510 C   0  0  0  0  0  2  0  0  0  0  0  0
  185.1100  177.3550  141.7950 O   0  0  0  0  0  0  0  0  0  0  0  0
  185.7380  178.3260  142.5710 N   0  0  0  0  0  0  0  0  0  0  0  0
  186.4620  177.2820  141.8720 C   0  0  1  0  0  0  0  0  0  0  0  0
  184.2340  178.1000  145.9720 O   0  0  0  0  0  1  0  0  0  0  0  0
  185.5290  177.9620  143.9120 N   0  0  0  0  0  2  0  0  0  0  0  0
  184.3860  178.4240  144.6290 C   0  0  0  0  0  0  0  0  0  0  0  0
  183.5190  179.1370  144.0570 O   0  0  0  0  0  0  0  0  0  0  0  0
  186.6400  177.4950  139.5330 O   0  0  0  0  0  0  0  0  0  0  0  0
  187.1390  177.7320  140.6200 C   0  0  0  0  0  3  0  0  0  0  0  0
  189.9560  176.2660  146.7750 O   0  0  0  0  0  0  0  0  0  0  0  0
  189.2090  177.4310  146.4560 C   0  0  0  0  0  2  0  0  0  0  0  0
  187.1540  176.2370  146.3060 O   0  0  0  0  0  0  0  0  0  0  0  0
  187.7750  177.2160  146.7930 C   0  0  0  0  0  0  0  0  0  0  0  0
  187.1170  178.0990  147.6920 N   0  0  0  0  0  1  0  0  0  0  0  0
  1  9  1  0  0  0  0
  1  5  2  0  0  0  0
  2  1  1  0  0  0  0
  3  2  2  0  0  0  0
  3  4  1  0  0  0  0
  4  6  2  0  0  0  0
  6  5  1  0  0  0  0
  6 32  1  0  0  0  0
  7 12  1  0  0  0  0
  8 11  2  0  0  0  0
  9 10  2  0  0  0  0
 10 13  1  0  0  0  0
 11  7  1  0  0  0  0
 11  9  1  0  0  0  0
 12 13  2  0  0  0  0
 13 14  1  0  0  0  0
 14 15  3  0  0  0  0
 15 16  1  0  0  0  0
 16 18  1  0  0  0  0
 17 18  1  0  0  0  0
 19 20  1  0  0  0  0
 19  3  1  0  0  0  0
 21 22  1  0  0  0  0
 21 20  1  0  0  0  0
 23 25  1  0  0  0  0
 23 24  1  0  0  0  0
 24 27  1  0  0  0  0
 25 31  1  6  0  0  0
 25 24  1  0  0  0  0
 25 22  1  0  0  0  0
 27 28  1  0  0  0  0
 28 26  1  0  0  0  0
 29 28  2  0  0  0  0
 30 31  2  0  0  0  0
 33 32  1  0  0  0  0
 33 35  1  0  0  0  0
 34 35  2  0  0  0  0
 35 36  1  0  0  0  0
M  END
>  <MODEL>
8

>  <REMARK>
 VINA RESULT:      -6.2      3.443     10.244
  Name = 
  14 active torsions:
  status: ('A' for Active; 'I' for Inactive)
    1  A    between atoms: C_4  and  C_7
    2  A    between atoms: C_8  and  C_12
    3  A    between atoms: C_8  and  O_33
    4  A    between atoms: C_9  and  C_18
    5  A    between atoms: C_9  and  C_27
    6  A    between atoms: C_11  and  C_35
    7  A    between atoms: C_15  and  C_21
    8  A    between atoms: N_16  and  N_23
    9  A    between atoms: C_18  and  C_29
   10  A    between atoms: C_19  and  N_31
   11  A    between atoms: C_19  and  C_34
   12  A    between atoms: C_21  and  C_29
   13  A    between atoms: C_24  and  C_27
   14  A    between atoms: O_33  and  C_36
                            x       y       z     vdW  Elec       q    Type
                         _______ _______ _______ _____ _____    ______ ____

>  <TORSDO>
F 14

$$$$
=
 OpenBabel11042414453D

 36 38  0  0  1  0  0  0  0  0999 V2000
  192.4170  174.0320  144.7190 C   0  0  0  0  0  0  0  0  0  0  0  0
  191.5550  174.2530  145.7510 N   0  0  0  0  0  0  0  0  0  0  0  0
  190.2130  174.3250  145.5540 C   0  0  0  0  0  0  0  0  0  0  0  0
  189.7000  174.1640  144.3060 N   0  0  0  0  0  0  0  0  0  0  0  0
  191.8940  173.8640  143.4290 C   0  0  0  0  0  3  0  0  0  0  0  0
  190.5150  173.9350  143.2410 C   0  0  0  0  0  0  0  0  0  0  0  0
  196.0780  174.8980  145.1910 N   0  0  0  0  0  2  0  0  0  0  0  0
  194.3290  176.2260  144.6650 O   0  0  0  0  0  0  0  0  0  0  0  0
  193.8810  173.9580  144.9900 C   0  0  0  0  0  0  0  0  0  0  0  0
  194.4370  172.7120  145.3080 C   0  0  0  0  0  3  0  0  0  0  0  0
  194.7520  175.0710  144.9380 C   0  0  0  0  0  0  0  0  0  0  0  0
  196.5870  173.7010  145.4900 N   0  0  0  0  0  0  0  0  0  0  0  0
  195.8020  172.5980  145.5570 C   0  0  0  0  0  0  0  0  0  0  0  0
  196.3810  171.3200  145.8630 C   0  0  0  0  0  0  0  0  0  0  0  0
  196.8720  170.2530  146.1310 C   0  0  0  0  0  0  0  0  0  0  0  0
  197.4750  168.9640  146.4730 C   0  0  0  0  0  2  0  0  0  0  0  0
  195.5940  168.2310  147.6380 C   0  0  0  0  0  1  0  0  0  0  0  0
  197.0090  168.5400  147.7790 N   0  0  0  0  0  2  0  0  0  0  0  0
  189.3010  174.5410  146.7090 C   0  0  0  0  0  2  0  0  0  0  0  0
  189.1060  176.0260  146.9380 C   0  0  0  0  0  2  0  0  0  0  0  0
  187.7800  176.4560  146.3510 C   0  0  0  0  0  2  0  0  0  0  0  0
  187.9480  177.7890  145.6480 C   0  0  0  0  0  2  0  0  0  0  0  0
  187.3630  176.6730  143.5840 O   0  0  0  0  0  0  0  0  0  0  0  0
  187.1820  177.9980  143.1970 N   0  0  0  0  0  0  0  0  0  0  0  0
  188.1940  177.5830  144.1500 C   0  0  1  0  0  0  0  0  0  0  0  0
  183.6580  178.9830  143.8930 O   0  0  0  0  0  1  0  0  0  0  0  0
  186.0370  178.4590  143.8690 N   0  0  0  0  0  2  0  0  0  0  0  0
  184.7630  178.4660  143.2280 C   0  0  0  0  0  0  0  0  0  0  0  0
  184.6360  178.0210  142.0570 O   0  0  0  0  0  0  0  0  0  0  0  0
  190.5340  177.8090  144.2990 O   0  0  0  0  0  0  0  0  0  0  0  0
  189.5780  177.5270  143.5950 C   0  0  0  0  0  3  0  0  0  0  0  0
  189.9900  173.7620  141.9600 O   0  0  0  0  0  0  0  0  0  0  0  0
  189.5090  172.5040  141.5100 C   0  0  0  0  0  2  0  0  0  0  0  0
  190.0680  171.1330  139.6440 O   0  0  0  0  0  0  0  0  0  0  0  0
  189.8960  172.2980  140.0880 C   0  0  0  0  0  0  0  0  0  0  0  0
  190.0410  173.4160  139.2210 N   0  0  0  0  0  1  0  0  0  0  0  0
  1  9  1  0  0  0  0
  1  2  1  0  0  0  0
  3  2  2  0  0  0  0
  3 19  1  0  0  0  0
  4  3  1  0  0  0  0
  5  1  2  0  0  0  0
  6  5  1  0  0  0  0
  6  4  2  0  0  0  0
  7 12  1  0  0  0  0
  8 11  2  0  0  0  0
  9 10  2  0  0  0  0
 10 13  1  0  0  0  0
 11  9  1  0  0  0  0
 11  7  1  0  0  0  0
 12 13  2  0  0  0  0
 13 14  1  0  0  0  0
 14 15  3  0  0  0  0
 15 16  1  0  0  0  0
 16 18  1  0  0  0  0
 17 18  1  0  0  0  0
 19 20  1  0  0  0  0
 21 20  1  0  0  0  0
 22 21  1  0  0  0  0
 23 25  1  0  0  0  0
 24 23  1  0  0  0  0
 24 27  1  0  0  0  0
 24 25  1  0  0  0  0
 25 31  1  6  0  0  0
 25 22  1  0  0  0  0
 28 27  1  0  0  0  0
 28 26  1  0  0  0  0
 29 28  2  0  0  0  0
 31 30  2  0  0  0  0
 32  6  1  0  0  0  0
 33 32  1  0  0  0  0
 34 35  2  0  0  0  0
 35 33  1  0  0  0  0
 36 35  1  0  0  0  0
M  END
>  <MODEL>
9

>  <REMARK>
 VINA RESULT:      -6.2      3.907     10.658
  Name = 
  14 active torsions:
  status: ('A' for Active; 'I' for Inactive)
    1  A    between atoms: C_4  and  C_7
    2  A    between atoms: C_8  and  C_12
    3  A    between atoms: C_8  and  O_33
    4  A    between atoms: C_9  and  C_18
    5  A    between atoms: C_9  and  C_27
    6  A    between atoms: C_11  and  C_35
    7  A    between atoms: C_15  and  C_21
    8  A    between atoms: N_16  and  N_23
    9  A    between atoms: C_18  and  C_29
   10  A    between atoms: C_19  and  N_31
   11  A    between atoms: C_19  and  C_34
   12  A    between atoms: C_21  and  C_29
   13  A    between atoms: C_24  and  C_27
   14  A    between atoms: O_33  and  C_36
                            x       y       z     vdW  Elec       q    Type
                         _______ _______ _______ _____ _____    ______ ____

>  <TORSDO>
F 14

$$$$
