=
 OpenBabel11042417433D

 48 56  0  0  1  0  0  0  0  0999 V2000
  189.9760  172.7430  141.7480 F   0  0  0  0  0  0  0  0  0  0  0  0
  190.9560  176.6650  142.6990 C   0  0  0  0  0  3  0  0  0  0  0  0
  191.9640  175.7550  142.3800 C   0  0  0  0  0  3  0  0  0  0  0  0
  189.2860  174.9380  142.3750 C   0  0  0  0  0  0  0  0  0  0  0  0
  188.0070  174.5000  142.4640 F   0  0  0  0  0  0  0  0  0  0  0  0
  190.2990  174.0270  142.0480 C   0  0  0  0  0  0  0  0  0  0  0  0
  189.6120  176.2730  142.6800 C   0  0  0  0  0  0  0  0  0  0  0  0
  191.6410  174.4390  142.0390 C   0  0  0  0  0  0  0  0  0  0  0  0
  184.7870  178.5800  141.5670 O   0  0  0  0  0  0  0  0  0  0  0  0
  184.7760  178.5070  143.9450 N   0  0  0  0  0  0  0  0  0  0  0  0
  188.1490  177.6060  144.3070 C   0  0  0  0  0  0  0  0  0  0  0  0
  187.7010  177.7400  142.1040 N   0  0  0  0  0  0  0  0  0  0  0  0
  187.0510  178.3710  144.1530 N   0  0  0  0  0  0  0  0  0  0  0  0
  186.8300  178.4460  142.8500 C   0  0  0  0  0  0  0  0  0  0  0  0
  185.7640  178.3980  144.7920 C   0  0  0  0  0  0  0  0  0  0  0  0
  185.4030  178.5450  142.6630 C   0  0  0  0  0  0  0  0  0  0  0  0
  188.5800  177.2660  143.0220 C   0  0  0  0  0  0  0  0  0  0  0  0
  185.5600  178.2910  146.2720 C   0  0  0  0  0  3  0  0  0  0  0  0
  184.0790  178.1030  146.5510 C   0  0  0  0  0  2  0  0  0  0  0  0
  185.0160  176.9220  146.6500 C   0  0  0  0  0  2  0  0  0  0  0  0
  188.5620  176.9270  145.5790 C   0  0  2  0  0  3  0  0  0  0  0  0
  188.6900  177.8670  146.6170 O   0  0  0  0  0  0  0  0  0  0  0  0
  189.8780  177.4370  146.0200 C   0  0  1  0  0  3  0  0  0  0  0  0
  190.5290  176.4660  146.8810 N   0  0  0  0  0  2  0  0  0  0  0  0
  190.4540  174.1620  145.5350 F   0  0  0  0  0  0  0  0  0  0  0  0
  194.0650  174.1960  145.2270 C   0  0  0  0  0  3  0  0  0  0  0  0
  194.4390  175.6350  145.1650 C   0  0  0  0  0  2  0  0  0  0  0  0
  191.7540  175.8080  146.5350 C   0  0  0  0  0  0  0  0  0  0  0  0
  192.8290  173.7800  145.5080 C   0  0  0  0  0  3  0  0  0  0  0  0
  193.0210  176.3830  147.0530 C   0  0  0  0  0  3  0  0  0  0  0  0
  194.2200  176.2930  146.4810 C   0  0  0  0  0  3  0  0  0  0  0  0
  191.6780  174.6440  145.8520 C   0  0  0  0  0  0  0  0  0  0  0  0
  192.7350  173.4800  141.6990 C   0  0  0  0  0  2  0  0  0  0  0  0
  191.9290  173.5310  135.6290 C   0  0  1  0  0  3  0  0  0  0  0  0
  193.9270  174.6000  139.5980 C   0  0  0  0  0  0  0  0  0  0  0  0
  195.1140  175.3720  139.4640 N   0  0  0  0  0  0  0  0  0  0  0  0
  191.8640  173.5050  138.7120 C   0  0  2  0  0  3  0  0  0  0  0  0
  191.0280  173.8950  134.5480 N   0  0  0  0  0  1  0  0  0  0  0  0
  193.8550  174.1790  140.9980 C   0  0  0  0  0  0  0  0  0  0  0  0
  194.8750  174.6470  141.6300 N   0  0  0  0  0  0  0  0  0  0  0  0
  196.8530  176.0190  140.9520 N   0  0  0  0  0  1  0  0  0  0  0  0
  191.8140  172.0540  139.1600 C   0  0  0  0  0  2  0  0  0  0  0  0
  192.1870  172.3820  137.7440 C   0  0  1  0  0  3  0  0  0  0  0  0
  193.0930  174.3360  138.5770 C   0  0  0  0  0  0  0  0  0  0  0  0
  192.7120  174.7610  136.0890 C   0  0  0  0  0  3  0  0  0  0  0  0
  193.2520  175.0690  137.2920 C   0  0  0  0  0  3  0  0  0  0  0  0
  191.1850  172.6970  136.6770 C   0  0  0  0  0  2  0  0  0  0  0  0
  195.6300  175.3570  140.6480 C   0  0  0  0  0  0  0  0  0  0  0  0
  1  6  1  0  0  0  0
  3  2  2  0  0  0  0
  4  5  1  0  0  0  0
  4  7  2  0  0  0  0
  6  4  1  0  0  0  0
  7  2  1  0  0  0  0
  7 17  1  0  0  0  0
  8  6  2  0  0  0  0
  8  3  1  0  0  0  0
  9 16  2  0  0  0  0
 10 15  2  0  0  0  0
 12 14  2  0  0  0  0
 12 17  1  0  0  0  0
 13 11  1  0  0  0  0
 13 15  1  0  0  0  0
 14 13  1  0  0  0  0
 15 18  1  0  0  0  0
 16 14  1  0  0  0  0
 16 10  1  0  0  0  0
 17 11  2  0  0  0  0
 18 19  1  0  0  0  0
 18 20  1  0  0  0  0
 19 20  1  0  0  0  0
 21 11  1  6  0  0  0
 21 23  1  0  0  0  0
 21 22  1  0  0  0  0
 23 22  1  0  0  0  0
 23 24  1  1  0  0  0
 25 32  1  0  0  0  0
 26 29  2  0  0  0  0
 27 26  1  0  0  0  0
 27 31  1  0  0  0  0
 28 24  1  0  0  0  0
 28 30  1  0  0  0  0
 29 32  1  0  0  0  0
 31 30  2  0  0  0  0
 32 28  2  0  0  0  0
 33  8  1  0  0  0  0
 34 38  1  6  0  0  0
 34 45  1  0  0  0  0
 34 47  1  0  0  0  0
 35 39  1  0  0  0  0
 36 35  1  0  0  0  0
 36 48  2  0  0  0  0
 37 42  1  1  0  0  0
 39 40  2  0  0  0  0
 39 33  1  0  0  0  0
 43 47  1  6  0  0  0
 43 37  1  0  0  0  0
 43 42  1  0  0  0  0
 44 37  1  0  0  0  0
 44 35  2  0  0  0  0
 45 46  2  0  0  0  0
 46 44  1  0  0  0  0
 48 41  1  0  0  0  0
 48 40  1  0  0  0  0
M  END
>  <MODEL>
1

>  <REMARK>
 VINA RESULT:      -8.9      0.000      0.000
  Name = 
  7 active torsions:
  status: ('A' for Active; 'I' for Inactive)
    1  A    between atoms: C_8  and  C_36
    2  A    between atoms: C_11  and  C_17
    3  A    between atoms: C_15  and  C_16
    4  A    between atoms: C_15  and  C_30
    5  A    between atoms: C_22  and  N_32
    6  A    between atoms: C_26  and  C_48
    7  A    between atoms: N_32  and  C_47
                            x       y       z     vdW  Elec       q    Type
                         _______ _______ _______ _____ _____    ______ ____

>  <TORSDO>
F 7

$$$$
=
 OpenBabel11042417433D

 48 56  0  0  1  0  0  0  0  0999 V2000
  192.9540  172.8060  145.0690 F   0  0  0  0  0  0  0  0  0  0  0  0
  191.6090  176.6020  146.0800 C   0  0  0  0  0  3  0  0  0  0  0  0
  192.9790  176.3440  146.0190 C   0  0  0  0  0  3  0  0  0  0  0  0
  191.1430  174.3070  145.4570 C   0  0  0  0  0  0  0  0  0  0  0  0
  190.2710  173.2850  145.2790 F   0  0  0  0  0  0  0  0  0  0  0  0
  192.5190  174.0510  145.3890 C   0  0  0  0  0  0  0  0  0  0  0  0
  190.6810  175.5970  145.7810 C   0  0  0  0  0  0  0  0  0  0  0  0
  193.4400  175.0750  145.6600 C   0  0  0  0  0  0  0  0  0  0  0  0
  186.6430  178.5030  148.0370 O   0  0  0  0  0  0  0  0  0  0  0  0
  185.9760  178.3960  145.7570 N   0  0  0  0  0  0  0  0  0  0  0  0
  188.3600  176.0110  144.7810 C   0  0  0  0  0  0  0  0  0  0  0  0
  188.6840  176.4600  146.9640 N   0  0  0  0  0  0  0  0  0  0  0  0
  187.2200  176.5380  145.2690 N   0  0  0  0  0  0  0  0  0  0  0  0
  187.4390  176.7680  146.5540 C   0  0  0  0  0  0  0  0  0  0  0  0
  186.3270  177.5650  144.8110 C   0  0  0  0  0  0  0  0  0  0  0  0
  186.6640  177.9300  146.9180 C   0  0  0  0  0  0  0  0  0  0  0  0
  189.2460  175.9130  145.8570 C   0  0  0  0  0  0  0  0  0  0  0  0
  185.8560  177.6980  143.3950 C   0  0  0  0  0  3  0  0  0  0  0  0
  185.1750  179.0450  143.2290 C   0  0  0  0  0  2  0  0  0  0  0  0
  186.5700  178.8390  142.6880 C   0  0  0  0  0  2  0  0  0  0  0  0
  188.7320  175.9430  143.3290 C   0  0  2  0  0  3  0  0  0  0  0  0
  187.6490  175.4650  142.5680 O   0  0  0  0  0  0  0  0  0  0  0  0
  188.6610  174.5440  142.8550 C   0  0  1  0  0  3  0  0  0  0  0  0
  189.5020  174.3690  141.6840 N   0  0  0  0  0  2  0  0  0  0  0  0
  192.0490  175.0100  142.1640 F   0  0  0  0  0  0  0  0  0  0  0  0
  193.0020  171.5230  141.8970 C   0  0  0  0  0  3  0  0  0  0  0  0
  191.8230  170.7570  142.3840 C   0  0  0  0  0  2  0  0  0  0  0  0
  190.5160  173.3600  141.5910 C   0  0  0  0  0  0  0  0  0  0  0  0
  192.9740  172.8410  141.6890 C   0  0  0  0  0  3  0  0  0  0  0  0
  190.1140  172.0160  141.1070 C   0  0  0  0  0  3  0  0  0  0  0  0
  190.6940  170.8590  141.4210 C   0  0  0  0  0  3  0  0  0  0  0  0
  191.7940  173.7200  141.8420 C   0  0  0  0  0  0  0  0  0  0  0  0
  194.9100  174.8190  145.5990 C   0  0  0  0  0  2  0  0  0  0  0  0
  197.8120  169.8220  143.5730 C   0  0  1  0  0  3  0  0  0  0  0  0
  195.9610  173.9920  143.2970 C   0  0  0  0  0  0  0  0  0  0  0  0
  196.1500  174.6310  142.0400 N   0  0  0  0  0  0  0  0  0  0  0  0
  196.0910  172.0400  144.8500 C   0  0  2  0  0  3  0  0  0  0  0  0
  197.7030  168.3920  143.3400 N   0  0  0  0  0  1  0  0  0  0  0  0
  195.4250  175.0050  144.2070 C   0  0  0  0  0  0  0  0  0  0  0  0
  195.3010  176.1180  143.5720 N   0  0  0  0  0  0  0  0  0  0  0  0
  195.8110  176.8440  141.2340 N   0  0  0  0  0  1  0  0  0  0  0  0
  196.7630  172.4540  146.1480 C   0  0  0  0  0  2  0  0  0  0  0  0
  197.5250  171.6410  145.1440 C   0  0  1  0  0  3  0  0  0  0  0  0
  196.2640  172.7030  143.5270 C   0  0  0  0  0  0  0  0  0  0  0  0
  197.1640  170.5870  142.4180 C   0  0  0  0  0  3  0  0  0  0  0  0
  196.5790  171.8070  142.3810 C   0  0  0  0  0  3  0  0  0  0  0  0
  197.3890  170.1560  145.0070 C   0  0  0  0  0  2  0  0  0  0  0  0
  195.7740  175.8490  142.2520 C   0  0  0  0  0  0  0  0  0  0  0  0
  1  6  1  0  0  0  0
  3  2  1  0  0  0  0
  4  7  1  0  0  0  0
  5  4  1  0  0  0  0
  6  4  2  0  0  0  0
  6  8  1  0  0  0  0
  7 17  1  0  0  0  0
  7  2  2  0  0  0  0
  8  3  2  0  0  0  0
 10 16  1  0  0  0  0
 11 13  1  0  0  0  0
 11 17  2  0  0  0  0
 13 14  1  0  0  0  0
 14 16  1  0  0  0  0
 14 12  2  0  0  0  0
 15 13  1  0  0  0  0
 15 10  2  0  0  0  0
 16  9  2  0  0  0  0
 17 12  1  0  0  0  0
 18 15  1  0  0  0  0
 19 18  1  0  0  0  0
 20 19  1  0  0  0  0
 20 18  1  0  0  0  0
 21 11  1  1  0  0  0
 22 23  1  0  0  0  0
 22 21  1  0  0  0  0
 23 24  1  6  0  0  0
 23 21  1  0  0  0  0
 26 27  1  0  0  0  0
 28 24  1  0  0  0  0
 28 32  2  0  0  0  0
 29 32  1  0  0  0  0
 29 26  2  0  0  0  0
 30 31  2  0  0  0  0
 30 28  1  0  0  0  0
 31 27  1  0  0  0  0
 32 25  1  0  0  0  0
 33  8  1  0  0  0  0
 34 38  1  6  0  0  0
 34 47  1  0  0  0  0
 35 44  2  0  0  0  0
 35 39  1  0  0  0  0
 36 48  2  0  0  0  0
 36 35  1  0  0  0  0
 37 43  1  0  0  0  0
 37 42  1  1  0  0  0
 39 33  1  0  0  0  0
 40 39  2  0  0  0  0
 41 48  1  0  0  0  0
 43 47  1  1  0  0  0
 43 42  1  0  0  0  0
 44 37  1  0  0  0  0
 45 34  1  0  0  0  0
 46 45  2  0  0  0  0
 46 44  1  0  0  0  0
 48 40  1  0  0  0  0
M  END
>  <MODEL>
2

>  <REMARK>
 VINA RESULT:      -8.9      2.723      5.535
  Name = 
  7 active torsions:
  status: ('A' for Active; 'I' for Inactive)
    1  A    between atoms: C_8  and  C_36
    2  A    between atoms: C_11  and  C_17
    3  A    between atoms: C_15  and  C_16
    4  A    between atoms: C_15  and  C_30
    5  A    between atoms: C_22  and  N_32
    6  A    between atoms: C_26  and  C_48
    7  A    between atoms: N_32  and  C_47
                            x       y       z     vdW  Elec       q    Type
                         _______ _______ _______ _____ _____    ______ ____

>  <TORSDO>
F 7

$$$$
=
 OpenBabel11042417433D

 48 56  0  0  1  0  0  0  0  0999 V2000
  190.4600  172.9660  141.0560 F   0  0  0  0  0  0  0  0  0  0  0  0
  191.0190  176.6260  142.9380 C   0  0  0  0  0  3  0  0  0  0  0  0
  192.1140  175.7960  142.6920 C   0  0  0  0  0  3  0  0  0  0  0  0
  189.5470  174.9950  141.9130 C   0  0  0  0  0  0  0  0  0  0  0  0
  188.3030  174.5480  141.6180 F   0  0  0  0  0  0  0  0  0  0  0  0
  190.6480  174.1660  141.6610 C   0  0  0  0  0  0  0  0  0  0  0  0
  189.7340  176.2450  142.5340 C   0  0  0  0  0  0  0  0  0  0  0  0
  191.9370  174.5720  142.0410 C   0  0  0  0  0  0  0  0  0  0  0  0
  184.9380  178.3560  140.9890 O   0  0  0  0  0  0  0  0  0  0  0  0
  184.6480  178.1070  143.3370 N   0  0  0  0  0  0  0  0  0  0  0  0
  188.0050  177.3720  144.0520 C   0  0  0  0  0  0  0  0  0  0  0  0
  187.8160  177.6420  141.8240 N   0  0  0  0  0  0  0  0  0  0  0  0
  186.8860  178.0830  143.8150 N   0  0  0  0  0  0  0  0  0  0  0  0
  186.8180  178.2410  142.5020 C   0  0  0  0  0  0  0  0  0  0  0  0
  185.5340  177.9920  144.2900 C   0  0  0  0  0  0  0  0  0  0  0  0
  185.4200  178.2750  142.1470 C   0  0  0  0  0  0  0  0  0  0  0  0
  188.6070  177.1510  142.8110 C   0  0  0  0  0  0  0  0  0  0  0  0
  185.1610  177.7650  145.7230 C   0  0  0  0  0  3  0  0  0  0  0  0
  185.4110  179.0430  146.5040 C   0  0  0  0  0  2  0  0  0  0  0  0
  183.9990  178.6550  146.1330 C   0  0  0  0  0  2  0  0  0  0  0  0
  188.3060  176.6240  145.3170 C   0  0  2  0  0  3  0  0  0  0  0  0
  188.0880  177.4490  146.4370 O   0  0  0  0  0  0  0  0  0  0  0  0
  189.4180  177.2800  146.0390 C   0  0  1  0  0  3  0  0  0  0  0  0
  190.0700  176.3310  146.9230 N   0  0  0  0  0  2  0  0  0  0  0  0
  190.8810  174.1050  145.6930 F   0  0  0  0  0  0  0  0  0  0  0  0
  194.3400  175.1110  146.0980 C   0  0  0  0  0  3  0  0  0  0  0  0
  194.3230  176.5980  146.0460 C   0  0  0  0  0  2  0  0  0  0  0  0
  191.4700  176.0300  146.8540 C   0  0  0  0  0  0  0  0  0  0  0  0
  193.2280  174.3760  146.1490 C   0  0  0  0  0  3  0  0  0  0  0  0
  192.4080  176.9190  147.5840 C   0  0  0  0  0  3  0  0  0  0  0  0
  193.6770  177.1600  147.2630 C   0  0  0  0  0  3  0  0  0  0  0  0
  191.8440  174.8950  146.2210 C   0  0  0  0  0  0  0  0  0  0  0  0
  193.1230  173.6990  141.7870 C   0  0  0  0  0  2  0  0  0  0  0  0
  195.6730  169.8570  145.8160 C   0  0  1  0  0  3  0  0  0  0  0  0
  195.3610  173.6100  143.2250 C   0  0  0  0  0  0  0  0  0  0  0  0
  196.4170  174.5430  143.4210 N   0  0  0  0  0  0  0  0  0  0  0  0
  194.2400  171.4040  143.5650 C   0  0  2  0  0  3  0  0  0  0  0  0
  196.2070  168.5210  146.0170 N   0  0  0  0  0  1  0  0  0  0  0  0
  194.3530  174.2820  142.4040 C   0  0  0  0  0  0  0  0  0  0  0  0
  194.7580  175.4750  142.1350 N   0  0  0  0  0  0  0  0  0  0  0  0
  196.7940  176.7920  142.7460 N   0  0  0  0  0  1  0  0  0  0  0  0
  192.7990  171.6150  143.9960 C   0  0  0  0  0  2  0  0  0  0  0  0
  193.8220  171.1940  145.0090 C   0  0  1  0  0  3  0  0  0  0  0  0
  195.3580  172.3710  143.7490 C   0  0  0  0  0  0  0  0  0  0  0  0
  196.7300  170.7480  145.1610 C   0  0  0  0  0  3  0  0  0  0  0  0
  196.6030  171.8280  144.3560 C   0  0  0  0  0  3  0  0  0  0  0  0
  194.2810  169.7780  145.1820 C   0  0  0  0  0  2  0  0  0  0  0  0
  196.0180  175.5990  142.7940 C   0  0  0  0  0  0  0  0  0  0  0  0
  1  6  1  0  0  0  0
  3  2  1  0  0  0  0
  4  7  1  0  0  0  0
  5  4  1  0  0  0  0
  6  4  2  0  0  0  0
  6  8  1  0  0  0  0
  7 17  1  0  0  0  0
  7  2  2  0  0  0  0
  8  3  2  0  0  0  0
  9 16  2  0  0  0  0
 10 15  2  0  0  0  0
 12 14  2  0  0  0  0
 12 17  1  0  0  0  0
 13 11  1  0  0  0  0
 13 15  1  0  0  0  0
 14 13  1  0  0  0  0
 15 18  1  0  0  0  0
 16 14  1  0  0  0  0
 16 10  1  0  0  0  0
 17 11  2  0  0  0  0
 18 20  1  0  0  0  0
 18 19  1  0  0  0  0
 20 19  1  0  0  0  0
 21 11  1  6  0  0  0
 21 23  1  0  0  0  0
 21 22  1  0  0  0  0
 23 22  1  0  0  0  0
 23 24  1  1  0  0  0
 25 32  1  0  0  0  0
 26 29  2  0  0  0  0
 27 26  1  0  0  0  0
 27 31  1  0  0  0  0
 28 24  1  0  0  0  0
 28 30  1  0  0  0  0
 29 32  1  0  0  0  0
 31 30  2  0  0  0  0
 32 28  2  0  0  0  0
 33  8  1  0  0  0  0
 33 39  1  0  0  0  0
 34 38  1  6  0  0  0
 35 36  1  0  0  0  0
 35 44  2  0  0  0  0
 37 44  1  0  0  0  0
 37 42  1  6  0  0  0
 37 43  1  0  0  0  0
 39 35  1  0  0  0  0
 40 39  2  0  0  0  0
 40 48  1  0  0  0  0
 41 48  1  0  0  0  0
 43 42  1  6  0  0  0
 43 47  1  0  0  0  0
 44 46  1  0  0  0  0
 45 34  1  0  0  0  0
 46 45  2  0  0  0  0
 47 34  1  0  0  0  0
 48 36  2  0  0  0  0
M  END
>  <MODEL>
3

>  <REMARK>
 VINA RESULT:      -8.8      2.442      4.117
  Name = 
  7 active torsions:
  status: ('A' for Active; 'I' for Inactive)
    1  A    between atoms: C_8  and  C_36
    2  A    between atoms: C_11  and  C_17
    3  A    between atoms: C_15  and  C_16
    4  A    between atoms: C_15  and  C_30
    5  A    between atoms: C_22  and  N_32
    6  A    between atoms: C_26  and  C_48
    7  A    between atoms: N_32  and  C_47
                            x       y       z     vdW  Elec       q    Type
                         _______ _______ _______ _____ _____    ______ ____

>  <TORSDO>
F 7

$$$$
=
 OpenBabel11042417433D

 48 56  0  0  1  0  0  0  0  0999 V2000
  192.6070  173.1350  145.2110 F   0  0  0  0  0  0  0  0  0  0  0  0
  191.0160  176.9610  145.4770 C   0  0  0  0  0  3  0  0  0  0  0  0
  192.3900  176.7910  145.3040 C   0  0  0  0  0  3  0  0  0  0  0  0
  190.7100  174.5570  145.4670 C   0  0  0  0  0  0  0  0  0  0  0  0
  189.9280  173.4650  145.6430 F   0  0  0  0  0  0  0  0  0  0  0  0
  192.0890  174.3870  145.2860 C   0  0  0  0  0  0  0  0  0  0  0  0
  190.1630  175.8520  145.5390 C   0  0  0  0  0  0  0  0  0  0  0  0
  192.9300  175.5070  145.1930 C   0  0  0  0  0  0  0  0  0  0  0  0
  186.1240  178.3890  148.2010 O   0  0  0  0  0  0  0  0  0  0  0  0
  185.3160  178.3620  145.9630 N   0  0  0  0  0  0  0  0  0  0  0  0
  187.7620  176.1780  144.7100 C   0  0  0  0  0  0  0  0  0  0  0  0
  188.2020  176.5310  146.8900 N   0  0  0  0  0  0  0  0  0  0  0  0
  186.6290  176.6100  145.2960 N   0  0  0  0  0  0  0  0  0  0  0  0
  186.9170  176.7860  146.5760 C   0  0  0  0  0  0  0  0  0  0  0  0
  185.6510  177.6050  144.9520 C   0  0  0  0  0  0  0  0  0  0  0  0
  186.1030  177.8790  147.0520 C   0  0  0  0  0  0  0  0  0  0  0  0
  188.7200  176.0780  145.7210 C   0  0  0  0  0  0  0  0  0  0  0  0
  185.0830  177.7840  143.5780 C   0  0  0  0  0  3  0  0  0  0  0  0
  184.2560  179.0570  143.5510 C   0  0  0  0  0  2  0  0  0  0  0  0
  185.6290  179.0410  142.9210 C   0  0  0  0  0  2  0  0  0  0  0  0
  188.0420  176.2090  143.2360 C   0  0  2  0  0  3  0  0  0  0  0  0
  187.0040  175.5770  142.5270 O   0  0  0  0  0  0  0  0  0  0  0  0
  188.1700  174.8300  142.7180 C   0  0  1  0  0  3  0  0  0  0  0  0
  188.9470  174.8260  141.4920 N   0  0  0  0  0  2  0  0  0  0  0  0
  188.3100  173.5520  139.2330 F   0  0  0  0  0  0  0  0  0  0  0  0
  191.2900  171.5090  139.5160 C   0  0  0  0  0  3  0  0  0  0  0  0
  192.2970  172.3760  140.1870 C   0  0  0  0  0  2  0  0  0  0  0  0
  189.7330  173.7050  141.0650 C   0  0  0  0  0  0  0  0  0  0  0  0
  190.0090  171.8560  139.3840 C   0  0  0  0  0  3  0  0  0  0  0  0
  190.8030  173.2220  141.9720 C   0  0  0  0  0  3  0  0  0  0  0  0
  191.9270  172.6070  141.6090 C   0  0  0  0  0  3  0  0  0  0  0  0
  189.3820  173.0850  139.9150 C   0  0  0  0  0  0  0  0  0  0  0  0
  194.4040  175.3460  145.0070 C   0  0  0  0  0  2  0  0  0  0  0  0
  197.4290  170.0460  144.5060 C   0  0  1  0  0  3  0  0  0  0  0  0
  195.2290  173.7690  143.0270 C   0  0  0  0  0  0  0  0  0  0  0  0
  195.2100  173.9120  141.6120 N   0  0  0  0  0  0  0  0  0  0  0  0
  195.7050  172.5230  145.1390 C   0  0  2  0  0  3  0  0  0  0  0  0
  197.4090  168.6270  144.8170 N   0  0  0  0  0  1  0  0  0  0  0  0
  194.7280  175.0270  143.5830 C   0  0  0  0  0  0  0  0  0  0  0  0
  194.4380  175.8270  142.6160 N   0  0  0  0  0  0  0  0  0  0  0  0
  194.5980  175.6660  140.1260 N   0  0  0  0  0  1  0  0  0  0  0  0
  196.4940  173.4030  146.0930 C   0  0  0  0  0  2  0  0  0  0  0  0
  197.1910  172.3030  145.3470 C   0  0  1  0  0  3  0  0  0  0  0  0
  195.6610  172.6620  143.6560 C   0  0  0  0  0  0  0  0  0  0  0  0
  196.5860  170.3170  143.2590 C   0  0  0  0  0  3  0  0  0  0  0  0
  195.9040  171.4210  142.8730 C   0  0  0  0  0  3  0  0  0  0  0  0
  197.1600  170.8670  145.7700 C   0  0  0  0  0  2  0  0  0  0  0  0
  194.7670  175.1100  141.4260 C   0  0  0  0  0  0  0  0  0  0  0  0
  1  6  1  0  0  0  0
  2  7  1  0  0  0  0
  3  2  2  0  0  0  0
  4  7  2  0  0  0  0
  4  5  1  0  0  0  0
  6  4  1  0  0  0  0
  7 17  1  0  0  0  0
  8  6  2  0  0  0  0
  8  3  1  0  0  0  0
 10 16  1  0  0  0  0
 11 13  1  0  0  0  0
 11 17  2  0  0  0  0
 13 14  1  0  0  0  0
 14 12  2  0  0  0  0
 14 16  1  0  0  0  0
 15 13  1  0  0  0  0
 15 10  2  0  0  0  0
 16  9  2  0  0  0  0
 17 12  1  0  0  0  0
 18 15  1  0  0  0  0
 19 18  1  0  0  0  0
 20 19  1  0  0  0  0
 20 18  1  0  0  0  0
 21 11  1  1  0  0  0
 22 23  1  0  0  0  0
 22 21  1  0  0  0  0
 23 24  1  6  0  0  0
 23 21  1  0  0  0  0
 25 32  1  0  0  0  0
 26 27  1  0  0  0  0
 27 31  1  0  0  0  0
 28 24  1  0  0  0  0
 28 30  1  0  0  0  0
 29 26  2  0  0  0  0
 29 32  1  0  0  0  0
 31 30  2  0  0  0  0
 32 28  2  0  0  0  0
 33  8  1  0  0  0  0
 34 38  1  1  0  0  0
 34 47  1  0  0  0  0
 35 39  1  0  0  0  0
 35 44  2  0  0  0  0
 36 35  1  0  0  0  0
 37 43  1  0  0  0  0
 37 42  1  1  0  0  0
 39 33  1  0  0  0  0
 40 39  2  0  0  0  0
 41 48  1  0  0  0  0
 43 47  1  1  0  0  0
 43 42  1  0  0  0  0
 44 37  1  0  0  0  0
 45 34  1  0  0  0  0
 46 45  2  0  0  0  0
 46 44  1  0  0  0  0
 48 36  2  0  0  0  0
 48 40  1  0  0  0  0
M  END
>  <MODEL>
4

>  <REMARK>
 VINA RESULT:      -8.6      2.496      5.687
  Name = 
  7 active torsions:
  status: ('A' for Active; 'I' for Inactive)
    1  A    between atoms: C_8  and  C_36
    2  A    between atoms: C_11  and  C_17
    3  A    between atoms: C_15  and  C_16
    4  A    between atoms: C_15  and  C_30
    5  A    between atoms: C_22  and  N_32
    6  A    between atoms: C_26  and  C_48
    7  A    between atoms: N_32  and  C_47
                            x       y       z     vdW  Elec       q    Type
                         _______ _______ _______ _____ _____    ______ ____

>  <TORSDO>
F 7

$$$$
=
 OpenBabel11042417433D

 48 56  0  0  1  0  0  0  0  0999 V2000
  193.4280  176.1280  142.6900 F   0  0  0  0  0  0  0  0  0  0  0  0
  189.5200  174.8140  142.1940 C   0  0  0  0  0  3  0  0  0  0  0  0
  190.5820  173.9380  141.9640 C   0  0  0  0  0  3  0  0  0  0  0  0
  191.0870  176.5740  142.7620 C   0  0  0  0  0  0  0  0  0  0  0  0
  191.3530  177.8710  143.0520 F   0  0  0  0  0  0  0  0  0  0  0  0
  192.1520  175.6920  142.5370 C   0  0  0  0  0  0  0  0  0  0  0  0
  189.7600  176.1280  142.6140 C   0  0  0  0  0  0  0  0  0  0  0  0
  191.8990  174.3670  142.1480 C   0  0  0  0  0  0  0  0  0  0  0  0
  184.8720  177.9710  141.0180 O   0  0  0  0  0  0  0  0  0  0  0  0
  184.6330  177.8880  143.3830 N   0  0  0  0  0  0  0  0  0  0  0  0
  188.0240  177.3100  144.0810 C   0  0  0  0  0  0  0  0  0  0  0  0
  187.7860  177.4100  141.8440 N   0  0  0  0  0  0  0  0  0  0  0  0
  186.8790  177.9680  143.8160 N   0  0  0  0  0  0  0  0  0  0  0  0
  186.7820  178.0260  142.4960 C   0  0  0  0  0  0  0  0  0  0  0  0
  185.5390  177.8710  144.3240 C   0  0  0  0  0  0  0  0  0  0  0  0
  185.3770  177.9910  142.1690 C   0  0  0  0  0  0  0  0  0  0  0  0
  188.6100  177.0180  142.8470 C   0  0  0  0  0  0  0  0  0  0  0  0
  185.2000  177.7390  145.7770 C   0  0  0  0  0  3  0  0  0  0  0  0
  185.4810  179.0610  146.4690 C   0  0  0  0  0  2  0  0  0  0  0  0
  184.0570  178.6660  146.1570 C   0  0  0  0  0  2  0  0  0  0  0  0
  188.3720  176.6680  145.3910 C   0  0  2  0  0  3  0  0  0  0  0  0
  188.2410  177.5960  146.4410 O   0  0  0  0  0  0  0  0  0  0  0  0
  189.5420  177.3460  145.9910 C   0  0  1  0  0  3  0  0  0  0  0  0
  190.2130  176.4570  146.9220 N   0  0  0  0  0  2  0  0  0  0  0  0
  190.6750  174.1530  145.6550 F   0  0  0  0  0  0  0  0  0  0  0  0
  194.2430  174.7810  145.7630 C   0  0  0  0  0  3  0  0  0  0  0  0
  194.3820  176.2610  145.6950 C   0  0  0  0  0  2  0  0  0  0  0  0
  191.5610  176.0060  146.7410 C   0  0  0  0  0  0  0  0  0  0  0  0
  193.0670  174.1700  145.9130 C   0  0  0  0  0  3  0  0  0  0  0  0
  192.6460  176.7900  147.3820 C   0  0  0  0  0  3  0  0  0  0  0  0
  193.9030  176.8920  146.9540 C   0  0  0  0  0  3  0  0  0  0  0  0
  191.7580  174.8360  146.0930 C   0  0  0  0  0  0  0  0  0  0  0  0
  193.0220  173.4140  141.8980 C   0  0  0  0  0  2  0  0  0  0  0  0
  194.6740  168.8320  145.6090 C   0  0  1  0  0  3  0  0  0  0  0  0
  192.4820  170.8170  142.1240 C   0  0  0  0  0  0  0  0  0  0  0  0
  191.7350  169.9150  141.3160 N   0  0  0  0  0  0  0  0  0  0  0  0
  193.8520  171.4090  144.1270 C   0  0  2  0  0  3  0  0  0  0  0  0
  194.6540  168.3380  146.9750 N   0  0  0  0  0  1  0  0  0  0  0  0
  192.5030  172.0970  141.4150 C   0  0  0  0  0  0  0  0  0  0  0  0
  191.8430  171.9800  140.3160 N   0  0  0  0  0  0  0  0  0  0  0  0
  190.6420  170.0860  139.2100 N   0  0  0  0  0  1  0  0  0  0  0  0
  195.1240  172.1180  143.6940 C   0  0  0  0  0  2  0  0  0  0  0  0
  195.1860  170.6860  144.1380 C   0  0  1  0  0  3  0  0  0  0  0  0
  193.0470  170.4720  143.2940 C   0  0  0  0  0  0  0  0  0  0  0  0
  193.3380  168.5330  144.9280 C   0  0  0  0  0  3  0  0  0  0  0  0
  192.6910  169.1720  143.9260 C   0  0  0  0  0  3  0  0  0  0  0  0
  195.2130  170.2660  145.5760 C   0  0  0  0  0  2  0  0  0  0  0  0
  191.4060  170.6220  140.2860 C   0  0  0  0  0  0  0  0  0  0  0  0
  2  7  1  0  0  0  0
  3  8  1  0  0  0  0
  3  2  2  0  0  0  0
  4  5  1  0  0  0  0
  6  1  1  0  0  0  0
  6  4  1  0  0  0  0
  7  4  2  0  0  0  0
  7 17  1  0  0  0  0
  8  6  2  0  0  0  0
  9 16  2  0  0  0  0
 10 15  2  0  0  0  0
 12 14  2  0  0  0  0
 12 17  1  0  0  0  0
 13 11  1  0  0  0  0
 13 15  1  0  0  0  0
 14 13  1  0  0  0  0
 15 18  1  0  0  0  0
 16 14  1  0  0  0  0
 16 10  1  0  0  0  0
 17 11  2  0  0  0  0
 18 20  1  0  0  0  0
 18 19  1  0  0  0  0
 20 19  1  0  0  0  0
 21 11  1  6  0  0  0
 21 23  1  0  0  0  0
 21 22  1  0  0  0  0
 23 22  1  0  0  0  0
 23 24  1  1  0  0  0
 25 32  1  0  0  0  0
 26 29  2  0  0  0  0
 27 26  1  0  0  0  0
 27 31  1  0  0  0  0
 28 24  1  0  0  0  0
 28 30  1  0  0  0  0
 29 32  1  0  0  0  0
 31 30  2  0  0  0  0
 32 28  2  0  0  0  0
 33  8  1  0  0  0  0
 34 38  1  1  0  0  0
 35 44  2  0  0  0  0
 36 35  1  0  0  0  0
 37 42  1  6  0  0  0
 37 43  1  0  0  0  0
 39 33  1  0  0  0  0
 39 35  1  0  0  0  0
 40 39  2  0  0  0  0
 41 48  1  0  0  0  0
 43 42  1  1  0  0  0
 43 47  1  0  0  0  0
 44 46  1  0  0  0  0
 44 37  1  0  0  0  0
 45 34  1  0  0  0  0
 46 45  2  0  0  0  0
 47 34  1  0  0  0  0
 48 40  1  0  0  0  0
 48 36  2  0  0  0  0
M  END
>  <MODEL>
5

>  <REMARK>
 VINA RESULT:      -8.5      2.733      4.743
  Name = 
  7 active torsions:
  status: ('A' for Active; 'I' for Inactive)
    1  A    between atoms: C_8  and  C_36
    2  A    between atoms: C_11  and  C_17
    3  A    between atoms: C_15  and  C_16
    4  A    between atoms: C_15  and  C_30
    5  A    between atoms: C_22  and  N_32
    6  A    between atoms: C_26  and  C_48
    7  A    between atoms: N_32  and  C_47
                            x       y       z     vdW  Elec       q    Type
                         _______ _______ _______ _____ _____    ______ ____

>  <TORSDO>
F 7

$$$$
=
 OpenBabel11042417433D

 48 56  0  0  1  0  0  0  0  0999 V2000
  191.2810  173.4510  142.1710 F   0  0  0  0  0  0  0  0  0  0  0  0
  191.2180  177.5320  142.9330 C   0  0  0  0  0  3  0  0  0  0  0  0
  192.4300  176.8930  142.6670 C   0  0  0  0  0  3  0  0  0  0  0  0
  190.0460  175.4250  142.6820 C   0  0  0  0  0  0  0  0  0  0  0  0
  188.9180  174.6820  142.7830 F   0  0  0  0  0  0  0  0  0  0  0  0
  191.2630  174.7860  142.4090 C   0  0  0  0  0  0  0  0  0  0  0  0
  190.0170  176.8120  142.9230 C   0  0  0  0  0  0  0  0  0  0  0  0
  192.4570  175.5240  142.3900 C   0  0  0  0  0  0  0  0  0  0  0  0
  184.9960  178.2600  141.3330 O   0  0  0  0  0  0  0  0  0  0  0  0
  184.6930  177.8550  143.6570 N   0  0  0  0  0  0  0  0  0  0  0  0
  188.1050  177.5920  144.4390 C   0  0  0  0  0  0  0  0  0  0  0  0
  187.9280  177.9420  142.2210 N   0  0  0  0  0  0  0  0  0  0  0  0
  186.8980  178.1390  144.2010 N   0  0  0  0  0  0  0  0  0  0  0  0
  186.8370  178.3510  142.8960 C   0  0  0  0  0  0  0  0  0  0  0  0
  185.5640  177.8250  144.6310 C   0  0  0  0  0  0  0  0  0  0  0  0
  185.4580  178.1940  142.5000 C   0  0  0  0  0  0  0  0  0  0  0  0
  188.7610  177.5250  143.2080 C   0  0  0  0  0  0  0  0  0  0  0  0
  185.1970  177.4740  146.0400 C   0  0  0  0  0  3  0  0  0  0  0  0
  185.4090  178.6920  146.9210 C   0  0  0  0  0  2  0  0  0  0  0  0
  184.0090  178.2950  146.5150 C   0  0  0  0  0  2  0  0  0  0  0  0
  188.4850  176.8350  145.6770 C   0  0  2  0  0  3  0  0  0  0  0  0
  188.4000  177.6700  146.8070 O   0  0  0  0  0  0  0  0  0  0  0  0
  189.6820  177.4470  146.2950 C   0  0  1  0  0  3  0  0  0  0  0  0
  190.3710  176.4740  147.1230 N   0  0  0  0  0  2  0  0  0  0  0  0
  190.6630  174.1910  145.7710 F   0  0  0  0  0  0  0  0  0  0  0  0
  194.2470  174.7070  145.6250 C   0  0  0  0  0  3  0  0  0  0  0  0
  194.4280  176.1830  145.5820 C   0  0  0  0  0  2  0  0  0  0  0  0
  191.6870  175.9870  146.8310 C   0  0  0  0  0  0  0  0  0  0  0  0
  193.0660  174.1280  145.8490 C   0  0  0  0  0  3  0  0  0  0  0  0
  192.8410  176.7210  147.4070 C   0  0  0  0  0  3  0  0  0  0  0  0
  194.0660  176.7960  146.8880 C   0  0  0  0  0  3  0  0  0  0  0  0
  191.7970  174.8290  146.1430 C   0  0  0  0  0  0  0  0  0  0  0  0
  193.7650  174.8590  142.1060 C   0  0  0  0  0  2  0  0  0  0  0  0
  196.4760  169.4010  142.6970 C   0  0  1  0  0  3  0  0  0  0  0  0
  194.0130  172.6530  140.6370 C   0  0  0  0  0  0  0  0  0  0  0  0
  193.6220  172.3340  139.3070 N   0  0  0  0  0  0  0  0  0  0  0  0
  195.0150  172.1130  142.8600 C   0  0  2  0  0  3  0  0  0  0  0  0
  196.5200  168.1680  143.4640 N   0  0  0  0  0  1  0  0  0  0  0  0
  193.6950  174.0680  140.8400 C   0  0  0  0  0  0  0  0  0  0  0  0
  193.1700  174.5390  139.7630 N   0  0  0  0  0  0  0  0  0  0  0  0
  192.6620  173.5690  137.5150 N   0  0  0  0  0  1  0  0  0  0  0  0
  196.0410  173.1670  143.2370 C   0  0  0  0  0  2  0  0  0  0  0  0
  196.5010  171.8210  142.7590 C   0  0  1  0  0  3  0  0  0  0  0  0
  194.5820  171.7700  141.4760 C   0  0  0  0  0  0  0  0  0  0  0  0
  195.3360  169.3410  141.6800 C   0  0  0  0  0  3  0  0  0  0  0  0
  194.5920  170.3250  141.1230 C   0  0  0  0  0  3  0  0  0  0  0  0
  196.5630  170.6090  143.6360 C   0  0  0  0  0  2  0  0  0  0  0  0
  193.1620  173.4480  138.8430 C   0  0  0  0  0  0  0  0  0  0  0  0
  1  6  1  0  0  0  0
  3  2  2  0  0  0  0
  4  5  1  0  0  0  0
  4  7  2  0  0  0  0
  6  4  1  0  0  0  0
  7  2  1  0  0  0  0
  7 17  1  0  0  0  0
  8  6  2  0  0  0  0
  8  3  1  0  0  0  0
  9 16  2  0  0  0  0
 10 15  2  0  0  0  0
 12 14  2  0  0  0  0
 12 17  1  0  0  0  0
 13 11  1  0  0  0  0
 13 15  1  0  0  0  0
 14 13  1  0  0  0  0
 15 18  1  0  0  0  0
 16 14  1  0  0  0  0
 16 10  1  0  0  0  0
 17 11  2  0  0  0  0
 18 20  1  0  0  0  0
 18 19  1  0  0  0  0
 20 19  1  0  0  0  0
 21 11  1  6  0  0  0
 21 23  1  0  0  0  0
 21 22  1  0  0  0  0
 23 22  1  0  0  0  0
 23 24  1  1  0  0  0
 25 32  1  0  0  0  0
 26 29  2  0  0  0  0
 27 26  1  0  0  0  0
 27 31  1  0  0  0  0
 28 24  1  0  0  0  0
 28 30  1  0  0  0  0
 29 32  1  0  0  0  0
 31 30  2  0  0  0  0
 32 28  2  0  0  0  0
 33  8  1  0  0  0  0
 34 38  1  1  0  0  0
 34 47  1  0  0  0  0
 35 39  1  0  0  0  0
 35 44  2  0  0  0  0
 36 35  1  0  0  0  0
 37 42  1  6  0  0  0
 39 33  1  0  0  0  0
 40 39  2  0  0  0  0
 41 48  1  0  0  0  0
 43 37  1  0  0  0  0
 43 42  1  1  0  0  0
 43 47  1  0  0  0  0
 44 37  1  0  0  0  0
 45 34  1  0  0  0  0
 46 44  1  0  0  0  0
 46 45  2  0  0  0  0
 48 36  2  0  0  0  0
 48 40  1  0  0  0  0
M  END
>  <MODEL>
6

>  <REMARK>
 VINA RESULT:      -8.1      2.163      3.651
  Name = 
  7 active torsions:
  status: ('A' for Active; 'I' for Inactive)
    1  A    between atoms: C_8  and  C_36
    2  A    between atoms: C_11  and  C_17
    3  A    between atoms: C_15  and  C_16
    4  A    between atoms: C_15  and  C_30
    5  A    between atoms: C_22  and  N_32
    6  A    between atoms: C_26  and  C_48
    7  A    between atoms: N_32  and  C_47
                            x       y       z     vdW  Elec       q    Type
                         _______ _______ _______ _____ _____    ______ ____

>  <TORSDO>
F 7

$$$$
=
 OpenBabel11042417433D

 48 56  0  0  1  0  0  0  0  0999 V2000
  191.7880  173.9750  141.7050 F   0  0  0  0  0  0  0  0  0  0  0  0
  187.6630  173.9770  142.1820 C   0  0  0  0  0  3  0  0  0  0  0  0
  188.3350  172.7750  141.9570 C   0  0  0  0  0  3  0  0  0  0  0  0
  189.7660  175.1780  142.0920 C   0  0  0  0  0  0  0  0  0  0  0  0
  190.4620  176.3400  142.0560 F   0  0  0  0  0  0  0  0  0  0  0  0
  190.4410  173.9700  141.8720 C   0  0  0  0  0  0  0  0  0  0  0  0
  188.3700  175.1820  142.2730 C   0  0  0  0  0  0  0  0  0  0  0  0
  189.7260  172.7640  141.8150 C   0  0  0  0  0  0  0  0  0  0  0  0
  183.9890  178.2790  141.2440 O   0  0  0  0  0  0  0  0  0  0  0  0
  184.3240  178.6340  143.5720 N   0  0  0  0  0  0  0  0  0  0  0  0
  187.4660  177.0770  143.7400 C   0  0  0  0  0  0  0  0  0  0  0  0
  186.7250  176.9150  141.6190 N   0  0  0  0  0  0  0  0  0  0  0  0
  186.5310  178.0290  143.5540 N   0  0  0  0  0  0  0  0  0  0  0  0
  186.1360  177.9190  142.2950 C   0  0  0  0  0  0  0  0  0  0  0  0
  185.3880  178.4580  144.3100 C   0  0  0  0  0  0  0  0  0  0  0  0
  184.7450  178.3020  142.2490 C   0  0  0  0  0  0  0  0  0  0  0  0
  187.6210  176.4260  142.5140 C   0  0  0  0  0  0  0  0  0  0  0  0
  185.3930  178.6650  145.7940 C   0  0  0  0  0  3  0  0  0  0  0  0
  183.9590  178.6710  146.2930 C   0  0  0  0  0  2  0  0  0  0  0  0
  184.8250  177.4530  146.5150 C   0  0  0  0  0  2  0  0  0  0  0  0
  187.9230  176.5590  145.0720 C   0  0  2  0  0  3  0  0  0  0  0  0
  188.2970  177.6260  145.9100 O   0  0  0  0  0  0  0  0  0  0  0  0
  189.3390  176.9230  145.2960 C   0  0  1  0  0  3  0  0  0  0  0  0
  189.9420  176.0170  146.2570 N   0  0  0  0  0  2  0  0  0  0  0  0
  190.2700  173.6720  145.0230 F   0  0  0  0  0  0  0  0  0  0  0  0
  193.8700  174.0650  145.1810 C   0  0  0  0  0  3  0  0  0  0  0  0
  194.1070  175.5320  145.0980 C   0  0  0  0  0  2  0  0  0  0  0  0
  191.2610  175.4760  146.1030 C   0  0  0  0  0  0  0  0  0  0  0  0
  192.6540  173.5350  145.3200 C   0  0  0  0  0  3  0  0  0  0  0  0
  192.3860  176.1950  146.7510 C   0  0  0  0  0  3  0  0  0  0  0  0
  193.6530  176.2090  146.3420 C   0  0  0  0  0  3  0  0  0  0  0  0
  191.3890  174.2880  145.4710 C   0  0  0  0  0  0  0  0  0  0  0  0
  190.4270  171.4670  141.5750 C   0  0  0  0  0  2  0  0  0  0  0  0
  196.0750  169.2450  140.7610 C   0  0  1  0  0  3  0  0  0  0  0  0
  191.8870  170.5960  139.5260 C   0  0  0  0  0  0  0  0  0  0  0  0
  191.6560  170.5700  138.1230 N   0  0  0  0  0  0  0  0  0  0  0  0
  193.2330  170.1230  141.5760 C   0  0  2  0  0  3  0  0  0  0  0  0
  196.9910  168.1660  141.0890 N   0  0  0  0  0  1  0  0  0  0  0  0
  190.7510  171.2990  140.1250 C   0  0  0  0  0  0  0  0  0  0  0  0
  189.9340  171.6480  139.1940 N   0  0  0  0  0  0  0  0  0  0  0  0
  189.9380  171.4040  136.7050 N   0  0  0  0  0  1  0  0  0  0  0  0
  193.3620  171.3830  142.4140 C   0  0  0  0  0  2  0  0  0  0  0  0
  194.5300  170.9100  141.6000 C   0  0  1  0  0  3  0  0  0  0  0  0
  192.9790  170.0710  140.1090 C   0  0  0  0  0  0  0  0  0  0  0  0
  195.1450  168.8120  139.6270 C   0  0  0  0  0  3  0  0  0  0  0  0
  193.8860  169.1990  139.3160 C   0  0  0  0  0  3  0  0  0  0  0  0
  195.4580  169.8200  142.0400 C   0  0  0  0  0  2  0  0  0  0  0  0
  190.5360  171.1970  137.9800 C   0  0  0  0  0  0  0  0  0  0  0  0
  1  6  1  0  0  0  0
  2  7  1  0  0  0  0
  3  2  2  0  0  0  0
  4  7  2  0  0  0  0
  5  4  1  0  0  0  0
  6  4  1  0  0  0  0
  7 17  1  0  0  0  0
  8  6  2  0  0  0  0
  8  3  1  0  0  0  0
  9 16  2  0  0  0  0
 10 15  2  0  0  0  0
 12 14  2  0  0  0  0
 12 17  1  0  0  0  0
 13 11  1  0  0  0  0
 13 15  1  0  0  0  0
 14 13  1  0  0  0  0
 15 18  1  0  0  0  0
 16 14  1  0  0  0  0
 16 10  1  0  0  0  0
 17 11  2  0  0  0  0
 18 19  1  0  0  0  0
 18 20  1  0  0  0  0
 19 20  1  0  0  0  0
 21 11  1  6  0  0  0
 21 23  1  0  0  0  0
 21 22  1  0  0  0  0
 23 22  1  0  0  0  0
 23 24  1  1  0  0  0
 25 32  1  0  0  0  0
 26 29  2  0  0  0  0
 27 26  1  0  0  0  0
 27 31  1  0  0  0  0
 28 24  1  0  0  0  0
 28 30  1  0  0  0  0
 29 32  1  0  0  0  0
 31 30  2  0  0  0  0
 32 28  2  0  0  0  0
 33  8  1  0  0  0  0
 34 38  1  1  0  0  0
 34 47  1  0  0  0  0
 35 44  2  0  0  0  0
 35 39  1  0  0  0  0
 36 35  1  0  0  0  0
 37 43  1  0  0  0  0
 37 42  1  1  0  0  0
 39 33  1  0  0  0  0
 40 39  2  0  0  0  0
 41 48  1  0  0  0  0
 43 47  1  1  0  0  0
 43 42  1  0  0  0  0
 44 37  1  0  0  0  0
 45 34  1  0  0  0  0
 46 45  2  0  0  0  0
 46 44  1  0  0  0  0
 48 36  2  0  0  0  0
 48 40  1  0  0  0  0
M  END
>  <MODEL>
7

>  <REMARK>
 VINA RESULT:      -7.9      2.660      3.932
  Name = 
  7 active torsions:
  status: ('A' for Active; 'I' for Inactive)
    1  A    between atoms: C_8  and  C_36
    2  A    between atoms: C_11  and  C_17
    3  A    between atoms: C_15  and  C_16
    4  A    between atoms: C_15  and  C_30
    5  A    between atoms: C_22  and  N_32
    6  A    between atoms: C_26  and  C_48
    7  A    between atoms: N_32  and  C_47
                            x       y       z     vdW  Elec       q    Type
                         _______ _______ _______ _____ _____    ______ ____

>  <TORSDO>
F 7

$$$$
=
 OpenBabel11042417433D

 48 56  0  0  1  0  0  0  0  0999 V2000
  190.8950  173.1780  141.3730 F   0  0  0  0  0  0  0  0  0  0  0  0
  191.4240  177.0460  142.7860 C   0  0  0  0  0  3  0  0  0  0  0  0
  192.5200  176.3220  142.3170 C   0  0  0  0  0  3  0  0  0  0  0  0
  189.9690  175.1690  142.3000 C   0  0  0  0  0  0  0  0  0  0  0  0
  188.7610  174.5610  142.3760 F   0  0  0  0  0  0  0  0  0  0  0  0
  191.0700  174.4450  141.8240 C   0  0  0  0  0  0  0  0  0  0  0  0
  190.1400  176.4880  142.7630 C   0  0  0  0  0  0  0  0  0  0  0  0
  192.3480  175.0270  141.8210 C   0  0  0  0  0  0  0  0  0  0  0  0
  185.0580  178.3650  142.0600 O   0  0  0  0  0  0  0  0  0  0  0  0
  185.1130  177.9170  144.3960 N   0  0  0  0  0  0  0  0  0  0  0  0
  188.5750  177.3690  144.5890 C   0  0  0  0  0  0  0  0  0  0  0  0
  188.0620  177.7960  142.4380 N   0  0  0  0  0  0  0  0  0  0  0  0
  187.3930  178.0150  144.5660 N   0  0  0  0  0  0  0  0  0  0  0  0
  187.1340  178.2680  143.2930 C   0  0  0  0  0  0  0  0  0  0  0  0
  186.1280  177.7920  145.2090 C   0  0  0  0  0  0  0  0  0  0  0  0
  185.7000  178.2300  143.1320 C   0  0  0  0  0  0  0  0  0  0  0  0
  189.0100  177.2880  143.2650 C   0  0  0  0  0  0  0  0  0  0  0  0
  185.9730  177.4300  146.6540 C   0  0  0  0  0  3  0  0  0  0  0  0
  186.2600  178.6570  147.5010 C   0  0  0  0  0  2  0  0  0  0  0  0
  184.8330  178.2070  147.2920 C   0  0  0  0  0  2  0  0  0  0  0  0
  189.0930  176.5500  145.7350 C   0  0  2  0  0  3  0  0  0  0  0  0
  189.3110  177.3650  146.8610 O   0  0  0  0  0  0  0  0  0  0  0  0
  190.4440  177.0160  146.1180 C   0  0  1  0  0  3  0  0  0  0  0  0
  191.1630  175.9570  146.8030 N   0  0  0  0  0  2  0  0  0  0  0  0
  193.6460  176.7880  147.3240 F   0  0  0  0  0  0  0  0  0  0  0  0
  195.0000  173.9270  145.5580 C   0  0  0  0  0  3  0  0  0  0  0  0
  194.0080  172.8360  145.7630 C   0  0  0  0  0  2  0  0  0  0  0  0
  192.2770  175.2650  146.2250 C   0  0  0  0  0  0  0  0  0  0  0  0
  194.7720  175.1900  145.9220 C   0  0  0  0  0  3  0  0  0  0  0  0
  191.9910  174.1800  145.2530 C   0  0  0  0  0  3  0  0  0  0  0  0
  192.7550  173.1160  145.0130 C   0  0  0  0  0  3  0  0  0  0  0  0
  193.5200  175.7120  146.5120 C   0  0  0  0  0  0  0  0  0  0  0  0
  193.5350  174.2690  141.3240 C   0  0  0  0  0  2  0  0  0  0  0  0
  197.4980  173.7440  136.6850 C   0  0  1  0  0  3  0  0  0  0  0  0
  195.8790  175.3380  140.6510 C   0  0  0  0  0  0  0  0  0  0  0  0
  196.7640  176.2190  141.3300 N   0  0  0  0  0  0  0  0  0  0  0  0
  195.1670  173.9600  138.6940 C   0  0  2  0  0  3  0  0  0  0  0  0
  197.6920  173.9210  135.2560 N   0  0  0  0  0  1  0  0  0  0  0  0
  194.7970  175.0250  141.5870 C   0  0  0  0  0  0  0  0  0  0  0  0
  195.0060  175.6490  142.6940 N   0  0  0  0  0  0  0  0  0  0  0  0
  196.8180  177.1660  143.5120 N   0  0  0  0  0  1  0  0  0  0  0  0
  194.8190  172.5530  139.1480 C   0  0  0  0  0  2  0  0  0  0  0  0
  196.1150  172.8030  138.4360 C   0  0  1  0  0  3  0  0  0  0  0  0
  196.0810  174.9040  139.3950 C   0  0  0  0  0  0  0  0  0  0  0  0
  197.6660  175.0840  137.4030 C   0  0  0  0  0  3  0  0  0  0  0  0
  197.1320  175.5440  138.5580 C   0  0  0  0  0  3  0  0  0  0  0  0
  196.2320  172.9220  136.9480 C   0  0  0  0  0  2  0  0  0  0  0  0
  196.2320  176.3540  142.4990 C   0  0  0  0  0  0  0  0  0  0  0  0
  1  6  1  0  0  0  0
  3  2  2  0  0  0  0
  4  5  1  0  0  0  0
  4  7  2  0  0  0  0
  6  4  1  0  0  0  0
  7  2  1  0  0  0  0
  7 17  1  0  0  0  0
  8  6  2  0  0  0  0
  8  3  1  0  0  0  0
  9 16  2  0  0  0  0
 10 15  2  0  0  0  0
 12 17  1  0  0  0  0
 12 14  2  0  0  0  0
 13 11  1  0  0  0  0
 13 15  1  0  0  0  0
 14 13  1  0  0  0  0
 15 18  1  0  0  0  0
 16 14  1  0  0  0  0
 16 10  1  0  0  0  0
 17 11  2  0  0  0  0
 18 20  1  0  0  0  0
 18 19  1  0  0  0  0
 20 19  1  0  0  0  0
 21 11  1  6  0  0  0
 21 23  1  0  0  0  0
 21 22  1  0  0  0  0
 23 24  1  1  0  0  0
 23 22  1  0  0  0  0
 26 27  1  0  0  0  0
 26 29  2  0  0  0  0
 28 32  2  0  0  0  0
 28 24  1  0  0  0  0
 29 32  1  0  0  0  0
 30 28  1  0  0  0  0
 31 30  2  0  0  0  0
 31 27  1  0  0  0  0
 32 25  1  0  0  0  0
 33 39  1  0  0  0  0
 33  8  1  0  0  0  0
 34 38  1  6  0  0  0
 34 47  1  0  0  0  0
 34 45  1  0  0  0  0
 35 36  1  0  0  0  0
 35 39  1  0  0  0  0
 36 48  2  0  0  0  0
 37 42  1  1  0  0  0
 37 44  1  0  0  0  0
 39 40  2  0  0  0  0
 43 47  1  6  0  0  0
 43 37  1  0  0  0  0
 43 42  1  0  0  0  0
 44 35  2  0  0  0  0
 45 46  2  0  0  0  0
 46 44  1  0  0  0  0
 48 40  1  0  0  0  0
 48 41  1  0  0  0  0
M  END
>  <MODEL>
8

>  <REMARK>
 VINA RESULT:      -7.7      1.957      2.534
  Name = 
  7 active torsions:
  status: ('A' for Active; 'I' for Inactive)
    1  A    between atoms: C_8  and  C_36
    2  A    between atoms: C_11  and  C_17
    3  A    between atoms: C_15  and  C_16
    4  A    between atoms: C_15  and  C_30
    5  A    between atoms: C_22  and  N_32
    6  A    between atoms: C_26  and  C_48
    7  A    between atoms: N_32  and  C_47
                            x       y       z     vdW  Elec       q    Type
                         _______ _______ _______ _____ _____    ______ ____

>  <TORSDO>
F 7

$$$$
=
 OpenBabel11042417433D

 48 56  0  0  1  0  0  0  0  0999 V2000
  191.8450  171.9720  144.6380 F   0  0  0  0  0  0  0  0  0  0  0  0
  191.2920  175.8480  146.0200 C   0  0  0  0  0  3  0  0  0  0  0  0
  192.5790  175.3150  145.9430 C   0  0  0  0  0  3  0  0  0  0  0  0
  190.3760  173.7740  145.1630 C   0  0  0  0  0  0  0  0  0  0  0  0
  189.3160  172.9810  144.8750 F   0  0  0  0  0  0  0  0  0  0  0  0
  191.6700  173.2420  145.0800 C   0  0  0  0  0  0  0  0  0  0  0  0
  190.1840  175.0940  145.6130 C   0  0  0  0  0  0  0  0  0  0  0  0
  192.7760  174.0190  145.4600 C   0  0  0  0  0  0  0  0  0  0  0  0
  186.6920  178.3320  148.2890 O   0  0  0  0  0  0  0  0  0  0  0  0
  186.1790  178.8050  146.0150 N   0  0  0  0  0  0  0  0  0  0  0  0
  188.0760  176.1850  144.6510 C   0  0  0  0  0  0  0  0  0  0  0  0
  188.3330  176.1330  146.8880 N   0  0  0  0  0  0  0  0  0  0  0  0
  187.0400  176.8470  145.2020 N   0  0  0  0  0  0  0  0  0  0  0  0
  187.2110  176.7770  146.5130 C   0  0  0  0  0  0  0  0  0  0  0  0
  186.4150  178.1120  144.9330 C   0  0  0  0  0  0  0  0  0  0  0  0
  186.6720  177.9910  147.0790 C   0  0  0  0  0  0  0  0  0  0  0  0
  188.8440  175.6960  145.7100 C   0  0  0  0  0  0  0  0  0  0  0  0
  186.0830  178.6090  143.5590 C   0  0  0  0  0  3  0  0  0  0  0  0
  184.8190  177.9180  143.0790 C   0  0  0  0  0  2  0  0  0  0  0  0
  184.7570  179.3510  143.5540 C   0  0  0  0  0  2  0  0  0  0  0  0
  188.5270  176.3130  143.2260 C   0  0  2  0  0  3  0  0  0  0  0  0
  187.4600  176.0480  142.3490 O   0  0  0  0  0  0  0  0  0  0  0  0
  188.3840  175.0140  142.5330 C   0  0  1  0  0  3  0  0  0  0  0  0
  189.2770  174.9560  141.3900 N   0  0  0  0  0  2  0  0  0  0  0  0
  188.1300  174.4750  139.0270 F   0  0  0  0  0  0  0  0  0  0  0  0
  190.1560  171.4970  138.6220 C   0  0  0  0  0  3  0  0  0  0  0  0
  191.4360  171.7970  139.3200 C   0  0  0  0  0  2  0  0  0  0  0  0
  189.5770  173.7400  140.6910 C   0  0  0  0  0  0  0  0  0  0  0  0
  189.0890  172.2940  138.6930 C   0  0  0  0  0  3  0  0  0  0  0  0
  190.4290  172.7380  141.3780 C   0  0  0  0  0  3  0  0  0  0  0  0
  191.2320  171.8520  140.7920 C   0  0  0  0  0  3  0  0  0  0  0  0
  188.9790  173.5310  139.4960 C   0  0  0  0  0  0  0  0  0  0  0  0
  194.1620  173.4670  145.3840 C   0  0  0  0  0  2  0  0  0  0  0  0
  195.0980  170.5020  140.1080 C   0  0  1  0  0  3  0  0  0  0  0  0
  195.2570  174.0210  143.0210 C   0  0  0  0  0  0  0  0  0  0  0  0
  195.9680  175.1510  142.5310 N   0  0  0  0  0  0  0  0  0  0  0  0
  194.2170  171.7630  142.7820 C   0  0  2  0  0  3  0  0  0  0  0  0
  194.4610  169.8460  138.9800 N   0  0  0  0  0  1  0  0  0  0  0  0
  195.0010  174.2680  144.4410 C   0  0  0  0  0  0  0  0  0  0  0  0
  195.4960  175.4120  144.7640 N   0  0  0  0  0  0  0  0  0  0  0  0
  196.7660  177.1660  143.5130 N   0  0  0  0  0  1  0  0  0  0  0  0
  194.6930  170.8510  143.9000 C   0  0  0  0  0  2  0  0  0  0  0  0
  195.2520  170.6850  142.5180 C   0  0  1  0  0  3  0  0  0  0  0  0
  194.9380  172.9580  142.2620 C   0  0  0  0  0  0  0  0  0  0  0  0
  195.1010  172.0170  139.8960 C   0  0  0  0  0  3  0  0  0  0  0  0
  195.0990  173.0370  140.7850 C   0  0  0  0  0  3  0  0  0  0  0  0
  194.5460  169.9440  141.4240 C   0  0  0  0  0  2  0  0  0  0  0  0
  196.0950  175.9110  143.5680 C   0  0  0  0  0  0  0  0  0  0  0  0
  1  6  1  0  0  0  0
  3  2  1  0  0  0  0
  4  7  1  0  0  0  0
  5  4  1  0  0  0  0
  6  4  2  0  0  0  0
  6  8  1  0  0  0  0
  7 17  1  0  0  0  0
  7  2  2  0  0  0  0
  8  3  2  0  0  0  0
 10 16  1  0  0  0  0
 11 13  1  0  0  0  0
 11 17  2  0  0  0  0
 13 14  1  0  0  0  0
 14 12  2  0  0  0  0
 14 16  1  0  0  0  0
 15 13  1  0  0  0  0
 15 10  2  0  0  0  0
 16  9  2  0  0  0  0
 17 12  1  0  0  0  0
 18 15  1  0  0  0  0
 19 20  1  0  0  0  0
 19 18  1  0  0  0  0
 20 18  1  0  0  0  0
 21 11  1  1  0  0  0
 22 23  1  0  0  0  0
 22 21  1  0  0  0  0
 23 24  1  6  0  0  0
 23 21  1  0  0  0  0
 25 32  1  0  0  0  0
 26 29  2  0  0  0  0
 26 27  1  0  0  0  0
 27 31  1  0  0  0  0
 28 30  1  0  0  0  0
 28 24  1  0  0  0  0
 29 32  1  0  0  0  0
 31 30  2  0  0  0  0
 32 28  2  0  0  0  0
 33  8  1  0  0  0  0
 34 38  1  6  0  0  0
 34 47  1  0  0  0  0
 35 39  1  0  0  0  0
 36 35  1  0  0  0  0
 36 48  2  0  0  0  0
 37 42  1  1  0  0  0
 39 40  2  0  0  0  0
 39 33  1  0  0  0  0
 41 48  1  0  0  0  0
 43 47  1  6  0  0  0
 43 37  1  0  0  0  0
 43 42  1  0  0  0  0
 44 37  1  0  0  0  0
 44 35  2  0  0  0  0
 45 34  1  0  0  0  0
 45 46  2  0  0  0  0
 46 44  1  0  0  0  0
 48 40  1  0  0  0  0
M  END
>  <MODEL>
9

>  <REMARK>
 VINA RESULT:      -7.7      2.482      4.904
  Name = 
  7 active torsions:
  status: ('A' for Active; 'I' for Inactive)
    1  A    between atoms: C_8  and  C_36
    2  A    between atoms: C_11  and  C_17
    3  A    between atoms: C_15  and  C_16
    4  A    between atoms: C_15  and  C_30
    5  A    between atoms: C_22  and  N_32
    6  A    between atoms: C_26  and  C_48
    7  A    between atoms: N_32  and  C_47
                            x       y       z     vdW  Elec       q    Type
                         _______ _______ _______ _____ _____    ______ ____

>  <TORSDO>
F 7

$$$$
