=
 OpenBabel11042419283D

 40 41  0  0  1  0  0  0  0  0999 V2000
  192.4760  172.5400  142.2210 N   0  0  0  0  0  2  0  0  0  0  0  0
  194.2100  173.3800  143.8000 N   0  0  0  0  0  0  0  0  0  0  0  0
  193.2180  173.6340  142.7840 C   0  0  0  0  0  0  0  0  0  0  0  0
  193.0110  174.8080  142.3720 O   0  0  0  0  0  0  0  0  0  0  0  0
  191.4260  172.6780  141.2150 C   0  0  1  0  0  3  0  0  0  0  0  0
  191.1520  171.3380  140.5480 C   0  0  0  0  0  1  0  0  0  0  0  0
  190.1590  173.2490  141.8330 C   0  0  0  0  0  2  0  0  0  0  0  0
  189.5700  174.2340  140.9420 N   0  0  0  0  0  2  0  0  0  0  0  0
  189.1010  175.3250  141.7810 C   0  0  0  0  0  2  0  0  0  0  0  0
  187.5820  175.4680  141.7080 C   0  0  1  0  0  3  0  0  0  0  0  0
  186.9410  175.1930  143.0570 C   0  0  0  0  0  1  0  0  0  0  0  0
  187.0360  177.0280  139.5810 O   0  0  0  0  0  0  0  0  0  0  0  0
  188.2660  178.3050  141.5850 C   0  0  0  0  0  1  0  0  0  0  0  0
  185.7280  177.4400  141.6130 O   0  0  0  0  0  0  0  0  0  0  0  0
  187.0860  177.0720  141.0830 S   0  0  0  0  0  0  0  0  0  0  0  0
  194.7300  174.4310  144.6500 C   0  0  0  0  0  0  0  0  0  0  0  0
  196.0370  175.3020  144.1540 S   0  0  0  0  0  0  0  0  0  0  0  0
  194.1550  174.6100  146.0110 C   0  0  0  0  0  3  0  0  0  0  0  0
  193.3230  175.5520  146.4750 C   0  0  0  0  0  3  0  0  0  0  0  0
  192.7290  176.6780  145.6900 C   0  0  0  0  0  2  0  0  0  0  0  0
  188.0750  176.4480  146.6450 C   0  0  0  0  0  2  0  0  0  0  0  0
  191.1870  178.2170  143.5800 O   0  0  0  0  0  0  0  0  0  0  0  0
  189.1800  176.5110  145.8990 C   0  0  0  0  0  0  0  0  0  0  0  0
  191.5200  176.2140  144.8830 C   0  0  2  0  0  3  0  0  0  0  0  0
  189.4680  177.5870  145.0230 N   0  0  0  0  0  0  0  0  0  0  0  0
  190.7410  177.4060  144.4340 C   0  0  0  0  0  0  0  0  0  0  0  0
  190.4020  175.2060  145.9410 S   0  0  0  0  0  0  0  0  0  0  0  0
  187.0230  178.3530  147.7300 O   0  0  0  0  0  1  0  0  0  0  0  0
  187.0810  177.4820  146.6900 N   0  0  0  0  0  0  0  0  0  0  0  0
  185.9800  177.4190  145.7350 C   0  0  1  0  0  3  0  0  0  0  0  0
  185.0170  179.5320  145.2610 O   0  0  0  0  0  0  0  0  0  0  0  0
  184.6660  177.5230  146.4560 C   0  0  0  0  0  2  0  0  0  0  0  0
  184.0120  178.7320  145.8280 C   0  0  0  0  0  2  0  0  0  0  0  0
  185.9940  178.6270  144.8190 C   0  0  0  0  0  2  0  0  0  0  0  0
  194.6930  172.0100  143.9620 C   0  0  0  0  0  2  0  0  0  0  0  0
  194.0980  171.3940  145.2180 C   0  0  0  0  0  2  0  0  0  0  0  0
  195.0350  170.3890  145.7830 C   0  0  0  0  0  0  0  0  0  0  0  0
  197.3950  169.5470  146.0540 C   0  0  0  0  0  1  0  0  0  0  0  0
  196.4360  170.5030  145.5270 N   0  0  0  0  0  2  0  0  0  0  0  0
  194.5860  169.4490  146.4940 O   0  0  0  0  0  0  0  0  0  0  0  0
  1  3  1  0  0  0  0
  2 35  1  0  0  0  0
  2 16  1  0  0  0  0
  3  2  1  0  0  0  0
  4  3  2  0  0  0  0
  5  6  1  1  0  0  0
  5  7  1  0  0  0  0
  5  1  1  0  0  0  0
  8  9  1  0  0  0  0
  8  7  1  0  0  0  0
 10  9  1  0  0  0  0
 10 11  1  1  0  0  0
 12 15  2  0  0  0  0
 15 13  1  0  0  0  0
 15 14  2  0  0  0  0
 15 10  1  0  0  0  0
 16 18  1  0  0  0  0
 17 16  2  0  0  0  0
 18 19  2  0  0  0  0
 20 19  1  0  0  0  0
 21 29  1  0  0  0  0
 22 26  2  0  0  0  0
 23 27  1  0  0  0  0
 23 21  1  0  0  0  0
 24 20  1  1  0  0  0
 24 27  1  0  0  0  0
 25 23  2  0  0  0  0
 26 24  1  0  0  0  0
 26 25  1  0  0  0  0
 29 28  1  0  0  0  0
 30 32  1  0  0  0  0
 30 29  1  1  0  0  0
 31 33  1  0  0  0  0
 33 32  1  0  0  0  0
 34 31  1  0  0  0  0
 34 30  1  0  0  0  0
 35 36  1  0  0  0  0
 36 37  1  0  0  0  0
 37 40  2  0  0  0  0
 39 37  1  0  0  0  0
 39 38  1  0  0  0  0
M  END
>  <MODEL>
1

>  <REMARK>
 VINA RESULT:      -6.0      0.000      0.000
  Name = 
  15 active torsions:
  status: ('A' for Active; 'I' for Inactive)
    1  A    between atoms: C_1  and  C_2
    2  A    between atoms: C_1  and  C_23
    3  A    between atoms: N_3  and  C_6
    4  A    between atoms: C_4  and  C_6
    5  A    between atoms: C_4  and  N_7
    6  A    between atoms: C_5  and  N_31
    7  A    between atoms: N_7  and  C_37
    8  A    between atoms: C_9  and  C_20
    9  A    between atoms: C_9  and  N_21
   10  A    between atoms: C_12  and  N_31
   11  A    between atoms: C_13  and  C_37
   12  A    between atoms: C_13  and  S_39
   13  A    between atoms: N_21  and  C_23
   14  A    between atoms: C_22  and  C_33
   15  A    between atoms: C_25  and  C_33
                            x       y       z     vdW  Elec       q    Type
                         _______ _______ _______ _____ _____    ______ ____

>  <TORSDO>
F 15

$$$$
=
 OpenBabel11042419283D

 40 41  0  0  1  0  0  0  0  0999 V2000
  188.8290  175.1520  141.9470 N   0  0  0  0  0  2  0  0  0  0  0  0
  189.8540  173.2630  140.6880 N   0  0  0  0  0  0  0  0  0  0  0  0
  188.9630  174.3960  140.7330 C   0  0  0  0  0  0  0  0  0  0  0  0
  188.2850  174.7160  139.7180 O   0  0  0  0  0  0  0  0  0  0  0  0
  187.9870  176.3360  142.1020 C   0  0  1  0  0  3  0  0  0  0  0  0
  186.6700  175.9660  142.7670 C   0  0  0  0  0  1  0  0  0  0  0  0
  188.7130  177.4160  142.8900 C   0  0  0  0  0  2  0  0  0  0  0  0
  188.1570  177.5160  144.2280 N   0  0  0  0  0  2  0  0  0  0  0  0
  189.2820  177.4780  145.1480 C   0  0  0  0  0  2  0  0  0  0  0  0
  188.8730  176.8960  146.5000 C   0  0  1  0  0  3  0  0  0  0  0  0
  187.3810  176.6100  146.5430 C   0  0  0  0  0  1  0  0  0  0  0  0
  190.9350  175.8020  147.8440 O   0  0  0  0  0  0  0  0  0  0  0  0
  190.5020  174.7180  145.4370 C   0  0  0  0  0  1  0  0  0  0  0  0
  188.9290  174.4160  147.5870 O   0  0  0  0  0  0  0  0  0  0  0  0
  189.8130  175.4290  146.9140 S   0  0  0  0  0  0  0  0  0  0  0  0
  190.3060  172.6850  139.4390 C   0  0  0  0  0  0  0  0  0  0  0  0
  189.9960  171.0990  139.1220 S   0  0  0  0  0  0  0  0  0  0  0  0
  191.1560  173.5030  138.5310 C   0  0  0  0  0  3  0  0  0  0  0  0
  192.4830  173.4810  138.3470 C   0  0  0  0  0  3  0  0  0  0  0  0
  193.4590  172.5700  139.0190 C   0  0  0  0  0  2  0  0  0  0  0  0
  194.7940  176.2060  141.7810 C   0  0  0  0  0  2  0  0  0  0  0  0
  195.7380  171.6910  140.8170 O   0  0  0  0  0  0  0  0  0  0  0  0
  194.9290  175.0970  141.0500 C   0  0  0  0  0  0  0  0  0  0  0  0
  194.7970  173.2680  139.2520 C   0  0  2  0  0  3  0  0  0  0  0  0
  195.3740  173.8620  141.5830 N   0  0  0  0  0  0  0  0  0  0  0  0
  195.3380  172.8610  140.5830 C   0  0  0  0  0  0  0  0  0  0  0  0
  194.5600  175.0910  139.2990 S   0  0  0  0  0  0  0  0  0  0  0  0
  196.2720  176.5050  143.6880 O   0  0  0  0  0  1  0  0  0  0  0  0
  195.0300  176.2640  143.1950 N   0  0  0  0  0  0  0  0  0  0  0  0
  193.9720  175.8040  144.0870 C   0  0  1  0  0  3  0  0  0  0  0  0
  193.9540  176.9130  146.1820 O   0  0  0  0  0  0  0  0  0  0  0  0
  194.5400  174.8800  145.1270 C   0  0  0  0  0  2  0  0  0  0  0  0
  194.1760  175.5500  146.4320 C   0  0  0  0  0  2  0  0  0  0  0  0
  193.4080  176.9600  144.8900 C   0  0  0  0  0  2  0  0  0  0  0  0
  190.3070  172.6940  141.9560 C   0  0  0  0  0  2  0  0  0  0  0  0
  191.7610  173.0620  142.2020 C   0  0  0  0  0  2  0  0  0  0  0  0
  192.5000  171.8860  142.7320 C   0  0  0  0  0  0  0  0  0  0  0  0
  193.7260  170.7860  144.6390 C   0  0  0  0  0  1  0  0  0  0  0  0
  192.9960  171.9070  144.0720 N   0  0  0  0  0  2  0  0  0  0  0  0
  192.6730  170.8760  141.9990 O   0  0  0  0  0  0  0  0  0  0  0  0
  1  5  1  0  0  0  0
  2  3  1  0  0  0  0
  2 35  1  0  0  0  0
  3  1  1  0  0  0  0
  4  3  2  0  0  0  0
  5  6  1  1  0  0  0
  5  7  1  0  0  0  0
  7  8  1  0  0  0  0
  8  9  1  0  0  0  0
  9 10  1  0  0  0  0
 10 11  1  6  0  0  0
 10 15  1  0  0  0  0
 13 15  1  0  0  0  0
 15 14  2  0  0  0  0
 15 12  2  0  0  0  0
 16  2  1  0  0  0  0
 17 16  2  0  0  0  0
 18 16  1  0  0  0  0
 19 18  2  0  0  0  0
 19 20  1  0  0  0  0
 21 29  1  0  0  0  0
 23 25  2  0  0  0  0
 23 21  1  0  0  0  0
 24 20  1  1  0  0  0
 24 27  1  0  0  0  0
 24 26  1  0  0  0  0
 26 22  2  0  0  0  0
 26 25  1  0  0  0  0
 27 23  1  0  0  0  0
 29 28  1  0  0  0  0
 30 29  1  6  0  0  0
 30 34  1  0  0  0  0
 30 32  1  0  0  0  0
 31 33  1  0  0  0  0
 32 33  1  0  0  0  0
 34 31  1  0  0  0  0
 35 36  1  0  0  0  0
 36 37  1  0  0  0  0
 37 39  1  0  0  0  0
 39 38  1  0  0  0  0
 40 37  2  0  0  0  0
M  END
>  <MODEL>
2

>  <REMARK>
 VINA RESULT:      -5.8      2.914      7.041
  Name = 
  15 active torsions:
  status: ('A' for Active; 'I' for Inactive)
    1  A    between atoms: C_1  and  C_2
    2  A    between atoms: C_1  and  C_23
    3  A    between atoms: N_3  and  C_6
    4  A    between atoms: C_4  and  C_6
    5  A    between atoms: C_4  and  N_7
    6  A    between atoms: C_5  and  N_31
    7  A    between atoms: N_7  and  C_37
    8  A    between atoms: C_9  and  C_20
    9  A    between atoms: C_9  and  N_21
   10  A    between atoms: C_12  and  N_31
   11  A    between atoms: C_13  and  C_37
   12  A    between atoms: C_13  and  S_39
   13  A    between atoms: N_21  and  C_23
   14  A    between atoms: C_22  and  C_33
   15  A    between atoms: C_25  and  C_33
                            x       y       z     vdW  Elec       q    Type
                         _______ _______ _______ _____ _____    ______ ____

>  <TORSDO>
F 15

$$$$
=
 OpenBabel11042419283D

 40 41  0  0  1  0  0  0  0  0999 V2000
  195.1870  174.2350  142.2290 N   0  0  0  0  0  2  0  0  0  0  0  0
  195.0190  175.2680  144.4890 N   0  0  0  0  0  0  0  0  0  0  0  0
  194.4920  175.0800  143.1600 C   0  0  0  0  0  0  0  0  0  0  0  0
  193.4360  175.6690  142.8020 O   0  0  0  0  0  0  0  0  0  0  0  0
  194.7340  173.9420  140.8720 C   0  0  1  0  0  3  0  0  0  0  0  0
  195.9150  173.9060  139.9140 C   0  0  0  0  0  1  0  0  0  0  0  0
  193.9580  172.6340  140.8330 C   0  0  0  0  0  2  0  0  0  0  0  0
  192.9570  172.6790  139.7820 N   0  0  0  0  0  2  0  0  0  0  0  0
  191.8300  173.4260  140.3150 C   0  0  0  0  0  2  0  0  0  0  0  0
  190.6150  173.3300  139.3930 C   0  0  1  0  0  3  0  0  0  0  0  0
  190.7760  172.1970  138.3940 C   0  0  0  0  0  1  0  0  0  0  0  0
  188.0350  172.5550  139.4180 O   0  0  0  0  0  0  0  0  0  0  0  0
  188.5300  174.7540  140.8610 C   0  0  0  0  0  1  0  0  0  0  0  0
  189.2920  172.2640  141.5020 O   0  0  0  0  0  0  0  0  0  0  0  0
  189.0860  173.1570  140.3100 S   0  0  0  0  0  0  0  0  0  0  0  0
  194.2140  175.7990  145.5700 C   0  0  0  0  0  0  0  0  0  0  0  0
  194.5610  177.2890  146.1820 S   0  0  0  0  0  0  0  0  0  0  0  0
  193.1780  174.9300  146.1930 C   0  0  0  0  0  3  0  0  0  0  0  0
  191.8780  175.1670  146.4130 C   0  0  0  0  0  3  0  0  0  0  0  0
  191.1250  176.4050  146.0440 C   0  0  0  0  0  2  0  0  0  0  0  0
  186.7600  176.3690  144.1540 C   0  0  0  0  0  2  0  0  0  0  0  0
  190.8770  178.6580  144.0280 O   0  0  0  0  0  0  0  0  0  0  0  0
  188.0820  176.5430  144.2020 C   0  0  0  0  0  0  0  0  0  0  0  0
  190.6090  176.3310  144.6090 C   0  0  2  0  0  3  0  0  0  0  0  0
  188.7100  177.7980  144.0110 N   0  0  0  0  0  0  0  0  0  0  0  0
  190.1070  177.6760  144.1980 C   0  0  0  0  0  0  0  0  0  0  0  0
  189.1870  175.1690  144.5060 S   0  0  0  0  0  0  0  0  0  0  0  0
  185.8380  178.1860  142.8270 O   0  0  0  0  0  1  0  0  0  0  0  0
  185.8200  177.4360  143.9590 N   0  0  0  0  0  0  0  0  0  0  0  0
  185.0210  177.8650  145.1010 C   0  0  1  0  0  3  0  0  0  0  0  0
  186.3010  178.8560  146.8320 O   0  0  0  0  0  0  0  0  0  0  0  0
  185.1580  176.8780  146.2260 C   0  0  0  0  0  2  0  0  0  0  0  0
  185.6860  177.7150  147.3680 C   0  0  0  0  0  2  0  0  0  0  0  0
  185.5620  179.1580  145.6780 C   0  0  0  0  0  2  0  0  0  0  0  0
  196.4130  174.9040  144.7350 C   0  0  0  0  0  2  0  0  0  0  0  0
  196.4960  173.9040  145.8760 C   0  0  0  0  0  2  0  0  0  0  0  0
  197.0400  172.6120  145.3820 C   0  0  0  0  0  0  0  0  0  0  0  0
  197.2700  170.1180  145.6600 C   0  0  0  0  0  1  0  0  0  0  0  0
  196.7610  171.4070  146.0980 N   0  0  0  0  0  2  0  0  0  0  0  0
  197.7330  172.5890  144.3290 O   0  0  0  0  0  0  0  0  0  0  0  0
  1  3  1  0  0  0  0
  2 35  1  0  0  0  0
  2 16  1  0  0  0  0
  3  2  1  0  0  0  0
  4  3  2  0  0  0  0
  5  6  1  6  0  0  0
  5  1  1  0  0  0  0
  7  5  1  0  0  0  0
  8  9  1  0  0  0  0
  8  7  1  0  0  0  0
 10 11  1  6  0  0  0
 10 15  1  0  0  0  0
 10  9  1  0  0  0  0
 12 15  2  0  0  0  0
 15 13  1  0  0  0  0
 15 14  2  0  0  0  0
 16 17  2  0  0  0  0
 16 18  1  0  0  0  0
 18 19  2  0  0  0  0
 20 19  1  0  0  0  0
 21 23  1  0  0  0  0
 22 26  2  0  0  0  0
 23 27  1  0  0  0  0
 24 20  1  1  0  0  0
 25 26  1  0  0  0  0
 25 23  2  0  0  0  0
 26 24  1  0  0  0  0
 27 24  1  0  0  0  0
 28 29  1  0  0  0  0
 29 21  1  0  0  0  0
 30 29  1  6  0  0  0
 30 34  1  0  0  0  0
 30 32  1  0  0  0  0
 31 33  1  0  0  0  0
 32 33  1  0  0  0  0
 34 31  1  0  0  0  0
 35 36  1  0  0  0  0
 37 36  1  0  0  0  0
 37 39  1  0  0  0  0
 38 39  1  0  0  0  0
 40 37  2  0  0  0  0
M  END
>  <MODEL>
3

>  <REMARK>
 VINA RESULT:      -5.8      2.296      3.208
  Name = 
  15 active torsions:
  status: ('A' for Active; 'I' for Inactive)
    1  A    between atoms: C_1  and  C_2
    2  A    between atoms: C_1  and  C_23
    3  A    between atoms: N_3  and  C_6
    4  A    between atoms: C_4  and  C_6
    5  A    between atoms: C_4  and  N_7
    6  A    between atoms: C_5  and  N_31
    7  A    between atoms: N_7  and  C_37
    8  A    between atoms: C_9  and  C_20
    9  A    between atoms: C_9  and  N_21
   10  A    between atoms: C_12  and  N_31
   11  A    between atoms: C_13  and  C_37
   12  A    between atoms: C_13  and  S_39
   13  A    between atoms: N_21  and  C_23
   14  A    between atoms: C_22  and  C_33
   15  A    between atoms: C_25  and  C_33
                            x       y       z     vdW  Elec       q    Type
                         _______ _______ _______ _____ _____    ______ ____

>  <TORSDO>
F 15

$$$$
=
 OpenBabel11042419283D

 40 41  0  0  1  0  0  0  0  0999 V2000
  191.5920  171.6260  143.7950 N   0  0  0  0  0  2  0  0  0  0  0  0
  193.8460  170.8170  143.1110 N   0  0  0  0  0  0  0  0  0  0  0  0
  192.5940  171.4520  142.7800 C   0  0  0  0  0  0  0  0  0  0  0  0
  192.3650  171.8380  141.6010 O   0  0  0  0  0  0  0  0  0  0  0  0
  190.3040  172.2830  143.5870 C   0  0  1  0  0  3  0  0  0  0  0  0
  189.4400  172.1620  144.8330 C   0  0  0  0  0  1  0  0  0  0  0  0
  190.5000  173.7410  143.1980 C   0  0  0  0  0  2  0  0  0  0  0  0
  189.3990  174.5440  143.7020 N   0  0  0  0  0  2  0  0  0  0  0  0
  189.1070  175.5350  142.6790 C   0  0  0  0  0  2  0  0  0  0  0  0
  187.7740  176.2320  142.9480 C   0  0  1  0  0  3  0  0  0  0  0  0
  187.5990  176.5260  144.4280 C   0  0  0  0  0  1  0  0  0  0  0  0
  186.6870  178.6850  142.7050 O   0  0  0  0  0  0  0  0  0  0  0  0
  186.8600  177.3340  140.4010 C   0  0  0  0  0  1  0  0  0  0  0  0
  188.9260  178.3740  141.7570 O   0  0  0  0  0  0  0  0  0  0  0  0
  187.5880  177.7260  141.9760 S   0  0  0  0  0  0  0  0  0  0  0  0
  195.0140  170.9240  142.2610 C   0  0  0  0  0  0  0  0  0  0  0  0
  195.8760  169.5690  141.8940 S   0  0  0  0  0  0  0  0  0  0  0  0
  195.4850  172.2750  141.8490 C   0  0  0  0  0  3  0  0  0  0  0  0
  196.4220  173.0610  142.3950 C   0  0  0  0  0  3  0  0  0  0  0  0
  197.2710  172.7390  143.5840 C   0  0  0  0  0  2  0  0  0  0  0  0
  194.6230  176.5130  144.7550 C   0  0  0  0  0  3  0  0  0  0  0  0
  197.1810  173.0130  146.6030 O   0  0  0  0  0  0  0  0  0  0  0  0
  195.6080  175.6180  144.8550 C   0  0  0  0  0  0  0  0  0  0  0  0
  197.5420  173.9840  144.4240 C   0  0  2  0  0  3  0  0  0  0  0  0
  195.7480  174.7330  145.9520 N   0  0  0  0  0  2  0  0  0  0  0  0
  196.8370  173.8570  145.7330 C   0  0  0  0  0  0  0  0  0  0  0  0
  196.8610  175.4730  143.5860 S   0  0  0  0  0  0  0  0  0  0  0  0
  193.8020  177.1550  146.9520 O   0  0  0  0  0  1  0  0  0  0  0  0
  193.5650  176.6470  145.7150 N   0  0  0  0  0  0  0  0  0  0  0  0
  192.2940  175.9910  145.4320 C   0  0  1  0  0  3  0  0  0  0  0  0
  190.5300  176.6980  146.8480 O   0  0  0  0  0  0  0  0  0  0  0  0
  192.0310  174.9160  146.4480 C   0  0  0  0  0  2  0  0  0  0  0  0
  190.7090  175.3220  147.0590 C   0  0  0  0  0  2  0  0  0  0  0  0
  191.1400  176.9580  145.6120 C   0  0  0  0  0  2  0  0  0  0  0  0
  193.9190  170.0440  144.3500 C   0  0  0  0  0  2  0  0  0  0  0  0
  194.7350  170.8000  145.3860 C   0  0  0  0  0  2  0  0  0  0  0  0
  195.6490  169.8650  146.0930 C   0  0  0  0  0  0  0  0  0  0  0  0
  197.9200  168.7850  146.2710 C   0  0  0  0  0  1  0  0  0  0  0  0
  196.9860  169.6880  145.6190 N   0  0  0  0  0  2  0  0  0  0  0  0
  195.2420  169.2450  147.1120 O   0  0  0  0  0  0  0  0  0  0  0  0
  2 35  1  0  0  0  0
  3  2  1  0  0  0  0
  3  1  1  0  0  0  0
  4  3  2  0  0  0  0
  5  1  1  0  0  0  0
  5  6  1  1  0  0  0
  7  5  1  0  0  0  0
  7  8  1  0  0  0  0
  9 10  1  0  0  0  0
  9  8  1  0  0  0  0
 10 11  1  1  0  0  0
 13 15  1  0  0  0  0
 14 15  2  0  0  0  0
 15 12  2  0  0  0  0
 15 10  1  0  0  0  0
 16  2  1  0  0  0  0
 17 16  2  0  0  0  0
 18 16  1  0  0  0  0
 18 19  2  0  0  0  0
 19 20  1  0  0  0  0
 21 23  2  0  0  0  0
 21 29  1  0  0  0  0
 23 25  1  0  0  0  0
 24 20  1  6  0  0  0
 24 26  1  0  0  0  0
 26 25  1  0  0  0  0
 26 22  2  0  0  0  0
 27 24  1  0  0  0  0
 27 23  1  0  0  0  0
 29 28  1  0  0  0  0
 30 34  1  0  0  0  0
 30 29  1  1  0  0  0
 30 32  1  0  0  0  0
 31 33  1  0  0  0  0
 32 33  1  0  0  0  0
 34 31  1  0  0  0  0
 35 36  1  0  0  0  0
 36 37  1  0  0  0  0
 37 40  2  0  0  0  0
 39 37  1  0  0  0  0
 39 38  1  0  0  0  0
M  END
>  <MODEL>
4

>  <REMARK>
 VINA RESULT:      -5.6      2.492      4.844
  Name = 
  15 active torsions:
  status: ('A' for Active; 'I' for Inactive)
    1  A    between atoms: C_1  and  C_2
    2  A    between atoms: C_1  and  C_23
    3  A    between atoms: N_3  and  C_6
    4  A    between atoms: C_4  and  C_6
    5  A    between atoms: C_4  and  N_7
    6  A    between atoms: C_5  and  N_31
    7  A    between atoms: N_7  and  C_37
    8  A    between atoms: C_9  and  C_20
    9  A    between atoms: C_9  and  N_21
   10  A    between atoms: C_12  and  N_31
   11  A    between atoms: C_13  and  C_37
   12  A    between atoms: C_13  and  S_39
   13  A    between atoms: N_21  and  C_23
   14  A    between atoms: C_22  and  C_33
   15  A    between atoms: C_25  and  C_33
                            x       y       z     vdW  Elec       q    Type
                         _______ _______ _______ _____ _____    ______ ____

>  <TORSDO>
F 15

$$$$
=
 OpenBabel11042419283D

 40 41  0  0  1  0  0  0  0  0999 V2000
  192.8470  174.8680  144.2910 N   0  0  0  0  0  2  0  0  0  0  0  0
  190.9950  173.5420  143.2830 N   0  0  0  0  0  0  0  0  0  0  0  0
  192.1030  174.4530  143.1350 C   0  0  0  0  0  0  0  0  0  0  0  0
  192.4110  174.9050  141.9970 O   0  0  0  0  0  0  0  0  0  0  0  0
  194.0060  175.7560  144.2600 C   0  0  1  0  0  3  0  0  0  0  0  0
  193.7420  177.0030  145.0910 C   0  0  0  0  0  1  0  0  0  0  0  0
  195.2540  175.0320  144.7440 C   0  0  0  0  0  2  0  0  0  0  0  0
  196.3730  175.3260  143.8660 N   0  0  0  0  0  2  0  0  0  0  0  0
  196.5890  174.1370  143.0570 C   0  0  0  0  0  2  0  0  0  0  0  0
  197.4500  174.4470  141.8340 C   0  0  1  0  0  3  0  0  0  0  0  0
  197.9090  173.1700  141.1510 C   0  0  0  0  0  1  0  0  0  0  0  0
  195.2640  174.9370  140.3380 O   0  0  0  0  0  0  0  0  0  0  0  0
  197.5650  175.6640  139.1810 C   0  0  0  0  0  1  0  0  0  0  0  0
  196.4180  176.8870  141.2730 O   0  0  0  0  0  0  0  0  0  0  0  0
  196.6090  175.5220  140.6740 S   0  0  0  0  0  0  0  0  0  0  0  0
  190.4380  172.8160  142.1610 C   0  0  0  0  0  0  0  0  0  0  0  0
  190.2930  171.1770  142.2480 S   0  0  0  0  0  0  0  0  0  0  0  0
  190.1330  173.5520  140.9040 C   0  0  0  0  0  3  0  0  0  0  0  0
  189.1950  174.4760  140.6550 C   0  0  0  0  0  3  0  0  0  0  0  0
  188.2100  175.0280  141.6350 C   0  0  0  0  0  2  0  0  0  0  0  0
  185.2250  178.2240  143.5080 C   0  0  0  0  0  3  0  0  0  0  0  0
  189.7990  177.1780  143.0670 O   0  0  0  0  0  0  0  0  0  0  0  0
  186.3410  177.7630  142.9390 C   0  0  0  0  0  0  0  0  0  0  0  0
  188.0810  176.5430  141.4970 C   0  0  2  0  0  3  0  0  0  0  0  0
  187.6160  177.8330  143.5540 N   0  0  0  0  0  2  0  0  0  0  0  0
  188.5820  177.1940  142.7430 C   0  0  0  0  0  0  0  0  0  0  0  0
  186.3120  177.0140  141.3150 S   0  0  0  0  0  0  0  0  0  0  0  0
  185.7370  180.0020  145.0860 O   0  0  0  0  0  1  0  0  0  0  0  0
  185.1760  178.7930  144.8250 N   0  0  0  0  0  0  0  0  0  0  0  0
  184.7470  177.9390  145.9260 C   0  0  1  0  0  3  0  0  0  0  0  0
  186.0010  178.2550  147.9120 O   0  0  0  0  0  0  0  0  0  0  0  0
  185.6960  176.7860  146.0860 C   0  0  0  0  0  2  0  0  0  0  0  0
  186.1840  176.9230  147.5100 C   0  0  0  0  0  2  0  0  0  0  0  0
  184.8410  178.6790  147.2470 C   0  0  0  0  0  2  0  0  0  0  0  0
  190.4310  173.3590  144.6190 C   0  0  0  0  0  2  0  0  0  0  0  0
  189.4240  174.4580  144.9140 C   0  0  0  0  0  2  0  0  0  0  0  0
  189.6730  175.0270  146.2640 C   0  0  0  0  0  0  0  0  0  0  0  0
  190.8350  176.7340  147.7090 C   0  0  0  0  0  1  0  0  0  0  0  0
  190.5550  176.1410  146.4120 N   0  0  0  0  0  2  0  0  0  0  0  0
  189.0960  174.5270  147.2680 O   0  0  0  0  0  0  0  0  0  0  0  0
  2 35  1  0  0  0  0
  3  2  1  0  0  0  0
  3  1  1  0  0  0  0
  4  3  2  0  0  0  0
  5  1  1  0  0  0  0
  5  7  1  0  0  0  0
  5  6  1  1  0  0  0
  8  7  1  0  0  0  0
  9  8  1  0  0  0  0
 10 11  1  6  0  0  0
 10  9  1  0  0  0  0
 12 15  2  0  0  0  0
 13 15  1  0  0  0  0
 15 14  2  0  0  0  0
 15 10  1  0  0  0  0
 16 17  2  0  0  0  0
 16  2  1  0  0  0  0
 18 16  1  0  0  0  0
 19 18  2  0  0  0  0
 19 20  1  0  0  0  0
 21 29  1  0  0  0  0
 23 21  2  0  0  0  0
 23 25  1  0  0  0  0
 24 20  1  1  0  0  0
 24 26  1  0  0  0  0
 26 22  2  0  0  0  0
 26 25  1  0  0  0  0
 27 24  1  0  0  0  0
 27 23  1  0  0  0  0
 29 28  1  0  0  0  0
 30 29  1  6  0  0  0
 30 32  1  0  0  0  0
 30 34  1  0  0  0  0
 32 33  1  0  0  0  0
 33 31  1  0  0  0  0
 34 31  1  0  0  0  0
 35 36  1  0  0  0  0
 36 37  1  0  0  0  0
 37 39  1  0  0  0  0
 37 40  2  0  0  0  0
 39 38  1  0  0  0  0
M  END
>  <MODEL>
5

>  <REMARK>
 VINA RESULT:      -5.6      2.861      6.282
  Name = 
  15 active torsions:
  status: ('A' for Active; 'I' for Inactive)
    1  A    between atoms: C_1  and  C_2
    2  A    between atoms: C_1  and  C_23
    3  A    between atoms: N_3  and  C_6
    4  A    between atoms: C_4  and  C_6
    5  A    between atoms: C_4  and  N_7
    6  A    between atoms: C_5  and  N_31
    7  A    between atoms: N_7  and  C_37
    8  A    between atoms: C_9  and  C_20
    9  A    between atoms: C_9  and  N_21
   10  A    between atoms: C_12  and  N_31
   11  A    between atoms: C_13  and  C_37
   12  A    between atoms: C_13  and  S_39
   13  A    between atoms: N_21  and  C_23
   14  A    between atoms: C_22  and  C_33
   15  A    between atoms: C_25  and  C_33
                            x       y       z     vdW  Elec       q    Type
                         _______ _______ _______ _____ _____    ______ ____

>  <TORSDO>
F 15

$$$$
=
 OpenBabel11042419283D

 40 41  0  0  1  0  0  0  0  0999 V2000
  192.3610  170.5710  143.3210 N   0  0  0  0  0  2  0  0  0  0  0  0
  191.0130  172.4150  142.3280 N   0  0  0  0  0  0  0  0  0  0  0  0
  191.6160  171.7890  143.4790 C   0  0  0  0  0  0  0  0  0  0  0  0
  191.4780  172.2940  144.6270 O   0  0  0  0  0  0  0  0  0  0  0  0
  193.0440  169.8670  144.4040 C   0  0  1  0  0  3  0  0  0  0  0  0
  193.0430  168.3680  144.1460 C   0  0  0  0  0  1  0  0  0  0  0  0
  194.4620  170.3910  144.5780 C   0  0  0  0  0  2  0  0  0  0  0  0
  194.5440  171.2220  145.7660 N   0  0  0  0  0  2  0  0  0  0  0  0
  195.6210  172.1720  145.5330 C   0  0  0  0  0  2  0  0  0  0  0  0
  195.0910  173.4740  144.9340 C   0  0  1  0  0  3  0  0  0  0  0  0
  195.4690  174.6660  145.7980 C   0  0  0  0  0  1  0  0  0  0  0  0
  196.9380  172.9790  143.0380 O   0  0  0  0  0  0  0  0  0  0  0  0
  195.9010  175.4430  142.9350 C   0  0  0  0  0  1  0  0  0  0  0  0
  194.6150  173.1830  142.2840 O   0  0  0  0  0  0  0  0  0  0  0  0
  195.6420  173.7120  143.2460 S   0  0  0  0  0  0  0  0  0  0  0  0
  190.5650  173.7920  142.3440 C   0  0  0  0  0  0  0  0  0  0  0  0
  188.9700  174.1220  142.5900 S   0  0  0  0  0  0  0  0  0  0  0  0
  191.5340  174.8700  142.0040 C   0  0  0  0  0  3  0  0  0  0  0  0
  192.1980  175.7120  142.8070 C   0  0  0  0  0  3  0  0  0  0  0  0
  192.1400  175.7480  144.3010 C   0  0  0  0  0  2  0  0  0  0  0  0
  187.9830  177.9630  143.6390 C   0  0  0  0  0  3  0  0  0  0  0  0
  190.8720  176.3440  146.9910 O   0  0  0  0  0  0  0  0  0  0  0  0
  189.1350  177.6540  144.2380 C   0  0  0  0  0  0  0  0  0  0  0  0
  191.5730  177.0740  144.8000 C   0  0  2  0  0  3  0  0  0  0  0  0
  189.2110  177.0910  145.5360 N   0  0  0  0  0  2  0  0  0  0  0  0
  190.5580  176.8060  145.8620 C   0  0  0  0  0  0  0  0  0  0  0  0
  190.7050  177.9470  143.4330 S   0  0  0  0  0  0  0  0  0  0  0  0
  186.0080  176.5730  143.9260 O   0  0  0  0  0  1  0  0  0  0  0  0
  186.6910  177.7110  144.2130 N   0  0  0  0  0  0  0  0  0  0  0  0
  186.0180  178.8090  144.8970 C   0  0  1  0  0  3  0  0  0  0  0  0
  184.7380  178.1140  146.7670 O   0  0  0  0  0  0  0  0  0  0  0  0
  184.5630  178.8350  144.5230 C   0  0  0  0  0  2  0  0  0  0  0  0
  183.8530  178.7030  145.8500 C   0  0  0  0  0  2  0  0  0  0  0  0
  186.0080  178.5810  146.3960 C   0  0  0  0  0  2  0  0  0  0  0  0
  190.8570  171.6160  141.1140 C   0  0  0  0  0  2  0  0  0  0  0  0
  191.8800  172.0450  140.0740 C   0  0  0  0  0  2  0  0  0  0  0  0
  191.1890  172.4850  138.8340 C   0  0  0  0  0  0  0  0  0  0  0  0
  190.7600  172.1640  136.3710 C   0  0  0  0  0  1  0  0  0  0  0  0
  191.4070  171.7750  137.6130 N   0  0  0  0  0  2  0  0  0  0  0  0
  190.4080  173.4740  138.8720 O   0  0  0  0  0  0  0  0  0  0  0  0
  1  3  1  0  0  0  0
  1  5  1  0  0  0  0
  2 16  1  0  0  0  0
  2  3  1  0  0  0  0
  3  4  2  0  0  0  0
  5  6  1  6  0  0  0
  5  7  1  0  0  0  0
  7  8  1  0  0  0  0
  9  8  1  0  0  0  0
 10  9  1  0  0  0  0
 10 11  1  1  0  0  0
 12 15  2  0  0  0  0
 13 15  1  0  0  0  0
 14 15  2  0  0  0  0
 15 10  1  0  0  0  0
 16 17  2  0  0  0  0
 18 16  1  0  0  0  0
 18 19  2  0  0  0  0
 19 20  1  0  0  0  0
 21 29  1  0  0  0  0
 21 23  2  0  0  0  0
 23 25  1  0  0  0  0
 24 20  1  6  0  0  0
 24 26  1  0  0  0  0
 25 26  1  0  0  0  0
 26 22  2  0  0  0  0
 27 23  1  0  0  0  0
 27 24  1  0  0  0  0
 28 29  1  0  0  0  0
 30 29  1  6  0  0  0
 30 34  1  0  0  0  0
 32 30  1  0  0  0  0
 32 33  1  0  0  0  0
 33 31  1  0  0  0  0
 34 31  1  0  0  0  0
 35  2  1  0  0  0  0
 36 35  1  0  0  0  0
 37 40  2  0  0  0  0
 37 36  1  0  0  0  0
 38 39  1  0  0  0  0
 39 37  1  0  0  0  0
M  END
>  <MODEL>
6

>  <REMARK>
 VINA RESULT:      -5.6      2.441      5.978
  Name = 
  15 active torsions:
  status: ('A' for Active; 'I' for Inactive)
    1  A    between atoms: C_1  and  C_2
    2  A    between atoms: C_1  and  C_23
    3  A    between atoms: N_3  and  C_6
    4  A    between atoms: C_4  and  C_6
    5  A    between atoms: C_4  and  N_7
    6  A    between atoms: C_5  and  N_31
    7  A    between atoms: N_7  and  C_37
    8  A    between atoms: C_9  and  C_20
    9  A    between atoms: C_9  and  N_21
   10  A    between atoms: C_12  and  N_31
   11  A    between atoms: C_13  and  C_37
   12  A    between atoms: C_13  and  S_39
   13  A    between atoms: N_21  and  C_23
   14  A    between atoms: C_22  and  C_33
   15  A    between atoms: C_25  and  C_33
                            x       y       z     vdW  Elec       q    Type
                         _______ _______ _______ _____ _____    ______ ____

>  <TORSDO>
F 15

$$$$
=
 OpenBabel11042419283D

 40 41  0  0  1  0  0  0  0  0999 V2000
  192.9460  172.6770  142.7760 N   0  0  0  0  0  2  0  0  0  0  0  0
  194.6390  173.4060  144.4500 N   0  0  0  0  0  0  0  0  0  0  0  0
  194.1240  173.4300  143.1030 C   0  0  0  0  0  0  0  0  0  0  0  0
  194.7140  174.0920  142.2050 O   0  0  0  0  0  0  0  0  0  0  0  0
  192.3140  172.6520  141.4590 C   0  0  1  0  0  3  0  0  0  0  0  0
  192.0260  171.2190  141.0360 C   0  0  0  0  0  1  0  0  0  0  0  0
  191.0430  173.4880  141.4550 C   0  0  0  0  0  2  0  0  0  0  0  0
  189.9480  172.7340  142.0390 N   0  0  0  0  0  2  0  0  0  0  0  0
  188.7840  172.9790  141.2020 C   0  0  0  0  0  2  0  0  0  0  0  0
  188.8960  174.3180  140.4730 C   0  0  1  0  0  3  0  0  0  0  0  0
  188.2720  174.2420  139.0910 C   0  0  0  0  0  1  0  0  0  0  0  0
  189.2820  176.4170  142.1170 O   0  0  0  0  0  0  0  0  0  0  0  0
  187.0660  175.0110  142.6410 C   0  0  0  0  0  1  0  0  0  0  0  0
  187.4370  176.5990  140.5130 O   0  0  0  0  0  0  0  0  0  0  0  0
  188.1840  175.6610  141.4200 S   0  0  0  0  0  0  0  0  0  0  0  0
  195.5840  174.3930  144.9330 C   0  0  0  0  0  0  0  0  0  0  0  0
  197.0700  174.5030  144.2310 S   0  0  0  0  0  0  0  0  0  0  0  0
  195.2380  175.1930  146.1400 C   0  0  0  0  0  3  0  0  0  0  0  0
  194.0910  175.8020  146.4660 C   0  0  0  0  0  3  0  0  0  0  0  0
  192.8240  175.7970  145.6720 C   0  0  0  0  0  2  0  0  0  0  0  0
  188.4570  177.5530  146.3630 C   0  0  0  0  0  2  0  0  0  0  0  0
  190.7640  173.6670  145.0260 O   0  0  0  0  0  0  0  0  0  0  0  0
  189.4290  176.6380  146.3310 C   0  0  0  0  0  0  0  0  0  0  0  0
  191.6400  175.3450  146.5220 C   0  0  2  0  0  3  0  0  0  0  0  0
  189.3910  175.4900  145.5020 N   0  0  0  0  0  0  0  0  0  0  0  0
  190.5940  174.7560  145.6340 C   0  0  0  0  0  0  0  0  0  0  0  0
  190.8790  176.7900  147.3680 S   0  0  0  0  0  0  0  0  0  0  0  0
  187.3130  178.0340  144.2720 O   0  0  0  0  0  1  0  0  0  0  0  0
  187.2930  177.5100  145.5250 N   0  0  0  0  0  0  0  0  0  0  0  0
  186.0220  177.1330  146.1320 C   0  0  1  0  0  3  0  0  0  0  0  0
  184.4220  178.8810  146.1420 O   0  0  0  0  0  0  0  0  0  0  0  0
  185.9290  177.6930  147.5230 C   0  0  0  0  0  2  0  0  0  0  0  0
  184.6790  178.5420  147.4800 C   0  0  0  0  0  2  0  0  0  0  0  0
  184.8630  177.7770  145.3970 C   0  0  0  0  0  2  0  0  0  0  0  0
  194.1800  172.3440  145.3430 C   0  0  0  0  0  2  0  0  0  0  0  0
  195.3310  171.4070  145.6720 C   0  0  0  0  0  2  0  0  0  0  0  0
  194.9900  170.0200  145.2640 C   0  0  0  0  0  0  0  0  0  0  0  0
  193.2590  168.3610  144.4870 C   0  0  0  0  0  1  0  0  0  0  0  0
  193.6470  169.7010  144.8920 N   0  0  0  0  0  2  0  0  0  0  0  0
  195.8900  169.1370  145.2380 O   0  0  0  0  0  0  0  0  0  0  0  0
  1  3  1  0  0  0  0
  2 16  1  0  0  0  0
  2 35  1  0  0  0  0
  3  2  1  0  0  0  0
  4  3  2  0  0  0  0
  5  6  1  1  0  0  0
  5  1  1  0  0  0  0
  7  5  1  0  0  0  0
  7  8  1  0  0  0  0
  9  8  1  0  0  0  0
 10 11  1  6  0  0  0
 10  9  1  0  0  0  0
 10 15  1  0  0  0  0
 14 15  2  0  0  0  0
 15 12  2  0  0  0  0
 15 13  1  0  0  0  0
 16 18  1  0  0  0  0
 17 16  2  0  0  0  0
 18 19  2  0  0  0  0
 20 19  1  0  0  0  0
 22 26  2  0  0  0  0
 23 21  1  0  0  0  0
 23 27  1  0  0  0  0
 24 20  1  6  0  0  0
 24 27  1  0  0  0  0
 25 26  1  0  0  0  0
 25 23  2  0  0  0  0
 26 24  1  0  0  0  0
 28 29  1  0  0  0  0
 29 21  1  0  0  0  0
 30 29  1  6  0  0  0
 30 32  1  0  0  0  0
 31 33  1  0  0  0  0
 33 32  1  0  0  0  0
 34 30  1  0  0  0  0
 34 31  1  0  0  0  0
 35 36  1  0  0  0  0
 37 36  1  0  0  0  0
 38 39  1  0  0  0  0
 39 37  1  0  0  0  0
 40 37  2  0  0  0  0
M  END
>  <MODEL>
7

>  <REMARK>
 VINA RESULT:      -5.6      1.713      2.162
  Name = 
  15 active torsions:
  status: ('A' for Active; 'I' for Inactive)
    1  A    between atoms: C_1  and  C_2
    2  A    between atoms: C_1  and  C_23
    3  A    between atoms: N_3  and  C_6
    4  A    between atoms: C_4  and  C_6
    5  A    between atoms: C_4  and  N_7
    6  A    between atoms: C_5  and  N_31
    7  A    between atoms: N_7  and  C_37
    8  A    between atoms: C_9  and  C_20
    9  A    between atoms: C_9  and  N_21
   10  A    between atoms: C_12  and  N_31
   11  A    between atoms: C_13  and  C_37
   12  A    between atoms: C_13  and  S_39
   13  A    between atoms: N_21  and  C_23
   14  A    between atoms: C_22  and  C_33
   15  A    between atoms: C_25  and  C_33
                            x       y       z     vdW  Elec       q    Type
                         _______ _______ _______ _____ _____    ______ ____

>  <TORSDO>
F 15

$$$$
=
 OpenBabel11042419283D

 40 41  0  0  1  0  0  0  0  0999 V2000
  192.2720  172.1350  142.4160 N   0  0  0  0  0  2  0  0  0  0  0  0
  190.3800  173.0120  141.0540 N   0  0  0  0  0  0  0  0  0  0  0  0
  190.8880  172.0840  142.0340 C   0  0  0  0  0  0  0  0  0  0  0  0
  190.1290  171.2140  142.5440 O   0  0  0  0  0  0  0  0  0  0  0  0
  192.8900  171.2720  143.4190 C   0  0  1  0  0  3  0  0  0  0  0  0
  194.1070  170.5690  142.8370 C   0  0  0  0  0  1  0  0  0  0  0  0
  193.2620  172.0700  144.6610 C   0  0  0  0  0  2  0  0  0  0  0  0
  192.9310  173.4710  144.4710 N   0  0  0  0  0  2  0  0  0  0  0  0
  192.3920  173.9450  145.7350 C   0  0  0  0  0  2  0  0  0  0  0  0
  190.9570  174.4460  145.5730 C   0  0  1  0  0  3  0  0  0  0  0  0
  190.0040  173.2950  145.3010 C   0  0  0  0  0  1  0  0  0  0  0  0
  189.1300  174.8230  147.5160 O   0  0  0  0  0  0  0  0  0  0  0  0
  190.1310  177.0880  146.5030 C   0  0  0  0  0  1  0  0  0  0  0  0
  191.4560  175.3640  148.0720 O   0  0  0  0  0  0  0  0  0  0  0  0
  190.4140  175.4010  146.9880 S   0  0  0  0  0  0  0  0  0  0  0  0
  188.9620  173.2560  140.8850 C   0  0  0  0  0  0  0  0  0  0  0  0
  188.1910  172.6650  139.5540 S   0  0  0  0  0  0  0  0  0  0  0  0
  188.2630  174.1500  141.8490 C   0  0  0  0  0  3  0  0  0  0  0  0
  187.6770  175.3380  141.6480 C   0  0  0  0  0  3  0  0  0  0  0  0
  187.5570  176.0620  140.3450 C   0  0  0  0  0  2  0  0  0  0  0  0
  184.8610  178.5580  143.3660 C   0  0  0  0  0  2  0  0  0  0  0  0
  189.3030  177.9960  141.8970 O   0  0  0  0  0  0  0  0  0  0  0  0
  185.8640  178.3140  142.5210 C   0  0  0  0  0  0  0  0  0  0  0  0
  187.3420  177.5570  140.5610 C   0  0  2  0  0  3  0  0  0  0  0  0
  187.2290  178.3600  142.8980 N   0  0  0  0  0  0  0  0  0  0  0  0
  188.0470  177.9800  141.8080 C   0  0  0  0  0  0  0  0  0  0  0  0
  185.5540  177.9120  140.8050 S   0  0  0  0  0  0  0  0  0  0  0  0
  185.6220  179.9990  145.1710 O   0  0  0  0  0  1  0  0  0  0  0  0
  185.0420  178.8410  144.7610 N   0  0  0  0  0  0  0  0  0  0  0  0
  184.8330  177.7580  145.7150 C   0  0  1  0  0  3  0  0  0  0  0  0
  185.5650  178.2750  147.9090 O   0  0  0  0  0  0  0  0  0  0  0  0
  186.1280  177.0410  145.9730 C   0  0  0  0  0  2  0  0  0  0  0  0
  186.3150  177.1740  147.4670 C   0  0  0  0  0  2  0  0  0  0  0  0
  184.4390  178.3070  147.0720 C   0  0  0  0  0  2  0  0  0  0  0  0
  191.3430  173.7210  140.2140 C   0  0  0  0  0  2  0  0  0  0  0  0
  192.1070  172.7310  139.3500 C   0  0  0  0  0  2  0  0  0  0  0  0
  191.5780  172.7550  137.9610 C   0  0  0  0  0  0  0  0  0  0  0  0
  190.4440  174.0250  136.1030 C   0  0  0  0  0  1  0  0  0  0  0  0
  190.9800  173.9480  137.4520 N   0  0  0  0  0  2  0  0  0  0  0  0
  191.6720  171.7250  137.2400 O   0  0  0  0  0  0  0  0  0  0  0  0
  1  5  1  0  0  0  0
  2  3  1  0  0  0  0
  3  1  1  0  0  0  0
  3  4  2  0  0  0  0
  5  6  1  6  0  0  0
  5  7  1  0  0  0  0
  8  7  1  0  0  0  0
  8  9  1  0  0  0  0
 10 11  1  1  0  0  0
 10  9  1  0  0  0  0
 10 15  1  0  0  0  0
 13 15  1  0  0  0  0
 15 12  2  0  0  0  0
 15 14  2  0  0  0  0
 16  2  1  0  0  0  0
 16 18  1  0  0  0  0
 17 16  2  0  0  0  0
 19 18  2  0  0  0  0
 20 19  1  0  0  0  0
 21 29  1  0  0  0  0
 23 25  2  0  0  0  0
 23 21  1  0  0  0  0
 24 20  1  1  0  0  0
 24 27  1  0  0  0  0
 24 26  1  0  0  0  0
 26 22  2  0  0  0  0
 26 25  1  0  0  0  0
 27 23  1  0  0  0  0
 29 28  1  0  0  0  0
 30 29  1  6  0  0  0
 30 32  1  0  0  0  0
 30 34  1  0  0  0  0
 32 33  1  0  0  0  0
 33 31  1  0  0  0  0
 34 31  1  0  0  0  0
 35  2  1  0  0  0  0
 36 35  1  0  0  0  0
 37 36  1  0  0  0  0
 38 39  1  0  0  0  0
 39 37  1  0  0  0  0
 40 37  2  0  0  0  0
M  END
>  <MODEL>
8

>  <REMARK>
 VINA RESULT:      -5.6      2.629      6.069
  Name = 
  15 active torsions:
  status: ('A' for Active; 'I' for Inactive)
    1  A    between atoms: C_1  and  C_2
    2  A    between atoms: C_1  and  C_23
    3  A    between atoms: N_3  and  C_6
    4  A    between atoms: C_4  and  C_6
    5  A    between atoms: C_4  and  N_7
    6  A    between atoms: C_5  and  N_31
    7  A    between atoms: N_7  and  C_37
    8  A    between atoms: C_9  and  C_20
    9  A    between atoms: C_9  and  N_21
   10  A    between atoms: C_12  and  N_31
   11  A    between atoms: C_13  and  C_37
   12  A    between atoms: C_13  and  S_39
   13  A    between atoms: N_21  and  C_23
   14  A    between atoms: C_22  and  C_33
   15  A    between atoms: C_25  and  C_33
                            x       y       z     vdW  Elec       q    Type
                         _______ _______ _______ _____ _____    ______ ____

>  <TORSDO>
F 15

$$$$
=
 OpenBabel11042419283D

 40 41  0  0  1  0  0  0  0  0999 V2000
  195.0040  174.2890  142.0100 N   0  0  0  0  0  2  0  0  0  0  0  0
  195.0610  175.3120  144.2800 N   0  0  0  0  0  0  0  0  0  0  0  0
  194.3780  175.0820  143.0320 C   0  0  0  0  0  0  0  0  0  0  0  0
  193.2410  175.5880  142.8220 O   0  0  0  0  0  0  0  0  0  0  0  0
  194.3960  173.9590  140.7230 C   0  0  1  0  0  3  0  0  0  0  0  0
  195.4710  173.7080  139.6780 C   0  0  0  0  0  1  0  0  0  0  0  0
  193.4710  172.7580  140.8550 C   0  0  0  0  0  2  0  0  0  0  0  0
  192.1070  173.1420  140.5350 N   0  0  0  0  0  2  0  0  0  0  0  0
  191.3090  171.9290  140.6040 C   0  0  0  0  0  2  0  0  0  0  0  0
  190.2440  172.0270  141.6960 C   0  0  1  0  0  3  0  0  0  0  0  0
  190.8480  172.4990  143.0070 C   0  0  0  0  0  1  0  0  0  0  0  0
  187.6480  172.6870  141.9830 O   0  0  0  0  0  0  0  0  0  0  0  0
  188.5550  172.8850  139.4730 C   0  0  0  0  0  1  0  0  0  0  0  0
  189.2020  174.5190  141.4970 O   0  0  0  0  0  0  0  0  0  0  0  0
  188.8780  173.0790  141.2100 S   0  0  0  0  0  0  0  0  0  0  0  0
  194.3700  175.7840  145.4630 C   0  0  0  0  0  0  0  0  0  0  0  0
  194.5500  177.3510  145.9350 S   0  0  0  0  0  0  0  0  0  0  0  0
  193.6220  174.8060  146.3000 C   0  0  0  0  0  3  0  0  0  0  0  0
  192.3090  174.5480  146.3510 C   0  0  0  0  0  3  0  0  0  0  0  0
  191.2430  175.1920  145.5240 C   0  0  0  0  0  2  0  0  0  0  0  0
  187.4460  177.8900  144.5560 C   0  0  0  0  0  3  0  0  0  0  0  0
  189.0950  174.6990  147.6070 O   0  0  0  0  0  0  0  0  0  0  0  0
  188.3380  177.2370  145.3050 C   0  0  0  0  0  0  0  0  0  0  0  0
  190.4620  176.2240  146.3330 C   0  0  2  0  0  3  0  0  0  0  0  0
  187.9960  176.1650  146.1660 N   0  0  0  0  0  2  0  0  0  0  0  0
  189.1620  175.6310  146.7630 C   0  0  0  0  0  0  0  0  0  0  0  0
  190.0700  177.6850  145.2850 S   0  0  0  0  0  0  0  0  0  0  0  0
  185.3120  177.4240  145.6240 O   0  0  0  0  0  1  0  0  0  0  0  0
  186.0540  177.5500  144.4930 N   0  0  0  0  0  0  0  0  0  0  0  0
  185.5150  177.0890  143.2190 C   0  0  1  0  0  3  0  0  0  0  0  0
  186.8650  177.6680  141.3580 O   0  0  0  0  0  0  0  0  0  0  0  0
  184.8670  178.2320  142.4890 C   0  0  0  0  0  2  0  0  0  0  0  0
  185.6180  178.2870  141.1790 C   0  0  0  0  0  2  0  0  0  0  0  0
  186.6320  176.6480  142.2930 C   0  0  0  0  0  2  0  0  0  0  0  0
  196.4990  175.0550  144.3340 C   0  0  0  0  0  2  0  0  0  0  0  0
  196.8140  174.1020  145.4750 C   0  0  0  0  0  2  0  0  0  0  0  0
  197.1190  172.7500  144.9380 C   0  0  0  0  0  0  0  0  0  0  0  0
  197.2080  170.2560  145.2900 C   0  0  0  0  0  1  0  0  0  0  0  0
  196.9240  171.6000  145.7640 N   0  0  0  0  0  2  0  0  0  0  0  0
  197.5360  172.6280  143.7550 O   0  0  0  0  0  0  0  0  0  0  0  0
  1  3  1  0  0  0  0
  2 35  1  0  0  0  0
  2 16  1  0  0  0  0
  3  2  1  0  0  0  0
  4  3  2  0  0  0  0
  5  6  1  6  0  0  0
  5  7  1  0  0  0  0
  5  1  1  0  0  0  0
  8  9  1  0  0  0  0
  8  7  1  0  0  0  0
  9 10  1  0  0  0  0
 10 11  1  1  0  0  0
 13 15  1  0  0  0  0
 15 14  2  0  0  0  0
 15 10  1  0  0  0  0
 15 12  2  0  0  0  0
 16 17  2  0  0  0  0
 16 18  1  0  0  0  0
 18 19  2  0  0  0  0
 20 19  1  0  0  0  0
 21 23  2  0  0  0  0
 23 25  1  0  0  0  0
 24 20  1  6  0  0  0
 24 26  1  0  0  0  0
 25 26  1  0  0  0  0
 26 22  2  0  0  0  0
 27 23  1  0  0  0  0
 27 24  1  0  0  0  0
 29 21  1  0  0  0  0
 29 28  1  0  0  0  0
 30 29  1  1  0  0  0
 31 34  1  0  0  0  0
 32 30  1  0  0  0  0
 33 31  1  0  0  0  0
 33 32  1  0  0  0  0
 34 30  1  0  0  0  0
 35 36  1  0  0  0  0
 37 36  1  0  0  0  0
 37 39  1  0  0  0  0
 38 39  1  0  0  0  0
 40 37  2  0  0  0  0
M  END
>  <MODEL>
9

>  <REMARK>
 VINA RESULT:      -5.6      2.460      3.466
  Name = 
  15 active torsions:
  status: ('A' for Active; 'I' for Inactive)
    1  A    between atoms: C_1  and  C_2
    2  A    between atoms: C_1  and  C_23
    3  A    between atoms: N_3  and  C_6
    4  A    between atoms: C_4  and  C_6
    5  A    between atoms: C_4  and  N_7
    6  A    between atoms: C_5  and  N_31
    7  A    between atoms: N_7  and  C_37
    8  A    between atoms: C_9  and  C_20
    9  A    between atoms: C_9  and  N_21
   10  A    between atoms: C_12  and  N_31
   11  A    between atoms: C_13  and  C_37
   12  A    between atoms: C_13  and  S_39
   13  A    between atoms: N_21  and  C_23
   14  A    between atoms: C_22  and  C_33
   15  A    between atoms: C_25  and  C_33
                            x       y       z     vdW  Elec       q    Type
                         _______ _______ _______ _____ _____    ______ ____

>  <TORSDO>
F 15

$$$$
