=
 OpenBabel11042413443D

 30 34  0  0  1  0  0  0  0  0999 V2000
  191.6360  175.0720  147.2730 C   0  0  0  0  0  2  0  0  0  0  0  0
  191.2780  175.6930  145.9280 C   0  0  2  0  0  0  0  0  0  0  0  0
  192.2980  176.3790  146.8470 C   0  0  2  0  0  3  0  0  0  0  0  0
  188.0130  176.1200  144.2040 C   0  0  1  0  0  3  0  0  0  0  0  0
  186.2160  177.1670  142.7290 N   0  0  0  0  0  0  0  0  0  0  0  0
  189.0040  175.6870  146.7030 C   0  0  0  0  0  2  0  0  0  0  0  0
  186.0450  177.3230  145.1300 C   0  0  0  0  0  3  0  0  0  0  0  0
  189.7490  177.9610  143.9750 C   0  0  0  0  0  1  0  0  0  0  0  0
  187.1760  176.6470  145.3410 C   0  0  0  0  0  0  0  0  0  0  0  0
  187.4610  176.4630  142.8430 C   0  0  0  0  0  0  0  0  0  0  0  0
  189.9650  176.3620  145.8110 N   0  0  2  0  0  0  0  0  0  0  0  0
  187.6720  176.4370  146.7360 C   0  0  0  0  0  2  0  0  0  0  0  0
  185.5430  177.5770  143.7620 C   0  0  0  0  0  0  0  0  0  0  0  0
  188.0340  176.0060  141.7800 N   0  0  0  0  0  2  0  0  0  0  0  0
  189.4910  176.5240  144.4110 C   0  0  1  0  0  3  0  0  0  0  0  0
  183.6490  178.2350  142.3180 C   0  0  0  0  0  1  0  0  0  0  0  0
  184.3490  178.2710  143.5530 O   0  0  0  0  0  0  0  0  0  0  0  0
  192.6430  175.2640  143.7690 C   0  0  0  0  0  3  0  0  0  0  0  0
  191.7820  173.4260  143.1020 C   0  0  0  0  0  0  0  0  0  0  0  0
  191.4570  172.2960  142.3550 C   0  0  0  0  0  3  0  0  0  0  0  0
  191.1610  173.7120  144.2840 C   0  0  0  0  0  0  0  0  0  0  0  0
  191.7140  174.8870  144.7360 C   0  0  0  0  0  0  0  0  0  0  0  0
  190.1500  172.9040  144.8050 C   0  0  0  0  0  3  0  0  0  0  0  0
  190.0920  170.3460  142.1630 F   0  0  0  0  0  0  0  0  0  0  0  0
  190.4460  171.4540  142.8550 C   0  0  0  0  0  0  0  0  0  0  0  0
  189.7960  171.7590  144.0710 C   0  0  0  0  0  3  0  0  0  0  0  0
  192.6620  174.3520  142.8110 O   0  0  0  0  0  0  0  0  0  0  0  0
  193.7480  176.1010  146.4670 C   0  0  0  0  0  2  0  0  0  0  0  0
  194.4760  177.4000  146.1820 C   0  0  0  0  0  2  0  0  0  0  0  0
  195.2310  177.2770  145.0140 O   0  0  0  0  0  1  0  0  0  0  0  0
  2 22  1  6  0  0  0
  2  3  1  0  0  0  0
  2  1  1  0  0  0  0
  3 28  1  6  0  0  0
  3  1  1  0  0  0  0
  4 10  1  6  0  0  0
  4 15  1  0  0  0  0
  4  9  1  0  0  0  0
  5 10  1  0  0  0  0
  5 13  2  0  0  0  0
  6 12  1  0  0  0  0
  7  9  2  0  0  0  0
  9 12  1  0  0  0  0
 11  2  1  0  0  0  0
 11  6  1  1  0  0  0
 13  7  1  0  0  0  0
 14 10  2  0  0  0  0
 15  8  1  1  0  0  0
 15 11  1  0  0  0  0
 16 17  1  0  0  0  0
 17 13  1  0  0  0  0
 18 22  2  0  0  0  0
 19 21  1  0  0  0  0
 20 25  1  0  0  0  0
 20 19  2  0  0  0  0
 21 22  1  0  0  0  0
 21 23  2  0  0  0  0
 24 25  1  0  0  0  0
 25 26  2  0  0  0  0
 26 23  1  0  0  0  0
 27 19  1  0  0  0  0
 27 18  1  0  0  0  0
 29 28  1  0  0  0  0
 30 29  1  0  0  0  0
M  END
>  <MODEL>
1

>  <REMARK>
 VINA RESULT:      -7.4      0.000      0.000
  Name = 
  5 active torsions:
  status: ('A' for Active; 'I' for Inactive)
    1  A    between atoms: O_13  and  C_20
    2  A    between atoms: N_15  and  C_22
    3  A    between atoms: C_16  and  C_22
    4  A    between atoms: C_24  and  C_27
    5  A    between atoms: C_25  and  C_27
                            x       y       z     vdW  Elec       q    Type
                         _______ _______ _______ _____ _____    ______ ____

>  <TORSDO>
F 5

$$$$
=
 OpenBabel11042413443D

 30 34  0  0  1  0  0  0  0  0999 V2000
  190.8610  175.2900  147.4570 C   0  0  0  0  0  2  0  0  0  0  0  0
  190.5770  175.7010  146.0170 C   0  0  2  0  0  0  0  0  0  0  0  0
  191.6640  176.4230  146.8260 C   0  0  2  0  0  3  0  0  0  0  0  0
  187.4770  176.2740  144.0500 C   0  0  1  0  0  3  0  0  0  0  0  0
  185.8820  177.3460  142.3740 N   0  0  0  0  0  0  0  0  0  0  0  0
  188.2730  175.9780  146.6360 C   0  0  0  0  0  2  0  0  0  0  0  0
  185.5880  177.7350  144.7380 C   0  0  0  0  0  3  0  0  0  0  0  0
  189.3980  177.9150  143.7820 C   0  0  0  0  0  1  0  0  0  0  0  0
  186.6310  176.9780  145.0800 C   0  0  0  0  0  0  0  0  0  0  0  0
  187.0420  176.5420  142.6310 C   0  0  0  0  0  0  0  0  0  0  0  0
  189.3460  176.4770  145.7570 N   0  0  2  0  0  0  0  0  0  0  0  0
  187.0220  176.8500  146.5170 C   0  0  0  0  0  2  0  0  0  0  0  0
  185.1940  177.9100  143.3220 C   0  0  0  0  0  0  0  0  0  0  0  0
  187.6270  175.9380  141.6510 N   0  0  0  0  0  2  0  0  0  0  0  0
  188.9730  176.5540  144.3190 C   0  0  1  0  0  3  0  0  0  0  0  0
  183.1420  178.2860  141.9990 C   0  0  0  0  0  1  0  0  0  0  0  0
  184.0890  178.6910  142.9760 O   0  0  0  0  0  0  0  0  0  0  0  0
  190.6460  173.2920  145.0660 C   0  0  0  0  0  3  0  0  0  0  0  0
  191.8710  173.5730  143.3380 C   0  0  0  0  0  0  0  0  0  0  0  0
  192.6370  173.3590  142.1940 C   0  0  0  0  0  3  0  0  0  0  0  0
  191.7240  174.8150  143.8860 C   0  0  0  0  0  0  0  0  0  0  0  0
  190.9250  174.6550  144.9940 C   0  0  0  0  0  0  0  0  0  0  0  0
  192.3460  175.9410  143.3480 C   0  0  0  0  0  3  0  0  0  0  0  0
  194.0320  174.3190  140.5100 F   0  0  0  0  0  0  0  0  0  0  0  0
  193.2730  174.4760  141.6200 C   0  0  0  0  0  0  0  0  0  0  0  0
  193.1300  175.7570  142.1960 C   0  0  0  0  0  3  0  0  0  0  0  0
  191.2230  172.6800  144.0450 O   0  0  0  0  0  0  0  0  0  0  0  0
  193.0760  175.9270  146.5320 C   0  0  0  0  0  2  0  0  0  0  0  0
  194.0600  177.0790  146.5870 C   0  0  0  0  0  2  0  0  0  0  0  0
  194.9310  177.0150  145.4970 O   0  0  0  0  0  1  0  0  0  0  0  0
  2 22  1  6  0  0  0
  2  3  1  0  0  0  0
  2  1  1  0  0  0  0
  3 28  1  6  0  0  0
  3  1  1  0  0  0  0
  4 10  1  6  0  0  0
  4 15  1  0  0  0  0
  4  9  1  0  0  0  0
  5 10  1  0  0  0  0
  5 13  2  0  0  0  0
  7  9  2  0  0  0  0
  9 12  1  0  0  0  0
 11  2  1  0  0  0  0
 11  6  1  1  0  0  0
 12  6  1  0  0  0  0
 13  7  1  0  0  0  0
 14 10  2  0  0  0  0
 15  8  1  1  0  0  0
 15 11  1  0  0  0  0
 16 17  1  0  0  0  0
 17 13  1  0  0  0  0
 19 21  1  0  0  0  0
 19 27  1  0  0  0  0
 20 19  2  0  0  0  0
 21 22  1  0  0  0  0
 22 18  2  0  0  0  0
 23 21  2  0  0  0  0
 24 25  1  0  0  0  0
 25 20  1  0  0  0  0
 25 26  2  0  0  0  0
 26 23  1  0  0  0  0
 27 18  1  0  0  0  0
 28 29  1  0  0  0  0
 30 29  1  0  0  0  0
M  END
>  <MODEL>
2

>  <REMARK>
 VINA RESULT:      -7.2      1.473      2.073
  Name = 
  5 active torsions:
  status: ('A' for Active; 'I' for Inactive)
    1  A    between atoms: O_13  and  C_20
    2  A    between atoms: N_15  and  C_22
    3  A    between atoms: C_16  and  C_22
    4  A    between atoms: C_24  and  C_27
    5  A    between atoms: C_25  and  C_27
                            x       y       z     vdW  Elec       q    Type
                         _______ _______ _______ _____ _____    ______ ____

>  <TORSDO>
F 5

$$$$
=
 OpenBabel11042413443D

 30 34  0  0  1  0  0  0  0  0999 V2000
  192.9760  174.6170  145.6370 C   0  0  0  0  0  2  0  0  0  0  0  0
  191.7060  174.7580  144.8050 C   0  0  2  0  0  0  0  0  0  0  0  0
  192.9750  175.5280  144.4140 C   0  0  2  0  0  3  0  0  0  0  0  0
  188.4060  176.4250  144.4320 C   0  0  1  0  0  3  0  0  0  0  0  0
  186.7020  178.3000  144.1370 N   0  0  0  0  0  0  0  0  0  0  0  0
  189.6790  174.6840  146.0920 C   0  0  0  0  0  2  0  0  0  0  0  0
  187.0040  177.2730  146.3000 C   0  0  0  0  0  3  0  0  0  0  0  0
  190.4840  177.8800  144.5740 C   0  0  0  0  0  1  0  0  0  0  0  0
  187.9440  176.4320  145.8660 C   0  0  0  0  0  0  0  0  0  0  0  0
  187.7270  177.4680  143.5770 C   0  0  0  0  0  0  0  0  0  0  0  0
  190.6070  175.5720  145.3670 N   0  0  2  0  0  0  0  0  0  0  0  0
  188.6090  175.4960  146.8230 C   0  0  0  0  0  2  0  0  0  0  0  0
  186.3490  178.2360  145.3870 C   0  0  0  0  0  0  0  0  0  0  0  0
  187.9680  177.5200  142.3100 N   0  0  0  0  0  2  0  0  0  0  0  0
  189.9500  176.4670  144.3770 C   0  0  1  0  0  3  0  0  0  0  0  0
  183.9860  178.7230  145.9150 C   0  0  0  0  0  1  0  0  0  0  0  0
  185.3530  179.0990  145.8480 O   0  0  0  0  0  0  0  0  0  0  0  0
  191.5890  172.1940  144.4530 C   0  0  0  0  0  3  0  0  0  0  0  0
  190.6480  172.0910  142.5370 C   0  0  0  0  0  0  0  0  0  0  0  0
  190.1110  171.6350  141.3350 C   0  0  0  0  0  3  0  0  0  0  0  0
  190.7030  173.4200  142.8440 C   0  0  0  0  0  0  0  0  0  0  0  0
  191.2940  173.5050  144.0830 C   0  0  0  0  0  0  0  0  0  0  0  0
  190.2470  174.4030  141.9670 C   0  0  0  0  0  3  0  0  0  0  0  0
  189.1070  172.2070  139.2460 F   0  0  0  0  0  0  0  0  0  0  0  0
  189.6330  172.6000  140.4290 C   0  0  0  0  0  0  0  0  0  0  0  0
  189.7040  173.9750  140.7430 C   0  0  0  0  0  3  0  0  0  0  0  0
  191.1720  171.3750  143.5020 O   0  0  0  0  0  0  0  0  0  0  0  0
  193.7740  174.8640  143.2980 C   0  0  0  0  0  2  0  0  0  0  0  0
  195.2610  174.9950  143.5660 C   0  0  0  0  0  2  0  0  0  0  0  0
  195.6080  176.3430  143.6830 O   0  0  0  0  0  1  0  0  0  0  0  0
  2 22  1  6  0  0  0
  2 11  1  0  0  0  0
  2  1  1  0  0  0  0
  3 28  1  6  0  0  0
  3  2  1  0  0  0  0
  3  1  1  0  0  0  0
  4 10  1  6  0  0  0
  4  9  1  0  0  0  0
  5 13  2  0  0  0  0
  6 12  1  0  0  0  0
  9  7  2  0  0  0  0
  9 12  1  0  0  0  0
 10  5  1  0  0  0  0
 11  6  1  6  0  0  0
 13 17  1  0  0  0  0
 13  7  1  0  0  0  0
 14 10  2  0  0  0  0
 15  4  1  0  0  0  0
 15  8  1  1  0  0  0
 15 11  1  0  0  0  0
 17 16  1  0  0  0  0
 19 21  1  0  0  0  0
 19 27  1  0  0  0  0
 20 19  2  0  0  0  0
 21 22  1  0  0  0  0
 22 18  2  0  0  0  0
 23 21  2  0  0  0  0
 24 25  1  0  0  0  0
 25 26  2  0  0  0  0
 25 20  1  0  0  0  0
 26 23  1  0  0  0  0
 27 18  1  0  0  0  0
 28 29  1  0  0  0  0
 29 30  1  0  0  0  0
M  END
>  <MODEL>
3

>  <REMARK>
 VINA RESULT:      -7.1      1.802      2.339
  Name = 
  5 active torsions:
  status: ('A' for Active; 'I' for Inactive)
    1  A    between atoms: O_13  and  C_20
    2  A    between atoms: N_15  and  C_22
    3  A    between atoms: C_16  and  C_22
    4  A    between atoms: C_24  and  C_27
    5  A    between atoms: C_25  and  C_27
                            x       y       z     vdW  Elec       q    Type
                         _______ _______ _______ _____ _____    ______ ____

>  <TORSDO>
F 5

$$$$
=
 OpenBabel11042413443D

 30 34  0  0  1  0  0  0  0  0999 V2000
  187.0180  178.2540  146.9340 C   0  0  0  0  0  2  0  0  0  0  0  0
  187.5930  177.5420  145.7160 C   0  0  2  0  0  0  0  0  0  0  0  0
  186.6220  176.8090  146.6520 C   0  0  2  0  0  3  0  0  0  0  0  0
  190.2870  175.1730  144.7440 C   0  0  1  0  0  3  0  0  0  0  0  0
  191.9810  173.2780  144.9450 N   0  0  0  0  0  0  0  0  0  0  0  0
  189.7810  177.8480  144.7730 C   0  0  0  0  0  2  0  0  0  0  0  0
  192.7230  175.5720  145.0290 C   0  0  0  0  0  3  0  0  0  0  0  0
  189.4350  175.1170  147.1370 C   0  0  0  0  0  1  0  0  0  0  0  0
  191.4930  176.0660  144.8820 C   0  0  0  0  0  0  0  0  0  0  0  0
  190.6160  173.7030  144.8200 C   0  0  0  0  0  0  0  0  0  0  0  0
  189.0030  177.1040  145.7810 N   0  0  2  0  0  0  0  0  0  0  0  0
  191.2740  177.5450  144.9040 C   0  0  0  0  0  2  0  0  0  0  0  0
  192.9710  174.1130  145.0460 C   0  0  0  0  0  0  0  0  0  0  0  0
  189.6890  172.8230  144.6350 N   0  0  0  0  0  2  0  0  0  0  0  0
  189.1820  175.6280  145.7240 C   0  0  1  0  0  3  0  0  0  0  0  0
  195.3230  174.3550  145.7630 C   0  0  0  0  0  1  0  0  0  0  0  0
  194.2650  173.6070  145.1810 O   0  0  0  0  0  0  0  0  0  0  0  0
  186.4060  179.2710  144.1960 C   0  0  0  0  0  3  0  0  0  0  0  0
  186.5500  178.3070  142.2940 C   0  0  0  0  0  0  0  0  0  0  0  0
  186.4190  177.9870  140.9450 C   0  0  0  0  0  3  0  0  0  0  0  0
  187.2100  177.4900  143.1680 C   0  0  0  0  0  0  0  0  0  0  0  0
  187.1380  178.1030  144.3970 C   0  0  0  0  0  0  0  0  0  0  0  0
  187.7700  176.2770  142.7700 C   0  0  0  0  0  3  0  0  0  0  0  0
  186.8730  176.4150  139.2050 F   0  0  0  0  0  0  0  0  0  0  0  0
  186.9800  176.7730  140.5060 C   0  0  0  0  0  0  0  0  0  0  0  0
  187.6490  175.9230  141.4150 C   0  0  0  0  0  3  0  0  0  0  0  0
  186.0840  179.3620  142.9150 O   0  0  0  0  0  0  0  0  0  0  0  0
  185.1860  176.7780  146.1410 C   0  0  0  0  0  2  0  0  0  0  0  0
  184.3390  177.7900  146.8890 C   0  0  0  0  0  2  0  0  0  0  0  0
  183.6910  178.6330  145.9840 O   0  0  0  0  0  1  0  0  0  0  0  0
  2 22  1  6  0  0  0
  2 11  1  0  0  0  0
  2  3  1  0  0  0  0
  2  1  1  0  0  0  0
  3 28  1  6  0  0  0
  3  1  1  0  0  0  0
  4 10  1  1  0  0  0
  4  9  1  0  0  0  0
  4 15  1  0  0  0  0
  5 13  2  0  0  0  0
  6 12  1  0  0  0  0
  7 13  1  0  0  0  0
  9 12  1  0  0  0  0
  9  7  2  0  0  0  0
 10  5  1  0  0  0  0
 11  6  1  6  0  0  0
 13 17  1  0  0  0  0
 14 10  2  0  0  0  0
 15 11  1  0  0  0  0
 15  8  1  1  0  0  0
 17 16  1  0  0  0  0
 18 22  2  0  0  0  0
 19 27  1  0  0  0  0
 19 21  1  0  0  0  0
 20 19  2  0  0  0  0
 21 22  1  0  0  0  0
 23 21  2  0  0  0  0
 24 25  1  0  0  0  0
 25 20  1  0  0  0  0
 25 26  2  0  0  0  0
 26 23  1  0  0  0  0
 27 18  1  0  0  0  0
 28 29  1  0  0  0  0
 30 29  1  0  0  0  0
M  END
>  <MODEL>
4

>  <REMARK>
 VINA RESULT:      -7.0      2.550      6.871
  Name = 
  5 active torsions:
  status: ('A' for Active; 'I' for Inactive)
    1  A    between atoms: O_13  and  C_20
    2  A    between atoms: N_15  and  C_22
    3  A    between atoms: C_16  and  C_22
    4  A    between atoms: C_24  and  C_27
    5  A    between atoms: C_25  and  C_27
                            x       y       z     vdW  Elec       q    Type
                         _______ _______ _______ _____ _____    ______ ____

>  <TORSDO>
F 5

$$$$
=
 OpenBabel11042413443D

 30 34  0  0  1  0  0  0  0  0999 V2000
  187.2330  175.5520  142.2560 C   0  0  0  0  0  2  0  0  0  0  0  0
  187.7970  176.8940  142.7080 C   0  0  2  0  0  0  0  0  0  0  0  0
  187.7920  176.5210  141.2190 C   0  0  2  0  0  3  0  0  0  0  0  0
  191.2260  175.5050  143.0640 C   0  0  1  0  0  3  0  0  0  0  0  0
  193.1740  174.1910  144.0540 N   0  0  0  0  0  0  0  0  0  0  0  0
  189.9780  177.9000  142.7170 C   0  0  0  0  0  2  0  0  0  0  0  0
  193.0970  176.5910  144.2880 C   0  0  0  0  0  3  0  0  0  0  0  0
  189.5370  175.0390  144.9040 C   0  0  0  0  0  1  0  0  0  0  0  0
  191.9450  176.7050  143.6240 C   0  0  0  0  0  0  0  0  0  0  0  0
  191.9190  174.1980  143.3600 C   0  0  0  0  0  0  0  0  0  0  0  0
  189.1200  176.8930  143.3680 N   0  0  2  0  0  0  0  0  0  0  0  0
  191.3060  178.0470  143.4620 C   0  0  0  0  0  2  0  0  0  0  0  0
  193.7390  175.2750  144.4950 C   0  0  0  0  0  0  0  0  0  0  0  0
  191.4550  173.0970  142.8710 N   0  0  0  0  0  2  0  0  0  0  0  0
  189.7380  175.5440  143.4810 C   0  0  1  0  0  3  0  0  0  0  0  0
  196.2010  175.0620  144.5050 C   0  0  0  0  0  1  0  0  0  0  0  0
  194.9540  175.1690  145.1760 O   0  0  0  0  0  0  0  0  0  0  0  0
  186.3610  179.0500  142.7430 C   0  0  0  0  0  3  0  0  0  0  0  0
  185.4450  178.8960  144.6670 C   0  0  0  0  0  0  0  0  0  0  0  0
  184.7130  179.1580  145.8230 C   0  0  0  0  0  3  0  0  0  0  0  0
  186.1880  177.7590  144.5260 C   0  0  0  0  0  0  0  0  0  0  0  0
  186.7750  177.8350  143.2850 C   0  0  0  0  0  0  0  0  0  0  0  0
  186.2790  176.8030  145.5370 C   0  0  0  0  0  3  0  0  0  0  0  0
  184.0860  178.4210  148.0060 F   0  0  0  0  0  0  0  0  0  0  0  0
  184.7750  178.2090  146.8610 C   0  0  0  0  0  0  0  0  0  0  0  0
  185.5570  177.0420  146.7180 C   0  0  0  0  0  3  0  0  0  0  0  0
  185.5510  179.6500  143.6000 O   0  0  0  0  0  0  0  0  0  0  0  0
  186.6360  177.1350  140.4390 C   0  0  0  0  0  2  0  0  0  0  0  0
  186.7860  176.8440  138.9580 C   0  0  0  0  0  2  0  0  0  0  0  0
  187.3900  175.5980  138.7760 O   0  0  0  0  0  1  0  0  0  0  0  0
  1  2  1  0  0  0  0
  2 22  1  1  0  0  0
  2 11  1  0  0  0  0
  3 28  1  6  0  0  0
  3  1  1  0  0  0  0
  3  2  1  0  0  0  0
  4 10  1  1  0  0  0
  4 15  1  0  0  0  0
  4  9  1  0  0  0  0
  5 13  2  0  0  0  0
  6 12  1  0  0  0  0
  7 13  1  0  0  0  0
  9  7  2  0  0  0  0
 10  5  1  0  0  0  0
 11  6  1  6  0  0  0
 11 15  1  0  0  0  0
 12  9  1  0  0  0  0
 13 17  1  0  0  0  0
 14 10  2  0  0  0  0
 15  8  1  1  0  0  0
 16 17  1  0  0  0  0
 18 22  2  0  0  0  0
 18 27  1  0  0  0  0
 19 20  1  0  0  0  0
 20 25  2  0  0  0  0
 21 19  2  0  0  0  0
 21 23  1  0  0  0  0
 22 21  1  0  0  0  0
 23 26  2  0  0  0  0
 25 24  1  0  0  0  0
 26 25  1  0  0  0  0
 27 19  1  0  0  0  0
 29 28  1  0  0  0  0
 30 29  1  0  0  0  0
M  END
>  <MODEL>
5

>  <REMARK>
 VINA RESULT:      -7.0      3.194      7.649
  Name = 
  5 active torsions:
  status: ('A' for Active; 'I' for Inactive)
    1  A    between atoms: O_13  and  C_20
    2  A    between atoms: N_15  and  C_22
    3  A    between atoms: C_16  and  C_22
    4  A    between atoms: C_24  and  C_27
    5  A    between atoms: C_25  and  C_27
                            x       y       z     vdW  Elec       q    Type
                         _______ _______ _______ _____ _____    ______ ____

>  <TORSDO>
F 5

$$$$
=
 OpenBabel11042413443D

 30 34  0  0  1  0  0  0  0  0999 V2000
  192.6050  175.1560  146.5340 C   0  0  0  0  0  2  0  0  0  0  0  0
  192.0390  175.8830  145.3190 C   0  0  2  0  0  0  0  0  0  0  0  0
  193.2830  176.4270  146.0340 C   0  0  2  0  0  3  0  0  0  0  0  0
  188.6040  176.7920  144.2310 C   0  0  1  0  0  3  0  0  0  0  0  0
  186.7110  178.1640  143.2130 N   0  0  0  0  0  0  0  0  0  0  0  0
  189.9250  175.9510  146.4580 C   0  0  0  0  0  2  0  0  0  0  0  0
  186.9340  178.0100  145.6110 C   0  0  0  0  0  3  0  0  0  0  0  0
  190.4570  178.5040  143.9360 C   0  0  0  0  0  1  0  0  0  0  0  0
  188.0110  177.2250  145.5460 C   0  0  0  0  0  0  0  0  0  0  0  0
  187.8830  177.3560  143.0320 C   0  0  0  0  0  0  0  0  0  0  0  0
  190.7970  176.6620  145.5050 N   0  0  2  0  0  0  0  0  0  0  0  0
  188.6950  176.7910  146.8030 C   0  0  0  0  0  2  0  0  0  0  0  0
  186.2520  178.4840  144.3860 C   0  0  0  0  0  0  0  0  0  0  0  0
  188.2340  177.0020  141.8410 N   0  0  0  0  0  2  0  0  0  0  0  0
  190.1280  177.0470  144.2340 C   0  0  1  0  0  3  0  0  0  0  0  0
  184.0620  179.0400  145.3830 C   0  0  0  0  0  1  0  0  0  0  0  0
  185.1150  179.2910  144.4650 O   0  0  0  0  0  0  0  0  0  0  0  0
  192.7360  175.5540  142.8460 C   0  0  0  0  0  3  0  0  0  0  0  0
  191.8080  173.6800  142.4080 C   0  0  0  0  0  0  0  0  0  0  0  0
  191.3360  172.5420  141.7570 C   0  0  0  0  0  3  0  0  0  0  0  0
  191.5460  173.9170  143.7270 C   0  0  0  0  0  0  0  0  0  0  0  0
  192.1480  175.1150  144.0310 C   0  0  0  0  0  0  0  0  0  0  0  0
  190.7710  173.0490  144.4970 C   0  0  0  0  0  3  0  0  0  0  0  0
  190.0710  170.5230  141.9170 F   0  0  0  0  0  0  0  0  0  0  0  0
  190.5580  171.6400  142.5060 C   0  0  0  0  0  0  0  0  0  0  0  0
  190.2750  171.8950  143.8660 C   0  0  0  0  0  3  0  0  0  0  0  0
  192.5190  174.6550  141.8990 O   0  0  0  0  0  0  0  0  0  0  0  0
  194.5940  176.0550  145.3500 C   0  0  0  0  0  2  0  0  0  0  0  0
  195.3090  174.9730  146.1360 C   0  0  0  0  0  2  0  0  0  0  0  0
  196.4100  174.5070  145.4140 O   0  0  0  0  0  1  0  0  0  0  0  0
  2 22  1  6  0  0  0
  2 11  1  0  0  0  0
  2  3  1  0  0  0  0
  2  1  1  0  0  0  0
  3 28  1  6  0  0  0
  3  1  1  0  0  0  0
  4 10  1  6  0  0  0
  4 15  1  0  0  0  0
  4  9  1  0  0  0  0
  5 13  2  0  0  0  0
  6 12  1  0  0  0  0
  9  7  2  0  0  0  0
  9 12  1  0  0  0  0
 10  5  1  0  0  0  0
 11  6  1  1  0  0  0
 13 17  1  0  0  0  0
 13  7  1  0  0  0  0
 14 10  2  0  0  0  0
 15  8  1  1  0  0  0
 15 11  1  0  0  0  0
 17 16  1  0  0  0  0
 18 22  2  0  0  0  0
 19 21  1  0  0  0  0
 20 19  2  0  0  0  0
 20 25  1  0  0  0  0
 21 22  1  0  0  0  0
 21 23  2  0  0  0  0
 24 25  1  0  0  0  0
 25 26  2  0  0  0  0
 26 23  1  0  0  0  0
 27 19  1  0  0  0  0
 27 18  1  0  0  0  0
 28 29  1  0  0  0  0
 30 29  1  0  0  0  0
M  END
>  <MODEL>
6

>  <REMARK>
 VINA RESULT:      -6.9      1.246      1.327
  Name = 
  5 active torsions:
  status: ('A' for Active; 'I' for Inactive)
    1  A    between atoms: O_13  and  C_20
    2  A    between atoms: N_15  and  C_22
    3  A    between atoms: C_16  and  C_22
    4  A    between atoms: C_24  and  C_27
    5  A    between atoms: C_25  and  C_27
                            x       y       z     vdW  Elec       q    Type
                         _______ _______ _______ _____ _____    ______ ____

>  <TORSDO>
F 5

$$$$
=
 OpenBabel11042413443D

 30 34  0  0  1  0  0  0  0  0999 V2000
  190.2460  177.3680  145.0650 C   0  0  0  0  0  2  0  0  0  0  0  0
  189.3480  176.2360  145.5490 C   0  0  2  0  0  0  0  0  0  0  0  0
  190.6470  176.5650  146.2980 C   0  0  2  0  0  3  0  0  0  0  0  0
  191.0370  173.8920  143.2120 C   0  0  1  0  0  3  0  0  0  0  0  0
  191.5760  172.6650  141.0420 N   0  0  0  0  0  0  0  0  0  0  0  0
  189.8150  173.8820  145.6440 C   0  0  0  0  0  2  0  0  0  0  0  0
  190.3570  171.5390  142.7940 C   0  0  0  0  0  3  0  0  0  0  0  0
  189.0460  175.2200  142.3600 C   0  0  0  0  0  1  0  0  0  0  0  0
  190.3780  172.5960  143.6070 C   0  0  0  0  0  0  0  0  0  0  0  0
  191.6230  173.8680  141.8210 C   0  0  0  0  0  0  0  0  0  0  0  0
  189.3540  174.9780  144.7730 N   0  0  2  0  0  0  0  0  0  0  0  0
  189.6910  172.5330  144.9340 C   0  0  0  0  0  2  0  0  0  0  0  0
  190.9980  171.5790  141.4610 C   0  0  0  0  0  0  0  0  0  0  0  0
  192.2890  174.8850  141.3840 N   0  0  0  0  0  2  0  0  0  0  0  0
  190.0740  175.0720  143.4750 C   0  0  1  0  0  3  0  0  0  0  0  0
  190.8170  169.1390  141.1180 C   0  0  0  0  0  1  0  0  0  0  0  0
  190.9860  170.4600  140.6260 O   0  0  0  0  0  0  0  0  0  0  0  0
  187.4020  176.2880  147.2580 C   0  0  0  0  0  3  0  0  0  0  0  0
  185.9630  177.4610  146.1990 C   0  0  0  0  0  0  0  0  0  0  0  0
  184.8000  178.1290  145.8220 C   0  0  0  0  0  3  0  0  0  0  0  0
  187.0660  177.4240  145.3950 C   0  0  0  0  0  0  0  0  0  0  0  0
  188.0090  176.6830  146.0680 C   0  0  0  0  0  0  0  0  0  0  0  0
  187.0890  178.0300  144.1390 C   0  0  0  0  0  3  0  0  0  0  0  0
  183.6820  179.4160  144.1510 F   0  0  0  0  0  0  0  0  0  0  0  0
  184.7910  178.7590  144.5640 C   0  0  0  0  0  0  0  0  0  0  0  0
  185.9280  178.7070  143.7280 C   0  0  0  0  0  3  0  0  0  0  0  0
  186.1770  176.7890  147.3030 O   0  0  0  0  0  0  0  0  0  0  0  0
  190.4370  177.4230  147.5400 C   0  0  0  0  0  2  0  0  0  0  0  0
  191.5480  177.1800  148.5430 C   0  0  0  0  0  2  0  0  0  0  0  0
  191.5400  178.1810  149.5160 O   0  0  0  0  0  1  0  0  0  0  0  0
  1  2  1  0  0  0  0
  1  3  1  0  0  0  0
  2 22  1  1  0  0  0
  2  3  1  0  0  0  0
  3 28  1  1  0  0  0
  4 10  1  6  0  0  0
  4 15  1  0  0  0  0
  4  9  1  0  0  0  0
  5 13  2  0  0  0  0
  5 10  1  0  0  0  0
  7  9  2  0  0  0  0
  9 12  1  0  0  0  0
 11  2  1  0  0  0  0
 11  6  1  1  0  0  0
 12  6  1  0  0  0  0
 13  7  1  0  0  0  0
 14 10  2  0  0  0  0
 15  8  1  6  0  0  0
 15 11  1  0  0  0  0
 17 16  1  0  0  0  0
 17 13  1  0  0  0  0
 18 27  1  0  0  0  0
 19 27  1  0  0  0  0
 20 19  1  0  0  0  0
 21 22  1  0  0  0  0
 21 19  2  0  0  0  0
 22 18  2  0  0  0  0
 23 21  1  0  0  0  0
 24 25  1  0  0  0  0
 25 20  2  0  0  0  0
 26 23  2  0  0  0  0
 26 25  1  0  0  0  0
 28 29  1  0  0  0  0
 29 30  1  0  0  0  0
M  END
>  <MODEL>
7

>  <REMARK>
 VINA RESULT:      -6.9      3.202      6.507
  Name = 
  5 active torsions:
  status: ('A' for Active; 'I' for Inactive)
    1  A    between atoms: O_13  and  C_20
    2  A    between atoms: N_15  and  C_22
    3  A    between atoms: C_16  and  C_22
    4  A    between atoms: C_24  and  C_27
    5  A    between atoms: C_25  and  C_27
                            x       y       z     vdW  Elec       q    Type
                         _______ _______ _______ _____ _____    ______ ____

>  <TORSDO>
F 5

$$$$
=
 OpenBabel11042413443D

 30 34  0  0  1  0  0  0  0  0999 V2000
  187.8520  175.7990  142.8810 C   0  0  0  0  0  2  0  0  0  0  0  0
  189.0840  176.1590  143.7020 C   0  0  2  0  0  0  0  0  0  0  0  0
  188.8710  176.7820  142.3160 C   0  0  2  0  0  3  0  0  0  0  0  0
  192.1800  174.8850  145.3150 C   0  0  1  0  0  3  0  0  0  0  0  0
  194.6520  174.3530  145.6400 N   0  0  0  0  0  0  0  0  0  0  0  0
  189.6910  174.0260  144.6240 C   0  0  0  0  0  2  0  0  0  0  0  0
  193.1110  172.5980  145.0340 C   0  0  0  0  0  3  0  0  0  0  0  0
  192.3510  175.8620  142.9770 C   0  0  0  0  0  1  0  0  0  0  0  0
  192.0560  173.4150  145.0110 C   0  0  0  0  0  0  0  0  0  0  0  0
  193.5940  175.3210  145.6080 C   0  0  0  0  0  0  0  0  0  0  0  0
  190.1620  175.1520  143.7970 N   0  0  2  0  0  0  0  0  0  0  0  0
  190.7120  172.8870  144.6250 C   0  0  0  0  0  2  0  0  0  0  0  0
  194.4620  173.0950  145.3780 C   0  0  0  0  0  0  0  0  0  0  0  0
  193.8340  176.5390  145.9650 N   0  0  0  0  0  2  0  0  0  0  0  0
  191.4760  175.7100  144.2140 C   0  0  1  0  0  3  0  0  0  0  0  0
  196.8180  172.6110  145.9420 C   0  0  0  0  0  1  0  0  0  0  0  0
  195.5560  172.2280  145.4160 O   0  0  0  0  0  0  0  0  0  0  0  0
  189.7170  177.4090  145.8810 C   0  0  0  0  0  3  0  0  0  0  0  0
  187.7850  177.7600  146.7240 C   0  0  0  0  0  0  0  0  0  0  0  0
  186.7460  178.1260  147.5760 C   0  0  0  0  0  3  0  0  0  0  0  0
  187.5540  177.1490  145.5250 C   0  0  0  0  0  0  0  0  0  0  0  0
  188.7880  176.9270  144.9610 C   0  0  0  0  0  0  0  0  0  0  0  0
  186.2670  176.8320  145.0900 C   0  0  0  0  0  3  0  0  0  0  0  0
  184.3890  178.1590  147.9610 F   0  0  0  0  0  0  0  0  0  0  0  0
  185.4330  177.8290  147.1650 C   0  0  0  0  0  0  0  0  0  0  0  0
  185.1970  177.1830  145.9310 C   0  0  0  0  0  3  0  0  0  0  0  0
  189.0720  177.9140  146.9200 O   0  0  0  0  0  0  0  0  0  0  0  0
  188.2830  178.1880  142.3600 C   0  0  0  0  0  2  0  0  0  0  0  0
  186.9220  178.2110  141.6930 C   0  0  0  0  0  2  0  0  0  0  0  0
  186.0540  179.0390  142.4080 O   0  0  0  0  0  1  0  0  0  0  0  0
  1  2  1  0  0  0  0
  2 11  1  0  0  0  0
  2 22  1  1  0  0  0
  3 28  1  1  0  0  0
  3  1  1  0  0  0  0
  3  2  1  0  0  0  0
  4  9  1  6  0  0  0
  4 10  1  0  0  0  0
  6 12  1  0  0  0  0
  7 13  1  0  0  0  0
  9  7  2  0  0  0  0
 10  5  1  0  0  0  0
 10 14  2  0  0  0  0
 11 15  1  0  0  0  0
 11  6  1  1  0  0  0
 12  9  1  0  0  0  0
 13 17  1  0  0  0  0
 13  5  2  0  0  0  0
 15  8  1  6  0  0  0
 15  4  1  0  0  0  0
 17 16  1  0  0  0  0
 18 27  1  0  0  0  0
 19 27  1  0  0  0  0
 19 20  1  0  0  0  0
 21 19  2  0  0  0  0
 22 21  1  0  0  0  0
 22 18  2  0  0  0  0
 23 21  1  0  0  0  0
 23 26  2  0  0  0  0
 25 20  2  0  0  0  0
 25 24  1  0  0  0  0
 26 25  1  0  0  0  0
 29 28  1  0  0  0  0
 29 30  1  0  0  0  0
M  END
>  <MODEL>
8

>  <REMARK>
 VINA RESULT:      -6.8      3.198      7.485
  Name = 
  5 active torsions:
  status: ('A' for Active; 'I' for Inactive)
    1  A    between atoms: O_13  and  C_20
    2  A    between atoms: N_15  and  C_22
    3  A    between atoms: C_16  and  C_22
    4  A    between atoms: C_24  and  C_27
    5  A    between atoms: C_25  and  C_27
                            x       y       z     vdW  Elec       q    Type
                         _______ _______ _______ _____ _____    ______ ____

>  <TORSDO>
F 5

$$$$
=
 OpenBabel11042413443D

 30 34  0  0  1  0  0  0  0  0999 V2000
  189.9190  177.5410  147.0390 C   0  0  0  0  0  2  0  0  0  0  0  0
  189.8990  176.5590  145.8730 C   0  0  2  0  0  0  0  0  0  0  0  0
  188.7470  176.5770  146.8870 C   0  0  2  0  0  3  0  0  0  0  0  0
  192.1170  174.0850  144.2100 C   0  0  1  0  0  3  0  0  0  0  0  0
  192.9000  171.8620  143.2370 N   0  0  0  0  0  0  0  0  0  0  0  0
  192.1620  175.8610  146.2730 C   0  0  0  0  0  2  0  0  0  0  0  0
  193.7480  172.6090  145.3680 C   0  0  0  0  0  3  0  0  0  0  0  0
  189.8830  173.2850  145.1170 C   0  0  0  0  0  1  0  0  0  0  0  0
  193.0380  173.7380  145.3520 C   0  0  0  0  0  0  0  0  0  0  0  0
  192.0680  173.0260  143.1370 C   0  0  0  0  0  0  0  0  0  0  0  0
  190.8030  175.3920  145.9460 N   0  0  2  0  0  0  0  0  0  0  0  0
  193.1030  174.6790  146.5130 C   0  0  0  0  0  2  0  0  0  0  0  0
  193.6810  171.6410  144.2520 C   0  0  0  0  0  0  0  0  0  0  0  0
  191.3820  173.2280  142.0620 N   0  0  0  0  0  2  0  0  0  0  0  0
  190.7330  174.4980  144.7600 C   0  0  1  0  0  3  0  0  0  0  0  0
  194.5050  169.6160  145.4030 C   0  0  0  0  0  1  0  0  0  0  0  0
  194.4430  170.4710  144.2710 O   0  0  0  0  0  0  0  0  0  0  0  0
  190.4920  178.2910  144.0390 C   0  0  0  0  0  3  0  0  0  0  0  0
  188.9860  177.8700  142.5830 C   0  0  0  0  0  0  0  0  0  0  0  0
  188.1650  177.9160  141.4580 C   0  0  0  0  0  3  0  0  0  0  0  0
  188.7930  176.9570  143.5800 C   0  0  0  0  0  0  0  0  0  0  0  0
  189.7640  177.2040  144.5210 C   0  0  0  0  0  0  0  0  0  0  0  0
  187.7520  176.0300  143.5450 C   0  0  0  0  0  3  0  0  0  0  0  0
  186.2810  176.9960  140.3160 F   0  0  0  0  0  0  0  0  0  0  0  0
  187.1090  176.9880  141.3860 C   0  0  0  0  0  0  0  0  0  0  0  0
  186.9030  176.0540  142.4250 C   0  0  0  0  0  3  0  0  0  0  0  0
  189.9990  178.6510  142.8650 O   0  0  0  0  0  0  0  0  0  0  0  0
  187.5240  177.3520  146.4100 C   0  0  0  0  0  2  0  0  0  0  0  0
  186.2710  176.8230  147.0810 C   0  0  0  0  0  2  0  0  0  0  0  0
  185.2170  176.7910  146.1640 O   0  0  0  0  0  1  0  0  0  0  0  0
  2 22  1  6  0  0  0
  2 11  1  0  0  0  0
  2  3  1  0  0  0  0
  2  1  1  0  0  0  0
  3 28  1  6  0  0  0
  3  1  1  0  0  0  0
  4 10  1  6  0  0  0
  4 15  1  0  0  0  0
  4  9  1  0  0  0  0
  5 13  2  0  0  0  0
  6 12  1  0  0  0  0
  9  7  2  0  0  0  0
  9 12  1  0  0  0  0
 10  5  1  0  0  0  0
 11  6  1  6  0  0  0
 13 17  1  0  0  0  0
 13  7  1  0  0  0  0
 14 10  2  0  0  0  0
 15  8  1  1  0  0  0
 15 11  1  0  0  0  0
 17 16  1  0  0  0  0
 18 22  2  0  0  0  0
 19 27  1  0  0  0  0
 19 21  1  0  0  0  0
 20 19  2  0  0  0  0
 21 22  1  0  0  0  0
 23 21  2  0  0  0  0
 24 25  1  0  0  0  0
 25 20  1  0  0  0  0
 25 26  2  0  0  0  0
 26 23  1  0  0  0  0
 27 18  1  0  0  0  0
 28 29  1  0  0  0  0
 30 29  1  0  0  0  0
M  END
>  <MODEL>
9

>  <REMARK>
 VINA RESULT:      -6.8      2.888      6.670
  Name = 
  5 active torsions:
  status: ('A' for Active; 'I' for Inactive)
    1  A    between atoms: O_13  and  C_20
    2  A    between atoms: N_15  and  C_22
    3  A    between atoms: C_16  and  C_22
    4  A    between atoms: C_24  and  C_27
    5  A    between atoms: C_25  and  C_27
                            x       y       z     vdW  Elec       q    Type
                         _______ _______ _______ _____ _____    ______ ____

>  <TORSDO>
F 5

$$$$
