=
 OpenBabel11042418503D

 26 29  0  0  1  0  0  0  0  0999 V2000
  187.2350  177.9170  144.2120 C   0  0  0  0  0  0  0  0  0  0  0  0
  188.7000  177.1440  146.1840 C   0  0  1  0  0  3  0  0  0  0  0  0
  188.4840  177.7930  144.9000 N   0  0  0  0  0  2  0  0  0  0  0  0
  184.8930  177.9870  142.6520 C   0  0  0  0  0  0  0  0  0  0  0  0
  186.1460  178.1420  142.0510 C   0  0  0  0  0  3  0  0  0  0  0  0
  186.7350  178.1460  147.3300 C   0  0  0  0  0  3  0  0  0  0  0  0
  188.0410  177.9130  147.2750 C   0  0  0  0  0  3  0  0  0  0  0  0
  184.8160  177.8250  144.0360 C   0  0  0  0  0  3  0  0  0  0  0  0
  185.9660  177.8000  144.8450 C   0  0  0  0  0  0  0  0  0  0  0  0
  184.5980  177.4330  146.7430 O   0  0  0  0  0  0  0  0  0  0  0  0
  187.3020  178.1070  142.8270 C   0  0  0  0  0  3  0  0  0  0  0  0
  185.7430  177.7430  146.3180 C   0  0  0  0  0  0  0  0  0  0  0  0
  188.9520  174.9150  147.2640 C   0  0  0  0  0  2  0  0  0  0  0  0
  188.2400  175.6800  146.1640 C   0  0  2  0  0  3  0  0  0  0  0  0
  189.3220  174.6510  145.8180 C   0  0  1  0  0  3  0  0  0  0  0  0
  191.2310  175.3250  144.2250 C   0  0  0  0  0  0  0  0  0  0  0  0
  190.6130  175.2600  145.5190 N   0  0  0  0  0  2  0  0  0  0  0  0
  192.3480  175.9040  144.1350 O   0  0  0  0  0  0  0  0  0  0  0  0
  189.4680  175.3270  142.4080 C   0  0  0  0  0  3  0  0  0  0  0  0
  190.6630  173.1470  141.2220 N   0  0  0  0  0  0  0  0  0  0  0  0
  191.1970  173.6590  142.3630 C   0  0  0  0  0  3  0  0  0  0  0  0
  190.6140  174.7710  142.9900 C   0  0  0  0  0  0  0  0  0  0  0  0
  189.5550  173.6870  140.6500 C   0  0  0  0  0  3  0  0  0  0  0  0
  188.9330  174.7900  141.2360 C   0  0  0  0  0  3  0  0  0  0  0  0
  183.7130  178.0040  141.9040 O   0  0  0  0  0  0  0  0  0  0  0  0
  183.6890  178.2940  140.5130 C   0  0  0  0  0  1  0  0  0  0  0  0
  1  9  1  0  0  0  0
  1  3  1  0  0  0  0
  2  7  1  1  0  0  0
  3  2  1  0  0  0  0
  4  8  1  0  0  0  0
  5  4  2  0  0  0  0
  5 11  1  0  0  0  0
  7  6  2  0  0  0  0
  8  9  2  0  0  0  0
  9 12  1  0  0  0  0
 11  1  2  0  0  0  0
 12 10  2  0  0  0  0
 12  6  1  0  0  0  0
 14  2  1  0  0  0  0
 14 13  1  1  0  0  0
 15 17  1  1  0  0  0
 15 14  1  0  0  0  0
 15 13  1  0  0  0  0
 16 17  1  0  0  0  0
 18 16  2  0  0  0  0
 19 22  1  0  0  0  0
 20 21  1  0  0  0  0
 21 22  2  0  0  0  0
 22 16  1  0  0  0  0
 23 20  2  0  0  0  0
 23 24  1  0  0  0  0
 24 19  2  0  0  0  0
 25  4  1  0  0  0  0
 26 25  1  0  0  0  0
M  END
>  <MODEL>
1

>  <REMARK>
 VINA RESULT:      -7.0      0.000      0.000
  Name = 
  4 active torsions:
  status: ('A' for Active; 'I' for Inactive)
    1  A    between atoms: C_2  and  C_13
    2  A    between atoms: C_3  and  C_18
    3  A    between atoms: C_5  and  O_9
    4  A    between atoms: N_17  and  C_22
                            x       y       z     vdW  Elec       q    Type
                         _______ _______ _______ _____ _____    ______ ____

>  <TORSDO>
F 4

$$$$
=
 OpenBabel11042418503D

 26 29  0  0  1  0  0  0  0  0999 V2000
  188.5310  177.6660  143.8800 C   0  0  0  0  0  0  0  0  0  0  0  0
  189.3960  176.9390  146.1940 C   0  0  1  0  0  3  0  0  0  0  0  0
  189.5070  177.6450  144.9260 N   0  0  0  0  0  2  0  0  0  0  0  0
  186.8060  177.5660  141.6570 C   0  0  0  0  0  0  0  0  0  0  0  0
  188.1520  177.9100  141.4910 C   0  0  0  0  0  3  0  0  0  0  0  0
  187.0550  177.6180  146.6800 C   0  0  0  0  0  3  0  0  0  0  0  0
  188.3330  177.5470  147.0380 C   0  0  0  0  0  3  0  0  0  0  0  0
  186.3230  177.3000  142.9390 C   0  0  0  0  0  3  0  0  0  0  0  0
  187.1560  177.3570  144.0720 C   0  0  0  0  0  0  0  0  0  0  0  0
  185.3250  176.6990  145.4240 O   0  0  0  0  0  0  0  0  0  0  0  0
  189.0000  177.9590  142.5940 C   0  0  0  0  0  3  0  0  0  0  0  0
  186.4940  177.1720  145.3940 C   0  0  0  0  0  0  0  0  0  0  0  0
  189.1600  174.7390  147.3340 C   0  0  0  0  0  2  0  0  0  0  0  0
  189.1670  175.4360  145.9870 C   0  0  2  0  0  3  0  0  0  0  0  0
  190.3320  174.5260  146.3960 C   0  0  1  0  0  3  0  0  0  0  0  0
  192.6540  175.6010  146.1030 C   0  0  0  0  0  0  0  0  0  0  0  0
  191.4920  175.2670  146.8770 N   0  0  0  0  0  2  0  0  0  0  0  0
  193.5660  176.2630  146.6690 O   0  0  0  0  0  0  0  0  0  0  0  0
  192.4510  176.0820  143.6260 C   0  0  0  0  0  3  0  0  0  0  0  0
  193.5770  173.6360  143.0420 N   0  0  0  0  0  0  0  0  0  0  0  0
  193.3930  173.9900  144.3420 C   0  0  0  0  0  3  0  0  0  0  0  0
  192.8250  175.2300  144.6730 C   0  0  0  0  0  0  0  0  0  0  0  0
  193.2220  174.4620  142.0230 C   0  0  0  0  0  3  0  0  0  0  0  0
  192.6490  175.7040  142.2970 C   0  0  0  0  0  3  0  0  0  0  0  0
  185.9280  177.4930  140.5730 O   0  0  0  0  0  0  0  0  0  0  0  0
  184.7190  178.2360  140.5130 C   0  0  0  0  0  1  0  0  0  0  0  0
  1  9  1  0  0  0  0
  1  3  1  0  0  0  0
  2  7  1  6  0  0  0
  3  2  1  0  0  0  0
  4  8  1  0  0  0  0
  5  4  2  0  0  0  0
  5 11  1  0  0  0  0
  6  7  2  0  0  0  0
  8  9  2  0  0  0  0
  9 12  1  0  0  0  0
 11  1  2  0  0  0  0
 12 10  2  0  0  0  0
 12  6  1  0  0  0  0
 14  2  1  0  0  0  0
 14 15  1  0  0  0  0
 14 13  1  1  0  0  0
 15 17  1  1  0  0  0
 15 13  1  0  0  0  0
 16 18  2  0  0  0  0
 16 17  1  0  0  0  0
 19 22  1  0  0  0  0
 20 21  1  0  0  0  0
 21 22  2  0  0  0  0
 22 16  1  0  0  0  0
 23 24  1  0  0  0  0
 23 20  2  0  0  0  0
 24 19  2  0  0  0  0
 25  4  1  0  0  0  0
 26 25  1  0  0  0  0
M  END
>  <MODEL>
2

>  <REMARK>
 VINA RESULT:      -7.0      1.923      2.196
  Name = 
  4 active torsions:
  status: ('A' for Active; 'I' for Inactive)
    1  A    between atoms: C_2  and  C_13
    2  A    between atoms: C_3  and  C_18
    3  A    between atoms: C_5  and  O_9
    4  A    between atoms: N_17  and  C_22
                            x       y       z     vdW  Elec       q    Type
                         _______ _______ _______ _____ _____    ______ ____

>  <TORSDO>
F 4

$$$$
=
 OpenBabel11042418503D

 26 29  0  0  1  0  0  0  0  0999 V2000
  192.9460  175.5110  143.8630 C   0  0  0  0  0  0  0  0  0  0  0  0
  190.5920  175.5630  144.9030 C   0  0  1  0  0  3  0  0  0  0  0  0
  191.5730  175.1150  143.9270 N   0  0  0  0  0  2  0  0  0  0  0  0
  195.5840  176.4170  143.4800 C   0  0  0  0  0  0  0  0  0  0  0  0
  194.8790  175.8320  142.4240 C   0  0  0  0  0  3  0  0  0  0  0  0
  192.0580  175.3200  146.8950 C   0  0  0  0  0  3  0  0  0  0  0  0
  190.9270  175.0430  146.2570 C   0  0  0  0  0  3  0  0  0  0  0  0
  194.9750  176.5210  144.7310 C   0  0  0  0  0  3  0  0  0  0  0  0
  193.6640  176.0650  144.9590 C   0  0  0  0  0  0  0  0  0  0  0  0
  193.8120  176.8200  147.1990 O   0  0  0  0  0  0  0  0  0  0  0  0
  193.5740  175.3840  142.6190 C   0  0  0  0  0  3  0  0  0  0  0  0
  193.1740  176.1220  146.3650 C   0  0  0  0  0  0  0  0  0  0  0  0
  189.1590  177.4750  145.6040 C   0  0  0  0  0  2  0  0  0  0  0  0
  190.4470  177.0910  144.9010 C   0  0  2  0  0  3  0  0  0  0  0  0
  189.2620  177.6430  144.1010 C   0  0  1  0  0  3  0  0  0  0  0  0
  187.0600  176.4870  143.4290 C   0  0  0  0  0  0  0  0  0  0  0  0
  188.4910  176.6020  143.4320 N   0  0  0  0  0  2  0  0  0  0  0  0
  186.5490  175.5310  142.7860 O   0  0  0  0  0  0  0  0  0  0  0  0
  185.9170  178.7370  143.6340 C   0  0  0  0  0  3  0  0  0  0  0  0
  184.6540  177.9040  145.9360 N   0  0  0  0  0  0  0  0  0  0  0  0
  185.5000  177.0530  145.2970 C   0  0  0  0  0  3  0  0  0  0  0  0
  186.1560  177.4450  144.1200 C   0  0  0  0  0  0  0  0  0  0  0  0
  184.4130  179.1560  145.4650 C   0  0  0  0  0  3  0  0  0  0  0  0
  185.0450  179.5970  144.3010 C   0  0  0  0  0  3  0  0  0  0  0  0
  196.8890  176.8890  143.3190 O   0  0  0  0  0  0  0  0  0  0  0  0
  197.9410  176.0810  142.8100 C   0  0  0  0  0  1  0  0  0  0  0  0
  1  3  1  0  0  0  0
  1  9  1  0  0  0  0
  2  7  1  1  0  0  0
  3  2  1  0  0  0  0
  4  8  1  0  0  0  0
  5 11  1  0  0  0  0
  5  4  2  0  0  0  0
  7  6  2  0  0  0  0
  8  9  2  0  0  0  0
  9 12  1  0  0  0  0
 11  1  2  0  0  0  0
 12  6  1  0  0  0  0
 12 10  2  0  0  0  0
 14  2  1  0  0  0  0
 14 13  1  1  0  0  0
 15 17  1  6  0  0  0
 15 14  1  0  0  0  0
 15 13  1  0  0  0  0
 16 17  1  0  0  0  0
 16 22  1  0  0  0  0
 18 16  2  0  0  0  0
 19 22  2  0  0  0  0
 19 24  1  0  0  0  0
 21 20  2  0  0  0  0
 22 21  1  0  0  0  0
 23 20  1  0  0  0  0
 24 23  2  0  0  0  0
 25  4  1  0  0  0  0
 26 25  1  0  0  0  0
M  END
>  <MODEL>
3

>  <REMARK>
 VINA RESULT:      -7.0      3.005      7.533
  Name = 
  4 active torsions:
  status: ('A' for Active; 'I' for Inactive)
    1  A    between atoms: C_2  and  C_13
    2  A    between atoms: C_3  and  C_18
    3  A    between atoms: C_5  and  O_9
    4  A    between atoms: N_17  and  C_22
                            x       y       z     vdW  Elec       q    Type
                         _______ _______ _______ _____ _____    ______ ____

>  <TORSDO>
F 4

$$$$
=
 OpenBabel11042418503D

 26 29  0  0  1  0  0  0  0  0999 V2000
  187.4690  177.9070  144.1340 C   0  0  0  0  0  0  0  0  0  0  0  0
  188.9150  177.1180  146.1130 C   0  0  1  0  0  3  0  0  0  0  0  0
  188.6980  177.8270  144.8610 N   0  0  0  0  0  2  0  0  0  0  0  0
  185.1820  177.9130  142.4910 C   0  0  0  0  0  0  0  0  0  0  0  0
  186.4410  178.1880  141.9490 C   0  0  0  0  0  3  0  0  0  0  0  0
  186.8460  177.9150  147.2380 C   0  0  0  0  0  3  0  0  0  0  0  0
  188.1670  177.7750  147.2200 C   0  0  0  0  0  3  0  0  0  0  0  0
  185.0690  177.6640  143.8600 C   0  0  0  0  0  3  0  0  0  0  0  0
  186.1900  177.6680  144.7100 C   0  0  0  0  0  0  0  0  0  0  0  0
  184.7850  177.0970  146.5300 O   0  0  0  0  0  0  0  0  0  0  0  0
  187.5690  178.1840  142.7660 C   0  0  0  0  0  3  0  0  0  0  0  0
  185.9210  177.5080  146.1670 C   0  0  0  0  0  0  0  0  0  0  0  0
  188.9410  174.9150  147.2730 C   0  0  0  0  0  2  0  0  0  0  0  0
  188.5590  175.6310  145.9910 C   0  0  2  0  0  3  0  0  0  0  0  0
  189.7460  174.6610  146.0140 C   0  0  1  0  0  3  0  0  0  0  0  0
  192.1990  175.0350  145.3230 C   0  0  0  0  0  0  0  0  0  0  0  0
  191.0340  175.3390  146.1040 N   0  0  0  0  0  2  0  0  0  0  0  0
  193.2330  175.7310  145.5150 O   0  0  0  0  0  0  0  0  0  0  0  0
  191.8550  174.1880  142.9620 C   0  0  0  0  0  3  0  0  0  0  0  0
  192.7610  171.6950  143.7070 N   0  0  0  0  0  0  0  0  0  0  0  0
  192.6960  172.6840  144.6380 C   0  0  0  0  0  3  0  0  0  0  0  0
  192.2420  173.9660  144.2900 C   0  0  0  0  0  0  0  0  0  0  0  0
  192.3940  171.9070  142.4160 C   0  0  0  0  0  3  0  0  0  0  0  0
  191.9310  173.1620  142.0190 C   0  0  0  0  0  3  0  0  0  0  0  0
  184.0300  177.8950  141.7010 O   0  0  0  0  0  0  0  0  0  0  0  0
  183.9040  178.6590  140.5100 C   0  0  0  0  0  1  0  0  0  0  0  0
  1  9  1  0  0  0  0
  1  3  1  0  0  0  0
  2  7  1  1  0  0  0
  3  2  1  0  0  0  0
  4  8  1  0  0  0  0
  5  4  2  0  0  0  0
  5 11  1  0  0  0  0
  7  6  2  0  0  0  0
  8  9  2  0  0  0  0
  9 12  1  0  0  0  0
 11  1  2  0  0  0  0
 12 10  2  0  0  0  0
 12  6  1  0  0  0  0
 14 15  1  0  0  0  0
 14  2  1  0  0  0  0
 14 13  1  1  0  0  0
 15 17  1  1  0  0  0
 15 13  1  0  0  0  0
 16 18  2  0  0  0  0
 16 17  1  0  0  0  0
 19 22  1  0  0  0  0
 20 21  1  0  0  0  0
 22 21  2  0  0  0  0
 22 16  1  0  0  0  0
 23 20  2  0  0  0  0
 24 23  1  0  0  0  0
 24 19  2  0  0  0  0
 25  4  1  0  0  0  0
 26 25  1  0  0  0  0
M  END
>  <MODEL>
4

>  <REMARK>
 VINA RESULT:      -6.5      1.382      1.607
  Name = 
  4 active torsions:
  status: ('A' for Active; 'I' for Inactive)
    1  A    between atoms: C_2  and  C_13
    2  A    between atoms: C_3  and  C_18
    3  A    between atoms: C_5  and  O_9
    4  A    between atoms: N_17  and  C_22
                            x       y       z     vdW  Elec       q    Type
                         _______ _______ _______ _____ _____    ______ ____

>  <TORSDO>
F 4

$$$$
=
 OpenBabel11042418503D

 26 29  0  0  1  0  0  0  0  0999 V2000
  189.9660  176.9770  145.1620 C   0  0  0  0  0  0  0  0  0  0  0  0
  192.2870  175.9850  145.6720 C   0  0  1  0  0  3  0  0  0  0  0  0
  191.3960  177.0170  145.1640 N   0  0  0  0  0  2  0  0  0  0  0  0
  187.1670  176.8910  144.8650 C   0  0  0  0  0  0  0  0  0  0  0  0
  187.9350  177.7450  144.0670 C   0  0  0  0  0  3  0  0  0  0  0  0
  191.0440  175.5670  147.7830 C   0  0  0  0  0  3  0  0  0  0  0  0
  192.1710  175.8770  147.1510 C   0  0  0  0  0  3  0  0  0  0  0  0
  187.8010  176.1040  145.8270 C   0  0  0  0  0  3  0  0  0  0  0  0
  189.1950  176.1340  146.0110 C   0  0  0  0  0  0  0  0  0  0  0  0
  188.9890  174.4770  147.6910 O   0  0  0  0  0  0  0  0  0  0  0  0
  189.3200  177.7840  144.2190 C   0  0  0  0  0  3  0  0  0  0  0  0
  189.7350  175.3390  147.1500 C   0  0  0  0  0  0  0  0  0  0  0  0
  192.9870  173.5990  145.5580 C   0  0  0  0  0  2  0  0  0  0  0  0
  192.0420  174.6360  144.9820 C   0  0  2  0  0  3  0  0  0  0  0  0
  193.2080  174.0990  144.1440 C   0  0  1  0  0  3  0  0  0  0  0  0
  195.7270  174.6240  144.2610 C   0  0  0  0  0  0  0  0  0  0  0  0
  194.3510  175.0040  144.1120 N   0  0  0  0  0  2  0  0  0  0  0  0
  196.5980  175.5330  144.1920 O   0  0  0  0  0  0  0  0  0  0  0  0
  196.4840  172.7070  145.7310 C   0  0  0  0  0  3  0  0  0  0  0  0
  196.6790  171.0700  143.5240 N   0  0  0  0  0  0  0  0  0  0  0  0
  196.2880  172.3620  143.3610 C   0  0  0  0  0  3  0  0  0  0  0  0
  196.1760  173.2210  144.4650 C   0  0  0  0  0  0  0  0  0  0  0  0
  196.9710  170.5640  144.7510 C   0  0  0  0  0  3  0  0  0  0  0  0
  196.8810  171.3780  145.8810 C   0  0  0  0  0  3  0  0  0  0  0  0
  185.7780  176.8160  144.7330 O   0  0  0  0  0  0  0  0  0  0  0  0
  184.9300  177.9470  144.8760 C   0  0  0  0  0  1  0  0  0  0  0  0
  1  3  1  0  0  0  0
  1  9  1  0  0  0  0
  2  7  1  1  0  0  0
  3  2  1  0  0  0  0
  4  8  1  0  0  0  0
  5 11  1  0  0  0  0
  5  4  2  0  0  0  0
  7  6  2  0  0  0  0
  8  9  2  0  0  0  0
  9 12  1  0  0  0  0
 11  1  2  0  0  0  0
 12 10  2  0  0  0  0
 12  6  1  0  0  0  0
 14 13  1  1  0  0  0
 14  2  1  0  0  0  0
 15 17  1  1  0  0  0
 15 14  1  0  0  0  0
 15 13  1  0  0  0  0
 16 22  1  0  0  0  0
 17 16  1  0  0  0  0
 18 16  2  0  0  0  0
 19 24  1  0  0  0  0
 20 23  1  0  0  0  0
 21 20  2  0  0  0  0
 21 22  1  0  0  0  0
 22 19  2  0  0  0  0
 23 24  2  0  0  0  0
 25  4  1  0  0  0  0
 25 26  1  0  0  0  0
M  END
>  <MODEL>
5

>  <REMARK>
 VINA RESULT:      -6.4      3.796      5.135
  Name = 
  4 active torsions:
  status: ('A' for Active; 'I' for Inactive)
    1  A    between atoms: C_2  and  C_13
    2  A    between atoms: C_3  and  C_18
    3  A    between atoms: C_5  and  O_9
    4  A    between atoms: N_17  and  C_22
                            x       y       z     vdW  Elec       q    Type
                         _______ _______ _______ _____ _____    ______ ____

>  <TORSDO>
F 4

$$$$
=
 OpenBabel11042418503D

 26 29  0  0  1  0  0  0  0  0999 V2000
  190.4210  173.1530  144.6650 C   0  0  0  0  0  0  0  0  0  0  0  0
  190.2960  175.1510  146.2840 C   0  0  1  0  0  3  0  0  0  0  0  0
  189.8570  173.8620  145.7720 N   0  0  0  0  0  2  0  0  0  0  0  0
  191.2740  171.8000  142.3480 C   0  0  0  0  0  0  0  0  0  0  0  0
  190.0060  171.5520  142.8830 C   0  0  0  0  0  3  0  0  0  0  0  0
  192.7300  174.6540  146.2250 C   0  0  0  0  0  3  0  0  0  0  0  0
  191.6480  175.0380  146.8930 C   0  0  0  0  0  3  0  0  0  0  0  0
  192.1210  172.7040  142.9910 C   0  0  0  0  0  3  0  0  0  0  0  0
  191.7300  173.3850  144.1580 C   0  0  0  0  0  0  0  0  0  0  0  0
  193.8090  174.5210  144.1660 O   0  0  0  0  0  0  0  0  0  0  0  0
  189.5890  172.2240  144.0300 C   0  0  0  0  0  3  0  0  0  0  0  0
  192.7670  174.2290  144.8150 C   0  0  0  0  0  0  0  0  0  0  0  0
  190.4780  177.5940  145.8370 C   0  0  0  0  0  2  0  0  0  0  0  0
  190.2500  176.2360  145.1990 C   0  0  2  0  0  3  0  0  0  0  0  0
  189.0990  177.2420  145.3160 C   0  0  1  0  0  3  0  0  0  0  0  0
  186.7930  177.2120  146.4660 C   0  0  0  0  0  0  0  0  0  0  0  0
  188.2060  176.9580  146.4340 N   0  0  0  0  0  2  0  0  0  0  0  0
  186.1620  176.8910  147.5080 O   0  0  0  0  0  0  0  0  0  0  0  0
  185.7050  179.1660  145.2780 C   0  0  0  0  0  3  0  0  0  0  0  0
  184.9750  177.5140  143.1970 N   0  0  0  0  0  0  0  0  0  0  0  0
  185.6500  176.9910  144.2550 C   0  0  0  0  0  3  0  0  0  0  0  0
  186.0380  177.8060  145.3300 C   0  0  0  0  0  0  0  0  0  0  0  0
  184.6550  178.8340  143.1380 C   0  0  0  0  0  3  0  0  0  0  0  0
  185.0140  179.6860  144.1830 C   0  0  0  0  0  3  0  0  0  0  0  0
  191.7220  171.1550  141.1920 O   0  0  0  0  0  0  0  0  0  0  0  0
  190.8850  170.3180  140.4060 C   0  0  0  0  0  1  0  0  0  0  0  0
  1  3  1  0  0  0  0
  2  7  1  6  0  0  0
  3  2  1  0  0  0  0
  4  5  2  0  0  0  0
  4  8  1  0  0  0  0
  5 11  1  0  0  0  0
  6  7  2  0  0  0  0
  8  9  2  0  0  0  0
  9  1  1  0  0  0  0
  9 12  1  0  0  0  0
 10 12  2  0  0  0  0
 11  1  2  0  0  0  0
 12  6  1  0  0  0  0
 14 15  1  0  0  0  0
 14 13  1  1  0  0  0
 14  2  1  0  0  0  0
 15 13  1  0  0  0  0
 15 17  1  1  0  0  0
 16 18  2  0  0  0  0
 17 16  1  0  0  0  0
 19 22  1  0  0  0  0
 20 21  1  0  0  0  0
 21 22  2  0  0  0  0
 22 16  1  0  0  0  0
 23 20  2  0  0  0  0
 23 24  1  0  0  0  0
 24 19  2  0  0  0  0
 25  4  1  0  0  0  0
 26 25  1  0  0  0  0
M  END
>  <MODEL>
6

>  <REMARK>
 VINA RESULT:      -6.3      2.433      6.859
  Name = 
  4 active torsions:
  status: ('A' for Active; 'I' for Inactive)
    1  A    between atoms: C_2  and  C_13
    2  A    between atoms: C_3  and  C_18
    3  A    between atoms: C_5  and  O_9
    4  A    between atoms: N_17  and  C_22
                            x       y       z     vdW  Elec       q    Type
                         _______ _______ _______ _____ _____    ______ ____

>  <TORSDO>
F 4

$$$$
=
 OpenBabel11042418503D

 26 29  0  0  1  0  0  0  0  0999 V2000
  188.1630  176.2030  145.5810 C   0  0  0  0  0  0  0  0  0  0  0  0
  190.1230  175.0770  144.3490 C   0  0  1  0  0  3  0  0  0  0  0  0
  189.2660  175.2940  145.5030 N   0  0  0  0  0  2  0  0  0  0  0  0
  186.1490  178.1380  145.9340 C   0  0  0  0  0  0  0  0  0  0  0  0
  186.7990  177.5870  147.0420 C   0  0  0  0  0  3  0  0  0  0  0  0
  188.2970  174.9740  142.6670 C   0  0  0  0  0  3  0  0  0  0  0  0
  189.3620  174.4310  143.2460 C   0  0  0  0  0  3  0  0  0  0  0  0
  186.4900  177.6970  144.6540 C   0  0  0  0  0  3  0  0  0  0  0  0
  187.4810  176.7220  144.4450 C   0  0  0  0  0  0  0  0  0  0  0  0
  187.1610  176.9270  142.1070 O   0  0  0  0  0  0  0  0  0  0  0  0
  187.7940  176.6290  146.8620 C   0  0  0  0  0  3  0  0  0  0  0  0
  187.6670  176.2500  143.0430 C   0  0  0  0  0  0  0  0  0  0  0  0
  191.8540  176.0580  142.8510 C   0  0  0  0  0  2  0  0  0  0  0  0
  190.7940  176.3780  143.8890 C   0  0  2  0  0  3  0  0  0  0  0  0
  192.2830  176.5140  144.2310 C   0  0  1  0  0  3  0  0  0  0  0  0
  194.0920  174.7790  144.8260 C   0  0  0  0  0  0  0  0  0  0  0  0
  192.7980  175.3800  144.9890 N   0  0  0  0  0  2  0  0  0  0  0  0
  194.3880  173.8100  145.5760 O   0  0  0  0  0  0  0  0  0  0  0  0
  195.8920  176.3890  144.0660 C   0  0  0  0  0  3  0  0  0  0  0  0
  196.2210  174.9480  141.7410 N   0  0  0  0  0  0  0  0  0  0  0  0
  195.2920  174.5440  142.6470 C   0  0  0  0  0  3  0  0  0  0  0  0
  195.1010  175.2540  143.8430 C   0  0  0  0  0  0  0  0  0  0  0  0
  196.9960  176.0440  141.9560 C   0  0  0  0  0  3  0  0  0  0  0  0
  196.8440  176.7880  143.1270 C   0  0  0  0  0  3  0  0  0  0  0  0
  185.1550  179.1100  146.0740 O   0  0  0  0  0  0  0  0  0  0  0  0
  183.9100  179.0390  145.3930 C   0  0  0  0  0  1  0  0  0  0  0  0
  1 11  1  0  0  0  0
  2  7  1  6  0  0  0
  2  3  1  0  0  0  0
  3  1  1  0  0  0  0
  4 25  1  0  0  0  0
  4  5  1  0  0  0  0
  6 12  1  0  0  0  0
  6  7  2  0  0  0  0
  8  4  2  0  0  0  0
  9  8  1  0  0  0  0
  9  1  2  0  0  0  0
 10 12  2  0  0  0  0
 11  5  2  0  0  0  0
 12  9  1  0  0  0  0
 13 15  1  0  0  0  0
 14 13  1  6  0  0  0
 14 15  1  0  0  0  0
 14  2  1  0  0  0  0
 15 17  1  1  0  0  0
 16 17  1  0  0  0  0
 16 18  2  0  0  0  0
 20 23  2  0  0  0  0
 20 21  1  0  0  0  0
 21 22  2  0  0  0  0
 22 19  1  0  0  0  0
 22 16  1  0  0  0  0
 23 24  1  0  0  0  0
 24 19  2  0  0  0  0
 26 25  1  0  0  0  0
M  END
>  <MODEL>
7

>  <REMARK>
 VINA RESULT:      -6.2      2.978      4.692
  Name = 
  4 active torsions:
  status: ('A' for Active; 'I' for Inactive)
    1  A    between atoms: C_2  and  C_13
    2  A    between atoms: C_3  and  C_18
    3  A    between atoms: C_5  and  O_9
    4  A    between atoms: N_17  and  C_22
                            x       y       z     vdW  Elec       q    Type
                         _______ _______ _______ _____ _____    ______ ____

>  <TORSDO>
F 4

$$$$
=
 OpenBabel11042418503D

 26 29  0  0  1  0  0  0  0  0999 V2000
  188.7100  175.4200  144.2300 C   0  0  0  0  0  0  0  0  0  0  0  0
  190.1940  173.7530  142.9460 C   0  0  1  0  0  3  0  0  0  0  0  0
  189.5640  174.2750  144.1490 N   0  0  0  0  0  2  0  0  0  0  0  0
  187.2410  177.8000  144.5530 C   0  0  0  0  0  0  0  0  0  0  0  0
  187.8910  177.2190  145.6460 C   0  0  0  0  0  3  0  0  0  0  0  0
  188.1870  173.9240  141.4900 C   0  0  0  0  0  3  0  0  0  0  0  0
  189.1710  173.2030  142.0170 C   0  0  0  0  0  3  0  0  0  0  0  0
  187.3060  177.1720  143.3080 C   0  0  0  0  0  3  0  0  0  0  0  0
  188.0190  175.9750  143.1170 C   0  0  0  0  0  0  0  0  0  0  0  0
  187.4520  176.0280  140.8180 O   0  0  0  0  0  0  0  0  0  0  0  0
  188.6160  176.0410  145.4810 C   0  0  0  0  0  3  0  0  0  0  0  0
  187.9120  175.3430  141.7720 C   0  0  0  0  0  0  0  0  0  0  0  0
  191.8420  174.1660  141.1250 C   0  0  0  0  0  2  0  0  0  0  0  0
  191.0720  174.8100  142.2630 C   0  0  2  0  0  3  0  0  0  0  0  0
  192.5850  174.5890  142.3760 C   0  0  1  0  0  3  0  0  0  0  0  0
  193.3460  173.4210  144.5430 C   0  0  0  0  0  0  0  0  0  0  0  0
  192.9310  173.4150  143.1680 N   0  0  0  0  0  2  0  0  0  0  0  0
  193.5940  172.3110  145.0860 O   0  0  0  0  0  0  0  0  0  0  0  0
  192.4140  175.1630  146.1270 C   0  0  0  0  0  3  0  0  0  0  0  0
  194.8360  176.4750  146.1350 N   0  0  0  0  0  0  0  0  0  0  0  0
  194.6910  175.3520  145.3820 C   0  0  0  0  0  3  0  0  0  0  0  0
  193.4720  174.6580  145.3590 C   0  0  0  0  0  0  0  0  0  0  0  0
  193.8160  176.9640  146.8870 C   0  0  0  0  0  3  0  0  0  0  0  0
  192.5810  176.3150  146.8950 C   0  0  0  0  0  3  0  0  0  0  0  0
  186.5150  178.9870  144.6770 O   0  0  0  0  0  0  0  0  0  0  0  0
  185.5710  179.4160  143.7040 C   0  0  0  0  0  1  0  0  0  0  0  0
  1 11  1  0  0  0  0
  2  7  1  6  0  0  0
  2  3  1  0  0  0  0
  3  1  1  0  0  0  0
  4 25  1  0  0  0  0
  4  5  1  0  0  0  0
  6 12  1  0  0  0  0
  6  7  2  0  0  0  0
  8  4  2  0  0  0  0
  9  8  1  0  0  0  0
  9  1  2  0  0  0  0
 10 12  2  0  0  0  0
 11  5  2  0  0  0  0
 12  9  1  0  0  0  0
 13 15  1  0  0  0  0
 14 13  1  6  0  0  0
 14 15  1  0  0  0  0
 14  2  1  0  0  0  0
 15 17  1  1  0  0  0
 16 18  2  0  0  0  0
 16 22  1  0  0  0  0
 17 16  1  0  0  0  0
 19 24  1  0  0  0  0
 20 23  1  0  0  0  0
 21 20  2  0  0  0  0
 22 21  1  0  0  0  0
 22 19  2  0  0  0  0
 23 24  2  0  0  0  0
 26 25  1  0  0  0  0
M  END
>  <MODEL>
8

>  <REMARK>
 VINA RESULT:      -6.2      2.496      5.099
  Name = 
  4 active torsions:
  status: ('A' for Active; 'I' for Inactive)
    1  A    between atoms: C_2  and  C_13
    2  A    between atoms: C_3  and  C_18
    3  A    between atoms: C_5  and  O_9
    4  A    between atoms: N_17  and  C_22
                            x       y       z     vdW  Elec       q    Type
                         _______ _______ _______ _____ _____    ______ ____

>  <TORSDO>
F 4

$$$$
=
 OpenBabel11042418503D

 26 29  0  0  1  0  0  0  0  0999 V2000
  189.3480  173.9450  142.7550 C   0  0  0  0  0  0  0  0  0  0  0  0
  189.8450  174.9950  145.0530 C   0  0  1  0  0  3  0  0  0  0  0  0
  189.0300  174.2330  144.1200 N   0  0  0  0  0  2  0  0  0  0  0  0
  189.7430  173.5460  139.9960 C   0  0  0  0  0  0  0  0  0  0  0  0
  188.4600  173.4570  140.5450 C   0  0  0  0  0  3  0  0  0  0  0  0
  192.0070  173.9140  144.4720 C   0  0  0  0  0  3  0  0  0  0  0  0
  191.0960  174.2570  145.3770 C   0  0  0  0  0  3  0  0  0  0  0  0
  190.8270  173.8070  140.8350 C   0  0  0  0  0  3  0  0  0  0  0  0
  190.6650  173.9960  142.2200 C   0  0  0  0  0  0  0  0  0  0  0  0
  192.9930  174.3860  142.4170 O   0  0  0  0  0  0  0  0  0  0  0  0
  188.2700  173.6550  141.9110 C   0  0  0  0  0  3  0  0  0  0  0  0
  191.9120  174.1470  143.0210 C   0  0  0  0  0  0  0  0  0  0  0  0
  190.8480  177.2070  145.6010 C   0  0  0  0  0  2  0  0  0  0  0  0
  190.1380  176.4060  144.5260 C   0  0  2  0  0  3  0  0  0  0  0  0
  189.4140  177.5480  145.2490 C   0  0  1  0  0  3  0  0  0  0  0  0
  187.0860  177.1150  146.2640 C   0  0  0  0  0  0  0  0  0  0  0  0
  188.5210  177.0780  146.3020 N   0  0  0  0  0  2  0  0  0  0  0  0
  186.4600  176.6520  147.2560 O   0  0  0  0  0  0  0  0  0  0  0  0
  185.9050  178.9830  145.0280 C   0  0  0  0  0  3  0  0  0  0  0  0
  185.2670  177.2490  142.9850 N   0  0  0  0  0  0  0  0  0  0  0  0
  185.9630  176.7850  144.0570 C   0  0  0  0  0  3  0  0  0  0  0  0
  186.3060  177.6430  145.1130 C   0  0  0  0  0  0  0  0  0  0  0  0
  184.8810  178.5490  142.8940 C   0  0  0  0  0  3  0  0  0  0  0  0
  185.1930  179.4420  143.9200 C   0  0  0  0  0  3  0  0  0  0  0  0
  189.9700  173.3660  138.6290 O   0  0  0  0  0  0  0  0  0  0  0  0
  188.9370  173.4640  137.6590 C   0  0  0  0  0  1  0  0  0  0  0  0
  1  3  1  0  0  0  0
  2  7  1  6  0  0  0
  3  2  1  0  0  0  0
  4  5  2  0  0  0  0
  4  8  1  0  0  0  0
  5 11  1  0  0  0  0
  6  7  2  0  0  0  0
  8  9  2  0  0  0  0
  9  1  1  0  0  0  0
  9 12  1  0  0  0  0
 10 12  2  0  0  0  0
 11  1  2  0  0  0  0
 12  6  1  0  0  0  0
 14  2  1  0  0  0  0
 14 15  1  0  0  0  0
 14 13  1  1  0  0  0
 15 13  1  0  0  0  0
 15 17  1  1  0  0  0
 16 17  1  0  0  0  0
 16 18  2  0  0  0  0
 19 22  1  0  0  0  0
 20 21  1  0  0  0  0
 21 22  2  0  0  0  0
 22 16  1  0  0  0  0
 23 20  2  0  0  0  0
 23 24  1  0  0  0  0
 24 19  2  0  0  0  0
 25  4  1  0  0  0  0
 26 25  1  0  0  0  0
M  END
>  <MODEL>
9

>  <REMARK>
 VINA RESULT:      -6.2      2.122      6.118
  Name = 
  4 active torsions:
  status: ('A' for Active; 'I' for Inactive)
    1  A    between atoms: C_2  and  C_13
    2  A    between atoms: C_3  and  C_18
    3  A    between atoms: C_5  and  O_9
    4  A    between atoms: N_17  and  C_22
                            x       y       z     vdW  Elec       q    Type
                         _______ _______ _______ _____ _____    ______ ____

>  <TORSDO>
F 4

$$$$
