=
 OpenBabel11042414043D

 31 34  0  0  0  0  0  0  0  0999 V2000
  188.0580  177.1790  142.1110 C   0  0  0  0  0  0  0  0  0  0  0  0
  191.2080  176.5520  144.0910 C   0  0  0  0  0  0  0  0  0  0  0  0
  188.9790  177.2960  144.7840 C   0  0  0  0  0  0  0  0  0  0  0  0
  187.1510  177.5740  143.1050 C   0  0  0  0  0  0  0  0  0  0  0  0
  189.5340  177.5480  146.1720 C   0  0  0  0  0  2  0  0  0  0  0  0
  185.8950  178.9560  145.3880 O   0  0  0  0  0  0  0  0  0  0  0  0
  190.8120  176.8100  146.4660 C   0  0  0  0  0  3  0  0  0  0  0  0
  187.6570  177.1040  140.7750 C   0  0  0  0  0  3  0  0  0  0  0  0
  191.6160  176.3680  145.5000 C   0  0  0  0  0  0  0  0  0  0  0  0
  186.3380  177.4170  140.4130 C   0  0  0  0  0  0  0  0  0  0  0  0
  185.8290  177.8760  142.7390 C   0  0  0  0  0  3  0  0  0  0  0  0
  189.3660  176.8520  142.4640 O   0  0  0  0  0  0  0  0  0  0  0  0
  185.4280  177.8000  141.4020 C   0  0  0  0  0  3  0  0  0  0  0  0
  186.6780  177.9780  145.5350 C   0  0  0  0  0  0  0  0  0  0  0  0
  187.5990  177.6280  144.4810 N   0  0  0  0  0  0  0  0  0  0  0  0
  192.0350  176.4060  143.1520 O   0  0  0  0  0  0  0  0  0  0  0  0
  189.8130  176.9170  143.7900 C   0  0  0  0  0  0  0  0  0  0  0  0
  193.2100  174.3810  145.5980 C   0  0  0  0  0  0  0  0  0  0  0  0
  192.8500  175.7400  145.8710 N   0  0  0  0  0  2  0  0  0  0  0  0
  192.3360  173.5390  145.2540 O   0  0  0  0  0  0  0  0  0  0  0  0
  194.7860  172.4640  145.4990 C   0  0  0  0  0  2  0  0  0  0  0  0
  196.2560  172.0750  145.6170 C   0  0  0  0  0  2  0  0  0  0  0  0
  197.0600  172.8560  144.6770 N   0  0  0  0  0  2  0  0  0  0  0  0
  196.9940  174.2640  145.0670 C   0  0  0  0  0  2  0  0  0  0  0  0
  195.5660  174.7830  144.9170 C   0  0  0  0  0  2  0  0  0  0  0  0
  194.6270  173.9550  145.7940 C   0  0  0  0  0  3  0  0  0  0  0  0
  185.9060  177.3540  139.0850 O   0  0  0  0  0  0  0  0  0  0  0  0
  186.4720  176.4610  138.1360 C   0  0  0  0  0  1  0  0  0  0  0  0
  186.5660  177.1190  146.7590 C   0  0  0  0  0  2  0  0  0  0  0  0
  186.0340  177.8910  147.9590 C   0  0  0  0  0  2  0  0  0  0  0  0
  186.9970  178.8930  148.3820 N   0  0  0  0  0  1  0  0  0  0  0  0
  1 12  1  0  0  0  0
  1  4  1  0  0  0  0
  2  9  1  0  0  0  0
  3  5  1  0  0  0  0
  4 15  1  0  0  0  0
  5  7  1  0  0  0  0
  6 14  2  0  0  0  0
  8  1  2  0  0  0  0
  9 19  1  0  0  0  0
  9  7  2  0  0  0  0
 10  8  1  0  0  0  0
 10 13  2  0  0  0  0
 11  4  2  0  0  0  0
 12 17  1  0  0  0  0
 13 11  1  0  0  0  0
 14 29  1  0  0  0  0
 15  3  1  0  0  0  0
 15 14  1  0  0  0  0
 16  2  2  0  0  0  0
 17  2  1  0  0  0  0
 17  3  2  0  0  0  0
 18 26  1  0  0  0  0
 18 19  1  0  0  0  0
 20 18  2  0  0  0  0
 21 22  1  0  0  0  0
 21 26  1  0  0  0  0
 23 24  1  0  0  0  0
 23 22  1  0  0  0  0
 25 24  1  0  0  0  0
 25 26  1  0  0  0  0
 27 10  1  0  0  0  0
 28 27  1  0  0  0  0
 29 30  1  0  0  0  0
 30 31  1  0  0  0  0
M  END
>  <MODEL>
1

>  <REMARK>
 VINA RESULT:      -7.1      0.000      0.000
  Name = 
  5 active torsions:
  status: ('A' for Active; 'I' for Inactive)
    1  A    between atoms: C_3  and  C_23
    2  A    between atoms: C_3  and  C_24
    3  A    between atoms: O_8  and  C_17
    4  A    between atoms: C_9  and  C_31
    5  A    between atoms: N_11  and  C_15
                            x       y       z     vdW  Elec       q    Type
                         _______ _______ _______ _____ _____    ______ ____

>  <TORSDO>
F 5

$$$$
=
 OpenBabel11042414043D

 31 34  0  0  0  0  0  0  0  0999 V2000
  192.7530  172.2300  144.5490 C   0  0  0  0  0  0  0  0  0  0  0  0
  190.0720  174.8240  145.1220 C   0  0  0  0  0  0  0  0  0  0  0  0
  192.5130  174.9460  145.3050 C   0  0  0  0  0  0  0  0  0  0  0  0
  193.9280  172.9490  144.8150 C   0  0  0  0  0  0  0  0  0  0  0  0
  192.3630  176.3330  145.9000 C   0  0  0  0  0  2  0  0  0  0  0  0
  195.9630  174.6500  146.1050 O   0  0  0  0  0  0  0  0  0  0  0  0
  191.0430  176.9910  145.6000 C   0  0  0  0  0  3  0  0  0  0  0  0
  192.8130  170.8860  144.1720 C   0  0  0  0  0  3  0  0  0  0  0  0
  189.9590  176.2910  145.2660 C   0  0  0  0  0  0  0  0  0  0  0  0
  194.0520  170.2410  144.0480 C   0  0  0  0  0  0  0  0  0  0  0  0
  195.1660  172.3000  144.6780 C   0  0  0  0  0  3  0  0  0  0  0  0
  191.5180  172.8690  144.6560 O   0  0  0  0  0  0  0  0  0  0  0  0
  195.2260  170.9560  144.3000 C   0  0  0  0  0  3  0  0  0  0  0  0
  195.0190  175.1250  145.4160 C   0  0  0  0  0  0  0  0  0  0  0  0
  193.8280  174.3430  145.1890 N   0  0  0  0  0  0  0  0  0  0  0  0
  189.0460  174.0960  145.0790 O   0  0  0  0  0  0  0  0  0  0  0  0
  191.4100  174.2130  145.0340 C   0  0  0  0  0  0  0  0  0  0  0  0
  187.6710  177.1170  146.0280 C   0  0  0  0  0  0  0  0  0  0  0  0
  188.7260  176.9930  145.0680 N   0  0  0  0  0  2  0  0  0  0  0  0
  187.6270  176.3620  147.0390 O   0  0  0  0  0  0  0  0  0  0  0  0
  186.5650  178.5370  144.3170 C   0  0  0  0  0  2  0  0  0  0  0  0
  185.3870  179.4760  144.0740 C   0  0  0  0  0  2  0  0  0  0  0  0
  184.1320  178.8040  144.4090 N   0  0  0  0  0  2  0  0  0  0  0  0
  184.1220  178.5250  145.8450 C   0  0  0  0  0  2  0  0  0  0  0  0
  185.2260  177.5300  146.1930 C   0  0  0  0  0  2  0  0  0  0  0  0
  186.5810  178.1060  145.7830 C   0  0  0  0  0  3  0  0  0  0  0  0
  194.1460  168.8970  143.6750 O   0  0  0  0  0  0  0  0  0  0  0  0
  195.2710  168.3670  142.9890 C   0  0  0  0  0  1  0  0  0  0  0  0
  195.1900  176.4560  144.7470 C   0  0  0  0  0  2  0  0  0  0  0  0
  195.7580  176.3250  143.3400 C   0  0  0  0  0  2  0  0  0  0  0  0
  197.0780  176.9260  143.2700 N   0  0  0  0  0  1  0  0  0  0  0  0
  1 12  1  0  0  0  0
  1  4  1  0  0  0  0
  2  9  1  0  0  0  0
  3  5  1  0  0  0  0
  4 15  1  0  0  0  0
  7  5  1  0  0  0  0
  8  1  2  0  0  0  0
  9  7  2  0  0  0  0
 10  8  1  0  0  0  0
 10 13  2  0  0  0  0
 11  4  2  0  0  0  0
 12 17  1  0  0  0  0
 13 11  1  0  0  0  0
 14  6  2  0  0  0  0
 15  3  1  0  0  0  0
 15 14  1  0  0  0  0
 16  2  2  0  0  0  0
 17  2  1  0  0  0  0
 17  3  2  0  0  0  0
 18 20  2  0  0  0  0
 19  9  1  0  0  0  0
 19 18  1  0  0  0  0
 21 26  1  0  0  0  0
 22 21  1  0  0  0  0
 22 23  1  0  0  0  0
 23 24  1  0  0  0  0
 24 25  1  0  0  0  0
 26 18  1  0  0  0  0
 26 25  1  0  0  0  0
 27 10  1  0  0  0  0
 28 27  1  0  0  0  0
 29 14  1  0  0  0  0
 30 29  1  0  0  0  0
 31 30  1  0  0  0  0
M  END
>  <MODEL>
2

>  <REMARK>
 VINA RESULT:      -7.1      2.918      9.069
  Name = 
  5 active torsions:
  status: ('A' for Active; 'I' for Inactive)
    1  A    between atoms: C_3  and  C_23
    2  A    between atoms: C_3  and  C_24
    3  A    between atoms: O_8  and  C_17
    4  A    between atoms: C_9  and  C_31
    5  A    between atoms: N_11  and  C_15
                            x       y       z     vdW  Elec       q    Type
                         _______ _______ _______ _____ _____    ______ ____

>  <TORSDO>
F 5

$$$$
=
 OpenBabel11042414043D

 31 34  0  0  0  0  0  0  0  0999 V2000
  193.8240  172.8500  145.2740 C   0  0  0  0  0  0  0  0  0  0  0  0
  190.6790  174.9320  145.1500 C   0  0  0  0  0  0  0  0  0  0  0  0
  192.9500  175.3750  144.3440 C   0  0  0  0  0  0  0  0  0  0  0  0
  194.7580  173.6790  144.6340 C   0  0  0  0  0  0  0  0  0  0  0  0
  192.5220  176.7970  144.0320 C   0  0  0  0  0  2  0  0  0  0  0  0
  196.4170  175.9950  143.8720 O   0  0  0  0  0  0  0  0  0  0  0  0
  191.0340  176.9760  143.9030 C   0  0  0  0  0  3  0  0  0  0  0  0
  194.2020  171.5930  145.7530 C   0  0  0  0  0  3  0  0  0  0  0  0
  190.1650  176.1270  144.4480 C   0  0  0  0  0  0  0  0  0  0  0  0
  195.5210  171.1420  145.5920 C   0  0  0  0  0  0  0  0  0  0  0  0
  196.0740  173.2170  144.4670 C   0  0  0  0  0  3  0  0  0  0  0  0
  192.5080  173.2860  145.4230 O   0  0  0  0  0  0  0  0  0  0  0  0
  196.4510  171.9590  144.9450 C   0  0  0  0  0  3  0  0  0  0  0  0
  195.2490  175.8220  143.4290 C   0  0  0  0  0  0  0  0  0  0  0  0
  194.3270  174.9690  144.1390 N   0  0  0  0  0  0  0  0  0  0  0  0
  189.9340  174.2530  145.9060 O   0  0  0  0  0  0  0  0  0  0  0  0
  192.0860  174.5390  144.9620 C   0  0  0  0  0  0  0  0  0  0  0  0
  187.9890  177.1670  145.2760 C   0  0  0  0  0  0  0  0  0  0  0  0
  188.7650  176.4140  144.3370 N   0  0  0  0  0  2  0  0  0  0  0  0
  188.4270  177.3970  146.4370 O   0  0  0  0  0  0  0  0  0  0  0  0
  186.0230  178.5160  145.9690 C   0  0  0  0  0  2  0  0  0  0  0  0
  184.6650  179.0370  145.5070 C   0  0  0  0  0  2  0  0  0  0  0  0
  184.8140  179.7910  144.2630 N   0  0  0  0  0  2  0  0  0  0  0  0
  185.2610  178.8750  143.2140 C   0  0  0  0  0  2  0  0  0  0  0  0
  186.6540  178.3430  143.5410 C   0  0  0  0  0  2  0  0  0  0  0  0
  186.6220  177.6190  144.8870 C   0  0  0  0  0  3  0  0  0  0  0  0
  195.9300  169.8910  146.0620 O   0  0  0  0  0  0  0  0  0  0  0  0
  195.1510  169.1170  146.9640 C   0  0  0  0  0  1  0  0  0  0  0  0
  194.8640  176.4180  142.1070 C   0  0  0  0  0  2  0  0  0  0  0  0
  196.0790  176.7900  141.2670 C   0  0  0  0  0  2  0  0  0  0  0  0
  196.3790  175.7340  140.3160 N   0  0  0  0  0  1  0  0  0  0  0  0
  1 12  1  0  0  0  0
  1  8  1  0  0  0  0
  2 16  2  0  0  0  0
  3 17  2  0  0  0  0
  4  1  2  0  0  0  0
  5  3  1  0  0  0  0
  7  5  1  0  0  0  0
  7  9  2  0  0  0  0
  9  2  1  0  0  0  0
 10  8  2  0  0  0  0
 10 27  1  0  0  0  0
 11  4  1  0  0  0  0
 11 13  2  0  0  0  0
 13 10  1  0  0  0  0
 14  6  2  0  0  0  0
 14 15  1  0  0  0  0
 15  3  1  0  0  0  0
 15  4  1  0  0  0  0
 17  2  1  0  0  0  0
 17 12  1  0  0  0  0
 18 20  2  0  0  0  0
 19  9  1  0  0  0  0
 19 18  1  0  0  0  0
 22 21  1  0  0  0  0
 23 22  1  0  0  0  0
 24 25  1  0  0  0  0
 24 23  1  0  0  0  0
 25 26  1  0  0  0  0
 26 18  1  0  0  0  0
 26 21  1  0  0  0  0
 27 28  1  0  0  0  0
 29 14  1  0  0  0  0
 30 29  1  0  0  0  0
 31 30  1  0  0  0  0
M  END
>  <MODEL>
3

>  <REMARK>
 VINA RESULT:      -7.1      2.799      9.464
  Name = 
  5 active torsions:
  status: ('A' for Active; 'I' for Inactive)
    1  A    between atoms: C_3  and  C_23
    2  A    between atoms: C_3  and  C_24
    3  A    between atoms: O_8  and  C_17
    4  A    between atoms: C_9  and  C_31
    5  A    between atoms: N_11  and  C_15
                            x       y       z     vdW  Elec       q    Type
                         _______ _______ _______ _____ _____    ______ ____

>  <TORSDO>
F 5

$$$$
=
 OpenBabel11042414043D

 31 34  0  0  0  0  0  0  0  0999 V2000
  186.7330  177.5780  142.6440 C   0  0  0  0  0  0  0  0  0  0  0  0
  190.1850  176.4620  143.6830 C   0  0  0  0  0  0  0  0  0  0  0  0
  188.4050  177.5970  144.9270 C   0  0  0  0  0  0  0  0  0  0  0  0
  186.2330  178.1470  143.8240 C   0  0  0  0  0  0  0  0  0  0  0  0
  189.3760  177.7810  146.0770 C   0  0  0  0  0  2  0  0  0  0  0  0
  185.9390  179.7780  146.2640 O   0  0  0  0  0  0  0  0  0  0  0  0
  190.5500  176.8400  146.0460 C   0  0  0  0  0  3  0  0  0  0  0  0
  185.9510  177.5420  141.4870 C   0  0  0  0  0  3  0  0  0  0  0  0
  190.9540  176.2440  144.9260 C   0  0  0  0  0  0  0  0  0  0  0  0
  184.6510  178.0700  141.4950 C   0  0  0  0  0  0  0  0  0  0  0  0
  184.9280  178.6650  143.8300 C   0  0  0  0  0  3  0  0  0  0  0  0
  188.0190  177.0380  142.6320 O   0  0  0  0  0  0  0  0  0  0  0  0
  184.1440  178.6270  142.6720 C   0  0  0  0  0  3  0  0  0  0  0  0
  186.5640  178.6830  146.2510 C   0  0  0  0  0  0  0  0  0  0  0  0
  187.0670  178.1540  145.0070 N   0  0  0  0  0  0  0  0  0  0  0  0
  190.6650  176.1530  142.5600 O   0  0  0  0  0  0  0  0  0  0  0  0
  188.8400  177.0550  143.7670 C   0  0  0  0  0  0  0  0  0  0  0  0
  193.4610  175.8790  145.2130 C   0  0  0  0  0  0  0  0  0  0  0  0
  192.1260  175.4200  144.9740 N   0  0  0  0  0  2  0  0  0  0  0  0
  193.7490  177.1030  145.1160 O   0  0  0  0  0  0  0  0  0  0  0  0
  194.0580  173.4690  145.1570 C   0  0  0  0  0  2  0  0  0  0  0  0
  195.1960  172.4790  145.3870 C   0  0  0  0  0  2  0  0  0  0  0  0
  196.3500  172.8410  144.5640 N   0  0  0  0  0  2  0  0  0  0  0  0
  196.8570  174.1350  145.0180 C   0  0  0  0  0  2  0  0  0  0  0  0
  195.8160  175.2240  144.7670 C   0  0  0  0  0  2  0  0  0  0  0  0
  194.5270  174.8790  145.5120 C   0  0  0  0  0  3  0  0  0  0  0  0
  183.8440  178.0520  140.3540 O   0  0  0  0  0  0  0  0  0  0  0  0
  182.4310  177.9210  140.4150 C   0  0  0  0  0  1  0  0  0  0  0  0
  186.6820  177.8850  147.5160 C   0  0  0  0  0  2  0  0  0  0  0  0
  185.9250  176.5660  147.4380 C   0  0  0  0  0  2  0  0  0  0  0  0
  184.6110  176.7720  146.8560 N   0  0  0  0  0  1  0  0  0  0  0  0
  1  4  1  0  0  0  0
  2 17  1  0  0  0  0
  2  9  1  0  0  0  0
  3 15  1  0  0  0  0
  3  5  1  0  0  0  0
  4 11  2  0  0  0  0
  4 15  1  0  0  0  0
  7  5  1  0  0  0  0
  8 10  1  0  0  0  0
  8  1  2  0  0  0  0
  9 19  1  0  0  0  0
  9  7  2  0  0  0  0
 10 13  2  0  0  0  0
 12  1  1  0  0  0  0
 12 17  1  0  0  0  0
 13 11  1  0  0  0  0
 14  6  2  0  0  0  0
 14 29  1  0  0  0  0
 15 14  1  0  0  0  0
 16  2  2  0  0  0  0
 17  3  2  0  0  0  0
 18 26  1  0  0  0  0
 19 18  1  0  0  0  0
 20 18  2  0  0  0  0
 21 22  1  0  0  0  0
 21 26  1  0  0  0  0
 23 24  1  0  0  0  0
 23 22  1  0  0  0  0
 25 24  1  0  0  0  0
 25 26  1  0  0  0  0
 27 28  1  0  0  0  0
 27 10  1  0  0  0  0
 30 29  1  0  0  0  0
 31 30  1  0  0  0  0
M  END
>  <MODEL>
4

>  <REMARK>
 VINA RESULT:      -7.0      1.534      1.786
  Name = 
  5 active torsions:
  status: ('A' for Active; 'I' for Inactive)
    1  A    between atoms: C_3  and  C_23
    2  A    between atoms: C_3  and  C_24
    3  A    between atoms: O_8  and  C_17
    4  A    between atoms: C_9  and  C_31
    5  A    between atoms: N_11  and  C_15
                            x       y       z     vdW  Elec       q    Type
                         _______ _______ _______ _____ _____    ______ ____

>  <TORSDO>
F 5

$$$$
=
 OpenBabel11042414043D

 31 34  0  0  0  0  0  0  0  0999 V2000
  189.1620  177.3570  146.0190 C   0  0  0  0  0  0  0  0  0  0  0  0
  185.9630  178.3270  144.2680 C   0  0  0  0  0  0  0  0  0  0  0  0
  187.9810  177.2010  143.4530 C   0  0  0  0  0  0  0  0  0  0  0  0
  189.8930  176.7430  144.9910 C   0  0  0  0  0  0  0  0  0  0  0  0
  187.4250  177.3030  142.0450 C   0  0  0  0  0  2  0  0  0  0  0  0
  191.2290  176.1950  142.4200 O   0  0  0  0  0  0  0  0  0  0  0  0
  185.9360  177.5150  141.9870 C   0  0  0  0  0  3  0  0  0  0  0  0
  189.6970  177.4620  147.3050 C   0  0  0  0  0  3  0  0  0  0  0  0
  185.2500  178.0230  143.0100 C   0  0  0  0  0  0  0  0  0  0  0  0
  190.9710  176.9460  147.5860 C   0  0  0  0  0  0  0  0  0  0  0  0
  191.1630  176.2190  145.2800 C   0  0  0  0  0  3  0  0  0  0  0  0
  187.8890  177.8590  145.7520 O   0  0  0  0  0  0  0  0  0  0  0  0
  191.6980  176.3230  146.5680 C   0  0  0  0  0  3  0  0  0  0  0  0
  190.0030  175.9670  142.6090 C   0  0  0  0  0  0  0  0  0  0  0  0
  189.3010  176.6410  143.6750 N   0  0  0  0  0  0  0  0  0  0  0  0
  185.4340  179.0470  145.1560 O   0  0  0  0  0  0  0  0  0  0  0  0
  187.3140  177.7800  144.4770 C   0  0  0  0  0  0  0  0  0  0  0  0
  183.1420  178.2590  141.5950 C   0  0  0  0  0  0  0  0  0  0  0  0
  183.8460  178.2590  142.8410 N   0  0  0  0  0  2  0  0  0  0  0  0
  183.7670  178.3320  140.5010 O   0  0  0  0  0  0  0  0  0  0  0  0
  181.1030  179.4130  142.4180 C   0  0  0  0  0  2  0  0  0  0  0  0
  179.5790  179.4220  142.3380 C   0  0  0  0  0  2  0  0  0  0  0  0
  179.1510  179.5390  140.9450 N   0  0  0  0  0  2  0  0  0  0  0  0
  179.5740  178.3390  140.2250 C   0  0  0  0  0  2  0  0  0  0  0  0
  181.0990  178.2640  140.1810 C   0  0  0  0  0  2  0  0  0  0  0  0
  181.6500  178.2400  141.6060 C   0  0  0  0  0  3  0  0  0  0  0  0
  191.5360  177.0370  148.8610 O   0  0  0  0  0  0  0  0  0  0  0  0
  191.5260  178.2370  149.6210 C   0  0  0  0  0  1  0  0  0  0  0  0
  189.3130  174.9130  141.7950 C   0  0  0  0  0  2  0  0  0  0  0  0
  189.2480  173.5750  142.5200 C   0  0  0  0  0  2  0  0  0  0  0  0
  188.0360  172.8620  142.1570 N   0  0  0  0  0  1  0  0  0  0  0  0
  1  8  1  0  0  0  0
  2 17  1  0  0  0  0
  2 16  2  0  0  0  0
  3 15  1  0  0  0  0
  3 17  2  0  0  0  0
  4 11  1  0  0  0  0
  4  1  2  0  0  0  0
  5  3  1  0  0  0  0
  6 14  2  0  0  0  0
  7  5  1  0  0  0  0
  7  9  2  0  0  0  0
  8 10  2  0  0  0  0
  9  2  1  0  0  0  0
 10 27  1  0  0  0  0
 11 13  2  0  0  0  0
 12  1  1  0  0  0  0
 13 10  1  0  0  0  0
 14 15  1  0  0  0  0
 15  4  1  0  0  0  0
 17 12  1  0  0  0  0
 18 26  1  0  0  0  0
 18 19  1  0  0  0  0
 19  9  1  0  0  0  0
 20 18  2  0  0  0  0
 22 21  1  0  0  0  0
 23 22  1  0  0  0  0
 24 23  1  0  0  0  0
 25 24  1  0  0  0  0
 25 26  1  0  0  0  0
 26 21  1  0  0  0  0
 27 28  1  0  0  0  0
 29 30  1  0  0  0  0
 29 14  1  0  0  0  0
 31 30  1  0  0  0  0
M  END
>  <MODEL>
5

>  <REMARK>
 VINA RESULT:      -6.8      3.410     10.030
  Name = 
  5 active torsions:
  status: ('A' for Active; 'I' for Inactive)
    1  A    between atoms: C_3  and  C_23
    2  A    between atoms: C_3  and  C_24
    3  A    between atoms: O_8  and  C_17
    4  A    between atoms: C_9  and  C_31
    5  A    between atoms: N_11  and  C_15
                            x       y       z     vdW  Elec       q    Type
                         _______ _______ _______ _____ _____    ______ ____

>  <TORSDO>
F 5

$$$$
=
 OpenBabel11042414043D

 31 34  0  0  0  0  0  0  0  0999 V2000
  193.7830  175.0260  141.4000 C   0  0  0  0  0  0  0  0  0  0  0  0
  190.4770  175.1070  143.2180 C   0  0  0  0  0  0  0  0  0  0  0  0
  192.7530  174.6670  144.0110 C   0  0  0  0  0  0  0  0  0  0  0  0
  194.6850  174.7270  142.4310 C   0  0  0  0  0  0  0  0  0  0  0  0
  192.1710  174.2800  145.3570 C   0  0  0  0  0  2  0  0  0  0  0  0
  196.0130  173.4500  144.7340 O   0  0  0  0  0  0  0  0  0  0  0  0
  190.7850  174.8120  145.6020 C   0  0  0  0  0  3  0  0  0  0  0  0
  194.2360  175.2140  140.0920 C   0  0  0  0  0  3  0  0  0  0  0  0
  189.9750  175.1710  144.6070 C   0  0  0  0  0  0  0  0  0  0  0  0
  195.6040  175.1110  139.7960 C   0  0  0  0  0  0  0  0  0  0  0  0
  196.0540  174.6360  142.1300 C   0  0  0  0  0  3  0  0  0  0  0  0
  192.4240  175.1450  141.6890 O   0  0  0  0  0  0  0  0  0  0  0  0
  196.5080  174.8240  140.8220 C   0  0  0  0  0  3  0  0  0  0  0  0
  195.0880  174.2970  144.8680 C   0  0  0  0  0  0  0  0  0  0  0  0
  194.1810  174.5530  143.7760 N   0  0  0  0  0  0  0  0  0  0  0  0
  189.6870  175.1700  142.2390 O   0  0  0  0  0  0  0  0  0  0  0  0
  191.9240  174.9620  142.9850 C   0  0  0  0  0  0  0  0  0  0  0  0
  188.1790  176.9520  144.9280 C   0  0  0  0  0  0  0  0  0  0  0  0
  188.6440  175.5980  144.9280 N   0  0  0  0  0  2  0  0  0  0  0  0
  188.9940  177.9150  144.9220 O   0  0  0  0  0  0  0  0  0  0  0  0
  186.2160  177.0720  146.4440 C   0  0  0  0  0  2  0  0  0  0  0  0
  184.7340  177.4320  146.5110 C   0  0  0  0  0  2  0  0  0  0  0  0
  184.5300  178.8040  146.0460 N   0  0  0  0  0  2  0  0  0  0  0  0
  184.8880  178.8730  144.6300 C   0  0  0  0  0  2  0  0  0  0  0  0
  186.3790  178.5970  144.4520 C   0  0  0  0  0  2  0  0  0  0  0  0
  186.7120  177.2130  145.0060 C   0  0  0  0  0  3  0  0  0  0  0  0
  196.0890  175.2910  138.4970 O   0  0  0  0  0  0  0  0  0  0  0  0
  197.4700  175.2090  138.1760 C   0  0  0  0  0  1  0  0  0  0  0  0
  195.0090  175.1130  146.1250 C   0  0  0  0  0  2  0  0  0  0  0  0
  194.9390  176.6070  145.8390 C   0  0  0  0  0  2  0  0  0  0  0  0
  194.2010  177.2870  146.8880 N   0  0  0  0  0  1  0  0  0  0  0  0
  1 12  1  0  0  0  0
  1  4  1  0  0  0  0
  2  9  1  0  0  0  0
  3  5  1  0  0  0  0
  4 15  1  0  0  0  0
  5  7  1  0  0  0  0
  6 14  2  0  0  0  0
  8  1  2  0  0  0  0
  9 19  1  0  0  0  0
  9  7  2  0  0  0  0
 10  8  1  0  0  0  0
 10 13  2  0  0  0  0
 11  4  2  0  0  0  0
 12 17  1  0  0  0  0
 13 11  1  0  0  0  0
 14 29  1  0  0  0  0
 15  3  1  0  0  0  0
 15 14  1  0  0  0  0
 16  2  2  0  0  0  0
 17  2  1  0  0  0  0
 17  3  2  0  0  0  0
 18 26  1  0  0  0  0
 19 18  1  0  0  0  0
 20 18  2  0  0  0  0
 21 22  1  0  0  0  0
 23 22  1  0  0  0  0
 24 23  1  0  0  0  0
 25 24  1  0  0  0  0
 25 26  1  0  0  0  0
 26 21  1  0  0  0  0
 27 10  1  0  0  0  0
 28 27  1  0  0  0  0
 30 29  1  0  0  0  0
 30 31  1  0  0  0  0
M  END
>  <MODEL>
6

>  <REMARK>
 VINA RESULT:      -6.7      3.019      8.360
  Name = 
  5 active torsions:
  status: ('A' for Active; 'I' for Inactive)
    1  A    between atoms: C_3  and  C_23
    2  A    between atoms: C_3  and  C_24
    3  A    between atoms: O_8  and  C_17
    4  A    between atoms: C_9  and  C_31
    5  A    between atoms: N_11  and  C_15
                            x       y       z     vdW  Elec       q    Type
                         _______ _______ _______ _____ _____    ______ ____

>  <TORSDO>
F 5

$$$$
=
 OpenBabel11042414043D

 31 34  0  0  0  0  0  0  0  0999 V2000
  186.7770  176.5700  142.8990 C   0  0  0  0  0  0  0  0  0  0  0  0
  189.3450  174.3430  141.2590 C   0  0  0  0  0  0  0  0  0  0  0  0
  189.2400  175.3150  143.5060 C   0  0  0  0  0  0  0  0  0  0  0  0
  187.3130  176.7510  144.1830 C   0  0  0  0  0  0  0  0  0  0  0  0
  190.6480  174.8080  143.7520 C   0  0  0  0  0  2  0  0  0  0  0  0
  189.1440  177.3520  146.4160 O   0  0  0  0  0  0  0  0  0  0  0  0
  191.0700  173.6950  142.8300 C   0  0  0  0  0  3  0  0  0  0  0  0
  185.5650  177.1660  142.5460 C   0  0  0  0  0  3  0  0  0  0  0  0
  190.4870  173.4900  141.6500 C   0  0  0  0  0  0  0  0  0  0  0  0
  184.8630  177.9490  143.4760 C   0  0  0  0  0  0  0  0  0  0  0  0
  186.6020  177.5270  145.1130 C   0  0  0  0  0  3  0  0  0  0  0  0
  187.4610  175.7810  141.9740 O   0  0  0  0  0  0  0  0  0  0  0  0
  185.3880  178.1220  144.7600 C   0  0  0  0  0  3  0  0  0  0  0  0
  189.1160  176.2280  145.8450 C   0  0  0  0  0  0  0  0  0  0  0  0
  188.5650  176.1060  144.5180 N   0  0  0  0  0  0  0  0  0  0  0  0
  188.9390  174.3770  140.0670 O   0  0  0  0  0  0  0  0  0  0  0  0
  188.6810  175.1670  142.2840 C   0  0  0  0  0  0  0  0  0  0  0  0
  190.6500  171.0670  140.8760 C   0  0  0  0  0  0  0  0  0  0  0  0
  191.0010  172.4530  140.8050 N   0  0  0  0  0  2  0  0  0  0  0  0
  190.0660  170.6010  141.8930 O   0  0  0  0  0  0  0  0  0  0  0  0
  190.0030  170.1940  138.6430 C   0  0  0  0  0  2  0  0  0  0  0  0
  190.4750  169.3320  137.4760 C   0  0  0  0  0  2  0  0  0  0  0  0
  191.7570  169.8280  136.9730 N   0  0  0  0  0  2  0  0  0  0  0  0
  192.7640  169.6580  138.0190 C   0  0  0  0  0  2  0  0  0  0  0  0
  192.4260  170.5390  139.2200 C   0  0  0  0  0  2  0  0  0  0  0  0
  191.0460  170.1610  139.7580 C   0  0  0  0  0  3  0  0  0  0  0  0
  183.6490  178.5610  143.1520 O   0  0  0  0  0  0  0  0  0  0  0  0
  182.9510  178.2910  141.9450 C   0  0  0  0  0  1  0  0  0  0  0  0
  189.5550  175.0070  146.5980 C   0  0  0  0  0  2  0  0  0  0  0  0
  190.6160  175.3240  147.6430 C   0  0  0  0  0  2  0  0  0  0  0  0
  191.9390  175.2900  147.0450 N   0  0  0  0  0  1  0  0  0  0  0  0
  1  4  1  0  0  0  0
  2  9  1  0  0  0  0
  2 17  1  0  0  0  0
  3  5  1  0  0  0  0
  3 15  1  0  0  0  0
  4 15  1  0  0  0  0
  4 11  2  0  0  0  0
  7  5  1  0  0  0  0
  8  1  2  0  0  0  0
  8 10  1  0  0  0  0
  9  7  2  0  0  0  0
 10 13  2  0  0  0  0
 12 17  1  0  0  0  0
 12  1  1  0  0  0  0
 13 11  1  0  0  0  0
 14  6  2  0  0  0  0
 14 29  1  0  0  0  0
 15 14  1  0  0  0  0
 16  2  2  0  0  0  0
 17  3  2  0  0  0  0
 18 20  2  0  0  0  0
 19 18  1  0  0  0  0
 19  9  1  0  0  0  0
 21 26  1  0  0  0  0
 22 21  1  0  0  0  0
 23 22  1  0  0  0  0
 23 24  1  0  0  0  0
 24 25  1  0  0  0  0
 25 26  1  0  0  0  0
 26 18  1  0  0  0  0
 27 10  1  0  0  0  0
 28 27  1  0  0  0  0
 29 30  1  0  0  0  0
 31 30  1  0  0  0  0
M  END
>  <MODEL>
7

>  <REMARK>
 VINA RESULT:      -6.7      4.431      5.439
  Name = 
  5 active torsions:
  status: ('A' for Active; 'I' for Inactive)
    1  A    between atoms: C_3  and  C_23
    2  A    between atoms: C_3  and  C_24
    3  A    between atoms: O_8  and  C_17
    4  A    between atoms: C_9  and  C_31
    5  A    between atoms: N_11  and  C_15
                            x       y       z     vdW  Elec       q    Type
                         _______ _______ _______ _____ _____    ______ ____

>  <TORSDO>
F 5

$$$$
=
 OpenBabel11042414043D

 31 34  0  0  0  0  0  0  0  0999 V2000
  193.6630  175.3850  142.2580 C   0  0  0  0  0  0  0  0  0  0  0  0
  190.4530  177.0340  143.3640 C   0  0  0  0  0  0  0  0  0  0  0  0
  190.8720  174.9240  142.1900 C   0  0  0  0  0  0  0  0  0  0  0  0
  193.2020  174.2040  141.6570 C   0  0  0  0  0  0  0  0  0  0  0  0
  189.3760  174.7860  141.9810 C   0  0  0  0  0  2  0  0  0  0  0  0
  191.7300  172.2900  139.9640 O   0  0  0  0  0  0  0  0  0  0  0  0
  188.5450  175.6090  142.9270 C   0  0  0  0  0  3  0  0  0  0  0  0
  195.0300  175.6630  142.3200 C   0  0  0  0  0  3  0  0  0  0  0  0
  189.0310  176.6800  143.5540 C   0  0  0  0  0  0  0  0  0  0  0  0
  195.9610  174.7590  141.7870 C   0  0  0  0  0  0  0  0  0  0  0  0
  194.1390  173.2980  141.1340 C   0  0  0  0  0  3  0  0  0  0  0  0
  192.7450  176.2810  142.8040 O   0  0  0  0  0  0  0  0  0  0  0  0
  195.5070  173.5760  141.1970 C   0  0  0  0  0  3  0  0  0  0  0  0
  191.2760  172.7130  141.0620 C   0  0  0  0  0  0  0  0  0  0  0  0
  191.7790  173.9430  141.6240 N   0  0  0  0  0  0  0  0  0  0  0  0
  190.8900  178.1650  143.7030 O   0  0  0  0  0  0  0  0  0  0  0  0
  191.3640  176.0450  142.7620 C   0  0  0  0  0  0  0  0  0  0  0  0
  187.0890  178.2910  143.9160 C   0  0  0  0  0  0  0  0  0  0  0  0
  188.1480  177.4480  144.3810 N   0  0  0  0  0  2  0  0  0  0  0  0
  187.0330  178.6500  142.7080 O   0  0  0  0  0  0  0  0  0  0  0  0
  184.6810  178.3260  144.5220 C   0  0  0  0  0  2  0  0  0  0  0  0
  183.6880  178.7820  145.5870 C   0  0  0  0  0  2  0  0  0  0  0  0
  184.0650  178.2370  146.8910 N   0  0  0  0  0  2  0  0  0  0  0  0
  185.3520  178.8130  147.2810 C   0  0  0  0  0  2  0  0  0  0  0  0
  186.4440  178.3600  146.3150 C   0  0  0  0  0  2  0  0  0  0  0  0
  186.0840  178.7990  144.8960 C   0  0  0  0  0  3  0  0  0  0  0  0
  197.3350  175.0090  141.8300 O   0  0  0  0  0  0  0  0  0  0  0  0
  197.9330  175.8430  142.8130 C   0  0  0  0  0  1  0  0  0  0  0  0
  190.2950  171.8760  141.8290 C   0  0  0  0  0  2  0  0  0  0  0  0
  190.8650  171.3900  143.1540 C   0  0  0  0  0  2  0  0  0  0  0  0
  190.1810  172.0310  144.2630 N   0  0  0  0  0  1  0  0  0  0  0  0
  1  8  1  0  0  0  0
  1 12  1  0  0  0  0
  2  9  1  0  0  0  0
  2 16  2  0  0  0  0
  3 17  2  0  0  0  0
  4  1  2  0  0  0  0
  5  3  1  0  0  0  0
  5  7  1  0  0  0  0
  6 14  2  0  0  0  0
  7  9  2  0  0  0  0
  9 19  1  0  0  0  0
 10 27  1  0  0  0  0
 10  8  2  0  0  0  0
 11 13  2  0  0  0  0
 11  4  1  0  0  0  0
 13 10  1  0  0  0  0
 14 15  1  0  0  0  0
 14 29  1  0  0  0  0
 15  4  1  0  0  0  0
 15  3  1  0  0  0  0
 17 12  1  0  0  0  0
 17  2  1  0  0  0  0
 18 19  1  0  0  0  0
 18 26  1  0  0  0  0
 20 18  2  0  0  0  0
 21 26  1  0  0  0  0
 21 22  1  0  0  0  0
 22 23  1  0  0  0  0
 23 24  1  0  0  0  0
 25 24  1  0  0  0  0
 26 25  1  0  0  0  0
 27 28  1  0  0  0  0
 29 30  1  0  0  0  0
 30 31  1  0  0  0  0
M  END
>  <MODEL>
8

>  <REMARK>
 VINA RESULT:      -6.5      3.257      8.679
  Name = 
  5 active torsions:
  status: ('A' for Active; 'I' for Inactive)
    1  A    between atoms: C_3  and  C_23
    2  A    between atoms: C_3  and  C_24
    3  A    between atoms: O_8  and  C_17
    4  A    between atoms: C_9  and  C_31
    5  A    between atoms: N_11  and  C_15
                            x       y       z     vdW  Elec       q    Type
                         _______ _______ _______ _____ _____    ______ ____

>  <TORSDO>
F 5

$$$$
=
 OpenBabel11042414043D

 31 34  0  0  0  0  0  0  0  0999 V2000
  194.2890  172.8170  145.3160 C   0  0  0  0  0  0  0  0  0  0  0  0
  191.7390  175.5210  145.9700 C   0  0  0  0  0  0  0  0  0  0  0  0
  193.6850  175.4540  144.4830 C   0  0  0  0  0  0  0  0  0  0  0  0
  195.1210  173.4150  144.3580 C   0  0  0  0  0  0  0  0  0  0  0  0
  193.4720  176.9280  144.1970 C   0  0  0  0  0  2  0  0  0  0  0  0
  196.8830  175.3080  142.9400 O   0  0  0  0  0  0  0  0  0  0  0  0
  192.0840  177.4190  144.5060 C   0  0  0  0  0  3  0  0  0  0  0  0
  194.5400  171.5180  145.7630 C   0  0  0  0  0  3  0  0  0  0  0  0
  191.2790  176.7850  145.3580 C   0  0  0  0  0  0  0  0  0  0  0  0
  195.6270  170.7920  145.2520 C   0  0  0  0  0  0  0  0  0  0  0  0
  196.2010  172.6790  143.8420 C   0  0  0  0  0  3  0  0  0  0  0  0
  193.1980  173.5270  145.8180 O   0  0  0  0  0  0  0  0  0  0  0  0
  196.4520  171.3790  144.2880 C   0  0  0  0  0  3  0  0  0  0  0  0
  195.6250  175.3810  142.8850 C   0  0  0  0  0  0  0  0  0  0  0  0
  194.8220  174.7580  143.9080 N   0  0  0  0  0  0  0  0  0  0  0  0
  191.1480  175.0320  146.9690 O   0  0  0  0  0  0  0  0  0  0  0  0
  192.9100  174.8330  145.4010 C   0  0  0  0  0  0  0  0  0  0  0  0
  188.7780  177.0800  144.9590 C   0  0  0  0  0  0  0  0  0  0  0  0
  190.0000  177.3630  145.6490 N   0  0  0  0  0  2  0  0  0  0  0  0
  188.7890  176.5010  143.8380 O   0  0  0  0  0  0  0  0  0  0  0  0
  186.3270  177.2550  144.6020 C   0  0  0  0  0  2  0  0  0  0  0  0
  185.0120  177.6500  145.2690 C   0  0  0  0  0  2  0  0  0  0  0  0
  184.8340  176.8990  146.5110 N   0  0  0  0  0  2  0  0  0  0  0  0
  185.8850  177.2930  147.4480 C   0  0  0  0  0  2  0  0  0  0  0  0
  187.2510  176.8770  146.9100 C   0  0  0  0  0  2  0  0  0  0  0  0
  187.4880  177.5390  145.5530 C   0  0  0  0  0  3  0  0  0  0  0  0
  195.9060  169.4910  145.6800 O   0  0  0  0  0  0  0  0  0  0  0  0
  196.9800  169.1870  146.5590 C   0  0  0  0  0  1  0  0  0  0  0  0
  194.9740  176.0200  141.6950 C   0  0  0  0  0  2  0  0  0  0  0  0
  194.8700  175.0660  140.5130 C   0  0  0  0  0  2  0  0  0  0  0  0
  193.7290  174.1820  140.6760 N   0  0  0  0  0  1  0  0  0  0  0  0
  1  8  1  0  0  0  0
  1 12  1  0  0  0  0
  2 16  2  0  0  0  0
  3 17  2  0  0  0  0
  4  1  2  0  0  0  0
  5  3  1  0  0  0  0
  5  7  1  0  0  0  0
  7  9  2  0  0  0  0
  9 19  1  0  0  0  0
  9  2  1  0  0  0  0
 10 27  1  0  0  0  0
 10  8  2  0  0  0  0
 11 13  2  0  0  0  0
 11  4  1  0  0  0  0
 13 10  1  0  0  0  0
 14  6  2  0  0  0  0
 14 15  1  0  0  0  0
 15  4  1  0  0  0  0
 15  3  1  0  0  0  0
 17 12  1  0  0  0  0
 17  2  1  0  0  0  0
 18 26  1  0  0  0  0
 18 19  1  0  0  0  0
 20 18  2  0  0  0  0
 21 22  1  0  0  0  0
 21 26  1  0  0  0  0
 22 23  1  0  0  0  0
 23 24  1  0  0  0  0
 25 24  1  0  0  0  0
 26 25  1  0  0  0  0
 27 28  1  0  0  0  0
 29 14  1  0  0  0  0
 30 31  1  0  0  0  0
 30 29  1  0  0  0  0
M  END
>  <MODEL>
9

>  <REMARK>
 VINA RESULT:      -6.4      2.698      9.341
  Name = 
  5 active torsions:
  status: ('A' for Active; 'I' for Inactive)
    1  A    between atoms: C_3  and  C_23
    2  A    between atoms: C_3  and  C_24
    3  A    between atoms: O_8  and  C_17
    4  A    between atoms: C_9  and  C_31
    5  A    between atoms: N_11  and  C_15
                            x       y       z     vdW  Elec       q    Type
                         _______ _______ _______ _____ _____    ______ ____

>  <TORSDO>
F 5

$$$$
