=
 OpenBabel11042416083D

 34 37  0  0  1  0  0  0  0  0999 V2000
  190.0120  175.8270  145.0640 C   0  0  2  0  0  3  0  0  0  0  0  0
  189.8080  176.0280  147.2120 N   0  0  0  0  0  2  0  0  0  0  0  0
  190.7260  175.3350  146.3090 C   0  0  2  0  0  3  0  0  0  0  0  0
  189.0900  176.5500  146.0510 C   0  0  2  0  0  3  0  0  0  0  0  0
  186.9530  176.5160  144.8340 N   0  0  0  0  0  2  0  0  0  0  0  0
  187.6240  176.1030  146.0690 C   0  0  2  0  0  3  0  0  0  0  0  0
  185.9890  177.3030  145.1710 C   0  0  0  0  0  0  0  0  0  0  0  0
  185.9180  177.5080  146.5190 C   0  0  0  0  0  0  0  0  0  0  0  0
  186.8620  176.8310  147.1470 C   0  0  0  0  0  2  0  0  0  0  0  0
  184.9470  178.3390  147.0660 C   0  0  0  0  0  3  0  0  0  0  0  0
  185.0910  177.9180  144.2970 C   0  0  0  0  0  0  0  0  0  0  0  0
  184.0630  178.9450  146.2200 N   0  0  0  0  0  0  0  0  0  0  0  0
  184.1110  178.7560  144.8650 C   0  0  0  0  0  3  0  0  0  0  0  0
  184.2300  178.2210  141.9980 C   0  0  0  0  0  1  0  0  0  0  0  0
  185.1800  177.7000  142.9180 O   0  0  0  0  0  0  0  0  0  0  0  0
  194.8780  177.9870  145.4500 O   0  0  0  0  0  0  0  0  0  0  0  0
  194.2400  176.6800  145.0640 S   0  0  0  0  0  0  0  0  0  0  0  0
  192.1550  175.8840  146.4140 C   0  0  1  0  0  3  0  0  0  0  0  0
  194.6600  176.2640  143.6850 O   0  0  0  0  0  0  0  0  0  0  0  0
  194.5850  175.4200  146.2480 C   0  0  0  0  0  2  0  0  0  0  0  0
  193.2340  174.8000  146.5630 C   0  0  0  0  0  2  0  0  0  0  0  0
  192.4820  176.7480  145.2070 C   0  0  0  0  0  2  0  0  0  0  0  0
  189.4050  174.6820  144.2280 C   0  0  0  0  0  2  0  0  0  0  0  0
  190.3070  173.4620  144.0510 C   0  0  0  0  0  2  0  0  0  0  0  0
  189.6190  172.4290  143.1790 C   0  0  0  0  0  2  0  0  0  0  0  0
  190.0310  172.5760  141.8530 O   0  0  0  0  0  0  0  0  0  0  0  0
  188.8530  172.7880  141.1390 C   0  0  0  0  0  2  0  0  0  0  0  0
  188.8500  174.1920  140.5520 C   0  0  1  0  0  3  0  0  0  0  0  0
  189.7660  173.4250  138.3600 C   0  0  0  0  0  1  0  0  0  0  0  0
  188.6060  174.1180  139.0520 C   0  0  0  0  0  2  0  0  0  0  0  0
  187.8270  174.9640  141.1710 O   0  0  0  0  0  0  0  0  0  0  0  0
  186.9940  176.8860  140.2280 O   0  0  0  0  0  0  0  0  0  0  0  0
  188.5880  177.1620  141.8520 O   0  0  0  0  0  1  0  0  0  0  0  0
  187.7800  176.3550  141.0560 C   0  0  0  0  0  0  0  0  0  0  0  0
  1 23  1  1  0  0  0
  1  4  1  0  0  0  0
  1  3  1  0  0  0  0
  3 18  1  0  0  0  0
  3  2  1  1  0  0  0
  4  6  1  0  0  0  0
  4  2  1  1  0  0  0
  5  7  1  0  0  0  0
  5  6  1  0  0  0  0
  6  9  1  1  0  0  0
  7  8  1  0  0  0  0
  8 10  2  0  0  0  0
  8  9  1  0  0  0  0
 11 13  1  0  0  0  0
 11  7  2  0  0  0  0
 12 10  1  0  0  0  0
 13 12  2  0  0  0  0
 14 15  1  0  0  0  0
 15 11  1  0  0  0  0
 17 22  1  0  0  0  0
 17 16  2  0  0  0  0
 17 20  1  0  0  0  0
 18 22  1  6  0  0  0
 18 21  1  0  0  0  0
 19 17  2  0  0  0  0
 20 21  1  0  0  0  0
 24 23  1  0  0  0  0
 25 24  1  0  0  0  0
 26 25  1  0  0  0  0
 27 26  1  0  0  0  0
 28 30  1  6  0  0  0
 28 27  1  0  0  0  0
 28 31  1  0  0  0  0
 29 30  1  0  0  0  0
 32 34  2  0  0  0  0
 34 31  1  0  0  0  0
 34 33  1  0  0  0  0
M  END
>  <MODEL>
1

>  <REMARK>
 VINA RESULT:      -6.5      0.000      0.000
  Name = 
  12 active torsions:
  status: ('A' for Active; 'I' for Inactive)
    1  A    between atoms: C_1  and  C_4
    2  A    between atoms: C_1  and  C_30
    3  A    between atoms: O_5  and  C_10
    4  A    between atoms: O_5  and  C_24
    5  A    between atoms: C_6  and  C_21
    6  A    between atoms: C_10  and  C_30
    7  A    between atoms: C_12  and  C_16
    8  A    between atoms: O_15  and  C_28
    9  A    between atoms: C_17  and  O_19
   10  A    between atoms: C_17  and  C_24
   11  A    between atoms: C_17  and  C_31
   12  A    between atoms: O_19  and  C_32
                            x       y       z     vdW  Elec       q    Type
                         _______ _______ _______ _____ _____    ______ ____

>  <TORSDO>
F 12

$$$$
=
 OpenBabel11042416083D

 34 37  0  0  1  0  0  0  0  0999 V2000
  190.0940  175.8530  144.4450 C   0  0  2  0  0  3  0  0  0  0  0  0
  189.9540  176.7670  146.4050 N   0  0  0  0  0  2  0  0  0  0  0  0
  190.8750  175.8420  145.7450 C   0  0  2  0  0  3  0  0  0  0  0  0
  189.1700  176.8340  145.1730 C   0  0  2  0  0  3  0  0  0  0  0  0
  186.9130  176.6030  144.2230 N   0  0  0  0  0  2  0  0  0  0  0  0
  187.7310  176.3660  145.4160 C   0  0  2  0  0  3  0  0  0  0  0  0
  185.9670  177.4090  144.5660 C   0  0  0  0  0  0  0  0  0  0  0  0
  186.0400  177.7850  145.8770 C   0  0  0  0  0  0  0  0  0  0  0  0
  187.0700  177.2130  146.4720 C   0  0  0  0  0  2  0  0  0  0  0  0
  185.1090  178.6620  146.4210 C   0  0  0  0  0  3  0  0  0  0  0  0
  184.9580  177.8890  143.7300 C   0  0  0  0  0  0  0  0  0  0  0  0
  184.1160  179.1360  145.6130 N   0  0  0  0  0  0  0  0  0  0  0  0
  184.0200  178.7750  144.2960 C   0  0  0  0  0  3  0  0  0  0  0  0
  185.4990  178.2510  141.3440 C   0  0  0  0  0  1  0  0  0  0  0  0
  184.9000  177.4960  142.3880 O   0  0  0  0  0  0  0  0  0  0  0  0
  195.5540  176.6560  144.1780 O   0  0  0  0  0  0  0  0  0  0  0  0
  194.8070  175.9110  145.2500 S   0  0  0  0  0  0  0  0  0  0  0  0
  192.2770  176.4470  145.5860 C   0  0  1  0  0  3  0  0  0  0  0  0
  195.5500  174.6730  145.6600 O   0  0  0  0  0  0  0  0  0  0  0  0
  194.4670  176.9440  146.6370 C   0  0  0  0  0  2  0  0  0  0  0  0
  192.9860  176.7480  146.9150 C   0  0  0  0  0  2  0  0  0  0  0  0
  193.1570  175.5330  144.7500 C   0  0  0  0  0  2  0  0  0  0  0  0
  189.5190  174.4700  144.0790 C   0  0  0  0  0  2  0  0  0  0  0  0
  189.9320  173.3300  145.0090 C   0  0  0  0  0  2  0  0  0  0  0  0
  189.9000  172.0110  144.2620 C   0  0  0  0  0  2  0  0  0  0  0  0
  189.1390  172.1420  143.0980 O   0  0  0  0  0  0  0  0  0  0  0  0
  189.8800  171.4870  142.1160 C   0  0  0  0  0  2  0  0  0  0  0  0
  190.1210  172.4230  140.9410 C   0  0  1  0  0  3  0  0  0  0  0  0
  192.2520  171.1400  140.7390 C   0  0  0  0  0  1  0  0  0  0  0  0
  191.1120  171.7890  139.9770 C   0  0  0  0  0  2  0  0  0  0  0  0
  188.8900  172.6750  140.2740 O   0  0  0  0  0  0  0  0  0  0  0  0
  188.2890  174.1620  138.6290 O   0  0  0  0  0  0  0  0  0  0  0  0
  188.4260  175.0050  140.7560 O   0  0  0  0  0  1  0  0  0  0  0  0
  188.5290  173.9550  139.8470 C   0  0  0  0  0  0  0  0  0  0  0  0
  1 23  1  1  0  0  0
  1  4  1  0  0  0  0
  1  3  1  0  0  0  0
  3  2  1  1  0  0  0
  4  6  1  0  0  0  0
  4  2  1  1  0  0  0
  5  7  1  0  0  0  0
  5  6  1  0  0  0  0
  6  9  1  1  0  0  0
  7  8  1  0  0  0  0
  8 10  2  0  0  0  0
  8  9  1  0  0  0  0
 11 13  1  0  0  0  0
 11  7  2  0  0  0  0
 12 10  1  0  0  0  0
 13 12  2  0  0  0  0
 14 15  1  0  0  0  0
 15 11  1  0  0  0  0
 16 17  2  0  0  0  0
 17 19  2  0  0  0  0
 17 20  1  0  0  0  0
 18 22  1  6  0  0  0
 18  3  1  0  0  0  0
 18 21  1  0  0  0  0
 20 21  1  0  0  0  0
 22 17  1  0  0  0  0
 23 24  1  0  0  0  0
 25 24  1  0  0  0  0
 26 25  1  0  0  0  0
 27 26  1  0  0  0  0
 28 30  1  6  0  0  0
 28 27  1  0  0  0  0
 30 29  1  0  0  0  0
 31 28  1  0  0  0  0
 32 34  2  0  0  0  0
 34 31  1  0  0  0  0
 34 33  1  0  0  0  0
M  END
>  <MODEL>
2

>  <REMARK>
 VINA RESULT:      -6.3      1.418      1.774
  Name = 
  12 active torsions:
  status: ('A' for Active; 'I' for Inactive)
    1  A    between atoms: C_1  and  C_4
    2  A    between atoms: C_1  and  C_30
    3  A    between atoms: O_5  and  C_10
    4  A    between atoms: O_5  and  C_24
    5  A    between atoms: C_6  and  C_21
    6  A    between atoms: C_10  and  C_30
    7  A    between atoms: C_12  and  C_16
    8  A    between atoms: O_15  and  C_28
    9  A    between atoms: C_17  and  O_19
   10  A    between atoms: C_17  and  C_24
   11  A    between atoms: C_17  and  C_31
   12  A    between atoms: O_19  and  C_32
                            x       y       z     vdW  Elec       q    Type
                         _______ _______ _______ _____ _____    ______ ____

>  <TORSDO>
F 12

$$$$
=
 OpenBabel11042416083D

 34 37  0  0  1  0  0  0  0  0999 V2000
  190.1070  175.8210  144.4990 C   0  0  2  0  0  3  0  0  0  0  0  0
  189.9930  176.7020  146.4750 N   0  0  0  0  0  2  0  0  0  0  0  0
  190.9050  175.7890  145.7890 C   0  0  2  0  0  3  0  0  0  0  0  0
  189.1920  176.7890  145.2550 C   0  0  2  0  0  3  0  0  0  0  0  0
  186.9210  176.5830  144.3350 N   0  0  0  0  0  2  0  0  0  0  0  0
  187.7570  176.3170  145.5090 C   0  0  2  0  0  3  0  0  0  0  0  0
  185.9810  177.3810  144.7110 C   0  0  0  0  0  0  0  0  0  0  0  0
  186.0750  177.7260  146.0290 C   0  0  0  0  0  0  0  0  0  0  0  0
  187.1130  177.1390  146.5950 C   0  0  0  0  0  2  0  0  0  0  0  0
  185.1530  178.5910  146.6080 C   0  0  0  0  0  3  0  0  0  0  0  0
  184.9600  177.8810  143.9020 C   0  0  0  0  0  0  0  0  0  0  0  0
  184.1480  179.0850  145.8270 N   0  0  0  0  0  0  0  0  0  0  0  0
  184.0320  178.7550  144.5030 C   0  0  0  0  0  3  0  0  0  0  0  0
  185.5160  178.2660  141.5230 C   0  0  0  0  0  1  0  0  0  0  0  0
  184.8810  177.5200  142.5530 O   0  0  0  0  0  0  0  0  0  0  0  0
  195.5980  176.5700  144.2480 O   0  0  0  0  0  0  0  0  0  0  0  0
  194.8420  175.8650  145.3410 S   0  0  0  0  0  0  0  0  0  0  0  0
  192.3040  176.3970  145.6210 C   0  0  1  0  0  3  0  0  0  0  0  0
  195.5890  174.6520  145.8130 O   0  0  0  0  0  0  0  0  0  0  0  0
  194.4770  176.9550  146.6780 C   0  0  0  0  0  2  0  0  0  0  0  0
  192.9940  176.7600  146.9450 C   0  0  0  0  0  2  0  0  0  0  0  0
  193.2020  175.4540  144.8360 C   0  0  0  0  0  2  0  0  0  0  0  0
  189.5280  174.4440  144.1170 C   0  0  0  0  0  2  0  0  0  0  0  0
  189.9930  173.2810  144.9910 C   0  0  0  0  0  2  0  0  0  0  0  0
  189.6190  171.9610  144.3440 C   0  0  0  0  0  2  0  0  0  0  0  0
  189.2190  172.1760  143.0230 O   0  0  0  0  0  0  0  0  0  0  0  0
  190.0500  171.3530  142.2650 C   0  0  0  0  0  2  0  0  0  0  0  0
  190.1090  171.8600  140.8310 C   0  0  1  0  0  3  0  0  0  0  0  0
  188.3000  172.7260  139.3450 C   0  0  0  0  0  1  0  0  0  0  0  0
  189.0700  172.9540  140.6330 C   0  0  0  0  0  2  0  0  0  0  0  0
  191.4090  172.3730  140.5610 O   0  0  0  0  0  0  0  0  0  0  0  0
  192.9570  172.6290  142.2380 O   0  0  0  0  0  1  0  0  0  0  0  0
  191.8530  174.5270  141.5800 O   0  0  0  0  0  0  0  0  0  0  0  0
  192.0990  173.1600  141.4860 C   0  0  0  0  0  0  0  0  0  0  0  0
  1 23  1  1  0  0  0
  1  4  1  0  0  0  0
  1  3  1  0  0  0  0
  3  2  1  1  0  0  0
  4  6  1  0  0  0  0
  4  2  1  1  0  0  0
  5  7  1  0  0  0  0
  5  6  1  0  0  0  0
  6  9  1  1  0  0  0
  7  8  1  0  0  0  0
  8  9  1  0  0  0  0
  8 10  2  0  0  0  0
 11 13  1  0  0  0  0
 11  7  2  0  0  0  0
 12 10  1  0  0  0  0
 13 12  2  0  0  0  0
 14 15  1  0  0  0  0
 15 11  1  0  0  0  0
 16 17  2  0  0  0  0
 17 19  2  0  0  0  0
 17 20  1  0  0  0  0
 18 22  1  1  0  0  0
 18  3  1  0  0  0  0
 18 21  1  0  0  0  0
 20 21  1  0  0  0  0
 22 17  1  0  0  0  0
 23 24  1  0  0  0  0
 25 24  1  0  0  0  0
 26 25  1  0  0  0  0
 27 26  1  0  0  0  0
 28 30  1  1  0  0  0
 28 27  1  0  0  0  0
 29 30  1  0  0  0  0
 31 28  1  0  0  0  0
 31 34  1  0  0  0  0
 34 33  2  0  0  0  0
 34 32  1  0  0  0  0
M  END
>  <MODEL>
3

>  <REMARK>
 VINA RESULT:      -6.2      1.534      2.293
  Name = 
  12 active torsions:
  status: ('A' for Active; 'I' for Inactive)
    1  A    between atoms: C_1  and  C_4
    2  A    between atoms: C_1  and  C_30
    3  A    between atoms: O_5  and  C_10
    4  A    between atoms: O_5  and  C_24
    5  A    between atoms: C_6  and  C_21
    6  A    between atoms: C_10  and  C_30
    7  A    between atoms: C_12  and  C_16
    8  A    between atoms: O_15  and  C_28
    9  A    between atoms: C_17  and  O_19
   10  A    between atoms: C_17  and  C_24
   11  A    between atoms: C_17  and  C_31
   12  A    between atoms: O_19  and  C_32
                            x       y       z     vdW  Elec       q    Type
                         _______ _______ _______ _____ _____    ______ ____

>  <TORSDO>
F 12

$$$$
=
 OpenBabel11042416083D

 34 37  0  0  1  0  0  0  0  0999 V2000
  190.0480  176.0320  144.7250 C   0  0  2  0  0  3  0  0  0  0  0  0
  189.6640  175.9940  146.8570 N   0  0  0  0  0  2  0  0  0  0  0  0
  190.6670  175.4150  145.9650 C   0  0  2  0  0  3  0  0  0  0  0  0
  189.0330  176.6310  145.7020 C   0  0  2  0  0  3  0  0  0  0  0  0
  186.9660  176.8030  144.3810 N   0  0  0  0  0  2  0  0  0  0  0  0
  187.5800  176.1670  145.5500 C   0  0  2  0  0  3  0  0  0  0  0  0
  185.9650  177.4940  144.8070 C   0  0  0  0  0  0  0  0  0  0  0  0
  185.8170  177.4320  146.1640 C   0  0  0  0  0  0  0  0  0  0  0  0
  186.7430  176.6600  146.7020 C   0  0  0  0  0  2  0  0  0  0  0  0
  184.7960  178.1260  146.8040 C   0  0  0  0  0  3  0  0  0  0  0  0
  185.1000  178.2540  144.0190 C   0  0  0  0  0  0  0  0  0  0  0  0
  183.9430  178.8710  146.0420 N   0  0  0  0  0  0  0  0  0  0  0  0
  184.0690  178.9510  144.6810 C   0  0  0  0  0  3  0  0  0  0  0  0
  184.1880  178.1450  141.7220 C   0  0  0  0  0  1  0  0  0  0  0  0
  185.2680  178.3100  142.6310 O   0  0  0  0  0  0  0  0  0  0  0  0
  194.8950  178.0650  145.6240 O   0  0  0  0  0  0  0  0  0  0  0  0
  194.3120  176.7540  145.1700 S   0  0  0  0  0  0  0  0  0  0  0  0
  192.0710  175.9670  146.2480 C   0  0  1  0  0  3  0  0  0  0  0  0
  194.9060  176.3280  143.8600 O   0  0  0  0  0  0  0  0  0  0  0  0
  194.5030  175.5040  146.3990 C   0  0  0  0  0  2  0  0  0  0  0  0
  193.1230  174.8850  146.5430 C   0  0  0  0  0  2  0  0  0  0  0  0
  192.5510  176.8210  145.0850 C   0  0  0  0  0  2  0  0  0  0  0  0
  189.5360  174.9780  143.7220 C   0  0  0  0  0  2  0  0  0  0  0  0
  189.7240  175.3400  142.2500 C   0  0  0  0  0  2  0  0  0  0  0  0
  188.4190  175.1590  141.4990 C   0  0  0  0  0  2  0  0  0  0  0  0
  188.3660  173.8810  140.9380 O   0  0  0  0  0  0  0  0  0  0  0  0
  189.4930  173.8080  140.1210 C   0  0  0  0  0  2  0  0  0  0  0  0
  189.8940  172.3530  139.9240 C   0  0  1  0  0  3  0  0  0  0  0  0
  189.7300  171.4450  137.6050 C   0  0  0  0  0  1  0  0  0  0  0  0
  190.6070  172.1950  138.5900 C   0  0  0  0  0  2  0  0  0  0  0  0
  190.7550  171.9500  140.9840 O   0  0  0  0  0  0  0  0  0  0  0  0
  189.7020  171.5460  142.9850 O   0  0  0  0  0  1  0  0  0  0  0  0
  190.5830  169.7200  141.9160 O   0  0  0  0  0  0  0  0  0  0  0  0
  190.3280  171.0860  141.9950 C   0  0  0  0  0  0  0  0  0  0  0  0
  1 23  1  6  0  0  0
  1  4  1  0  0  0  0
  1  3  1  0  0  0  0
  3 18  1  0  0  0  0
  3  2  1  1  0  0  0
  4  2  1  1  0  0  0
  5  7  1  0  0  0  0
  5  6  1  0  0  0  0
  6  4  1  0  0  0  0
  6  9  1  1  0  0  0
  7  8  1  0  0  0  0
  8  9  1  0  0  0  0
  8 10  2  0  0  0  0
 11 13  1  0  0  0  0
 11  7  2  0  0  0  0
 12 10  1  0  0  0  0
 13 12  2  0  0  0  0
 14 15  1  0  0  0  0
 15 11  1  0  0  0  0
 17 16  2  0  0  0  0
 17 20  1  0  0  0  0
 18 22  1  6  0  0  0
 18 21  1  0  0  0  0
 19 17  2  0  0  0  0
 20 21  1  0  0  0  0
 22 17  1  0  0  0  0
 24 23  1  0  0  0  0
 25 24  1  0  0  0  0
 26 25  1  0  0  0  0
 27 26  1  0  0  0  0
 28 30  1  6  0  0  0
 28 27  1  0  0  0  0
 28 31  1  0  0  0  0
 29 30  1  0  0  0  0
 31 34  1  0  0  0  0
 33 34  2  0  0  0  0
 34 32  1  0  0  0  0
M  END
>  <MODEL>
4

>  <REMARK>
 VINA RESULT:      -6.2      1.153      2.443
  Name = 
  12 active torsions:
  status: ('A' for Active; 'I' for Inactive)
    1  A    between atoms: C_1  and  C_4
    2  A    between atoms: C_1  and  C_30
    3  A    between atoms: O_5  and  C_10
    4  A    between atoms: O_5  and  C_24
    5  A    between atoms: C_6  and  C_21
    6  A    between atoms: C_10  and  C_30
    7  A    between atoms: C_12  and  C_16
    8  A    between atoms: O_15  and  C_28
    9  A    between atoms: C_17  and  O_19
   10  A    between atoms: C_17  and  C_24
   11  A    between atoms: C_17  and  C_31
   12  A    between atoms: O_19  and  C_32
                            x       y       z     vdW  Elec       q    Type
                         _______ _______ _______ _____ _____    ______ ____

>  <TORSDO>
F 12

$$$$
=
 OpenBabel11042416083D

 34 37  0  0  1  0  0  0  0  0999 V2000
  191.1560  175.5710  144.6910 C   0  0  2  0  0  3  0  0  0  0  0  0
  190.7960  175.6540  142.5560 N   0  0  0  0  0  2  0  0  0  0  0  0
  191.9270  175.3020  143.4130 C   0  0  2  0  0  3  0  0  0  0  0  0
  189.9950  175.9110  143.7510 C   0  0  2  0  0  3  0  0  0  0  0  0
  188.4180  177.5090  144.7550 N   0  0  0  0  0  2  0  0  0  0  0  0
  189.4980  177.3600  143.7750 C   0  0  2  0  0  3  0  0  0  0  0  0
  187.3720  177.8970  144.1100 C   0  0  0  0  0  0  0  0  0  0  0  0
  187.5910  178.0200  142.7680 C   0  0  0  0  0  0  0  0  0  0  0  0
  188.8400  177.7150  142.4670 C   0  0  0  0  0  2  0  0  0  0  0  0
  186.5710  178.4170  141.9100 C   0  0  0  0  0  3  0  0  0  0  0  0
  186.1200  178.1660  144.6670 C   0  0  0  0  0  0  0  0  0  0  0  0
  185.3430  178.6840  142.4440 N   0  0  0  0  0  0  0  0  0  0  0  0
  185.0970  178.5690  143.7860 C   0  0  0  0  0  3  0  0  0  0  0  0
  184.6160  177.8970  146.6110 C   0  0  0  0  0  1  0  0  0  0  0  0
  185.9120  178.0310  146.0430 O   0  0  0  0  0  0  0  0  0  0  0  0
  192.4320  170.6710  141.5930 O   0  0  0  0  0  0  0  0  0  0  0  0
  191.5140  171.4740  142.4740 S   0  0  0  0  0  0  0  0  0  0  0  0
  192.3160  173.8250  143.2690 C   0  0  1  0  0  3  0  0  0  0  0  0
  190.1070  170.9570  142.3950 O   0  0  0  0  0  0  0  0  0  0  0  0
  192.0900  171.5140  144.1400 C   0  0  0  0  0  2  0  0  0  0  0  0
  192.0580  172.9820  144.5280 C   0  0  0  0  0  2  0  0  0  0  0  0
  191.5870  173.1950  142.0930 C   0  0  0  0  0  2  0  0  0  0  0  0
  191.7580  176.7200  145.5250 C   0  0  0  0  0  2  0  0  0  0  0  0
  192.4540  176.2880  146.8150 C   0  0  0  0  0  2  0  0  0  0  0  0
  193.8910  176.7710  146.8170 C   0  0  0  0  0  2  0  0  0  0  0  0
  194.4770  176.5250  145.5740 O   0  0  0  0  0  0  0  0  0  0  0  0
  195.0140  175.2430  145.6840 C   0  0  0  0  0  2  0  0  0  0  0  0
  196.1610  175.0780  144.6980 C   0  0  1  0  0  3  0  0  0  0  0  0
  196.9030  173.1360  146.0800 C   0  0  0  0  0  1  0  0  0  0  0  0
  196.6080  173.6240  144.6740 C   0  0  0  0  0  2  0  0  0  0  0  0
  195.7340  175.4750  143.4000 O   0  0  0  0  0  0  0  0  0  0  0  0
  197.3190  177.1280  143.2270 O   0  0  0  0  0  1  0  0  0  0  0  0
  195.9560  176.8360  141.4070 O   0  0  0  0  0  0  0  0  0  0  0  0
  196.3660  176.5010  142.6950 C   0  0  0  0  0  0  0  0  0  0  0  0
  1 23  1  6  0  0  0
  3  2  1  6  0  0  0
  3  1  1  0  0  0  0
  4  2  1  6  0  0  0
  4  6  1  0  0  0  0
  4  1  1  0  0  0  0
  6  9  1  6  0  0  0
  6  5  1  0  0  0  0
  7 11  1  0  0  0  0
  7  5  1  0  0  0  0
  8  7  2  0  0  0  0
  9  8  1  0  0  0  0
 10 12  2  0  0  0  0
 10  8  1  0  0  0  0
 11 15  1  0  0  0  0
 12 13  1  0  0  0  0
 13 11  2  0  0  0  0
 15 14  1  0  0  0  0
 16 17  2  0  0  0  0
 17 20  1  0  0  0  0
 18 22  1  6  0  0  0
 18  3  1  0  0  0  0
 18 21  1  0  0  0  0
 19 17  2  0  0  0  0
 20 21  1  0  0  0  0
 22 17  1  0  0  0  0
 23 24  1  0  0  0  0
 24 25  1  0  0  0  0
 26 27  1  0  0  0  0
 26 25  1  0  0  0  0
 28 30  1  6  0  0  0
 28 27  1  0  0  0  0
 30 29  1  0  0  0  0
 31 28  1  0  0  0  0
 33 34  2  0  0  0  0
 34 32  1  0  0  0  0
 34 31  1  0  0  0  0
M  END
>  <MODEL>
5

>  <REMARK>
 VINA RESULT:      -6.1      2.886      5.961
  Name = 
  12 active torsions:
  status: ('A' for Active; 'I' for Inactive)
    1  A    between atoms: C_1  and  C_4
    2  A    between atoms: C_1  and  C_30
    3  A    between atoms: O_5  and  C_10
    4  A    between atoms: O_5  and  C_24
    5  A    between atoms: C_6  and  C_21
    6  A    between atoms: C_10  and  C_30
    7  A    between atoms: C_12  and  C_16
    8  A    between atoms: O_15  and  C_28
    9  A    between atoms: C_17  and  O_19
   10  A    between atoms: C_17  and  C_24
   11  A    between atoms: C_17  and  C_31
   12  A    between atoms: O_19  and  C_32
                            x       y       z     vdW  Elec       q    Type
                         _______ _______ _______ _____ _____    ______ ____

>  <TORSDO>
F 12

$$$$
=
 OpenBabel11042416083D

 34 37  0  0  1  0  0  0  0  0999 V2000
  190.3300  175.2530  143.7950 C   0  0  2  0  0  3  0  0  0  0  0  0
  191.0120  173.2090  143.5680 N   0  0  0  0  0  2  0  0  0  0  0  0
  189.7130  173.8750  143.6470 C   0  0  2  0  0  3  0  0  0  0  0  0
  191.6660  174.5110  143.6870 C   0  0  2  0  0  3  0  0  0  0  0  0
  193.7480  175.3920  144.6540 N   0  0  0  0  0  2  0  0  0  0  0  0
  192.5740  174.5560  144.9200 C   0  0  2  0  0  3  0  0  0  0  0  0
  194.7870  174.6400  144.7820 C   0  0  0  0  0  0  0  0  0  0  0  0
  194.4710  173.3480  145.0910 C   0  0  0  0  0  0  0  0  0  0  0  0
  193.1640  173.1960  145.1920 C   0  0  0  0  0  2  0  0  0  0  0  0
  195.4650  172.3890  145.2540 C   0  0  0  0  0  3  0  0  0  0  0  0
  196.1130  175.0430  144.6210 C   0  0  0  0  0  0  0  0  0  0  0  0
  196.7660  172.7730  145.1010 N   0  0  0  0  0  0  0  0  0  0  0  0
  197.1100  174.0610  144.7920 C   0  0  0  0  0  3  0  0  0  0  0  0
  196.8310  176.7680  143.0000 C   0  0  0  0  0  1  0  0  0  0  0  0
  196.4180  176.3700  144.3000 O   0  0  0  0  0  0  0  0  0  0  0  0
  188.1770  172.2900  139.1600 O   0  0  0  0  0  0  0  0  0  0  0  0
  189.0820  173.3230  139.7740 S   0  0  0  0  0  0  0  0  0  0  0  0
  188.9160  173.7330  142.3440 C   0  0  1  0  0  3  0  0  0  0  0  0
  190.2300  173.6400  138.8610 O   0  0  0  0  0  0  0  0  0  0  0  0
  188.1920  174.7790  140.2160 C   0  0  0  0  0  2  0  0  0  0  0  0
  188.6040  175.0670  141.6500 C   0  0  0  0  0  2  0  0  0  0  0  0
  189.6480  172.8250  141.3690 C   0  0  0  0  0  2  0  0  0  0  0  0
  189.9930  175.9210  145.1430 C   0  0  0  0  0  2  0  0  0  0  0  0
  189.3210  175.0080  146.1670 C   0  0  0  0  0  2  0  0  0  0  0  0
  188.1850  175.7430  146.8530 C   0  0  0  0  0  2  0  0  0  0  0  0
  188.4480  177.1150  146.8710 O   0  0  0  0  0  0  0  0  0  0  0  0
  187.2070  177.7090  147.0940 C   0  0  0  0  0  2  0  0  0  0  0  0
  186.2440  177.3250  145.9810 C   0  0  1  0  0  3  0  0  0  0  0  0
  184.1370  178.6630  146.0060 C   0  0  0  0  0  1  0  0  0  0  0  0
  184.8140  177.3960  146.4950 C   0  0  0  0  0  2  0  0  0  0  0  0
  186.4070  178.2150  144.8810 O   0  0  0  0  0  0  0  0  0  0  0  0
  187.7760  178.1420  143.0380 O   0  0  0  0  0  1  0  0  0  0  0  0
  185.8710  176.8710  142.9370 O   0  0  0  0  0  0  0  0  0  0  0  0
  186.7180  177.7560  143.6000 C   0  0  0  0  0  0  0  0  0  0  0  0
  1 23  1  1  0  0  0
  3  2  1  6  0  0  0
  3  1  1  0  0  0  0
  4  2  1  1  0  0  0
  4  1  1  0  0  0  0
  4  6  1  0  0  0  0
  5  7  1  0  0  0  0
  5  6  1  0  0  0  0
  6  9  1  6  0  0  0
  7  8  1  0  0  0  0
  8  9  1  0  0  0  0
  8 10  2  0  0  0  0
 11  7  2  0  0  0  0
 11 13  1  0  0  0  0
 12 10  1  0  0  0  0
 13 12  2  0  0  0  0
 14 15  1  0  0  0  0
 15 11  1  0  0  0  0
 16 17  2  0  0  0  0
 17 20  1  0  0  0  0
 17 22  1  0  0  0  0
 18 22  1  6  0  0  0
 18  3  1  0  0  0  0
 19 17  2  0  0  0  0
 20 21  1  0  0  0  0
 21 18  1  0  0  0  0
 23 24  1  0  0  0  0
 24 25  1  0  0  0  0
 25 26  1  0  0  0  0
 26 27  1  0  0  0  0
 28 30  1  1  0  0  0
 28 27  1  0  0  0  0
 29 30  1  0  0  0  0
 31 28  1  0  0  0  0
 32 34  1  0  0  0  0
 33 34  2  0  0  0  0
 34 31  1  0  0  0  0
M  END
>  <MODEL>
6

>  <REMARK>
 VINA RESULT:      -6.0      3.044      8.037
  Name = 
  12 active torsions:
  status: ('A' for Active; 'I' for Inactive)
    1  A    between atoms: C_1  and  C_4
    2  A    between atoms: C_1  and  C_30
    3  A    between atoms: O_5  and  C_10
    4  A    between atoms: O_5  and  C_24
    5  A    between atoms: C_6  and  C_21
    6  A    between atoms: C_10  and  C_30
    7  A    between atoms: C_12  and  C_16
    8  A    between atoms: O_15  and  C_28
    9  A    between atoms: C_17  and  O_19
   10  A    between atoms: C_17  and  C_24
   11  A    between atoms: C_17  and  C_31
   12  A    between atoms: O_19  and  C_32
                            x       y       z     vdW  Elec       q    Type
                         _______ _______ _______ _____ _____    ______ ____

>  <TORSDO>
F 12

$$$$
=
 OpenBabel11042416083D

 34 37  0  0  1  0  0  0  0  0999 V2000
  190.1570  175.8620  144.4350 C   0  0  2  0  0  3  0  0  0  0  0  0
  190.0780  176.7130  146.4260 N   0  0  0  0  0  2  0  0  0  0  0  0
  190.9850  175.8210  145.7050 C   0  0  2  0  0  3  0  0  0  0  0  0
  189.2480  176.8080  145.2260 C   0  0  2  0  0  3  0  0  0  0  0  0
  186.9370  176.6750  144.3980 N   0  0  0  0  0  2  0  0  0  0  0  0
  187.8250  176.3140  145.5060 C   0  0  2  0  0  3  0  0  0  0  0  0
  186.0170  177.4380  144.8820 C   0  0  0  0  0  0  0  0  0  0  0  0
  186.1720  177.6730  146.2180 C   0  0  0  0  0  0  0  0  0  0  0  0
  187.2340  177.0430  146.6850 C   0  0  0  0  0  2  0  0  0  0  0  0
  185.2800  178.4850  146.9100 C   0  0  0  0  0  3  0  0  0  0  0  0
  184.9600  178.0020  144.1650 C   0  0  0  0  0  0  0  0  0  0  0  0
  184.2420  179.0410  146.2190 N   0  0  0  0  0  0  0  0  0  0  0  0
  184.0630  178.8210  144.8790 C   0  0  0  0  0  3  0  0  0  0  0  0
  183.7500  178.2910  142.0280 C   0  0  0  0  0  1  0  0  0  0  0  0
  184.8190  177.7540  142.7960 O   0  0  0  0  0  0  0  0  0  0  0  0
  195.6260  176.6910  144.0570 O   0  0  0  0  0  0  0  0  0  0  0  0
  194.9080  175.9530  145.1540 S   0  0  0  0  0  0  0  0  0  0  0  0
  192.3720  176.4490  145.5140 C   0  0  1  0  0  3  0  0  0  0  0  0
  195.6800  174.7380  145.5770 O   0  0  0  0  0  0  0  0  0  0  0  0
  194.5670  177.0080  146.5250 C   0  0  0  0  0  2  0  0  0  0  0  0
  193.0940  176.7900  146.8270 C   0  0  0  0  0  2  0  0  0  0  0  0
  193.2590  175.5340  144.6840 C   0  0  0  0  0  2  0  0  0  0  0  0
  189.5850  174.4830  144.0460 C   0  0  0  0  0  2  0  0  0  0  0  0
  189.5820  174.1830  142.5480 C   0  0  0  0  0  2  0  0  0  0  0  0
  188.1750  174.3020  141.9970 C   0  0  0  0  0  2  0  0  0  0  0  0
  188.2110  174.3240  140.6010 O   0  0  0  0  0  0  0  0  0  0  0  0
  188.7530  173.0910  140.2430 C   0  0  0  0  0  2  0  0  0  0  0  0
  189.4900  173.2170  138.9170 C   0  0  1  0  0  3  0  0  0  0  0  0
  189.6920  170.8840  138.0530 C   0  0  0  0  0  1  0  0  0  0  0  0
  190.4210  172.0280  138.7350 C   0  0  0  0  0  2  0  0  0  0  0  0
  188.5470  173.2610  137.8510 O   0  0  0  0  0  0  0  0  0  0  0  0
  188.9880  174.7150  136.1290 O   0  0  0  0  0  0  0  0  0  0  0  0
  187.2700  175.2960  137.5300 O   0  0  0  0  0  1  0  0  0  0  0  0
  188.2920  174.4350  137.1390 C   0  0  0  0  0  0  0  0  0  0  0  0
  1 23  1  1  0  0  0
  1  4  1  0  0  0  0
  1  3  1  0  0  0  0
  3  2  1  1  0  0  0
  4  6  1  0  0  0  0
  4  2  1  1  0  0  0
  5  7  1  0  0  0  0
  5  6  1  0  0  0  0
  6  9  1  1  0  0  0
  7  8  1  0  0  0  0
  8  9  1  0  0  0  0
  8 10  2  0  0  0  0
 11 13  1  0  0  0  0
 11  7  2  0  0  0  0
 12 10  1  0  0  0  0
 13 12  2  0  0  0  0
 14 15  1  0  0  0  0
 15 11  1  0  0  0  0
 16 17  2  0  0  0  0
 17 19  2  0  0  0  0
 17 20  1  0  0  0  0
 18 22  1  1  0  0  0
 18  3  1  0  0  0  0
 18 21  1  0  0  0  0
 20 21  1  0  0  0  0
 22 17  1  0  0  0  0
 24 23  1  0  0  0  0
 25 24  1  0  0  0  0
 26 25  1  0  0  0  0
 27 26  1  0  0  0  0
 28 30  1  6  0  0  0
 28 27  1  0  0  0  0
 29 30  1  0  0  0  0
 31 28  1  0  0  0  0
 32 34  2  0  0  0  0
 34 33  1  0  0  0  0
 34 31  1  0  0  0  0
M  END
>  <MODEL>
7

>  <REMARK>
 VINA RESULT:      -6.0      1.644      2.086
  Name = 
  12 active torsions:
  status: ('A' for Active; 'I' for Inactive)
    1  A    between atoms: C_1  and  C_4
    2  A    between atoms: C_1  and  C_30
    3  A    between atoms: O_5  and  C_10
    4  A    between atoms: O_5  and  C_24
    5  A    between atoms: C_6  and  C_21
    6  A    between atoms: C_10  and  C_30
    7  A    between atoms: C_12  and  C_16
    8  A    between atoms: O_15  and  C_28
    9  A    between atoms: C_17  and  O_19
   10  A    between atoms: C_17  and  C_24
   11  A    between atoms: C_17  and  C_31
   12  A    between atoms: O_19  and  C_32
                            x       y       z     vdW  Elec       q    Type
                         _______ _______ _______ _____ _____    ______ ____

>  <TORSDO>
F 12

$$$$
=
 OpenBabel11042416083D

 34 37  0  0  1  0  0  0  0  0999 V2000
  190.3770  176.0970  144.6120 C   0  0  2  0  0  3  0  0  0  0  0  0
  190.0390  175.8560  146.7390 N   0  0  0  0  0  2  0  0  0  0  0  0
  191.0180  175.3590  145.7720 C   0  0  2  0  0  3  0  0  0  0  0  0
  189.3890  176.6060  145.6660 C   0  0  2  0  0  3  0  0  0  0  0  0
  187.2540  177.0200  144.5170 N   0  0  0  0  0  2  0  0  0  0  0  0
  187.9300  176.1690  145.5010 C   0  0  2  0  0  3  0  0  0  0  0  0
  186.2790  177.6040  145.1250 C   0  0  0  0  0  0  0  0  0  0  0  0
  186.2050  177.2720  146.4470 C   0  0  0  0  0  0  0  0  0  0  0  0
  187.1570  176.4170  146.7710 C   0  0  0  0  0  2  0  0  0  0  0  0
  185.2220  177.8170  147.2660 C   0  0  0  0  0  3  0  0  0  0  0  0
  185.3750  178.4980  144.5500 C   0  0  0  0  0  0  0  0  0  0  0  0
  184.3300  178.6910  146.7140 N   0  0  0  0  0  0  0  0  0  0  0  0
  184.3830  179.0400  145.3910 C   0  0  0  0  0  3  0  0  0  0  0  0
  184.6690  178.2080  142.1980 C   0  0  0  0  0  1  0  0  0  0  0  0
  185.4690  178.8300  143.1940 O   0  0  0  0  0  0  0  0  0  0  0  0
  195.2670  177.9900  145.5850 O   0  0  0  0  0  0  0  0  0  0  0  0
  194.6620  176.7300  145.0290 S   0  0  0  0  0  0  0  0  0  0  0  0
  192.4320  175.8710  146.0760 C   0  0  1  0  0  3  0  0  0  0  0  0
  195.2270  176.4150  143.6750 O   0  0  0  0  0  0  0  0  0  0  0  0
  194.8610  175.3750  146.1390 C   0  0  0  0  0  2  0  0  0  0  0  0
  193.4770  174.7580  146.2550 C   0  0  0  0  0  2  0  0  0  0  0  0
  192.9000  176.8200  144.9840 C   0  0  0  0  0  2  0  0  0  0  0  0
  189.8340  175.1490  143.5240 C   0  0  0  0  0  2  0  0  0  0  0  0
  189.5600  175.8050  142.1710 C   0  0  0  0  0  2  0  0  0  0  0  0
  188.4870  175.0350  141.4270 C   0  0  0  0  0  2  0  0  0  0  0  0
  188.3150  173.7770  142.0090 O   0  0  0  0  0  0  0  0  0  0  0  0
  188.1900  172.9030  140.9300 C   0  0  0  0  0  2  0  0  0  0  0  0
  189.5390  172.7300  140.2480 C   0  0  1  0  0  3  0  0  0  0  0  0
  191.5300  172.3700  141.7110 C   0  0  0  0  0  1  0  0  0  0  0  0
  190.3660  171.7000  141.0040 C   0  0  0  0  0  2  0  0  0  0  0  0
  189.3420  172.3000  138.9060 O   0  0  0  0  0  0  0  0  0  0  0  0
  190.8300  173.7910  137.9910 O   0  0  0  0  0  1  0  0  0  0  0  0
  189.3180  172.8530  136.5460 O   0  0  0  0  0  0  0  0  0  0  0  0
  189.8600  173.0080  137.8190 C   0  0  0  0  0  0  0  0  0  0  0  0
  1 23  1  6  0  0  0
  1  4  1  0  0  0  0
  1  3  1  0  0  0  0
  3 18  1  0  0  0  0
  3  2  1  1  0  0  0
  4  2  1  1  0  0  0
  5  7  1  0  0  0  0
  5  6  1  0  0  0  0
  6  4  1  0  0  0  0
  6  9  1  1  0  0  0
  7  8  1  0  0  0  0
  8  9  1  0  0  0  0
  8 10  2  0  0  0  0
 11  7  2  0  0  0  0
 11 13  1  0  0  0  0
 12 10  1  0  0  0  0
 13 12  2  0  0  0  0
 14 15  1  0  0  0  0
 15 11  1  0  0  0  0
 17 16  2  0  0  0  0
 17 20  1  0  0  0  0
 18 22  1  6  0  0  0
 18 21  1  0  0  0  0
 19 17  2  0  0  0  0
 20 21  1  0  0  0  0
 22 17  1  0  0  0  0
 24 23  1  0  0  0  0
 25 26  1  0  0  0  0
 25 24  1  0  0  0  0
 27 26  1  0  0  0  0
 28 27  1  1  0  0  0
 28 30  1  0  0  0  0
 30 29  1  0  0  0  0
 31 28  1  0  0  0  0
 33 34  2  0  0  0  0
 34 32  1  0  0  0  0
 34 31  1  0  0  0  0
M  END
>  <MODEL>
8

>  <REMARK>
 VINA RESULT:      -6.0      1.563      2.315
  Name = 
  12 active torsions:
  status: ('A' for Active; 'I' for Inactive)
    1  A    between atoms: C_1  and  C_4
    2  A    between atoms: C_1  and  C_30
    3  A    between atoms: O_5  and  C_10
    4  A    between atoms: O_5  and  C_24
    5  A    between atoms: C_6  and  C_21
    6  A    between atoms: C_10  and  C_30
    7  A    between atoms: C_12  and  C_16
    8  A    between atoms: O_15  and  C_28
    9  A    between atoms: C_17  and  O_19
   10  A    between atoms: C_17  and  C_24
   11  A    between atoms: C_17  and  C_31
   12  A    between atoms: O_19  and  C_32
                            x       y       z     vdW  Elec       q    Type
                         _______ _______ _______ _____ _____    ______ ____

>  <TORSDO>
F 12

$$$$
=
 OpenBabel11042416083D

 34 37  0  0  1  0  0  0  0  0999 V2000
  189.1480  173.4690  141.9770 C   0  0  2  0  0  3  0  0  0  0  0  0
  188.6300  174.3020  140.0460 N   0  0  0  0  0  2  0  0  0  0  0  0
  189.6490  173.3810  140.5480 C   0  0  2  0  0  3  0  0  0  0  0  0
  188.0890  174.4120  141.3990 C   0  0  2  0  0  3  0  0  0  0  0  0
  187.3180  176.0140  143.0980 N   0  0  0  0  0  2  0  0  0  0  0  0
  188.1290  175.8640  141.8870 C   0  0  2  0  0  3  0  0  0  0  0  0
  186.3870  176.8650  142.8290 C   0  0  0  0  0  0  0  0  0  0  0  0
  186.4410  177.3200  141.5430 C   0  0  0  0  0  0  0  0  0  0  0  0
  187.4520  176.7740  140.8940 C   0  0  0  0  0  2  0  0  0  0  0  0
  185.5080  178.2360  141.0700 C   0  0  0  0  0  3  0  0  0  0  0  0
  185.3970  177.3010  143.7120 C   0  0  0  0  0  0  0  0  0  0  0  0
  184.5360  178.6710  141.9240 N   0  0  0  0  0  0  0  0  0  0  0  0
  184.4600  178.2300  143.2180 C   0  0  0  0  0  3  0  0  0  0  0  0
  184.7680  177.5570  146.0900 C   0  0  0  0  0  1  0  0  0  0  0  0
  185.3550  176.8210  145.0250 O   0  0  0  0  0  0  0  0  0  0  0  0
  190.2850  168.5050  139.6380 O   0  0  0  0  0  0  0  0  0  0  0  0
  190.7500  169.8450  139.1370 S   0  0  0  0  0  0  0  0  0  0  0  0
  189.4870  171.9730  139.9610 C   0  0  1  0  0  3  0  0  0  0  0  0
  192.1410  169.7560  138.5790 O   0  0  0  0  0  0  0  0  0  0  0  0
  189.6270  170.5190  137.9570 C   0  0  0  0  0  2  0  0  0  0  0  0
  189.3720  171.9400  138.4290 C   0  0  0  0  0  2  0  0  0  0  0  0
  190.6400  171.0820  140.3910 C   0  0  0  0  0  2  0  0  0  0  0  0
  190.1900  174.0710  142.9420 C   0  0  0  0  0  2  0  0  0  0  0  0
  191.6250  174.0870  142.4180 C   0  0  0  0  0  2  0  0  0  0  0  0
  192.5410  174.7490  143.4290 C   0  0  0  0  0  2  0  0  0  0  0  0
  191.8720  174.9040  144.6450 O   0  0  0  0  0  0  0  0  0  0  0  0
  191.9720  176.2650  144.9320 C   0  0  0  0  0  2  0  0  0  0  0  0
  190.6690  176.7610  145.5420 C   0  0  1  0  0  3  0  0  0  0  0  0
  190.7330  177.9050  143.3240 C   0  0  0  0  0  1  0  0  0  0  0  0
  190.1250  177.9160  144.7150 C   0  0  0  0  0  2  0  0  0  0  0  0
  189.7230  175.6980  145.5700 O   0  0  0  0  0  0  0  0  0  0  0  0
  187.8430  176.0790  146.8340 O   0  0  0  0  0  0  0  0  0  0  0  0
  189.3060  174.5090  147.6400 O   0  0  0  0  0  1  0  0  0  0  0  0
  188.9240  175.4500  146.6880 C   0  0  0  0  0  0  0  0  0  0  0  0
  1 23  1  1  0  0  0
  3  2  1  6  0  0  0
  3  1  1  0  0  0  0
  4  2  1  6  0  0  0
  4  6  1  0  0  0  0
  4  1  1  0  0  0  0
  6  9  1  6  0  0  0
  6  5  1  0  0  0  0
  7  5  1  0  0  0  0
  7 11  1  0  0  0  0
  8  7  2  0  0  0  0
  9  8  1  0  0  0  0
 10  8  1  0  0  0  0
 10 12  2  0  0  0  0
 11 15  1  0  0  0  0
 12 13  1  0  0  0  0
 13 11  2  0  0  0  0
 15 14  1  0  0  0  0
 17 16  2  0  0  0  0
 17 22  1  0  0  0  0
 18 21  1  6  0  0  0
 18 22  1  0  0  0  0
 18  3  1  0  0  0  0
 19 17  2  0  0  0  0
 20 21  1  0  0  0  0
 20 17  1  0  0  0  0
 24 23  1  0  0  0  0
 24 25  1  0  0  0  0
 25 26  1  0  0  0  0
 26 27  1  0  0  0  0
 27 28  1  0  0  0  0
 28 30  1  6  0  0  0
 28 31  1  0  0  0  0
 29 30  1  0  0  0  0
 31 34  1  0  0  0  0
 34 32  2  0  0  0  0
 34 33  1  0  0  0  0
M  END
>  <MODEL>
9

>  <REMARK>
 VINA RESULT:      -5.9      3.238      6.183
  Name = 
  12 active torsions:
  status: ('A' for Active; 'I' for Inactive)
    1  A    between atoms: C_1  and  C_4
    2  A    between atoms: C_1  and  C_30
    3  A    between atoms: O_5  and  C_10
    4  A    between atoms: O_5  and  C_24
    5  A    between atoms: C_6  and  C_21
    6  A    between atoms: C_10  and  C_30
    7  A    between atoms: C_12  and  C_16
    8  A    between atoms: O_15  and  C_28
    9  A    between atoms: C_17  and  O_19
   10  A    between atoms: C_17  and  C_24
   11  A    between atoms: C_17  and  C_31
   12  A    between atoms: O_19  and  C_32
                            x       y       z     vdW  Elec       q    Type
                         _______ _______ _______ _____ _____    ______ ____

>  <TORSDO>
F 12

$$$$
