=
 OpenBabel11042414293D

 52 54  0  0  1  0  0  0  0  0999 V2000
  189.5250  177.8450  143.4950 C   0  0  0  0  0  3  0  0  0  0  0  0
  188.9070  176.9490  142.6130 C   0  0  0  0  0  0  0  0  0  0  0  0
  188.9200  174.6800  141.4640 C   0  0  0  0  0  1  0  0  0  0  0  0
  191.3600  176.3050  143.8770 C   0  0  0  0  0  0  0  0  0  0  0  0
  190.7290  177.5280  144.1190 C   0  0  0  0  0  3  0  0  0  0  0  0
  190.7500  175.3850  142.9990 C   0  0  0  0  0  0  0  0  0  0  0  0
  189.5320  175.7010  142.3690 C   0  0  0  0  0  0  0  0  0  0  0  0
  191.3220  174.1750  142.7640 F   0  0  0  0  0  0  0  0  0  0  0  0
  192.6520  176.0250  144.5420 C   0  0  0  0  0  0  0  0  0  0  0  0
  192.9060  174.7470  145.1340 N   0  0  0  0  0  2  0  0  0  0  0  0
  193.5520  176.9090  144.5590 O   0  0  0  0  0  0  0  0  0  0  0  0
  194.1630  174.4270  145.7930 C   0  0  0  0  0  2  0  0  0  0  0  0
  194.4330  171.9600  145.7790 C   0  0  0  0  0  3  0  0  0  0  0  0
  195.6620  173.2360  144.1070 C   0  0  0  0  0  0  0  0  0  0  0  0
  195.8800  170.8140  144.2250 C   0  0  0  0  0  3  0  0  0  0  0  0
  194.7620  173.1900  145.2000 C   0  0  0  0  0  0  0  0  0  0  0  0
  194.9790  170.7650  145.2950 C   0  0  0  0  0  0  0  0  0  0  0  0
  196.2170  172.0350  143.6410 C   0  0  0  0  0  3  0  0  0  0  0  0
  197.0450  175.3780  143.7980 C   0  0  0  0  0  3  0  0  0  0  0  0
  196.0400  174.5030  143.4280 C   0  0  2  0  0  3  0  0  0  0  0  0
  197.0530  176.4440  142.9700 N   0  0  0  0  0  0  0  0  0  0  0  0
  195.4220  175.0800  142.3380 C   0  0  0  0  0  0  0  0  0  0  0  0
  196.0640  176.2710  142.0720 C   0  0  0  0  0  3  0  0  0  0  0  0
  194.3480  174.5380  141.6270 O   0  0  0  0  0  0  0  0  0  0  0  0
  194.0170  174.9590  140.3090 C   0  0  0  0  0  2  0  0  0  0  0  0
  193.6030  173.7290  137.7340 N   0  0  0  0  0  2  0  0  0  0  0  0
  192.6560  173.6580  138.6110 C   0  0  0  0  0  0  0  0  0  0  0  0
  192.7830  174.3160  139.8760 N   0  0  0  0  0  2  0  0  0  0  0  0
  190.8410  172.2090  139.4500 C   0  0  0  0  0  1  0  0  0  0  0  0
  191.3830  172.9680  138.2540 C   0  0  2  0  0  3  0  0  0  0  0  0
  191.6000  172.0830  137.1980 O   0  0  0  0  0  1  0  0  0  0  0  0
  195.0730  169.1940  147.1310 O   0  0  0  0  0  1  0  0  0  0  0  0
  193.7120  168.5860  145.2320 C   0  0  0  0  0  1  0  0  0  0  0  0
  194.6150  169.5110  145.8970 N   0  0  0  0  0  0  0  0  0  0  0  0
  187.6410  177.3590  141.9390 C   0  0  0  0  0  0  0  0  0  0  0  0
  187.6910  177.9260  140.8150 O   0  0  0  0  0  0  0  0  0  0  0  0
  186.3110  177.1470  142.5560 C   0  0  0  0  0  0  0  0  0  0  0  0
  186.0060  176.0310  143.0600 O   0  0  0  0  0  0  0  0  0  0  0  0
  185.3240  178.2740  142.6040 C   0  0  1  0  0  3  0  0  0  0  0  0
  184.3180  178.1090  141.5660 N   0  0  0  0  0  2  0  0  0  0  0  0
  183.1090  178.2420  142.1600 O   0  0  0  0  0  0  0  0  0  0  0  0
  182.2000  178.2830  141.1010 C   0  0  0  0  0  2  0  0  0  0  0  0
  180.8180  178.6030  141.6320 C   0  0  0  0  0  1  0  0  0  0  0  0
  184.6730  178.3220  143.9770 C   0  0  0  0  0  2  0  0  0  0  0  0
  185.7010  178.6560  145.0450 C   0  0  0  0  0  2  0  0  0  0  0  0
  185.6050  177.6750  146.2040 C   0  0  0  0  0  2  0  0  0  0  0  0
  189.7580  176.6250  147.2570 N   0  0  0  0  0  2  0  0  0  0  0  0
  186.9530  177.3630  146.7600 C   0  0  0  0  0  0  0  0  0  0  0  0
  189.4330  174.4120  146.3850 C   0  0  0  0  0  1  0  0  0  0  0  0
  187.4950  178.1710  147.5610 O   0  0  0  0  0  0  0  0  0  0  0  0
  188.9390  175.7670  146.7420 C   0  0  0  0  0  0  0  0  0  0  0  0
  187.5960  176.1340  146.4030 N   0  0  0  0  0  2  0  0  0  0  0  0
  1  5  1  0  0  0  0
  2  1  2  0  0  0  0
  3  7  1  0  0  0  0
  4  5  2  0  0  0  0
  4  9  1  0  0  0  0
  6  4  1  0  0  0  0
  7  2  1  0  0  0  0
  7  6  2  0  0  0  0
  8  6  1  0  0  0  0
  9 11  2  0  0  0  0
  9 10  1  0  0  0  0
 10 12  1  0  0  0  0
 14 16  1  0  0  0  0
 15 17  2  0  0  0  0
 16 13  2  0  0  0  0
 16 12  1  0  0  0  0
 17 13  1  0  0  0  0
 17 34  1  0  0  0  0
 18 14  2  0  0  0  0
 18 15  1  0  0  0  0
 20 19  1  0  0  0  0
 20 14  1  1  0  0  0
 21 19  2  0  0  0  0
 22 20  1  0  0  0  0
 23 22  2  0  0  0  0
 23 21  1  0  0  0  0
 24 22  1  0  0  0  0
 25 24  1  0  0  0  0
 26 27  2  0  0  0  0
 27 28  1  0  0  0  0
 28 25  1  0  0  0  0
 30 27  1  0  0  0  0
 30 29  1  1  0  0  0
 31 30  1  0  0  0  0
 33 34  1  0  0  0  0
 34 32  1  0  0  0  0
 35 37  1  0  0  0  0
 35  2  1  0  0  0  0
 36 35  2  0  0  0  0
 37 39  1  0  0  0  0
 37 38  2  0  0  0  0
 39 44  1  1  0  0  0
 40 41  1  0  0  0  0
 40 39  1  0  0  0  0
 42 43  1  0  0  0  0
 42 41  1  0  0  0  0
 44 45  1  0  0  0  0
 45 46  1  0  0  0  0
 46 48  1  0  0  0  0
 48 50  2  0  0  0  0
 49 51  1  0  0  0  0
 51 47  2  0  0  0  0
 52 51  1  0  0  0  0
 52 48  1  0  0  0  0
M  END
>  <MODEL>
1

>  <REMARK>
 VINA RESULT:      -6.9      0.000      0.000
  Name = 
  19 active torsions:
  status: ('A' for Active; 'I' for Inactive)
    1  A    between atoms: O_1  and  C_20
    2  A    between atoms: O_1  and  C_36
    3  A    between atoms: C_2  and  C_23
    4  A    between atoms: C_2  and  C_25
    5  A    between atoms: C_3  and  C_9
    6  A    between atoms: C_3  and  C_18
    7  A    between atoms: C_5  and  C_12
    8  A    between atoms: O_6  and  N_21
    9  A    between atoms: O_6  and  C_35
   10  A    between atoms: C_9  and  C_23
   11  A    between atoms: C_13  and  C_16
   12  A    between atoms: C_17  and  C_22
   13  A    between atoms: C_17  and  C_25
   14  A    between atoms: N_21  and  C_23
   15  A    between atoms: C_27  and  C_28
   16  A    between atoms: N_31  and  C_43
   17  A    between atoms: C_32  and  C_43
   18  A    between atoms: C_34  and  N_49
   19  A    between atoms: C_36  and  N_37
                            x       y       z     vdW  Elec       q    Type
                         _______ _______ _______ _____ _____    ______ ____

>  <TORSDO>
F 19

$$$$
=
 OpenBabel11042414293D

 52 54  0  0  1  0  0  0  0  0999 V2000
  188.1230  174.9000  140.7540 C   0  0  0  0  0  3  0  0  0  0  0  0
  188.2100  176.1320  141.4160 C   0  0  0  0  0  0  0  0  0  0  0  0
  189.5130  177.6760  142.9620 C   0  0  0  0  0  1  0  0  0  0  0  0
  190.2150  174.1540  141.7300 C   0  0  0  0  0  0  0  0  0  0  0  0
  189.1100  173.9290  140.9050 C   0  0  0  0  0  3  0  0  0  0  0  0
  190.3260  175.3900  142.3980 C   0  0  0  0  0  0  0  0  0  0  0  0
  189.3330  176.3750  142.2460 C   0  0  0  0  0  0  0  0  0  0  0  0
  191.4040  175.6530  143.1840 F   0  0  0  0  0  0  0  0  0  0  0  0
  191.2230  173.0800  141.8790 C   0  0  0  0  0  0  0  0  0  0  0  0
  192.4680  173.1450  141.1760 N   0  0  0  0  0  2  0  0  0  0  0  0
  190.9990  172.1160  142.6610 O   0  0  0  0  0  0  0  0  0  0  0  0
  193.4890  172.1150  141.2980 C   0  0  0  0  0  2  0  0  0  0  0  0
  195.2110  173.8840  141.0350 C   0  0  0  0  0  3  0  0  0  0  0  0
  195.6240  172.1480  142.6950 C   0  0  0  0  0  0  0  0  0  0  0  0
  197.2580  173.9110  142.3110 C   0  0  0  0  0  3  0  0  0  0  0  0
  194.7960  172.7230  141.7000 C   0  0  0  0  0  0  0  0  0  0  0  0
  196.4350  174.4900  141.3380 C   0  0  0  0  0  0  0  0  0  0  0  0
  196.8570  172.7540  142.9780 C   0  0  0  0  0  3  0  0  0  0  0  0
  195.7960  169.6710  143.3480 C   0  0  0  0  0  3  0  0  0  0  0  0
  195.2380  170.9310  143.4560 C   0  0  0  0  0  0  0  0  0  0  0  0
  195.1490  168.8110  144.1640 N   0  0  0  0  0  2  0  0  0  0  0  0
  194.2120  170.8110  144.3700 C   0  0  0  0  0  0  0  0  0  0  0  0
  194.1780  169.5000  144.7950 C   0  0  0  0  0  3  0  0  0  0  0  0
  193.3730  171.8450  144.7950 O   0  0  0  0  0  0  0  0  0  0  0  0
  193.7280  172.7270  145.8540 C   0  0  0  0  0  2  0  0  0  0  0  0
  192.7650  175.2750  146.7980 N   0  0  0  0  0  2  0  0  0  0  0  0
  193.6620  175.2620  145.8660 C   0  0  0  0  0  0  0  0  0  0  0  0
  194.1170  174.0230  145.3120 N   0  0  0  0  0  2  0  0  0  0  0  0
  195.3090  176.3150  144.3570 C   0  0  0  0  0  1  0  0  0  0  0  0
  194.1450  176.5540  145.3000 C   0  0  2  0  0  3  0  0  0  0  0  0
  194.5450  177.4060  146.3300 O   0  0  0  0  0  1  0  0  0  0  0  0
  196.3310  176.8870  141.0340 O   0  0  0  0  0  1  0  0  0  0  0  0
  197.8150  175.6580  139.5810 C   0  0  0  0  0  1  0  0  0  0  0  0
  196.8340  175.6890  140.6520 N   0  0  0  0  0  0  0  0  0  0  0  0
  187.1030  177.1180  141.2530 C   0  0  0  0  0  0  0  0  0  0  0  0
  187.0870  177.8720  140.2430 O   0  0  0  0  0  0  0  0  0  0  0  0
  186.0220  177.2670  142.2540 C   0  0  0  0  0  0  0  0  0  0  0  0
  185.7930  176.3540  143.0950 O   0  0  0  0  0  0  0  0  0  0  0  0
  185.2040  178.5220  142.2850 C   0  0  1  0  0  3  0  0  0  0  0  0
  183.7990  178.2170  142.0630 N   0  0  0  0  0  2  0  0  0  0  0  0
  183.5910  178.2540  140.7260 O   0  0  0  0  0  0  0  0  0  0  0  0
  182.2310  177.9770  140.5740 C   0  0  0  0  0  2  0  0  0  0  0  0
  181.4560  178.6120  141.7090 C   0  0  0  0  0  1  0  0  0  0  0  0
  185.3940  179.2200  143.6230 C   0  0  0  0  0  2  0  0  0  0  0  0
  184.2470  178.8900  144.5650 C   0  0  0  0  0  2  0  0  0  0  0  0
  184.7300  178.8660  146.0070 C   0  0  0  0  0  2  0  0  0  0  0  0
  187.7160  175.8360  147.1730 N   0  0  0  0  0  2  0  0  0  0  0  0
  185.6540  177.7210  146.2480 C   0  0  0  0  0  0  0  0  0  0  0  0
  189.4910  177.3580  146.6310 C   0  0  0  0  0  1  0  0  0  0  0  0
  185.1850  176.5570  146.3500 O   0  0  0  0  0  0  0  0  0  0  0  0
  188.0530  176.9880  146.6930 C   0  0  0  0  0  0  0  0  0  0  0  0
  187.0650  177.9580  146.3260 N   0  0  0  0  0  2  0  0  0  0  0  0
  1  5  2  0  0  0  0
  1  2  1  0  0  0  0
  2  7  2  0  0  0  0
  4  9  1  0  0  0  0
  4  6  2  0  0  0  0
  5  4  1  0  0  0  0
  6  8  1  0  0  0  0
  7  6  1  0  0  0  0
  7  3  1  0  0  0  0
  9 11  2  0  0  0  0
 10 12  1  0  0  0  0
 10  9  1  0  0  0  0
 12 16  1  0  0  0  0
 13 17  2  0  0  0  0
 13 16  1  0  0  0  0
 14 18  1  0  0  0  0
 14 20  1  0  0  0  0
 15 18  2  0  0  0  0
 16 14  2  0  0  0  0
 17 15  1  0  0  0  0
 19 20  2  0  0  0  0
 19 21  1  0  0  0  0
 20 22  1  0  0  0  0
 21 23  1  0  0  0  0
 22 24  1  0  0  0  0
 22 23  2  0  0  0  0
 24 25  1  0  0  0  0
 27 26  2  0  0  0  0
 28 25  1  0  0  0  0
 28 27  1  0  0  0  0
 30 29  1  6  0  0  0
 30 27  1  0  0  0  0
 30 31  1  0  0  0  0
 33 34  1  0  0  0  0
 34 32  1  0  0  0  0
 34 17  1  0  0  0  0
 35  2  1  0  0  0  0
 35 37  1  0  0  0  0
 36 35  2  0  0  0  0
 37 39  1  0  0  0  0
 37 38  2  0  0  0  0
 39 44  1  1  0  0  0
 40 39  1  0  0  0  0
 41 40  1  0  0  0  0
 42 41  1  0  0  0  0
 42 43  1  0  0  0  0
 44 45  1  0  0  0  0
 45 46  1  0  0  0  0
 46 48  1  0  0  0  0
 48 52  1  0  0  0  0
 48 50  2  0  0  0  0
 49 51  1  0  0  0  0
 51 47  2  0  0  0  0
 52 51  1  0  0  0  0
M  END
>  <MODEL>
2

>  <REMARK>
 VINA RESULT:      -6.6      1.949      4.880
  Name = 
  19 active torsions:
  status: ('A' for Active; 'I' for Inactive)
    1  A    between atoms: O_1  and  C_20
    2  A    between atoms: O_1  and  C_36
    3  A    between atoms: C_2  and  C_23
    4  A    between atoms: C_2  and  C_25
    5  A    between atoms: C_3  and  C_9
    6  A    between atoms: C_3  and  C_18
    7  A    between atoms: C_5  and  C_12
    8  A    between atoms: O_6  and  N_21
    9  A    between atoms: O_6  and  C_35
   10  A    between atoms: C_9  and  C_23
   11  A    between atoms: C_13  and  C_16
   12  A    between atoms: C_17  and  C_22
   13  A    between atoms: C_17  and  C_25
   14  A    between atoms: N_21  and  C_23
   15  A    between atoms: C_27  and  C_28
   16  A    between atoms: N_31  and  C_43
   17  A    between atoms: C_32  and  C_43
   18  A    between atoms: C_34  and  N_49
   19  A    between atoms: C_36  and  N_37
                            x       y       z     vdW  Elec       q    Type
                         _______ _______ _______ _____ _____    ______ ____

>  <TORSDO>
F 19

$$$$
=
 OpenBabel11042414293D

 52 54  0  0  1  0  0  0  0  0999 V2000
  189.8590  177.8470  143.6640 C   0  0  0  0  0  3  0  0  0  0  0  0
  189.2500  176.9610  142.7660 C   0  0  0  0  0  0  0  0  0  0  0  0
  189.3020  174.7260  141.5530 C   0  0  0  0  0  1  0  0  0  0  0  0
  191.7380  176.3450  143.9740 C   0  0  0  0  0  0  0  0  0  0  0  0
  191.0800  177.5430  144.2610 C   0  0  0  0  0  3  0  0  0  0  0  0
  191.1380  175.4350  143.0800 C   0  0  0  0  0  0  0  0  0  0  0  0
  189.9030  175.7370  142.4770 C   0  0  0  0  0  0  0  0  0  0  0  0
  191.7370  174.2460  142.8020 F   0  0  0  0  0  0  0  0  0  0  0  0
  193.0470  176.0790  144.6120 C   0  0  0  0  0  0  0  0  0  0  0  0
  193.3830  174.7650  145.0690 N   0  0  0  0  0  2  0  0  0  0  0  0
  193.8890  177.0110  144.7230 O   0  0  0  0  0  0  0  0  0  0  0  0
  194.6600  174.4580  145.6970 C   0  0  0  0  0  2  0  0  0  0  0  0
  195.2070  172.0410  145.5690 C   0  0  0  0  0  3  0  0  0  0  0  0
  196.0730  173.4850  143.8090 C   0  0  0  0  0  0  0  0  0  0  0  0
  196.5800  171.1040  143.8200 C   0  0  0  0  0  3  0  0  0  0  0  0
  195.3220  173.3130  144.9970 C   0  0  0  0  0  0  0  0  0  0  0  0
  195.8250  170.9280  144.9850 C   0  0  0  0  0  0  0  0  0  0  0  0
  196.7030  172.3680  143.2420 C   0  0  0  0  0  3  0  0  0  0  0  0
  197.0810  175.8250  143.4820 C   0  0  0  0  0  3  0  0  0  0  0  0
  196.2190  174.8010  143.1330 C   0  0  2  0  0  3  0  0  0  0  0  0
  196.8910  176.8830  142.6660 N   0  0  0  0  0  0  0  0  0  0  0  0
  195.4810  175.2770  142.0690 C   0  0  0  0  0  0  0  0  0  0  0  0
  195.9140  176.5580  141.7970 C   0  0  0  0  0  3  0  0  0  0  0  0
  194.4880  174.5730  141.3850 O   0  0  0  0  0  0  0  0  0  0  0  0
  194.7850  173.6770  140.3200 C   0  0  0  0  0  2  0  0  0  0  0  0
  196.7020  173.0900  138.2490 N   0  0  0  0  0  2  0  0  0  0  0  0
  195.8470  174.0380  138.0460 C   0  0  0  0  0  0  0  0  0  0  0  0
  194.9230  174.4170  139.0720 N   0  0  0  0  0  2  0  0  0  0  0  0
  197.1350  175.6800  136.7260 C   0  0  0  0  0  1  0  0  0  0  0  0
  195.8970  174.8040  136.7670 C   0  0  2  0  0  3  0  0  0  0  0  0
  194.7580  175.5980  136.6420 O   0  0  0  0  0  1  0  0  0  0  0  0
  196.7760  168.9530  146.0060 O   0  0  0  0  0  1  0  0  0  0  0  0
  194.3730  169.0350  145.8000 C   0  0  0  0  0  1  0  0  0  0  0  0
  195.6820  169.6290  145.5840 N   0  0  0  0  0  0  0  0  0  0  0  0
  187.9630  177.3570  142.1230 C   0  0  0  0  0  0  0  0  0  0  0  0
  187.9830  178.0500  141.0710 O   0  0  0  0  0  0  0  0  0  0  0  0
  186.6470  176.9860  142.6920 C   0  0  0  0  0  0  0  0  0  0  0  0
  186.3100  175.7750  142.7980 O   0  0  0  0  0  0  0  0  0  0  0  0
  185.7130  178.0570  143.1670 C   0  0  1  0  0  3  0  0  0  0  0  0
  184.4740  178.0220  142.4050 N   0  0  0  0  0  2  0  0  0  0  0  0
  184.7370  178.5640  141.1930 O   0  0  0  0  0  0  0  0  0  0  0  0
  183.6910  178.1270  140.3780 C   0  0  0  0  0  2  0  0  0  0  0  0
  182.3860  178.2120  141.1410 C   0  0  0  0  0  1  0  0  0  0  0  0
  185.4340  177.8670  144.6500 C   0  0  0  0  0  2  0  0  0  0  0  0
  186.4560  178.6170  145.4870 C   0  0  0  0  0  2  0  0  0  0  0  0
  186.7420  177.8680  146.7800 C   0  0  0  0  0  2  0  0  0  0  0  0
  190.1400  175.0590  146.9120 N   0  0  0  0  0  2  0  0  0  0  0  0
  187.8770  176.9160  146.6120 C   0  0  0  0  0  0  0  0  0  0  0  0
  191.4900  176.7230  147.9950 C   0  0  0  0  0  1  0  0  0  0  0  0
  187.7430  175.9180  145.8550 O   0  0  0  0  0  0  0  0  0  0  0  0
  190.2350  176.2760  147.3360 C   0  0  0  0  0  0  0  0  0  0  0  0
  189.1150  177.1680  147.2880 N   0  0  0  0  0  2  0  0  0  0  0  0
  1  5  1  0  0  0  0
  2  1  2  0  0  0  0
  3  7  1  0  0  0  0
  4  5  2  0  0  0  0
  4  9  1  0  0  0  0
  6  4  1  0  0  0  0
  7  2  1  0  0  0  0
  7  6  2  0  0  0  0
  8  6  1  0  0  0  0
  9 11  2  0  0  0  0
  9 10  1  0  0  0  0
 10 12  1  0  0  0  0
 14 16  2  0  0  0  0
 15 17  1  0  0  0  0
 16 13  1  0  0  0  0
 16 12  1  0  0  0  0
 17 13  2  0  0  0  0
 17 34  1  0  0  0  0
 18 14  1  0  0  0  0
 18 15  2  0  0  0  0
 20 19  1  0  0  0  0
 20 14  1  1  0  0  0
 21 19  2  0  0  0  0
 22 20  1  0  0  0  0
 23 22  2  0  0  0  0
 23 21  1  0  0  0  0
 24 22  1  0  0  0  0
 25 24  1  0  0  0  0
 27 26  2  0  0  0  0
 27 28  1  0  0  0  0
 28 25  1  0  0  0  0
 30 29  1  1  0  0  0
 30 27  1  0  0  0  0
 31 30  1  0  0  0  0
 34 33  1  0  0  0  0
 34 32  1  0  0  0  0
 35 37  1  0  0  0  0
 35  2  1  0  0  0  0
 36 35  2  0  0  0  0
 37 38  2  0  0  0  0
 37 39  1  0  0  0  0
 39 44  1  1  0  0  0
 40 39  1  0  0  0  0
 41 40  1  0  0  0  0
 42 43  1  0  0  0  0
 42 41  1  0  0  0  0
 44 45  1  0  0  0  0
 45 46  1  0  0  0  0
 47 51  2  0  0  0  0
 48 46  1  0  0  0  0
 48 52  1  0  0  0  0
 50 48  2  0  0  0  0
 51 49  1  0  0  0  0
 52 51  1  0  0  0  0
M  END
>  <MODEL>
3

>  <REMARK>
 VINA RESULT:      -6.5      1.604      1.934
  Name = 
  19 active torsions:
  status: ('A' for Active; 'I' for Inactive)
    1  A    between atoms: O_1  and  C_20
    2  A    between atoms: O_1  and  C_36
    3  A    between atoms: C_2  and  C_23
    4  A    between atoms: C_2  and  C_25
    5  A    between atoms: C_3  and  C_9
    6  A    between atoms: C_3  and  C_18
    7  A    between atoms: C_5  and  C_12
    8  A    between atoms: O_6  and  N_21
    9  A    between atoms: O_6  and  C_35
   10  A    between atoms: C_9  and  C_23
   11  A    between atoms: C_13  and  C_16
   12  A    between atoms: C_17  and  C_22
   13  A    between atoms: C_17  and  C_25
   14  A    between atoms: N_21  and  C_23
   15  A    between atoms: C_27  and  C_28
   16  A    between atoms: N_31  and  C_43
   17  A    between atoms: C_32  and  C_43
   18  A    between atoms: C_34  and  N_49
   19  A    between atoms: C_36  and  N_37
                            x       y       z     vdW  Elec       q    Type
                         _______ _______ _______ _____ _____    ______ ____

>  <TORSDO>
F 19

$$$$
=
 OpenBabel11042414293D

 52 54  0  0  1  0  0  0  0  0999 V2000
  193.3730  175.8930  145.4770 C   0  0  0  0  0  3  0  0  0  0  0  0
  194.0190  175.8080  144.2370 C   0  0  0  0  0  0  0  0  0  0  0  0
  193.8460  175.5160  141.7160 C   0  0  0  0  0  1  0  0  0  0  0  0
  191.2070  175.5300  144.4460 C   0  0  0  0  0  0  0  0  0  0  0  0
  191.9900  175.7590  145.5800 C   0  0  0  0  0  3  0  0  0  0  0  0
  191.8370  175.4500  143.1870 C   0  0  0  0  0  0  0  0  0  0  0  0
  193.2330  175.5880  143.0790 C   0  0  0  0  0  0  0  0  0  0  0  0
  191.1010  175.2580  142.0600 F   0  0  0  0  0  0  0  0  0  0  0  0
  189.7450  175.3680  144.6100 C   0  0  0  0  0  0  0  0  0  0  0  0
  188.8370  175.9260  143.6550 N   0  0  0  0  0  2  0  0  0  0  0  0
  189.2940  174.7020  145.5820 O   0  0  0  0  0  0  0  0  0  0  0  0
  187.3940  175.7860  143.7740 C   0  0  0  0  0  2  0  0  0  0  0  0
  186.8270  177.2220  145.7180 C   0  0  0  0  0  3  0  0  0  0  0  0
  186.1780  178.0130  143.5070 C   0  0  0  0  0  0  0  0  0  0  0  0
  185.6360  179.3080  145.4960 C   0  0  0  0  0  3  0  0  0  0  0  0
  186.7940  177.0400  144.3310 C   0  0  0  0  0  0  0  0  0  0  0  0
  186.2580  178.3550  146.3110 C   0  0  0  0  0  0  0  0  0  0  0  0
  185.5960  179.1370  144.1130 C   0  0  0  0  0  3  0  0  0  0  0  0
  187.1990  177.8320  141.1580 C   0  0  0  0  0  3  0  0  0  0  0  0
  186.1250  177.8980  142.0260 C   0  0  2  0  0  3  0  0  0  0  0  0
  186.7560  177.7840  139.8830 N   0  0  0  0  0  0  0  0  0  0  0  0
  184.9980  177.8960  141.2310 C   0  0  0  0  0  0  0  0  0  0  0  0
  185.4100  177.8220  139.9170 C   0  0  0  0  0  3  0  0  0  0  0  0
  183.6780  177.9430  141.6860 O   0  0  0  0  0  0  0  0  0  0  0  0
  182.5850  178.2430  140.8250 C   0  0  0  0  0  2  0  0  0  0  0  0
  180.3870  180.0810  140.5150 N   0  0  0  0  0  2  0  0  0  0  0  0
  180.2460  179.0840  141.3250 C   0  0  0  0  0  0  0  0  0  0  0  0
  181.3340  178.1860  141.5700 N   0  0  0  0  0  2  0  0  0  0  0  0
  178.4920  177.4950  142.0320 C   0  0  0  0  0  1  0  0  0  0  0  0
  178.9710  178.9340  142.0830 C   0  0  2  0  0  3  0  0  0  0  0  0
  177.9940  179.7700  141.5440 O   0  0  0  0  0  1  0  0  0  0  0  0
  185.3590  177.9830  148.5250 O   0  0  0  0  0  1  0  0  0  0  0  0
  187.4180  179.2330  148.3700 C   0  0  0  0  0  1  0  0  0  0  0  0
  186.3160  178.5270  147.7370 N   0  0  0  0  0  0  0  0  0  0  0  0
  195.5060  175.9140  144.1910 C   0  0  0  0  0  0  0  0  0  0  0  0
  196.0440  177.0440  144.0350 O   0  0  0  0  0  0  0  0  0  0  0  0
  196.3880  174.7290  144.2970 C   0  0  0  0  0  0  0  0  0  0  0  0
  197.5960  174.8540  144.6420 O   0  0  0  0  0  0  0  0  0  0  0  0
  195.8380  173.3640  144.0150 C   0  0  1  0  0  3  0  0  0  0  0  0
  196.6870  172.6630  143.0640 N   0  0  0  0  0  2  0  0  0  0  0  0
  196.6080  173.3330  141.8910 O   0  0  0  0  0  0  0  0  0  0  0  0
  197.9010  173.2810  141.3680 C   0  0  0  0  0  2  0  0  0  0  0  0
  197.8320  173.1280  139.8630 C   0  0  0  0  0  1  0  0  0  0  0  0
  195.7300  172.5810  145.3140 C   0  0  0  0  0  2  0  0  0  0  0  0
  194.5990  171.5690  145.2360 C   0  0  0  0  0  2  0  0  0  0  0  0
  193.2580  172.2760  145.1070 C   0  0  0  0  0  2  0  0  0  0  0  0
  190.7310  171.2360  141.6450 N   0  0  0  0  0  2  0  0  0  0  0  0
  192.4640  171.7230  143.9720 C   0  0  0  0  0  0  0  0  0  0  0  0
  188.8030  172.1180  142.7710 C   0  0  0  0  0  1  0  0  0  0  0  0
  193.0070  170.9200  143.1680 O   0  0  0  0  0  0  0  0  0  0  0  0
  190.2430  171.7530  142.7240 C   0  0  0  0  0  0  0  0  0  0  0  0
  191.0850  172.0880  143.8330 N   0  0  0  0  0  2  0  0  0  0  0  0
  1  5  1  0  0  0  0
  2  1  2  0  0  0  0
  3  7  1  0  0  0  0
  4  9  1  0  0  0  0
  4  5  2  0  0  0  0
  6  4  1  0  0  0  0
  7  6  2  0  0  0  0
  7  2  1  0  0  0  0
  8  6  1  0  0  0  0
  9 11  2  0  0  0  0
 10 12  1  0  0  0  0
 10  9  1  0  0  0  0
 12 16  1  0  0  0  0
 13 17  1  0  0  0  0
 14 18  2  0  0  0  0
 14 16  1  0  0  0  0
 15 17  2  0  0  0  0
 16 13  2  0  0  0  0
 17 34  1  0  0  0  0
 18 15  1  0  0  0  0
 19 20  1  0  0  0  0
 20 14  1  6  0  0  0
 21 23  1  0  0  0  0
 21 19  2  0  0  0  0
 22 24  1  0  0  0  0
 22 20  1  0  0  0  0
 23 22  2  0  0  0  0
 25 28  1  0  0  0  0
 25 24  1  0  0  0  0
 26 27  2  0  0  0  0
 27 28  1  0  0  0  0
 27 30  1  0  0  0  0
 30 29  1  6  0  0  0
 31 30  1  0  0  0  0
 34 33  1  0  0  0  0
 34 32  1  0  0  0  0
 35  2  1  0  0  0  0
 35 37  1  0  0  0  0
 36 35  2  0  0  0  0
 37 38  2  0  0  0  0
 39 37  1  0  0  0  0
 39 44  1  1  0  0  0
 40 39  1  0  0  0  0
 41 40  1  0  0  0  0
 42 41  1  0  0  0  0
 43 42  1  0  0  0  0
 45 44  1  0  0  0  0
 46 45  1  0  0  0  0
 47 51  2  0  0  0  0
 48 46  1  0  0  0  0
 50 48  2  0  0  0  0
 51 49  1  0  0  0  0
 51 52  1  0  0  0  0
 52 48  1  0  0  0  0
M  END
>  <MODEL>
4

>  <REMARK>
 VINA RESULT:      -6.3      2.672     10.498
  Name = 
  19 active torsions:
  status: ('A' for Active; 'I' for Inactive)
    1  A    between atoms: O_1  and  C_20
    2  A    between atoms: O_1  and  C_36
    3  A    between atoms: C_2  and  C_23
    4  A    between atoms: C_2  and  C_25
    5  A    between atoms: C_3  and  C_9
    6  A    between atoms: C_3  and  C_18
    7  A    between atoms: C_5  and  C_12
    8  A    between atoms: O_6  and  N_21
    9  A    between atoms: O_6  and  C_35
   10  A    between atoms: C_9  and  C_23
   11  A    between atoms: C_13  and  C_16
   12  A    between atoms: C_17  and  C_22
   13  A    between atoms: C_17  and  C_25
   14  A    between atoms: N_21  and  C_23
   15  A    between atoms: C_27  and  C_28
   16  A    between atoms: N_31  and  C_43
   17  A    between atoms: C_32  and  C_43
   18  A    between atoms: C_34  and  N_49
   19  A    between atoms: C_36  and  N_37
                            x       y       z     vdW  Elec       q    Type
                         _______ _______ _______ _____ _____    ______ ____

>  <TORSDO>
F 19

$$$$
=
 OpenBabel11042414293D

 52 54  0  0  1  0  0  0  0  0999 V2000
  191.2060  177.4380  144.9090 C   0  0  0  0  0  3  0  0  0  0  0  0
  191.0000  176.8110  146.1440 C   0  0  0  0  0  0  0  0  0  0  0  0
  191.8870  175.2820  147.9740 C   0  0  0  0  0  1  0  0  0  0  0  0
  193.3820  176.3970  144.6670 C   0  0  0  0  0  0  0  0  0  0  0  0
  192.3770  177.2380  144.1830 C   0  0  0  0  0  3  0  0  0  0  0  0
  193.2000  175.7620  145.9120 C   0  0  0  0  0  0  0  0  0  0  0  0
  192.0190  175.9640  146.6490 C   0  0  0  0  0  0  0  0  0  0  0  0
  194.1710  174.9600  146.4250 F   0  0  0  0  0  0  0  0  0  0  0  0
  194.5980  176.1940  143.8470 C   0  0  0  0  0  0  0  0  0  0  0  0
  194.5130  175.5900  142.5520 N   0  0  0  0  0  2  0  0  0  0  0  0
  195.7160  176.5900  144.2770 O   0  0  0  0  0  0  0  0  0  0  0  0
  195.6810  175.3760  141.7110 C   0  0  0  0  0  2  0  0  0  0  0  0
  196.5360  173.2220  142.5990 C   0  0  0  0  0  3  0  0  0  0  0  0
  195.6240  173.2250  140.3390 C   0  0  0  0  0  0  0  0  0  0  0  0
  196.5370  171.1860  141.3050 C   0  0  0  0  0  3  0  0  0  0  0  0
  195.9370  173.9120  141.5380 C   0  0  0  0  0  0  0  0  0  0  0  0
  196.8320  171.8570  142.4970 C   0  0  0  0  0  0  0  0  0  0  0  0
  195.9420  171.8630  140.2400 C   0  0  0  0  0  3  0  0  0  0  0  0
  195.5690  174.2860  138.0010 C   0  0  0  0  0  3  0  0  0  0  0  0
  194.9690  173.8880  139.1810 C   0  0  2  0  0  3  0  0  0  0  0  0
  194.6620  174.8970  137.2090 N   0  0  0  0  0  0  0  0  0  0  0  0
  193.6520  174.2880  139.0870 C   0  0  0  0  0  0  0  0  0  0  0  0
  193.4850  174.9020  137.8640 C   0  0  0  0  0  3  0  0  0  0  0  0
  192.6660  174.0850  140.0560 O   0  0  0  0  0  0  0  0  0  0  0  0
  191.5320  173.2560  139.8280 C   0  0  0  0  0  2  0  0  0  0  0  0
  189.2370  174.5760  140.9680 N   0  0  0  0  0  2  0  0  0  0  0  0
  189.7260  173.5500  141.5830 C   0  0  0  0  0  0  0  0  0  0  0  0
  190.9090  172.9050  141.0980 N   0  0  0  0  0  2  0  0  0  0  0  0
  189.7650  173.7960  144.0400 C   0  0  0  0  0  1  0  0  0  0  0  0
  189.1050  173.1030  142.8630 C   0  0  2  0  0  3  0  0  0  0  0  0
  189.2370  171.7210  143.0010 O   0  0  0  0  0  1  0  0  0  0  0  0
  197.6240  171.8090  144.7810 O   0  0  0  0  0  1  0  0  0  0  0  0
  197.8010  169.7630  143.5130 C   0  0  0  0  0  1  0  0  0  0  0  0
  197.4340  171.1670  143.6040 N   0  0  0  0  0  0  0  0  0  0  0  0
  189.7080  177.0260  146.8570 C   0  0  0  0  0  0  0  0  0  0  0  0
  189.5930  177.9960  147.6540 O   0  0  0  0  0  0  0  0  0  0  0  0
  188.5480  176.1220  146.6830 C   0  0  0  0  0  0  0  0  0  0  0  0
  188.5910  174.9320  147.0980 O   0  0  0  0  0  0  0  0  0  0  0  0
  187.2990  176.6310  146.0280 C   0  0  1  0  0  3  0  0  0  0  0  0
  186.3760  177.1430  147.0290 N   0  0  0  0  0  2  0  0  0  0  0  0
  186.3370  178.4890  146.8830 O   0  0  0  0  0  0  0  0  0  0  0  0
  185.0120  178.8340  147.1540 C   0  0  0  0  0  2  0  0  0  0  0  0
  184.1280  178.3860  146.0090 C   0  0  0  0  0  1  0  0  0  0  0  0
  187.6570  177.7160  145.0250 C   0  0  0  0  0  2  0  0  0  0  0  0
  188.0630  177.1030  143.6950 C   0  0  0  0  0  2  0  0  0  0  0  0
  186.9630  176.1960  143.1680 C   0  0  0  0  0  2  0  0  0  0  0  0
  184.4840  178.6730  140.4890 N   0  0  0  0  0  2  0  0  0  0  0  0
  186.1560  176.8800  142.1170 C   0  0  0  0  0  0  0  0  0  0  0  0
  182.6410  178.5050  142.0180 C   0  0  0  0  0  1  0  0  0  0  0  0
  186.6240  176.9970  140.9530 O   0  0  0  0  0  0  0  0  0  0  0  0
  184.0200  178.1620  141.5820 C   0  0  0  0  0  0  0  0  0  0  0  0
  184.8470  177.3650  142.4380 N   0  0  0  0  0  2  0  0  0  0  0  0
  1  2  1  0  0  0  0
  2  7  2  0  0  0  0
  2 35  1  0  0  0  0
  4  6  2  0  0  0  0
  5  4  1  0  0  0  0
  5  1  2  0  0  0  0
  6  8  1  0  0  0  0
  6  7  1  0  0  0  0
  7  3  1  0  0  0  0
  9 11  2  0  0  0  0
  9  4  1  0  0  0  0
 10  9  1  0  0  0  0
 12 10  1  0  0  0  0
 14 16  1  0  0  0  0
 15 17  2  0  0  0  0
 16 12  1  0  0  0  0
 16 13  2  0  0  0  0
 17 13  1  0  0  0  0
 17 34  1  0  0  0  0
 18 14  2  0  0  0  0
 18 15  1  0  0  0  0
 19 20  1  0  0  0  0
 20 14  1  1  0  0  0
 21 23  1  0  0  0  0
 21 19  2  0  0  0  0
 22 20  1  0  0  0  0
 22 24  1  0  0  0  0
 23 22  2  0  0  0  0
 25 24  1  0  0  0  0
 25 28  1  0  0  0  0
 26 27  2  0  0  0  0
 27 30  1  0  0  0  0
 28 27  1  0  0  0  0
 30 31  1  0  0  0  0
 30 29  1  1  0  0  0
 33 34  1  0  0  0  0
 34 32  1  0  0  0  0
 35 36  2  0  0  0  0
 37 35  1  0  0  0  0
 37 38  2  0  0  0  0
 39 44  1  6  0  0  0
 39 37  1  0  0  0  0
 39 40  1  0  0  0  0
 41 40  1  0  0  0  0
 41 42  1  0  0  0  0
 43 42  1  0  0  0  0
 45 44  1  0  0  0  0
 46 45  1  0  0  0  0
 47 51  2  0  0  0  0
 48 52  1  0  0  0  0
 48 46  1  0  0  0  0
 50 48  2  0  0  0  0
 51 49  1  0  0  0  0
 51 52  1  0  0  0  0
M  END
>  <MODEL>
5

>  <REMARK>
 VINA RESULT:      -6.3      2.339      4.892
  Name = 
  19 active torsions:
  status: ('A' for Active; 'I' for Inactive)
    1  A    between atoms: O_1  and  C_20
    2  A    between atoms: O_1  and  C_36
    3  A    between atoms: C_2  and  C_23
    4  A    between atoms: C_2  and  C_25
    5  A    between atoms: C_3  and  C_9
    6  A    between atoms: C_3  and  C_18
    7  A    between atoms: C_5  and  C_12
    8  A    between atoms: O_6  and  N_21
    9  A    between atoms: O_6  and  C_35
   10  A    between atoms: C_9  and  C_23
   11  A    between atoms: C_13  and  C_16
   12  A    between atoms: C_17  and  C_22
   13  A    between atoms: C_17  and  C_25
   14  A    between atoms: N_21  and  C_23
   15  A    between atoms: C_27  and  C_28
   16  A    between atoms: N_31  and  C_43
   17  A    between atoms: C_32  and  C_43
   18  A    between atoms: C_34  and  N_49
   19  A    between atoms: C_36  and  N_37
                            x       y       z     vdW  Elec       q    Type
                         _______ _______ _______ _____ _____    ______ ____

>  <TORSDO>
F 19

$$$$
=
 OpenBabel11042414293D

 52 54  0  0  1  0  0  0  0  0999 V2000
  191.8790  175.2860  146.9210 C   0  0  0  0  0  3  0  0  0  0  0  0
  191.2180  176.3040  146.2230 C   0  0  0  0  0  0  0  0  0  0  0  0
  191.1820  177.9140  144.2530 C   0  0  0  0  0  1  0  0  0  0  0  0
  193.7470  175.3490  145.3760 C   0  0  0  0  0  0  0  0  0  0  0  0
  193.1210  174.8140  146.5040 C   0  0  0  0  0  3  0  0  0  0  0  0
  193.0950  176.3690  144.6530 C   0  0  0  0  0  0  0  0  0  0  0  0
  191.8390  176.8470  145.0700 C   0  0  0  0  0  0  0  0  0  0  0  0
  193.6630  176.8910  143.5330 F   0  0  0  0  0  0  0  0  0  0  0  0
  195.0790  174.8340  144.9870 C   0  0  0  0  0  0  0  0  0  0  0  0
  195.4060  174.6190  143.6100 N   0  0  0  0  0  2  0  0  0  0  0  0
  195.9480  174.6140  145.8750 O   0  0  0  0  0  0  0  0  0  0  0  0
  196.7040  174.1190  143.1840 C   0  0  0  0  0  2  0  0  0  0  0  0
  196.4900  173.4570  140.8010 C   0  0  0  0  0  3  0  0  0  0  0  0
  196.3930  171.6880  142.4730 C   0  0  0  0  0  0  0  0  0  0  0  0
  196.1480  171.1720  140.1070 C   0  0  0  0  0  3  0  0  0  0  0  0
  196.5360  173.0580  142.1410 C   0  0  0  0  0  0  0  0  0  0  0  0
  196.3040  172.5230  139.7750 C   0  0  0  0  0  0  0  0  0  0  0  0
  196.1900  170.7620  141.4390 C   0  0  0  0  0  3  0  0  0  0  0  0
  197.5520  170.6480  144.5160 C   0  0  0  0  0  3  0  0  0  0  0  0
  196.4540  171.1890  143.8720 C   0  0  0  0  0  0  0  0  0  0  0  0
  197.2080  170.2610  145.7630 N   0  0  0  0  0  2  0  0  0  0  0  0
  195.4130  171.1120  144.7740 C   0  0  0  0  0  0  0  0  0  0  0  0
  195.9010  170.5420  145.9310 C   0  0  0  0  0  3  0  0  0  0  0  0
  194.1060  171.5510  144.5510 O   0  0  0  0  0  0  0  0  0  0  0  0
  193.0680  170.6740  144.1300 C   0  0  0  0  0  2  0  0  0  0  0  0
  192.4430  172.3330  141.8580 N   0  0  0  0  0  2  0  0  0  0  0  0
  191.5410  172.1720  142.7700 C   0  0  0  0  0  0  0  0  0  0  0  0
  191.8280  171.4190  143.9520 N   0  0  0  0  0  2  0  0  0  0  0  0
  190.0500  173.8930  143.7270 C   0  0  0  0  0  1  0  0  0  0  0  0
  190.2270  172.8640  142.6260 C   0  0  2  0  0  3  0  0  0  0  0  0
  189.1890  171.9340  142.6850 O   0  0  0  0  0  1  0  0  0  0  0  0
  196.4710  172.0610  137.4070 O   0  0  0  0  0  1  0  0  0  0  0  0
  195.9820  174.3350  138.0520 C   0  0  0  0  0  1  0  0  0  0  0  0
  196.2740  172.9550  138.4050 N   0  0  0  0  0  0  0  0  0  0  0  0
  189.9100  176.8020  146.7400 C   0  0  0  0  0  0  0  0  0  0  0  0
  189.8540  177.9250  147.3080 O   0  0  0  0  0  0  0  0  0  0  0  0
  188.6640  176.0080  146.6350 C   0  0  0  0  0  0  0  0  0  0  0  0
  188.5660  174.8850  147.2010 O   0  0  0  0  0  0  0  0  0  0  0  0
  187.4970  176.5530  145.8690 C   0  0  1  0  0  3  0  0  0  0  0  0
  186.5550  177.1970  146.7720 N   0  0  0  0  0  2  0  0  0  0  0  0
  185.3170  176.7780  146.4200 O   0  0  0  0  0  0  0  0  0  0  0  0
  184.5190  177.9200  146.5150 C   0  0  0  0  0  2  0  0  0  0  0  0
  185.2830  179.0120  147.2340 C   0  0  0  0  0  1  0  0  0  0  0  0
  187.9920  177.5380  144.8210 C   0  0  0  0  0  2  0  0  0  0  0  0
  187.7140  177.0150  143.4220 C   0  0  0  0  0  2  0  0  0  0  0  0
  187.3600  178.1580  142.4840 C   0  0  0  0  0  2  0  0  0  0  0  0
  182.9890  178.6840  142.7700 N   0  0  0  0  0  2  0  0  0  0  0  0
  185.9240  178.5410  142.6180 C   0  0  0  0  0  0  0  0  0  0  0  0
  182.7360  177.9180  140.5090 C   0  0  0  0  0  1  0  0  0  0  0  0
  185.5590  179.2430  143.5990 O   0  0  0  0  0  0  0  0  0  0  0  0
  183.5680  178.3020  141.6790 C   0  0  0  0  0  0  0  0  0  0  0  0
  184.9890  178.1330  141.6130 N   0  0  0  0  0  2  0  0  0  0  0  0
  2 35  1  0  0  0  0
  2  1  2  0  0  0  0
  3  7  1  0  0  0  0
  4  5  2  0  0  0  0
  5  1  1  0  0  0  0
  6  7  2  0  0  0  0
  6  4  1  0  0  0  0
  7  2  1  0  0  0  0
  8  6  1  0  0  0  0
  9  4  1  0  0  0  0
  9 11  2  0  0  0  0
 10  9  1  0  0  0  0
 12 10  1  0  0  0  0
 13 16  1  0  0  0  0
 14 20  1  0  0  0  0
 15 18  2  0  0  0  0
 16 14  2  0  0  0  0
 16 12  1  0  0  0  0
 17 15  1  0  0  0  0
 17 13  2  0  0  0  0
 18 14  1  0  0  0  0
 19 21  1  0  0  0  0
 20 19  2  0  0  0  0
 20 22  1  0  0  0  0
 21 23  1  0  0  0  0
 22 23  2  0  0  0  0
 24 22  1  0  0  0  0
 25 24  1  0  0  0  0
 26 27  2  0  0  0  0
 27 28  1  0  0  0  0
 28 25  1  0  0  0  0
 30 31  1  0  0  0  0
 30 27  1  0  0  0  0
 30 29  1  1  0  0  0
 32 34  1  0  0  0  0
 33 34  1  0  0  0  0
 34 17  1  0  0  0  0
 35 36  2  0  0  0  0
 37 35  1  0  0  0  0
 37 38  2  0  0  0  0
 39 44  1  6  0  0  0
 39 37  1  0  0  0  0
 39 40  1  0  0  0  0
 41 42  1  0  0  0  0
 41 40  1  0  0  0  0
 42 43  1  0  0  0  0
 45 44  1  0  0  0  0
 46 48  1  0  0  0  0
 46 45  1  0  0  0  0
 48 50  2  0  0  0  0
 49 51  1  0  0  0  0
 51 47  2  0  0  0  0
 52 51  1  0  0  0  0
 52 48  1  0  0  0  0
M  END
>  <MODEL>
6

>  <REMARK>
 VINA RESULT:      -6.1      2.405      5.397
  Name = 
  19 active torsions:
  status: ('A' for Active; 'I' for Inactive)
    1  A    between atoms: O_1  and  C_20
    2  A    between atoms: O_1  and  C_36
    3  A    between atoms: C_2  and  C_23
    4  A    between atoms: C_2  and  C_25
    5  A    between atoms: C_3  and  C_9
    6  A    between atoms: C_3  and  C_18
    7  A    between atoms: C_5  and  C_12
    8  A    between atoms: O_6  and  N_21
    9  A    between atoms: O_6  and  C_35
   10  A    between atoms: C_9  and  C_23
   11  A    between atoms: C_13  and  C_16
   12  A    between atoms: C_17  and  C_22
   13  A    between atoms: C_17  and  C_25
   14  A    between atoms: N_21  and  C_23
   15  A    between atoms: C_27  and  C_28
   16  A    between atoms: N_31  and  C_43
   17  A    between atoms: C_32  and  C_43
   18  A    between atoms: C_34  and  N_49
   19  A    between atoms: C_36  and  N_37
                            x       y       z     vdW  Elec       q    Type
                         _______ _______ _______ _____ _____    ______ ____

>  <TORSDO>
F 19

$$$$
=
 OpenBabel11042414293D

 52 54  0  0  1  0  0  0  0  0999 V2000
  189.7650  177.9160  144.2640 C   0  0  0  0  0  3  0  0  0  0  0  0
  188.7610  177.3540  145.0620 C   0  0  0  0  0  0  0  0  0  0  0  0
  188.1230  175.8030  146.9750 C   0  0  0  0  0  1  0  0  0  0  0  0
  191.4810  176.6440  145.4140 C   0  0  0  0  0  0  0  0  0  0  0  0
  191.1030  177.5700  144.4390 C   0  0  0  0  0  3  0  0  0  0  0  0
  190.4860  176.0740  146.2350 C   0  0  0  0  0  0  0  0  0  0  0  0
  189.1340  176.4230  146.0630 C   0  0  0  0  0  0  0  0  0  0  0  0
  190.8230  175.1930  147.2140 F   0  0  0  0  0  0  0  0  0  0  0  0
  192.9120  176.2890  145.5440 C   0  0  0  0  0  0  0  0  0  0  0  0
  193.3070  174.9400  145.8120 N   0  0  0  0  0  2  0  0  0  0  0  0
  193.7940  177.1760  145.3820 O   0  0  0  0  0  0  0  0  0  0  0  0
  194.7020  174.5450  145.9410 C   0  0  0  0  0  2  0  0  0  0  0  0
  194.5040  172.1110  145.4950 C   0  0  0  0  0  3  0  0  0  0  0  0
  195.7510  173.4520  143.8880 C   0  0  0  0  0  0  0  0  0  0  0  0
  195.5260  171.0470  143.5860 C   0  0  0  0  0  3  0  0  0  0  0  0
  194.9890  173.3560  145.0780 C   0  0  0  0  0  0  0  0  0  0  0  0
  194.7590  170.9520  144.7530 C   0  0  0  0  0  0  0  0  0  0  0  0
  196.0170  172.2820  143.1620 C   0  0  0  0  0  3  0  0  0  0  0  0
  197.5630  175.2340  143.5200 C   0  0  0  0  0  3  0  0  0  0  0  0
  196.2800  174.7430  143.3740 C   0  0  2  0  0  3  0  0  0  0  0  0
  197.6520  176.4600  142.9620 N   0  0  0  0  0  0  0  0  0  0  0  0
  195.5750  175.7230  142.7060 C   0  0  0  0  0  0  0  0  0  0  0  0
  196.4400  176.7680  142.4590 C   0  0  0  0  0  3  0  0  0  0  0  0
  194.2300  175.6520  142.3340 O   0  0  0  0  0  0  0  0  0  0  0  0
  193.8130  175.1330  141.0770 C   0  0  0  0  0  2  0  0  0  0  0  0
  194.1830  175.2870  138.2220 N   0  0  0  0  0  2  0  0  0  0  0  0
  195.1280  174.7720  138.9390 C   0  0  0  0  0  0  0  0  0  0  0  0
  194.9620  174.6050  140.3510 N   0  0  0  0  0  2  0  0  0  0  0  0
  196.9000  175.2930  137.3000 C   0  0  0  0  0  1  0  0  0  0  0  0
  196.3560  174.2580  138.2670 C   0  0  2  0  0  3  0  0  0  0  0  0
  196.0650  173.0820  137.5770 O   0  0  0  0  0  1  0  0  0  0  0  0
  194.6060  169.1840  146.3960 O   0  0  0  0  0  1  0  0  0  0  0  0
  193.2730  168.9460  144.3970 C   0  0  0  0  0  1  0  0  0  0  0  0
  194.2380  169.6870  145.1930 N   0  0  0  0  0  0  0  0  0  0  0  0
  187.3400  177.7270  144.8010 C   0  0  0  0  0  0  0  0  0  0  0  0
  186.9110  178.8470  145.1880 O   0  0  0  0  0  0  0  0  0  0  0  0
  186.3940  176.8140  144.1200 C   0  0  0  0  0  0  0  0  0  0  0  0
  185.3430  176.4260  144.7010 O   0  0  0  0  0  0  0  0  0  0  0  0
  186.6730  176.3620  142.7190 C   0  0  1  0  0  3  0  0  0  0  0  0
  187.1930  177.4660  141.9260 N   0  0  0  0  0  2  0  0  0  0  0  0
  186.1670  178.3250  141.7200 O   0  0  0  0  0  0  0  0  0  0  0  0
  185.5860  177.8980  140.5250 C   0  0  0  0  0  2  0  0  0  0  0  0
  186.6730  177.5410  139.5330 C   0  0  0  0  0  1  0  0  0  0  0  0
  187.6650  175.2090  142.7440 C   0  0  0  0  0  2  0  0  0  0  0  0
  188.7320  175.3980  141.6790 C   0  0  0  0  0  2  0  0  0  0  0  0
  188.5650  174.3740  140.5680 C   0  0  0  0  0  2  0  0  0  0  0  0
  191.5050  171.1900  141.3900 N   0  0  0  0  0  2  0  0  0  0  0  0
  189.3970  173.1620  140.8200 C   0  0  0  0  0  0  0  0  0  0  0  0
  192.7930  171.8690  139.4810 C   0  0  0  0  0  1  0  0  0  0  0  0
  188.9850  172.2850  141.6250 O   0  0  0  0  0  0  0  0  0  0  0  0
  191.5990  171.9670  140.3610 C   0  0  0  0  0  0  0  0  0  0  0  0
  190.6350  172.9980  140.1190 N   0  0  0  0  0  2  0  0  0  0  0  0
  1  5  2  0  0  0  0
  1  2  1  0  0  0  0
  2  7  2  0  0  0  0
  4  9  1  0  0  0  0
  4  6  2  0  0  0  0
  5  4  1  0  0  0  0
  6  8  1  0  0  0  0
  7  6  1  0  0  0  0
  7  3  1  0  0  0  0
  9 10  1  0  0  0  0
 10 12  1  0  0  0  0
 11  9  2  0  0  0  0
 14 16  2  0  0  0  0
 15 17  1  0  0  0  0
 16 13  1  0  0  0  0
 16 12  1  0  0  0  0
 17 34  1  0  0  0  0
 17 13  2  0  0  0  0
 18 15  2  0  0  0  0
 18 14  1  0  0  0  0
 20 19  1  0  0  0  0
 20 14  1  1  0  0  0
 21 19  2  0  0  0  0
 22 20  1  0  0  0  0
 23 22  2  0  0  0  0
 23 21  1  0  0  0  0
 24 22  1  0  0  0  0
 25 24  1  0  0  0  0
 26 27  2  0  0  0  0
 27 28  1  0  0  0  0
 28 25  1  0  0  0  0
 30 29  1  6  0  0  0
 30 27  1  0  0  0  0
 31 30  1  0  0  0  0
 33 34  1  0  0  0  0
 34 32  1  0  0  0  0
 35  2  1  0  0  0  0
 35 36  2  0  0  0  0
 37 38  2  0  0  0  0
 37 35  1  0  0  0  0
 39 44  1  1  0  0  0
 39 37  1  0  0  0  0
 40 39  1  0  0  0  0
 41 40  1  0  0  0  0
 42 41  1  0  0  0  0
 43 42  1  0  0  0  0
 45 44  1  0  0  0  0
 46 48  1  0  0  0  0
 46 45  1  0  0  0  0
 48 50  2  0  0  0  0
 49 51  1  0  0  0  0
 51 47  2  0  0  0  0
 52 51  1  0  0  0  0
 52 48  1  0  0  0  0
M  END
>  <MODEL>
7

>  <REMARK>
 VINA RESULT:      -6.0      2.071      3.949
  Name = 
  19 active torsions:
  status: ('A' for Active; 'I' for Inactive)
    1  A    between atoms: O_1  and  C_20
    2  A    between atoms: O_1  and  C_36
    3  A    between atoms: C_2  and  C_23
    4  A    between atoms: C_2  and  C_25
    5  A    between atoms: C_3  and  C_9
    6  A    between atoms: C_3  and  C_18
    7  A    between atoms: C_5  and  C_12
    8  A    between atoms: O_6  and  N_21
    9  A    between atoms: O_6  and  C_35
   10  A    between atoms: C_9  and  C_23
   11  A    between atoms: C_13  and  C_16
   12  A    between atoms: C_17  and  C_22
   13  A    between atoms: C_17  and  C_25
   14  A    between atoms: N_21  and  C_23
   15  A    between atoms: C_27  and  C_28
   16  A    between atoms: N_31  and  C_43
   17  A    between atoms: C_32  and  C_43
   18  A    between atoms: C_34  and  N_49
   19  A    between atoms: C_36  and  N_37
                            x       y       z     vdW  Elec       q    Type
                         _______ _______ _______ _____ _____    ______ ____

>  <TORSDO>
F 19

$$$$
=
 OpenBabel11042414293D

 52 54  0  0  1  0  0  0  0  0999 V2000
  189.5360  175.8300  143.2620 C   0  0  0  0  0  3  0  0  0  0  0  0
  188.7320  175.9210  142.1180 C   0  0  0  0  0  0  0  0  0  0  0  0
  188.0180  174.9350  139.8840 C   0  0  0  0  0  1  0  0  0  0  0  0
  190.5930  173.8080  142.4370 C   0  0  0  0  0  0  0  0  0  0  0  0
  190.4490  174.7900  143.4210 C   0  0  0  0  0  3  0  0  0  0  0  0
  189.7870  173.8760  141.2820 C   0  0  0  0  0  0  0  0  0  0  0  0
  188.8620  174.9240  141.1190 C   0  0  0  0  0  0  0  0  0  0  0  0
  189.8810  172.9210  140.3200 F   0  0  0  0  0  0  0  0  0  0  0  0
  191.5950  172.7380  142.6390 C   0  0  0  0  0  0  0  0  0  0  0  0
  192.7540  172.6570  141.8040 N   0  0  0  0  0  2  0  0  0  0  0  0
  191.4460  171.9100  143.5790 O   0  0  0  0  0  0  0  0  0  0  0  0
  193.7670  171.6250  141.9710 C   0  0  0  0  0  2  0  0  0  0  0  0
  195.0760  172.2850  139.9670 C   0  0  0  0  0  3  0  0  0  0  0  0
  196.2480  172.2090  142.1020 C   0  0  0  0  0  0  0  0  0  0  0  0
  197.4320  172.7960  140.0570 C   0  0  0  0  0  3  0  0  0  0  0  0
  195.0580  172.0570  141.3480 C   0  0  0  0  0  0  0  0  0  0  0  0
  196.2540  172.6630  139.3120 C   0  0  0  0  0  0  0  0  0  0  0  0
  197.4270  172.5700  141.4340 C   0  0  0  0  0  3  0  0  0  0  0  0
  196.4090  170.8020  144.2440 C   0  0  0  0  0  3  0  0  0  0  0  0
  196.2990  172.0060  143.5730 C   0  0  0  0  0  0  0  0  0  0  0  0
  196.3720  171.0140  145.5770 N   0  0  0  0  0  2  0  0  0  0  0  0
  196.1830  172.9720  144.5510 C   0  0  0  0  0  0  0  0  0  0  0  0
  196.2350  172.3400  145.7750 C   0  0  0  0  0  3  0  0  0  0  0  0
  196.0560  174.3460  144.3300 O   0  0  0  0  0  0  0  0  0  0  0  0
  194.9130  174.9140  143.7010 C   0  0  0  0  0  2  0  0  0  0  0  0
  194.7450  177.1010  145.5700 N   0  0  0  0  0  2  0  0  0  0  0  0
  193.7770  176.2450  145.5360 C   0  0  0  0  0  0  0  0  0  0  0  0
  193.8480  175.1010  144.6780 N   0  0  0  0  0  2  0  0  0  0  0  0
  192.2090  175.0560  147.0280 C   0  0  0  0  0  1  0  0  0  0  0  0
  192.6280  176.4050  146.4730 C   0  0  2  0  0  3  0  0  0  0  0  0
  191.5510  176.9930  145.8110 O   0  0  0  0  0  1  0  0  0  0  0  0
  195.9660  174.1410  137.4210 O   0  0  0  0  0  1  0  0  0  0  0  0
  196.5840  171.8570  136.9460 C   0  0  0  0  0  1  0  0  0  0  0  0
  196.2450  172.9040  137.8960 N   0  0  0  0  0  0  0  0  0  0  0  0
  187.8040  177.0800  141.9800 C   0  0  0  0  0  0  0  0  0  0  0  0
  188.1780  178.1050  141.3480 O   0  0  0  0  0  0  0  0  0  0  0  0
  186.4520  177.0880  142.5850 C   0  0  0  0  0  0  0  0  0  0  0  0
  185.9770  176.0460  143.1150 O   0  0  0  0  0  0  0  0  0  0  0  0
  185.6450  178.3510  142.5900 C   0  0  1  0  0  3  0  0  0  0  0  0
  184.2560  178.0660  142.2620 N   0  0  0  0  0  2  0  0  0  0  0  0
  184.0400  178.5270  141.0080 O   0  0  0  0  0  0  0  0  0  0  0  0
  182.8470  177.9210  140.6120 C   0  0  0  0  0  2  0  0  0  0  0  0
  181.7480  178.2780  141.5910 C   0  0  0  0  0  1  0  0  0  0  0  0
  185.7470  179.0150  143.9540 C   0  0  0  0  0  2  0  0  0  0  0  0
  184.4120  178.9600  144.6770 C   0  0  0  0  0  2  0  0  0  0  0  0
  184.4420  177.9110  145.7770 C   0  0  0  0  0  2  0  0  0  0  0  0
  188.5860  177.6360  147.2620 N   0  0  0  0  0  2  0  0  0  0  0  0
  185.7650  177.8880  146.4650 C   0  0  0  0  0  0  0  0  0  0  0  0
  188.6110  175.2810  146.7960 C   0  0  0  0  0  1  0  0  0  0  0  0
  186.1340  178.8900  147.1340 O   0  0  0  0  0  0  0  0  0  0  0  0
  187.9260  176.5990  146.8650 C   0  0  0  0  0  0  0  0  0  0  0  0
  186.5820  176.7140  146.3810 N   0  0  0  0  0  2  0  0  0  0  0  0
  1  5  1  0  0  0  0
  2  1  2  0  0  0  0
  3  7  1  0  0  0  0
  4  9  1  0  0  0  0
  4  5  2  0  0  0  0
  6  4  1  0  0  0  0
  7  6  2  0  0  0  0
  7  2  1  0  0  0  0
  8  6  1  0  0  0  0
  9 11  2  0  0  0  0
 10 12  1  0  0  0  0
 10  9  1  0  0  0  0
 13 16  1  0  0  0  0
 14 20  1  0  0  0  0
 15 18  2  0  0  0  0
 16 12  1  0  0  0  0
 16 14  2  0  0  0  0
 17 13  2  0  0  0  0
 17 15  1  0  0  0  0
 18 14  1  0  0  0  0
 19 21  1  0  0  0  0
 20 19  2  0  0  0  0
 20 22  1  0  0  0  0
 21 23  1  0  0  0  0
 22 23  2  0  0  0  0
 24 22  1  0  0  0  0
 25 24  1  0  0  0  0
 25 28  1  0  0  0  0
 27 26  2  0  0  0  0
 27 30  1  0  0  0  0
 28 27  1  0  0  0  0
 30 29  1  6  0  0  0
 31 30  1  0  0  0  0
 32 34  1  0  0  0  0
 33 34  1  0  0  0  0
 34 17  1  0  0  0  0
 35  2  1  0  0  0  0
 35 37  1  0  0  0  0
 36 35  2  0  0  0  0
 37 39  1  0  0  0  0
 37 38  2  0  0  0  0
 39 44  1  1  0  0  0
 40 39  1  0  0  0  0
 41 40  1  0  0  0  0
 42 41  1  0  0  0  0
 42 43  1  0  0  0  0
 44 45  1  0  0  0  0
 45 46  1  0  0  0  0
 46 48  1  0  0  0  0
 48 50  2  0  0  0  0
 49 51  1  0  0  0  0
 51 47  2  0  0  0  0
 52 48  1  0  0  0  0
 52 51  1  0  0  0  0
M  END
>  <MODEL>
8

>  <REMARK>
 VINA RESULT:      -6.0      2.097      4.579
  Name = 
  19 active torsions:
  status: ('A' for Active; 'I' for Inactive)
    1  A    between atoms: O_1  and  C_20
    2  A    between atoms: O_1  and  C_36
    3  A    between atoms: C_2  and  C_23
    4  A    between atoms: C_2  and  C_25
    5  A    between atoms: C_3  and  C_9
    6  A    between atoms: C_3  and  C_18
    7  A    between atoms: C_5  and  C_12
    8  A    between atoms: O_6  and  N_21
    9  A    between atoms: O_6  and  C_35
   10  A    between atoms: C_9  and  C_23
   11  A    between atoms: C_13  and  C_16
   12  A    between atoms: C_17  and  C_22
   13  A    between atoms: C_17  and  C_25
   14  A    between atoms: N_21  and  C_23
   15  A    between atoms: C_27  and  C_28
   16  A    between atoms: N_31  and  C_43
   17  A    between atoms: C_32  and  C_43
   18  A    between atoms: C_34  and  N_49
   19  A    between atoms: C_36  and  N_37
                            x       y       z     vdW  Elec       q    Type
                         _______ _______ _______ _____ _____    ______ ____

>  <TORSDO>
F 19

$$$$
=
 OpenBabel11042414293D

 52 54  0  0  1  0  0  0  0  0999 V2000
  189.6050  173.7530  144.6370 C   0  0  0  0  0  3  0  0  0  0  0  0
  190.2370  174.5980  145.5580 C   0  0  0  0  0  0  0  0  0  0  0  0
  192.3820  175.6840  146.3890 C   0  0  0  0  0  1  0  0  0  0  0  0
  191.7150  173.2510  143.5510 C   0  0  0  0  0  0  0  0  0  0  0  0
  190.3310  173.0930  143.6480 C   0  0  0  0  0  3  0  0  0  0  0  0
  192.3700  174.1040  144.4630 C   0  0  0  0  0  0  0  0  0  0  0  0
  191.6390  174.7740  145.4620 C   0  0  0  0  0  0  0  0  0  0  0  0
  193.7120  174.3030  144.3780 F   0  0  0  0  0  0  0  0  0  0  0  0
  192.4460  172.5070  142.5000 C   0  0  0  0  0  0  0  0  0  0  0  0
  192.6610  173.0890  141.2110 N   0  0  0  0  0  2  0  0  0  0  0  0
  192.9150  171.3640  142.7540 O   0  0  0  0  0  0  0  0  0  0  0  0
  193.3790  172.3960  140.1510 C   0  0  0  0  0  2  0  0  0  0  0  0
  195.0580  174.1840  140.5270 C   0  0  0  0  0  3  0  0  0  0  0  0
  195.0150  173.1250  138.3330 C   0  0  0  0  0  0  0  0  0  0  0  0
  196.5840  174.9240  138.8100 C   0  0  0  0  0  3  0  0  0  0  0  0
  194.5120  173.2380  139.6530 C   0  0  0  0  0  0  0  0  0  0  0  0
  196.1000  175.0270  140.1200 C   0  0  0  0  0  0  0  0  0  0  0  0
  196.0460  173.9860  137.9290 C   0  0  0  0  0  3  0  0  0  0  0  0
  194.8740  170.8030  137.2450 C   0  0  0  0  0  3  0  0  0  0  0  0
  194.4980  172.1290  137.3580 C   0  0  2  0  0  3  0  0  0  0  0  0
  194.2250  170.2290  136.2100 N   0  0  0  0  0  0  0  0  0  0  0  0
  193.5930  172.3510  136.3420 C   0  0  0  0  0  0  0  0  0  0  0  0
  193.4370  171.1680  135.6510 C   0  0  0  0  0  3  0  0  0  0  0  0
  192.9410  173.5590  136.0790 O   0  0  0  0  0  0  0  0  0  0  0  0
  191.5250  173.6560  135.9840 C   0  0  0  0  0  2  0  0  0  0  0  0
  189.9780  171.8100  137.5680 N   0  0  0  0  0  2  0  0  0  0  0  0
  190.2560  172.9690  138.0690 C   0  0  0  0  0  0  0  0  0  0  0  0
  190.9570  173.9480  137.2940 N   0  0  0  0  0  2  0  0  0  0  0  0
  189.3350  172.0620  140.1730 C   0  0  0  0  0  1  0  0  0  0  0  0
  189.7510  173.3160  139.4290 C   0  0  2  0  0  3  0  0  0  0  0  0
  188.6620  174.1820  139.3260 O   0  0  0  0  0  1  0  0  0  0  0  0
  196.0230  177.1600  141.2560 O   0  0  0  0  0  1  0  0  0  0  0  0
  197.8630  175.6920  141.7950 C   0  0  0  0  0  1  0  0  0  0  0  0
  196.6550  175.9820  141.0390 N   0  0  0  0  0  0  0  0  0  0  0  0
  189.4170  175.2440  146.6240 C   0  0  0  0  0  0  0  0  0  0  0  0
  189.1420  174.6010  147.6720 O   0  0  0  0  0  0  0  0  0  0  0  0
  188.8830  176.6190  146.4870 C   0  0  0  0  0  0  0  0  0  0  0  0
  189.2580  177.5360  147.2690 O   0  0  0  0  0  0  0  0  0  0  0  0
  187.9050  176.9330  145.3960 C   0  0  1  0  0  3  0  0  0  0  0  0
  186.7130  177.5570  145.9500 N   0  0  0  0  0  2  0  0  0  0  0  0
  186.4180  178.6190  145.1630 O   0  0  0  0  0  0  0  0  0  0  0  0
  185.4310  179.3130  145.8660 C   0  0  0  0  0  2  0  0  0  0  0  0
  184.1920  178.4500  145.9820 C   0  0  0  0  0  1  0  0  0  0  0  0
  188.5610  177.8470  144.3730 C   0  0  0  0  0  2  0  0  0  0  0  0
  188.9190  177.0730  143.1150 C   0  0  0  0  0  2  0  0  0  0  0  0
  187.8040  176.1070  142.7460 C   0  0  0  0  0  2  0  0  0  0  0  0
  184.8420  178.4780  140.4970 N   0  0  0  0  0  2  0  0  0  0  0  0
  186.8080  176.7520  141.8420 C   0  0  0  0  0  0  0  0  0  0  0  0
  183.3130  178.3440  142.3430 C   0  0  0  0  0  1  0  0  0  0  0  0
  187.0530  176.8350  140.6100 O   0  0  0  0  0  0  0  0  0  0  0  0
  184.5930  177.9990  141.6710 C   0  0  0  0  0  0  0  0  0  0  0  0
  185.5740  177.2360  142.3840 N   0  0  0  0  0  2  0  0  0  0  0  0
  1  2  1  0  0  0  0
  2 35  1  0  0  0  0
  4  5  1  0  0  0  0
  4  6  2  0  0  0  0
  5  1  2  0  0  0  0
  6  7  1  0  0  0  0
  7  2  2  0  0  0  0
  7  3  1  0  0  0  0
  8  6  1  0  0  0  0
  9 11  2  0  0  0  0
  9  4  1  0  0  0  0
 10  9  1  0  0  0  0
 12 10  1  0  0  0  0
 14 16  1  0  0  0  0
 15 17  2  0  0  0  0
 16 12  1  0  0  0  0
 16 13  2  0  0  0  0
 17 13  1  0  0  0  0
 17 34  1  0  0  0  0
 18 14  2  0  0  0  0
 18 15  1  0  0  0  0
 19 20  1  0  0  0  0
 20 14  1  6  0  0  0
 21 19  2  0  0  0  0
 22 20  1  0  0  0  0
 23 21  1  0  0  0  0
 23 22  2  0  0  0  0
 24 22  1  0  0  0  0
 25 24  1  0  0  0  0
 25 28  1  0  0  0  0
 26 27  2  0  0  0  0
 27 30  1  0  0  0  0
 28 27  1  0  0  0  0
 30 29  1  6  0  0  0
 31 30  1  0  0  0  0
 34 32  1  0  0  0  0
 34 33  1  0  0  0  0
 35 36  2  0  0  0  0
 37 35  1  0  0  0  0
 37 38  2  0  0  0  0
 39 44  1  6  0  0  0
 39 40  1  0  0  0  0
 39 37  1  0  0  0  0
 41 42  1  0  0  0  0
 41 40  1  0  0  0  0
 42 43  1  0  0  0  0
 45 44  1  0  0  0  0
 46 45  1  0  0  0  0
 47 51  2  0  0  0  0
 48 52  1  0  0  0  0
 48 46  1  0  0  0  0
 50 48  2  0  0  0  0
 51 49  1  0  0  0  0
 51 52  1  0  0  0  0
M  END
>  <MODEL>
9

>  <REMARK>
 VINA RESULT:      -5.9      2.712      5.826
  Name = 
  19 active torsions:
  status: ('A' for Active; 'I' for Inactive)
    1  A    between atoms: O_1  and  C_20
    2  A    between atoms: O_1  and  C_36
    3  A    between atoms: C_2  and  C_23
    4  A    between atoms: C_2  and  C_25
    5  A    between atoms: C_3  and  C_9
    6  A    between atoms: C_3  and  C_18
    7  A    between atoms: C_5  and  C_12
    8  A    between atoms: O_6  and  N_21
    9  A    between atoms: O_6  and  C_35
   10  A    between atoms: C_9  and  C_23
   11  A    between atoms: C_13  and  C_16
   12  A    between atoms: C_17  and  C_22
   13  A    between atoms: C_17  and  C_25
   14  A    between atoms: N_21  and  C_23
   15  A    between atoms: C_27  and  C_28
   16  A    between atoms: N_31  and  C_43
   17  A    between atoms: C_32  and  C_43
   18  A    between atoms: C_34  and  N_49
   19  A    between atoms: C_36  and  N_37
                            x       y       z     vdW  Elec       q    Type
                         _______ _______ _______ _____ _____    ______ ____

>  <TORSDO>
F 19

$$$$
