=
 OpenBabel11042417203D

 26 30  0  0  1  0  0  0  0  0999 V2000
  186.2160  177.8040  145.2600 C   0  0  0  0  0  3  0  0  0  0  0  0
  189.9560  173.7300  143.1370 C   0  0  0  0  0  2  0  0  0  0  0  0
  189.4120  175.8490  144.4890 C   0  0  1  0  0  3  0  0  0  0  0  0
  190.2480  175.1860  145.5980 C   0  0  2  0  0  3  0  0  0  0  0  0
  188.9440  174.8630  143.4020 C   0  0  1  0  0  3  0  0  0  0  0  0
  188.2240  176.4610  145.1560 C   0  0  0  0  0  0  0  0  0  0  0  0
  186.5280  178.6920  142.5240 C   0  0  0  0  0  2  0  0  0  0  0  0
  187.3040  177.3110  144.5170 C   0  0  0  0  0  0  0  0  0  0  0  0
  187.2960  176.3990  142.1900 C   0  0  1  0  0  3  0  0  0  0  0  0
  186.0480  178.1990  141.1700 C   0  0  0  0  0  2  0  0  0  0  0  0
  186.9780  176.5980  147.2220 C   0  0  0  0  0  3  0  0  0  0  0  0
  189.2470  174.9680  147.1210 S   0  0  0  0  0  0  0  0  0  0  0  0
  189.9550  173.8900  140.8410 C   0  0  1  0  0  3  0  0  0  0  0  0
  186.0590  177.4560  146.6080 C   0  0  0  0  0  3  0  0  0  0  0  0
  189.7610  172.4910  140.4950 N   0  0  0  0  0  1  0  0  0  0  0  0
  187.4840  177.6330  143.0560 C   0  0  1  0  0  3  0  0  0  0  0  0
  186.8530  176.9570  140.8510 C   0  0  0  0  0  2  0  0  0  0  0  0
  188.6010  174.6150  140.9270 C   0  0  0  0  0  2  0  0  0  0  0  0
  188.6100  175.6100  142.0910 C   0  0  2  0  0  3  0  0  0  0  0  0
  190.7520  174.0140  142.0090 O   0  0  0  0  0  0  0  0  0  0  0  0
  188.0490  176.1040  146.4770 C   0  0  0  0  0  0  0  0  0  0  0  0
  192.5710  175.6270  145.5510 N   0  0  0  0  0  0  0  0  0  0  0  0
  191.4070  176.0150  145.8820 N   0  0  0  0  0  0  0  0  0  0  0  0
  193.8740  176.9650  146.9540 O   0  0  0  0  0  0  0  0  0  0  0  0
  193.7200  176.4280  145.8250 C   0  0  0  0  0  0  0  0  0  0  0  0
  194.7010  176.6210  144.8130 N   0  0  0  0  0  1  0  0  0  0  0  0
  1 14  1  0  0  0  0
  3  6  1  1  0  0  0
  3  4  1  0  0  0  0
  4 23  1  1  0  0  0
  4 12  1  0  0  0  0
  5  2  1  6  0  0  0
  5  3  1  0  0  0  0
  6 21  2  0  0  0  0
  8  6  1  0  0  0  0
  8  1  2  0  0  0  0
  9 17  1  6  0  0  0
  9 16  1  0  0  0  0
 10  7  1  0  0  0  0
 13 15  1  1  0  0  0
 13 18  1  0  0  0  0
 13 20  1  0  0  0  0
 14 11  2  0  0  0  0
 16  7  1  6  0  0  0
 16  8  1  0  0  0  0
 17 10  1  0  0  0  0
 19 18  1  6  0  0  0
 19  9  1  0  0  0  0
 19  5  1  0  0  0  0
 20  2  1  0  0  0  0
 21 12  1  0  0  0  0
 21 11  1  0  0  0  0
 22 25  1  0  0  0  0
 22 23  2  0  0  0  0
 25 24  2  0  0  0  0
 26 25  1  0  0  0  0
M  END
>  <MODEL>
1

>  <REMARK>
 VINA RESULT:      -8.0      0.000      0.000
  Name = 
  2 active torsions:
  status: ('A' for Active; 'I' for Inactive)
    1  A    between atoms: C_5  and  N_12
    2  A    between atoms: N_11  and  C_13
                            x       y       z     vdW  Elec       q    Type
                         _______ _______ _______ _____ _____    ______ ____

>  <TORSDO>
F 2

$$$$
=
 OpenBabel11042417203D

 26 30  0  0  1  0  0  0  0  0999 V2000
  184.4670  177.8930  143.8530 C   0  0  0  0  0  3  0  0  0  0  0  0
  190.2560  177.1320  142.8510 C   0  0  0  0  0  2  0  0  0  0  0  0
  187.7890  176.4410  142.6330 C   0  0  1  0  0  3  0  0  0  0  0  0
  188.1090  176.2890  141.1360 C   0  0  2  0  0  3  0  0  0  0  0  0
  188.8220  177.2880  143.3980 C   0  0  1  0  0  3  0  0  0  0  0  0
  186.4460  177.0890  142.7200 C   0  0  0  0  0  0  0  0  0  0  0  0
  185.3470  176.8290  146.3950 C   0  0  0  0  0  2  0  0  0  0  0  0
  185.7150  177.2450  143.9100 C   0  0  0  0  0  0  0  0  0  0  0  0
  187.5360  177.5530  145.5930 C   0  0  1  0  0  3  0  0  0  0  0  0
  186.1530  177.3620  147.5660 C   0  0  0  0  0  2  0  0  0  0  0  0
  184.7170  178.2130  141.4610 C   0  0  0  0  0  3  0  0  0  0  0  0
  187.0250  177.3730  140.1270 S   0  0  0  0  0  0  0  0  0  0  0  0
  191.2910  176.7980  144.8780 C   0  0  1  0  0  3  0  0  0  0  0  0
  183.9670  178.3680  142.6330 C   0  0  0  0  0  3  0  0  0  0  0  0
  192.3830  177.7510  144.7610 N   0  0  0  0  0  1  0  0  0  0  0  0
  186.3000  176.7570  145.2090 C   0  0  1  0  0  3  0  0  0  0  0  0
  187.5940  177.4310  147.1040 C   0  0  0  0  0  2  0  0  0  0  0  0
  190.0800  177.4490  145.5660 C   0  0  0  0  0  2  0  0  0  0  0  0
  188.7820  176.9700  144.9100 C   0  0  2  0  0  3  0  0  0  0  0  0
  190.9960  176.2120  143.6200 O   0  0  0  0  0  0  0  0  0  0  0  0
  185.9580  177.5790  141.5260 C   0  0  0  0  0  0  0  0  0  0  0  0
  188.9240  174.1640  140.4920 N   0  0  0  0  0  0  0  0  0  0  0  0
  187.9210  174.9020  140.7460 N   0  0  0  0  0  0  0  0  0  0  0  0
  187.8240  172.4630  139.3270 O   0  0  0  0  0  0  0  0  0  0  0  0
  188.7560  172.8000  140.1050 C   0  0  0  0  0  0  0  0  0  0  0  0
  189.6500  171.8120  140.6020 N   0  0  0  0  0  1  0  0  0  0  0  0
  1  8  1  0  0  0  0
  2 20  1  0  0  0  0
  3  6  1  6  0  0  0
  3  5  1  0  0  0  0
  4 23  1  6  0  0  0
  4  3  1  0  0  0  0
  5  2  1  6  0  0  0
  5 19  1  0  0  0  0
  6  8  2  0  0  0  0
  7 10  1  0  0  0  0
  8 16  1  0  0  0  0
  9 17  1  1  0  0  0
 11 21  2  0  0  0  0
 11 14  1  0  0  0  0
 12  4  1  0  0  0  0
 12 21  1  0  0  0  0
 13 15  1  6  0  0  0
 13 18  1  0  0  0  0
 14  1  2  0  0  0  0
 16  9  1  0  0  0  0
 16  7  1  1  0  0  0
 17 10  1  0  0  0  0
 19 18  1  1  0  0  0
 19  9  1  0  0  0  0
 20 13  1  0  0  0  0
 21  6  1  0  0  0  0
 22 23  2  0  0  0  0
 24 25  2  0  0  0  0
 25 22  1  0  0  0  0
 25 26  1  0  0  0  0
M  END
>  <MODEL>
2

>  <REMARK>
 VINA RESULT:      -8.0      2.445      5.554
  Name = 
  2 active torsions:
  status: ('A' for Active; 'I' for Inactive)
    1  A    between atoms: C_5  and  N_12
    2  A    between atoms: N_11  and  C_13
                            x       y       z     vdW  Elec       q    Type
                         _______ _______ _______ _____ _____    ______ ____

>  <TORSDO>
F 2

$$$$
=
 OpenBabel11042417203D

 26 30  0  0  1  0  0  0  0  0999 V2000
  188.3570  175.6390  147.2510 C   0  0  0  0  0  3  0  0  0  0  0  0
  187.6870  176.4190  141.4170 C   0  0  0  0  0  2  0  0  0  0  0  0
  189.0970  176.3520  143.5660 C   0  0  1  0  0  3  0  0  0  0  0  0
  190.0550  175.4710  142.7440 C   0  0  2  0  0  3  0  0  0  0  0  0
  187.6870  176.4560  142.9580 C   0  0  1  0  0  3  0  0  0  0  0  0
  189.0140  175.7390  144.9250 C   0  0  0  0  0  0  0  0  0  0  0  0
  187.2090  178.2930  147.1620 C   0  0  0  0  0  2  0  0  0  0  0  0
  188.3790  176.3360  146.0290 C   0  0  0  0  0  0  0  0  0  0  0  0
  186.5130  177.5850  144.9320 C   0  0  1  0  0  3  0  0  0  0  0  0
  185.8320  178.8620  146.8670 C   0  0  0  0  0  2  0  0  0  0  0  0
  189.5740  173.7950  146.2480 C   0  0  0  0  0  3  0  0  0  0  0  0
  190.2780  173.8340  143.5430 S   0  0  0  0  0  0  0  0  0  0  0  0
  186.3040  178.2290  141.0940 C   0  0  1  0  0  3  0  0  0  0  0  0
  188.9590  174.3790  147.3610 C   0  0  0  0  0  3  0  0  0  0  0  0
  185.3610  177.6560  140.1470 N   0  0  0  0  0  1  0  0  0  0  0  0
  187.7100  177.6760  145.8630 C   0  0  1  0  0  3  0  0  0  0  0  0
  185.6190  178.7280  145.3740 C   0  0  0  0  0  2  0  0  0  0  0  0
  185.7940  178.0520  142.5350 C   0  0  0  0  0  2  0  0  0  0  0  0
  186.9610  177.7220  143.4690 C   0  0  2  0  0  3  0  0  0  0  0  0
  187.6090  177.7180  140.8770 O   0  0  0  0  0  0  0  0  0  0  0  0
  189.5840  174.4870  145.0370 C   0  0  0  0  0  0  0  0  0  0  0  0
  192.4160  175.5170  142.8720 N   0  0  0  0  0  0  0  0  0  0  0  0
  191.3380  176.1430  142.6250 N   0  0  0  0  0  0  0  0  0  0  0  0
  194.1310  176.5140  141.6390 O   0  0  0  0  0  0  0  0  0  0  0  0
  193.6840  176.1620  142.7620 C   0  0  0  0  0  0  0  0  0  0  0  0
  194.4510  176.4110  143.9350 N   0  0  0  0  0  1  0  0  0  0  0  0
  1 14  1  0  0  0  0
  3  6  1  1  0  0  0
  4 23  1  1  0  0  0
  4 12  1  0  0  0  0
  4  3  1  0  0  0  0
  5  2  1  6  0  0  0
  5 19  1  0  0  0  0
  5  3  1  0  0  0  0
  6 21  2  0  0  0  0
  6  8  1  0  0  0  0
  8  1  2  0  0  0  0
  9 17  1  1  0  0  0
  9 16  1  0  0  0  0
 10  7  1  0  0  0  0
 11 14  2  0  0  0  0
 12 21  1  0  0  0  0
 13 15  1  6  0  0  0
 13 18  1  0  0  0  0
 16  8  1  0  0  0  0
 16  7  1  1  0  0  0
 17 10  1  0  0  0  0
 19 18  1  6  0  0  0
 19  9  1  0  0  0  0
 20 13  1  0  0  0  0
 20  2  1  0  0  0  0
 21 11  1  0  0  0  0
 23 22  2  0  0  0  0
 24 25  2  0  0  0  0
 25 22  1  0  0  0  0
 25 26  1  0  0  0  0
M  END
>  <MODEL>
3

>  <REMARK>
 VINA RESULT:      -7.9      2.452      3.888
  Name = 
  2 active torsions:
  status: ('A' for Active; 'I' for Inactive)
    1  A    between atoms: C_5  and  N_12
    2  A    between atoms: N_11  and  C_13
                            x       y       z     vdW  Elec       q    Type
                         _______ _______ _______ _____ _____    ______ ____

>  <TORSDO>
F 2

$$$$
=
 OpenBabel11042417203D

 26 30  0  0  1  0  0  0  0  0999 V2000
  189.9940  176.6170  146.8650 C   0  0  0  0  0  3  0  0  0  0  0  0
  190.7550  173.5460  141.8570 C   0  0  0  0  0  2  0  0  0  0  0  0
  191.4480  175.3370  143.5670 C   0  0  1  0  0  3  0  0  0  0  0  0
  192.8330  174.6720  143.4920 C   0  0  2  0  0  3  0  0  0  0  0  0
  190.3120  174.4490  143.0260 C   0  0  1  0  0  3  0  0  0  0  0  0
  191.1990  175.6480  145.0060 C   0  0  0  0  0  0  0  0  0  0  0  0
  188.0960  177.9160  145.1100 C   0  0  0  0  0  2  0  0  0  0  0  0
  190.1200  176.4160  145.4780 C   0  0  0  0  0  0  0  0  0  0  0  0
  188.3280  175.8490  143.8320 C   0  0  1  0  0  3  0  0  0  0  0  0
  186.7490  177.5450  144.5160 C   0  0  0  0  0  2  0  0  0  0  0  0
  191.9860  175.2910  147.2630 C   0  0  0  0  0  3  0  0  0  0  0  0
  193.3600  174.0840  145.1490 S   0  0  0  0  0  0  0  0  0  0  0  0
  188.9930  174.0210  140.4560 C   0  0  1  0  0  3  0  0  0  0  0  0
  190.9270  176.0630  147.7520 C   0  0  0  0  0  3  0  0  0  0  0  0
  188.6000  172.6720  140.0830 N   0  0  0  0  0  1  0  0  0  0  0  0
  189.1160  176.9640  144.4990 C   0  0  1  0  0  3  0  0  0  0  0  0
  187.0180  176.5080  143.4460 C   0  0  0  0  0  2  0  0  0  0  0  0
  188.1920  174.4960  141.6800 C   0  0  0  0  0  2  0  0  0  0  0  0
  189.0930  175.3070  142.6150 C   0  0  2  0  0  3  0  0  0  0  0  0
  190.4000  174.1100  140.6160 O   0  0  0  0  0  0  0  0  0  0  0  0
  192.1000  175.0870  145.8880 C   0  0  0  0  0  0  0  0  0  0  0  0
  195.0360  175.4920  143.2260 N   0  0  0  0  0  0  0  0  0  0  0  0
  193.7970  175.6310  142.9790 N   0  0  0  0  0  0  0  0  0  0  0  0
  196.8110  176.9840  143.5130 O   0  0  0  0  0  0  0  0  0  0  0  0
  195.9950  176.4270  142.7320 C   0  0  0  0  0  0  0  0  0  0  0  0
  196.0280  176.7330  141.3430 N   0  0  0  0  0  1  0  0  0  0  0  0
  1 14  1  0  0  0  0
  3  6  1  1  0  0  0
  4 23  1  1  0  0  0
  4  3  1  0  0  0  0
  4 12  1  0  0  0  0
  5  2  1  6  0  0  0
  5  3  1  0  0  0  0
  6  8  1  0  0  0  0
  6 21  2  0  0  0  0
  8  1  2  0  0  0  0
  9 17  1  6  0  0  0
  9 16  1  0  0  0  0
 10  7  1  0  0  0  0
 11 14  2  0  0  0  0
 12 21  1  0  0  0  0
 13 15  1  1  0  0  0
 13 20  1  0  0  0  0
 13 18  1  0  0  0  0
 16  7  1  1  0  0  0
 16  8  1  0  0  0  0
 17 10  1  0  0  0  0
 19 18  1  1  0  0  0
 19  5  1  0  0  0  0
 19  9  1  0  0  0  0
 20  2  1  0  0  0  0
 21 11  1  0  0  0  0
 23 22  2  0  0  0  0
 25 22  1  0  0  0  0
 25 24  2  0  0  0  0
 26 25  1  0  0  0  0
M  END
>  <MODEL>
4

>  <REMARK>
 VINA RESULT:      -7.0      2.238      3.226
  Name = 
  2 active torsions:
  status: ('A' for Active; 'I' for Inactive)
    1  A    between atoms: C_5  and  N_12
    2  A    between atoms: N_11  and  C_13
                            x       y       z     vdW  Elec       q    Type
                         _______ _______ _______ _____ _____    ______ ____

>  <TORSDO>
F 2

$$$$
=
 OpenBabel11042417203D

 26 30  0  0  1  0  0  0  0  0999 V2000
  184.6490  178.5140  143.8160 C   0  0  0  0  0  3  0  0  0  0  0  0
  190.2190  176.8480  144.9510 C   0  0  0  0  0  2  0  0  0  0  0  0
  187.8980  176.4970  143.9010 C   0  0  1  0  0  3  0  0  0  0  0  0
  188.6830  176.1640  142.6200 C   0  0  2  0  0  3  0  0  0  0  0  0
  188.7320  177.2550  144.9500 C   0  0  1  0  0  3  0  0  0  0  0  0
  186.7340  177.3350  143.4840 C   0  0  0  0  0  0  0  0  0  0  0  0
  184.4150  177.5720  146.5420 C   0  0  0  0  0  2  0  0  0  0  0  0
  185.6760  177.7030  144.3330 C   0  0  0  0  0  0  0  0  0  0  0  0
  186.8330  177.9010  146.5390 C   0  0  1  0  0  3  0  0  0  0  0  0
  184.8470  178.0910  147.9010 C   0  0  0  0  0  2  0  0  0  0  0  0
  185.7530  178.5740  141.6560 C   0  0  0  0  0  3  0  0  0  0  0  0
  188.2060  177.2950  141.2550 S   0  0  0  0  0  0  0  0  0  0  0  0
  190.4260  176.5560  147.2230 C   0  0  1  0  0  3  0  0  0  0  0  0
  184.6840  178.9400  142.4820 C   0  0  0  0  0  3  0  0  0  0  0  0
  191.6340  177.3300  147.4650 N   0  0  0  0  0  1  0  0  0  0  0  0
  185.6900  177.2570  145.7720 C   0  0  1  0  0  3  0  0  0  0  0  0
  186.3490  177.9110  147.9760 C   0  0  0  0  0  2  0  0  0  0  0  0
  189.1780  177.4340  147.4150 C   0  0  0  0  0  2  0  0  0  0  0  0
  188.1240  177.0860  146.3610 C   0  0  2  0  0  3  0  0  0  0  0  0
  190.4880  175.9060  145.9640 O   0  0  0  0  0  0  0  0  0  0  0  0
  186.7730  177.7790  142.1780 C   0  0  0  0  0  0  0  0  0  0  0  0
  189.0670  174.2430  141.2950 N   0  0  0  0  0  0  0  0  0  0  0  0
  188.4130  174.7880  142.2380 N   0  0  0  0  0  0  0  0  0  0  0  0
  187.8340  172.6120  140.1650 O   0  0  0  0  0  0  0  0  0  0  0  0
  188.8130  172.8930  140.9060 C   0  0  0  0  0  0  0  0  0  0  0  0
  189.6730  171.8560  141.3610 N   0  0  0  0  0  1  0  0  0  0  0  0
  1  8  1  0  0  0  0
  2 20  1  0  0  0  0
  3  6  1  6  0  0  0
  3  5  1  0  0  0  0
  4 23  1  6  0  0  0
  4  3  1  0  0  0  0
  5  2  1  1  0  0  0
  5 19  1  0  0  0  0
  6  8  2  0  0  0  0
  7 10  1  0  0  0  0
  8 16  1  0  0  0  0
  9 17  1  1  0  0  0
 10 17  1  0  0  0  0
 11 21  2  0  0  0  0
 11 14  1  0  0  0  0
 12 21  1  0  0  0  0
 12  4  1  0  0  0  0
 13 18  1  0  0  0  0
 13 15  1  6  0  0  0
 14  1  2  0  0  0  0
 16  9  1  0  0  0  0
 16  7  1  1  0  0  0
 19  9  1  0  0  0  0
 19 18  1  1  0  0  0
 20 13  1  0  0  0  0
 21  6  1  0  0  0  0
 22 23  2  0  0  0  0
 24 25  2  0  0  0  0
 25 22  1  0  0  0  0
 25 26  1  0  0  0  0
M  END
>  <MODEL>
5

>  <REMARK>
 VINA RESULT:      -6.9      2.365      5.604
  Name = 
  2 active torsions:
  status: ('A' for Active; 'I' for Inactive)
    1  A    between atoms: C_5  and  N_12
    2  A    between atoms: N_11  and  C_13
                            x       y       z     vdW  Elec       q    Type
                         _______ _______ _______ _____ _____    ______ ____

>  <TORSDO>
F 2

$$$$
=
 OpenBabel11042417203D

 26 30  0  0  1  0  0  0  0  0999 V2000
  189.1010  177.5380  145.9860 C   0  0  0  0  0  3  0  0  0  0  0  0
  191.6530  173.1880  142.8790 C   0  0  0  0  0  2  0  0  0  0  0  0
  191.6370  175.5260  143.9490 C   0  0  1  0  0  3  0  0  0  0  0  0
  193.0040  175.1180  144.5260 C   0  0  2  0  0  3  0  0  0  0  0  0
  190.7980  174.3320  143.4590 C   0  0  1  0  0  3  0  0  0  0  0  0
  190.9080  176.2390  145.0390 C   0  0  0  0  0  0  0  0  0  0  0  0
  187.8250  177.8570  143.4090 C   0  0  0  0  0  2  0  0  0  0  0  0
  189.6920  176.9240  144.8660 C   0  0  0  0  0  0  0  0  0  0  0  0
  188.5830  175.5600  143.0910 C   0  0  1  0  0  3  0  0  0  0  0  0
  186.7740  177.0920  142.6250 C   0  0  0  0  0  2  0  0  0  0  0  0
  190.9190  176.7700  147.3970 C   0  0  0  0  0  3  0  0  0  0  0  0
  192.9830  175.1950  146.3590 S   0  0  0  0  0  0  0  0  0  0  0  0
  190.4340  172.8780  140.9520 C   0  0  1  0  0  3  0  0  0  0  0  0
  189.7160  177.4670  147.2430 C   0  0  0  0  0  3  0  0  0  0  0  0
  190.2620  171.4350  140.9950 N   0  0  0  0  0  1  0  0  0  0  0  0
  189.0410  176.9470  143.5080 C   0  0  1  0  0  3  0  0  0  0  0  0
  187.4410  175.8260  142.1290 C   0  0  0  0  0  2  0  0  0  0  0  0
  189.2460  173.5810  141.6320 C   0  0  0  0  0  2  0  0  0  0  0  0
  189.7380  174.7910  142.4310 C   0  0  2  0  0  3  0  0  0  0  0  0
  191.7000  173.2510  141.4720 O   0  0  0  0  0  0  0  0  0  0  0  0
  191.4950  176.1540  146.2850 C   0  0  0  0  0  0  0  0  0  0  0  0
  194.8450  175.6000  143.1220 N   0  0  0  0  0  0  0  0  0  0  0  0
  194.0280  176.0080  144.0050 N   0  0  0  0  0  0  0  0  0  0  0  0
  196.6870  177.0160  143.3720 O   0  0  0  0  0  0  0  0  0  0  0  0
  195.8580  176.4620  142.6020 C   0  0  0  0  0  0  0  0  0  0  0  0
  195.9320  176.6950  141.2010 N   0  0  0  0  0  1  0  0  0  0  0  0
  1 14  1  0  0  0  0
  3  4  1  0  0  0  0
  3  6  1  1  0  0  0
  4 23  1  6  0  0  0
  4 12  1  0  0  0  0
  5  2  1  6  0  0  0
  5  3  1  0  0  0  0
  6 21  2  0  0  0  0
  8  6  1  0  0  0  0
  8  1  2  0  0  0  0
  9 17  1  6  0  0  0
  9 16  1  0  0  0  0
 10  7  1  0  0  0  0
 13 15  1  1  0  0  0
 13 20  1  0  0  0  0
 13 18  1  0  0  0  0
 14 11  2  0  0  0  0
 16  7  1  1  0  0  0
 16  8  1  0  0  0  0
 17 10  1  0  0  0  0
 19 18  1  1  0  0  0
 19  9  1  0  0  0  0
 19  5  1  0  0  0  0
 20  2  1  0  0  0  0
 21 12  1  0  0  0  0
 21 11  1  0  0  0  0
 22 23  2  0  0  0  0
 25 22  1  0  0  0  0
 25 24  2  0  0  0  0
 26 25  1  0  0  0  0
M  END
>  <MODEL>
6

>  <REMARK>
 VINA RESULT:      -6.7      2.109      2.746
  Name = 
  2 active torsions:
  status: ('A' for Active; 'I' for Inactive)
    1  A    between atoms: C_5  and  N_12
    2  A    between atoms: N_11  and  C_13
                            x       y       z     vdW  Elec       q    Type
                         _______ _______ _______ _____ _____    ______ ____

>  <TORSDO>
F 2

$$$$
=
 OpenBabel11042417203D

 26 30  0  0  1  0  0  0  0  0999 V2000
  187.8410  177.0010  146.5170 C   0  0  0  0  0  3  0  0  0  0  0  0
  191.9580  176.5090  142.2860 C   0  0  0  0  0  2  0  0  0  0  0  0
  189.6390  176.0250  143.2850 C   0  0  1  0  0  3  0  0  0  0  0  0
  189.1110  176.4440  141.9020 C   0  0  2  0  0  3  0  0  0  0  0  0
  191.0820  176.4870  143.5550 C   0  0  1  0  0  3  0  0  0  0  0  0
  188.7200  176.6300  144.2950 C   0  0  0  0  0  0  0  0  0  0  0  0
  189.6090  175.0240  147.6740 C   0  0  0  0  0  2  0  0  0  0  0  0
  188.7530  176.3430  145.6710 C   0  0  0  0  0  0  0  0  0  0  0  0
  191.1890  175.9350  146.0510 C   0  0  1  0  0  3  0  0  0  0  0  0
  190.9960  175.0490  148.2910 C   0  0  0  0  0  2  0  0  0  0  0  0
  186.9110  178.1990  144.6230 C   0  0  0  0  0  3  0  0  0  0  0  0
  187.9550  177.8620  142.0510 S   0  0  0  0  0  0  0  0  0  0  0  0
  193.7660  175.3990  143.1770 C   0  0  1  0  0  3  0  0  0  0  0  0
  186.9190  177.9170  145.9940 C   0  0  0  0  0  3  0  0  0  0  0  0
  194.8360  176.2940  142.7650 N   0  0  0  0  0  1  0  0  0  0  0  0
  189.7820  175.3810  146.2030 C   0  0  1  0  0  3  0  0  0  0  0  0
  191.9730  175.2460  147.1510 C   0  0  0  0  0  2  0  0  0  0  0  0
  193.2610  175.7750  144.5810 C   0  0  0  0  0  2  0  0  0  0  0  0
  191.7400  175.6190  144.6520 C   0  0  2  0  0  3  0  0  0  0  0  0
  192.7460  175.3450  142.1920 O   0  0  0  0  0  0  0  0  0  0  0  0
  187.8250  177.5510  143.7910 C   0  0  0  0  0  0  0  0  0  0  0  0
  189.0850  174.4660  140.6040 N   0  0  0  0  0  0  0  0  0  0  0  0
  188.4310  175.3150  141.2870 N   0  0  0  0  0  0  0  0  0  0  0  0
  188.0370  172.3800  140.6860 O   0  0  0  0  0  0  0  0  0  0  0  0
  188.4330  173.3540  139.9920 C   0  0  0  0  0  0  0  0  0  0  0  0
  188.2280  173.3450  138.5850 N   0  0  0  0  0  1  0  0  0  0  0  0
  3  5  1  0  0  0  0
  3  6  1  1  0  0  0
  4 23  1  1  0  0  0
  4 12  1  0  0  0  0
  4  3  1  0  0  0  0
  5  2  1  6  0  0  0
  5 19  1  0  0  0  0
  6  8  1  0  0  0  0
  7 10  1  0  0  0  0
  8 16  1  0  0  0  0
  8  1  2  0  0  0  0
  9 16  1  0  0  0  0
  9 17  1  1  0  0  0
 11 14  2  0  0  0  0
 12 21  1  0  0  0  0
 13 15  1  6  0  0  0
 13 18  1  0  0  0  0
 14  1  1  0  0  0  0
 16  7  1  1  0  0  0
 17 10  1  0  0  0  0
 19 18  1  1  0  0  0
 19  9  1  0  0  0  0
 20  2  1  0  0  0  0
 20 13  1  0  0  0  0
 21  6  2  0  0  0  0
 21 11  1  0  0  0  0
 22 23  2  0  0  0  0
 25 22  1  0  0  0  0
 25 24  2  0  0  0  0
 26 25  1  0  0  0  0
M  END
>  <MODEL>
7

>  <REMARK>
 VINA RESULT:      -6.5      2.490      5.580
  Name = 
  2 active torsions:
  status: ('A' for Active; 'I' for Inactive)
    1  A    between atoms: C_5  and  N_12
    2  A    between atoms: N_11  and  C_13
                            x       y       z     vdW  Elec       q    Type
                         _______ _______ _______ _____ _____    ______ ____

>  <TORSDO>
F 2

$$$$
=
 OpenBabel11042417203D

 26 30  0  0  1  0  0  0  0  0999 V2000
  188.7930  176.2710  144.5400 C   0  0  0  0  0  3  0  0  0  0  0  0
  193.3880  172.5550  144.9510 C   0  0  0  0  0  2  0  0  0  0  0  0
  192.3320  174.8270  144.3760 C   0  0  1  0  0  3  0  0  0  0  0  0
  193.4900  175.4160  145.2000 C   0  0  2  0  0  3  0  0  0  0  0  0
  192.0920  173.3290  144.6400 C   0  0  1  0  0  3  0  0  0  0  0  0
  191.1090  175.6030  144.7400 C   0  0  0  0  0  0  0  0  0  0  0  0
  188.3970  174.6180  142.1990 C   0  0  0  0  0  2  0  0  0  0  0  0
  189.8720  175.4930  144.0810 C   0  0  0  0  0  0  0  0  0  0  0  0
  189.8620  173.0860  143.4090 C   0  0  1  0  0  3  0  0  0  0  0  0
  187.9380  173.1920  141.9520 C   0  0  0  0  0  2  0  0  0  0  0  0
  190.1900  177.2220  146.2810 C   0  0  0  0  0  3  0  0  0  0  0  0
  192.8470  176.4150  146.5990 S   0  0  0  0  0  0  0  0  0  0  0  0
  193.0160  170.8000  143.5100 C   0  0  1  0  0  3  0  0  0  0  0  0
  188.9540  177.1370  145.6300 C   0  0  0  0  0  3  0  0  0  0  0  0
  193.2760  169.6840  144.4050 N   0  0  0  0  0  1  0  0  0  0  0  0
  189.7260  174.5240  142.9370 C   0  0  1  0  0  3  0  0  0  0  0  0
  189.0730  172.2900  142.3870 C   0  0  0  0  0  2  0  0  0  0  0  0
  191.5200  171.1570  143.5160 C   0  0  0  0  0  2  0  0  0  0  0  0
  191.3420  172.6760  143.4560 C   0  0  2  0  0  3  0  0  0  0  0  0
  193.8720  171.8920  143.8060 O   0  0  0  0  0  0  0  0  0  0  0  0
  191.2530  176.4410  145.8270 C   0  0  0  0  0  0  0  0  0  0  0  0
  195.3040  175.7430  143.7170 N   0  0  0  0  0  0  0  0  0  0  0  0
  194.3150  176.2460  144.3390 N   0  0  0  0  0  0  0  0  0  0  0  0
  197.1170  177.1660  143.3360 O   0  0  0  0  0  0  0  0  0  0  0  0
  196.1260  176.5450  142.8690 C   0  0  0  0  0  0  0  0  0  0  0  0
  195.8220  176.6440  141.4830 N   0  0  0  0  0  1  0  0  0  0  0  0
  1 14  1  0  0  0  0
  3  5  1  0  0  0  0
  3  6  1  1  0  0  0
  3  4  1  0  0  0  0
  4 23  1  6  0  0  0
  4 12  1  0  0  0  0
  5  2  1  6  0  0  0
  6 21  2  0  0  0  0
  8  1  2  0  0  0  0
  8  6  1  0  0  0  0
  9 17  1  6  0  0  0
  9 19  1  0  0  0  0
 10  7  1  0  0  0  0
 10 17  1  0  0  0  0
 13 18  1  0  0  0  0
 13 20  1  0  0  0  0
 13 15  1  1  0  0  0
 14 11  2  0  0  0  0
 16  7  1  1  0  0  0
 16  9  1  0  0  0  0
 16  8  1  0  0  0  0
 19 18  1  1  0  0  0
 19  5  1  0  0  0  0
 20  2  1  0  0  0  0
 21 11  1  0  0  0  0
 21 12  1  0  0  0  0
 22 23  2  0  0  0  0
 25 24  2  0  0  0  0
 25 22  1  0  0  0  0
 26 25  1  0  0  0  0
M  END
>  <MODEL>
8

>  <REMARK>
 VINA RESULT:      -6.4      2.815      4.091
  Name = 
  2 active torsions:
  status: ('A' for Active; 'I' for Inactive)
    1  A    between atoms: C_5  and  N_12
    2  A    between atoms: N_11  and  C_13
                            x       y       z     vdW  Elec       q    Type
                         _______ _______ _______ _____ _____    ______ ____

>  <TORSDO>
F 2

$$$$
=
 OpenBabel11042417203D

 26 30  0  0  1  0  0  0  0  0999 V2000
  186.0210  177.0730  143.0500 C   0  0  0  0  0  3  0  0  0  0  0  0
  191.2420  176.3190  145.7460 C   0  0  0  0  0  2  0  0  0  0  0  0
  189.2490  175.4860  144.3510 C   0  0  1  0  0  3  0  0  0  0  0  0
  190.3260  174.9340  143.4000 C   0  0  2  0  0  3  0  0  0  0  0  0
  189.7790  176.5580  145.3200 C   0  0  1  0  0  3  0  0  0  0  0  0
  188.1780  176.0720  143.4910 C   0  0  0  0  0  0  0  0  0  0  0  0
  185.2000  176.8030  145.8110 C   0  0  0  0  0  2  0  0  0  0  0  0
  186.9350  176.5230  143.9680 C   0  0  0  0  0  0  0  0  0  0  0  0
  187.5340  177.3700  146.2410 C   0  0  1  0  0  3  0  0  0  0  0  0
  185.2780  177.6780  147.0480 C   0  0  0  0  0  2  0  0  0  0  0  0
  187.5960  176.7210  141.2370 C   0  0  0  0  0  3  0  0  0  0  0  0
  190.1300  175.6440  141.7180 S   0  0  0  0  0  0  0  0  0  0  0  0
  190.9250  176.6120  148.0060 C   0  0  1  0  0  3  0  0  0  0  0  0
  186.3480  177.1640  141.6900 C   0  0  0  0  0  3  0  0  0  0  0  0
  192.0060  177.5420  148.2900 N   0  0  0  0  0  1  0  0  0  0  0  0
  186.6330  176.4440  145.4420 C   0  0  1  0  0  3  0  0  0  0  0  0
  186.7270  177.6790  147.4870 C   0  0  0  0  0  2  0  0  0  0  0  0
  189.6280  177.3750  147.6900 C   0  0  0  0  0  2  0  0  0  0  0  0
  188.8660  176.6750  146.5630 C   0  0  2  0  0  3  0  0  0  0  0  0
  191.3080  175.6850  147.0030 O   0  0  0  0  0  0  0  0  0  0  0  0
  188.5000  176.1860  142.1550 C   0  0  0  0  0  0  0  0  0  0  0  0
  191.2480  172.7710  143.1520 N   0  0  0  0  0  0  0  0  0  0  0  0
  190.2150  173.4870  143.3410 N   0  0  0  0  0  0  0  0  0  0  0  0
  191.8900  170.6240  143.8130 O   0  0  0  0  0  0  0  0  0  0  0  0
  191.1570  171.3470  143.0890 C   0  0  0  0  0  0  0  0  0  0  0  0
  190.2270  170.7410  142.1990 N   0  0  0  0  0  1  0  0  0  0  0  0
  1  8  1  0  0  0  0
  2 20  1  0  0  0  0
  3  6  1  6  0  0  0
  3  5  1  0  0  0  0
  4 23  1  6  0  0  0
  4  3  1  0  0  0  0
  5  2  1  1  0  0  0
  5 19  1  0  0  0  0
  6  8  2  0  0  0  0
  7 10  1  0  0  0  0
  8 16  1  0  0  0  0
  9 19  1  0  0  0  0
  9 17  1  1  0  0  0
 10 17  1  0  0  0  0
 11 14  1  0  0  0  0
 11 21  2  0  0  0  0
 12 21  1  0  0  0  0
 12  4  1  0  0  0  0
 13 15  1  6  0  0  0
 14  1  2  0  0  0  0
 16  7  1  6  0  0  0
 16  9  1  0  0  0  0
 18 13  1  0  0  0  0
 19 18  1  1  0  0  0
 20 13  1  0  0  0  0
 21  6  1  0  0  0  0
 22 23  2  0  0  0  0
 25 22  1  0  0  0  0
 25 24  2  0  0  0  0
 26 25  1  0  0  0  0
M  END
>  <MODEL>
9

>  <REMARK>
 VINA RESULT:      -6.3      2.338      5.219
  Name = 
  2 active torsions:
  status: ('A' for Active; 'I' for Inactive)
    1  A    between atoms: C_5  and  N_12
    2  A    between atoms: N_11  and  C_13
                            x       y       z     vdW  Elec       q    Type
                         _______ _______ _______ _____ _____    ______ ____

>  <TORSDO>
F 2

$$$$
