=
 OpenBabel11042419593D

 41 45  0  0  1  0  0  0  0  0999 V2000
  192.4370  175.6210  143.3150 C   0  0  2  0  0  3  0  0  0  0  0  0
  190.4040  171.2430  142.5160 Cl  0  0  0  0  0  0  0  0  0  0  0  0
  190.1270  172.9620  142.5370 N   0  0  0  0  0  0  0  0  0  0  0  0
  190.1440  174.0140  145.6140 C   0  0  0  0  0  2  0  0  0  0  0  0
  190.5880  174.6180  144.2900 C   0  0  2  0  0  3  0  0  0  0  0  0
  192.1880  174.3510  141.2340 N   0  0  0  0  0  2  0  0  0  0  0  0
  191.1740  173.5520  143.3920 C   0  0  2  0  0  3  0  0  0  0  0  0
  190.8500  174.6540  140.9530 N   0  0  0  0  0  2  0  0  0  0  0  0
  191.6420  175.5960  144.5370 N   0  0  2  0  0  0  0  0  0  0  0  0
  190.3490  177.0190  146.0600 C   0  0  0  0  0  2  0  0  0  0  0  0
  189.0440  174.8210  146.3180 C   0  0  0  0  0  2  0  0  0  0  0  0
  191.0310  176.9100  144.7000 C   0  0  0  0  0  2  0  0  0  0  0  0
  190.1130  173.4110  141.1370 C   0  0  2  0  0  3  0  0  0  0  0  0
  188.9920  176.3260  146.0060 C   0  0  1  0  0  3  0  0  0  0  0  0
  192.3480  174.2400  142.6840 C   0  0  2  0  0  3  0  0  0  0  0  0
  188.1720  173.5080  138.5940 N   0  0  0  0  0  0  0  0  0  0  0  0
  188.5420  174.4210  139.5450 O   0  0  0  0  0  0  0  0  0  0  0  0
  188.3860  172.4120  139.5140 C   0  0  0  0  0  2  0  0  0  0  0  0
  188.6830  173.4460  140.5510 C   0  0  1  0  0  3  0  0  0  0  0  0
  189.2290  174.6700  136.4280 O   0  0  0  0  0  0  0  0  0  0  0  0
  189.2260  172.0610  136.4320 O   0  0  0  0  0  1  0  0  0  0  0  0
  189.4080  173.4780  137.3380 P   0  0  0  0  0  0  0  0  0  0  0  0
  190.9640  173.5060  138.0010 O   0  0  0  0  0  1  0  0  0  0  0  0
  187.9650  177.0390  146.8840 C   0  0  0  0  0  2  0  0  0  0  0  0
  185.1670  176.6450  146.3280 O   0  0  0  0  0  0  0  0  0  0  0  0
  187.1120  177.9250  146.1000 N   0  0  0  0  0  2  0  0  0  0  0  0
  185.7450  177.6350  145.8010 C   0  0  0  0  0  0  0  0  0  0  0  0
  184.8630  178.6600  144.6860 S   0  0  0  0  0  0  0  0  0  0  0  0
  183.4910  178.9360  145.2390 O   0  0  0  0  0  0  0  0  0  0  0  0
  185.6040  179.9590  144.5170 O   0  0  0  0  0  0  0  0  0  0  0  0
  184.7410  177.8590  143.1570 N   0  0  0  0  0  2  0  0  0  0  0  0
  185.9400  178.1800  142.3940 C   0  0  0  0  0  2  0  0  0  0  0  0
  186.9970  175.9700  142.8280 C   0  0  0  0  0  1  0  0  0  0  0  0
  186.5030  176.9210  141.7570 C   0  0  0  0  0  2  0  0  0  0  0  0
  193.8850  175.9680  143.6430 C   0  0  0  0  0  2  0  0  0  0  0  0
  196.2840  173.5170  142.2940 C   0  0  0  0  0  1  0  0  0  0  0  0
  195.9930  174.8270  143.0000 C   0  0  2  0  0  3  0  0  0  0  0  0
  195.5040  173.5230  145.6050 N   0  0  0  0  0  1  0  0  0  0  0  0
  196.7180  174.8780  144.2600 N   0  0  0  0  0  2  0  0  0  0  0  0
  195.5230  174.7910  145.0060 N   0  0  0  0  0  0  0  0  0  0  0  0
  194.7260  174.7060  143.7920 C   0  0  1  0  0  3  0  0  0  0  0  0
  1 35  1  1  0  0  0
  1  9  1  0  0  0  0
  2  3  1  0  0  0  0
  4 11  1  0  0  0  0
  5  9  1  0  0  0  0
  5  4  1  1  0  0  0
  7  3  1  6  0  0  0
  7  5  1  0  0  0  0
  8  6  1  0  0  0  0
  9 12  1  6  0  0  0
 12 10  1  0  0  0  0
 13  8  1  1  0  0  0
 13  3  1  0  0  0  0
 14 10  1  0  0  0  0
 14 11  1  0  0  0  0
 14 24  1  1  0  0  0
 15  6  1  6  0  0  0
 15  1  1  0  0  0  0
 15  7  1  0  0  0  0
 16 18  1  0  0  0  0
 16 17  1  0  0  0  0
 17 19  1  0  0  0  0
 19 18  1  6  0  0  0
 19 13  1  0  0  0  0
 20 22  2  0  0  0  0
 21 22  1  0  0  0  0
 22 23  1  0  0  0  0
 22 16  1  0  0  0  0
 26 24  1  0  0  0  0
 27 26  1  0  0  0  0
 27 25  2  0  0  0  0
 28 29  2  0  0  0  0
 28 27  1  0  0  0  0
 30 28  2  0  0  0  0
 31 28  1  0  0  0  0
 32 31  1  0  0  0  0
 34 32  1  0  0  0  0
 34 33  1  0  0  0  0
 37 36  1  6  0  0  0
 37 41  1  0  0  0  0
 37 39  1  0  0  0  0
 39 40  1  0  0  0  0
 40 38  1  0  0  0  0
 41 35  1  6  0  0  0
 41 40  1  0  0  0  0
M  END
>  <MODEL>
1

>  <REMARK>
 VINA RESULT:      -7.1      0.000      0.000
  Name = 
  10 active torsions:
  status: ('A' for Active; 'I' for Inactive)
    1  A    between atoms: C_1  and  C_30
    2  A    between atoms: S_7  and  N_21
    3  A    between atoms: S_7  and  C_41
    4  A    between atoms: N_10  and  P_29
    5  A    between atoms: N_16  and  C_18
    6  A    between atoms: C_18  and  C_37
    7  A    between atoms: N_21  and  C_40
    8  A    between atoms: C_24  and  C_40
    9  A    between atoms: C_30  and  C_34
   10  A    between atoms: C_36  and  C_39
                            x       y       z     vdW  Elec       q    Type
                         _______ _______ _______ _____ _____    ______ ____

>  <TORSDO>
F 10

$$$$
=
 OpenBabel11042419593D

 41 45  0  0  1  0  0  0  0  0999 V2000
  187.7190  176.0780  145.5990 C   0  0  2  0  0  3  0  0  0  0  0  0
  188.4910  178.3710  141.3460 Cl  0  0  0  0  0  0  0  0  0  0  0  0
  188.7910  176.9180  142.2590 N   0  0  0  0  0  0  0  0  0  0  0  0
  190.8840  177.5730  144.6610 C   0  0  0  0  0  2  0  0  0  0  0  0
  189.6980  176.6310  144.5220 C   0  0  2  0  0  3  0  0  0  0  0  0
  186.4550  175.9850  143.5020 N   0  0  0  0  0  2  0  0  0  0  0  0
  188.6120  177.2650  143.6810 C   0  0  2  0  0  3  0  0  0  0  0  0
  187.2750  175.0990  142.7930 N   0  0  0  0  0  2  0  0  0  0  0  0
  189.1250  176.3810  145.8420 N   0  0  2  0  0  0  0  0  0  0  0  0
  191.1690  175.4950  146.8670 C   0  0  0  0  0  2  0  0  0  0  0  0
  192.2090  176.8530  144.9500 C   0  0  0  0  0  2  0  0  0  0  0  0
  189.7490  175.1880  146.4020 C   0  0  0  0  0  2  0  0  0  0  0  0
  187.8870  175.8860  141.7310 C   0  0  2  0  0  3  0  0  0  0  0  0
  192.1080  175.4960  145.6660 C   0  0  1  0  0  3  0  0  0  0  0  0
  187.3000  176.8300  144.3460 C   0  0  2  0  0  3  0  0  0  0  0  0
  189.6540  173.3490  140.9030 N   0  0  0  0  0  0  0  0  0  0  0  0
  189.8880  174.6970  140.9540 O   0  0  0  0  0  0  0  0  0  0  0  0
  188.2420  173.5690  140.6720 C   0  0  0  0  0  2  0  0  0  0  0  0
  188.5590  175.0290  140.6340 C   0  0  1  0  0  3  0  0  0  0  0  0
  190.3800  173.7630  143.4440 O   0  0  0  0  0  1  0  0  0  0  0  0
  191.0640  171.4600  142.4260 O   0  0  0  0  0  0  0  0  0  0  0  0
  189.8930  172.6770  142.5140 P   0  0  0  0  0  0  0  0  0  0  0  0
  188.4620  172.0150  143.1270 O   0  0  0  0  0  1  0  0  0  0  0  0
  193.4910  174.9620  146.0370 C   0  0  0  0  0  2  0  0  0  0  0  0
  194.7640  173.7500  143.7550 O   0  0  0  0  0  0  0  0  0  0  0  0
  194.5360  175.5640  145.2160 N   0  0  0  0  0  2  0  0  0  0  0  0
  195.1770  174.8780  144.1370 C   0  0  0  0  0  0  0  0  0  0  0  0
  196.5570  175.6100  143.3430 S   0  0  0  0  0  0  0  0  0  0  0  0
  196.5780  177.0860  143.6360 O   0  0  0  0  0  0  0  0  0  0  0  0
  197.8200  174.9790  143.8630 O   0  0  0  0  0  0  0  0  0  0  0  0
  196.4350  175.3420  141.6370 N   0  0  0  0  0  2  0  0  0  0  0  0
  195.3100  176.1260  141.1460 C   0  0  0  0  0  2  0  0  0  0  0  0
  193.3730  174.6540  140.6290 C   0  0  0  0  0  1  0  0  0  0  0  0
  194.5820  175.3630  140.0530 C   0  0  0  0  0  2  0  0  0  0  0  0
  186.8800  176.5160  146.7940 C   0  0  0  0  0  2  0  0  0  0  0  0
  184.3150  178.6210  145.1900 C   0  0  0  0  0  1  0  0  0  0  0  0
  184.7640  177.7270  146.3290 C   0  0  2  0  0  3  0  0  0  0  0  0
  186.2790  179.8830  147.6640 N   0  0  0  0  0  1  0  0  0  0  0  0
  184.5630  178.4090  147.5980 N   0  0  0  0  0  2  0  0  0  0  0  0
  185.9540  178.5260  147.8090 N   0  0  0  0  0  0  0  0  0  0  0  0
  186.2410  177.8760  146.5400 C   0  0  1  0  0  3  0  0  0  0  0  0
  1  9  1  0  0  0  0
  1 35  1  1  0  0  0
  2  3  1  0  0  0  0
  4 11  1  0  0  0  0
  5  4  1  1  0  0  0
  5  9  1  0  0  0  0
  7  3  1  6  0  0  0
  7 15  1  0  0  0  0
  7  5  1  0  0  0  0
  8  6  1  0  0  0  0
  9 12  1  6  0  0  0
 11 14  1  0  0  0  0
 12 10  1  0  0  0  0
 13  3  1  0  0  0  0
 13  8  1  1  0  0  0
 14 24  1  1  0  0  0
 14 10  1  0  0  0  0
 15  6  1  6  0  0  0
 15  1  1  0  0  0  0
 16 17  1  0  0  0  0
 16 22  1  0  0  0  0
 18 16  1  0  0  0  0
 19 18  1  1  0  0  0
 19 17  1  0  0  0  0
 19 13  1  0  0  0  0
 21 22  2  0  0  0  0
 22 23  1  0  0  0  0
 22 20  1  0  0  0  0
 25 27  2  0  0  0  0
 26 24  1  0  0  0  0
 27 26  1  0  0  0  0
 28 29  2  0  0  0  0
 28 30  2  0  0  0  0
 28 27  1  0  0  0  0
 31 28  1  0  0  0  0
 32 31  1  0  0  0  0
 34 33  1  0  0  0  0
 34 32  1  0  0  0  0
 37 36  1  6  0  0  0
 37 41  1  0  0  0  0
 37 39  1  0  0  0  0
 38 40  1  0  0  0  0
 39 40  1  0  0  0  0
 41 35  1  1  0  0  0
 41 40  1  0  0  0  0
M  END
>  <MODEL>
2

>  <REMARK>
 VINA RESULT:      -6.8      3.938      7.819
  Name = 
  10 active torsions:
  status: ('A' for Active; 'I' for Inactive)
    1  A    between atoms: C_1  and  C_30
    2  A    between atoms: S_7  and  N_21
    3  A    between atoms: S_7  and  C_41
    4  A    between atoms: N_10  and  P_29
    5  A    between atoms: N_16  and  C_18
    6  A    between atoms: C_18  and  C_37
    7  A    between atoms: N_21  and  C_40
    8  A    between atoms: C_24  and  C_40
    9  A    between atoms: C_30  and  C_34
   10  A    between atoms: C_36  and  C_39
                            x       y       z     vdW  Elec       q    Type
                         _______ _______ _______ _____ _____    ______ ____

>  <TORSDO>
F 10

$$$$
=
 OpenBabel11042419593D

 41 45  0  0  1  0  0  0  0  0999 V2000
  190.9460  173.3670  142.0320 C   0  0  2  0  0  3  0  0  0  0  0  0
  194.7360  176.4240  141.5480 Cl  0  0  0  0  0  0  0  0  0  0  0  0
  193.7310  175.5660  142.6830 N   0  0  0  0  0  0  0  0  0  0  0  0
  190.7730  176.9190  142.7300 C   0  0  0  0  0  2  0  0  0  0  0  0
  191.2850  175.4950  142.8900 C   0  0  2  0  0  3  0  0  0  0  0  0
  193.3480  172.8980  141.9030 N   0  0  0  0  0  2  0  0  0  0  0  0
  192.4710  175.2530  141.9820 C   0  0  2  0  0  3  0  0  0  0  0  0
  193.6990  173.2000  143.2250 N   0  0  0  0  0  2  0  0  0  0  0  0
  190.2400  174.5600  142.4860 N   0  0  2  0  0  0  0  0  0  0  0  0
  188.5410  175.3420  144.0710 C   0  0  0  0  0  2  0  0  0  0  0  0
  190.0190  177.4410  143.9610 C   0  0  0  0  0  2  0  0  0  0  0  0
  189.4600  174.1960  143.6630 C   0  0  0  0  0  2  0  0  0  0  0  0
  194.5070  174.4100  143.1550 C   0  0  2  0  0  3  0  0  0  0  0  0
  189.3400  176.3830  144.8480 C   0  0  1  0  0  3  0  0  0  0  0  0
  192.2900  173.8150  141.4790 C   0  0  2  0  0  3  0  0  0  0  0  0
  196.1130  173.3780  145.7240 N   0  0  0  0  0  0  0  0  0  0  0  0
  194.8620  173.9000  145.5290 O   0  0  0  0  0  0  0  0  0  0  0  0
  196.6270  174.0940  144.5760 C   0  0  0  0  0  2  0  0  0  0  0  0
  195.2750  174.7190  144.4600 C   0  0  1  0  0  3  0  0  0  0  0  0
  197.1130  170.9410  146.1880 O   0  0  0  0  0  1  0  0  0  0  0  0
  196.3870  171.4230  143.7300 O   0  0  0  0  0  0  0  0  0  0  0  0
  196.0600  171.6530  145.3730 P   0  0  0  0  0  0  0  0  0  0  0  0
  194.5410  170.9960  145.7240 O   0  0  0  0  0  1  0  0  0  0  0  0
  188.4950  177.0370  145.9400 C   0  0  0  0  0  2  0  0  0  0  0  0
  185.6470  176.7280  146.2390 O   0  0  0  0  0  0  0  0  0  0  0  0
  187.4720  177.9110  145.3760 N   0  0  0  0  0  2  0  0  0  0  0  0
  186.0700  177.6600  145.5030 C   0  0  0  0  0  0  0  0  0  0  0  0
  184.9270  178.6540  144.6210 S   0  0  0  0  0  0  0  0  0  0  0  0
  183.7330  178.9340  145.4910 O   0  0  0  0  0  0  0  0  0  0  0  0
  185.5880  179.9540  144.2470 O   0  0  0  0  0  0  0  0  0  0  0  0
  184.4390  177.8180  143.1860 N   0  0  0  0  0  2  0  0  0  0  0  0
  185.3090  178.2550  142.1030 C   0  0  0  0  0  2  0  0  0  0  0  0
  187.5820  177.8270  141.1860 C   0  0  0  0  0  1  0  0  0  0  0  0
  186.3590  177.1950  141.8200 C   0  0  0  0  0  2  0  0  0  0  0  0
  190.1320  172.6600  140.9540 C   0  0  0  0  0  2  0  0  0  0  0  0
  190.8740  173.8830  137.5580 C   0  0  0  0  0  1  0  0  0  0  0  0
  190.1660  172.9150  138.4860 C   0  0  2  0  0  3  0  0  0  0  0  0
  188.0220  174.8360  139.1470 N   0  0  0  0  0  1  0  0  0  0  0  0
  188.7400  172.9110  138.1980 N   0  0  0  0  0  2  0  0  0  0  0  0
  188.4420  173.5280  139.4320 N   0  0  0  0  0  0  0  0  0  0  0  0
  189.8520  173.5950  139.7840 C   0  0  1  0  0  3  0  0  0  0  0  0
  1 35  1  6  0  0  0
  1  9  1  0  0  0  0
  2  3  1  0  0  0  0
  3 13  1  0  0  0  0
  4 11  1  0  0  0  0
  5  4  1  6  0  0  0
  6  8  1  0  0  0  0
  7  3  1  1  0  0  0
  7  5  1  0  0  0  0
  9  5  1  0  0  0  0
  9 12  1  1  0  0  0
 10 14  1  0  0  0  0
 11 14  1  0  0  0  0
 12 10  1  0  0  0  0
 13  8  1  1  0  0  0
 13 19  1  0  0  0  0
 14 24  1  1  0  0  0
 15  6  1  1  0  0  0
 15  7  1  0  0  0  0
 15  1  1  0  0  0  0
 17 16  1  0  0  0  0
 18 16  1  0  0  0  0
 19 18  1  6  0  0  0
 19 17  1  0  0  0  0
 21 22  2  0  0  0  0
 22 23  1  0  0  0  0
 22 16  1  0  0  0  0
 22 20  1  0  0  0  0
 26 27  1  0  0  0  0
 26 24  1  0  0  0  0
 27 25  2  0  0  0  0
 28 29  2  0  0  0  0
 28 27  1  0  0  0  0
 30 28  2  0  0  0  0
 31 28  1  0  0  0  0
 32 31  1  0  0  0  0
 33 34  1  0  0  0  0
 34 32  1  0  0  0  0
 37 36  1  6  0  0  0
 37 41  1  0  0  0  0
 38 40  1  0  0  0  0
 39 37  1  0  0  0  0
 39 40  1  0  0  0  0
 40 41  1  0  0  0  0
 41 35  1  1  0  0  0
M  END
>  <MODEL>
3

>  <REMARK>
 VINA RESULT:      -6.7      3.698      6.015
  Name = 
  10 active torsions:
  status: ('A' for Active; 'I' for Inactive)
    1  A    between atoms: C_1  and  C_30
    2  A    between atoms: S_7  and  N_21
    3  A    between atoms: S_7  and  C_41
    4  A    between atoms: N_10  and  P_29
    5  A    between atoms: N_16  and  C_18
    6  A    between atoms: C_18  and  C_37
    7  A    between atoms: N_21  and  C_40
    8  A    between atoms: C_24  and  C_40
    9  A    between atoms: C_30  and  C_34
   10  A    between atoms: C_36  and  C_39
                            x       y       z     vdW  Elec       q    Type
                         _______ _______ _______ _____ _____    ______ ____

>  <TORSDO>
F 10

$$$$
=
 OpenBabel11042419593D

 41 45  0  0  1  0  0  0  0  0999 V2000
  193.3950  174.4360  142.5260 C   0  0  2  0  0  3  0  0  0  0  0  0
  190.3110  170.6610  142.1010 Cl  0  0  0  0  0  0  0  0  0  0  0  0
  190.4820  172.3870  141.9470 N   0  0  0  0  0  0  0  0  0  0  0  0
  190.7630  173.7050  144.9070 C   0  0  0  0  0  2  0  0  0  0  0  0
  191.3490  174.0400  143.5430 C   0  0  2  0  0  3  0  0  0  0  0  0
  192.8320  173.0670  140.5720 N   0  0  0  0  0  2  0  0  0  0  0  0
  191.6450  172.7740  142.7690 C   0  0  2  0  0  3  0  0  0  0  0  0
  191.6170  173.6710  140.2270 N   0  0  0  0  0  2  0  0  0  0  0  0
  192.6180  174.7370  143.7230 N   0  0  2  0  0  0  0  0  0  0  0  0
  191.7290  176.5880  145.0630 C   0  0  0  0  0  2  0  0  0  0  0  0
  189.9050  174.8330  145.4990 C   0  0  0  0  0  2  0  0  0  0  0  0
  192.3620  176.1730  143.7400 C   0  0  0  0  0  2  0  0  0  0  0  0
  190.5860  172.6810  140.5100 C   0  0  2  0  0  3  0  0  0  0  0  0
  190.2400  176.2620  145.0400 C   0  0  1  0  0  3  0  0  0  0  0  0
  192.9560  173.0670  142.0300 C   0  0  2  0  0  3  0  0  0  0  0  0
  188.8050  173.2820  137.9200 N   0  0  0  0  0  0  0  0  0  0  0  0
  189.3000  174.0550  138.9350 O   0  0  0  0  0  0  0  0  0  0  0  0
  188.7700  172.1170  138.7790 C   0  0  0  0  0  2  0  0  0  0  0  0
  189.2140  173.0190  139.8850 C   0  0  1  0  0  3  0  0  0  0  0  0
  191.1120  172.1260  137.2150 O   0  0  0  0  0  1  0  0  0  0  0  0
  190.7810  174.5870  136.4150 O   0  0  0  0  0  1  0  0  0  0  0  0
  190.0620  173.0830  136.7030 P   0  0  0  0  0  0  0  0  0  0  0  0
  189.4290  172.4940  135.2490 O   0  0  0  0  0  0  0  0  0  0  0  0
  189.4280  177.2970  145.8160 C   0  0  0  0  0  2  0  0  0  0  0  0
  186.6340  176.8120  146.3230 O   0  0  0  0  0  0  0  0  0  0  0  0
  188.3110  177.8040  145.0270 N   0  0  0  0  0  2  0  0  0  0  0  0
  186.9470  177.4670  145.2910 C   0  0  0  0  0  0  0  0  0  0  0  0
  185.6970  177.9620  144.1680 S   0  0  0  0  0  0  0  0  0  0  0  0
  184.3930  178.1090  144.9030 O   0  0  0  0  0  0  0  0  0  0  0  0
  186.0770  179.2840  143.5560 O   0  0  0  0  0  0  0  0  0  0  0  0
  185.5500  176.7680  142.9230 N   0  0  0  0  0  2  0  0  0  0  0  0
  186.2890  177.2480  141.7620 C   0  0  0  0  0  2  0  0  0  0  0  0
  187.5910  175.2150  142.3610 C   0  0  0  0  0  1  0  0  0  0  0  0
  187.6490  176.5770  141.6980 C   0  0  0  0  0  2  0  0  0  0  0  0
  194.8830  174.4350  142.8580 C   0  0  0  0  0  2  0  0  0  0  0  0
  196.1580  172.1180  145.4250 C   0  0  0  0  0  1  0  0  0  0  0  0
  196.3770  173.2650  144.4570 C   0  0  2  0  0  3  0  0  0  0  0  0
  195.1840  175.2650  146.2740 N   0  0  0  0  0  1  0  0  0  0  0  0
  196.9540  174.4000  145.1610 N   0  0  0  0  0  2  0  0  0  0  0  0
  195.7730  175.1560  145.0060 N   0  0  0  0  0  0  0  0  0  0  0  0
  195.1130  174.0590  144.3160 C   0  0  1  0  0  3  0  0  0  0  0  0
  1 35  1  1  0  0  0
  1  9  1  0  0  0  0
  3  2  1  0  0  0  0
  4 11  1  0  0  0  0
  5  9  1  0  0  0  0
  5  4  1  1  0  0  0
  7  3  1  6  0  0  0
  7  5  1  0  0  0  0
  8  6  1  0  0  0  0
  9 12  1  6  0  0  0
 12 10  1  0  0  0  0
 13  8  1  1  0  0  0
 13  3  1  0  0  0  0
 14 10  1  0  0  0  0
 14 11  1  0  0  0  0
 14 24  1  1  0  0  0
 15  6  1  6  0  0  0
 15  1  1  0  0  0  0
 15  7  1  0  0  0  0
 16 18  1  0  0  0  0
 16 17  1  0  0  0  0
 17 19  1  0  0  0  0
 19 18  1  6  0  0  0
 19 13  1  0  0  0  0
 21 22  1  0  0  0  0
 22 20  1  0  0  0  0
 22 16  1  0  0  0  0
 23 22  2  0  0  0  0
 26 27  1  0  0  0  0
 26 24  1  0  0  0  0
 27 25  2  0  0  0  0
 28 29  2  0  0  0  0
 28 27  1  0  0  0  0
 30 28  2  0  0  0  0
 31 28  1  0  0  0  0
 32 31  1  0  0  0  0
 34 32  1  0  0  0  0
 34 33  1  0  0  0  0
 37 39  1  0  0  0  0
 37 36  1  1  0  0  0
 40 39  1  0  0  0  0
 40 38  1  0  0  0  0
 41 35  1  6  0  0  0
 41 37  1  0  0  0  0
 41 40  1  0  0  0  0
M  END
>  <MODEL>
4

>  <REMARK>
 VINA RESULT:      -6.5      1.281      1.638
  Name = 
  10 active torsions:
  status: ('A' for Active; 'I' for Inactive)
    1  A    between atoms: C_1  and  C_30
    2  A    between atoms: S_7  and  N_21
    3  A    between atoms: S_7  and  C_41
    4  A    between atoms: N_10  and  P_29
    5  A    between atoms: N_16  and  C_18
    6  A    between atoms: C_18  and  C_37
    7  A    between atoms: N_21  and  C_40
    8  A    between atoms: C_24  and  C_40
    9  A    between atoms: C_30  and  C_34
   10  A    between atoms: C_36  and  C_39
                            x       y       z     vdW  Elec       q    Type
                         _______ _______ _______ _____ _____    ______ ____

>  <TORSDO>
F 10

$$$$
=
 OpenBabel11042419593D

 41 45  0  0  1  0  0  0  0  0999 V2000
  192.8300  175.6930  143.3510 C   0  0  2  0  0  3  0  0  0  0  0  0
  191.6780  170.9400  143.5100 Cl  0  0  0  0  0  0  0  0  0  0  0  0
  191.0990  172.5360  143.1230 N   0  0  0  0  0  0  0  0  0  0  0  0
  190.6840  174.2220  145.8730 C   0  0  0  0  0  2  0  0  0  0  0  0
  191.1170  174.5940  144.4630 C   0  0  2  0  0  3  0  0  0  0  0  0
  192.9770  173.9730  141.6120 N   0  0  0  0  0  2  0  0  0  0  0  0
  191.9530  173.4890  143.8570 C   0  0  2  0  0  3  0  0  0  0  0  0
  191.6330  173.9450  141.2200 N   0  0  0  0  0  2  0  0  0  0  0  0
  191.9580  175.7860  144.5170 N   0  0  2  0  0  0  0  0  0  0  0  0
  190.3150  177.2340  145.6200 C   0  0  0  0  0  2  0  0  0  0  0  0
  189.4050  174.9390  146.3300 C   0  0  0  0  0  2  0  0  0  0  0  0
  191.1110  176.9610  144.3480 C   0  0  0  0  0  2  0  0  0  0  0  0
  191.1170  172.6550  141.6580 C   0  0  2  0  0  3  0  0  0  0  0  0
  189.1120  176.3000  145.6770 C   0  0  1  0  0  3  0  0  0  0  0  0
  193.0380  174.2160  143.0540 C   0  0  2  0  0  3  0  0  0  0  0  0
  188.1190  173.4710  140.8870 N   0  0  0  0  0  0  0  0  0  0  0  0
  188.6700  172.6590  141.8430 O   0  0  0  0  0  0  0  0  0  0  0  0
  189.2400  173.2430  140.0010 C   0  0  0  0  0  2  0  0  0  0  0  0
  189.7550  172.2870  141.0270 C   0  0  1  0  0  3  0  0  0  0  0  0
  189.5600  175.4820  141.9040 O   0  0  0  0  0  1  0  0  0  0  0  0
  187.1240  175.2560  142.8100 O   0  0  0  0  0  1  0  0  0  0  0  0
  188.1550  175.1310  141.4760 P   0  0  0  0  0  0  0  0  0  0  0  0
  187.6430  176.2190  140.2860 O   0  0  0  0  0  0  0  0  0  0  0  0
  187.9080  176.9780  146.3280 C   0  0  0  0  0  2  0  0  0  0  0  0
  185.0770  177.3880  145.9910 O   0  0  0  0  0  0  0  0  0  0  0  0
  187.2800  177.9380  145.4270 N   0  0  0  0  0  2  0  0  0  0  0  0
  185.8640  178.0410  145.2550 C   0  0  0  0  0  0  0  0  0  0  0  0
  185.2160  179.0820  144.0030 S   0  0  0  0  0  0  0  0  0  0  0  0
  183.7170  178.9560  143.9740 O   0  0  0  0  0  0  0  0  0  0  0  0
  185.5910  180.5080  144.3010 O   0  0  0  0  0  0  0  0  0  0  0  0
  185.8840  178.6140  142.4760 N   0  0  0  0  0  2  0  0  0  0  0  0
  184.9740  177.6500  141.8720 C   0  0  0  0  0  2  0  0  0  0  0  0
  183.0700  178.5200  140.5270 C   0  0  0  0  0  1  0  0  0  0  0  0
  184.5360  178.1370  140.5020 C   0  0  0  0  0  2  0  0  0  0  0  0
  194.1630  176.3740  143.6440 C   0  0  0  0  0  2  0  0  0  0  0  0
  196.6170  174.8310  141.3690 C   0  0  0  0  0  1  0  0  0  0  0  0
  196.2020  175.9590  142.2930 C   0  0  2  0  0  3  0  0  0  0  0  0
  196.9210  174.4640  144.7360 N   0  0  0  0  0  1  0  0  0  0  0  0
  197.2340  176.1790  143.2940 N   0  0  0  0  0  2  0  0  0  0  0  0
  196.4000  175.7000  144.3270 N   0  0  0  0  0  0  0  0  0  0  0  0
  195.3260  175.4250  143.3850 C   0  0  1  0  0  3  0  0  0  0  0  0
  1 35  1  1  0  0  0
  1  9  1  0  0  0  0
  3  2  1  0  0  0  0
  4 11  1  0  0  0  0
  5  9  1  0  0  0  0
  5  4  1  1  0  0  0
  7  3  1  6  0  0  0
  7  5  1  0  0  0  0
  8  6  1  0  0  0  0
  9 12  1  6  0  0  0
 10 14  1  0  0  0  0
 12 10  1  0  0  0  0
 13  8  1  1  0  0  0
 13  3  1  0  0  0  0
 14 24  1  1  0  0  0
 14 11  1  0  0  0  0
 15  6  1  6  0  0  0
 15  1  1  0  0  0  0
 15  7  1  0  0  0  0
 16 22  1  0  0  0  0
 16 17  1  0  0  0  0
 18 16  1  0  0  0  0
 19 18  1  6  0  0  0
 19 13  1  0  0  0  0
 19 17  1  0  0  0  0
 22 20  1  0  0  0  0
 22 21  1  0  0  0  0
 23 22  2  0  0  0  0
 26 24  1  0  0  0  0
 27 26  1  0  0  0  0
 27 25  2  0  0  0  0
 28 30  2  0  0  0  0
 28 27  1  0  0  0  0
 29 28  2  0  0  0  0
 31 28  1  0  0  0  0
 32 31  1  0  0  0  0
 34 33  1  0  0  0  0
 34 32  1  0  0  0  0
 37 36  1  6  0  0  0
 37 39  1  0  0  0  0
 37 41  1  0  0  0  0
 39 40  1  0  0  0  0
 40 38  1  0  0  0  0
 41 35  1  1  0  0  0
 41 40  1  0  0  0  0
M  END
>  <MODEL>
5

>  <REMARK>
 VINA RESULT:      -6.5      1.879      2.303
  Name = 
  10 active torsions:
  status: ('A' for Active; 'I' for Inactive)
    1  A    between atoms: C_1  and  C_30
    2  A    between atoms: S_7  and  N_21
    3  A    between atoms: S_7  and  C_41
    4  A    between atoms: N_10  and  P_29
    5  A    between atoms: N_16  and  C_18
    6  A    between atoms: C_18  and  C_37
    7  A    between atoms: N_21  and  C_40
    8  A    between atoms: C_24  and  C_40
    9  A    between atoms: C_30  and  C_34
   10  A    between atoms: C_36  and  C_39
                            x       y       z     vdW  Elec       q    Type
                         _______ _______ _______ _____ _____    ______ ____

>  <TORSDO>
F 10

$$$$
=
 OpenBabel11042419593D

 41 45  0  0  1  0  0  0  0  0999 V2000
  191.0670  173.4130  142.1920 C   0  0  2  0  0  3  0  0  0  0  0  0
  194.6620  176.6450  141.4370 Cl  0  0  0  0  0  0  0  0  0  0  0  0
  193.7290  175.8050  142.6440 N   0  0  0  0  0  0  0  0  0  0  0  0
  190.6990  176.9860  142.6690 C   0  0  0  0  0  2  0  0  0  0  0  0
  191.2960  175.6070  142.9070 C   0  0  2  0  0  3  0  0  0  0  0  0
  193.4890  173.0750  142.0420 N   0  0  0  0  0  2  0  0  0  0  0  0
  192.4770  175.3760  141.9920 C   0  0  2  0  0  3  0  0  0  0  0  0
  193.8450  173.4800  143.3340 N   0  0  0  0  0  2  0  0  0  0  0  0
  190.3000  174.5900  142.5850 N   0  0  2  0  0  0  0  0  0  0  0  0
  188.5860  175.3730  144.1540 C   0  0  0  0  0  2  0  0  0  0  0  0
  189.9360  177.5420  143.8810 C   0  0  0  0  0  2  0  0  0  0  0  0
  189.5630  174.2580  143.7990 C   0  0  0  0  0  2  0  0  0  0  0  0
  194.5790  174.7280  143.1710 C   0  0  2  0  0  3  0  0  0  0  0  0
  189.3360  176.5060  144.8460 C   0  0  1  0  0  3  0  0  0  0  0  0
  192.3720  173.9010  141.5840 C   0  0  2  0  0  3  0  0  0  0  0  0
  194.5580  175.8680  146.1620 N   0  0  0  0  0  0  0  0  0  0  0  0
  194.8960  176.3950  144.9440 O   0  0  0  0  0  0  0  0  0  0  0  0
  194.8970  174.5340  145.7160 C   0  0  0  0  0  2  0  0  0  0  0  0
  195.3500  175.1630  144.4390 C   0  0  1  0  0  3  0  0  0  0  0  0
  192.2950  177.1460  145.5270 O   0  0  0  0  0  0  0  0  0  0  0  0
  192.4780  176.3130  147.9920 O   0  0  0  0  0  1  0  0  0  0  0  0
  192.8130  176.0010  146.3640 P   0  0  0  0  0  0  0  0  0  0  0  0
  192.0280  174.5730  145.9090 O   0  0  0  0  0  1  0  0  0  0  0  0
  188.4740  177.1780  145.9130 C   0  0  0  0  0  2  0  0  0  0  0  0
  185.6240  176.8570  146.1830 O   0  0  0  0  0  0  0  0  0  0  0  0
  187.4530  178.0330  145.3170 N   0  0  0  0  0  2  0  0  0  0  0  0
  186.0510  177.7760  145.4320 C   0  0  0  0  0  0  0  0  0  0  0  0
  184.9130  178.7430  144.5140 S   0  0  0  0  0  0  0  0  0  0  0  0
  183.7300  179.0780  145.3800 O   0  0  0  0  0  0  0  0  0  0  0  0
  185.5870  180.0150  144.0750 O   0  0  0  0  0  0  0  0  0  0  0  0
  184.4020  177.8470  143.1240 N   0  0  0  0  0  2  0  0  0  0  0  0
  185.5610  177.1280  142.6110 C   0  0  0  0  0  2  0  0  0  0  0  0
  187.4810  177.8190  141.1880 C   0  0  0  0  0  1  0  0  0  0  0  0
  185.9720  177.6980  141.2650 C   0  0  0  0  0  2  0  0  0  0  0  0
  190.2760  172.5930  141.1780 C   0  0  0  0  0  2  0  0  0  0  0  0
  191.1010  173.5010  137.7030 C   0  0  0  0  0  1  0  0  0  0  0  0
  190.3880  172.6080  138.6990 C   0  0  2  0  0  3  0  0  0  0  0  0
  188.1730  174.5200  139.1020 N   0  0  0  0  0  1  0  0  0  0  0  0
  188.9730  172.5340  138.3690 N   0  0  0  0  0  2  0  0  0  0  0  0
  188.6170  173.2590  139.5270 N   0  0  0  0  0  0  0  0  0  0  0  0
  190.0120  173.4010  139.9140 C   0  0  1  0  0  3  0  0  0  0  0  0
  1 35  1  6  0  0  0
  1  9  1  0  0  0  0
  2  3  1  0  0  0  0
  3 13  1  0  0  0  0
  4 11  1  0  0  0  0
  5  4  1  6  0  0  0
  6  8  1  0  0  0  0
  7  3  1  1  0  0  0
  7  5  1  0  0  0  0
  9  5  1  0  0  0  0
  9 12  1  1  0  0  0
 10 14  1  0  0  0  0
 11 14  1  0  0  0  0
 12 10  1  0  0  0  0
 13  8  1  1  0  0  0
 13 19  1  0  0  0  0
 14 24  1  1  0  0  0
 15  7  1  0  0  0  0
 15  6  1  1  0  0  0
 15  1  1  0  0  0  0
 16 22  1  0  0  0  0
 17 16  1  0  0  0  0
 18 16  1  0  0  0  0
 19 17  1  0  0  0  0
 19 18  1  1  0  0  0
 20 22  2  0  0  0  0
 22 21  1  0  0  0  0
 23 22  1  0  0  0  0
 26 27  1  0  0  0  0
 26 24  1  0  0  0  0
 27 25  2  0  0  0  0
 28 29  2  0  0  0  0
 28 27  1  0  0  0  0
 30 28  2  0  0  0  0
 31 28  1  0  0  0  0
 32 31  1  0  0  0  0
 33 34  1  0  0  0  0
 34 32  1  0  0  0  0
 37 36  1  6  0  0  0
 37 41  1  0  0  0  0
 38 40  1  0  0  0  0
 39 37  1  0  0  0  0
 39 40  1  0  0  0  0
 40 41  1  0  0  0  0
 41 35  1  1  0  0  0
M  END
>  <MODEL>
6

>  <REMARK>
 VINA RESULT:      -6.4      3.661      5.855
  Name = 
  10 active torsions:
  status: ('A' for Active; 'I' for Inactive)
    1  A    between atoms: C_1  and  C_30
    2  A    between atoms: S_7  and  N_21
    3  A    between atoms: S_7  and  C_41
    4  A    between atoms: N_10  and  P_29
    5  A    between atoms: N_16  and  C_18
    6  A    between atoms: C_18  and  C_37
    7  A    between atoms: N_21  and  C_40
    8  A    between atoms: C_24  and  C_40
    9  A    between atoms: C_30  and  C_34
   10  A    between atoms: C_36  and  C_39
                            x       y       z     vdW  Elec       q    Type
                         _______ _______ _______ _____ _____    ______ ____

>  <TORSDO>
F 10

$$$$
=
 OpenBabel11042419593D

 41 45  0  0  1  0  0  0  0  0999 V2000
  189.3240  176.7880  143.1080 C   0  0  2  0  0  3  0  0  0  0  0  0
  191.2060  176.5010  147.6150 Cl  0  0  0  0  0  0  0  0  0  0  0  0
  191.4510  176.0970  145.9380 N   0  0  0  0  0  0  0  0  0  0  0  0
  189.3640  173.7520  145.0860 C   0  0  0  0  0  2  0  0  0  0  0  0
  189.9680  174.9440  144.3570 C   0  0  2  0  0  3  0  0  0  0  0  0
  190.8890  178.2780  144.2630 N   0  0  0  0  0  2  0  0  0  0  0  0
  190.1220  176.1180  145.2980 C   0  0  2  0  0  3  0  0  0  0  0  0
  192.0650  177.5390  144.0840 N   0  0  0  0  0  2  0  0  0  0  0  0
  189.0640  175.3650  143.2920 N   0  0  2  0  0  0  0  0  0  0  0  0
  189.0090  173.2170  142.1100 C   0  0  0  0  0  2  0  0  0  0  0  0
  189.7090  172.4010  144.4430 C   0  0  0  0  0  2  0  0  0  0  0  0
  189.4410  174.6790  142.0610 C   0  0  0  0  0  2  0  0  0  0  0  0
  192.4340  177.0510  145.4060 C   0  0  2  0  0  3  0  0  0  0  0  0
  190.0110  172.4170  142.9350 C   0  0  1  0  0  3  0  0  0  0  0  0
  189.7760  177.3470  144.4480 C   0  0  2  0  0  3  0  0  0  0  0  0
  194.6810  175.0300  144.3520 N   0  0  0  0  0  0  0  0  0  0  0  0
  193.9150  175.0960  145.4850 O   0  0  0  0  0  0  0  0  0  0  0  0
  194.6230  176.4670  144.1890 C   0  0  0  0  0  2  0  0  0  0  0  0
  193.8780  176.5030  145.4830 C   0  0  1  0  0  3  0  0  0  0  0  0
  192.9280  173.1230  143.6810 O   0  0  0  0  0  1  0  0  0  0  0  0
  194.7980  173.6160  141.9300 O   0  0  0  0  0  0  0  0  0  0  0  0
  193.7370  174.2500  143.0850 P   0  0  0  0  0  0  0  0  0  0  0  0
  192.6970  175.3470  142.3250 O   0  0  0  0  0  1  0  0  0  0  0  0
  190.1800  171.0000  142.3900 C   0  0  0  0  0  2  0  0  0  0  0  0
  192.7440  171.0110  141.0780 O   0  0  0  0  0  0  0  0  0  0  0  0
  190.4080  171.0040  140.9490 N   0  0  0  0  0  2  0  0  0  0  0  0
  191.7090  171.0810  140.3620 C   0  0  0  0  0  0  0  0  0  0  0  0
  191.8680  171.2820  138.6280 S   0  0  0  0  0  0  0  0  0  0  0  0
  193.2250  170.8010  138.1910 O   0  0  0  0  0  0  0  0  0  0  0  0
  190.8050  170.4730  137.9360 O   0  0  0  0  0  0  0  0  0  0  0  0
  191.6720  172.9560  138.2330 N   0  0  0  0  0  2  0  0  0  0  0  0
  190.4080  173.0970  137.5230 C   0  0  0  0  0  2  0  0  0  0  0  0
  188.1930  172.8880  138.6350 C   0  0  0  0  0  1  0  0  0  0  0  0
  189.3890  173.7910  138.4090 C   0  0  0  0  0  2  0  0  0  0  0  0
  188.0570  177.4910  142.6330 C   0  0  0  0  0  2  0  0  0  0  0  0
  185.6590  179.7940  144.2210 C   0  0  0  0  0  1  0  0  0  0  0  0
  185.9510  178.5980  143.3370 C   0  0  2  0  0  3  0  0  0  0  0  0
  186.3310  176.7700  145.6250 N   0  0  0  0  0  1  0  0  0  0  0  0
  185.1860  177.4490  143.7950 N   0  0  0  0  0  2  0  0  0  0  0  0
  186.3550  176.7830  144.2220 N   0  0  0  0  0  0  0  0  0  0  0  0
  187.1890  177.9030  143.8150 C   0  0  1  0  0  3  0  0  0  0  0  0
  1 35  1  1  0  0  0
  1  9  1  0  0  0  0
  1 15  1  0  0  0  0
  3  2  1  0  0  0  0
  5  4  1  1  0  0  0
  5  7  1  0  0  0  0
  7  3  1  6  0  0  0
  8  6  1  0  0  0  0
  9 12  1  6  0  0  0
  9  5  1  0  0  0  0
 10 14  1  0  0  0  0
 11  4  1  0  0  0  0
 12 10  1  0  0  0  0
 13  8  1  6  0  0  0
 13 19  1  0  0  0  0
 13  3  1  0  0  0  0
 14 24  1  6  0  0  0
 14 11  1  0  0  0  0
 15  6  1  6  0  0  0
 15  7  1  0  0  0  0
 16 17  1  0  0  0  0
 18 16  1  0  0  0  0
 19 18  1  6  0  0  0
 19 17  1  0  0  0  0
 21 22  2  0  0  0  0
 22 20  1  0  0  0  0
 22 16  1  0  0  0  0
 23 22  1  0  0  0  0
 26 24  1  0  0  0  0
 27 26  1  0  0  0  0
 27 25  2  0  0  0  0
 28 27  1  0  0  0  0
 29 28  2  0  0  0  0
 30 28  2  0  0  0  0
 31 28  1  0  0  0  0
 32 31  1  0  0  0  0
 32 34  1  0  0  0  0
 34 33  1  0  0  0  0
 37 39  1  0  0  0  0
 37 41  1  0  0  0  0
 37 36  1  1  0  0  0
 39 40  1  0  0  0  0
 40 38  1  0  0  0  0
 41 35  1  6  0  0  0
 41 40  1  0  0  0  0
M  END
>  <MODEL>
7

>  <REMARK>
 VINA RESULT:      -6.4      4.135      7.946
  Name = 
  10 active torsions:
  status: ('A' for Active; 'I' for Inactive)
    1  A    between atoms: C_1  and  C_30
    2  A    between atoms: S_7  and  N_21
    3  A    between atoms: S_7  and  C_41
    4  A    between atoms: N_10  and  P_29
    5  A    between atoms: N_16  and  C_18
    6  A    between atoms: C_18  and  C_37
    7  A    between atoms: N_21  and  C_40
    8  A    between atoms: C_24  and  C_40
    9  A    between atoms: C_30  and  C_34
   10  A    between atoms: C_36  and  C_39
                            x       y       z     vdW  Elec       q    Type
                         _______ _______ _______ _____ _____    ______ ____

>  <TORSDO>
F 10

$$$$
=
 OpenBabel11042419593D

 41 45  0  0  1  0  0  0  0  0999 V2000
  187.8240  176.1850  145.3590 C   0  0  2  0  0  3  0  0  0  0  0  0
  187.7460  177.9220  140.7850 Cl  0  0  0  0  0  0  0  0  0  0  0  0
  188.4640  176.7490  141.8540 N   0  0  0  0  0  0  0  0  0  0  0  0
  190.4300  178.2710  143.9500 C   0  0  0  0  0  2  0  0  0  0  0  0
  189.5290  177.0490  144.0460 C   0  0  2  0  0  3  0  0  0  0  0  0
  186.5230  175.4560  143.4140 N   0  0  0  0  0  2  0  0  0  0  0  0
  188.2730  177.2520  143.2270 C   0  0  2  0  0  3  0  0  0  0  0  0
  187.5100  174.7090  142.7600 N   0  0  0  0  0  2  0  0  0  0  0  0
  189.1110  176.8680  145.4320 N   0  0  2  0  0  0  0  0  0  0  0  0
  191.3660  176.6950  146.3810 C   0  0  0  0  0  2  0  0  0  0  0  0
  191.9110  177.9630  144.2140 C   0  0  0  0  0  2  0  0  0  0  0  0
  190.0550  175.9710  146.0900 C   0  0  0  0  0  2  0  0  0  0  0  0
  187.8380  175.4540  141.5520 C   0  0  2  0  0  3  0  0  0  0  0  0
  192.2090  176.7500  145.1120 C   0  0  1  0  0  3  0  0  0  0  0  0
  187.1570  176.6060  144.0590 C   0  0  2  0  0  3  0  0  0  0  0  0
  189.9890  173.1690  140.9210 N   0  0  0  0  0  0  0  0  0  0  0  0
  190.0130  174.5370  140.8790 O   0  0  0  0  0  0  0  0  0  0  0  0
  188.5650  173.1530  140.6630 C   0  0  0  0  0  2  0  0  0  0  0  0
  188.6540  174.6380  140.5240 C   0  0  1  0  0  3  0  0  0  0  0  0
  191.4290  171.6550  142.5920 O   0  0  0  0  0  0  0  0  0  0  0  0
  188.9020  171.9160  143.1850 O   0  0  0  0  0  1  0  0  0  0  0  0
  190.2970  172.6550  142.5780 P   0  0  0  0  0  0  0  0  0  0  0  0
  190.6960  173.9670  143.5690 O   0  0  0  0  0  1  0  0  0  0  0  0
  193.7000  176.6470  145.4260 C   0  0  0  0  0  2  0  0  0  0  0  0
  196.1760  175.4830  144.5260 O   0  0  0  0  0  0  0  0  0  0  0  0
  194.1150  175.2610  145.6110 N   0  0  0  0  0  2  0  0  0  0  0  0
  195.3290  174.7280  145.0760 C   0  0  0  0  0  0  0  0  0  0  0  0
  195.6400  173.0060  145.1790 S   0  0  0  0  0  0  0  0  0  0  0  0
  196.0120  172.4830  143.8180 O   0  0  0  0  0  0  0  0  0  0  0  0
  196.7780  172.7650  146.1340 O   0  0  0  0  0  0  0  0  0  0  0  0
  194.2180  172.2080  145.7570 N   0  0  0  0  0  2  0  0  0  0  0  0
  194.2710  170.8250  145.3000 C   0  0  0  0  0  2  0  0  0  0  0  0
  196.0690  169.2280  145.9340 C   0  0  0  0  0  1  0  0  0  0  0  0
  194.8120  169.9340  146.4030 C   0  0  0  0  0  2  0  0  0  0  0  0
  186.9610  176.5740  146.5540 C   0  0  0  0  0  2  0  0  0  0  0  0
  184.5250  178.7800  144.8880 C   0  0  0  0  0  1  0  0  0  0  0  0
  184.8810  177.8040  145.9920 C   0  0  2  0  0  3  0  0  0  0  0  0
  186.2420  179.8610  147.6170 N   0  0  0  0  0  1  0  0  0  0  0  0
  184.5580  178.3860  147.2860 N   0  0  0  0  0  2  0  0  0  0  0  0
  185.9230  178.4950  147.6290 N   0  0  0  0  0  0  0  0  0  0  0  0
  186.3300  177.9450  146.3460 C   0  0  1  0  0  3  0  0  0  0  0  0
  1  9  1  0  0  0  0
  1 35  1  1  0  0  0
  2  3  1  0  0  0  0
  4 11  1  0  0  0  0
  5  4  1  1  0  0  0
  5  9  1  0  0  0  0
  7  3  1  6  0  0  0
  7  5  1  0  0  0  0
  7 15  1  0  0  0  0
  8  6  1  0  0  0  0
  9 12  1  1  0  0  0
 11 14  1  0  0  0  0
 12 10  1  0  0  0  0
 13  3  1  0  0  0  0
 13  8  1  1  0  0  0
 14 24  1  1  0  0  0
 14 10  1  0  0  0  0
 15  6  1  6  0  0  0
 15  1  1  0  0  0  0
 16 22  1  0  0  0  0
 17 16  1  0  0  0  0
 18 16  1  0  0  0  0
 19 18  1  1  0  0  0
 19 17  1  0  0  0  0
 19 13  1  0  0  0  0
 22 20  2  0  0  0  0
 22 21  1  0  0  0  0
 22 23  1  0  0  0  0
 24 26  1  0  0  0  0
 25 27  2  0  0  0  0
 27 28  1  0  0  0  0
 27 26  1  0  0  0  0
 28 31  1  0  0  0  0
 28 30  2  0  0  0  0
 29 28  2  0  0  0  0
 32 31  1  0  0  0  0
 32 34  1  0  0  0  0
 33 34  1  0  0  0  0
 37 36  1  6  0  0  0
 37 41  1  0  0  0  0
 37 39  1  0  0  0  0
 38 40  1  0  0  0  0
 39 40  1  0  0  0  0
 41 35  1  1  0  0  0
 41 40  1  0  0  0  0
M  END
>  <MODEL>
8

>  <REMARK>
 VINA RESULT:      -6.3      4.170      8.145
  Name = 
  10 active torsions:
  status: ('A' for Active; 'I' for Inactive)
    1  A    between atoms: C_1  and  C_30
    2  A    between atoms: S_7  and  N_21
    3  A    between atoms: S_7  and  C_41
    4  A    between atoms: N_10  and  P_29
    5  A    between atoms: N_16  and  C_18
    6  A    between atoms: C_18  and  C_37
    7  A    between atoms: N_21  and  C_40
    8  A    between atoms: C_24  and  C_40
    9  A    between atoms: C_30  and  C_34
   10  A    between atoms: C_36  and  C_39
                            x       y       z     vdW  Elec       q    Type
                         _______ _______ _______ _____ _____    ______ ____

>  <TORSDO>
F 10

$$$$
=
 OpenBabel11042419593D

 41 45  0  0  1  0  0  0  0  0999 V2000
  192.3540  175.2720  142.3040 C   0  0  2  0  0  3  0  0  0  0  0  0
  190.2550  170.8730  141.8750 Cl  0  0  0  0  0  0  0  0  0  0  0  0
  190.2860  172.5040  141.2660 N   0  0  0  0  0  0  0  0  0  0  0  0
  189.0180  174.5050  143.4950 C   0  0  0  0  0  2  0  0  0  0  0  0
  190.1270  174.6420  142.4620 C   0  0  2  0  0  3  0  0  0  0  0  0
  192.9130  173.3910  140.8360 N   0  0  0  0  0  2  0  0  0  0  0  0
  190.8850  173.3410  142.3220 C   0  0  2  0  0  3  0  0  0  0  0  0
  191.9360  173.5850  139.8520 N   0  0  0  0  0  2  0  0  0  0  0  0
  191.0830  175.6480  142.9140 N   0  0  2  0  0  0  0  0  0  0  0  0
  189.4760  177.4900  143.1100 C   0  0  0  0  0  2  0  0  0  0  0  0
  187.8650  175.4970  143.2920 C   0  0  0  0  0  2  0  0  0  0  0  0
  190.6910  176.9420  142.3690 C   0  0  0  0  0  2  0  0  0  0  0  0
  191.0090  172.4700  139.9860 C   0  0  2  0  0  3  0  0  0  0  0  0
  188.2140  176.8170  142.5840 C   0  0  1  0  0  3  0  0  0  0  0  0
  192.3490  173.7610  142.1340 C   0  0  2  0  0  3  0  0  0  0  0  0
  190.5580  171.8190  136.8850 N   0  0  0  0  0  0  0  0  0  0  0  0
  190.5290  172.9670  137.6310 O   0  0  0  0  0  0  0  0  0  0  0  0
  190.1710  171.0250  138.0310 C   0  0  0  0  0  2  0  0  0  0  0  0
  190.0530  172.3110  138.7820 C   0  0  1  0  0  3  0  0  0  0  0  0
  192.8530  172.6900  135.8190 O   0  0  0  0  0  1  0  0  0  0  0  0
  192.2550  170.1950  135.3500 O   0  0  0  0  0  0  0  0  0  0  0  0
  192.2320  171.4710  136.4590 P   0  0  0  0  0  0  0  0  0  0  0  0
  193.1370  171.0290  137.8190 O   0  0  0  0  0  1  0  0  0  0  0  0
  187.0260  177.7780  142.5870 C   0  0  0  0  0  2  0  0  0  0  0  0
  185.9000  179.9370  144.1260 O   0  0  0  0  0  0  0  0  0  0  0  0
  186.2300  177.6430  143.8030 N   0  0  0  0  0  2  0  0  0  0  0  0
  185.7600  178.7610  144.5600 C   0  0  0  0  0  0  0  0  0  0  0  0
  184.9880  178.4960  146.1100 S   0  0  0  0  0  0  0  0  0  0  0  0
  185.5550  179.4540  147.1220 O   0  0  0  0  0  0  0  0  0  0  0  0
  183.5080  178.7330  145.9730 O   0  0  0  0  0  0  0  0  0  0  0  0
  185.2690  176.8630  146.6100 N   0  0  0  0  0  2  0  0  0  0  0  0
  186.3780  176.8750  147.5550 C   0  0  0  0  0  2  0  0  0  0  0  0
  188.7370  177.0230  146.7790 C   0  0  0  0  0  1  0  0  0  0  0  0
  187.5530  176.1000  146.9850 C   0  0  0  0  0  2  0  0  0  0  0  0
  193.5090  175.7070  143.1980 C   0  0  0  0  0  2  0  0  0  0  0  0
  195.0690  173.3080  145.5190 C   0  0  0  0  0  1  0  0  0  0  0  0
  194.9110  174.7200  144.9920 C   0  0  2  0  0  3  0  0  0  0  0  0
  192.4300  175.2060  146.5190 N   0  0  0  0  0  1  0  0  0  0  0  0
  194.6120  175.6250  146.0910 N   0  0  0  0  0  2  0  0  0  0  0  0
  193.2990  175.8400  145.6190 N   0  0  0  0  0  0  0  0  0  0  0  0
  193.5080  174.9270  144.5060 C   0  0  1  0  0  3  0  0  0  0  0  0
  1  9  1  0  0  0  0
  1 35  1  1  0  0  0
  3  2  1  0  0  0  0
  5  9  1  0  0  0  0
  5  4  1  1  0  0  0
  7  3  1  6  0  0  0
  7  5  1  0  0  0  0
  8  6  1  0  0  0  0
  9 12  1  6  0  0  0
 11  4  1  0  0  0  0
 12 10  1  0  0  0  0
 13  8  1  6  0  0  0
 13  3  1  0  0  0  0
 14 24  1  1  0  0  0
 14 10  1  0  0  0  0
 14 11  1  0  0  0  0
 15  6  1  6  0  0  0
 15  1  1  0  0  0  0
 15  7  1  0  0  0  0
 16 17  1  0  0  0  0
 16 18  1  0  0  0  0
 17 19  1  0  0  0  0
 19 18  1  6  0  0  0
 19 13  1  0  0  0  0
 20 22  1  0  0  0  0
 21 22  2  0  0  0  0
 22 16  1  0  0  0  0
 22 23  1  0  0  0  0
 24 26  1  0  0  0  0
 25 27  2  0  0  0  0
 26 27  1  0  0  0  0
 27 28  1  0  0  0  0
 28 31  1  0  0  0  0
 28 29  2  0  0  0  0
 30 28  2  0  0  0  0
 31 32  1  0  0  0  0
 33 34  1  0  0  0  0
 34 32  1  0  0  0  0
 37 36  1  1  0  0  0
 37 39  1  0  0  0  0
 40 39  1  0  0  0  0
 40 38  1  0  0  0  0
 41 35  1  6  0  0  0
 41 37  1  0  0  0  0
 41 40  1  0  0  0  0
M  END
>  <MODEL>
9

>  <REMARK>
 VINA RESULT:      -6.3      1.926      2.946
  Name = 
  10 active torsions:
  status: ('A' for Active; 'I' for Inactive)
    1  A    between atoms: C_1  and  C_30
    2  A    between atoms: S_7  and  N_21
    3  A    between atoms: S_7  and  C_41
    4  A    between atoms: N_10  and  P_29
    5  A    between atoms: N_16  and  C_18
    6  A    between atoms: C_18  and  C_37
    7  A    between atoms: N_21  and  C_40
    8  A    between atoms: C_24  and  C_40
    9  A    between atoms: C_30  and  C_34
   10  A    between atoms: C_36  and  C_39
                            x       y       z     vdW  Elec       q    Type
                         _______ _______ _______ _____ _____    ______ ____

>  <TORSDO>
F 10

$$$$
