=
 OpenBabel11042413433D

 58 64  0  0  1  0  0  0  0  0999 V2000
  187.7460  174.3040  142.0100 C   0  0  0  0  0  1  0  0  0  0  0  0
  191.7180  174.2850  142.6490 C   0  0  0  0  0  0  0  0  0  0  0  0
  189.1150  174.7910  141.5860 C   0  0  1  0  0  3  0  0  0  0  0  0
  191.9870  177.7320  143.0610 O   0  0  0  0  0  0  0  0  0  0  0  0
  191.4160  173.5280  141.4250 C   0  0  1  0  0  3  0  0  0  0  0  0
  191.8410  172.1970  141.6830 O   0  0  0  0  0  0  0  0  0  0  0  0
  192.5300  173.5720  143.3980 C   0  0  0  0  0  0  0  0  0  0  0  0
  192.4600  175.0730  145.4460 C   0  0  1  0  0  3  0  0  0  0  0  0
  189.6900  175.6700  142.7210 C   0  0  1  0  0  3  0  0  0  0  0  0
  192.5060  176.3510  144.8130 O   0  0  0  0  0  0  0  0  0  0  0  0
  192.7170  172.3320  142.7180 N   0  0  0  0  0  0  0  0  0  0  0  0
  191.1400  175.5590  142.9180 N   0  0  0  0  0  0  0  0  0  0  0  0
  189.9220  173.5860  141.0300 C   0  0  2  0  0  3  0  0  0  0  0  0
  191.8890  176.5910  143.5850 C   0  0  0  0  0  0  0  0  0  0  0  0
  193.2690  174.0240  144.6500 C   0  0  1  0  0  3  0  0  0  0  0  0
  188.3250  172.5330  137.7720 N   0  0  0  0  0  0  0  0  0  0  0  0
  190.7250  173.6230  138.5200 C   0  0  0  0  0  0  0  0  0  0  0  0
  188.5380  172.8140  139.0810 C   0  0  0  0  0  3  0  0  0  0  0  0
  189.7530  173.3410  139.5220 C   0  0  2  0  0  3  0  0  0  0  0  0
  191.8310  174.1450  138.8190 O   0  0  0  0  0  0  0  0  0  0  0  0
  189.2920  172.7560  136.8470 C   0  0  0  0  0  2  0  0  0  0  0  0
  190.4810  173.2970  137.2170 N   0  0  0  0  0  0  0  0  0  0  0  0
  191.4760  173.5360  136.2490 N   0  0  0  0  0  2  0  0  0  0  0  0
  193.4380  172.9560  134.8440 C   0  0  0  0  0  2  0  0  0  0  0  0
  194.4460  173.4910  135.8550 C   0  0  0  0  0  2  0  0  0  0  0  0
  192.1810  172.4550  135.5540 C   0  0  1  0  0  3  0  0  0  0  0  0
  192.5130  171.3260  136.5360 C   0  0  0  0  0  2  0  0  0  0  0  0
  194.7100  172.4870  136.9390 C   0  0  0  0  0  3  0  0  0  0  0  0
  193.8150  171.5400  137.2770 C   0  0  0  0  0  3  0  0  0  0  0  0
  191.5960  175.3450  147.5460 C   0  0  0  0  0  1  0  0  0  0  0  0
  192.7810  175.1640  146.8160 O   0  0  0  0  0  0  0  0  0  0  0  0
  189.2410  177.1170  142.5110 C   0  0  0  0  0  2  0  0  0  0  0  0
  187.0280  178.1560  143.0150 C   0  0  0  0  0  3  0  0  0  0  0  0
  188.2960  177.1950  144.8430 C   0  0  0  0  0  3  0  0  0  0  0  0
  186.1450  178.2460  145.2770 C   0  0  0  0  0  0  0  0  0  0  0  0
  187.2900  177.5760  145.7420 C   0  0  0  0  0  3  0  0  0  0  0  0
  186.0230  178.5340  143.9100 C   0  0  0  0  0  3  0  0  0  0  0  0
  188.1640  177.4890  143.4780 C   0  0  0  0  0  0  0  0  0  0  0  0
  185.2900  178.5180  147.6210 N   0  0  0  0  0  1  0  0  0  0  0  0
  185.0810  178.6360  146.2170 C   0  0  0  0  0  0  0  0  0  0  0  0
  183.9710  179.0510  145.7910 O   0  0  0  0  0  0  0  0  0  0  0  0
  193.9840  171.6010  142.7420 C   0  0  0  0  0  2  0  0  0  0  0  0
  195.0290  172.2490  141.8490 C   0  0  0  0  0  2  0  0  0  0  0  0
  195.2190  171.4420  140.5830 C   0  0  0  0  0  1  0  0  0  0  0  0
  193.6910  172.8440  145.5390 C   0  0  0  0  0  2  0  0  0  0  0  0
  195.1960  172.7350  145.6510 C   0  0  0  0  0  0  0  0  0  0  0  0
  195.7160  171.6650  146.0700 O   0  0  0  0  0  0  0  0  0  0  0  0
  196.0580  173.7790  145.2910 O   0  0  0  0  0  0  0  0  0  0  0  0
  196.7620  173.8700  144.0990 N   0  0  0  0  0  0  0  0  0  0  0  0
  197.9410  173.2160  144.2280 O   0  0  0  0  0  1  0  0  0  0  0  0
  197.0160  175.2850  143.8200 C   0  0  0  0  0  2  0  0  0  0  0  0
  197.5570  175.3420  141.4500 C   0  0  0  0  0  3  0  0  0  0  0  0
  196.6560  175.6040  142.4050 C   0  0  0  0  0  0  0  0  0  0  0  0
  194.5930  176.0850  141.0550 C   0  0  0  0  0  3  0  0  0  0  0  0
  194.9380  175.2710  139.8660 C   0  0  0  0  0  3  0  0  0  0  0  0
  196.1750  175.0560  139.4210 C   0  0  0  0  0  3  0  0  0  0  0  0
  197.3800  175.7070  140.0090 C   0  0  0  0  0  2  0  0  0  0  0  0
  195.3420  176.2340  142.1520 C   0  0  0  0  0  3  0  0  0  0  0  0
  2 12  1  0  0  0  0
  2  7  2  0  0  0  0
  3  1  1  1  0  0  0
  3  9  1  0  0  0  0
  4 14  2  0  0  0  0
  5  6  1  1  0  0  0
  5  2  1  0  0  0  0
  6 11  1  0  0  0  0
  7 15  1  0  0  0  0
  8 31  1  1  0  0  0
  9 32  1  6  0  0  0
  9 12  1  0  0  0  0
 10  8  1  0  0  0  0
 11 42  1  0  0  0  0
 11  7  1  0  0  0  0
 12 14  1  0  0  0  0
 13 19  1  6  0  0  0
 13  5  1  0  0  0  0
 13  3  1  0  0  0  0
 14 10  1  0  0  0  0
 15  8  1  0  0  0  0
 15 45  1  1  0  0  0
 16 18  2  0  0  0  0
 17 20  2  0  0  0  0
 17 19  1  0  0  0  0
 19 18  1  6  0  0  0
 21 22  1  0  0  0  0
 21 16  1  0  0  0  0
 22 17  1  0  0  0  0
 23 22  1  0  0  0  0
 24 26  1  0  0  0  0
 24 25  1  0  0  0  0
 25 28  1  0  0  0  0
 26 23  1  1  0  0  0
 26 27  1  0  0  0  0
 27 29  1  0  0  0  0
 28 29  2  0  0  0  0
 31 30  1  0  0  0  0
 32 38  1  0  0  0  0
 33 38  2  0  0  0  0
 33 37  1  0  0  0  0
 34 36  2  0  0  0  0
 35 36  1  0  0  0  0
 35 40  1  0  0  0  0
 37 35  2  0  0  0  0
 38 34  1  0  0  0  0
 40 39  1  0  0  0  0
 41 40  2  0  0  0  0
 43 42  1  0  0  0  0
 44 43  1  0  0  0  0
 45 46  1  0  0  0  0
 46 47  2  0  0  0  0
 48 46  1  0  0  0  0
 49 50  1  0  0  0  0
 49 48  1  0  0  0  0
 51 49  1  0  0  0  0
 52 53  2  0  0  0  0
 53 51  1  0  0  0  0
 54 58  2  0  0  0  0
 55 54  1  0  0  0  0
 56 55  2  0  0  0  0
 56 57  1  0  0  0  0
 57 52  1  0  0  0  0
 58 53  1  0  0  0  0
M  END
>  <MODEL>
1

>  <REMARK>
 VINA RESULT:      -7.0      0.000      0.000
  Name = 
  15 active torsions:
  status: ('A' for Active; 'I' for Inactive)
    1  A    between atoms: C_4  and  C_10
    2  A    between atoms: C_8  and  C_36
    3  A    between atoms: C_8  and  O_39
    4  A    between atoms: C_10  and  N_17
    5  A    between atoms: N_17  and  O_39
    6  A    between atoms: C_22  and  C_56
    7  A    between atoms: C_23  and  C_41
    8  A    between atoms: C_23  and  C_52
    9  A    between atoms: C_24  and  C_31
   10  A    between atoms: C_33  and  O_35
   11  A    between atoms: C_34  and  C_37
   12  A    between atoms: C_34  and  N_47
   13  A    between atoms: C_36  and  C_58
   14  A    between atoms: C_40  and  N_48
   15  A    between atoms: N_48  and  N_53
                            x       y       z     vdW  Elec       q    Type
                         _______ _______ _______ _____ _____    ______ ____

>  <TORSDO>
F 15

$$$$
=
 OpenBabel11042413433D

 58 64  0  0  1  0  0  0  0  0999 V2000
  191.0850  174.1400  140.4330 C   0  0  0  0  0  1  0  0  0  0  0  0
  192.3770  173.7000  144.2170 C   0  0  0  0  0  0  0  0  0  0  0  0
  190.8250  173.5940  141.8210 C   0  0  1  0  0  3  0  0  0  0  0  0
  192.2810  170.2200  144.1800 O   0  0  0  0  0  0  0  0  0  0  0  0
  191.2540  174.6490  144.1910 C   0  0  1  0  0  3  0  0  0  0  0  0
  191.7860  175.8850  144.6490 O   0  0  0  0  0  0  0  0  0  0  0  0
  193.3550  174.2200  144.9260 C   0  0  0  0  0  0  0  0  0  0  0  0
  195.1000  172.4550  144.3890 C   0  0  1  0  0  3  0  0  0  0  0  0
  191.8880  172.5130  142.1220 C   0  0  1  0  0  3  0  0  0  0  0  0
  194.2910  171.2820  144.4640 O   0  0  0  0  0  0  0  0  0  0  0  0
  192.9190  175.5230  145.3140 N   0  0  0  0  0  0  0  0  0  0  0  0
  192.3410  172.4590  143.5170 N   0  0  0  0  0  0  0  0  0  0  0  0
  190.6090  174.7870  142.7920 C   0  0  2  0  0  3  0  0  0  0  0  0
  192.9540  171.2780  144.0640 C   0  0  0  0  0  0  0  0  0  0  0  0
  194.6260  173.5280  145.3960 C   0  0  1  0  0  3  0  0  0  0  0  0
  186.8790  174.9480  142.2100 N   0  0  0  0  0  0  0  0  0  0  0  0
  188.6930  176.3370  143.7240 C   0  0  0  0  0  0  0  0  0  0  0  0
  188.1810  174.5680  142.1870 C   0  0  0  0  0  3  0  0  0  0  0  0
  189.1520  175.2600  142.9150 C   0  0  0  0  0  0  0  0  0  0  0  0
  189.4890  176.9850  144.4530 O   0  0  0  0  0  0  0  0  0  0  0  0
  186.4800  176.0160  142.9450 C   0  0  0  0  0  3  0  0  0  0  0  0
  187.3780  176.7040  143.6970 N   0  0  0  0  0  0  0  0  0  0  0  0
  186.9540  177.8050  144.4660 N   0  0  0  0  0  2  0  0  0  0  0  0
  185.4290  176.7440  146.1120 C   0  0  0  0  0  2  0  0  0  0  0  0
  186.4180  176.8770  147.2640 C   0  0  0  0  0  2  0  0  0  0  0  0
  185.6320  177.8690  145.0980 C   0  0  1  0  0  3  0  0  0  0  0  0
  185.4240  179.2420  145.7450 C   0  0  0  0  0  2  0  0  0  0  0  0
  186.3760  178.2560  147.8570 C   0  0  0  0  0  3  0  0  0  0  0  0
  185.9710  179.3300  147.1530 C   0  0  0  0  0  3  0  0  0  0  0  0
  196.8170  171.3960  143.3120 C   0  0  0  0  0  1  0  0  0  0  0  0
  196.4730  172.1390  144.4510 O   0  0  0  0  0  0  0  0  0  0  0  0
  191.3810  171.1580  141.6250 C   0  0  0  0  0  2  0  0  0  0  0  0
  193.2150  169.6800  140.7990 C   0  0  0  0  0  3  0  0  0  0  0  0
  192.0930  171.1250  139.2100 C   0  0  0  0  0  3  0  0  0  0  0  0
  193.9060  169.6820  138.4700 C   0  0  0  0  0  0  0  0  0  0  0  0
  192.9260  170.6490  138.1880 C   0  0  0  0  0  3  0  0  0  0  0  0
  194.0460  169.2030  139.7810 C   0  0  0  0  0  3  0  0  0  0  0  0
  192.2410  170.6390  140.5180 C   0  0  0  0  0  0  0  0  0  0  0  0
  194.2030  168.5660  136.2420 N   0  0  0  0  0  1  0  0  0  0  0  0
  194.7750  169.1720  137.3960 C   0  0  0  0  0  0  0  0  0  0  0  0
  196.0280  169.2420  137.4980 O   0  0  0  0  0  0  0  0  0  0  0  0
  193.2700  176.1220  146.6010 C   0  0  0  0  0  2  0  0  0  0  0  0
  192.0390  176.5470  147.3830 C   0  0  0  0  0  2  0  0  0  0  0  0
  191.3090  175.3360  147.9220 C   0  0  0  0  0  1  0  0  0  0  0  0
  195.7470  174.5240  145.7280 C   0  0  0  0  0  2  0  0  0  0  0  0
  196.3650  175.1120  144.4780 C   0  0  0  0  0  0  0  0  0  0  0  0
  197.5960  174.9520  144.2540 O   0  0  0  0  0  0  0  0  0  0  0  0
  195.6200  175.8270  143.5310 O   0  0  0  0  0  0  0  0  0  0  0  0
  195.7650  175.7360  142.1540 N   0  0  0  0  0  0  0  0  0  0  0  0
  196.2130  176.9220  141.6760 O   0  0  0  0  0  1  0  0  0  0  0  0
  194.4550  175.4380  141.5700 C   0  0  0  0  0  2  0  0  0  0  0  0
  194.2540  174.9460  139.1980 C   0  0  0  0  0  3  0  0  0  0  0  0
  194.6080  174.5070  140.4120 C   0  0  0  0  0  0  0  0  0  0  0  0
  195.8230  172.3790  139.8600 C   0  0  0  0  0  3  0  0  0  0  0  0
  196.2720  172.7530  138.4980 C   0  0  0  0  0  3  0  0  0  0  0  0
  195.6050  173.5530  137.6670 C   0  0  0  0  0  3  0  0  0  0  0  0
  194.2480  174.0940  137.9670 C   0  0  0  0  0  2  0  0  0  0  0  0
  195.0960  173.1380  140.6860 C   0  0  0  0  0  3  0  0  0  0  0  0
  2  7  2  0  0  0  0
  3  1  1  6  0  0  0
  3  9  1  0  0  0  0
  3 13  1  0  0  0  0
  5  2  1  6  0  0  0
  5  6  1  0  0  0  0
  6 11  1  0  0  0  0
  7 11  1  0  0  0  0
  7 15  1  0  0  0  0
  8 31  1  1  0  0  0
  8 10  1  0  0  0  0
  8 15  1  0  0  0  0
  9 32  1  1  0  0  0
  9 12  1  0  0  0  0
 11 42  1  0  0  0  0
 12 14  1  0  0  0  0
 12  2  1  0  0  0  0
 13 19  1  1  0  0  0
 13  5  1  0  0  0  0
 14  4  2  0  0  0  0
 14 10  1  0  0  0  0
 15 45  1  6  0  0  0
 16 21  2  0  0  0  0
 17 20  2  0  0  0  0
 18 16  1  0  0  0  0
 18 19  2  0  0  0  0
 19 17  1  0  0  0  0
 21 22  1  0  0  0  0
 22 17  1  0  0  0  0
 22 23  1  0  0  0  0
 24 25  1  0  0  0  0
 25 28  1  0  0  0  0
 26 23  1  1  0  0  0
 26 27  1  0  0  0  0
 26 24  1  0  0  0  0
 27 29  1  0  0  0  0
 29 28  2  0  0  0  0
 30 31  1  0  0  0  0
 34 38  2  0  0  0  0
 35 37  1  0  0  0  0
 36 35  2  0  0  0  0
 36 34  1  0  0  0  0
 37 33  2  0  0  0  0
 38 33  1  0  0  0  0
 38 32  1  0  0  0  0
 39 40  1  0  0  0  0
 40 41  2  0  0  0  0
 40 35  1  0  0  0  0
 42 43  1  0  0  0  0
 43 44  1  0  0  0  0
 46 45  1  0  0  0  0
 47 46  2  0  0  0  0
 48 46  1  0  0  0  0
 49 48  1  0  0  0  0
 50 49  1  0  0  0  0
 51 49  1  0  0  0  0
 52 53  2  0  0  0  0
 53 58  1  0  0  0  0
 53 51  1  0  0  0  0
 54 58  2  0  0  0  0
 55 54  1  0  0  0  0
 56 57  1  0  0  0  0
 56 55  2  0  0  0  0
 57 52  1  0  0  0  0
M  END
>  <MODEL>
2

>  <REMARK>
 VINA RESULT:      -6.7      2.536      8.233
  Name = 
  15 active torsions:
  status: ('A' for Active; 'I' for Inactive)
    1  A    between atoms: C_4  and  C_10
    2  A    between atoms: C_8  and  C_36
    3  A    between atoms: C_8  and  O_39
    4  A    between atoms: C_10  and  N_17
    5  A    between atoms: N_17  and  O_39
    6  A    between atoms: C_22  and  C_56
    7  A    between atoms: C_23  and  C_41
    8  A    between atoms: C_23  and  C_52
    9  A    between atoms: C_24  and  C_31
   10  A    between atoms: C_33  and  O_35
   11  A    between atoms: C_34  and  C_37
   12  A    between atoms: C_34  and  N_47
   13  A    between atoms: C_36  and  C_58
   14  A    between atoms: C_40  and  N_48
   15  A    between atoms: N_48  and  N_53
                            x       y       z     vdW  Elec       q    Type
                         _______ _______ _______ _____ _____    ______ ____

>  <TORSDO>
F 15

$$$$
=
 OpenBabel11042413433D

 58 64  0  0  1  0  0  0  0  0999 V2000
  195.7470  174.8470  142.3620 C   0  0  0  0  0  1  0  0  0  0  0  0
  191.8080  174.1310  142.7560 C   0  0  0  0  0  0  0  0  0  0  0  0
  194.6550  173.9630  142.9250 C   0  0  1  0  0  3  0  0  0  0  0  0
  191.8180  174.2180  146.2360 O   0  0  0  0  0  0  0  0  0  0  0  0
  192.4000  173.1250  141.8610 C   0  0  1  0  0  3  0  0  0  0  0  0
  191.7650  173.3080  140.6040 O   0  0  0  0  0  0  0  0  0  0  0  0
  190.7210  174.6100  142.1920 C   0  0  0  0  0  0  0  0  0  0  0  0
  190.2960  176.4690  143.8700 C   0  0  1  0  0  3  0  0  0  0  0  0
  193.8490  174.7860  143.9560 C   0  0  1  0  0  3  0  0  0  0  0  0
  190.6050  175.7800  145.0800 O   0  0  0  0  0  0  0  0  0  0  0  0
  190.6220  173.9840  140.9140 N   0  0  0  0  0  0  0  0  0  0  0  0
  192.4110  174.4980  143.9930 N   0  0  0  0  0  0  0  0  0  0  0  0
  193.9380  173.2450  141.7490 C   0  0  2  0  0  3  0  0  0  0  0  0
  191.6090  174.8140  145.1460 C   0  0  0  0  0  0  0  0  0  0  0  0
  189.6740  175.5150  142.8250 C   0  0  1  0  0  3  0  0  0  0  0  0
  194.9090  169.5990  141.9410 N   0  0  0  0  0  0  0  0  0  0  0  0
  195.3000  171.6440  140.1590 C   0  0  0  0  0  0  0  0  0  0  0  0
  194.3630  170.8120  142.2050 C   0  0  0  0  0  3  0  0  0  0  0  0
  194.5570  171.8970  141.3470 C   0  0  2  0  0  3  0  0  0  0  0  0
  195.4820  172.5500  139.3040 O   0  0  0  0  0  0  0  0  0  0  0  0
  195.6630  169.4030  140.8300 C   0  0  0  0  0  2  0  0  0  0  0  0
  195.8560  170.4160  139.9460 N   0  0  0  0  0  0  0  0  0  0  0  0
  196.6310  170.2020  138.7900 N   0  0  0  0  0  2  0  0  0  0  0  0
  195.2450  169.9710  136.7440 C   0  0  0  0  0  2  0  0  0  0  0  0
  195.9230  171.1370  136.0330 C   0  0  0  0  0  2  0  0  0  0  0  0
  196.2160  169.2980  137.7130 C   0  0  1  0  0  3  0  0  0  0  0  0
  197.4460  168.7540  136.9770 C   0  0  0  0  0  2  0  0  0  0  0  0
  197.2200  170.7110  135.4090 C   0  0  0  0  0  3  0  0  0  0  0  0
  197.9300  169.6630  135.8680 C   0  0  0  0  0  3  0  0  0  0  0  0
  189.2510  177.7040  145.4860 C   0  0  0  0  0  1  0  0  0  0  0  0
  189.5620  177.6470  144.1190 O   0  0  0  0  0  0  0  0  0  0  0  0
  194.5040  174.6500  145.3310 C   0  0  0  0  0  2  0  0  0  0  0  0
  194.2190  172.1870  145.6270 C   0  0  0  0  0  3  0  0  0  0  0  0
  196.4660  173.0950  145.6030 C   0  0  0  0  0  3  0  0  0  0  0  0
  196.1240  170.7070  145.9160 C   0  0  0  0  0  0  0  0  0  0  0  0
  196.9880  171.8100  145.8060 C   0  0  0  0  0  3  0  0  0  0  0  0
  194.7380  170.9050  145.8270 C   0  0  0  0  0  3  0  0  0  0  0  0
  195.0780  173.2820  145.5160 C   0  0  0  0  0  0  0  0  0  0  0  0
  197.0150  168.9110  147.4250 N   0  0  0  0  0  1  0  0  0  0  0  0
  196.6700  169.3550  146.1170 C   0  0  0  0  0  0  0  0  0  0  0  0
  196.8620  168.5890  145.1360 O   0  0  0  0  0  0  0  0  0  0  0  0
  189.3410  173.6300  140.3040 C   0  0  0  0  0  2  0  0  0  0  0  0
  189.4050  173.6680  138.7860 C   0  0  0  0  0  2  0  0  0  0  0  0
  189.0470  172.3170  138.2060 C   0  0  0  0  0  1  0  0  0  0  0  0
  188.8540  176.2840  141.7780 C   0  0  0  0  0  2  0  0  0  0  0  0
  187.3680  176.0490  141.9430 C   0  0  0  0  0  0  0  0  0  0  0  0
  186.9570  174.9610  142.4310 O   0  0  0  0  0  0  0  0  0  0  0  0
  186.4080  177.0050  141.5870 O   0  0  0  0  0  0  0  0  0  0  0  0
  185.4170  177.5040  142.4220 N   0  0  0  0  0  0  0  0  0  0  0  0
  184.4350  178.0510  141.6670 O   0  0  0  0  0  1  0  0  0  0  0  0
  186.0100  178.5360  143.2760 C   0  0  0  0  0  2  0  0  0  0  0  0
  185.5840  176.9760  145.0910 C   0  0  0  0  0  3  0  0  0  0  0  0
  185.7070  178.2530  144.7110 C   0  0  0  0  0  0  0  0  0  0  0  0
  185.8010  179.4450  146.9200 C   0  0  0  0  0  3  0  0  0  0  0  0
  186.3600  178.3320  147.7240 C   0  0  0  0  0  3  0  0  0  0  0  0
  186.1290  177.0390  147.5010 C   0  0  0  0  0  3  0  0  0  0  0  0
  185.1760  176.5460  146.4650 C   0  0  0  0  0  2  0  0  0  0  0  0
  185.5120  179.4070  145.6160 C   0  0  0  0  0  3  0  0  0  0  0  0
  2 12  1  0  0  0  0
  3  1  1  6  0  0  0
  3  9  1  0  0  0  0
  5  6  1  6  0  0  0
  5  2  1  0  0  0  0
  6 11  1  0  0  0  0
  7  2  2  0  0  0  0
  7 15  1  0  0  0  0
  8 31  1  1  0  0  0
  8 10  1  0  0  0  0
  9 12  1  0  0  0  0
  9 32  1  1  0  0  0
 10 14  1  0  0  0  0
 11  7  1  0  0  0  0
 12 14  1  0  0  0  0
 13 19  1  1  0  0  0
 13  5  1  0  0  0  0
 13  3  1  0  0  0  0
 14  4  2  0  0  0  0
 15 45  1  6  0  0  0
 15  8  1  0  0  0  0
 16 18  2  0  0  0  0
 17 19  1  0  0  0  0
 19 18  1  6  0  0  0
 20 17  2  0  0  0  0
 21 16  1  0  0  0  0
 22 17  1  0  0  0  0
 22 21  1  0  0  0  0
 23 22  1  0  0  0  0
 24 26  1  0  0  0  0
 25 24  1  0  0  0  0
 26 23  1  1  0  0  0
 27 26  1  0  0  0  0
 28 29  2  0  0  0  0
 28 25  1  0  0  0  0
 29 27  1  0  0  0  0
 31 30  1  0  0  0  0
 32 38  1  0  0  0  0
 33 37  1  0  0  0  0
 34 36  2  0  0  0  0
 35 40  1  0  0  0  0
 36 35  1  0  0  0  0
 37 35  2  0  0  0  0
 38 34  1  0  0  0  0
 38 33  2  0  0  0  0
 40 39  1  0  0  0  0
 41 40  2  0  0  0  0
 42 11  1  0  0  0  0
 43 42  1  0  0  0  0
 44 43  1  0  0  0  0
 45 46  1  0  0  0  0
 46 47  2  0  0  0  0
 48 46  1  0  0  0  0
 48 49  1  0  0  0  0
 49 51  1  0  0  0  0
 50 49  1  0  0  0  0
 51 53  1  0  0  0  0
 52 57  1  0  0  0  0
 53 52  2  0  0  0  0
 53 58  1  0  0  0  0
 54 55  1  0  0  0  0
 56 55  2  0  0  0  0
 57 56  1  0  0  0  0
 58 54  2  0  0  0  0
M  END
>  <MODEL>
3

>  <REMARK>
 VINA RESULT:      -6.7      2.686      8.470
  Name = 
  15 active torsions:
  status: ('A' for Active; 'I' for Inactive)
    1  A    between atoms: C_4  and  C_10
    2  A    between atoms: C_8  and  C_36
    3  A    between atoms: C_8  and  O_39
    4  A    between atoms: C_10  and  N_17
    5  A    between atoms: N_17  and  O_39
    6  A    between atoms: C_22  and  C_56
    7  A    between atoms: C_23  and  C_41
    8  A    between atoms: C_23  and  C_52
    9  A    between atoms: C_24  and  C_31
   10  A    between atoms: C_33  and  O_35
   11  A    between atoms: C_34  and  C_37
   12  A    between atoms: C_34  and  N_47
   13  A    between atoms: C_36  and  C_58
   14  A    between atoms: C_40  and  N_48
   15  A    between atoms: N_48  and  N_53
                            x       y       z     vdW  Elec       q    Type
                         _______ _______ _______ _____ _____    ______ ____

>  <TORSDO>
F 15

$$$$
=
 OpenBabel11042413433D

 58 64  0  0  1  0  0  0  0  0999 V2000
  189.9030  175.3060  141.6980 C   0  0  0  0  0  1  0  0  0  0  0  0
  192.2760  172.5780  143.4630 C   0  0  0  0  0  0  0  0  0  0  0  0
  190.0150  174.1010  142.6080 C   0  0  1  0  0  3  0  0  0  0  0  0
  190.6810  169.8190  142.0620 O   0  0  0  0  0  0  0  0  0  0  0  0
  191.7690  173.5140  144.4770 C   0  0  1  0  0  3  0  0  0  0  0  0
  192.9160  174.1660  145.0060 O   0  0  0  0  0  0  0  0  0  0  0  0
  193.5750  172.4470  143.6200 C   0  0  0  0  0  0  0  0  0  0  0  0
  194.0060  171.0930  141.5150 C   0  0  1  0  0  3  0  0  0  0  0  0
  190.5270  172.9070  141.7690 C   0  0  1  0  0  3  0  0  0  0  0  0
  192.8760  170.2230  141.5490 O   0  0  0  0  0  0  0  0  0  0  0  0
  193.9420  173.3300  144.6790 N   0  0  0  0  0  0  0  0  0  0  0  0
  191.4300  171.9920  142.4770 N   0  0  0  0  0  0  0  0  0  0  0  0
  190.7450  174.5260  143.9100 C   0  0  2  0  0  3  0  0  0  0  0  0
  191.6350  170.6400  142.0290 C   0  0  0  0  0  0  0  0  0  0  0  0
  194.4910  171.4390  142.9410 C   0  0  1  0  0  3  0  0  0  0  0  0
  188.8870  174.6370  147.1990 N   0  0  0  0  0  0  0  0  0  0  0  0
  189.0760  176.2530  144.9940 C   0  0  0  0  0  0  0  0  0  0  0  0
  189.7110  174.2710  146.1850 C   0  0  0  0  0  3  0  0  0  0  0  0
  189.8220  175.0410  145.0260 C   0  0  0  0  0  0  0  0  0  0  0  0
  189.1530  177.0350  144.0100 O   0  0  0  0  0  0  0  0  0  0  0  0
  188.1430  175.7670  147.1150 C   0  0  0  0  0  3  0  0  0  0  0  0
  188.2370  176.5700  146.0230 N   0  0  0  0  0  0  0  0  0  0  0  0
  187.4690  177.7480  145.9480 N   0  0  0  0  0  2  0  0  0  0  0  0
  185.4250  179.1420  145.7420 C   0  0  0  0  0  2  0  0  0  0  0  0
  185.8380  179.7240  144.3950 C   0  0  0  0  0  2  0  0  0  0  0  0
  186.0030  177.7390  145.9190 C   0  0  1  0  0  3  0  0  0  0  0  0
  185.5050  176.7920  144.8210 C   0  0  0  0  0  2  0  0  0  0  0  0
  185.5130  178.7790  143.2750 C   0  0  0  0  0  3  0  0  0  0  0  0
  185.4100  177.4500  143.4610 C   0  0  0  0  0  3  0  0  0  0  0  0
  194.3930  170.1650  139.4610 C   0  0  0  0  0  1  0  0  0  0  0  0
  195.0040  170.6100  140.6430 O   0  0  0  0  0  0  0  0  0  0  0  0
  189.3330  172.1790  141.1500 C   0  0  0  0  0  2  0  0  0  0  0  0
  189.9300  171.2600  138.9070 C   0  0  0  0  0  3  0  0  0  0  0  0
  188.8290  173.4160  139.0150 C   0  0  0  0  0  3  0  0  0  0  0  0
  189.4600  172.4810  136.8600 C   0  0  0  0  0  0  0  0  0  0  0  0
  188.8840  173.5140  137.6180 C   0  0  0  0  0  3  0  0  0  0  0  0
  189.9840  171.3550  137.5140 C   0  0  0  0  0  3  0  0  0  0  0  0
  189.3560  172.2860  139.6590 C   0  0  0  0  0  0  0  0  0  0  0  0
  189.7710  173.8280  134.7660 N   0  0  0  0  0  1  0  0  0  0  0  0
  189.5090  172.5760  135.3920 C   0  0  0  0  0  0  0  0  0  0  0  0
  189.2930  171.5620  134.6760 O   0  0  0  0  0  0  0  0  0  0  0  0
  195.0010  173.0160  145.6380 C   0  0  0  0  0  2  0  0  0  0  0  0
  195.9410  174.1920  145.8500 C   0  0  0  0  0  2  0  0  0  0  0  0
  197.3820  173.7440  145.7420 C   0  0  0  0  0  1  0  0  0  0  0  0
  195.9600  171.8880  142.9440 C   0  0  0  0  0  2  0  0  0  0  0  0
  196.1830  173.0890  142.0510 C   0  0  0  0  0  0  0  0  0  0  0  0
  196.9280  172.9860  141.0390 O   0  0  0  0  0  0  0  0  0  0  0  0
  195.5780  174.3300  142.2900 O   0  0  0  0  0  0  0  0  0  0  0  0
  195.9540  175.5360  141.7140 N   0  0  0  0  0  0  0  0  0  0  0  0
  196.3820  176.3770  142.6860 O   0  0  0  0  0  1  0  0  0  0  0  0
  194.7850  176.1130  141.0470 C   0  0  0  0  0  2  0  0  0  0  0  0
  193.2620  174.5270  140.0120 C   0  0  0  0  0  3  0  0  0  0  0  0
  194.3770  175.2580  139.8920 C   0  0  0  0  0  0  0  0  0  0  0  0
  194.8690  175.0570  137.4380 C   0  0  0  0  0  3  0  0  0  0  0  0
  193.4810  174.8300  136.9730 C   0  0  0  0  0  3  0  0  0  0  0  0
  192.5350  174.2030  137.6710 C   0  0  0  0  0  3  0  0  0  0  0  0
  192.7890  173.5450  138.9840 C   0  0  0  0  0  2  0  0  0  0  0  0
  195.2570  175.2350  138.7040 C   0  0  0  0  0  3  0  0  0  0  0  0
  2  7  2  0  0  0  0
  3  1  1  6  0  0  0
  3 13  1  0  0  0  0
  5  2  1  6  0  0  0
  5  6  1  0  0  0  0
  7 11  1  0  0  0  0
  8 31  1  6  0  0  0
  8 10  1  0  0  0  0
  8 15  1  0  0  0  0
  9 32  1  1  0  0  0
  9 12  1  0  0  0  0
  9  3  1  0  0  0  0
 10 14  1  0  0  0  0
 11  6  1  0  0  0  0
 11 42  1  0  0  0  0
 12  2  1  0  0  0  0
 13  5  1  0  0  0  0
 13 19  1  1  0  0  0
 14  4  2  0  0  0  0
 14 12  1  0  0  0  0
 15 45  1  6  0  0  0
 15  7  1  0  0  0  0
 17 19  1  0  0  0  0
 17 22  1  0  0  0  0
 18 16  1  0  0  0  0
 19 18  2  0  0  0  0
 20 17  2  0  0  0  0
 21 16  2  0  0  0  0
 22 21  1  0  0  0  0
 23 22  1  0  0  0  0
 24 26  1  0  0  0  0
 25 24  1  0  0  0  0
 26 23  1  6  0  0  0
 27 26  1  0  0  0  0
 28 29  2  0  0  0  0
 28 25  1  0  0  0  0
 29 27  1  0  0  0  0
 30 31  1  0  0  0  0
 33 38  1  0  0  0  0
 34 38  2  0  0  0  0
 35 37  1  0  0  0  0
 35 36  2  0  0  0  0
 36 34  1  0  0  0  0
 37 33  2  0  0  0  0
 38 32  1  0  0  0  0
 39 40  1  0  0  0  0
 40 35  1  0  0  0  0
 41 40  2  0  0  0  0
 42 43  1  0  0  0  0
 44 43  1  0  0  0  0
 46 48  1  0  0  0  0
 46 45  1  0  0  0  0
 47 46  2  0  0  0  0
 49 48  1  0  0  0  0
 49 50  1  0  0  0  0
 51 49  1  0  0  0  0
 53 52  2  0  0  0  0
 53 51  1  0  0  0  0
 54 58  2  0  0  0  0
 55 54  1  0  0  0  0
 55 56  2  0  0  0  0
 56 57  1  0  0  0  0
 57 52  1  0  0  0  0
 58 53  1  0  0  0  0
M  END
>  <MODEL>
4

>  <REMARK>
 VINA RESULT:      -6.7      2.292      7.723
  Name = 
  15 active torsions:
  status: ('A' for Active; 'I' for Inactive)
    1  A    between atoms: C_4  and  C_10
    2  A    between atoms: C_8  and  C_36
    3  A    between atoms: C_8  and  O_39
    4  A    between atoms: C_10  and  N_17
    5  A    between atoms: N_17  and  O_39
    6  A    between atoms: C_22  and  C_56
    7  A    between atoms: C_23  and  C_41
    8  A    between atoms: C_23  and  C_52
    9  A    between atoms: C_24  and  C_31
   10  A    between atoms: C_33  and  O_35
   11  A    between atoms: C_34  and  C_37
   12  A    between atoms: C_34  and  N_47
   13  A    between atoms: C_36  and  C_58
   14  A    between atoms: C_40  and  N_48
   15  A    between atoms: N_48  and  N_53
                            x       y       z     vdW  Elec       q    Type
                         _______ _______ _______ _____ _____    ______ ____

>  <TORSDO>
F 15

$$$$
=
 OpenBabel11042413433D

 58 64  0  0  1  0  0  0  0  0999 V2000
  188.6640  176.9250  141.8920 C   0  0  0  0  0  1  0  0  0  0  0  0
  191.9090  174.5540  142.0540 C   0  0  0  0  0  0  0  0  0  0  0  0
  189.2550  175.5850  142.2750 C   0  0  1  0  0  3  0  0  0  0  0  0
  190.5290  171.9990  140.1330 O   0  0  0  0  0  0  0  0  0  0  0  0
  191.5460  174.9780  143.4140 C   0  0  1  0  0  3  0  0  0  0  0  0
  192.6520  175.7330  143.8890 O   0  0  0  0  0  0  0  0  0  0  0  0
  193.2000  174.7400  141.8830 C   0  0  0  0  0  0  0  0  0  0  0  0
  193.2600  174.2300  139.3960 C   0  0  1  0  0  3  0  0  0  0  0  0
  189.7210  174.8750  140.9830 C   0  0  1  0  0  3  0  0  0  0  0  0
  192.3710  173.1150  139.3540 O   0  0  0  0  0  0  0  0  0  0  0  0
  193.6800  175.3400  143.0850 N   0  0  0  0  0  0  0  0  0  0  0  0
  190.9430  174.0750  141.1220 N   0  0  0  0  0  0  0  0  0  0  0  0
  190.2320  175.7930  143.4630 C   0  0  2  0  0  3  0  0  0  0  0  0
  191.2620  173.0210  140.1950 C   0  0  0  0  0  0  0  0  0  0  0  0
  194.0570  174.2620  140.7200 C   0  0  1  0  0  3  0  0  0  0  0  0
  189.2300  174.3330  146.8010 N   0  0  0  0  0  0  0  0  0  0  0  0
  188.7950  176.6950  145.4800 C   0  0  0  0  0  0  0  0  0  0  0  0
  189.7990  174.5180  145.5830 C   0  0  0  0  0  3  0  0  0  0  0  0
  189.5850  175.6890  144.8540 C   0  0  0  0  0  0  0  0  0  0  0  0
  188.5910  177.8020  144.9170 O   0  0  0  0  0  0  0  0  0  0  0  0
  188.4330  175.2850  147.3470 C   0  0  0  0  0  3  0  0  0  0  0  0
  188.2180  176.4560  146.6940 N   0  0  0  0  0  0  0  0  0  0  0  0
  187.3980  177.4440  147.2730 N   0  0  0  0  0  2  0  0  0  0  0  0
  185.2630  178.6960  147.4570 C   0  0  0  0  0  2  0  0  0  0  0  0
  185.5430  179.5520  146.2270 C   0  0  0  0  0  2  0  0  0  0  0  0
  185.9370  177.3310  147.3250 C   0  0  1  0  0  3  0  0  0  0  0  0
  185.4230  176.5760  146.0940 C   0  0  0  0  0  2  0  0  0  0  0  0
  185.2000  178.8150  144.9650 C   0  0  0  0  0  3  0  0  0  0  0  0
  185.1940  177.4700  144.8950 C   0  0  0  0  0  3  0  0  0  0  0  0
  193.2020  174.6260  137.1440 C   0  0  0  0  0  1  0  0  0  0  0  0
  194.0400  174.3130  138.2240 O   0  0  0  0  0  0  0  0  0  0  0  0
  188.5590  174.0640  140.4080 C   0  0  0  0  0  2  0  0  0  0  0  0
  188.5850  174.1760  137.9150 C   0  0  0  0  0  3  0  0  0  0  0  0
  187.1430  175.7030  139.1240 C   0  0  0  0  0  3  0  0  0  0  0  0
  187.2320  175.7840  136.6950 C   0  0  0  0  0  0  0  0  0  0  0  0
  186.7240  176.2680  137.9120 C   0  0  0  0  0  3  0  0  0  0  0  0
  188.1660  174.7370  136.7050 C   0  0  0  0  0  3  0  0  0  0  0  0
  188.0780  174.6560  139.1240 C   0  0  0  0  0  0  0  0  0  0  0  0
  187.6030  177.3120  134.7390 N   0  0  0  0  0  1  0  0  0  0  0  0
  186.7840  176.3670  135.4190 C   0  0  0  0  0  0  0  0  0  0  0  0
  185.6640  176.0580  134.9320 O   0  0  0  0  0  0  0  0  0  0  0  0
  195.0080  175.0600  143.6320 C   0  0  0  0  0  2  0  0  0  0  0  0
  194.9390  174.1750  144.8650 C   0  0  0  0  0  2  0  0  0  0  0  0
  195.3570  174.9480  146.0970 C   0  0  0  0  0  1  0  0  0  0  0  0
  195.3550  175.0730  140.5770 C   0  0  0  0  0  2  0  0  0  0  0  0
  196.5790  174.1860  140.6230 C   0  0  0  0  0  0  0  0  0  0  0  0
  197.6160  174.5810  141.2240 O   0  0  0  0  0  0  0  0  0  0  0  0
  196.6140  172.9150  140.0330 O   0  0  0  0  0  0  0  0  0  0  0  0
  196.9550  171.7340  140.6790 N   0  0  0  0  0  0  0  0  0  0  0  0
  197.3140  170.8110  139.7550 O   0  0  0  0  0  1  0  0  0  0  0  0
  195.7840  171.2580  141.4170 C   0  0  0  0  0  2  0  0  0  0  0  0
  197.3500  171.3320  143.2750 C   0  0  0  0  0  3  0  0  0  0  0  0
  196.1660  170.9060  142.8180 C   0  0  0  0  0  0  0  0  0  0  0  0
  195.0540  170.1070  144.9230 C   0  0  0  0  0  3  0  0  0  0  0  0
  195.7710  170.9870  145.8750 C   0  0  0  0  0  3  0  0  0  0  0  0
  197.0230  171.4150  145.7240 C   0  0  0  0  0  3  0  0  0  0  0  0
  197.9110  170.9670  144.6140 C   0  0  0  0  0  2  0  0  0  0  0  0
  195.2300  170.0680  143.5990 C   0  0  0  0  0  3  0  0  0  0  0  0
  3  1  1  6  0  0  0
  3 13  1  0  0  0  0
  4 14  2  0  0  0  0
  5  2  1  6  0  0  0
  5 13  1  0  0  0  0
  5  6  1  0  0  0  0
  7  2  2  0  0  0  0
  7 11  1  0  0  0  0
  8 31  1  6  0  0  0
  8 15  1  0  0  0  0
  9 32  1  1  0  0  0
  9 12  1  0  0  0  0
  9  3  1  0  0  0  0
 10  8  1  0  0  0  0
 10 14  1  0  0  0  0
 11 42  1  0  0  0  0
 11  6  1  0  0  0  0
 12  2  1  0  0  0  0
 13 19  1  1  0  0  0
 14 12  1  0  0  0  0
 15 45  1  6  0  0  0
 15  7  1  0  0  0  0
 16 21  2  0  0  0  0
 17 22  1  0  0  0  0
 18 16  1  0  0  0  0
 19 17  1  0  0  0  0
 19 18  2  0  0  0  0
 20 17  2  0  0  0  0
 22 23  1  0  0  0  0
 22 21  1  0  0  0  0
 25 24  1  0  0  0  0
 26 23  1  6  0  0  0
 26 24  1  0  0  0  0
 27 26  1  0  0  0  0
 28 25  1  0  0  0  0
 29 28  2  0  0  0  0
 29 27  1  0  0  0  0
 30 31  1  0  0  0  0
 33 38  1  0  0  0  0
 34 38  2  0  0  0  0
 35 37  1  0  0  0  0
 35 36  2  0  0  0  0
 36 34  1  0  0  0  0
 37 33  2  0  0  0  0
 38 32  1  0  0  0  0
 39 40  1  0  0  0  0
 40 35  1  0  0  0  0
 41 40  2  0  0  0  0
 42 43  1  0  0  0  0
 43 44  1  0  0  0  0
 45 46  1  0  0  0  0
 46 47  2  0  0  0  0
 48 46  1  0  0  0  0
 48 49  1  0  0  0  0
 49 51  1  0  0  0  0
 50 49  1  0  0  0  0
 51 53  1  0  0  0  0
 52 57  1  0  0  0  0
 53 52  2  0  0  0  0
 53 58  1  0  0  0  0
 54 55  1  0  0  0  0
 56 55  2  0  0  0  0
 57 56  1  0  0  0  0
 58 54  2  0  0  0  0
M  END
>  <MODEL>
5

>  <REMARK>
 VINA RESULT:      -6.4      2.723      7.888
  Name = 
  15 active torsions:
  status: ('A' for Active; 'I' for Inactive)
    1  A    between atoms: C_4  and  C_10
    2  A    between atoms: C_8  and  C_36
    3  A    between atoms: C_8  and  O_39
    4  A    between atoms: C_10  and  N_17
    5  A    between atoms: N_17  and  O_39
    6  A    between atoms: C_22  and  C_56
    7  A    between atoms: C_23  and  C_41
    8  A    between atoms: C_23  and  C_52
    9  A    between atoms: C_24  and  C_31
   10  A    between atoms: C_33  and  O_35
   11  A    between atoms: C_34  and  C_37
   12  A    between atoms: C_34  and  N_47
   13  A    between atoms: C_36  and  C_58
   14  A    between atoms: C_40  and  N_48
   15  A    between atoms: N_48  and  N_53
                            x       y       z     vdW  Elec       q    Type
                         _______ _______ _______ _____ _____    ______ ____

>  <TORSDO>
F 15

$$$$
=
 OpenBabel11042413433D

 58 64  0  0  1  0  0  0  0  0999 V2000
  190.1660  174.3140  141.5570 C   0  0  0  0  0  1  0  0  0  0  0  0
  192.6940  173.7150  144.6270 C   0  0  0  0  0  0  0  0  0  0  0  0
  190.3850  173.7580  142.9470 C   0  0  1  0  0  3  0  0  0  0  0  0
  192.3600  170.2490  144.6390 O   0  0  0  0  0  0  0  0  0  0  0  0
  191.7030  174.7340  145.0030 C   0  0  1  0  0  3  0  0  0  0  0  0
  192.4450  175.9230  145.2360 O   0  0  0  0  0  0  0  0  0  0  0  0
  193.8940  174.1570  144.9370 C   0  0  0  0  0  0  0  0  0  0  0  0
  195.2090  172.2950  143.8170 C   0  0  1  0  0  3  0  0  0  0  0  0
  191.4100  172.6040  142.8520 C   0  0  1  0  0  3  0  0  0  0  0  0
  194.4040  171.1750  144.1810 O   0  0  0  0  0  0  0  0  0  0  0  0
  193.7140  175.4760  145.4510 N   0  0  0  0  0  0  0  0  0  0  0  0
  192.3280  172.4940  143.9910 N   0  0  0  0  0  0  0  0  0  0  0  0
  190.6110  174.9410  143.9270 C   0  0  2  0  0  3  0  0  0  0  0  0
  193.0160  171.2640  144.2870 C   0  0  0  0  0  0  0  0  0  0  0  0
  195.1990  173.3750  144.9230 C   0  0  1  0  0  3  0  0  0  0  0  0
  188.1520  176.0000  146.5930 N   0  0  0  0  0  0  0  0  0  0  0  0
  188.1990  175.9990  143.8530 C   0  0  0  0  0  0  0  0  0  0  0  0
  189.2630  175.5540  145.9560 C   0  0  0  0  0  3  0  0  0  0  0  0
  189.3290  175.5030  144.5620 C   0  0  2  0  0  3  0  0  0  0  0  0
  188.1890  176.0380  142.5950 O   0  0  0  0  0  0  0  0  0  0  0  0
  187.0660  176.4110  145.8910 C   0  0  0  0  0  2  0  0  0  0  0  0
  187.0890  176.4120  144.5330 N   0  0  0  0  0  0  0  0  0  0  0  0
  185.9620  176.8510  143.8110 N   0  0  0  0  0  2  0  0  0  0  0  0
  186.3740  178.9370  142.5310 C   0  0  0  0  0  2  0  0  0  0  0  0
  185.9950  178.3090  141.1940 C   0  0  0  0  0  2  0  0  0  0  0  0
  185.6110  178.2670  143.6730 C   0  0  1  0  0  3  0  0  0  0  0  0
  184.0970  178.4200  143.4910 C   0  0  0  0  0  2  0  0  0  0  0  0
  184.5050  178.2890  141.0100 C   0  0  0  0  0  3  0  0  0  0  0  0
  183.6500  178.2900  142.0510 C   0  0  0  0  0  3  0  0  0  0  0  0
  196.8130  170.6760  144.0040 C   0  0  0  0  0  1  0  0  0  0  0  0
  196.4890  171.8920  143.3830 O   0  0  0  0  0  0  0  0  0  0  0  0
  190.6690  171.2960  142.5730 C   0  0  0  0  0  2  0  0  0  0  0  0
  190.4390  171.1010  140.0960 C   0  0  0  0  0  3  0  0  0  0  0  0
  192.1200  169.7550  141.2080 C   0  0  0  0  0  3  0  0  0  0  0  0
  191.8290  169.5880  138.7990 C   0  0  0  0  0  0  0  0  0  0  0  0
  192.4850  169.1930  139.9770 C   0  0  0  0  0  3  0  0  0  0  0  0
  190.8040  170.5430  138.8670 C   0  0  0  0  0  3  0  0  0  0  0  0
  191.0920  170.7100  141.2650 C   0  0  0  0  0  0  0  0  0  0  0  0
  191.2470  168.8330  136.4770 N   0  0  0  0  0  1  0  0  0  0  0  0
  192.2190  169.0080  137.5030 C   0  0  0  0  0  0  0  0  0  0  0  0
  193.4060  168.6380  137.2970 O   0  0  0  0  0  0  0  0  0  0  0  0
  194.5420  176.0250  146.5250 C   0  0  0  0  0  2  0  0  0  0  0  0
  194.5280  177.5450  146.5310 C   0  0  0  0  0  2  0  0  0  0  0  0
  195.3450  178.0870  145.3800 C   0  0  0  0  0  1  0  0  0  0  0  0
  196.4290  174.2910  144.8270 C   0  0  0  0  0  2  0  0  0  0  0  0
  196.5760  174.8940  143.4470 C   0  0  0  0  0  0  0  0  0  0  0  0
  197.6710  174.7880  142.8310 O   0  0  0  0  0  0  0  0  0  0  0  0
  195.5290  175.5640  142.8010 O   0  0  0  0  0  0  0  0  0  0  0  0
  195.2370  175.4900  141.4460 N   0  0  0  0  0  0  0  0  0  0  0  0
  195.3960  176.7150  140.8900 O   0  0  0  0  0  1  0  0  0  0  0  0
  193.8440  175.0620  141.2970 C   0  0  0  0  0  2  0  0  0  0  0  0
  193.0730  174.1880  139.1640 C   0  0  0  0  0  3  0  0  0  0  0  0
  193.7490  173.9570  140.2960 C   0  0  0  0  0  0  0  0  0  0  0  0
  194.9040  171.7870  139.7790 C   0  0  0  0  0  3  0  0  0  0  0  0
  194.9680  171.9400  138.3070 C   0  0  0  0  0  3  0  0  0  0  0  0
  194.0670  172.5840  137.5660 C   0  0  0  0  0  3  0  0  0  0  0  0
  192.8030  173.1460  138.1230 C   0  0  0  0  0  2  0  0  0  0  0  0
  194.3690  172.6590  140.6400 C   0  0  0  0  0  3  0  0  0  0  0  0
  2  7  2  0  0  0  0
  3  1  1  6  0  0  0
  3 13  1  0  0  0  0
  5  2  1  6  0  0  0
  5  6  1  0  0  0  0
  6 11  1  0  0  0  0
  7 11  1  0  0  0  0
  8 31  1  1  0  0  0
  8 10  1  0  0  0  0
  8 15  1  0  0  0  0
  9 32  1  1  0  0  0
  9  3  1  0  0  0  0
  9 12  1  0  0  0  0
 10 14  1  0  0  0  0
 11 42  1  0  0  0  0
 12 14  1  0  0  0  0
 12  2  1  0  0  0  0
 13 19  1  1  0  0  0
 13  5  1  0  0  0  0
 14  4  2  0  0  0  0
 15 45  1  6  0  0  0
 15  7  1  0  0  0  0
 17 22  1  0  0  0  0
 17 19  1  0  0  0  0
 18 16  2  0  0  0  0
 19 18  1  1  0  0  0
 20 17  2  0  0  0  0
 21 16  1  0  0  0  0
 22 21  1  0  0  0  0
 23 22  1  0  0  0  0
 24 26  1  0  0  0  0
 25 24  1  0  0  0  0
 26 23  1  6  0  0  0
 27 26  1  0  0  0  0
 28 25  1  0  0  0  0
 28 29  2  0  0  0  0
 29 27  1  0  0  0  0
 31 30  1  0  0  0  0
 33 38  1  0  0  0  0
 34 38  2  0  0  0  0
 35 37  1  0  0  0  0
 35 36  2  0  0  0  0
 36 34  1  0  0  0  0
 37 33  2  0  0  0  0
 38 32  1  0  0  0  0
 39 40  1  0  0  0  0
 40 35  1  0  0  0  0
 41 40  2  0  0  0  0
 42 43  1  0  0  0  0
 44 43  1  0  0  0  0
 46 45  1  0  0  0  0
 47 46  2  0  0  0  0
 48 46  1  0  0  0  0
 49 48  1  0  0  0  0
 50 49  1  0  0  0  0
 51 49  1  0  0  0  0
 52 53  2  0  0  0  0
 53 58  1  0  0  0  0
 53 51  1  0  0  0  0
 54 58  2  0  0  0  0
 55 54  1  0  0  0  0
 56 57  1  0  0  0  0
 56 55  2  0  0  0  0
 57 52  1  0  0  0  0
M  END
>  <MODEL>
6

>  <REMARK>
 VINA RESULT:      -6.4      2.610      7.842
  Name = 
  15 active torsions:
  status: ('A' for Active; 'I' for Inactive)
    1  A    between atoms: C_4  and  C_10
    2  A    between atoms: C_8  and  C_36
    3  A    between atoms: C_8  and  O_39
    4  A    between atoms: C_10  and  N_17
    5  A    between atoms: N_17  and  O_39
    6  A    between atoms: C_22  and  C_56
    7  A    between atoms: C_23  and  C_41
    8  A    between atoms: C_23  and  C_52
    9  A    between atoms: C_24  and  C_31
   10  A    between atoms: C_33  and  O_35
   11  A    between atoms: C_34  and  C_37
   12  A    between atoms: C_34  and  N_47
   13  A    between atoms: C_36  and  C_58
   14  A    between atoms: C_40  and  N_48
   15  A    between atoms: N_48  and  N_53
                            x       y       z     vdW  Elec       q    Type
                         _______ _______ _______ _____ _____    ______ ____

>  <TORSDO>
F 15

$$$$
=
 OpenBabel11042413433D

 58 64  0  0  1  0  0  0  0  0999 V2000
  189.4720  172.8260  143.2510 C   0  0  0  0  0  1  0  0  0  0  0  0
  192.5200  175.3520  142.5390 C   0  0  0  0  0  0  0  0  0  0  0  0
  189.9340  174.1450  142.6700 C   0  0  1  0  0  3  0  0  0  0  0  0
  191.1250  178.0270  144.2780 O   0  0  0  0  0  0  0  0  0  0  0  0
  192.0780  174.7510  141.2720 C   0  0  1  0  0  3  0  0  0  0  0  0
  193.1920  174.0130  140.7880 O   0  0  0  0  0  0  0  0  0  0  0  0
  193.8300  175.2650  142.6150 C   0  0  0  0  0  0  0  0  0  0  0  0
  194.0560  176.0650  145.0150 C   0  0  1  0  0  3  0  0  0  0  0  0
  190.4530  175.0280  143.8280 C   0  0  1  0  0  3  0  0  0  0  0  0
  193.0970  177.1220  145.0100 O   0  0  0  0  0  0  0  0  0  0  0  0
  194.2520  174.5580  141.4490 N   0  0  0  0  0  0  0  0  0  0  0  0
  191.6020  175.8780  143.4930 N   0  0  0  0  0  0  0  0  0  0  0  0
  190.8250  173.8580  141.4300 C   0  0  2  0  0  3  0  0  0  0  0  0
  191.9200  177.0510  144.2650 C   0  0  0  0  0  0  0  0  0  0  0  0
  194.7430  175.9260  143.6370 C   0  0  1  0  0  3  0  0  0  0  0  0
  188.0180  174.2100  138.9250 N   0  0  0  0  0  0  0  0  0  0  0  0
  190.5610  173.1870  138.8960 C   0  0  0  0  0  0  0  0  0  0  0  0
  188.7720  174.2920  140.0500 C   0  0  0  0  0  3  0  0  0  0  0  0
  190.0620  173.7600  140.1000 C   0  0  0  0  0  0  0  0  0  0  0  0
  191.7310  172.7280  138.8340 O   0  0  0  0  0  0  0  0  0  0  0  0
  188.4990  173.6050  137.8100 C   0  0  0  0  0  3  0  0  0  0  0  0
  189.7590  173.0990  137.7940 N   0  0  0  0  0  0  0  0  0  0  0  0
  190.2540  172.4820  136.6290 N   0  0  0  0  0  2  0  0  0  0  0  0
  190.4950  170.7260  134.8910 C   0  0  0  0  0  2  0  0  0  0  0  0
  191.9410  170.4160  135.2630 C   0  0  0  0  0  2  0  0  0  0  0  0
  189.7210  171.2170  136.1130 C   0  0  1  0  0  3  0  0  0  0  0  0
  189.7080  170.1600  137.2230 C   0  0  0  0  0  2  0  0  0  0  0  0
  192.0090  169.4950  136.4460 C   0  0  0  0  0  3  0  0  0  0  0  0
  191.0200  169.4160  137.3570 C   0  0  0  0  0  3  0  0  0  0  0  0
  194.5620  177.2800  146.8850 C   0  0  0  0  0  1  0  0  0  0  0  0
  194.9320  176.1670  146.1150 O   0  0  0  0  0  0  0  0  0  0  0  0
  189.2880  175.8300  144.4090 C   0  0  0  0  0  2  0  0  0  0  0  0
  188.8420  177.1020  142.3080 C   0  0  0  0  0  3  0  0  0  0  0  0
  187.0050  175.9120  143.3490 C   0  0  0  0  0  3  0  0  0  0  0  0
  186.6260  177.1920  141.3150 C   0  0  0  0  0  0  0  0  0  0  0  0
  186.1400  176.3690  142.3450 C   0  0  0  0  0  3  0  0  0  0  0  0
  187.9810  177.5570  141.3050 C   0  0  0  0  0  3  0  0  0  0  0  0
  188.3590  176.2820  143.3300 C   0  0  0  0  0  0  0  0  0  0  0  0
  184.6620  178.5610  140.5640 N   0  0  0  0  0  1  0  0  0  0  0  0
  185.7220  177.6630  140.2530 C   0  0  0  0  0  0  0  0  0  0  0  0
  185.8590  177.2580  139.0690 O   0  0  0  0  0  0  0  0  0  0  0  0
  195.5090  174.8520  140.7600 C   0  0  0  0  0  2  0  0  0  0  0  0
  195.8810  173.7600  139.7700 C   0  0  0  0  0  2  0  0  0  0  0  0
  196.6120  172.6360  140.4700 C   0  0  0  0  0  1  0  0  0  0  0  0
  196.1010  175.2170  143.7540 C   0  0  0  0  0  2  0  0  0  0  0  0
  195.9760  173.8690  144.4290 C   0  0  0  0  0  0  0  0  0  0  0  0
  196.4550  173.7000  145.5840 O   0  0  0  0  0  0  0  0  0  0  0  0
  195.3290  172.7810  143.8280 O   0  0  0  0  0  0  0  0  0  0  0  0
  194.1180  172.2370  144.2350 N   0  0  0  0  0  0  0  0  0  0  0  0
  193.7960  172.7340  145.4530 O   0  0  0  0  0  1  0  0  0  0  0  0
  194.2740  170.7830  144.3260 C   0  0  0  0  0  2  0  0  0  0  0  0
  192.7320  169.0490  143.6010 C   0  0  0  0  0  3  0  0  0  0  0  0
  193.4700  170.1120  143.2600 C   0  0  0  0  0  0  0  0  0  0  0  0
  192.6170  170.6180  140.9520 C   0  0  0  0  0  3  0  0  0  0  0  0
  191.2560  170.0560  141.1140 C   0  0  0  0  0  3  0  0  0  0  0  0
  190.9460  169.0190  141.8910 C   0  0  0  0  0  3  0  0  0  0  0  0
  191.9650  168.2130  142.6240 C   0  0  0  0  0  2  0  0  0  0  0  0
  193.5780  170.6360  141.8810 C   0  0  0  0  0  3  0  0  0  0  0  0
  2  7  2  0  0  0  0
  2 12  1  0  0  0  0
  3  1  1  1  0  0  0
  3  9  1  0  0  0  0
  5  6  1  1  0  0  0
  5 13  1  0  0  0  0
  5  2  1  0  0  0  0
  6 11  1  0  0  0  0
  7 15  1  0  0  0  0
  8 31  1  1  0  0  0
  9 32  1  6  0  0  0
 10  8  1  0  0  0  0
 11  7  1  0  0  0  0
 12  9  1  0  0  0  0
 12 14  1  0  0  0  0
 13 19  1  6  0  0  0
 13  3  1  0  0  0  0
 14  4  2  0  0  0  0
 14 10  1  0  0  0  0
 15 45  1  1  0  0  0
 15  8  1  0  0  0  0
 16 18  1  0  0  0  0
 17 19  1  0  0  0  0
 18 19  2  0  0  0  0
 20 17  2  0  0  0  0
 21 16  2  0  0  0  0
 22 21  1  0  0  0  0
 22 17  1  0  0  0  0
 23 22  1  0  0  0  0
 24 25  1  0  0  0  0
 24 26  1  0  0  0  0
 25 28  1  0  0  0  0
 26 23  1  1  0  0  0
 26 27  1  0  0  0  0
 27 29  1  0  0  0  0
 28 29  2  0  0  0  0
 31 30  1  0  0  0  0
 33 38  1  0  0  0  0
 35 36  2  0  0  0  0
 36 34  1  0  0  0  0
 37 35  1  0  0  0  0
 37 33  2  0  0  0  0
 38 34  2  0  0  0  0
 38 32  1  0  0  0  0
 40 39  1  0  0  0  0
 40 35  1  0  0  0  0
 41 40  2  0  0  0  0
 42 11  1  0  0  0  0
 43 44  1  0  0  0  0
 43 42  1  0  0  0  0
 45 46  1  0  0  0  0
 46 47  2  0  0  0  0
 48 49  1  0  0  0  0
 48 46  1  0  0  0  0
 49 51  1  0  0  0  0
 49 50  1  0  0  0  0
 53 52  2  0  0  0  0
 53 51  1  0  0  0  0
 54 55  1  0  0  0  0
 54 58  2  0  0  0  0
 55 56  2  0  0  0  0
 56 57  1  0  0  0  0
 57 52  1  0  0  0  0
 58 53  1  0  0  0  0
M  END
>  <MODEL>
7

>  <REMARK>
 VINA RESULT:      -6.0      2.418      3.837
  Name = 
  15 active torsions:
  status: ('A' for Active; 'I' for Inactive)
    1  A    between atoms: C_4  and  C_10
    2  A    between atoms: C_8  and  C_36
    3  A    between atoms: C_8  and  O_39
    4  A    between atoms: C_10  and  N_17
    5  A    between atoms: N_17  and  O_39
    6  A    between atoms: C_22  and  C_56
    7  A    between atoms: C_23  and  C_41
    8  A    between atoms: C_23  and  C_52
    9  A    between atoms: C_24  and  C_31
   10  A    between atoms: C_33  and  O_35
   11  A    between atoms: C_34  and  C_37
   12  A    between atoms: C_34  and  N_47
   13  A    between atoms: C_36  and  C_58
   14  A    between atoms: C_40  and  N_48
   15  A    between atoms: N_48  and  N_53
                            x       y       z     vdW  Elec       q    Type
                         _______ _______ _______ _____ _____    ______ ____

>  <TORSDO>
F 15

$$$$
=
 OpenBabel11042413433D

 58 64  0  0  1  0  0  0  0  0999 V2000
  192.4900  177.5610  144.1490 C   0  0  0  0  0  1  0  0  0  0  0  0
  188.5730  176.7170  143.7860 C   0  0  0  0  0  0  0  0  0  0  0  0
  191.3920  176.5200  144.2070 C   0  0  1  0  0  3  0  0  0  0  0  0
  188.2180  175.4730  147.0180 O   0  0  0  0  0  0  0  0  0  0  0  0
  189.3060  176.1330  142.6530 C   0  0  1  0  0  3  0  0  0  0  0  0
  188.7960  176.7760  141.4930 O   0  0  0  0  0  0  0  0  0  0  0  0
  187.5270  177.3660  143.3240 C   0  0  0  0  0  0  0  0  0  0  0  0
  186.8360  178.4430  145.5180 C   0  0  1  0  0  3  0  0  0  0  0  0
  190.4420  176.8830  145.3720 C   0  0  1  0  0  3  0  0  0  0  0  0
  187.0530  177.3470  146.4060 O   0  0  0  0  0  0  0  0  0  0  0  0
  187.5940  177.2730  141.9010 N   0  0  0  0  0  0  0  0  0  0  0  0
  189.0250  176.5900  145.1320 N   0  0  0  0  0  0  0  0  0  0  0  0
  190.8390  176.2990  142.7730 C   0  0  2  0  0  3  0  0  0  0  0  0
  188.0930  176.4370  146.2180 C   0  0  0  0  0  0  0  0  0  0  0  0
  186.3750  177.9540  144.1260 C   0  0  1  0  0  3  0  0  0  0  0  0
  191.4780  172.9810  141.0820 N   0  0  0  0  0  0  0  0  0  0  0  0
  192.8630  175.3250  141.3960 C   0  0  0  0  0  0  0  0  0  0  0  0
  190.8920  174.0060  141.7500 C   0  0  0  0  0  3  0  0  0  0  0  0
  191.5640  175.2100  141.9660 C   0  0  0  0  0  0  0  0  0  0  0  0
  193.5230  176.3920  141.4970 O   0  0  0  0  0  0  0  0  0  0  0  0
  192.7410  173.0980  140.6010 C   0  0  0  0  0  3  0  0  0  0  0  0
  193.4280  174.2590  140.7550 N   0  0  0  0  0  0  0  0  0  0  0  0
  194.7350  174.3770  140.2430 N   0  0  0  0  0  2  0  0  0  0  0  0
  197.2110  174.2430  140.3610 C   0  0  0  0  0  2  0  0  0  0  0  0
  197.3620  175.6670  140.8830 C   0  0  0  0  0  2  0  0  0  0  0  0
  195.8750  173.6480  140.8060 C   0  0  1  0  0  3  0  0  0  0  0  0
  195.7700  173.6060  142.3350 C   0  0  0  0  0  2  0  0  0  0  0  0
  197.1250  175.7280  142.3640 C   0  0  0  0  0  3  0  0  0  0  0  0
  196.3650  174.8230  143.0100 C   0  0  0  0  0  3  0  0  0  0  0  0
  185.3790  178.8790  147.2250 C   0  0  0  0  0  1  0  0  0  0  0  0
  186.0200  179.4310  146.1070 O   0  0  0  0  0  0  0  0  0  0  0  0
  190.9580  176.2380  146.6600 C   0  0  0  0  0  2  0  0  0  0  0  0
  193.3240  175.4460  146.7400 C   0  0  0  0  0  3  0  0  0  0  0  0
  191.6670  174.0260  145.6870 C   0  0  0  0  0  3  0  0  0  0  0  0
  193.9930  173.3210  145.7720 C   0  0  0  0  0  0  0  0  0  0  0  0
  192.6620  173.0850  145.3900 C   0  0  0  0  0  3  0  0  0  0  0  0
  194.3170  174.5080  146.4460 C   0  0  0  0  0  3  0  0  0  0  0  0
  192.0010  175.2100  146.3620 C   0  0  0  0  0  0  0  0  0  0  0  0
  194.6910  171.0880  144.8650 N   0  0  0  0  0  1  0  0  0  0  0  0
  195.0380  172.3290  145.4710 C   0  0  0  0  0  0  0  0  0  0  0  0
  196.2410  172.5540  145.7700 O   0  0  0  0  0  0  0  0  0  0  0  0
  186.4020  177.1680  141.0600 C   0  0  0  0  0  2  0  0  0  0  0  0
  186.6670  177.6440  139.6410 C   0  0  0  0  0  2  0  0  0  0  0  0
  186.6780  176.4740  138.6820 C   0  0  0  0  0  1  0  0  0  0  0  0
  185.6290  179.0570  143.3600 C   0  0  0  0  0  2  0  0  0  0  0  0
  184.1550  178.7470  143.2200 C   0  0  0  0  0  0  0  0  0  0  0  0
  183.5170  178.2820  144.2040 O   0  0  0  0  0  0  0  0  0  0  0  0
  183.4450  178.9720  142.0330 O   0  0  0  0  0  0  0  0  0  0  0  0
  182.2570  178.3520  141.6730 N   0  0  0  0  0  0  0  0  0  0  0  0
  182.4800  177.5560  140.5990 O   0  0  0  0  0  1  0  0  0  0  0  0
  181.2830  179.3870  141.3210 C   0  0  0  0  0  2  0  0  0  0  0  0
  179.3820  178.4840  140.1060 C   0  0  0  0  0  3  0  0  0  0  0  0
  179.9060  178.8110  141.2940 C   0  0  0  0  0  0  0  0  0  0  0  0
  178.2840  177.7450  142.8880 C   0  0  0  0  0  3  0  0  0  0  0  0
  177.8140  176.6570  141.9980 C   0  0  0  0  0  3  0  0  0  0  0  0
  177.7210  176.7420  140.6720 C   0  0  0  0  0  3  0  0  0  0  0  0
  177.9780  178.0000  139.9140 C   0  0  0  0  0  2  0  0  0  0  0  0
  179.1850  178.6820  142.5790 C   0  0  0  0  0  3  0  0  0  0  0  0
  2 12  1  0  0  0  0
  3  1  1  6  0  0  0
  3  9  1  0  0  0  0
  5  6  1  6  0  0  0
  5 13  1  0  0  0  0
  5  2  1  0  0  0  0
  6 11  1  0  0  0  0
  7  2  2  0  0  0  0
  7 15  1  0  0  0  0
  8 31  1  1  0  0  0
  8 10  1  0  0  0  0
  9 32  1  1  0  0  0
 11  7  1  0  0  0  0
 12  9  1  0  0  0  0
 12 14  1  0  0  0  0
 13 19  1  1  0  0  0
 13  3  1  0  0  0  0
 14 10  1  0  0  0  0
 14  4  2  0  0  0  0
 15 45  1  6  0  0  0
 15  8  1  0  0  0  0
 16 18  1  0  0  0  0
 17 20  2  0  0  0  0
 17 19  1  0  0  0  0
 18 19  2  0  0  0  0
 21 22  1  0  0  0  0
 21 16  2  0  0  0  0
 22 17  1  0  0  0  0
 23 22  1  0  0  0  0
 24 26  1  0  0  0  0
 24 25  1  0  0  0  0
 25 28  1  0  0  0  0
 26 23  1  6  0  0  0
 26 27  1  0  0  0  0
 27 29  1  0  0  0  0
 28 29  2  0  0  0  0
 31 30  1  0  0  0  0
 34 38  1  0  0  0  0
 35 37  2  0  0  0  0
 36 34  2  0  0  0  0
 36 35  1  0  0  0  0
 37 33  1  0  0  0  0
 38 32  1  0  0  0  0
 38 33  2  0  0  0  0
 39 40  1  0  0  0  0
 40 41  2  0  0  0  0
 40 35  1  0  0  0  0
 42 11  1  0  0  0  0
 43 42  1  0  0  0  0
 44 43  1  0  0  0  0
 46 45  1  0  0  0  0
 46 47  2  0  0  0  0
 48 46  1  0  0  0  0
 49 48  1  0  0  0  0
 50 49  1  0  0  0  0
 51 49  1  0  0  0  0
 52 53  2  0  0  0  0
 53 51  1  0  0  0  0
 53 58  1  0  0  0  0
 55 54  1  0  0  0  0
 56 55  2  0  0  0  0
 57 52  1  0  0  0  0
 57 56  1  0  0  0  0
 58 54  2  0  0  0  0
M  END
>  <MODEL>
8

>  <REMARK>
 VINA RESULT:      -5.9      3.667      9.961
  Name = 
  15 active torsions:
  status: ('A' for Active; 'I' for Inactive)
    1  A    between atoms: C_4  and  C_10
    2  A    between atoms: C_8  and  C_36
    3  A    between atoms: C_8  and  O_39
    4  A    between atoms: C_10  and  N_17
    5  A    between atoms: N_17  and  O_39
    6  A    between atoms: C_22  and  C_56
    7  A    between atoms: C_23  and  C_41
    8  A    between atoms: C_23  and  C_52
    9  A    between atoms: C_24  and  C_31
   10  A    between atoms: C_33  and  O_35
   11  A    between atoms: C_34  and  C_37
   12  A    between atoms: C_34  and  N_47
   13  A    between atoms: C_36  and  C_58
   14  A    between atoms: C_40  and  N_48
   15  A    between atoms: N_48  and  N_53
                            x       y       z     vdW  Elec       q    Type
                         _______ _______ _______ _____ _____    ______ ____

>  <TORSDO>
F 15

$$$$
=
 OpenBabel11042413433D

 58 64  0  0  1  0  0  0  0  0999 V2000
  194.7330  176.0110  142.7540 C   0  0  0  0  0  1  0  0  0  0  0  0
  191.0930  175.3000  144.3120 C   0  0  0  0  0  0  0  0  0  0  0  0
  193.8150  175.0530  143.4830 C   0  0  1  0  0  3  0  0  0  0  0  0
  192.2440  174.7000  147.5430 O   0  0  0  0  0  0  0  0  0  0  0  0
  191.2760  174.4810  143.1060 C   0  0  1  0  0  3  0  0  0  0  0  0
  190.2830  174.9190  142.1890 O   0  0  0  0  0  0  0  0  0  0  0  0
  189.9250  175.9000  144.2430 C   0  0  0  0  0  0  0  0  0  0  0  0
  190.2250  177.3990  146.2710 C   0  0  1  0  0  3  0  0  0  0  0  0
  193.4600  175.6710  144.8550 C   0  0  1  0  0  3  0  0  0  0  0  0
  190.8540  176.4800  147.1620 O   0  0  0  0  0  0  0  0  0  0  0  0
  189.3640  175.5400  142.9810 N   0  0  0  0  0  0  0  0  0  0  0  0
  192.0940  175.4060  145.3210 N   0  0  0  0  0  0  0  0  0  0  0  0
  192.6980  174.5940  142.5070 C   0  0  2  0  0  3  0  0  0  0  0  0
  191.7420  175.5020  146.7130 C   0  0  0  0  0  0  0  0  0  0  0  0
  189.2200  176.6810  145.3420 C   0  0  1  0  0  3  0  0  0  0  0  0
  194.3190  171.3150  141.5580 N   0  0  0  0  0  0  0  0  0  0  0  0
  192.5010  173.0130  140.4080 C   0  0  0  0  0  0  0  0  0  0  0  0
  193.9380  172.4260  142.2370 C   0  0  0  0  0  3  0  0  0  0  0  0
  193.0380  173.3400  141.6850 C   0  0  0  0  0  0  0  0  0  0  0  0
  191.6460  173.7540  139.8560 O   0  0  0  0  0  0  0  0  0  0  0  0
  193.8360  171.0590  140.3170 C   0  0  0  0  0  3  0  0  0  0  0  0
  192.9340  171.8990  139.7470 N   0  0  0  0  0  0  0  0  0  0  0  0
  192.4280  171.6210  138.4620 N   0  0  0  0  0  2  0  0  0  0  0  0
  190.2130  170.5220  138.6730 C   0  0  0  0  0  2  0  0  0  0  0  0
  189.4740  171.6510  137.9640 C   0  0  0  0  0  2  0  0  0  0  0  0
  191.6490  170.4170  138.1610 C   0  0  1  0  0  3  0  0  0  0  0  0
  191.6810  170.1320  136.6550 C   0  0  0  0  0  2  0  0  0  0  0  0
  189.5880  171.5200  136.4730 C   0  0  0  0  0  3  0  0  0  0  0  0
  190.6110  170.8740  135.8820 C   0  0  0  0  0  3  0  0  0  0  0  0
  189.6200  178.2040  148.3240 C   0  0  0  0  0  1  0  0  0  0  0  0
  189.7120  178.5180  146.9600 O   0  0  0  0  0  0  0  0  0  0  0  0
  194.5150  175.2540  145.8820 C   0  0  0  0  0  2  0  0  0  0  0  0
  196.3080  173.6470  145.2260 C   0  0  0  0  0  3  0  0  0  0  0  0
  194.1130  172.7710  145.7630 C   0  0  0  0  0  3  0  0  0  0  0  0
  195.8930  171.2560  145.0900 C   0  0  0  0  0  0  0  0  0  0  0  0
  194.5640  171.4720  145.4920 C   0  0  0  0  0  3  0  0  0  0  0  0
  196.7600  172.3510  144.9570 C   0  0  0  0  0  3  0  0  0  0  0  0
  194.9880  173.8600  145.6270 C   0  0  0  0  0  0  0  0  0  0  0  0
  195.4660  168.8960  144.3530 N   0  0  0  0  0  1  0  0  0  0  0  0
  196.3730  169.8920  144.8160 C   0  0  0  0  0  0  0  0  0  0  0  0
  197.5780  169.5840  145.0130 O   0  0  0  0  0  0  0  0  0  0  0  0
  187.9290  175.3360  142.7840 C   0  0  0  0  0  2  0  0  0  0  0  0
  187.4230  176.0370  141.5340 C   0  0  0  0  0  2  0  0  0  0  0  0
  188.0610  177.4020  141.3970 C   0  0  0  0  0  1  0  0  0  0  0  0
  188.1690  177.6550  144.7880 C   0  0  0  0  0  2  0  0  0  0  0  0
  186.9410  177.7210  145.6690 C   0  0  0  0  0  0  0  0  0  0  0  0
  186.6920  176.7760  146.4660 O   0  0  0  0  0  0  0  0  0  0  0  0
  186.0590  178.8100  145.6550 O   0  0  0  0  0  0  0  0  0  0  0  0
  184.7870  178.8110  145.1000 N   0  0  0  0  0  0  0  0  0  0  0  0
  183.8780  178.5640  146.0730 O   0  0  0  0  0  1  0  0  0  0  0  0
  184.7240  177.7520  144.0900 C   0  0  0  0  0  2  0  0  0  0  0  0
  184.4610  177.9840  141.6850 C   0  0  0  0  0  3  0  0  0  0  0  0
  183.9520  178.2210  142.9000 C   0  0  0  0  0  0  0  0  0  0  0  0
  181.6170  178.9630  142.3490 C   0  0  0  0  0  3  0  0  0  0  0  0
  181.4730  178.2370  141.0650 C   0  0  0  0  0  3  0  0  0  0  0  0
  182.4700  177.9770  140.2200 C   0  0  0  0  0  3  0  0  0  0  0  0
  183.8580  178.4880  140.4110 C   0  0  0  0  0  2  0  0  0  0  0  0
  182.6940  178.9610  143.1400 C   0  0  0  0  0  3  0  0  0  0  0  0
  2 12  1  0  0  0  0
  3  1  1  6  0  0  0
  3  9  1  0  0  0  0
  5  6  1  6  0  0  0
  5  2  1  0  0  0  0
  6 11  1  0  0  0  0
  7  2  2  0  0  0  0
  7 15  1  0  0  0  0
  8 31  1  1  0  0  0
  8 10  1  0  0  0  0
  9 12  1  0  0  0  0
  9 32  1  1  0  0  0
 11  7  1  0  0  0  0
 12 14  1  0  0  0  0
 13 19  1  1  0  0  0
 13  5  1  0  0  0  0
 13  3  1  0  0  0  0
 14 10  1  0  0  0  0
 14  4  2  0  0  0  0
 15 45  1  6  0  0  0
 15  8  1  0  0  0  0
 16 18  1  0  0  0  0
 17 19  1  0  0  0  0
 19 18  2  0  0  0  0
 20 17  2  0  0  0  0
 21 16  2  0  0  0  0
 22 21  1  0  0  0  0
 22 17  1  0  0  0  0
 23 22  1  0  0  0  0
 25 24  1  0  0  0  0
 26 23  1  6  0  0  0
 26 24  1  0  0  0  0
 27 26  1  0  0  0  0
 28 25  1  0  0  0  0
 29 28  2  0  0  0  0
 29 27  1  0  0  0  0
 31 30  1  0  0  0  0
 33 38  1  0  0  0  0
 35 36  2  0  0  0  0
 36 34  1  0  0  0  0
 37 35  1  0  0  0  0
 37 33  2  0  0  0  0
 38 34  2  0  0  0  0
 38 32  1  0  0  0  0
 39 40  1  0  0  0  0
 40 41  2  0  0  0  0
 40 35  1  0  0  0  0
 42 11  1  0  0  0  0
 43 42  1  0  0  0  0
 44 43  1  0  0  0  0
 45 46  1  0  0  0  0
 46 47  2  0  0  0  0
 48 46  1  0  0  0  0
 49 48  1  0  0  0  0
 49 50  1  0  0  0  0
 51 49  1  0  0  0  0
 52 53  2  0  0  0  0
 53 58  1  0  0  0  0
 53 51  1  0  0  0  0
 54 58  2  0  0  0  0
 55 54  1  0  0  0  0
 56 57  1  0  0  0  0
 56 55  2  0  0  0  0
 57 52  1  0  0  0  0
M  END
>  <MODEL>
9

>  <REMARK>
 VINA RESULT:      -5.9      2.430      8.654
  Name = 
  15 active torsions:
  status: ('A' for Active; 'I' for Inactive)
    1  A    between atoms: C_4  and  C_10
    2  A    between atoms: C_8  and  C_36
    3  A    between atoms: C_8  and  O_39
    4  A    between atoms: C_10  and  N_17
    5  A    between atoms: N_17  and  O_39
    6  A    between atoms: C_22  and  C_56
    7  A    between atoms: C_23  and  C_41
    8  A    between atoms: C_23  and  C_52
    9  A    between atoms: C_24  and  C_31
   10  A    between atoms: C_33  and  O_35
   11  A    between atoms: C_34  and  C_37
   12  A    between atoms: C_34  and  N_47
   13  A    between atoms: C_36  and  C_58
   14  A    between atoms: C_40  and  N_48
   15  A    between atoms: N_48  and  N_53
                            x       y       z     vdW  Elec       q    Type
                         _______ _______ _______ _____ _____    ______ ____

>  <TORSDO>
F 15

$$$$
