=
 OpenBabel11042418433D

 34 35  0  0  1  0  0  0  0  0999 V2000
  187.6290  176.9750  142.2920 C   0  0  1  0  0  3  0  0  0  0  0  0
  185.8440  177.2320  143.6510 C   0  0  0  0  0  0  0  0  0  0  0  0
  186.8950  176.7850  144.6030 C   0  0  1  0  0  3  0  0  0  0  0  0
  183.5430  178.7810  145.9300 O   0  0  0  0  0  0  0  0  0  0  0  0
  188.3930  178.1140  141.6430 C   0  0  0  0  0  1  0  0  0  0  0  0
  188.0860  176.7870  143.7040 C   0  0  0  0  0  0  0  0  0  0  0  0
  185.8680  178.3550  146.2450 C   0  0  0  0  0  0  0  0  0  0  0  0
  185.8900  179.2890  147.7410 Cl  0  0  0  0  0  0  0  0  0  0  0  0
  186.2290  177.3450  142.4260 N   0  0  0  0  0  0  0  0  0  0  0  0
  188.2330  177.7460  146.6050 C   0  0  0  0  0  1  0  0  0  0  0  0
  186.9750  177.7180  145.7980 C   0  0  0  0  0  0  0  0  0  0  0  0
  189.1500  176.0850  143.9820 C   0  0  0  0  0  0  0  0  0  0  0  0
  184.6300  177.8100  144.1180 N   0  0  0  0  0  2  0  0  0  0  0  0
  184.6120  178.3190  145.4540 C   0  0  0  0  0  0  0  0  0  0  0  0
  190.2130  175.3740  144.2530 C   0  0  0  0  0  0  0  0  0  0  0  0
  189.7350  173.1400  144.9260 O   0  0  0  0  0  0  0  0  0  0  0  0
  190.2040  173.9050  144.0410 C   0  0  0  0  0  0  0  0  0  0  0  0
  190.7360  173.2930  142.7850 C   0  0  0  0  0  2  0  0  0  0  0  0
  190.1970  173.9860  141.6260 N   0  0  0  0  0  2  0  0  0  0  0  0
  188.2210  172.7470  141.5960 O   0  0  0  0  0  0  0  0  0  0  0  0
  188.9080  173.6790  141.0950 C   0  0  0  0  0  0  0  0  0  0  0  0
  188.4200  174.4190  140.0180 O   0  0  0  0  0  0  0  0  0  0  0  0
  188.4250  173.9080  138.6950 C   0  0  0  0  0  1  0  0  0  0  0  0
  191.4350  176.1070  144.7410 C   0  0  2  0  0  3  0  0  0  0  0  0
  192.5070  176.3390  142.5340 O   0  0  0  0  0  0  0  0  0  0  0  0
  192.0110  176.9220  143.6770 N   0  0  0  0  0  0  0  0  0  0  0  0
  191.9280  178.1650  143.7460 O   0  0  0  0  0  0  0  0  0  0  0  0
  192.4800  175.1950  145.3950 C   0  0  2  0  0  3  0  0  0  0  0  0
  192.1610  174.9830  146.8680 C   0  0  0  0  0  1  0  0  0  0  0  0
  193.8040  175.7900  145.2730 N   0  0  0  0  0  2  0  0  0  0  0  0
  195.6030  175.1540  143.4330 O   0  0  0  0  0  0  0  0  0  0  0  0
  194.8700  174.5900  144.6190 S   0  0  0  0  0  0  0  0  0  0  0  0
  196.0110  174.0910  145.8190 N   0  0  0  0  0  1  0  0  0  0  0  0
  194.0620  173.4010  144.1810 O   0  0  0  0  0  0  0  0  0  0  0  0
  1  5  1  1  0  0  0
  1  9  1  0  0  0  0
  1  6  1  0  0  0  0
  2 13  1  0  0  0  0
  3  2  1  6  0  0  0
  3 11  1  0  0  0  0
  6 12  2  0  0  0  0
  6  3  1  0  0  0  0
  7  8  1  0  0  0  0
  9  2  2  0  0  0  0
 11  7  2  0  0  0  0
 11 10  1  0  0  0  0
 12 15  2  0  0  0  0
 13 14  1  0  0  0  0
 14  4  2  0  0  0  0
 14  7  1  0  0  0  0
 17 15  1  0  0  0  0
 17 16  2  0  0  0  0
 18 17  1  0  0  0  0
 19 18  1  0  0  0  0
 21 20  2  0  0  0  0
 21 19  1  0  0  0  0
 22 21  1  0  0  0  0
 23 22  1  0  0  0  0
 24 15  1  6  0  0  0
 24 28  1  0  0  0  0
 25 26  2  0  0  0  0
 26 27  2  0  0  0  0
 26 24  1  0  0  0  0
 28 29  1  1  0  0  0
 30 28  1  0  0  0  0
 31 32  2  0  0  0  0
 32 30  1  0  0  0  0
 32 33  1  0  0  0  0
 34 32  2  0  0  0  0
M  END
>  <MODEL>
1

>  <REMARK>
 VINA RESULT:      -6.8      0.000      0.000
  Name = 
  9 active torsions:
  status: ('A' for Active; 'I' for Inactive)
    1  A    between atoms: O_1  and  C_34
    2  A    between atoms: N_3  and  C_5
    3  A    between atoms: S_4  and  N_18
    4  A    between atoms: C_5  and  C_30
    5  A    between atoms: N_10  and  C_21
    6  A    between atoms: C_13  and  N_18
    7  A    between atoms: C_13  and  C_21
    8  A    between atoms: C_21  and  C_33
    9  A    between atoms: C_30  and  C_33
                            x       y       z     vdW  Elec       q    Type
                         _______ _______ _______ _____ _____    ______ ____

>  <TORSDO>
F 9

$$$$
=
 OpenBabel11042418433D

 34 35  0  0  1  0  0  0  0  0999 V2000
  186.9450  176.8410  141.8050 C   0  0  1  0  0  3  0  0  0  0  0  0
  185.4070  177.2910  143.3970 C   0  0  0  0  0  0  0  0  0  0  0  0
  186.4290  176.5290  144.1610 C   0  0  1  0  0  3  0  0  0  0  0  0
  183.7440  178.9920  146.0850 O   0  0  0  0  0  0  0  0  0  0  0  0
  187.8660  177.8690  141.1760 C   0  0  0  0  0  1  0  0  0  0  0  0
  187.4930  176.3960  143.1240 C   0  0  0  0  0  0  0  0  0  0  0  0
  185.9410  178.0680  146.0620 C   0  0  0  0  0  0  0  0  0  0  0  0
  186.3190  178.7920  147.6250 Cl  0  0  0  0  0  0  0  0  0  0  0  0
  185.6800  177.4700  142.1490 N   0  0  0  0  0  0  0  0  0  0  0  0
  188.1430  176.9520  146.0610 C   0  0  0  0  0  1  0  0  0  0  0  0
  186.8320  177.2770  145.4200 C   0  0  0  0  0  0  0  0  0  0  0  0
  188.4040  175.4640  143.1980 C   0  0  0  0  0  0  0  0  0  0  0  0
  184.4020  178.0450  144.0660 N   0  0  0  0  0  2  0  0  0  0  0  0
  184.6330  178.3830  145.4360 C   0  0  0  0  0  0  0  0  0  0  0  0
  189.3100  174.5250  143.2640 C   0  0  0  0  0  0  0  0  0  0  0  0
  189.3400  172.1750  143.6530 O   0  0  0  0  0  0  0  0  0  0  0  0
  188.9620  173.1240  142.9160 C   0  0  0  0  0  0  0  0  0  0  0  0
  188.1550  172.7980  141.7000 C   0  0  0  0  0  2  0  0  0  0  0  0
  189.0270  172.6740  140.5430 N   0  0  0  0  0  2  0  0  0  0  0  0
  188.3230  174.6840  139.5890 O   0  0  0  0  0  0  0  0  0  0  0  0
  189.0820  173.6780  139.5290 C   0  0  0  0  0  0  0  0  0  0  0  0
  189.9820  173.5310  138.4730 O   0  0  0  0  0  0  0  0  0  0  0  0
  191.2530  172.9250  138.6510 C   0  0  0  0  0  1  0  0  0  0  0  0
  190.7050  174.9290  143.6620 C   0  0  2  0  0  3  0  0  0  0  0  0
  191.9300  174.7780  141.5280 O   0  0  0  0  0  0  0  0  0  0  0  0
  191.6950  174.2990  142.7960 N   0  0  0  0  0  0  0  0  0  0  0  0
  192.4320  173.4040  143.2590 O   0  0  0  0  0  0  0  0  0  0  0  0
  191.0130  174.7010  145.1460 C   0  0  2  0  0  3  0  0  0  0  0  0
  189.7760  174.2050  145.8800 C   0  0  0  0  0  1  0  0  0  0  0  0
  191.4660  175.9430  145.7570 N   0  0  0  0  0  2  0  0  0  0  0  0
  193.6400  174.4730  146.1250 O   0  0  0  0  0  0  0  0  0  0  0  0
  193.1950  175.8850  145.8670 S   0  0  0  0  0  0  0  0  0  0  0  0
  193.9030  176.4530  144.3960 N   0  0  0  0  0  1  0  0  0  0  0  0
  193.6440  176.7600  147.0020 O   0  0  0  0  0  0  0  0  0  0  0  0
  1  5  1  1  0  0  0
  1  9  1  0  0  0  0
  1  6  1  0  0  0  0
  2 13  1  0  0  0  0
  2  3  1  0  0  0  0
  3  6  1  6  0  0  0
  3 11  1  0  0  0  0
  6 12  2  0  0  0  0
  7  8  1  0  0  0  0
  9  2  2  0  0  0  0
 11 10  1  0  0  0  0
 11  7  2  0  0  0  0
 12 15  2  0  0  0  0
 13 14  1  0  0  0  0
 14  7  1  0  0  0  0
 14  4  2  0  0  0  0
 17 15  1  0  0  0  0
 17 16  2  0  0  0  0
 18 17  1  0  0  0  0
 19 18  1  0  0  0  0
 21 20  2  0  0  0  0
 21 19  1  0  0  0  0
 22 23  1  0  0  0  0
 22 21  1  0  0  0  0
 24 15  1  6  0  0  0
 24 28  1  0  0  0  0
 25 26  2  0  0  0  0
 26 27  2  0  0  0  0
 26 24  1  0  0  0  0
 28 30  1  0  0  0  0
 28 29  1  1  0  0  0
 30 32  1  0  0  0  0
 32 31  2  0  0  0  0
 32 34  2  0  0  0  0
 33 32  1  0  0  0  0
M  END
>  <MODEL>
2

>  <REMARK>
 VINA RESULT:      -6.5      1.670      2.135
  Name = 
  9 active torsions:
  status: ('A' for Active; 'I' for Inactive)
    1  A    between atoms: O_1  and  C_34
    2  A    between atoms: N_3  and  C_5
    3  A    between atoms: S_4  and  N_18
    4  A    between atoms: C_5  and  C_30
    5  A    between atoms: N_10  and  C_21
    6  A    between atoms: C_13  and  N_18
    7  A    between atoms: C_13  and  C_21
    8  A    between atoms: C_21  and  C_33
    9  A    between atoms: C_30  and  C_33
                            x       y       z     vdW  Elec       q    Type
                         _______ _______ _______ _____ _____    ______ ____

>  <TORSDO>
F 9

$$$$
=
 OpenBabel11042418433D

 34 35  0  0  1  0  0  0  0  0999 V2000
  187.3100  177.5260  141.7040 C   0  0  1  0  0  3  0  0  0  0  0  0
  185.5820  177.8170  143.1290 C   0  0  0  0  0  0  0  0  0  0  0  0
  186.2650  176.6310  143.7090 C   0  0  1  0  0  3  0  0  0  0  0  0
  183.7320  178.9470  145.9910 O   0  0  0  0  0  0  0  0  0  0  0  0
  188.5140  178.4440  141.6050 C   0  0  0  0  0  1  0  0  0  0  0  0
  187.4800  176.5740  142.8450 C   0  0  0  0  0  0  0  0  0  0  0  0
  185.6790  177.5720  145.9430 C   0  0  0  0  0  0  0  0  0  0  0  0
  185.8480  177.6590  147.6970 Cl  0  0  0  0  0  0  0  0  0  0  0  0
  186.1370  178.3040  142.0710 N   0  0  0  0  0  0  0  0  0  0  0  0
  187.5910  176.0130  145.8500 C   0  0  0  0  0  1  0  0  0  0  0  0
  186.5250  176.8290  145.1920 C   0  0  0  0  0  0  0  0  0  0  0  0
  188.1690  175.4740  142.7110 C   0  0  0  0  0  0  0  0  0  0  0  0
  184.6140  178.5450  143.8760 N   0  0  0  0  0  2  0  0  0  0  0  0
  184.6100  178.3730  145.2960 C   0  0  0  0  0  0  0  0  0  0  0  0
  188.8540  174.3710  142.5660 C   0  0  0  0  0  0  0  0  0  0  0  0
  187.4420  172.5020  142.1380 O   0  0  0  0  0  0  0  0  0  0  0  0
  188.3370  173.2770  141.7070 C   0  0  0  0  0  0  0  0  0  0  0  0
  188.8480  173.0650  140.3170 C   0  0  0  0  0  2  0  0  0  0  0  0
  188.3570  174.1180  139.4420 N   0  0  0  0  0  2  0  0  0  0  0  0
  188.7420  172.9010  137.4890 O   0  0  0  0  0  0  0  0  0  0  0  0
  188.3060  173.9560  138.0240 C   0  0  0  0  0  0  0  0  0  0  0  0
  187.7710  174.9790  137.2410 O   0  0  0  0  0  0  0  0  0  0  0  0
  186.8440  175.9170  137.7660 C   0  0  0  0  0  1  0  0  0  0  0  0
  190.1850  174.2810  143.2650 C   0  0  2  0  0  3  0  0  0  0  0  0
  191.6660  174.3800  141.2970 O   0  0  0  0  0  0  0  0  0  0  0  0
  191.2290  174.9300  142.4800 N   0  0  0  0  0  0  0  0  0  0  0  0
  191.6300  176.0640  142.8140 O   0  0  0  0  0  0  0  0  0  0  0  0
  190.5750  172.8540  143.6670 C   0  0  2  0  0  3  0  0  0  0  0  0
  189.7330  172.3790  144.8440 C   0  0  0  0  0  1  0  0  0  0  0  0
  191.9830  172.8080  144.0370 N   0  0  0  0  0  2  0  0  0  0  0  0
  192.8160  170.2990  144.2140 O   0  0  0  0  0  0  0  0  0  0  0  0
  192.6990  171.4420  143.2450 S   0  0  0  0  0  0  0  0  0  0  0  0
  191.7290  170.9610  141.8980 N   0  0  0  0  0  1  0  0  0  0  0  0
  194.0690  171.8190  142.7580 O   0  0  0  0  0  0  0  0  0  0  0  0
  1  5  1  1  0  0  0
  1  9  1  0  0  0  0
  1  6  1  0  0  0  0
  2  3  1  0  0  0  0
  2 13  1  0  0  0  0
  3  6  1  6  0  0  0
  3 11  1  0  0  0  0
  7  8  1  0  0  0  0
  9  2  2  0  0  0  0
 11 10  1  0  0  0  0
 11  7  2  0  0  0  0
 12  6  2  0  0  0  0
 13 14  1  0  0  0  0
 14  7  1  0  0  0  0
 14  4  2  0  0  0  0
 15 12  2  0  0  0  0
 17 16  2  0  0  0  0
 17 15  1  0  0  0  0
 18 17  1  0  0  0  0
 19 18  1  0  0  0  0
 20 21  2  0  0  0  0
 21 19  1  0  0  0  0
 22 23  1  0  0  0  0
 22 21  1  0  0  0  0
 24 15  1  6  0  0  0
 24 28  1  0  0  0  0
 25 26  2  0  0  0  0
 26 27  2  0  0  0  0
 26 24  1  0  0  0  0
 28 30  1  0  0  0  0
 28 29  1  1  0  0  0
 32 30  1  0  0  0  0
 32 31  2  0  0  0  0
 33 32  1  0  0  0  0
 34 32  2  0  0  0  0
M  END
>  <MODEL>
3

>  <REMARK>
 VINA RESULT:      -6.4      2.193      2.819
  Name = 
  9 active torsions:
  status: ('A' for Active; 'I' for Inactive)
    1  A    between atoms: O_1  and  C_34
    2  A    between atoms: N_3  and  C_5
    3  A    between atoms: S_4  and  N_18
    4  A    between atoms: C_5  and  C_30
    5  A    between atoms: N_10  and  C_21
    6  A    between atoms: C_13  and  N_18
    7  A    between atoms: C_13  and  C_21
    8  A    between atoms: C_21  and  C_33
    9  A    between atoms: C_30  and  C_33
                            x       y       z     vdW  Elec       q    Type
                         _______ _______ _______ _____ _____    ______ ____

>  <TORSDO>
F 9

$$$$
=
 OpenBabel11042418433D

 34 35  0  0  1  0  0  0  0  0999 V2000
  187.6940  177.3770  142.0330 C   0  0  1  0  0  3  0  0  0  0  0  0
  185.9110  177.6790  143.3870 C   0  0  0  0  0  0  0  0  0  0  0  0
  186.5700  176.4960  144.0010 C   0  0  1  0  0  3  0  0  0  0  0  0
  183.9510  178.8280  146.1650 O   0  0  0  0  0  0  0  0  0  0  0  0
  188.9020  178.2930  141.9760 C   0  0  0  0  0  1  0  0  0  0  0  0
  187.8180  176.4330  143.1860 C   0  0  0  0  0  0  0  0  0  0  0  0
  185.8970  177.4520  146.2040 C   0  0  0  0  0  0  0  0  0  0  0  0
  185.9960  177.5510  147.9620 Cl  0  0  0  0  0  0  0  0  0  0  0  0
  186.5090  178.1580  142.3480 N   0  0  0  0  0  0  0  0  0  0  0  0
  187.8100  175.8920  146.1970 C   0  0  0  0  0  1  0  0  0  0  0  0
  186.7720  176.7040  145.4920 C   0  0  0  0  0  0  0  0  0  0  0  0
  188.5110  175.3310  143.0860 C   0  0  0  0  0  0  0  0  0  0  0  0
  184.9150  178.4120  144.0900 N   0  0  0  0  0  2  0  0  0  0  0  0
  184.8550  178.2500  145.5090 C   0  0  0  0  0  0  0  0  0  0  0  0
  189.2010  174.2270  142.9760 C   0  0  0  0  0  0  0  0  0  0  0  0
  187.4920  172.8370  142.0730 O   0  0  0  0  0  0  0  0  0  0  0  0
  188.7170  173.1280  142.1050 C   0  0  0  0  0  0  0  0  0  0  0  0
  189.6530  172.3440  141.2410 C   0  0  0  0  0  2  0  0  0  0  0  0
  190.0020  173.1140  140.0580 N   0  0  0  0  0  2  0  0  0  0  0  0
  188.1890  172.3340  138.8130 O   0  0  0  0  0  0  0  0  0  0  0  0
  189.2020  173.0830  138.8760 C   0  0  0  0  0  0  0  0  0  0  0  0
  189.5550  173.8890  137.7940 O   0  0  0  0  0  0  0  0  0  0  0  0
  188.5790  174.5400  136.9950 C   0  0  0  0  0  1  0  0  0  0  0  0
  190.5030  174.1410  143.7280 C   0  0  2  0  0  3  0  0  0  0  0  0
  189.4870  173.1190  145.7280 O   0  0  0  0  0  0  0  0  0  0  0  0
  190.4480  173.0950  144.7430 N   0  0  0  0  0  0  0  0  0  0  0  0
  191.1920  172.0990  144.6370 O   0  0  0  0  0  0  0  0  0  0  0  0
  190.9680  175.4810  144.3110 C   0  0  2  0  0  3  0  0  0  0  0  0
  191.5300  176.3760  143.2160 C   0  0  0  0  0  1  0  0  0  0  0  0
  191.9940  175.2560  145.3200 N   0  0  0  0  0  2  0  0  0  0  0  0
  190.6880  177.3510  146.2830 O   0  0  0  0  0  0  0  0  0  0  0  0
  191.6180  176.2440  146.6930 S   0  0  0  0  0  0  0  0  0  0  0  0
  190.8720  175.2890  147.9260 N   0  0  0  0  0  1  0  0  0  0  0  0
  192.8880  176.8400  147.2310 O   0  0  0  0  0  0  0  0  0  0  0  0
  1  5  1  1  0  0  0
  1  9  1  0  0  0  0
  1  6  1  0  0  0  0
  2  3  1  0  0  0  0
  2 13  1  0  0  0  0
  3  6  1  6  0  0  0
  3 11  1  0  0  0  0
  7  8  1  0  0  0  0
  9  2  2  0  0  0  0
 11 10  1  0  0  0  0
 11  7  2  0  0  0  0
 12  6  2  0  0  0  0
 13 14  1  0  0  0  0
 14  4  2  0  0  0  0
 14  7  1  0  0  0  0
 15 12  2  0  0  0  0
 16 17  2  0  0  0  0
 17 15  1  0  0  0  0
 18 17  1  0  0  0  0
 19 18  1  0  0  0  0
 20 21  2  0  0  0  0
 21 19  1  0  0  0  0
 22 21  1  0  0  0  0
 23 22  1  0  0  0  0
 24 15  1  1  0  0  0
 24 28  1  0  0  0  0
 24 26  1  0  0  0  0
 26 25  2  0  0  0  0
 27 26  2  0  0  0  0
 28 29  1  6  0  0  0
 28 30  1  0  0  0  0
 30 32  1  0  0  0  0
 31 32  2  0  0  0  0
 32 34  2  0  0  0  0
 32 33  1  0  0  0  0
M  END
>  <MODEL>
4

>  <REMARK>
 VINA RESULT:      -6.4      2.090      2.934
  Name = 
  9 active torsions:
  status: ('A' for Active; 'I' for Inactive)
    1  A    between atoms: O_1  and  C_34
    2  A    between atoms: N_3  and  C_5
    3  A    between atoms: S_4  and  N_18
    4  A    between atoms: C_5  and  C_30
    5  A    between atoms: N_10  and  C_21
    6  A    between atoms: C_13  and  N_18
    7  A    between atoms: C_13  and  C_21
    8  A    between atoms: C_21  and  C_33
    9  A    between atoms: C_30  and  C_33
                            x       y       z     vdW  Elec       q    Type
                         _______ _______ _______ _____ _____    ______ ____

>  <TORSDO>
F 9

$$$$
=
 OpenBabel11042418433D

 34 35  0  0  1  0  0  0  0  0999 V2000
  187.7000  176.8520  142.3660 C   0  0  1  0  0  3  0  0  0  0  0  0
  185.8770  177.1870  143.6560 C   0  0  0  0  0  0  0  0  0  0  0  0
  186.8790  176.7240  144.6520 C   0  0  1  0  0  3  0  0  0  0  0  0
  183.5460  178.8440  145.8250 O   0  0  0  0  0  0  0  0  0  0  0  0
  188.5220  177.9560  141.7270 C   0  0  0  0  0  1  0  0  0  0  0  0
  188.1010  176.6750  143.7960 C   0  0  0  0  0  0  0  0  0  0  0  0
  185.8430  178.3540  146.2300 C   0  0  0  0  0  0  0  0  0  0  0  0
  185.8420  179.3120  147.7110 Cl  0  0  0  0  0  0  0  0  0  0  0  0
  186.3090  177.2670  142.4430 N   0  0  0  0  0  0  0  0  0  0  0  0
  188.1750  177.6800  146.6850 C   0  0  0  0  0  1  0  0  0  0  0  0
  186.9460  177.6760  145.8340 C   0  0  0  0  0  0  0  0  0  0  0  0
  189.1330  175.9460  144.1240 C   0  0  0  0  0  0  0  0  0  0  0  0
  184.6660  177.8090  144.0690 N   0  0  0  0  0  2  0  0  0  0  0  0
  184.6160  178.3410  145.3950 C   0  0  0  0  0  0  0  0  0  0  0  0
  190.1630  175.2090  144.4450 C   0  0  0  0  0  0  0  0  0  0  0  0
  189.6710  172.9950  145.1730 O   0  0  0  0  0  0  0  0  0  0  0  0
  190.1160  173.7370  144.2570 C   0  0  0  0  0  0  0  0  0  0  0  0
  190.5810  173.0950  142.9890 C   0  0  0  0  0  2  0  0  0  0  0  0
  191.5070  172.0150  143.2890 N   0  0  0  0  0  2  0  0  0  0  0  0
  190.3790  170.4580  141.9690 O   0  0  0  0  0  0  0  0  0  0  0  0
  191.3610  170.7150  142.7170 C   0  0  0  0  0  0  0  0  0  0  0  0
  192.3150  169.7370  142.9970 O   0  0  0  0  0  0  0  0  0  0  0  0
  193.0120  169.7020  144.2330 C   0  0  0  0  0  1  0  0  0  0  0  0
  191.3880  175.9130  144.9650 C   0  0  2  0  0  3  0  0  0  0  0  0
  192.4430  175.9560  142.7370 O   0  0  0  0  0  0  0  0  0  0  0  0
  192.0790  176.6150  143.8890 N   0  0  0  0  0  0  0  0  0  0  0  0
  192.2180  177.8530  143.9570 O   0  0  0  0  0  0  0  0  0  0  0  0
  192.3350  175.0000  145.7540 C   0  0  2  0  0  3  0  0  0  0  0  0
  191.9980  175.0330  147.2380 C   0  0  0  0  0  1  0  0  0  0  0  0
  193.7130  175.4320  145.5660 N   0  0  0  0  0  2  0  0  0  0  0  0
  193.9550  172.7970  145.7200 O   0  0  0  0  0  0  0  0  0  0  0  0
  194.6730  174.0260  145.2370 S   0  0  0  0  0  0  0  0  0  0  0  0
  194.9680  173.8930  143.5390 N   0  0  0  0  0  1  0  0  0  0  0  0
  195.9850  174.1480  145.9580 O   0  0  0  0  0  0  0  0  0  0  0  0
  1  5  1  1  0  0  0
  1  9  1  0  0  0  0
  1  6  1  0  0  0  0
  2 13  1  0  0  0  0
  3  2  1  6  0  0  0
  3 11  1  0  0  0  0
  6 12  2  0  0  0  0
  6  3  1  0  0  0  0
  7  8  1  0  0  0  0
  9  2  2  0  0  0  0
 11  7  2  0  0  0  0
 11 10  1  0  0  0  0
 12 15  2  0  0  0  0
 13 14  1  0  0  0  0
 14  4  2  0  0  0  0
 14  7  1  0  0  0  0
 17 15  1  0  0  0  0
 17 16  2  0  0  0  0
 18 19  1  0  0  0  0
 18 17  1  0  0  0  0
 20 21  2  0  0  0  0
 21 22  1  0  0  0  0
 21 19  1  0  0  0  0
 22 23  1  0  0  0  0
 24 15  1  6  0  0  0
 24 28  1  0  0  0  0
 25 26  2  0  0  0  0
 26 27  2  0  0  0  0
 26 24  1  0  0  0  0
 28 29  1  1  0  0  0
 30 28  1  0  0  0  0
 32 30  1  0  0  0  0
 32 31  2  0  0  0  0
 32 34  2  0  0  0  0
 33 32  1  0  0  0  0
M  END
>  <MODEL>
5

>  <REMARK>
 VINA RESULT:      -6.4      1.629      2.307
  Name = 
  9 active torsions:
  status: ('A' for Active; 'I' for Inactive)
    1  A    between atoms: O_1  and  C_34
    2  A    between atoms: N_3  and  C_5
    3  A    between atoms: S_4  and  N_18
    4  A    between atoms: C_5  and  C_30
    5  A    between atoms: N_10  and  C_21
    6  A    between atoms: C_13  and  N_18
    7  A    between atoms: C_13  and  C_21
    8  A    between atoms: C_21  and  C_33
    9  A    between atoms: C_30  and  C_33
                            x       y       z     vdW  Elec       q    Type
                         _______ _______ _______ _____ _____    ______ ____

>  <TORSDO>
F 9

$$$$
=
 OpenBabel11042418433D

 34 35  0  0  1  0  0  0  0  0999 V2000
  189.5740  175.2220  146.8910 C   0  0  1  0  0  3  0  0  0  0  0  0
  188.1330  176.9470  146.6710 C   0  0  0  0  0  0  0  0  0  0  0  0
  189.1520  177.2600  145.6340 C   0  0  1  0  0  3  0  0  0  0  0  0
  185.3720  178.8920  145.4550 O   0  0  0  0  0  0  0  0  0  0  0  0
  189.2800  173.7910  146.4810 C   0  0  0  0  0  1  0  0  0  0  0  0
  189.9860  176.0250  145.6990 C   0  0  0  0  0  0  0  0  0  0  0  0
  187.2600  178.0920  144.2390 C   0  0  0  0  0  0  0  0  0  0  0  0
  186.5530  178.6010  142.7050 Cl  0  0  0  0  0  0  0  0  0  0  0  0
  188.3450  175.8610  147.3340 N   0  0  0  0  0  0  0  0  0  0  0  0
  189.3080  177.3970  143.0490 C   0  0  0  0  0  1  0  0  0  0  0  0
  188.4930  177.5360  144.2940 C   0  0  0  0  0  0  0  0  0  0  0  0
  191.2180  176.0120  145.2670 C   0  0  0  0  0  0  0  0  0  0  0  0
  186.8700  177.6030  146.6810 N   0  0  0  0  0  2  0  0  0  0  0  0
  186.4510  178.2460  145.4740 C   0  0  0  0  0  0  0  0  0  0  0  0
  192.4550  175.9990  144.8460 C   0  0  0  0  0  0  0  0  0  0  0  0
  193.3620  176.8030  146.8960 O   0  0  0  0  0  0  0  0  0  0  0  0
  193.5280  176.6230  145.6590 C   0  0  0  0  0  0  0  0  0  0  0  0
  194.8250  177.0480  145.0500 C   0  0  0  0  0  2  0  0  0  0  0  0
  195.7010  175.8980  144.8920 N   0  0  0  0  0  2  0  0  0  0  0  0
  196.7910  176.7730  143.0240 O   0  0  0  0  0  0  0  0  0  0  0  0
  196.6900  175.8380  143.8640 C   0  0  0  0  0  0  0  0  0  0  0  0
  197.5400  174.7330  143.8010 O   0  0  0  0  0  0  0  0  0  0  0  0
  197.6470  173.8080  144.8720 C   0  0  0  0  0  1  0  0  0  0  0  0
  192.7390  175.3000  143.5430 C   0  0  2  0  0  3  0  0  0  0  0  0
  192.3120  177.4820  142.4790 O   0  0  0  0  0  0  0  0  0  0  0  0
  192.9560  176.2660  142.4720 N   0  0  0  0  0  0  0  0  0  0  0  0
  193.8370  176.0440  141.6160 O   0  0  0  0  0  0  0  0  0  0  0  0
  191.6870  174.2510  143.1640 C   0  0  2  0  0  3  0  0  0  0  0  0
  192.2520  172.8460  143.3130 C   0  0  0  0  0  1  0  0  0  0  0  0
  191.2590  174.4520  141.7860 N   0  0  0  0  0  2  0  0  0  0  0  0
  188.8620  174.7590  140.6980 O   0  0  0  0  0  0  0  0  0  0  0  0
  189.6300  173.8780  141.6430 S   0  0  0  0  0  0  0  0  0  0  0  0
  189.6220  172.2530  141.0530 N   0  0  0  0  0  1  0  0  0  0  0  0
  188.9760  173.9160  142.9950 O   0  0  0  0  0  0  0  0  0  0  0  0
  1  5  1  6  0  0  0
  1  9  1  0  0  0  0
  2 13  1  0  0  0  0
  2  9  2  0  0  0  0
  3 11  1  6  0  0  0
  3  6  1  0  0  0  0
  3  2  1  0  0  0  0
  4 14  2  0  0  0  0
  6  1  1  0  0  0  0
  7 11  2  0  0  0  0
  7 14  1  0  0  0  0
  8  7  1  0  0  0  0
 10 11  1  0  0  0  0
 12  6  2  0  0  0  0
 14 13  1  0  0  0  0
 15 12  2  0  0  0  0
 15 17  1  0  0  0  0
 17 16  2  0  0  0  0
 18 17  1  0  0  0  0
 19 18  1  0  0  0  0
 20 21  2  0  0  0  0
 21 19  1  0  0  0  0
 22 21  1  0  0  0  0
 22 23  1  0  0  0  0
 24 15  1  1  0  0  0
 26 25  2  0  0  0  0
 26 24  1  0  0  0  0
 27 26  2  0  0  0  0
 28 29  1  6  0  0  0
 28 24  1  0  0  0  0
 30 28  1  0  0  0  0
 31 32  2  0  0  0  0
 32 30  1  0  0  0  0
 32 34  2  0  0  0  0
 33 32  1  0  0  0  0
M  END
>  <MODEL>
6

>  <REMARK>
 VINA RESULT:      -6.0      2.682      5.364
  Name = 
  9 active torsions:
  status: ('A' for Active; 'I' for Inactive)
    1  A    between atoms: O_1  and  C_34
    2  A    between atoms: N_3  and  C_5
    3  A    between atoms: S_4  and  N_18
    4  A    between atoms: C_5  and  C_30
    5  A    between atoms: N_10  and  C_21
    6  A    between atoms: C_13  and  N_18
    7  A    between atoms: C_13  and  C_21
    8  A    between atoms: C_21  and  C_33
    9  A    between atoms: C_30  and  C_33
                            x       y       z     vdW  Elec       q    Type
                         _______ _______ _______ _____ _____    ______ ____

>  <TORSDO>
F 9

$$$$
=
 OpenBabel11042418433D

 34 35  0  0  1  0  0  0  0  0999 V2000
  194.2000  175.7370  146.0940 C   0  0  1  0  0  3  0  0  0  0  0  0
  195.3640  173.9130  145.4490 C   0  0  0  0  0  0  0  0  0  0  0  0
  194.1300  173.7980  144.6290 C   0  0  1  0  0  3  0  0  0  0  0  0
  197.5890  171.8400  143.5410 O   0  0  0  0  0  0  0  0  0  0  0  0
  194.5650  177.1660  145.7400 C   0  0  0  0  0  1  0  0  0  0  0  0
  193.4700  175.0950  144.9580 C   0  0  0  0  0  0  0  0  0  0  0  0
  195.5980  172.9280  142.8100 C   0  0  0  0  0  0  0  0  0  0  0  0
  195.9210  172.5050  141.1280 Cl  0  0  0  0  0  0  0  0  0  0  0  0
  195.4130  174.9450  146.2210 N   0  0  0  0  0  0  0  0  0  0  0  0
  193.4440  173.9260  142.1310 C   0  0  0  0  0  1  0  0  0  0  0  0
  194.4720  173.5910  143.1630 C   0  0  0  0  0  0  0  0  0  0  0  0
  192.1860  175.2650  144.7960 C   0  0  0  0  0  0  0  0  0  0  0  0
  196.5210  173.1420  145.1450 N   0  0  0  0  0  2  0  0  0  0  0  0
  196.6150  172.5810  143.8330 C   0  0  0  0  0  0  0  0  0  0  0  0
  190.8990  175.4360  144.6450 C   0  0  0  0  0  0  0  0  0  0  0  0
  189.6910  173.6080  145.5780 O   0  0  0  0  0  0  0  0  0  0  0  0
  189.9480  174.8410  145.6170 C   0  0  0  0  0  0  0  0  0  0  0  0
  189.2770  175.6710  146.6640 C   0  0  0  0  0  2  0  0  0  0  0  0
  187.8390  175.6780  146.4470 N   0  0  0  0  0  2  0  0  0  0  0  0
  187.5600  177.8490  147.2540 O   0  0  0  0  0  0  0  0  0  0  0  0
  187.0370  176.8230  146.7410 C   0  0  0  0  0  0  0  0  0  0  0  0
  185.6720  176.7890  146.4560 O   0  0  0  0  0  0  0  0  0  0  0  0
  184.8800  177.9660  146.4490 C   0  0  0  0  0  1  0  0  0  0  0  0
  190.4390  176.2810  143.4870 C   0  0  2  0  0  3  0  0  0  0  0  0
  189.8060  178.2670  144.8010 O   0  0  0  0  0  0  0  0  0  0  0  0
  190.5600  177.7000  143.8000 N   0  0  0  0  0  0  0  0  0  0  0  0
  191.4530  178.3750  143.2480 O   0  0  0  0  0  0  0  0  0  0  0  0
  189.0370  175.9220  142.9810 C   0  0  2  0  0  3  0  0  0  0  0  0
  189.0700  174.6270  142.1810 C   0  0  0  0  0  1  0  0  0  0  0  0
  188.5240  176.9930  142.1370 N   0  0  0  0  0  2  0  0  0  0  0  0
  186.7930  178.4220  143.5450 O   0  0  0  0  0  0  0  0  0  0  0  0
  186.8720  177.2750  142.5770 S   0  0  0  0  0  0  0  0  0  0  0  0
  185.9370  177.6420  141.1700 N   0  0  0  0  0  1  0  0  0  0  0  0
  186.3190  176.0400  143.2290 O   0  0  0  0  0  0  0  0  0  0  0  0
  1  5  1  6  0  0  0
  1  9  1  0  0  0  0
  2  9  2  0  0  0  0
  3 11  1  6  0  0  0
  3  6  1  0  0  0  0
  3  2  1  0  0  0  0
  4 14  2  0  0  0  0
  6  1  1  0  0  0  0
  7 11  2  0  0  0  0
  7 14  1  0  0  0  0
  8  7  1  0  0  0  0
 10 11  1  0  0  0  0
 12  6  2  0  0  0  0
 13  2  1  0  0  0  0
 14 13  1  0  0  0  0
 15 12  2  0  0  0  0
 15 17  1  0  0  0  0
 16 17  2  0  0  0  0
 17 18  1  0  0  0  0
 19 18  1  0  0  0  0
 19 21  1  0  0  0  0
 21 20  2  0  0  0  0
 22 21  1  0  0  0  0
 23 22  1  0  0  0  0
 24 26  1  0  0  0  0
 24 15  1  1  0  0  0
 26 25  2  0  0  0  0
 27 26  2  0  0  0  0
 28 29  1  6  0  0  0
 28 24  1  0  0  0  0
 30 32  1  0  0  0  0
 30 28  1  0  0  0  0
 32 34  2  0  0  0  0
 32 31  2  0  0  0  0
 33 32  1  0  0  0  0
M  END
>  <MODEL>
7

>  <REMARK>
 VINA RESULT:      -5.9      3.811      8.185
  Name = 
  9 active torsions:
  status: ('A' for Active; 'I' for Inactive)
    1  A    between atoms: O_1  and  C_34
    2  A    between atoms: N_3  and  C_5
    3  A    between atoms: S_4  and  N_18
    4  A    between atoms: C_5  and  C_30
    5  A    between atoms: N_10  and  C_21
    6  A    between atoms: C_13  and  N_18
    7  A    between atoms: C_13  and  C_21
    8  A    between atoms: C_21  and  C_33
    9  A    between atoms: C_30  and  C_33
                            x       y       z     vdW  Elec       q    Type
                         _______ _______ _______ _____ _____    ______ ____

>  <TORSDO>
F 9

$$$$
=
 OpenBabel11042418433D

 34 35  0  0  1  0  0  0  0  0999 V2000
  190.1910  174.5400  146.1060 C   0  0  1  0  0  3  0  0  0  0  0  0
  188.6550  176.1720  146.3840 C   0  0  0  0  0  0  0  0  0  0  0  0
  189.6230  176.8130  145.4560 C   0  0  1  0  0  3  0  0  0  0  0  0
  185.7590  178.2060  145.7850 O   0  0  0  0  0  0  0  0  0  0  0  0
  189.9610  173.2580  145.3280 C   0  0  0  0  0  1  0  0  0  0  0  0
  190.5230  175.6580  145.1690 C   0  0  0  0  0  0  0  0  0  0  0  0
  187.6470  177.8780  144.3680 C   0  0  0  0  0  0  0  0  0  0  0  0
  186.8670  178.7380  143.0410 Cl  0  0  0  0  0  0  0  0  0  0  0  0
  188.9450  174.9620  146.7240 N   0  0  0  0  0  0  0  0  0  0  0  0
  189.6920  177.6510  143.0020 C   0  0  0  0  0  1  0  0  0  0  0  0
  188.9090  177.4010  144.2510 C   0  0  0  0  0  0  0  0  0  0  0  0
  191.7390  175.8350  144.7310 C   0  0  0  0  0  0  0  0  0  0  0  0
  187.3600  176.7250  146.5910 N   0  0  0  0  0  2  0  0  0  0  0  0
  186.8710  177.6440  145.6110 C   0  0  0  0  0  0  0  0  0  0  0  0
  192.9620  176.0100  144.3030 C   0  0  0  0  0  0  0  0  0  0  0  0
  194.4460  177.6410  145.2020 O   0  0  0  0  0  0  0  0  0  0  0  0
  194.0250  176.4540  145.2380 C   0  0  0  0  0  0  0  0  0  0  0  0
  194.6190  175.5220  146.2460 C   0  0  0  0  0  2  0  0  0  0  0  0
  194.6010  174.1600  145.7350 N   0  0  0  0  0  2  0  0  0  0  0  0
  196.8590  173.7840  146.1860 O   0  0  0  0  0  0  0  0  0  0  0  0
  195.7610  173.3290  145.7620 C   0  0  0  0  0  0  0  0  0  0  0  0
  195.6660  172.0120  145.3120 O   0  0  0  0  0  0  0  0  0  0  0  0
  194.5720  171.1780  145.6620 C   0  0  0  0  0  1  0  0  0  0  0  0
  193.2420  175.7060  142.8540 C   0  0  2  0  0  3  0  0  0  0  0  0
  192.9290  173.3040  143.3070 O   0  0  0  0  0  0  0  0  0  0  0  0
  192.7250  174.3920  142.4900 N   0  0  0  0  0  0  0  0  0  0  0  0
  191.9750  174.2820  141.4990 O   0  0  0  0  0  0  0  0  0  0  0  0
  194.7160  175.8710  142.4650 C   0  0  2  0  0  3  0  0  0  0  0  0
  194.8520  176.7900  141.2590 C   0  0  0  0  0  1  0  0  0  0  0  0
  195.2930  174.5720  142.1440 N   0  0  0  0  0  2  0  0  0  0  0  0
  197.5130  173.3190  142.8680 O   0  0  0  0  0  0  0  0  0  0  0  0
  197.0010  174.6620  142.4280 S   0  0  0  0  0  0  0  0  0  0  0  0
  197.8180  175.1480  140.9840 N   0  0  0  0  0  1  0  0  0  0  0  0
  197.2660  175.6710  143.5090 O   0  0  0  0  0  0  0  0  0  0  0  0
  1  5  1  6  0  0  0
  1  9  1  0  0  0  0
  2 13  1  0  0  0  0
  2  9  2  0  0  0  0
  3 11  1  6  0  0  0
  3  2  1  0  0  0  0
  6  3  1  0  0  0  0
  6  1  1  0  0  0  0
  7 14  1  0  0  0  0
  8  7  1  0  0  0  0
 10 11  1  0  0  0  0
 11  7  2  0  0  0  0
 12  6  2  0  0  0  0
 14  4  2  0  0  0  0
 14 13  1  0  0  0  0
 15 12  2  0  0  0  0
 15 17  1  0  0  0  0
 16 17  2  0  0  0  0
 17 18  1  0  0  0  0
 19 21  1  0  0  0  0
 19 18  1  0  0  0  0
 21 20  2  0  0  0  0
 22 23  1  0  0  0  0
 22 21  1  0  0  0  0
 24 15  1  1  0  0  0
 26 24  1  0  0  0  0
 26 25  2  0  0  0  0
 27 26  2  0  0  0  0
 28 29  1  6  0  0  0
 28 24  1  0  0  0  0
 30 32  1  0  0  0  0
 30 28  1  0  0  0  0
 32 31  2  0  0  0  0
 32 34  2  0  0  0  0
 33 32  1  0  0  0  0
M  END
>  <MODEL>
8

>  <REMARK>
 VINA RESULT:      -5.8      2.875      5.085
  Name = 
  9 active torsions:
  status: ('A' for Active; 'I' for Inactive)
    1  A    between atoms: O_1  and  C_34
    2  A    between atoms: N_3  and  C_5
    3  A    between atoms: S_4  and  N_18
    4  A    between atoms: C_5  and  C_30
    5  A    between atoms: N_10  and  C_21
    6  A    between atoms: C_13  and  N_18
    7  A    between atoms: C_13  and  C_21
    8  A    between atoms: C_21  and  C_33
    9  A    between atoms: C_30  and  C_33
                            x       y       z     vdW  Elec       q    Type
                         _______ _______ _______ _____ _____    ______ ____

>  <TORSDO>
F 9

$$$$
=
 OpenBabel11042418433D

 34 35  0  0  1  0  0  0  0  0999 V2000
  188.7130  176.4340  146.5100 C   0  0  1  0  0  3  0  0  0  0  0  0
  187.4280  178.1000  145.6890 C   0  0  0  0  0  0  0  0  0  0  0  0
  187.8250  177.3780  144.4520 C   0  0  1  0  0  3  0  0  0  0  0  0
  184.5170  179.8340  144.5040 O   0  0  0  0  0  0  0  0  0  0  0  0
  188.1920  175.2470  147.2970 C   0  0  0  0  0  1  0  0  0  0  0  0
  188.5270  176.2020  145.0440 C   0  0  0  0  0  0  0  0  0  0  0  0
  185.5330  177.8750  143.6040 C   0  0  0  0  0  0  0  0  0  0  0  0
  184.1920  177.6290  142.4850 Cl  0  0  0  0  0  0  0  0  0  0  0  0
  187.8870  177.5990  146.7850 N   0  0  0  0  0  0  0  0  0  0  0  0
  186.7070  175.9490  142.5980 C   0  0  0  0  0  1  0  0  0  0  0  0
  186.6090  177.0540  143.6010 C   0  0  0  0  0  0  0  0  0  0  0  0
  189.3900  175.5060  144.3550 C   0  0  0  0  0  0  0  0  0  0  0  0
  186.3620  179.0430  145.6780 N   0  0  0  0  0  2  0  0  0  0  0  0
  185.4370  178.9810  144.5890 C   0  0  0  0  0  0  0  0  0  0  0  0
  190.2620  174.8140  143.6710 C   0  0  0  0  0  0  0  0  0  0  0  0
  191.8640  176.0250  142.3900 O   0  0  0  0  0  0  0  0  0  0  0  0
  191.6230  175.3560  143.4300 C   0  0  0  0  0  0  0  0  0  0  0  0
  192.7360  175.1360  144.4050 C   0  0  0  0  0  2  0  0  0  0  0  0
  194.0010  175.5400  143.8140 N   0  0  0  0  0  2  0  0  0  0  0  0
  194.5740  176.9390  145.5900 O   0  0  0  0  0  0  0  0  0  0  0  0
  194.8940  176.4330  144.4800 C   0  0  0  0  0  0  0  0  0  0  0  0
  196.1200  176.7370  143.8890 O   0  0  0  0  0  0  0  0  0  0  0  0
  196.3950  176.4280  142.5320 C   0  0  0  0  0  1  0  0  0  0  0  0
  189.8430  173.4520  143.1830 C   0  0  2  0  0  3  0  0  0  0  0  0
  191.6690  171.9640  143.9090 O   0  0  0  0  0  0  0  0  0  0  0  0
  190.3730  172.4050  144.0480 N   0  0  0  0  0  0  0  0  0  0  0  0
  189.6900  172.0030  145.0120 O   0  0  0  0  0  0  0  0  0  0  0  0
  190.1730  173.1980  141.7070 C   0  0  2  0  0  3  0  0  0  0  0  0
  189.4140  174.1680  140.8130 C   0  0  0  0  0  1  0  0  0  0  0  0
  189.8150  171.8330  141.3460 N   0  0  0  0  0  2  0  0  0  0  0  0
  192.3480  171.9730  140.5770 O   0  0  0  0  0  0  0  0  0  0  0  0
  191.0820  171.1950  140.3490 S   0  0  0  0  0  0  0  0  0  0  0  0
  191.3510  169.5290  140.7250 N   0  0  0  0  0  1  0  0  0  0  0  0
  190.6800  171.3170  138.9070 O   0  0  0  0  0  0  0  0  0  0  0  0
  1  9  1  0  0  0  0
  1  5  1  1  0  0  0
  2  9  2  0  0  0  0
  3 11  1  1  0  0  0
  3  6  1  0  0  0  0
  3  2  1  0  0  0  0
  4 14  2  0  0  0  0
  6  1  1  0  0  0  0
  7 14  1  0  0  0  0
  8  7  1  0  0  0  0
 10 11  1  0  0  0  0
 11  7  2  0  0  0  0
 12  6  2  0  0  0  0
 13  2  1  0  0  0  0
 14 13  1  0  0  0  0
 15 12  2  0  0  0  0
 16 17  2  0  0  0  0
 17 15  1  0  0  0  0
 17 18  1  0  0  0  0
 19 18  1  0  0  0  0
 19 21  1  0  0  0  0
 21 20  2  0  0  0  0
 22 21  1  0  0  0  0
 23 22  1  0  0  0  0
 24 15  1  1  0  0  0
 24 26  1  0  0  0  0
 25 26  2  0  0  0  0
 26 27  2  0  0  0  0
 28 29  1  6  0  0  0
 28 24  1  0  0  0  0
 30 28  1  0  0  0  0
 32 31  2  0  0  0  0
 32 33  1  0  0  0  0
 32 30  1  0  0  0  0
 34 32  2  0  0  0  0
M  END
>  <MODEL>
9

>  <REMARK>
 VINA RESULT:      -5.8      2.735      5.213
  Name = 
  9 active torsions:
  status: ('A' for Active; 'I' for Inactive)
    1  A    between atoms: O_1  and  C_34
    2  A    between atoms: N_3  and  C_5
    3  A    between atoms: S_4  and  N_18
    4  A    between atoms: C_5  and  C_30
    5  A    between atoms: N_10  and  C_21
    6  A    between atoms: C_13  and  N_18
    7  A    between atoms: C_13  and  C_21
    8  A    between atoms: C_21  and  C_33
    9  A    between atoms: C_30  and  C_33
                            x       y       z     vdW  Elec       q    Type
                         _______ _______ _______ _____ _____    ______ ____

>  <TORSDO>
F 9

$$$$
