=
 OpenBabel11042415273D

 63 68  0  0  1  0  0  0  0  0999 V2000
  190.9520  173.9370  141.4230 C   0  0  0  0  0  2  0  0  0  0  0  0
  192.0030  172.9740  141.6680 N   0  0  0  0  0  2  0  0  0  0  0  0
  194.1710  172.4370  142.2400 O   0  0  0  0  0  0  0  0  0  0  0  0
  193.1480  175.9470  142.1110 C   0  0  0  0  0  0  0  0  0  0  0  0
  193.3670  173.3370  141.8770 C   0  0  0  0  0  0  0  0  0  0  0  0
  195.0440  174.9140  141.1070 N   0  0  0  0  0  0  0  0  0  0  0  0
  191.7600  175.9820  142.4760 N   0  0  0  0  0  2  0  0  0  0  0  0
  193.8770  174.7250  141.6570 C   0  0  0  0  0  0  0  0  0  0  0  0
  190.8650  174.8480  142.6260 C   0  0  1  0  0  3  0  0  0  0  0  0
  193.7840  177.0350  142.1540 O   0  0  0  0  0  0  0  0  0  0  0  0
  189.4580  175.3150  142.8310 C   0  0  0  0  0  0  0  0  0  0  0  0
  188.8030  175.2550  143.9850 C   0  0  0  0  0  0  0  0  0  0  0  0
  187.1900  175.8310  142.3160 C   0  0  0  0  0  3  0  0  0  0  0  0
  188.5870  175.7650  141.7120 C   0  0  0  0  0  3  0  0  0  0  0  0
  187.3570  175.5820  143.8140 C   0  0  2  0  0  3  0  0  0  0  0  0
  186.9300  176.5760  146.1490 C   0  0  0  0  0  2  0  0  0  0  0  0
  186.8990  176.8090  144.6210 C   0  0  2  0  0  3  0  0  0  0  0  0
  185.6310  180.0740  143.8670 O   0  0  0  0  0  0  0  0  0  0  0  0
  185.5600  177.3450  144.1220 C   0  0  0  0  0  2  0  0  0  0  0  0
  186.3080  177.7040  146.9980 C   0  0  0  0  0  2  0  0  0  0  0  0
  183.6510  179.1230  145.3050 O   0  0  0  0  0  1  0  0  0  0  0  0
  186.3410  179.0670  146.3160 C   0  0  0  0  0  2  0  0  0  0  0  0
  185.2730  178.9800  144.8480 P   0  0  2  0  0  0  0  0  0  0  0  0
  190.3860  175.3020  145.8650 C   0  0  0  0  0  0  0  0  0  0  0  0
  191.3930  175.8250  146.5150 C   0  0  0  0  0  0  0  0  0  0  0  0
  189.3410  174.7820  145.2770 C   0  0  0  0  0  3  0  0  0  0  0  0
  191.3310  175.1710  148.9160 O   0  0  0  0  0  1  0  0  0  0  0  0
  191.0770  177.3620  148.3080 O   0  0  0  0  0  0  0  0  0  0  0  0
  191.2540  176.1660  147.9470 C   0  0  0  0  0  0  0  0  0  0  0  0
  192.6320  176.2000  145.7720 C   0  0  0  0  0  2  0  0  0  0  0  0
  193.8590  175.6290  146.4530 C   0  0  0  0  0  2  0  0  0  0  0  0
  194.3440  174.4200  145.6810 C   0  0  0  0  0  2  0  0  0  0  0  0
  195.8610  174.3420  145.7700 C   0  0  0  0  0  2  0  0  0  0  0  0
  197.2950  175.1040  143.8730 C   0  0  0  0  0  1  0  0  0  0  0  0
  197.2630  172.8380  144.5780 O   0  0  0  0  0  1  0  0  0  0  0  0
  196.4580  173.9620  144.4230 C   0  0  1  0  0  3  0  0  0  0  0  0
  195.8880  173.8600  140.5540 C   0  0  0  0  0  2  0  0  0  0  0  0
  196.3120  174.2160  139.1440 C   0  0  2  0  0  3  0  0  0  0  0  0
  195.2260  175.0670  138.4980 C   0  0  0  0  0  2  0  0  0  0  0  0
  195.6470  173.5260  136.8310 C   0  0  0  0  0  0  0  0  0  0  0  0
  195.1080  174.6610  137.1110 N   0  0  0  0  0  0  0  0  0  0  0  0
  195.6140  173.0090  135.5020 N   0  0  0  0  0  2  0  0  0  0  0  0
  196.4840  172.6910  138.1600 S   0  0  0  0  0  0  0  0  0  0  0  0
  196.1280  171.7360  135.2160 N   0  0  0  0  0  2  0  0  0  0  0  0
  194.0600  170.6560  135.6450 N   0  0  0  0  0  0  0  0  0  0  0  0
  194.9330  168.3090  134.5160 N   0  0  0  0  0  0  0  0  0  0  0  0
  193.2120  169.4680  135.7820 C   0  0  1  0  0  3  0  0  0  0  0  0
  195.9270  169.2170  135.0610 C   0  0  0  0  0  2  0  0  0  0  0  0
  195.3190  170.5670  135.3180 C   0  0  0  0  0  0  0  0  0  0  0  0
  193.6850  168.3910  134.8350 C   0  0  0  0  0  3  0  0  0  0  0  0
  193.2620  168.9650  137.2200 C   0  0  0  0  0  2  0  0  0  0  0  0
  190.9480  171.1930  138.9000 C   0  0  0  0  0  2  0  0  0  0  0  0
  192.2790  170.5380  138.6420 C   0  0  0  0  0  2  0  0  0  0  0  0
  190.8260  169.6830  136.6730 S   0  0  0  0  0  0  0  0  0  0  0  0
  192.0320  169.3070  137.9130 N   0  0  0  0  0  0  0  0  0  0  0  0
  190.1610  171.0990  137.6100 C   0  0  2  0  0  3  0  0  0  0  0  0
  190.2980  172.3940  136.7980 C   0  0  2  0  0  3  0  0  0  0  0  0
  189.0560  173.1580  136.8190 N   0  0  0  0  0  2  0  0  0  0  0  0
  188.5100  173.0440  138.1600 C   0  0  0  0  0  1  0  0  0  0  0  0
  190.7260  172.1440  135.4160 N   0  0  0  0  0  2  0  0  0  0  0  0
  190.9810  173.4030  134.7200 C   0  0  0  0  0  2  0  0  0  0  0  0
  192.1620  174.1190  135.3510 C   0  0  0  0  0  2  0  0  0  0  0  0
  191.8190  175.5720  135.6200 C   0  0  0  0  0  1  0  0  0  0  0  0
  1  2  1  0  0  0  0
  1  9  1  0  0  0  0
  2  5  1  0  0  0  0
  4 10  2  0  0  0  0
  4  7  1  0  0  0  0
  5  3  2  0  0  0  0
  6  8  2  0  0  0  0
  7  9  1  0  0  0  0
  8  5  1  0  0  0  0
  8  4  1  0  0  0  0
  9 11  1  6  0  0  0
 11 12  2  0  0  0  0
 12 26  1  0  0  0  0
 14 13  2  0  0  0  0
 14 11  1  0  0  0  0
 15 13  1  6  0  0  0
 15 12  1  0  0  0  0
 15 17  1  0  0  0  0
 16 20  1  0  0  0  0
 17 19  1  6  0  0  0
 17 16  1  0  0  0  0
 19 23  1  0  0  0  0
 22 20  1  0  0  0  0
 23 18  2  6  0  0  0
 23 21  1  0  0  0  0
 23 22  1  0  0  0  0
 24 25  2  0  0  0  0
 25 29  1  0  0  0  0
 26 24  2  0  0  0  0
 29 28  2  0  0  0  0
 29 27  1  0  0  0  0
 30 31  1  0  0  0  0
 30 25  1  0  0  0  0
 32 33  1  0  0  0  0
 32 31  1  0  0  0  0
 36 34  1  1  0  0  0
 36 35  1  0  0  0  0
 36 33  1  0  0  0  0
 37  6  1  0  0  0  0
 38 37  1  1  0  0  0
 39 38  1  0  0  0  0
 40 41  2  0  0  0  0
 40 43  1  0  0  0  0
 41 39  1  0  0  0  0
 42 40  1  0  0  0  0
 43 38  1  0  0  0  0
 44 49  1  0  0  0  0
 44 42  1  0  0  0  0
 45 47  1  0  0  0  0
 46 50  2  0  0  0  0
 46 48  1  0  0  0  0
 47 51  1  1  0  0  0
 48 49  1  0  0  0  0
 49 45  2  0  0  0  0
 50 47  1  0  0  0  0
 51 55  1  0  0  0  0
 53 52  1  0  0  0  0
 54 56  1  0  0  0  0
 54 55  1  0  0  0  0
 55 53  1  0  0  0  0
 56 57  1  6  0  0  0
 56 52  1  0  0  0  0
 57 60  1  6  0  0  0
 57 58  1  0  0  0  0
 58 59  1  0  0  0  0
 61 62  1  0  0  0  0
 61 60  1  0  0  0  0
 62 63  1  0  0  0  0
M  END
>  <MODEL>
1

>  <REMARK>
 VINA RESULT:      -5.9      0.000      0.000
  Name = 
  19 active torsions:
  status: ('A' for Active; 'I' for Inactive)
    1  A    between atoms: C_3  and  C_5
    2  A    between atoms: C_3  and  N_59
    3  A    between atoms: C_7  and  C_53
    4  A    between atoms: C_8  and  C_16
    5  A    between atoms: C_8  and  C_55
    6  A    between atoms: C_9  and  C_19
    7  A    between atoms: C_10  and  N_40
    8  A    between atoms: C_10  and  C_46
    9  A    between atoms: C_14  and  C_48
   10  A    between atoms: C_16  and  C_25
   11  A    between atoms: N_17  and  C_47
   12  A    between atoms: C_18  and  C_44
   13  A    between atoms: C_18  and  C_56
   14  A    between atoms: C_25  and  C_56
   15  A    between atoms: C_28  and  C_33
   16  A    between atoms: N_31  and  N_54
   17  A    between atoms: C_33  and  N_39
   18  A    between atoms: C_47  and  N_59
   19  A    between atoms: C_47  and  C_63
                            x       y       z     vdW  Elec       q    Type
                         _______ _______ _______ _____ _____    ______ ____

>  <TORSDO>
F 19

$$$$
=
 OpenBabel11042415273D

 63 68  0  0  1  0  0  0  0  0999 V2000
  192.7310  174.3380  141.3650 C   0  0  0  0  0  2  0  0  0  0  0  0
  191.8450  174.0670  142.4760 N   0  0  0  0  0  2  0  0  0  0  0  0
  189.8360  173.3360  143.3370 O   0  0  0  0  0  0  0  0  0  0  0  0
  190.3740  173.3050  139.7180 C   0  0  0  0  0  0  0  0  0  0  0  0
  190.4750  173.7060  142.3150 C   0  0  0  0  0  0  0  0  0  0  0  0
  188.5370  174.2010  140.9400 N   0  0  0  0  0  0  0  0  0  0  0  0
  191.7750  173.0690  139.5160 N   0  0  0  0  0  2  0  0  0  0  0  0
  189.7680  173.7760  141.0000 C   0  0  0  0  0  0  0  0  0  0  0  0
  192.8210  173.0850  140.5240 C   0  0  1  0  0  3  0  0  0  0  0  0
  189.6100  173.1240  138.7320 O   0  0  0  0  0  0  0  0  0  0  0  0
  194.1690  172.9790  139.8820 C   0  0  0  0  0  0  0  0  0  0  0  0
  194.5850  171.9390  139.1690 C   0  0  0  0  0  0  0  0  0  0  0  0
  196.5030  173.3190  139.5420 C   0  0  0  0  0  3  0  0  0  0  0  0
  195.2480  173.9780  140.1040 C   0  0  0  0  0  3  0  0  0  0  0  0
  196.0420  172.0320  138.8590 C   0  0  2  0  0  3  0  0  0  0  0  0
  197.4160  171.0370  136.9240 C   0  0  0  0  0  2  0  0  0  0  0  0
  196.3550  172.0760  137.3540 C   0  0  2  0  0  3  0  0  0  0  0  0
  195.3460  174.0810  134.5600 O   0  0  0  0  0  1  0  0  0  0  0  0
  196.6770  173.4920  136.8840 C   0  0  0  0  0  2  0  0  0  0  0  0
  197.9020  171.1600  135.4650 C   0  0  0  0  0  2  0  0  0  0  0  0
  197.9410  174.4810  134.5130 O   0  0  0  0  0  0  0  0  0  0  0  0
  196.8820  171.8090  134.5370 C   0  0  0  0  0  2  0  0  0  0  0  0
  196.6590  173.5310  135.0740 P   0  0  2  0  0  0  0  0  0  0  0  0
  193.4550  169.8190  139.6920 C   0  0  0  0  0  0  0  0  0  0  0  0
  193.0440  168.9060  140.5320 C   0  0  0  0  0  0  0  0  0  0  0  0
  193.7980  170.7370  138.8260 C   0  0  0  0  0  3  0  0  0  0  0  0
  190.9850  168.2000  141.7410 O   0  0  0  0  0  1  0  0  0  0  0  0
  190.9740  168.4080  139.4630 O   0  0  0  0  0  0  0  0  0  0  0  0
  191.6240  168.4910  140.5400 C   0  0  0  0  0  0  0  0  0  0  0  0
  193.9820  168.3880  141.5710 C   0  0  0  0  0  2  0  0  0  0  0  0
  194.8760  169.4970  142.0880 C   0  0  0  0  0  2  0  0  0  0  0  0
  194.1370  170.2800  143.1530 C   0  0  0  0  0  2  0  0  0  0  0  0
  193.7270  169.3400  144.2760 C   0  0  0  0  0  2  0  0  0  0  0  0
  194.3800  168.4690  146.5230 C   0  0  0  0  0  1  0  0  0  0  0  0
  195.9030  169.6830  145.1670 O   0  0  0  0  0  1  0  0  0  0  0  0
  194.5600  169.5970  145.5220 C   0  0  1  0  0  3  0  0  0  0  0  0
  187.7850  174.7480  142.0640 C   0  0  0  0  0  2  0  0  0  0  0  0
  186.8940  175.8800  141.5960 C   0  0  2  0  0  3  0  0  0  0  0  0
  187.7670  177.0120  141.0680 C   0  0  0  0  0  2  0  0  0  0  0  0
  186.2980  178.1670  142.4240 C   0  0  0  0  0  0  0  0  0  0  0  0
  187.1670  178.2670  141.4800 N   0  0  0  0  0  0  0  0  0  0  0  0
  185.6220  179.3200  142.9210 N   0  0  0  0  0  2  0  0  0  0  0  0
  185.9410  176.5250  143.0100 S   0  0  0  0  0  0  0  0  0  0  0  0
  184.7370  179.2210  144.0040 N   0  0  0  0  0  2  0  0  0  0  0  0
  186.4460  178.5680  145.5150 N   0  0  0  0  0  0  0  0  0  0  0  0
  184.8160  178.9650  147.6910 N   0  0  0  0  0  0  0  0  0  0  0  0
  186.9290  178.1280  146.8280 C   0  0  1  0  0  3  0  0  0  0  0  0
  184.1920  178.6670  146.4140 C   0  0  0  0  0  2  0  0  0  0  0  0
  185.1850  178.8180  145.2960 C   0  0  0  0  0  0  0  0  0  0  0  0
  186.0630  178.7200  147.9150 C   0  0  0  0  0  3  0  0  0  0  0  0
  186.9020  176.6070  146.9000 C   0  0  0  0  0  2  0  0  0  0  0  0
  190.1240  174.9680  146.6340 C   0  0  0  0  0  2  0  0  0  0  0  0
  188.6330  175.0990  146.4660 C   0  0  0  0  0  2  0  0  0  0  0  0
  189.3240  177.4460  147.3210 S   0  0  0  0  0  0  0  0  0  0  0  0
  188.1700  176.1060  147.4020 N   0  0  0  0  0  0  0  0  0  0  0  0
  190.6750  176.3750  146.7280 C   0  0  2  0  0  3  0  0  0  0  0  0
  191.1770  176.8500  145.3580 C   0  0  2  0  0  3  0  0  0  0  0  0
  190.0790  176.9450  144.4030 N   0  0  0  0  0  2  0  0  0  0  0  0
  190.6630  177.2880  143.1170 C   0  0  0  0  0  1  0  0  0  0  0  0
  192.2470  175.9960  144.8270 N   0  0  0  0  0  2  0  0  0  0  0  0
  193.5110  176.7270  144.7740 C   0  0  0  0  0  2  0  0  0  0  0  0
  194.6560  175.8220  145.1940 C   0  0  0  0  0  2  0  0  0  0  0  0
  194.1340  174.4480  145.5700 C   0  0  0  0  0  1  0  0  0  0  0  0
  1  2  1  0  0  0  0
  4  8  1  0  0  0  0
  5  2  1  0  0  0  0
  5  3  2  0  0  0  0
  6  8  2  0  0  0  0
  6 37  1  0  0  0  0
  7  4  1  0  0  0  0
  7  9  1  0  0  0  0
  8  5  1  0  0  0  0
  9 11  1  6  0  0  0
  9  1  1  0  0  0  0
 10  4  2  0  0  0  0
 11 14  1  0  0  0  0
 12 11  2  0  0  0  0
 13 14  2  0  0  0  0
 15 12  1  0  0  0  0
 15 13  1  1  0  0  0
 16 17  1  0  0  0  0
 17 19  1  1  0  0  0
 17 15  1  0  0  0  0
 18 23  1  0  0  0  0
 20 16  1  0  0  0  0
 22 23  1  0  0  0  0
 22 20  1  0  0  0  0
 23 21  2  6  0  0  0
 23 19  1  0  0  0  0
 24 25  2  0  0  0  0
 25 29  1  0  0  0  0
 25 30  1  0  0  0  0
 26 12  1  0  0  0  0
 26 24  2  0  0  0  0
 28 29  2  0  0  0  0
 29 27  1  0  0  0  0
 30 31  1  0  0  0  0
 31 32  1  0  0  0  0
 32 33  1  0  0  0  0
 33 36  1  0  0  0  0
 35 36  1  0  0  0  0
 36 34  1  1  0  0  0
 38 37  1  1  0  0  0
 38 43  1  0  0  0  0
 39 41  1  0  0  0  0
 39 38  1  0  0  0  0
 40 42  1  0  0  0  0
 40 43  1  0  0  0  0
 41 40  2  0  0  0  0
 42 44  1  0  0  0  0
 44 49  1  0  0  0  0
 45 47  1  0  0  0  0
 46 50  2  0  0  0  0
 47 51  1  6  0  0  0
 47 50  1  0  0  0  0
 48 46  1  0  0  0  0
 49 45  2  0  0  0  0
 49 48  1  0  0  0  0
 51 55  1  0  0  0  0
 52 56  1  0  0  0  0
 53 52  1  0  0  0  0
 53 55  1  0  0  0  0
 54 55  1  0  0  0  0
 56 57  1  6  0  0  0
 56 54  1  0  0  0  0
 57 58  1  6  0  0  0
 59 58  1  0  0  0  0
 60 57  1  0  0  0  0
 61 60  1  0  0  0  0
 61 62  1  0  0  0  0
 62 63  1  0  0  0  0
M  END
>  <MODEL>
2

>  <REMARK>
 VINA RESULT:      -5.5      4.653     11.127
  Name = 
  19 active torsions:
  status: ('A' for Active; 'I' for Inactive)
    1  A    between atoms: C_3  and  C_5
    2  A    between atoms: C_3  and  N_59
    3  A    between atoms: C_7  and  C_53
    4  A    between atoms: C_8  and  C_16
    5  A    between atoms: C_8  and  C_55
    6  A    between atoms: C_9  and  C_19
    7  A    between atoms: C_10  and  N_40
    8  A    between atoms: C_10  and  C_46
    9  A    between atoms: C_14  and  C_48
   10  A    between atoms: C_16  and  C_25
   11  A    between atoms: N_17  and  C_47
   12  A    between atoms: C_18  and  C_44
   13  A    between atoms: C_18  and  C_56
   14  A    between atoms: C_25  and  C_56
   15  A    between atoms: C_28  and  C_33
   16  A    between atoms: N_31  and  N_54
   17  A    between atoms: C_33  and  N_39
   18  A    between atoms: C_47  and  N_59
   19  A    between atoms: C_47  and  C_63
                            x       y       z     vdW  Elec       q    Type
                         _______ _______ _______ _____ _____    ______ ____

>  <TORSDO>
F 19

$$$$
=
 OpenBabel11042415273D

 63 68  0  0  1  0  0  0  0  0999 V2000
  190.7700  174.6410  142.6500 C   0  0  0  0  0  2  0  0  0  0  0  0
  190.8730  176.0840  142.6910 N   0  0  0  0  0  2  0  0  0  0  0  0
  190.6720  178.1020  143.7850 O   0  0  0  0  0  0  0  0  0  0  0  0
  189.8290  175.0020  145.5340 C   0  0  0  0  0  0  0  0  0  0  0  0
  190.3900  176.8740  143.7750 C   0  0  0  0  0  0  0  0  0  0  0  0
  188.5470  177.0000  145.3490 N   0  0  0  0  0  0  0  0  0  0  0  0
  190.6840  173.9830  144.9950 N   0  0  0  0  0  2  0  0  0  0  0  0
  189.5460  176.3110  144.8730 C   0  0  0  0  0  0  0  0  0  0  0  0
  191.5390  174.0850  143.8250 C   0  0  1  0  0  3  0  0  0  0  0  0
  189.2570  174.7560  146.6300 O   0  0  0  0  0  0  0  0  0  0  0  0
  192.1250  172.7510  143.4870 C   0  0  0  0  0  0  0  0  0  0  0  0
  192.9840  172.5320  142.4980 C   0  0  0  0  0  0  0  0  0  0  0  0
  192.2890  170.3820  143.2830 C   0  0  0  0  0  3  0  0  0  0  0  0
  191.6840  171.4880  144.1390 C   0  0  0  0  0  3  0  0  0  0  0  0
  193.2030  171.0730  142.2720 C   0  0  2  0  0  3  0  0  0  0  0  0
  195.2370  169.8760  141.2450 C   0  0  0  0  0  2  0  0  0  0  0  0
  194.6620  170.6270  142.4680 C   0  0  2  0  0  3  0  0  0  0  0  0
  197.0740  170.7590  145.1150 O   0  0  0  0  0  1  0  0  0  0  0  0
  194.8510  169.8700  143.7800 C   0  0  0  0  0  2  0  0  0  0  0  0
  196.6290  169.2470  141.4550 C   0  0  0  0  0  2  0  0  0  0  0  0
  196.9520  168.1660  144.7210 O   0  0  0  0  0  0  0  0  0  0  0  0
  197.4590  169.9490  142.5240 C   0  0  0  0  0  2  0  0  0  0  0  0
  196.6230  169.7130  144.1200 P   0  0  2  0  0  0  0  0  0  0  0  0
  194.7200  174.1250  141.7970 C   0  0  0  0  0  0  0  0  0  0  0  0
  195.8930  174.6870  141.9270 C   0  0  0  0  0  0  0  0  0  0  0  0
  193.5640  173.5480  141.5970 C   0  0  0  0  0  3  0  0  0  0  0  0
  197.2340  175.9450  140.2490 O   0  0  0  0  0  0  0  0  0  0  0  0
  197.2790  173.6580  140.2840 O   0  0  0  0  0  1  0  0  0  0  0  0
  196.8280  174.7260  140.7820 C   0  0  0  0  0  0  0  0  0  0  0  0
  196.3340  175.1640  143.2720 C   0  0  0  0  0  2  0  0  0  0  0  0
  196.3950  174.0120  144.2550 C   0  0  0  0  0  2  0  0  0  0  0  0
  195.9950  174.5060  145.6300 C   0  0  0  0  0  2  0  0  0  0  0  0
  194.5050  174.8130  145.6400 C   0  0  0  0  0  2  0  0  0  0  0  0
  194.6980  177.3010  145.7170 C   0  0  0  0  0  1  0  0  0  0  0  0
  192.8510  176.1650  146.6820 O   0  0  0  0  0  1  0  0  0  0  0  0
  194.2210  176.0640  146.4570 C   0  0  1  0  0  3  0  0  0  0  0  0
  188.0790  178.2740  144.8140 C   0  0  0  0  0  2  0  0  0  0  0  0
  186.8750  178.0550  143.9210 C   0  0  2  0  0  3  0  0  0  0  0  0
  186.4510  176.5940  144.0080 C   0  0  0  0  0  2  0  0  0  0  0  0
  186.4390  176.9340  141.7240 C   0  0  0  0  0  0  0  0  0  0  0  0
  186.0500  176.1660  142.6810 N   0  0  0  0  0  0  0  0  0  0  0  0
  186.1070  176.6390  140.3690 N   0  0  0  0  0  2  0  0  0  0  0  0
  187.3350  178.3990  142.1900 S   0  0  0  0  0  0  0  0  0  0  0  0
  186.6000  177.4300  139.3220 N   0  0  0  0  0  2  0  0  0  0  0  0
  187.0030  175.5600  137.9180 N   0  0  0  0  0  0  0  0  0  0  0  0
  187.3880  177.1630  135.7200 N   0  0  0  0  0  0  0  0  0  0  0  0
  187.4960  174.9340  136.6870 C   0  0  1  0  0  3  0  0  0  0  0  0
  187.6410  177.7300  137.0330 C   0  0  0  0  0  2  0  0  0  0  0  0
  187.0630  176.8490  138.1060 C   0  0  0  0  0  0  0  0  0  0  0  0
  187.3270  175.8880  135.5280 C   0  0  0  0  0  3  0  0  0  0  0  0
  188.9630  174.5610  136.8540 C   0  0  0  0  0  2  0  0  0  0  0  0
  190.0830  171.1170  137.0110 C   0  0  0  0  0  2  0  0  0  0  0  0
  189.4350  172.3220  136.3810 C   0  0  0  0  0  2  0  0  0  0  0  0
  190.4570  173.2890  138.5570 S   0  0  0  0  0  0  0  0  0  0  0  0
  189.0790  173.2390  137.4470 N   0  0  0  0  0  0  0  0  0  0  0  0
  191.0470  171.6380  138.0550 C   0  0  2  0  0  3  0  0  0  0  0  0
  192.4680  171.7260  137.4830 C   0  0  2  0  0  3  0  0  0  0  0  0
  193.4270  171.0650  138.3610 N   0  0  0  0  0  2  0  0  0  0  0  0
  193.7130  169.7660  137.7760 C   0  0  0  0  0  1  0  0  0  0  0  0
  192.8800  173.1100  137.2190 N   0  0  0  0  0  2  0  0  0  0  0  0
  194.1260  173.4180  137.9180 C   0  0  0  0  0  2  0  0  0  0  0  0
  194.2530  174.9180  138.1210 C   0  0  0  0  0  2  0  0  0  0  0  0
  193.5240  175.6650  137.0200 C   0  0  0  0  0  1  0  0  0  0  0  0
  1  2  1  0  0  0  0
  1  9  1  0  0  0  0
  2  5  1  0  0  0  0
  4 10  2  0  0  0  0
  5  3  2  0  0  0  0
  5  8  1  0  0  0  0
  7  4  1  0  0  0  0
  8  6  2  0  0  0  0
  8  4  1  0  0  0  0
  9 11  1  6  0  0  0
  9  7  1  0  0  0  0
 11 14  1  0  0  0  0
 12 11  2  0  0  0  0
 13 14  2  0  0  0  0
 15 17  1  0  0  0  0
 15 12  1  0  0  0  0
 15 13  1  1  0  0  0
 16 20  1  0  0  0  0
 17 16  1  6  0  0  0
 17 19  1  0  0  0  0
 19 23  1  0  0  0  0
 20 22  1  0  0  0  0
 22 23  1  0  0  0  0
 23 21  2  1  0  0  0
 23 18  1  0  0  0  0
 24 25  2  0  0  0  0
 25 30  1  0  0  0  0
 26 24  2  0  0  0  0
 26 12  1  0  0  0  0
 27 29  2  0  0  0  0
 28 29  1  0  0  0  0
 29 25  1  0  0  0  0
 30 31  1  0  0  0  0
 31 32  1  0  0  0  0
 32 33  1  0  0  0  0
 33 36  1  0  0  0  0
 36 34  1  6  0  0  0
 36 35  1  0  0  0  0
 37  6  1  0  0  0  0
 38 39  1  0  0  0  0
 38 37  1  1  0  0  0
 40 43  1  0  0  0  0
 40 41  2  0  0  0  0
 41 39  1  0  0  0  0
 42 40  1  0  0  0  0
 43 38  1  0  0  0  0
 44 42  1  0  0  0  0
 45 49  2  0  0  0  0
 46 48  1  0  0  0  0
 47 51  1  1  0  0  0
 47 45  1  0  0  0  0
 48 49  1  0  0  0  0
 49 44  1  0  0  0  0
 50 46  2  0  0  0  0
 50 47  1  0  0  0  0
 51 55  1  0  0  0  0
 52 56  1  0  0  0  0
 53 52  1  0  0  0  0
 53 55  1  0  0  0  0
 55 54  1  0  0  0  0
 56 57  1  6  0  0  0
 56 54  1  0  0  0  0
 57 60  1  1  0  0  0
 57 58  1  0  0  0  0
 59 58  1  0  0  0  0
 60 61  1  0  0  0  0
 61 62  1  0  0  0  0
 63 62  1  0  0  0  0
M  END
>  <MODEL>
3

>  <REMARK>
 VINA RESULT:      -5.2      3.664      8.321
  Name = 
  19 active torsions:
  status: ('A' for Active; 'I' for Inactive)
    1  A    between atoms: C_3  and  C_5
    2  A    between atoms: C_3  and  N_59
    3  A    between atoms: C_7  and  C_53
    4  A    between atoms: C_8  and  C_16
    5  A    between atoms: C_8  and  C_55
    6  A    between atoms: C_9  and  C_19
    7  A    between atoms: C_10  and  N_40
    8  A    between atoms: C_10  and  C_46
    9  A    between atoms: C_14  and  C_48
   10  A    between atoms: C_16  and  C_25
   11  A    between atoms: N_17  and  C_47
   12  A    between atoms: C_18  and  C_44
   13  A    between atoms: C_18  and  C_56
   14  A    between atoms: C_25  and  C_56
   15  A    between atoms: C_28  and  C_33
   16  A    between atoms: N_31  and  N_54
   17  A    between atoms: C_33  and  N_39
   18  A    between atoms: C_47  and  N_59
   19  A    between atoms: C_47  and  C_63
                            x       y       z     vdW  Elec       q    Type
                         _______ _______ _______ _____ _____    ______ ____

>  <TORSDO>
F 19

$$$$
=
 OpenBabel11042415273D

 63 68  0  0  1  0  0  0  0  0999 V2000
  187.0900  176.1380  145.4650 C   0  0  0  0  0  2  0  0  0  0  0  0
  187.9010  175.6460  146.5580 N   0  0  0  0  0  2  0  0  0  0  0  0
  189.8730  175.5750  147.7480 O   0  0  0  0  0  0  0  0  0  0  0  0
  189.6160  177.7210  144.7960 C   0  0  0  0  0  0  0  0  0  0  0  0
  189.2970  175.9140  146.6800 C   0  0  0  0  0  0  0  0  0  0  0  0
  191.3060  176.1320  145.3360 N   0  0  0  0  0  0  0  0  0  0  0  0
  188.2490  178.1490  144.7210 N   0  0  0  0  0  2  0  0  0  0  0  0
  190.0970  176.5500  145.5890 C   0  0  0  0  0  0  0  0  0  0  0  0
  187.1290  177.6490  145.4990 C   0  0  1  0  0  3  0  0  0  0  0  0
  190.4620  178.3670  144.1210 O   0  0  0  0  0  0  0  0  0  0  0  0
  185.8420  178.2200  144.9930 C   0  0  0  0  0  0  0  0  0  0  0  0
  185.6470  178.6630  143.7560 C   0  0  0  0  0  0  0  0  0  0  0  0
  183.7420  179.3450  145.0300 C   0  0  0  0  0  3  0  0  0  0  0  0
  184.6770  178.4900  145.8770 C   0  0  0  0  0  3  0  0  0  0  0  0
  184.3430  179.3760  143.6260 C   0  0  2  0  0  3  0  0  0  0  0  0
  184.0340  178.4880  141.2310 C   0  0  0  0  0  2  0  0  0  0  0  0
  183.3830  178.7340  142.6110 C   0  0  2  0  0  3  0  0  0  0  0  0
  179.9340  177.7630  142.5700 O   0  0  0  0  0  1  0  0  0  0  0  0
  182.0610  179.4920  142.5250 C   0  0  0  0  0  2  0  0  0  0  0  0
  183.0690  178.0170  140.1240 C   0  0  0  0  0  2  0  0  0  0  0  0
  179.9650  179.4670  140.5730 O   0  0  0  0  0  0  0  0  0  0  0  0
  181.8400  177.2900  140.6570 C   0  0  0  0  0  2  0  0  0  0  0  0
  180.8620  178.4830  141.6170 P   0  0  2  0  0  0  0  0  0  0  0  0
  186.9560  177.5350  142.0070 C   0  0  0  0  0  0  0  0  0  0  0  0
  187.2800  176.4800  141.3050 C   0  0  0  0  0  0  0  0  0  0  0  0
  186.6210  178.6250  142.6460 C   0  0  0  0  0  3  0  0  0  0  0  0
  186.7630  177.6620  139.1770 O   0  0  0  0  0  1  0  0  0  0  0  0
  187.6900  175.5710  139.1420 O   0  0  0  0  0  0  0  0  0  0  0  0
  187.2550  176.5360  139.8280 C   0  0  0  0  0  0  0  0  0  0  0  0
  187.5400  175.1850  142.0030 C   0  0  0  0  0  2  0  0  0  0  0  0
  188.9990  175.0730  142.3960 C   0  0  0  0  0  2  0  0  0  0  0  0
  189.4300  173.6230  142.3150 C   0  0  0  0  0  2  0  0  0  0  0  0
  189.9040  173.1620  143.6850 C   0  0  0  0  0  2  0  0  0  0  0  0
  191.1710  171.6270  142.1780 C   0  0  0  0  0  1  0  0  0  0  0  0
  191.6820  171.8050  144.4880 O   0  0  0  0  0  1  0  0  0  0  0  0
  190.6280  171.8280  143.5810 C   0  0  1  0  0  3  0  0  0  0  0  0
  191.9400  174.9780  145.9630 C   0  0  0  0  0  2  0  0  0  0  0  0
  193.4250  175.2270  146.1350 C   0  0  2  0  0  3  0  0  0  0  0  0
  193.7040  176.7120  145.9500 C   0  0  0  0  0  2  0  0  0  0  0  0
  195.3500  175.7730  144.6300 C   0  0  0  0  0  0  0  0  0  0  0  0
  194.9530  176.8440  145.2240 N   0  0  0  0  0  0  0  0  0  0  0  0
  196.5670  175.7570  143.8870 N   0  0  0  0  0  2  0  0  0  0  0  0
  194.3440  174.3210  144.8470 S   0  0  0  0  0  0  0  0  0  0  0  0
  196.9550  174.6140  143.1730 N   0  0  0  0  0  2  0  0  0  0  0  0
  196.0310  175.4080  141.1370 N   0  0  0  0  0  0  0  0  0  0  0  0
  197.3130  173.4640  139.6780 N   0  0  0  0  0  0  0  0  0  0  0  0
  195.6820  175.2670  139.7200 C   0  0  1  0  0  3  0  0  0  0  0  0
  197.0310  173.1950  141.0770 C   0  0  0  0  0  2  0  0  0  0  0  0
  196.6490  174.4630  141.7890 C   0  0  0  0  0  0  0  0  0  0  0  0
  196.7040  174.3980  139.0260 C   0  0  0  0  0  3  0  0  0  0  0  0
  194.2930  174.6530  139.5930 C   0  0  0  0  0  2  0  0  0  0  0  0
  193.0800  171.6430  137.9780 C   0  0  0  0  0  2  0  0  0  0  0  0
  193.5550  172.4840  139.1340 C   0  0  0  0  0  2  0  0  0  0  0  0
  193.3730  174.2060  137.2050 S   0  0  0  0  0  0  0  0  0  0  0  0
  194.3000  173.6040  138.5880 N   0  0  0  0  0  0  0  0  0  0  0  0
  192.5500  172.6010  136.9330 C   0  0  2  0  0  3  0  0  0  0  0  0
  191.0280  172.7490  137.0570 C   0  0  2  0  0  3  0  0  0  0  0  0
  190.4880  171.7980  138.0220 N   0  0  0  0  0  2  0  0  0  0  0  0
  189.6320  172.5490  138.9240 C   0  0  0  0  0  1  0  0  0  0  0  0
  190.3460  172.6130  135.7640 N   0  0  0  0  0  2  0  0  0  0  0  0
  189.5560  173.8070  135.4710 C   0  0  0  0  0  2  0  0  0  0  0  0
  190.3170  174.7170  134.5220 C   0  0  0  0  0  2  0  0  0  0  0  0
  190.4000  176.1220  135.0880 C   0  0  0  0  0  1  0  0  0  0  0  0
  1  9  1  0  0  0  0
  1  2  1  0  0  0  0
  2  5  1  0  0  0  0
  4  8  1  0  0  0  0
  5  3  2  0  0  0  0
  6  8  2  0  0  0  0
  6 37  1  0  0  0  0
  7  4  1  0  0  0  0
  7  9  1  0  0  0  0
  8  5  1  0  0  0  0
  9 11  1  6  0  0  0
 10  4  2  0  0  0  0
 11 14  1  0  0  0  0
 12 11  2  0  0  0  0
 13 14  2  0  0  0  0
 15 12  1  0  0  0  0
 15 13  1  1  0  0  0
 17 16  1  6  0  0  0
 17 15  1  0  0  0  0
 19 17  1  0  0  0  0
 20 22  1  0  0  0  0
 20 16  1  0  0  0  0
 22 23  1  0  0  0  0
 23 21  2  6  0  0  0
 23 19  1  0  0  0  0
 23 18  1  0  0  0  0
 24 26  2  0  0  0  0
 25 30  1  0  0  0  0
 25 24  2  0  0  0  0
 26 12  1  0  0  0  0
 27 29  1  0  0  0  0
 28 29  2  0  0  0  0
 29 25  1  0  0  0  0
 30 31  1  0  0  0  0
 32 31  1  0  0  0  0
 32 33  1  0  0  0  0
 36 34  1  6  0  0  0
 36 33  1  0  0  0  0
 36 35  1  0  0  0  0
 38 37  1  6  0  0  0
 39 38  1  0  0  0  0
 40 43  1  0  0  0  0
 40 41  2  0  0  0  0
 41 39  1  0  0  0  0
 42 40  1  0  0  0  0
 43 38  1  0  0  0  0
 44 42  1  0  0  0  0
 45 49  2  0  0  0  0
 46 48  1  0  0  0  0
 47 51  1  1  0  0  0
 47 45  1  0  0  0  0
 48 49  1  0  0  0  0
 49 44  1  0  0  0  0
 50 46  2  0  0  0  0
 50 47  1  0  0  0  0
 52 53  1  0  0  0  0
 54 55  1  0  0  0  0
 55 53  1  0  0  0  0
 55 51  1  0  0  0  0
 56 57  1  1  0  0  0
 56 54  1  0  0  0  0
 56 52  1  0  0  0  0
 57 60  1  6  0  0  0
 57 58  1  0  0  0  0
 58 59  1  0  0  0  0
 61 60  1  0  0  0  0
 62 63  1  0  0  0  0
 62 61  1  0  0  0  0
M  END
>  <MODEL>
4

>  <REMARK>
 VINA RESULT:      -5.0      3.043      6.241
  Name = 
  19 active torsions:
  status: ('A' for Active; 'I' for Inactive)
    1  A    between atoms: C_3  and  C_5
    2  A    between atoms: C_3  and  N_59
    3  A    between atoms: C_7  and  C_53
    4  A    between atoms: C_8  and  C_16
    5  A    between atoms: C_8  and  C_55
    6  A    between atoms: C_9  and  C_19
    7  A    between atoms: C_10  and  N_40
    8  A    between atoms: C_10  and  C_46
    9  A    between atoms: C_14  and  C_48
   10  A    between atoms: C_16  and  C_25
   11  A    between atoms: N_17  and  C_47
   12  A    between atoms: C_18  and  C_44
   13  A    between atoms: C_18  and  C_56
   14  A    between atoms: C_25  and  C_56
   15  A    between atoms: C_28  and  C_33
   16  A    between atoms: N_31  and  N_54
   17  A    between atoms: C_33  and  N_39
   18  A    between atoms: C_47  and  N_59
   19  A    between atoms: C_47  and  C_63
                            x       y       z     vdW  Elec       q    Type
                         _______ _______ _______ _____ _____    ______ ____

>  <TORSDO>
F 19

$$$$
=
 OpenBabel11042415273D

 63 68  0  0  1  0  0  0  0  0999 V2000
  191.4230  176.3350  143.3210 C   0  0  0  0  0  2  0  0  0  0  0  0
  192.7920  176.7350  143.0790 N   0  0  0  0  0  2  0  0  0  0  0  0
  194.7520  176.6320  141.8700 O   0  0  0  0  0  0  0  0  0  0  0  0
  191.8890  174.5940  140.8540 C   0  0  0  0  0  0  0  0  0  0  0  0
  193.6330  176.1050  142.1140 C   0  0  0  0  0  0  0  0  0  0  0  0
  194.1480  173.9210  141.1910 N   0  0  0  0  0  0  0  0  0  0  0  0
  190.7130  175.3330  141.2150 N   0  0  0  0  0  2  0  0  0  0  0  0
  193.2520  174.8430  141.4090 C   0  0  0  0  0  0  0  0  0  0  0  0
  190.6470  176.5280  142.0380 C   0  0  1  0  0  3  0  0  0  0  0  0
  191.7480  173.6530  140.0280 O   0  0  0  0  0  0  0  0  0  0  0  0
  189.2230  176.8830  142.3330 C   0  0  0  0  0  0  0  0  0  0  0  0
  188.3520  176.0780  142.9300 C   0  0  0  0  0  0  0  0  0  0  0  0
  187.0980  177.9340  142.0900 C   0  0  0  0  0  3  0  0  0  0  0  0
  188.5890  178.1380  141.8470 C   0  0  0  0  0  3  0  0  0  0  0  0
  186.9660  176.6290  142.8740 C   0  0  2  0  0  3  0  0  0  0  0  0
  185.1080  177.8140  144.2030 C   0  0  0  0  0  2  0  0  0  0  0  0
  186.3460  176.8890  144.2570 C   0  0  2  0  0  3  0  0  0  0  0  0
  187.1110  176.0030  147.6440 O   0  0  0  0  0  0  0  0  0  0  0  0
  187.3920  177.3460  145.2700 C   0  0  0  0  0  2  0  0  0  0  0  0
  184.5580  178.2560  145.5740 C   0  0  0  0  0  2  0  0  0  0  0  0
  187.1550  178.6230  147.8230 O   0  0  0  0  0  1  0  0  0  0  0  0
  184.8750  177.2800  146.7000 C   0  0  0  0  0  2  0  0  0  0  0  0
  186.6770  177.2660  146.9320 P   0  0  2  0  0  0  0  0  0  0  0  0
  188.7180  173.6570  142.7210 C   0  0  0  0  0  0  0  0  0  0  0  0
  188.8720  172.5680  142.0130 C   0  0  0  0  0  0  0  0  0  0  0  0
  188.6260  174.7290  143.4630 C   0  0  0  0  0  3  0  0  0  0  0  0
  190.5100  171.4620  143.5240 O   0  0  0  0  0  1  0  0  0  0  0  0
  190.6350  171.1540  141.2610 O   0  0  0  0  0  0  0  0  0  0  0  0
  190.0470  171.6990  142.2340 C   0  0  0  0  0  0  0  0  0  0  0  0
  187.9290  172.2830  140.8900 C   0  0  0  0  0  2  0  0  0  0  0  0
  187.8190  173.4790  139.9660 C   0  0  0  0  0  2  0  0  0  0  0  0
  188.8460  173.3540  138.8600 C   0  0  0  0  0  2  0  0  0  0  0  0
  188.9050  171.9080  138.3890 C   0  0  0  0  0  2  0  0  0  0  0  0
  190.3760  173.0970  136.7590 C   0  0  0  0  0  1  0  0  0  0  0  0
  191.0620  171.0880  137.8210 O   0  0  0  0  0  1  0  0  0  0  0  0
  189.9510  171.7420  137.2970 C   0  0  1  0  0  3  0  0  0  0  0  0
  195.5180  173.9500  141.6900 C   0  0  0  0  0  2  0  0  0  0  0  0
  196.2860  172.7480  141.1790 C   0  0  2  0  0  3  0  0  0  0  0  0
  195.3280  171.8240  140.4380 C   0  0  0  0  0  2  0  0  0  0  0  0
  196.4560  170.3240  141.7830 C   0  0  0  0  0  0  0  0  0  0  0  0
  195.6930  170.4560  140.7550 N   0  0  0  0  0  0  0  0  0  0  0  0
  196.9010  169.0360  142.2030 N   0  0  0  0  0  2  0  0  0  0  0  0
  196.9730  171.8230  142.5910 S   0  0  0  0  0  0  0  0  0  0  0  0
  197.6630  168.8860  143.3700 N   0  0  0  0  0  2  0  0  0  0  0  0
  195.7950  169.2170  144.7950 N   0  0  0  0  0  0  0  0  0  0  0  0
  197.1860  168.3370  146.9940 N   0  0  0  0  0  0  0  0  0  0  0  0
  195.1690  169.3680  146.1120 C   0  0  1  0  0  3  0  0  0  0  0  0
  197.9410  168.8970  145.8870 C   0  0  0  0  0  2  0  0  0  0  0  0
  197.0750  169.0040  144.6630 C   0  0  0  0  0  0  0  0  0  0  0  0
  195.9190  168.5440  147.1310 C   0  0  0  0  0  3  0  0  0  0  0  0
  195.1720  170.8370  146.5150 C   0  0  0  0  0  2  0  0  0  0  0  0
  193.2440  173.1090  144.4520 C   0  0  0  0  0  2  0  0  0  0  0  0
  193.4910  171.8590  145.2540 C   0  0  0  0  0  2  0  0  0  0  0  0
  195.6200  173.2650  145.7090 S   0  0  0  0  0  0  0  0  0  0  0  0
  194.9270  171.6760  145.3540 N   0  0  0  0  0  0  0  0  0  0  0  0
  194.2110  174.1540  144.9660 C   0  0  2  0  0  3  0  0  0  0  0  0
  193.5320  175.0520  146.0080 C   0  0  2  0  0  3  0  0  0  0  0  0
  194.5180  175.8290  146.7510 N   0  0  0  0  0  2  0  0  0  0  0  0
  194.5300  177.1620  146.1740 C   0  0  0  0  0  1  0  0  0  0  0  0
  192.6760  174.2930  146.9280 N   0  0  0  0  0  2  0  0  0  0  0  0
  191.7310  175.1800  147.6040 C   0  0  0  0  0  2  0  0  0  0  0  0
  190.5420  175.4590  146.7020 C   0  0  0  0  0  2  0  0  0  0  0  0
  189.5130  174.3500  146.8230 C   0  0  0  0  0  1  0  0  0  0  0  0
  2  1  1  0  0  0  0
  3  5  2  0  0  0  0
  4  7  1  0  0  0  0
  4  8  1  0  0  0  0
  5  2  1  0  0  0  0
  6  8  2  0  0  0  0
  6 37  1  0  0  0  0
  7  9  1  0  0  0  0
  8  5  1  0  0  0  0
  9 11  1  1  0  0  0
  9  1  1  0  0  0  0
 10  4  2  0  0  0  0
 11 12  2  0  0  0  0
 12 26  1  0  0  0  0
 14 13  2  0  0  0  0
 14 11  1  0  0  0  0
 15 13  1  6  0  0  0
 15 12  1  0  0  0  0
 15 17  1  0  0  0  0
 16 20  1  0  0  0  0
 17 16  1  6  0  0  0
 17 19  1  0  0  0  0
 19 23  1  0  0  0  0
 20 22  1  0  0  0  0
 22 23  1  0  0  0  0
 23 18  2  1  0  0  0
 23 21  1  0  0  0  0
 24 26  2  0  0  0  0
 25 29  1  0  0  0  0
 25 24  2  0  0  0  0
 28 29  2  0  0  0  0
 29 27  1  0  0  0  0
 30 25  1  0  0  0  0
 31 30  1  0  0  0  0
 32 31  1  0  0  0  0
 33 32  1  0  0  0  0
 36 34  1  1  0  0  0
 36 35  1  0  0  0  0
 36 33  1  0  0  0  0
 38 37  1  1  0  0  0
 38 43  1  0  0  0  0
 39 41  1  0  0  0  0
 39 38  1  0  0  0  0
 40 42  1  0  0  0  0
 40 43  1  0  0  0  0
 41 40  2  0  0  0  0
 42 44  1  0  0  0  0
 44 49  1  0  0  0  0
 45 47  1  0  0  0  0
 46 50  2  0  0  0  0
 47 51  1  1  0  0  0
 47 50  1  0  0  0  0
 48 46  1  0  0  0  0
 49 45  2  0  0  0  0
 49 48  1  0  0  0  0
 52 56  1  0  0  0  0
 52 53  1  0  0  0  0
 53 55  1  0  0  0  0
 55 54  1  0  0  0  0
 55 51  1  0  0  0  0
 56 54  1  0  0  0  0
 56 57  1  1  0  0  0
 57 58  1  1  0  0  0
 57 60  1  0  0  0  0
 59 58  1  0  0  0  0
 60 61  1  0  0  0  0
 62 63  1  0  0  0  0
 62 61  1  0  0  0  0
M  END
>  <MODEL>
5

>  <REMARK>
 VINA RESULT:      -4.9      3.423      7.355
  Name = 
  19 active torsions:
  status: ('A' for Active; 'I' for Inactive)
    1  A    between atoms: C_3  and  C_5
    2  A    between atoms: C_3  and  N_59
    3  A    between atoms: C_7  and  C_53
    4  A    between atoms: C_8  and  C_16
    5  A    between atoms: C_8  and  C_55
    6  A    between atoms: C_9  and  C_19
    7  A    between atoms: C_10  and  N_40
    8  A    between atoms: C_10  and  C_46
    9  A    between atoms: C_14  and  C_48
   10  A    between atoms: C_16  and  C_25
   11  A    between atoms: N_17  and  C_47
   12  A    between atoms: C_18  and  C_44
   13  A    between atoms: C_18  and  C_56
   14  A    between atoms: C_25  and  C_56
   15  A    between atoms: C_28  and  C_33
   16  A    between atoms: N_31  and  N_54
   17  A    between atoms: C_33  and  N_39
   18  A    between atoms: C_47  and  N_59
   19  A    between atoms: C_47  and  C_63
                            x       y       z     vdW  Elec       q    Type
                         _______ _______ _______ _____ _____    ______ ____

>  <TORSDO>
F 19

$$$$
=
 OpenBabel11042415273D

 63 68  0  0  1  0  0  0  0  0999 V2000
  189.6130  173.4300  143.3900 C   0  0  0  0  0  2  0  0  0  0  0  0
  189.4100  172.1360  142.7750 N   0  0  0  0  0  2  0  0  0  0  0  0
  190.0720  169.9730  142.3320 O   0  0  0  0  0  0  0  0  0  0  0  0
  192.1910  172.1310  144.3910 C   0  0  0  0  0  0  0  0  0  0  0  0
  190.4050  171.1150  142.7500 C   0  0  0  0  0  0  0  0  0  0  0  0
  192.8010  170.8130  142.5030 N   0  0  0  0  0  0  0  0  0  0  0  0
  191.3090  173.0200  145.0920 N   0  0  0  0  0  2  0  0  0  0  0  0
  191.8190  171.3530  143.1710 C   0  0  0  0  0  0  0  0  0  0  0  0
  189.8880  173.2080  144.8600 C   0  0  1  0  0  3  0  0  0  0  0  0
  193.3690  172.0240  144.8260 O   0  0  0  0  0  0  0  0  0  0  0  0
  189.3730  174.3560  145.6700 C   0  0  0  0  0  0  0  0  0  0  0  0
  189.4970  175.6340  145.3330 C   0  0  0  0  0  0  0  0  0  0  0  0
  188.7080  175.6000  147.5900 C   0  0  0  0  0  3  0  0  0  0  0  0
  188.7900  174.1860  147.0280 C   0  0  0  0  0  3  0  0  0  0  0  0
  189.0880  176.5400  146.4470 C   0  0  2  0  0  3  0  0  0  0  0  0
  187.0380  177.8300  147.3150 C   0  0  0  0  0  2  0  0  0  0  0  0
  187.9120  177.4660  146.0930 C   0  0  2  0  0  3  0  0  0  0  0  0
  186.5720  178.9200  143.1050 O   0  0  0  0  0  0  0  0  0  0  0  0
  187.1040  176.9300  144.9150 C   0  0  0  0  0  2  0  0  0  0  0  0
  185.7440  178.6030  146.9900 C   0  0  0  0  0  2  0  0  0  0  0  0
  184.4850  177.5650  143.9450 O   0  0  0  0  0  1  0  0  0  0  0  0
  185.8250  179.4070  145.6980 C   0  0  0  0  0  2  0  0  0  0  0  0
  185.9930  178.2320  144.3220 P   0  0  2  0  0  0  0  0  0  0  0  0
  191.3820  176.3750  143.9390 C   0  0  0  0  0  0  0  0  0  0  0  0
  192.6590  176.5540  143.7230 C   0  0  0  0  0  0  0  0  0  0  0  0
  190.1010  176.1610  144.0920 C   0  0  0  0  0  3  0  0  0  0  0  0
  194.5790  176.3880  142.1470 O   0  0  0  0  0  1  0  0  0  0  0  0
  192.6640  175.1950  141.7660 O   0  0  0  0  0  0  0  0  0  0  0  0
  193.2860  176.0120  142.4980 C   0  0  0  0  0  0  0  0  0  0  0  0
  193.5020  177.1850  144.7810 C   0  0  0  0  0  2  0  0  0  0  0  0
  193.4650  176.3650  146.0550 C   0  0  0  0  0  2  0  0  0  0  0  0
  194.8590  175.8640  146.3690 C   0  0  0  0  0  2  0  0  0  0  0  0
  195.0380  174.4740  145.7770 C   0  0  0  0  0  2  0  0  0  0  0  0
  197.2680  173.3530  145.8510 C   0  0  0  0  0  1  0  0  0  0  0  0
  196.2240  173.9130  143.7950 O   0  0  0  0  0  1  0  0  0  0  0  0
  196.3980  174.3490  145.1050 C   0  0  1  0  0  3  0  0  0  0  0  0
  192.6540  170.0610  141.2620 C   0  0  0  0  0  2  0  0  0  0  0  0
  193.1270  170.8930  140.0870 C   0  0  2  0  0  3  0  0  0  0  0  0
  192.0690  171.9410  139.7640 C   0  0  0  0  0  2  0  0  0  0  0  0
  192.5300  171.0970  137.6640 C   0  0  0  0  0  0  0  0  0  0  0  0
  191.9920  172.0650  138.3200 N   0  0  0  0  0  0  0  0  0  0  0  0
  192.5350  171.0940  136.2380 N   0  0  0  0  0  2  0  0  0  0  0  0
  193.3170  169.8220  138.6240 S   0  0  0  0  0  0  0  0  0  0  0  0
  193.0470  170.0000  135.5250 N   0  0  0  0  0  2  0  0  0  0  0  0
  195.3020  170.6310  135.9100 N   0  0  0  0  0  0  0  0  0  0  0  0
  196.2390  168.2000  135.0390 N   0  0  0  0  0  0  0  0  0  0  0  0
  196.7490  170.4720  135.7380 C   0  0  1  0  0  3  0  0  0  0  0  0
  194.9530  168.6560  134.5400 C   0  0  0  0  0  2  0  0  0  0  0  0
  194.4500  169.8090  135.3630 C   0  0  0  0  0  0  0  0  0  0  0  0
  197.0860  169.0080  135.5820 C   0  0  0  0  0  3  0  0  0  0  0  0
  197.2070  171.2530  134.5130 C   0  0  0  0  0  2  0  0  0  0  0  0
  197.4140  174.7640  135.3900 C   0  0  0  0  0  2  0  0  0  0  0  0
  197.0400  173.5840  134.5320 C   0  0  0  0  0  2  0  0  0  0  0  0
  197.9410  172.4650  136.6900 S   0  0  0  0  0  0  0  0  0  0  0  0
  197.8870  172.4710  134.9210 N   0  0  0  0  0  0  0  0  0  0  0  0
  197.5570  174.2440  136.8050 C   0  0  2  0  0  3  0  0  0  0  0  0
  196.2610  174.4650  137.5960 C   0  0  2  0  0  3  0  0  0  0  0  0
  196.4860  174.2950  139.0270 N   0  0  0  0  0  2  0  0  0  0  0  0
  195.9610  175.4810  139.6820 C   0  0  0  0  0  1  0  0  0  0  0  0
  195.1720  173.5920  137.1380 N   0  0  0  0  0  2  0  0  0  0  0  0
  193.9640  174.3710  136.8760 C   0  0  0  0  0  2  0  0  0  0  0  0
  194.3330  175.7920  136.4890 C   0  0  0  0  0  2  0  0  0  0  0  0
  193.9820  176.0530  135.0350 C   0  0  0  0  0  1  0  0  0  0  0  0
  1  9  1  0  0  0  0
  2  1  1  0  0  0  0
  3  5  2  0  0  0  0
  4 10  2  0  0  0  0
  4  7  1  0  0  0  0
  5  2  1  0  0  0  0
  5  8  1  0  0  0  0
  6  8  2  0  0  0  0
  8  4  1  0  0  0  0
  9  7  1  0  0  0  0
  9 11  1  1  0  0  0
 11 14  1  0  0  0  0
 12 11  2  0  0  0  0
 12 15  1  0  0  0  0
 14 13  2  0  0  0  0
 15 13  1  1  0  0  0
 17 19  1  6  0  0  0
 17 15  1  0  0  0  0
 17 16  1  0  0  0  0
 20 16  1  0  0  0  0
 21 23  1  0  0  0  0
 22 20  1  0  0  0  0
 23 18  2  6  0  0  0
 23 19  1  0  0  0  0
 23 22  1  0  0  0  0
 24 26  2  0  0  0  0
 25 24  2  0  0  0  0
 25 30  1  0  0  0  0
 26 12  1  0  0  0  0
 27 29  1  0  0  0  0
 28 29  2  0  0  0  0
 29 25  1  0  0  0  0
 30 31  1  0  0  0  0
 31 32  1  0  0  0  0
 33 32  1  0  0  0  0
 35 36  1  0  0  0  0
 36 33  1  0  0  0  0
 36 34  1  1  0  0  0
 37  6  1  0  0  0  0
 38 37  1  1  0  0  0
 39 38  1  0  0  0  0
 40 41  2  0  0  0  0
 40 43  1  0  0  0  0
 41 39  1  0  0  0  0
 42 40  1  0  0  0  0
 43 38  1  0  0  0  0
 44 42  1  0  0  0  0
 46 50  2  0  0  0  0
 47 51  1  6  0  0  0
 47 45  1  0  0  0  0
 48 46  1  0  0  0  0
 48 49  1  0  0  0  0
 49 44  1  0  0  0  0
 49 45  2  0  0  0  0
 50 47  1  0  0  0  0
 51 55  1  0  0  0  0
 52 56  1  0  0  0  0
 53 55  1  0  0  0  0
 53 52  1  0  0  0  0
 54 56  1  0  0  0  0
 55 54  1  0  0  0  0
 56 57  1  1  0  0  0
 57 60  1  6  0  0  0
 57 58  1  0  0  0  0
 58 59  1  0  0  0  0
 61 60  1  0  0  0  0
 62 61  1  0  0  0  0
 63 62  1  0  0  0  0
M  END
>  <MODEL>
6

>  <REMARK>
 VINA RESULT:      -4.8      2.269      4.317
  Name = 
  19 active torsions:
  status: ('A' for Active; 'I' for Inactive)
    1  A    between atoms: C_3  and  C_5
    2  A    between atoms: C_3  and  N_59
    3  A    between atoms: C_7  and  C_53
    4  A    between atoms: C_8  and  C_16
    5  A    between atoms: C_8  and  C_55
    6  A    between atoms: C_9  and  C_19
    7  A    between atoms: C_10  and  N_40
    8  A    between atoms: C_10  and  C_46
    9  A    between atoms: C_14  and  C_48
   10  A    between atoms: C_16  and  C_25
   11  A    between atoms: N_17  and  C_47
   12  A    between atoms: C_18  and  C_44
   13  A    between atoms: C_18  and  C_56
   14  A    between atoms: C_25  and  C_56
   15  A    between atoms: C_28  and  C_33
   16  A    between atoms: N_31  and  N_54
   17  A    between atoms: C_33  and  N_39
   18  A    between atoms: C_47  and  N_59
   19  A    between atoms: C_47  and  C_63
                            x       y       z     vdW  Elec       q    Type
                         _______ _______ _______ _____ _____    ______ ____

>  <TORSDO>
F 19

$$$$
=
 OpenBabel11042415273D

 63 68  0  0  1  0  0  0  0  0999 V2000
  192.5480  175.5190  142.6680 C   0  0  0  0  0  2  0  0  0  0  0  0
  193.2480  174.2700  142.8730 N   0  0  0  0  0  2  0  0  0  0  0  0
  194.6400  172.9020  144.0990 O   0  0  0  0  0  0  0  0  0  0  0  0
  193.8700  176.2630  145.3200 C   0  0  0  0  0  0  0  0  0  0  0  0
  194.2080  174.0700  143.9090 C   0  0  0  0  0  0  0  0  0  0  0  0
  195.9980  175.2210  145.0770 N   0  0  0  0  0  0  0  0  0  0  0  0
  192.5420  176.5670  144.8690 N   0  0  0  0  0  2  0  0  0  0  0  0
  194.7360  175.1880  144.7490 C   0  0  0  0  0  0  0  0  0  0  0  0
  191.7470  175.8140  143.9160 C   0  0  1  0  0  3  0  0  0  0  0  0
  194.3430  176.9760  146.2460 O   0  0  0  0  0  0  0  0  0  0  0  0
  190.4950  176.5600  143.5730 C   0  0  0  0  0  0  0  0  0  0  0  0
  189.2800  176.0260  143.5490 C   0  0  0  0  0  0  0  0  0  0  0  0
  189.0890  178.1940  142.5580 C   0  0  0  0  0  3  0  0  0  0  0  0
  190.5040  177.9610  143.0730 C   0  0  0  0  0  3  0  0  0  0  0  0
  188.2800  176.9590  142.9530 C   0  0  2  0  0  3  0  0  0  0  0  0
  186.2170  178.4460  143.3460 C   0  0  0  0  0  2  0  0  0  0  0  0
  187.1400  177.3420  143.9110 C   0  0  2  0  0  3  0  0  0  0  0  0
  186.1270  176.4230  147.2230 O   0  0  0  0  0  0  0  0  0  0  0  0
  187.6600  177.6540  145.3120 C   0  0  0  0  0  2  0  0  0  0  0  0
  185.1710  178.9980  144.3360 C   0  0  0  0  0  2  0  0  0  0  0  0
  186.4700  179.0080  147.5370 O   0  0  0  0  0  1  0  0  0  0  0  0
  184.7890  178.0090  145.4310 C   0  0  0  0  0  2  0  0  0  0  0  0
  186.2590  177.7220  146.4580 P   0  0  2  0  0  0  0  0  0  0  0  0
  189.6850  173.6030  143.6590 C   0  0  0  0  0  0  0  0  0  0  0  0
  190.4370  172.5480  143.4820 C   0  0  0  0  0  0  0  0  0  0  0  0
  188.9240  174.6370  143.9050 C   0  0  0  0  0  3  0  0  0  0  0  0
  191.8670  170.8960  144.6740 O   0  0  0  0  0  0  0  0  0  0  0  0
  189.8130  171.4610  145.5080 O   0  0  0  0  0  1  0  0  0  0  0  0
  190.6760  171.6120  144.6010 C   0  0  0  0  0  0  0  0  0  0  0  0
  191.1590  172.3700  142.1870 C   0  0  0  0  0  2  0  0  0  0  0  0
  190.4070  171.4170  141.2810 C   0  0  0  0  0  2  0  0  0  0  0  0
  191.1180  170.0800  141.2580 C   0  0  0  0  0  2  0  0  0  0  0  0
  191.5810  169.7810  139.8400 C   0  0  0  0  0  2  0  0  0  0  0  0
  193.6550  169.0780  141.0410 C   0  0  0  0  0  1  0  0  0  0  0  0
  193.4770  168.9420  138.6780 O   0  0  0  0  0  1  0  0  0  0  0  0
  193.1000  169.7090  139.7760 C   0  0  1  0  0  3  0  0  0  0  0  0
  197.0140  174.2960  144.5870 C   0  0  0  0  0  2  0  0  0  0  0  0
  197.7170  174.8840  143.3810 C   0  0  2  0  0  3  0  0  0  0  0  0
  196.9640  176.1260  142.9240 C   0  0  0  0  0  2  0  0  0  0  0  0
  197.2710  175.0190  140.9210 C   0  0  0  0  0  0  0  0  0  0  0  0
  196.9690  176.1410  141.4730 N   0  0  0  0  0  0  0  0  0  0  0  0
  197.3240  174.8930  139.5010 N   0  0  0  0  0  0  0  0  0  0  0  0
  197.6850  173.6770  142.0140 S   0  0  0  0  0  0  0  0  0  0  0  0
  197.5720  173.6500  138.9010 N   0  0  0  0  0  0  0  0  0  0  0  0
  196.8930  174.3990  136.7540 N   0  0  0  0  0  0  0  0  0  0  0  0
  197.9410  172.1730  135.5320 N   0  0  0  0  0  0  0  0  0  0  0  0
  196.6050  174.1940  135.3320 C   0  0  1  0  0  3  0  0  0  0  0  0
  197.5460  172.0660  136.9250 C   0  0  0  0  0  2  0  0  0  0  0  0
  197.3230  173.4310  137.5150 C   0  0  0  0  0  0  0  0  0  0  0  0
  197.5190  173.1290  134.7740 C   0  0  0  0  0  3  0  0  0  0  0  0
  195.1480  173.7830  135.1580 C   0  0  0  0  0  2  0  0  0  0  0  0
  191.9450  175.3510  135.8100 C   0  0  0  0  0  2  0  0  0  0  0  0
  193.0070  174.6980  134.9640 C   0  0  0  0  0  2  0  0  0  0  0  0
  193.9480  174.4430  137.3650 S   0  0  0  0  0  0  0  0  0  0  0  0
  194.2700  174.8230  135.6670 N   0  0  0  0  0  0  0  0  0  0  0  0
  192.1870  174.8980  137.2340 C   0  0  2  0  0  3  0  0  0  0  0  0
  191.2940  173.6980  137.5780 C   0  0  2  0  0  3  0  0  0  0  0  0
  190.5160  173.9530  138.7840 N   0  0  0  0  0  2  0  0  0  0  0  0
  189.1320  173.6420  138.4700 C   0  0  0  0  0  1  0  0  0  0  0  0
  192.0600  172.4520  137.7130 N   0  0  0  0  0  2  0  0  0  0  0  0
  191.5870  171.4500  136.7610 C   0  0  0  0  0  2  0  0  0  0  0  0
  192.7600  170.6560  136.2130 C   0  0  0  0  0  2  0  0  0  0  0  0
  192.5500  170.3490  134.7410 C   0  0  0  0  0  1  0  0  0  0  0  0
  1  2  1  0  0  0  0
  1  9  1  0  0  0  0
  2  5  1  0  0  0  0
  4 10  2  0  0  0  0
  5  3  2  0  0  0  0
  5  8  1  0  0  0  0
  7  4  1  0  0  0  0
  8  6  2  0  0  0  0
  8  4  1  0  0  0  0
  9 11  1  6  0  0  0
  9  7  1  0  0  0  0
 12 11  2  0  0  0  0
 12 26  1  0  0  0  0
 13 14  2  0  0  0  0
 14 11  1  0  0  0  0
 15 13  1  1  0  0  0
 15 12  1  0  0  0  0
 15 17  1  0  0  0  0
 16 20  1  0  0  0  0
 17 16  1  6  0  0  0
 17 19  1  0  0  0  0
 19 23  1  0  0  0  0
 20 22  1  0  0  0  0
 22 23  1  0  0  0  0
 23 18  2  1  0  0  0
 23 21  1  0  0  0  0
 24 26  2  0  0  0  0
 25 24  2  0  0  0  0
 25 29  1  0  0  0  0
 29 27  2  0  0  0  0
 29 28  1  0  0  0  0
 30 25  1  0  0  0  0
 31 30  1  0  0  0  0
 32 31  1  0  0  0  0
 33 32  1  0  0  0  0
 35 36  1  0  0  0  0
 36 33  1  0  0  0  0
 36 34  1  1  0  0  0
 37  6  1  0  0  0  0
 38 37  1  1  0  0  0
 39 38  1  0  0  0  0
 40 41  2  0  0  0  0
 40 43  1  0  0  0  0
 41 39  1  0  0  0  0
 42 40  1  0  0  0  0
 43 38  1  0  0  0  0
 44 42  2  0  0  0  0
 45 49  2  0  0  0  0
 46 48  1  0  0  0  0
 47 51  1  1  0  0  0
 47 45  1  0  0  0  0
 48 49  1  0  0  0  0
 49 44  1  0  0  0  0
 50 47  1  0  0  0  0
 50 46  2  0  0  0  0
 51 55  1  0  0  0  0
 52 56  1  0  0  0  0
 53 55  1  0  0  0  0
 53 52  1  0  0  0  0
 55 54  1  0  0  0  0
 56 54  1  0  0  0  0
 56 57  1  6  0  0  0
 57 60  1  1  0  0  0
 57 58  1  0  0  0  0
 59 58  1  0  0  0  0
 61 60  1  0  0  0  0
 62 61  1  0  0  0  0
 63 62  1  0  0  0  0
M  END
>  <MODEL>
7

>  <REMARK>
 VINA RESULT:      -4.8      2.435      4.514
  Name = 
  19 active torsions:
  status: ('A' for Active; 'I' for Inactive)
    1  A    between atoms: C_3  and  C_5
    2  A    between atoms: C_3  and  N_59
    3  A    between atoms: C_7  and  C_53
    4  A    between atoms: C_8  and  C_16
    5  A    between atoms: C_8  and  C_55
    6  A    between atoms: C_9  and  C_19
    7  A    between atoms: C_10  and  N_40
    8  A    between atoms: C_10  and  C_46
    9  A    between atoms: C_14  and  C_48
   10  A    between atoms: C_16  and  C_25
   11  A    between atoms: N_17  and  C_47
   12  A    between atoms: C_18  and  C_44
   13  A    between atoms: C_18  and  C_56
   14  A    between atoms: C_25  and  C_56
   15  A    between atoms: C_28  and  C_33
   16  A    between atoms: N_31  and  N_54
   17  A    between atoms: C_33  and  N_39
   18  A    between atoms: C_47  and  N_59
   19  A    between atoms: C_47  and  C_63
                            x       y       z     vdW  Elec       q    Type
                         _______ _______ _______ _____ _____    ______ ____

>  <TORSDO>
F 19

$$$$
=
 OpenBabel11042415273D

 63 68  0  0  1  0  0  0  0  0999 V2000
  187.1930  176.0550  145.5400 C   0  0  0  0  0  2  0  0  0  0  0  0
  188.0390  175.4810  146.5630 N   0  0  0  0  0  2  0  0  0  0  0  0
  190.0560  175.3040  147.6650 O   0  0  0  0  0  0  0  0  0  0  0  0
  189.7170  177.6420  144.8720 C   0  0  0  0  0  0  0  0  0  0  0  0
  189.4430  175.7200  146.6460 C   0  0  0  0  0  0  0  0  0  0  0  0
  191.4010  175.9970  145.2380 N   0  0  0  0  0  0  0  0  0  0  0  0
  188.3550  178.0930  144.8810 N   0  0  0  0  0  2  0  0  0  0  0  0
  190.2100  176.4150  145.5670 C   0  0  0  0  0  0  0  0  0  0  0  0
  187.2590  177.5590  145.6700 C   0  0  1  0  0  3  0  0  0  0  0  0
  190.5460  178.3190  144.2060 O   0  0  0  0  0  0  0  0  0  0  0  0
  185.9630  178.1800  145.2540 C   0  0  0  0  0  0  0  0  0  0  0  0
  185.7240  178.6980  144.0560 C   0  0  0  0  0  0  0  0  0  0  0  0
  183.8880  179.3350  145.4500 C   0  0  0  0  0  3  0  0  0  0  0  0
  184.8420  178.4170  146.2040 C   0  0  0  0  0  3  0  0  0  0  0  0
  184.4290  179.4400  144.0250 C   0  0  2  0  0  3  0  0  0  0  0  0
  184.0550  178.4780  141.6680 C   0  0  0  0  0  2  0  0  0  0  0  0
  183.4140  178.8740  143.0170 C   0  0  2  0  0  3  0  0  0  0  0  0
  179.8700  178.3500  142.9340 O   0  0  0  0  0  1  0  0  0  0  0  0
  182.2020  179.7890  142.8610 C   0  0  0  0  0  2  0  0  0  0  0  0
  183.0590  178.0790  140.5600 C   0  0  0  0  0  2  0  0  0  0  0  0
  180.1590  179.9330  140.8590 O   0  0  0  0  0  0  0  0  0  0  0  0
  181.7370  177.5420  141.0950 C   0  0  0  0  0  2  0  0  0  0  0  0
  180.9010  178.8970  141.9720 P   0  0  2  0  0  0  0  0  0  0  0  0
  186.9280  177.6560  142.1830 C   0  0  0  0  0  0  0  0  0  0  0  0
  187.1950  176.6420  141.4020 C   0  0  0  0  0  0  0  0  0  0  0  0
  186.6480  178.7100  142.9040 C   0  0  0  0  0  3  0  0  0  0  0  0
  187.4410  175.7320  139.0990 O   0  0  0  0  0  0  0  0  0  0  0  0
  186.7210  177.8790  139.4220 O   0  0  0  0  0  1  0  0  0  0  0  0
  187.1080  176.7930  139.9340 C   0  0  0  0  0  0  0  0  0  0  0  0
  187.4520  175.3000  142.0040 C   0  0  0  0  0  2  0  0  0  0  0  0
  188.9320  175.1030  142.2620 C   0  0  0  0  0  2  0  0  0  0  0  0
  189.2960  173.6550  142.0110 C   0  0  0  0  0  2  0  0  0  0  0  0
  190.5320  173.2990  142.8240 C   0  0  0  0  0  2  0  0  0  0  0  0
  191.5850  171.3330  143.9470 C   0  0  0  0  0  1  0  0  0  0  0  0
  189.6950  172.4300  144.8720 O   0  0  0  0  0  1  0  0  0  0  0  0
  190.2800  172.0560  143.6660 C   0  0  1  0  0  3  0  0  0  0  0  0
  192.0400  174.7950  145.7620 C   0  0  0  0  0  2  0  0  0  0  0  0
  193.5380  175.0000  145.8560 C   0  0  2  0  0  3  0  0  0  0  0  0
  193.9510  176.1010  144.8890 C   0  0  0  0  0  2  0  0  0  0  0  0
  195.5250  174.4760  144.4250 C   0  0  0  0  0  0  0  0  0  0  0  0
  195.2170  175.7190  144.2930 N   0  0  0  0  0  0  0  0  0  0  0  0
  196.7460  173.9650  143.8950 N   0  0  0  0  0  2  0  0  0  0  0  0
  194.3910  173.4680  145.3550 S   0  0  0  0  0  0  0  0  0  0  0  0
  197.0410  172.5960  143.9670 N   0  0  0  0  0  2  0  0  0  0  0  0
  195.9040  172.1070  141.9430 N   0  0  0  0  0  0  0  0  0  0  0  0
  196.9960  169.5880  141.8180 N   0  0  0  0  0  0  0  0  0  0  0  0
  195.3990  171.1860  140.9190 C   0  0  1  0  0  3  0  0  0  0  0  0
  196.8680  170.2150  143.1220 C   0  0  0  0  0  2  0  0  0  0  0  0
  196.5810  171.6830  142.9730 C   0  0  0  0  0  0  0  0  0  0  0  0
  196.3280  170.0030  140.7930 C   0  0  0  0  0  3  0  0  0  0  0  0
  193.9980  170.7200  141.2970 C   0  0  0  0  0  2  0  0  0  0  0  0
  191.1370  170.3370  139.1050 C   0  0  0  0  0  2  0  0  0  0  0  0
  191.8770  170.2920  140.4160 C   0  0  0  0  0  2  0  0  0  0  0  0
  193.5920  171.4080  138.8250 S   0  0  0  0  0  0  0  0  0  0  0  0
  193.2970  170.2370  140.1200 N   0  0  0  0  0  0  0  0  0  0  0  0
  191.8710  171.3270  138.2260 C   0  0  2  0  0  3  0  0  0  0  0  0
  191.2100  172.7090  138.3000 C   0  0  2  0  0  3  0  0  0  0  0  0
  190.3270  172.9280  137.1590 N   0  0  0  0  0  2  0  0  0  0  0  0
  188.9740  173.0160  137.6810 C   0  0  0  0  0  1  0  0  0  0  0  0
  192.1930  173.7940  138.4050 N   0  0  0  0  0  2  0  0  0  0  0  0
  192.2660  174.5460  137.1540 C   0  0  0  0  0  2  0  0  0  0  0  0
  193.5960  175.2740  137.0610 C   0  0  0  0  0  2  0  0  0  0  0  0
  194.3480  175.1750  138.3750 C   0  0  0  0  0  1  0  0  0  0  0  0
  1  9  1  0  0  0  0
  1  2  1  0  0  0  0
  2  5  1  0  0  0  0
  4  7  1  0  0  0  0
  4  8  1  0  0  0  0
  5  3  2  0  0  0  0
  6  8  2  0  0  0  0
  6 37  1  0  0  0  0
  7  9  1  0  0  0  0
  8  5  1  0  0  0  0
  9 11  1  6  0  0  0
 10  4  2  0  0  0  0
 11 14  1  0  0  0  0
 12 11  2  0  0  0  0
 13 14  2  0  0  0  0
 15 12  1  0  0  0  0
 15 13  1  1  0  0  0
 17 16  1  6  0  0  0
 17 15  1  0  0  0  0
 19 17  1  0  0  0  0
 20 22  1  0  0  0  0
 20 16  1  0  0  0  0
 22 23  1  0  0  0  0
 23 21  2  6  0  0  0
 23 19  1  0  0  0  0
 23 18  1  0  0  0  0
 24 26  2  0  0  0  0
 25 30  1  0  0  0  0
 25 24  2  0  0  0  0
 26 12  1  0  0  0  0
 27 29  2  0  0  0  0
 28 29  1  0  0  0  0
 29 25  1  0  0  0  0
 30 31  1  0  0  0  0
 32 31  1  0  0  0  0
 32 33  1  0  0  0  0
 33 36  1  0  0  0  0
 36 34  1  1  0  0  0
 36 35  1  0  0  0  0
 38 37  1  6  0  0  0
 39 38  1  0  0  0  0
 40 43  1  0  0  0  0
 41 40  2  0  0  0  0
 41 39  1  0  0  0  0
 42 44  1  0  0  0  0
 42 40  1  0  0  0  0
 43 38  1  0  0  0  0
 45 49  2  0  0  0  0
 46 48  1  0  0  0  0
 47 51  1  1  0  0  0
 47 45  1  0  0  0  0
 49 48  1  0  0  0  0
 49 44  1  0  0  0  0
 50 47  1  0  0  0  0
 50 46  2  0  0  0  0
 52 53  1  0  0  0  0
 54 55  1  0  0  0  0
 55 53  1  0  0  0  0
 55 51  1  0  0  0  0
 56 57  1  1  0  0  0
 56 54  1  0  0  0  0
 56 52  1  0  0  0  0
 57 58  1  6  0  0  0
 57 60  1  0  0  0  0
 58 59  1  0  0  0  0
 61 60  1  0  0  0  0
 62 61  1  0  0  0  0
 62 63  1  0  0  0  0
M  END
>  <MODEL>
8

>  <REMARK>
 VINA RESULT:      -4.8      3.233      6.070
  Name = 
  19 active torsions:
  status: ('A' for Active; 'I' for Inactive)
    1  A    between atoms: C_3  and  C_5
    2  A    between atoms: C_3  and  N_59
    3  A    between atoms: C_7  and  C_53
    4  A    between atoms: C_8  and  C_16
    5  A    between atoms: C_8  and  C_55
    6  A    between atoms: C_9  and  C_19
    7  A    between atoms: C_10  and  N_40
    8  A    between atoms: C_10  and  C_46
    9  A    between atoms: C_14  and  C_48
   10  A    between atoms: C_16  and  C_25
   11  A    between atoms: N_17  and  C_47
   12  A    between atoms: C_18  and  C_44
   13  A    between atoms: C_18  and  C_56
   14  A    between atoms: C_25  and  C_56
   15  A    between atoms: C_28  and  C_33
   16  A    between atoms: N_31  and  N_54
   17  A    between atoms: C_33  and  N_39
   18  A    between atoms: C_47  and  N_59
   19  A    between atoms: C_47  and  C_63
                            x       y       z     vdW  Elec       q    Type
                         _______ _______ _______ _____ _____    ______ ____

>  <TORSDO>
F 19

$$$$
=
 OpenBabel11042415273D

 63 68  0  0  1  0  0  0  0  0999 V2000
  189.5960  171.6110  137.4690 C   0  0  0  0  0  2  0  0  0  0  0  0
  188.7030  172.7500  137.4610 N   0  0  0  0  0  2  0  0  0  0  0  0
  187.9890  174.7740  138.3010 O   0  0  0  0  0  0  0  0  0  0  0  0
  190.8520  173.0880  139.8300 C   0  0  0  0  0  0  0  0  0  0  0  0
  188.6910  173.7440  138.4840 C   0  0  0  0  0  0  0  0  0  0  0  0
  188.9170  173.9870  140.8890 N   0  0  0  0  0  0  0  0  0  0  0  0
  191.5080  172.3630  138.7800 N   0  0  0  0  0  2  0  0  0  0  0  0
  189.4500  173.5970  139.7630 C   0  0  0  0  0  0  0  0  0  0  0  0
  191.0140  172.1320  137.4340 C   0  0  1  0  0  3  0  0  0  0  0  0
  191.5030  173.2810  140.8920 O   0  0  0  0  0  0  0  0  0  0  0  0
  191.9070  171.1760  136.7050 C   0  0  0  0  0  0  0  0  0  0  0  0
  192.7360  171.5160  135.7250 C   0  0  0  0  0  0  0  0  0  0  0  0
  192.6690  169.1250  135.7630 C   0  0  0  0  0  3  0  0  0  0  0  0
  191.8470  169.7040  136.9080 C   0  0  0  0  0  3  0  0  0  0  0  0
  193.3140  170.3150  135.0530 C   0  0  2  0  0  3  0  0  0  0  0  0
  195.4190  168.9210  134.5540 C   0  0  0  0  0  2  0  0  0  0  0  0
  194.8470  170.2320  135.1410 C   0  0  2  0  0  3  0  0  0  0  0  0
  197.4740  172.2600  136.4930 O   0  0  0  0  0  0  0  0  0  0  0  0
  195.3490  170.5270  136.5520 C   0  0  0  0  0  2  0  0  0  0  0  0
  196.9280  168.7030  134.7820 C   0  0  0  0  0  2  0  0  0  0  0  0
  197.8640  170.0330  137.8300 O   0  0  0  0  0  1  0  0  0  0  0  0
  197.7100  169.9990  134.9600 C   0  0  0  0  0  2  0  0  0  0  0  0
  197.1420  170.7840  136.4970 P   0  0  2  0  0  0  0  0  0  0  0  0
  193.7210  173.7660  135.8250 C   0  0  0  0  0  0  0  0  0  0  0  0
  194.4960  174.6650  136.3740 C   0  0  0  0  0  0  0  0  0  0  0  0
  192.9800  172.8790  135.2140 C   0  0  0  0  0  3  0  0  0  0  0  0
  196.5490  174.6410  134.9660 O   0  0  0  0  0  0  0  0  0  0  0  0
  195.4570  176.6080  135.3850 O   0  0  0  0  0  1  0  0  0  0  0  0
  195.5160  175.3600  135.5610 C   0  0  0  0  0  0  0  0  0  0  0  0
  194.4370  174.8840  137.8500 C   0  0  0  0  0  2  0  0  0  0  0  0
  195.2830  173.8590  138.5780 C   0  0  0  0  0  2  0  0  0  0  0  0
  196.0410  174.5400  139.6980 C   0  0  0  0  0  2  0  0  0  0  0  0
  195.3520  174.2490  141.0220 C   0  0  0  0  0  2  0  0  0  0  0  0
  193.9630  176.0480  142.0570 C   0  0  0  0  0  1  0  0  0  0  0  0
  195.8450  175.1280  143.1750 O   0  0  0  0  0  1  0  0  0  0  0  0
  195.3650  175.4800  141.9160 C   0  0  1  0  0  3  0  0  0  0  0  0
  187.5490  174.4660  141.0440 C   0  0  0  0  0  2  0  0  0  0  0  0
  187.5390  175.7840  141.7920 C   0  0  2  0  0  3  0  0  0  0  0  0
  187.8070  176.9150  140.8080 C   0  0  0  0  0  2  0  0  0  0  0  0
  189.2530  177.4550  142.5260 C   0  0  0  0  0  0  0  0  0  0  0  0
  188.6620  177.8850  141.4670 N   0  0  0  0  0  0  0  0  0  0  0  0
  190.1150  178.3060  143.2790 N   0  0  0  0  0  2  0  0  0  0  0  0
  188.8790  175.7890  143.0280 S   0  0  0  0  0  0  0  0  0  0  0  0
  190.8220  177.8120  144.3850 N   0  0  0  0  0  2  0  0  0  0  0  0
  188.8560  177.0620  145.4790 N   0  0  0  0  0  0  0  0  0  0  0  0
  190.3030  175.6020  147.3020 N   0  0  0  0  0  0  0  0  0  0  0  0
  188.1380  176.4670  146.6110 C   0  0  1  0  0  3  0  0  0  0  0  0
  190.9440  176.7460  146.6790 C   0  0  0  0  0  2  0  0  0  0  0  0
  190.1510  177.2080  145.4870 C   0  0  0  0  0  0  0  0  0  0  0  0
  189.0210  175.4520  147.2980 C   0  0  0  0  0  3  0  0  0  0  0  0
  187.7300  177.5600  147.5900 C   0  0  0  0  0  2  0  0  0  0  0  0
  184.4410  179.0230  147.1610 C   0  0  0  0  0  2  0  0  0  0  0  0
  185.8870  178.9970  147.5820 C   0  0  0  0  0  2  0  0  0  0  0  0
  185.6160  176.7530  146.3140 S   0  0  0  0  0  0  0  0  0  0  0  0
  186.2830  177.6060  147.7140 N   0  0  0  0  0  0  0  0  0  0  0  0
  184.2860  177.9780  146.0770 C   0  0  2  0  0  3  0  0  0  0  0  0
  184.3880  178.6210  144.6880 C   0  0  2  0  0  3  0  0  0  0  0  0
  185.3700  179.6990  144.6820 N   0  0  0  0  0  2  0  0  0  0  0  0
  186.3590  179.3660  143.6700 C   0  0  0  0  0  1  0  0  0  0  0  0
  183.0900  179.1040  144.1990 N   0  0  0  0  0  2  0  0  0  0  0  0
  182.8780  178.6950  142.8120 C   0  0  0  0  0  2  0  0  0  0  0  0
  181.4550  179.0110  142.3870 C   0  0  0  0  0  2  0  0  0  0  0  0
  181.1620  178.4080  141.0260 C   0  0  0  0  0  1  0  0  0  0  0  0
  2  1  1  0  0  0  0
  2  5  1  0  0  0  0
  3  5  2  0  0  0  0
  4 10  2  0  0  0  0
  5  8  1  0  0  0  0
  6 37  1  0  0  0  0
  7  4  1  0  0  0  0
  8  4  1  0  0  0  0
  8  6  2  0  0  0  0
  9 11  1  1  0  0  0
  9  1  1  0  0  0  0
  9  7  1  0  0  0  0
 11 14  1  0  0  0  0
 12 11  2  0  0  0  0
 13 14  2  0  0  0  0
 15 17  1  0  0  0  0
 15 12  1  0  0  0  0
 15 13  1  1  0  0  0
 16 20  1  0  0  0  0
 17 16  1  1  0  0  0
 17 19  1  0  0  0  0
 20 22  1  0  0  0  0
 22 23  1  0  0  0  0
 23 18  2  6  0  0  0
 23 19  1  0  0  0  0
 23 21  1  0  0  0  0
 24 25  2  0  0  0  0
 25 30  1  0  0  0  0
 26 12  1  0  0  0  0
 26 24  2  0  0  0  0
 27 29  2  0  0  0  0
 28 29  1  0  0  0  0
 29 25  1  0  0  0  0
 30 31  1  0  0  0  0
 31 32  1  0  0  0  0
 32 33  1  0  0  0  0
 33 36  1  0  0  0  0
 36 34  1  1  0  0  0
 36 35  1  0  0  0  0
 38 37  1  6  0  0  0
 38 43  1  0  0  0  0
 39 41  1  0  0  0  0
 39 38  1  0  0  0  0
 40 43  1  0  0  0  0
 40 42  1  0  0  0  0
 41 40  2  0  0  0  0
 42 44  1  0  0  0  0
 44 49  1  0  0  0  0
 45 49  2  0  0  0  0
 45 47  1  0  0  0  0
 47 50  1  0  0  0  0
 47 51  1  1  0  0  0
 48 46  1  0  0  0  0
 49 48  1  0  0  0  0
 50 46  2  0  0  0  0
 51 55  1  0  0  0  0
 52 53  1  0  0  0  0
 53 55  1  0  0  0  0
 54 55  1  0  0  0  0
 56 57  1  6  0  0  0
 56 54  1  0  0  0  0
 56 52  1  0  0  0  0
 57 60  1  1  0  0  0
 58 57  1  0  0  0  0
 59 58  1  0  0  0  0
 61 60  1  0  0  0  0
 62 61  1  0  0  0  0
 63 62  1  0  0  0  0
M  END
>  <MODEL>
9

>  <REMARK>
 VINA RESULT:      -4.4      4.464     11.431
  Name = 
  19 active torsions:
  status: ('A' for Active; 'I' for Inactive)
    1  A    between atoms: C_3  and  C_5
    2  A    between atoms: C_3  and  N_59
    3  A    between atoms: C_7  and  C_53
    4  A    between atoms: C_8  and  C_16
    5  A    between atoms: C_8  and  C_55
    6  A    between atoms: C_9  and  C_19
    7  A    between atoms: C_10  and  N_40
    8  A    between atoms: C_10  and  C_46
    9  A    between atoms: C_14  and  C_48
   10  A    between atoms: C_16  and  C_25
   11  A    between atoms: N_17  and  C_47
   12  A    between atoms: C_18  and  C_44
   13  A    between atoms: C_18  and  C_56
   14  A    between atoms: C_25  and  C_56
   15  A    between atoms: C_28  and  C_33
   16  A    between atoms: N_31  and  N_54
   17  A    between atoms: C_33  and  N_39
   18  A    between atoms: C_47  and  N_59
   19  A    between atoms: C_47  and  C_63
                            x       y       z     vdW  Elec       q    Type
                         _______ _______ _______ _____ _____    ______ ____

>  <TORSDO>
F 19

$$$$
