=
 OpenBabel11042413483D

 25 28  0  0  1  0  0  0  0  0999 V2000
  187.0810  177.8820  144.0700 C   0  0  0  0  0  0  0  0  0  0  0  0
  186.4690  178.0170  142.8150 C   0  0  0  0  0  0  0  0  0  0  0  0
  189.1190  177.1360  142.7450 C   0  0  1  0  0  3  0  0  0  0  0  0
  184.3520  178.4950  143.8860 C   0  0  0  0  0  3  0  0  0  0  0  0
  187.2750  177.7950  141.6540 N   0  0  0  0  0  2  0  0  0  0  0  0
  188.6250  177.9730  141.7170 O   0  0  0  0  0  0  0  0  0  0  0  0
  186.3290  178.1040  145.2310 C   0  0  0  0  0  3  0  0  0  0  0  0
  184.9670  178.4080  145.1380 C   0  0  0  0  0  3  0  0  0  0  0  0
  188.5570  177.5470  144.1350 C   0  0  2  0  0  3  0  0  0  0  0  0
  185.0960  178.2930  142.7200 C   0  0  0  0  0  0  0  0  0  0  0  0
  188.9500  175.7150  142.4230 N   0  0  0  0  0  0  0  0  0  0  0  0
  188.0270  173.7210  142.0450 N   0  0  0  0  0  0  0  0  0  0  0  0
  187.8070  174.9990  142.4130 C   0  0  0  0  0  3  0  0  0  0  0  0
  189.9420  174.8930  142.0440 C   0  0  0  0  0  3  0  0  0  0  0  0
  189.3560  173.6660  141.8290 C   0  0  0  0  0  0  0  0  0  0  0  0
  190.0650  172.4480  141.3520 C   0  0  0  0  0  2  0  0  0  0  0  0
  189.8410  171.3970  142.2400 O   0  0  0  0  0  1  0  0  0  0  0  0
  189.5570  177.9170  147.3870 O   0  0  0  0  0  0  0  0  0  0  0  0
  188.8810  176.5150  145.2170 C   0  0  2  0  0  3  0  0  0  0  0  0
  189.5720  177.2110  146.3920 C   0  0  0  0  0  0  0  0  0  0  0  0
  190.2940  176.3460  145.3620 C   0  0  1  0  0  3  0  0  0  0  0  0
  190.6000  174.9960  145.9780 C   0  0  0  0  0  2  0  0  0  0  0  0
  189.6810  174.0550  145.5170 O   0  0  0  0  0  1  0  0  0  0  0  0
  183.9160  178.4690  140.4140 N   0  0  0  0  0  0  0  0  0  0  0  0
  184.4420  178.3910  141.4420 C   0  0  0  0  0  0  0  0  0  0  0  0
  1  7  1  0  0  0  0
  2  1  2  0  0  0  0
  3 11  1  6  0  0  0
  3  9  1  0  0  0  0
  4  8  1  0  0  0  0
  5  6  1  0  0  0  0
  5  2  1  0  0  0  0
  6  3  1  0  0  0  0
  8  7  2  0  0  0  0
  9  1  1  6  0  0  0
  9 19  1  0  0  0  0
 10  2  1  0  0  0  0
 10  4  2  0  0  0  0
 12 13  2  0  0  0  0
 13 11  1  0  0  0  0
 14 11  1  0  0  0  0
 15 14  2  0  0  0  0
 15 12  1  0  0  0  0
 16 15  1  0  0  0  0
 16 17  1  0  0  0  0
 19 21  1  0  0  0  0
 19 20  1  1  0  0  0
 20 18  2  0  0  0  0
 21 22  1  1  0  0  0
 21 20  1  0  0  0  0
 23 22  1  0  0  0  0
 24 25  3  0  0  0  0
 25 10  1  0  0  0  0
M  END
>  <MODEL>
1

>  <REMARK>
 VINA RESULT:      -6.7      0.000      0.000
  Name = 
  5 active torsions:
  status: ('A' for Active; 'I' for Inactive)
    1  A    between atoms: C_1  and  C_25
    2  A    between atoms: C_2  and  CA_23
    3  A    between atoms: C_5  and  N_10
    4  A    between atoms: C_13  and  C_17
    5  A    between atoms: C_19  and  C_24
                            x       y       z     vdW  Elec       q    Type
                         _______ _______ _______ _____ _____    ______ ____

>  <TORSDO>
F 5

$$$$
=
 OpenBabel11042413483D

 25 28  0  0  1  0  0  0  0  0999 V2000
  188.1030  177.2390  145.5900 C   0  0  0  0  0  0  0  0  0  0  0  0
  187.2610  177.5090  144.5010 C   0  0  0  0  0  0  0  0  0  0  0  0
  189.9710  177.2780  143.8650 C   0  0  1  0  0  3  0  0  0  0  0  0
  185.3200  177.2540  145.9240 C   0  0  0  0  0  3  0  0  0  0  0  0
  187.8710  177.7340  143.2280 N   0  0  0  0  0  2  0  0  0  0  0  0
  189.1540  178.1900  143.1570 O   0  0  0  0  0  0  0  0  0  0  0  0
  187.5440  177.0250  146.8570 C   0  0  0  0  0  3  0  0  0  0  0  0
  186.1560  177.0320  147.0230 C   0  0  0  0  0  3  0  0  0  0  0  0
  189.6020  177.2360  145.3750 C   0  0  2  0  0  3  0  0  0  0  0  0
  185.8660  177.4860  144.6580 C   0  0  0  0  0  0  0  0  0  0  0  0
  190.0130  175.9630  143.2190 N   0  0  0  0  0  0  0  0  0  0  0  0
  190.6910  174.2090  142.0210 N   0  0  0  0  0  0  0  0  0  0  0  0
  190.9760  175.4660  142.4170 C   0  0  0  0  0  3  0  0  0  0  0  0
  189.0800  175.0090  143.3630 C   0  0  0  0  0  3  0  0  0  0  0  0
  189.5080  173.9410  142.6070 C   0  0  0  0  0  0  0  0  0  0  0  0
  188.8080  172.6330  142.4960 C   0  0  0  0  0  2  0  0  0  0  0  0
  189.1140  171.8430  143.6030 O   0  0  0  0  0  1  0  0  0  0  0  0
  191.1520  177.1100  148.4250 O   0  0  0  0  0  0  0  0  0  0  0  0
  190.3010  176.0890  146.1090 C   0  0  2  0  0  3  0  0  0  0  0  0
  191.0850  176.6490  147.2970 C   0  0  0  0  0  0  0  0  0  0  0  0
  191.7230  176.1890  145.9880 C   0  0  1  0  0  3  0  0  0  0  0  0
  192.3640  174.8340  146.2000 C   0  0  0  0  0  2  0  0  0  0  0  0
  191.6820  173.8730  145.4540 O   0  0  0  0  0  1  0  0  0  0  0  0
  184.2780  177.9000  142.6470 N   0  0  0  0  0  0  0  0  0  0  0  0
  184.9860  177.7160  143.5430 C   0  0  0  0  0  0  0  0  0  0  0  0
  1  7  1  0  0  0  0
  2 10  1  0  0  0  0
  2  1  2  0  0  0  0
  3 11  1  6  0  0  0
  3  9  1  0  0  0  0
  4  8  1  0  0  0  0
  5  2  1  0  0  0  0
  6  5  1  0  0  0  0
  6  3  1  0  0  0  0
  7  8  2  0  0  0  0
  9  1  1  6  0  0  0
  9 19  1  0  0  0  0
 10  4  2  0  0  0  0
 11 14  1  0  0  0  0
 12 13  2  0  0  0  0
 12 15  1  0  0  0  0
 13 11  1  0  0  0  0
 15 14  2  0  0  0  0
 16 15  1  0  0  0  0
 16 17  1  0  0  0  0
 19 20  1  1  0  0  0
 20 18  2  0  0  0  0
 21 19  1  0  0  0  0
 21 22  1  1  0  0  0
 21 20  1  0  0  0  0
 23 22  1  0  0  0  0
 24 25  3  0  0  0  0
 25 10  1  0  0  0  0
M  END
>  <MODEL>
2

>  <REMARK>
 VINA RESULT:      -6.5      1.582      2.004
  Name = 
  5 active torsions:
  status: ('A' for Active; 'I' for Inactive)
    1  A    between atoms: C_1  and  C_25
    2  A    between atoms: C_2  and  CA_23
    3  A    between atoms: C_5  and  N_10
    4  A    between atoms: C_13  and  C_17
    5  A    between atoms: C_19  and  C_24
                            x       y       z     vdW  Elec       q    Type
                         _______ _______ _______ _____ _____    ______ ____

>  <TORSDO>
F 5

$$$$
=
 OpenBabel11042413483D

 25 28  0  0  1  0  0  0  0  0999 V2000
  187.6580  177.4320  145.1420 C   0  0  0  0  0  0  0  0  0  0  0  0
  186.7770  177.7040  144.0850 C   0  0  0  0  0  0  0  0  0  0  0  0
  189.4110  177.1760  143.3170 C   0  0  1  0  0  3  0  0  0  0  0  0
  184.9150  177.7310  145.6300 C   0  0  0  0  0  3  0  0  0  0  0  0
  187.3240  177.7830  142.7660 N   0  0  0  0  0  2  0  0  0  0  0  0
  188.6360  178.1100  142.5890 O   0  0  0  0  0  0  0  0  0  0  0  0
  187.1640  177.3600  146.4510 C   0  0  0  0  0  3  0  0  0  0  0  0
  185.7940  177.5080  146.6930 C   0  0  0  0  0  3  0  0  0  0  0  0
  189.1350  177.2740  144.8440 C   0  0  2  0  0  3  0  0  0  0  0  0
  185.3990  177.8230  144.3220 C   0  0  0  0  0  0  0  0  0  0  0  0
  189.2940  175.8210  142.7690 N   0  0  0  0  0  0  0  0  0  0  0  0
  188.4710  173.8320  142.1890 N   0  0  0  0  0  0  0  0  0  0  0  0
  188.2280  174.9960  142.8230 C   0  0  0  0  0  3  0  0  0  0  0  0
  190.2550  175.1900  142.0760 C   0  0  0  0  0  3  0  0  0  0  0  0
  189.7350  173.9600  141.7390 C   0  0  0  0  0  0  0  0  0  0  0  0
  190.4320  172.9270  140.9270 C   0  0  0  0  0  2  0  0  0  0  0  0
  190.1560  171.6620  141.4410 O   0  0  0  0  0  1  0  0  0  0  0  0
  190.7120  177.1870  147.8810 O   0  0  0  0  0  0  0  0  0  0  0  0
  189.7730  176.1190  145.6210 C   0  0  2  0  0  3  0  0  0  0  0  0
  190.6040  176.6820  146.7750 C   0  0  0  0  0  0  0  0  0  0  0  0
  191.1970  176.1290  145.4810 C   0  0  1  0  0  3  0  0  0  0  0  0
  191.7590  174.7470  145.7470 C   0  0  0  0  0  2  0  0  0  0  0  0
  190.9020  173.7850  145.2130 O   0  0  0  0  0  1  0  0  0  0  0  0
  183.7310  178.2460  142.3780 N   0  0  0  0  0  0  0  0  0  0  0  0
  184.4740  178.0570  143.2440 C   0  0  0  0  0  0  0  0  0  0  0  0
  1  7  1  0  0  0  0
  2 10  1  0  0  0  0
  2  1  2  0  0  0  0
  3 11  1  6  0  0  0
  3  9  1  0  0  0  0
  4  8  1  0  0  0  0
  5  2  1  0  0  0  0
  6  5  1  0  0  0  0
  6  3  1  0  0  0  0
  7  8  2  0  0  0  0
  9  1  1  6  0  0  0
  9 19  1  0  0  0  0
 10  4  2  0  0  0  0
 11 13  1  0  0  0  0
 12 13  2  0  0  0  0
 14 11  1  0  0  0  0
 15 14  2  0  0  0  0
 15 12  1  0  0  0  0
 16 17  1  0  0  0  0
 16 15  1  0  0  0  0
 19 20  1  1  0  0  0
 20 18  2  0  0  0  0
 21 19  1  0  0  0  0
 21 22  1  1  0  0  0
 21 20  1  0  0  0  0
 23 22  1  0  0  0  0
 24 25  3  0  0  0  0
 25 10  1  0  0  0  0
M  END
>  <MODEL>
3

>  <REMARK>
 VINA RESULT:      -6.4      1.050      1.248
  Name = 
  5 active torsions:
  status: ('A' for Active; 'I' for Inactive)
    1  A    between atoms: C_1  and  C_25
    2  A    between atoms: C_2  and  CA_23
    3  A    between atoms: C_5  and  N_10
    4  A    between atoms: C_13  and  C_17
    5  A    between atoms: C_19  and  C_24
                            x       y       z     vdW  Elec       q    Type
                         _______ _______ _______ _____ _____    ______ ____

>  <TORSDO>
F 5

$$$$
=
 OpenBabel11042413483D

 25 28  0  0  1  0  0  0  0  0999 V2000
  188.6470  175.7770  142.0950 C   0  0  0  0  0  0  0  0  0  0  0  0
  189.5050  175.5610  143.1830 C   0  0  0  0  0  0  0  0  0  0  0  0
  188.1080  177.9790  143.2470 C   0  0  1  0  0  3  0  0  0  0  0  0
  189.9580  173.3180  142.3960 C   0  0  0  0  0  3  0  0  0  0  0  0
  189.6510  176.6180  144.1360 N   0  0  0  0  0  2  0  0  0  0  0  0
  189.4230  177.9090  143.7640 O   0  0  0  0  0  0  0  0  0  0  0  0
  188.4890  174.7720  141.1320 C   0  0  0  0  0  3  0  0  0  0  0  0
  189.1410  173.5450  141.2840 C   0  0  0  0  0  3  0  0  0  0  0  0
  187.9530  177.1170  141.9620 C   0  0  2  0  0  3  0  0  0  0  0  0
  190.1380  174.3200  143.3540 C   0  0  0  0  0  0  0  0  0  0  0  0
  187.0990  177.7110  144.2770 N   0  0  0  0  0  0  0  0  0  0  0  0
  185.6570  176.6550  145.6090 N   0  0  0  0  0  0  0  0  0  0  0  0
  186.5280  176.5300  144.5880 C   0  0  0  0  0  3  0  0  0  0  0  0
  186.6020  178.6310  145.1180 C   0  0  0  0  0  3  0  0  0  0  0  0
  185.7040  177.9650  145.9220 C   0  0  0  0  0  0  0  0  0  0  0  0
  184.9340  178.5750  147.0390 C   0  0  0  0  0  2  0  0  0  0  0  0
  185.7390  179.4870  147.7190 O   0  0  0  0  0  1  0  0  0  0  0  0
  186.4940  177.1970  138.8670 O   0  0  0  0  0  0  0  0  0  0  0  0
  186.4920  176.9830  141.5290 C   0  0  2  0  0  3  0  0  0  0  0  0
  186.3570  177.3990  140.0630 C   0  0  0  0  0  0  0  0  0  0  0  0
  185.9190  178.2630  141.2430 C   0  0  1  0  0  3  0  0  0  0  0  0
  184.4110  178.2020  141.3670 C   0  0  0  0  0  2  0  0  0  0  0  0
  184.0590  178.0810  142.7110 O   0  0  0  0  0  1  0  0  0  0  0  0
  191.6670  173.8580  145.4000 N   0  0  0  0  0  0  0  0  0  0  0  0
  190.9860  174.0650  144.4880 C   0  0  0  0  0  0  0  0  0  0  0  0
  1  2  1  0  0  0  0
  2 10  2  0  0  0  0
  2  5  1  0  0  0  0
  3  6  1  0  0  0  0
  3 11  1  1  0  0  0
  4 10  1  0  0  0  0
  6  5  1  0  0  0  0
  7  8  1  0  0  0  0
  7  1  2  0  0  0  0
  8  4  2  0  0  0  0
  9  1  1  1  0  0  0
  9  3  1  0  0  0  0
 10 25  1  0  0  0  0
 11 13  1  0  0  0  0
 11 14  1  0  0  0  0
 12 15  1  0  0  0  0
 13 12  2  0  0  0  0
 14 15  2  0  0  0  0
 15 16  1  0  0  0  0
 16 17  1  0  0  0  0
 18 20  2  0  0  0  0
 19 20  1  6  0  0  0
 19  9  1  0  0  0  0
 20 21  1  0  0  0  0
 21 22  1  6  0  0  0
 21 19  1  0  0  0  0
 22 23  1  0  0  0  0
 25 24  3  0  0  0  0
M  END
>  <MODEL>
4

>  <REMARK>
 VINA RESULT:      -6.1      2.711      6.557
  Name = 
  5 active torsions:
  status: ('A' for Active; 'I' for Inactive)
    1  A    between atoms: C_1  and  C_25
    2  A    between atoms: C_2  and  CA_23
    3  A    between atoms: C_5  and  N_10
    4  A    between atoms: C_13  and  C_17
    5  A    between atoms: C_19  and  C_24
                            x       y       z     vdW  Elec       q    Type
                         _______ _______ _______ _____ _____    ______ ____

>  <TORSDO>
F 5

$$$$
=
 OpenBabel11042413483D

 25 28  0  0  1  0  0  0  0  0999 V2000
  188.0570  176.0620  143.9110 C   0  0  0  0  0  0  0  0  0  0  0  0
  187.8600  176.5040  145.2280 C   0  0  0  0  0  0  0  0  0  0  0  0
  189.8670  174.5850  144.9180 C   0  0  1  0  0  3  0  0  0  0  0  0
  186.2890  178.1700  144.4450 C   0  0  0  0  0  3  0  0  0  0  0  0
  188.6150  175.8690  146.2630 N   0  0  0  0  0  2  0  0  0  0  0  0
  189.0760  174.5970  146.0910 O   0  0  0  0  0  0  0  0  0  0  0  0
  187.3270  176.6500  142.8700 C   0  0  0  0  0  3  0  0  0  0  0  0
  186.4460  177.7020  143.1380 C   0  0  0  0  0  3  0  0  0  0  0  0
  189.0210  174.9220  143.6570 C   0  0  2  0  0  3  0  0  0  0  0  0
  187.0000  177.5800  145.4950 C   0  0  0  0  0  0  0  0  0  0  0  0
  191.0790  175.3970  145.0650 N   0  0  0  0  0  0  0  0  0  0  0  0
  192.5380  177.0750  144.9140 N   0  0  0  0  0  0  0  0  0  0  0  0
  191.3220  176.6200  144.5510 C   0  0  0  0  0  3  0  0  0  0  0  0
  192.1520  175.0450  145.7900 C   0  0  0  0  0  3  0  0  0  0  0  0
  193.0470  176.0850  145.6730 C   0  0  0  0  0  0  0  0  0  0  0  0
  194.3720  176.1570  146.3460 C   0  0  0  0  0  2  0  0  0  0  0  0
  194.5740  177.4420  146.8450 O   0  0  0  0  0  1  0  0  0  0  0  0
  188.5390  174.1260  140.3630 O   0  0  0  0  0  0  0  0  0  0  0  0
  189.8950  175.1530  142.4210 C   0  0  2  0  0  3  0  0  0  0  0  0
  189.3490  174.3300  141.2530 C   0  0  0  0  0  0  0  0  0  0  0  0
  190.5940  173.9600  142.0540 C   0  0  1  0  0  3  0  0  0  0  0  0
  191.8250  174.3040  141.2400 C   0  0  0  0  0  2  0  0  0  0  0  0
  192.8720  174.6390  142.0980 O   0  0  0  0  0  1  0  0  0  0  0  0
  186.6730  178.4750  147.9100 N   0  0  0  0  0  0  0  0  0  0  0  0
  186.8190  178.0760  146.8340 C   0  0  0  0  0  0  0  0  0  0  0  0
  1  2  1  0  0  0  0
  2 10  2  0  0  0  0
  2  5  1  0  0  0  0
  3 11  1  1  0  0  0
  3  6  1  0  0  0  0
  4 10  1  0  0  0  0
  6  5  1  0  0  0  0
  7  8  1  0  0  0  0
  7  1  2  0  0  0  0
  8  4  2  0  0  0  0
  9  1  1  1  0  0  0
  9  3  1  0  0  0  0
 10 25  1  0  0  0  0
 11 14  1  0  0  0  0
 12 15  1  0  0  0  0
 13 12  2  0  0  0  0
 13 11  1  0  0  0  0
 15 14  2  0  0  0  0
 15 16  1  0  0  0  0
 16 17  1  0  0  0  0
 18 20  2  0  0  0  0
 19 20  1  6  0  0  0
 19  9  1  0  0  0  0
 20 21  1  0  0  0  0
 21 22  1  6  0  0  0
 21 19  1  0  0  0  0
 22 23  1  0  0  0  0
 25 24  3  0  0  0  0
M  END
>  <MODEL>
5

>  <REMARK>
 VINA RESULT:      -5.8      2.872      5.123
  Name = 
  5 active torsions:
  status: ('A' for Active; 'I' for Inactive)
    1  A    between atoms: C_1  and  C_25
    2  A    between atoms: C_2  and  CA_23
    3  A    between atoms: C_5  and  N_10
    4  A    between atoms: C_13  and  C_17
    5  A    between atoms: C_19  and  C_24
                            x       y       z     vdW  Elec       q    Type
                         _______ _______ _______ _____ _____    ______ ____

>  <TORSDO>
F 5

$$$$
=
 OpenBabel11042413483D

 25 28  0  0  1  0  0  0  0  0999 V2000
  189.8710  176.0340  145.8560 C   0  0  0  0  0  0  0  0  0  0  0  0
  190.8570  175.5080  145.0080 C   0  0  0  0  0  0  0  0  0  0  0  0
  188.2350  175.2260  144.0840 C   0  0  1  0  0  3  0  0  0  0  0  0
  192.5860  176.4250  146.4300 C   0  0  0  0  0  3  0  0  0  0  0  0
  190.4240  174.8090  143.8380 N   0  0  0  0  0  2  0  0  0  0  0  0
  189.1930  174.2220  143.8090 O   0  0  0  0  0  0  0  0  0  0  0  0
  190.2550  176.7150  147.0190 C   0  0  0  0  0  3  0  0  0  0  0  0
  191.6090  176.9110  147.3040 C   0  0  0  0  0  3  0  0  0  0  0  0
  188.4130  175.8070  145.5160 C   0  0  2  0  0  3  0  0  0  0  0  0
  192.2170  175.7300  145.2750 C   0  0  0  0  0  0  0  0  0  0  0  0
  188.1830  176.2400  143.0260 N   0  0  0  0  0  0  0  0  0  0  0  0
  188.6740  178.0010  141.7500 N   0  0  0  0  0  0  0  0  0  0  0  0
  189.0080  177.2920  142.8470 C   0  0  0  0  0  3  0  0  0  0  0  0
  187.2950  176.2500  142.0190 C   0  0  0  0  0  3  0  0  0  0  0  0
  187.6040  177.3510  141.2520 C   0  0  0  0  0  0  0  0  0  0  0  0
  186.9080  177.7450  139.9970 C   0  0  0  0  0  2  0  0  0  0  0  0
  185.5480  177.9120  140.2490 O   0  0  0  0  0  1  0  0  0  0  0  0
  186.3290  176.6760  148.0880 O   0  0  0  0  0  0  0  0  0  0  0  0
  187.5530  177.0520  145.7440 C   0  0  2  0  0  3  0  0  0  0  0  0
  186.5840  176.7940  146.9010 C   0  0  0  0  0  0  0  0  0  0  0  0
  186.1810  176.7970  145.4280 C   0  0  1  0  0  3  0  0  0  0  0  0
  185.4650  178.0940  145.1140 C   0  0  0  0  0  2  0  0  0  0  0  0
  186.3260  178.9450  144.4210 O   0  0  0  0  0  1  0  0  0  0  0  0
  194.0640  174.8390  143.6830 N   0  0  0  0  0  0  0  0  0  0  0  0
  193.2410  175.2360  144.3920 C   0  0  0  0  0  0  0  0  0  0  0  0
  1  7  1  0  0  0  0
  2 10  1  0  0  0  0
  2  1  2  0  0  0  0
  3 11  1  6  0  0  0
  3  9  1  0  0  0  0
  4  8  1  0  0  0  0
  5  2  1  0  0  0  0
  6  5  1  0  0  0  0
  6  3  1  0  0  0  0
  7  8  2  0  0  0  0
  9 19  1  0  0  0  0
  9  1  1  6  0  0  0
 10  4  2  0  0  0  0
 12 13  2  0  0  0  0
 13 11  1  0  0  0  0
 14 11  1  0  0  0  0
 15 12  1  0  0  0  0
 15 14  2  0  0  0  0
 16 17  1  0  0  0  0
 16 15  1  0  0  0  0
 19 20  1  1  0  0  0
 20 18  2  0  0  0  0
 21 22  1  1  0  0  0
 21 19  1  0  0  0  0
 21 20  1  0  0  0  0
 23 22  1  0  0  0  0
 24 25  3  0  0  0  0
 25 10  1  0  0  0  0
M  END
>  <MODEL>
6

>  <REMARK>
 VINA RESULT:      -5.8      2.382      5.681
  Name = 
  5 active torsions:
  status: ('A' for Active; 'I' for Inactive)
    1  A    between atoms: C_1  and  C_25
    2  A    between atoms: C_2  and  CA_23
    3  A    between atoms: C_5  and  N_10
    4  A    between atoms: C_13  and  C_17
    5  A    between atoms: C_19  and  C_24
                            x       y       z     vdW  Elec       q    Type
                         _______ _______ _______ _____ _____    ______ ____

>  <TORSDO>
F 5

$$$$
=
 OpenBabel11042413483D

 25 28  0  0  1  0  0  0  0  0999 V2000
  192.7620  175.5820  144.8150 C   0  0  0  0  0  0  0  0  0  0  0  0
  193.3180  175.5130  143.5290 C   0  0  0  0  0  0  0  0  0  0  0  0
  190.6480  174.7110  143.7010 C   0  0  1  0  0  3  0  0  0  0  0  0
  195.3370  176.5780  144.3330 C   0  0  0  0  0  3  0  0  0  0  0  0
  192.5150  174.9560  142.4850 N   0  0  0  0  0  2  0  0  0  0  0  0
  191.5190  174.0750  142.7860 O   0  0  0  0  0  0  0  0  0  0  0  0
  193.5220  176.1080  145.8670 C   0  0  0  0  0  3  0  0  0  0  0  0
  194.8060  176.6060  145.6260 C   0  0  0  0  0  3  0  0  0  0  0  0
  191.3670  175.0360  145.0410 C   0  0  2  0  0  3  0  0  0  0  0  0
  194.5950  176.0400  143.2770 C   0  0  0  0  0  0  0  0  0  0  0  0
  189.9560  175.8530  143.0970 N   0  0  0  0  0  0  0  0  0  0  0  0
  189.4830  177.9130  142.3870 N   0  0  0  0  0  0  0  0  0  0  0  0
  190.3670  177.1370  143.0450 C   0  0  0  0  0  3  0  0  0  0  0  0
  188.7810  175.7820  142.4500 C   0  0  0  0  0  3  0  0  0  0  0  0
  188.4990  177.0630  142.0320 C   0  0  0  0  0  0  0  0  0  0  0  0
  187.3100  177.4630  141.2330 C   0  0  0  0  0  2  0  0  0  0  0  0
  186.1540  176.9690  141.8340 O   0  0  0  0  0  1  0  0  0  0  0  0
  191.1910  175.2880  148.4500 O   0  0  0  0  0  0  0  0  0  0  0  0
  190.5220  175.9350  145.9470 C   0  0  2  0  0  3  0  0  0  0  0  0
  190.6070  175.4270  147.3880 C   0  0  0  0  0  0  0  0  0  0  0  0
  189.3990  175.2240  146.4760 C   0  0  1  0  0  3  0  0  0  0  0  0
  188.3080  176.1940  146.8800 C   0  0  0  0  0  2  0  0  0  0  0  0
  187.4580  176.4160  145.7960 O   0  0  0  0  0  1  0  0  0  0  0  0
  195.6190  176.0010  140.8920 N   0  0  0  0  0  0  0  0  0  0  0  0
  195.1630  176.0190  141.9560 C   0  0  0  0  0  0  0  0  0  0  0  0
  1  7  1  0  0  0  0
  2  1  2  0  0  0  0
  3 11  1  6  0  0  0
  3  9  1  0  0  0  0
  4  8  1  0  0  0  0
  5  6  1  0  0  0  0
  5  2  1  0  0  0  0
  6  3  1  0  0  0  0
  8  7  2  0  0  0  0
  9  1  1  6  0  0  0
  9 19  1  0  0  0  0
 10  2  1  0  0  0  0
 10  4  2  0  0  0  0
 12 13  2  0  0  0  0
 13 11  1  0  0  0  0
 14 11  1  0  0  0  0
 15 12  1  0  0  0  0
 15 14  2  0  0  0  0
 16 17  1  0  0  0  0
 16 15  1  0  0  0  0
 19 21  1  0  0  0  0
 19 20  1  1  0  0  0
 20 18  2  0  0  0  0
 21 22  1  1  0  0  0
 21 20  1  0  0  0  0
 23 22  1  0  0  0  0
 24 25  3  0  0  0  0
 25 10  1  0  0  0  0
M  END
>  <MODEL>
7

>  <REMARK>
 VINA RESULT:      -5.6      3.172      6.272
  Name = 
  5 active torsions:
  status: ('A' for Active; 'I' for Inactive)
    1  A    between atoms: C_1  and  C_25
    2  A    between atoms: C_2  and  CA_23
    3  A    between atoms: C_5  and  N_10
    4  A    between atoms: C_13  and  C_17
    5  A    between atoms: C_19  and  C_24
                            x       y       z     vdW  Elec       q    Type
                         _______ _______ _______ _____ _____    ______ ____

>  <TORSDO>
F 5

$$$$
=
 OpenBabel11042413483D

 25 28  0  0  1  0  0  0  0  0999 V2000
  189.2200  177.3350  144.8990 C   0  0  0  0  0  0  0  0  0  0  0  0
  187.8860  177.5720  144.5360 C   0  0  0  0  0  0  0  0  0  0  0  0
  189.5740  176.8650  142.4250 C   0  0  1  0  0  3  0  0  0  0  0  0
  187.2790  177.8000  146.8670 C   0  0  0  0  0  3  0  0  0  0  0  0
  187.5570  177.5290  143.1450 N   0  0  0  0  0  2  0  0  0  0  0  0
  188.5160  177.7790  142.2080 O   0  0  0  0  0  0  0  0  0  0  0  0
  189.5850  177.3820  146.2510 C   0  0  0  0  0  3  0  0  0  0  0  0
  188.6150  177.6120  147.2330 C   0  0  0  0  0  3  0  0  0  0  0  0
  190.2440  177.0860  143.8110 C   0  0  2  0  0  3  0  0  0  0  0  0
  186.9060  177.7730  145.5200 C   0  0  0  0  0  0  0  0  0  0  0  0
  189.1640  175.4810  142.1680 N   0  0  0  0  0  0  0  0  0  0  0  0
  188.5300  173.3660  142.4730 N   0  0  0  0  0  0  0  0  0  0  0  0
  188.9070  174.5130  143.0710 C   0  0  0  0  0  3  0  0  0  0  0  0
  188.9410  174.9630  140.9500 C   0  0  0  0  0  3  0  0  0  0  0  0
  188.5650  173.6540  141.1570 C   0  0  0  0  0  0  0  0  0  0  0  0
  188.1760  172.6940  140.0900 C   0  0  0  0  0  2  0  0  0  0  0  0
  189.3180  172.2310  139.4380 O   0  0  0  0  0  1  0  0  0  0  0  0
  193.3130  177.1480  145.3240 O   0  0  0  0  0  0  0  0  0  0  0  0
  191.2190  175.9620  144.1660 C   0  0  2  0  0  3  0  0  0  0  0  0
  192.5720  176.5660  144.5490 C   0  0  0  0  0  0  0  0  0  0  0  0
  192.2840  175.8830  143.2140 C   0  0  1  0  0  3  0  0  0  0  0  0
  192.8970  174.4980  143.2260 C   0  0  0  0  0  2  0  0  0  0  0  0
  194.2800  174.5990  143.0730 O   0  0  0  0  0  1  0  0  0  0  0  0
  184.4150  178.1330  144.8860 N   0  0  0  0  0  0  0  0  0  0  0  0
  185.5250  177.9720  145.1690 C   0  0  0  0  0  0  0  0  0  0  0  0
  1  7  1  0  0  0  0
  2  1  2  0  0  0  0
  2 10  1  0  0  0  0
  3 11  1  1  0  0  0
  3  9  1  0  0  0  0
  4  8  1  0  0  0  0
  5  2  1  0  0  0  0
  6  3  1  0  0  0  0
  6  5  1  0  0  0  0
  7  8  2  0  0  0  0
  9 19  1  0  0  0  0
  9  1  1  1  0  0  0
 10  4  2  0  0  0  0
 11 13  1  0  0  0  0
 12 13  2  0  0  0  0
 14 15  2  0  0  0  0
 14 11  1  0  0  0  0
 15 12  1  0  0  0  0
 16 15  1  0  0  0  0
 17 16  1  0  0  0  0
 19 20  1  1  0  0  0
 20 18  2  0  0  0  0
 21 22  1  1  0  0  0
 21 19  1  0  0  0  0
 21 20  1  0  0  0  0
 23 22  1  0  0  0  0
 24 25  3  0  0  0  0
 25 10  1  0  0  0  0
M  END
>  <MODEL>
8

>  <REMARK>
 VINA RESULT:      -5.5      2.236      2.968
  Name = 
  5 active torsions:
  status: ('A' for Active; 'I' for Inactive)
    1  A    between atoms: C_1  and  C_25
    2  A    between atoms: C_2  and  CA_23
    3  A    between atoms: C_5  and  N_10
    4  A    between atoms: C_13  and  C_17
    5  A    between atoms: C_19  and  C_24
                            x       y       z     vdW  Elec       q    Type
                         _______ _______ _______ _____ _____    ______ ____

>  <TORSDO>
F 5

$$$$
=
 OpenBabel11042413483D

 25 28  0  0  1  0  0  0  0  0999 V2000
  189.6960  175.3740  145.0120 C   0  0  0  0  0  0  0  0  0  0  0  0
  188.6290  176.2150  144.6620 C   0  0  0  0  0  0  0  0  0  0  0  0
  190.2910  175.4740  142.5420 C   0  0  1  0  0  3  0  0  0  0  0  0
  187.7400  176.0430  146.9050 C   0  0  0  0  0  3  0  0  0  0  0  0
  188.5630  176.6780  143.3100 N   0  0  0  0  0  2  0  0  0  0  0  0
  189.6990  176.7580  142.5600 O   0  0  0  0  0  0  0  0  0  0  0  0
  189.8030  174.9100  146.3300 C   0  0  0  0  0  3  0  0  0  0  0  0
  188.8260  175.2430  147.2740 C   0  0  0  0  0  3  0  0  0  0  0  0
  190.7350  175.0310  143.9650 C   0  0  2  0  0  3  0  0  0  0  0  0
  187.6310  176.5260  145.5980 C   0  0  0  0  0  0  0  0  0  0  0  0
  189.4560  174.4950  141.8390 N   0  0  0  0  0  0  0  0  0  0  0  0
  187.8320  173.0410  141.3690 N   0  0  0  0  0  0  0  0  0  0  0  0
  188.3630  173.8560  142.3030 C   0  0  0  0  0  3  0  0  0  0  0  0
  189.6430  174.1000  140.5700 C   0  0  0  0  0  3  0  0  0  0  0  0
  188.6420  173.1940  140.3020 C   0  0  0  0  0  0  0  0  0  0  0  0
  188.4220  172.5190  138.9950 C   0  0  0  0  0  2  0  0  0  0  0  0
  188.2040  173.4750  138.0040 O   0  0  0  0  0  1  0  0  0  0  0  0
  193.2810  173.4450  145.6140 O   0  0  0  0  0  0  0  0  0  0  0  0
  191.1500  173.5580  144.0080 C   0  0  2  0  0  3  0  0  0  0  0  0
  192.5350  173.4400  144.6480 C   0  0  0  0  0  0  0  0  0  0  0  0
  192.2690  173.3130  143.1500 C   0  0  1  0  0  3  0  0  0  0  0  0
  192.3210  171.8500  142.7620 C   0  0  0  0  0  2  0  0  0  0  0  0
  193.5870  171.3370  143.0460 O   0  0  0  0  0  1  0  0  0  0  0  0
  185.6020  178.0140  144.9580 N   0  0  0  0  0  0  0  0  0  0  0  0
  186.5070  177.3500  145.2440 C   0  0  0  0  0  0  0  0  0  0  0  0
  1  7  1  0  0  0  0
  2  1  2  0  0  0  0
  2 10  1  0  0  0  0
  3 11  1  1  0  0  0
  3  6  1  0  0  0  0
  3  9  1  0  0  0  0
  4  8  1  0  0  0  0
  5  2  1  0  0  0  0
  6  5  1  0  0  0  0
  7  8  2  0  0  0  0
  9 19  1  0  0  0  0
  9  1  1  1  0  0  0
 10  4  2  0  0  0  0
 11 13  1  0  0  0  0
 12 13  2  0  0  0  0
 14 11  1  0  0  0  0
 15 14  2  0  0  0  0
 15 12  1  0  0  0  0
 16 15  1  0  0  0  0
 17 16  1  0  0  0  0
 19 20  1  1  0  0  0
 20 18  2  0  0  0  0
 21 22  1  1  0  0  0
 21 19  1  0  0  0  0
 21 20  1  0  0  0  0
 22 23  1  0  0  0  0
 24 25  3  0  0  0  0
 25 10  1  0  0  0  0
M  END
>  <MODEL>
9

>  <REMARK>
 VINA RESULT:      -5.3      2.517      3.912
  Name = 
  5 active torsions:
  status: ('A' for Active; 'I' for Inactive)
    1  A    between atoms: C_1  and  C_25
    2  A    between atoms: C_2  and  CA_23
    3  A    between atoms: C_5  and  N_10
    4  A    between atoms: C_13  and  C_17
    5  A    between atoms: C_19  and  C_24
                            x       y       z     vdW  Elec       q    Type
                         _______ _______ _______ _____ _____    ______ ____

>  <TORSDO>
F 5

$$$$
