=
 OpenBabel11042417203D

 26 30  0  0  1  0  0  0  0  0999 V2000
  189.1960  177.5550  145.3400 C   0  0  2  0  0  3  0  0  0  0  0  0
  190.2660  177.9300  144.5530 C   0  0  0  0  0  2  0  0  0  0  0  0
  189.9410  176.4740  144.6320 N   0  0  0  0  0  0  0  0  0  0  0  0
  185.9140  179.9550  144.0090 O   0  0  0  0  0  1  0  0  0  0  0  0
  186.7700  176.7990  145.0810 C   0  0  2  0  0  3  0  0  0  0  0  0
  187.2170  177.4330  142.2700 C   0  0  0  0  0  0  0  0  0  0  0  0
  187.4400  177.7080  140.9950 C   0  0  0  0  0  2  0  0  0  0  0  0
  184.7980  177.8330  144.0170 C   0  0  0  0  0  2  0  0  0  0  0  0
  185.5160  178.8960  144.8270 C   0  0  1  0  0  3  0  0  0  0  0  0
  186.2790  176.3330  142.6440 C   0  0  0  0  0  2  0  0  0  0  0  0
  185.6810  176.5970  144.0260 C   0  0  1  0  0  3  0  0  0  0  0  0
  186.7120  178.2590  145.5350 C   0  0  2  0  0  3  0  0  0  0  0  0
  187.8560  178.1740  143.2640 O   0  0  0  0  0  0  0  0  0  0  0  0
  187.8570  177.7770  144.6450 C   0  0  1  0  0  0  0  0  0  0  0  0
  190.1950  172.5640  142.4290 N   0  0  0  0  0  0  0  0  0  0  0  0
  189.1630  174.5400  143.3580 N   0  0  0  0  0  0  0  0  0  0  0  0
  191.3720  172.9760  144.4960 C   0  0  0  0  0  2  0  0  0  0  0  0
  189.1540  173.3270  142.5840 C   0  0  0  0  0  0  0  0  0  0  0  0
  191.5060  172.8030  143.0030 C   0  0  0  0  0  2  0  0  0  0  0  0
  191.1520  174.4200  144.8040 C   0  0  1  0  0  3  0  0  0  0  0  0
  190.1210  175.1060  144.2730 C   0  0  0  0  0  0  0  0  0  0  0  0
  187.8960  172.9510  141.8900 C   0  0  0  0  0  1  0  0  0  0  0  0
  194.0710  176.3290  146.5360 C   0  0  0  0  0  1  0  0  0  0  0  0
  192.0330  175.0980  145.7170 N   0  0  0  0  0  2  0  0  0  0  0  0
  193.6950  175.8880  144.2080 N   0  0  0  0  0  2  0  0  0  0  0  0
  193.2800  175.7430  145.4230 C   0  0  0  0  0  0  0  0  0  0  0  0
  1  2  1  6  0  0  0
  2  3  1  0  0  0  0
  3  1  1  0  0  0  0
  4  9  1  0  0  0  0
  5 12  1  0  0  0  0
  6 10  1  0  0  0  0
  6 13  1  0  0  0  0
  7  6  2  0  0  0  0
  8 11  1  0  0  0  0
  8  9  1  0  0  0  0
  9 12  1  0  0  0  0
 10 11  1  0  0  0  0
 11  5  1  0  0  0  0
 13 14  1  0  0  0  0
 14  5  1  0  0  0  0
 14  1  1  0  0  0  0
 14 12  1  0  0  0  0
 15 18  2  0  0  0  0
 15 19  1  0  0  0  0
 16 21  2  0  0  0  0
 17 20  1  0  0  0  0
 18 16  1  0  0  0  0
 19 17  1  0  0  0  0
 20 24  1  0  0  0  0
 21  3  1  0  0  0  0
 21 20  1  0  0  0  0
 22 18  1  0  0  0  0
 25 26  2  0  0  0  0
 26 24  1  0  0  0  0
 26 23  1  0  0  0  0
M  END
>  <MODEL>
1

>  <REMARK>
 VINA RESULT:      -7.2      0.000      0.000
  Name = 
  3 active torsions:
  status: ('A' for Active; 'I' for Inactive)
    1  A    between atoms: C_2  and  C_26
    2  A    between atoms: N_12  and  C_21
    3  A    between atoms: N_18  and  C_19
                            x       y       z     vdW  Elec       q    Type
                         _______ _______ _______ _____ _____    ______ ____

>  <TORSDO>
F 3

$$$$
=
 OpenBabel11042417203D

 26 30  0  0  1  0  0  0  0  0999 V2000
  189.3080  177.6190  144.7530 C   0  0  2  0  0  3  0  0  0  0  0  0
  190.1690  177.8200  143.6940 C   0  0  0  0  0  2  0  0  0  0  0  0
  189.8000  176.4110  144.0300 N   0  0  0  0  0  0  0  0  0  0  0  0
  185.8550  180.0850  144.2050 O   0  0  0  0  0  1  0  0  0  0  0  0
  186.8720  176.9020  145.0300 C   0  0  2  0  0  3  0  0  0  0  0  0
  186.6970  177.5670  142.1960 C   0  0  0  0  0  0  0  0  0  0  0  0
  186.6370  177.8560  140.9060 C   0  0  0  0  0  2  0  0  0  0  0  0
  184.7320  177.9800  144.4390 C   0  0  0  0  0  2  0  0  0  0  0  0
  185.6290  179.0210  145.0800 C   0  0  1  0  0  3  0  0  0  0  0  0
  185.8460  176.4760  142.7580 C   0  0  0  0  0  2  0  0  0  0  0  0
  185.5730  176.7310  144.2400 C   0  0  1  0  0  3  0  0  0  0  0  0
  186.9410  178.3570  145.5000 C   0  0  2  0  0  3  0  0  0  0  0  0
  187.5530  178.2850  143.0320 O   0  0  0  0  0  0  0  0  0  0  0  0
  187.8520  177.8700  144.3740 C   0  0  1  0  0  0  0  0  0  0  0  0
  190.0290  172.3040  142.2190 N   0  0  0  0  0  0  0  0  0  0  0  0
  189.1560  174.5170  142.6270 N   0  0  0  0  0  0  0  0  0  0  0  0
  190.4470  172.7230  144.5590 C   0  0  0  0  0  2  0  0  0  0  0  0
  189.1790  173.2480  141.9480 C   0  0  0  0  0  0  0  0  0  0  0  0
  191.0680  172.3690  143.2300 C   0  0  0  0  0  2  0  0  0  0  0  0
  190.4280  174.2080  144.7110 C   0  0  1  0  0  3  0  0  0  0  0  0
  189.8160  175.0020  143.8120 C   0  0  0  0  0  0  0  0  0  0  0  0
  188.2040  173.0250  140.8510 C   0  0  0  0  0  1  0  0  0  0  0  0
  191.2440  175.8000  148.1700 C   0  0  0  0  0  1  0  0  0  0  0  0
  191.0420  174.8160  145.8620 N   0  0  0  0  0  2  0  0  0  0  0  0
  189.2480  174.7010  147.4210 N   0  0  0  0  0  2  0  0  0  0  0  0
  190.4430  175.1010  147.1330 C   0  0  0  0  0  0  0  0  0  0  0  0
  1  2  1  6  0  0  0
  2  3  1  0  0  0  0
  3  1  1  0  0  0  0
  4  9  1  0  0  0  0
  5 12  1  0  0  0  0
  6 10  1  0  0  0  0
  6 13  1  0  0  0  0
  7  6  2  0  0  0  0
  8  9  1  0  0  0  0
  9 12  1  0  0  0  0
 10 11  1  0  0  0  0
 11  8  1  0  0  0  0
 11  5  1  0  0  0  0
 13 14  1  0  0  0  0
 14  1  1  0  0  0  0
 14  5  1  0  0  0  0
 14 12  1  0  0  0  0
 15 19  1  0  0  0  0
 16 21  2  0  0  0  0
 17 20  1  0  0  0  0
 18 15  2  0  0  0  0
 18 16  1  0  0  0  0
 19 17  1  0  0  0  0
 20 24  1  0  0  0  0
 21  3  1  0  0  0  0
 21 20  1  0  0  0  0
 22 18  1  0  0  0  0
 24 26  1  0  0  0  0
 26 25  2  0  0  0  0
 26 23  1  0  0  0  0
M  END
>  <MODEL>
2

>  <REMARK>
 VINA RESULT:      -7.1      1.270      1.555
  Name = 
  3 active torsions:
  status: ('A' for Active; 'I' for Inactive)
    1  A    between atoms: C_2  and  C_26
    2  A    between atoms: N_12  and  C_21
    3  A    between atoms: N_18  and  C_19
                            x       y       z     vdW  Elec       q    Type
                         _______ _______ _______ _____ _____    ______ ____

>  <TORSDO>
F 3

$$$$
=
 OpenBabel11042417203D

 26 30  0  0  1  0  0  0  0  0999 V2000
  189.6450  176.7890  143.2860 C   0  0  2  0  0  3  0  0  0  0  0  0
  189.8750  178.1450  143.3890 C   0  0  0  0  0  2  0  0  0  0  0  0
  188.4840  177.6590  143.6320 N   0  0  0  0  0  0  0  0  0  0  0  0
  189.1660  175.3910  147.3010 O   0  0  0  0  0  1  0  0  0  0  0  0
  191.5120  176.3500  144.9730 C   0  0  2  0  0  3  0  0  0  0  0  0
  190.5350  173.6060  144.8460 C   0  0  0  0  0  0  0  0  0  0  0  0
  190.0920  172.3610  144.7660 C   0  0  0  0  0  2  0  0  0  0  0  0
  191.5540  175.2270  147.1700 C   0  0  0  0  0  2  0  0  0  0  0  0
  190.3360  176.1290  147.1200 C   0  0  1  0  0  3  0  0  0  0  0  0
  191.9840  173.8680  145.0960 C   0  0  0  0  0  2  0  0  0  0  0  0
  192.1640  175.2240  145.7790 C   0  0  1  0  0  3  0  0  0  0  0  0
  190.3240  176.8730  145.7840 C   0  0  2  0  0  3  0  0  0  0  0  0
  189.6460  174.6720  144.7030 O   0  0  0  0  0  0  0  0  0  0  0  0
  190.0870  176.0280  144.5320 C   0  0  1  0  0  0  0  0  0  0  0  0
  184.6090  179.1440  145.3610 N   0  0  0  0  0  0  0  0  0  0  0  0
  186.8420  178.2240  145.3510 N   0  0  0  0  0  2  0  0  0  0  0  0
  184.7110  177.7640  143.3840 C   0  0  0  0  0  2  0  0  0  0  0  0
  185.6630  178.7340  146.0010 C   0  0  0  0  0  0  0  0  0  0  0  0
  184.4490  179.1500  143.9190 C   0  0  0  0  0  2  0  0  0  0  0  0
  186.1630  177.6300  143.0610 C   0  0  0  0  0  0  0  0  0  0  0  0
  187.1150  177.8370  143.9910 C   0  0  0  0  0  0  0  0  0  0  0  0
  185.6720  178.8360  147.4830 C   0  0  0  0  0  1  0  0  0  0  0  0
  186.5360  177.0660  139.2260 C   0  0  0  0  0  1  0  0  0  0  0  0
  186.5660  177.2340  141.7370 N   0  0  0  0  0  2  0  0  0  0  0  0
  185.1120  178.5820  140.4210 N   0  0  0  0  0  2  0  0  0  0  0  0
  186.0090  177.6540  140.4840 C   0  0  0  0  0  0  0  0  0  0  0  0
  1  2  1  1  0  0  0
  1  3  1  0  0  0  0
  1 14  1  0  0  0  0
  2  3  1  0  0  0  0
  3 21  1  0  0  0  0
  5 11  1  0  0  0  0
  5 12  1  0  0  0  0
  6 10  1  0  0  0  0
  7  6  2  0  0  0  0
  9  8  1  0  0  0  0
  9  4  1  0  0  0  0
 10 11  1  0  0  0  0
 11  8  1  0  0  0  0
 12  9  1  0  0  0  0
 13  6  1  0  0  0  0
 14 13  1  0  0  0  0
 14  5  1  0  0  0  0
 14 12  1  0  0  0  0
 15 18  2  0  0  0  0
 16 18  1  0  0  0  0
 17 19  1  0  0  0  0
 18 22  1  0  0  0  0
 19 15  1  0  0  0  0
 20 17  1  0  0  0  0
 20 21  2  0  0  0  0
 21 16  1  0  0  0  0
 23 26  1  0  0  0  0
 24 20  1  0  0  0  0
 25 26  2  0  0  0  0
 26 24  1  0  0  0  0
M  END
>  <MODEL>
3

>  <REMARK>
 VINA RESULT:      -7.0      2.860      6.709
  Name = 
  3 active torsions:
  status: ('A' for Active; 'I' for Inactive)
    1  A    between atoms: C_2  and  C_26
    2  A    between atoms: N_12  and  C_21
    3  A    between atoms: N_18  and  C_19
                            x       y       z     vdW  Elec       q    Type
                         _______ _______ _______ _____ _____    ______ ____

>  <TORSDO>
F 3

$$$$
=
 OpenBabel11042417203D

 26 30  0  0  1  0  0  0  0  0999 V2000
  189.7780  177.4810  142.7920 C   0  0  2  0  0  3  0  0  0  0  0  0
  190.5820  177.8910  143.8350 C   0  0  0  0  0  2  0  0  0  0  0  0
  189.1180  177.7610  144.0990 N   0  0  0  0  0  0  0  0  0  0  0  0
  189.6190  173.9420  140.3930 O   0  0  0  0  0  1  0  0  0  0  0  0
  188.9510  175.1810  143.5340 C   0  0  2  0  0  3  0  0  0  0  0  0
  191.6930  174.3730  142.9620 C   0  0  0  0  0  0  0  0  0  0  0  0
  192.9460  174.0240  142.7140 C   0  0  0  0  0  2  0  0  0  0  0  0
  189.0840  172.9420  142.5050 C   0  0  0  0  0  2  0  0  0  0  0  0
  188.6870  173.9360  141.4310 C   0  0  1  0  0  3  0  0  0  0  0  0
  190.9280  173.6890  144.0460 C   0  0  0  0  0  2  0  0  0  0  0  0
  189.4290  173.7440  143.7480 C   0  0  1  0  0  3  0  0  0  0  0  0
  188.5480  175.3220  142.0630 C   0  0  2  0  0  3  0  0  0  0  0  0
  191.0880  175.3770  142.2050 O   0  0  0  0  0  0  0  0  0  0  0  0
  189.8340  175.9730  142.5730 C   0  0  1  0  0  0  0  0  0  0  0  0
  184.9590  177.4360  145.7730 N   0  0  0  0  0  0  0  0  0  0  0  0
  186.7320  178.2280  144.3370 N   0  0  0  0  0  0  0  0  0  0  0  0
  186.9270  177.4780  147.1690 C   0  0  0  0  0  2  0  0  0  0  0  0
  185.3590  178.1500  144.7640 C   0  0  0  0  0  0  0  0  0  0  0  0
  185.8110  176.6240  146.6210 C   0  0  0  0  0  2  0  0  0  0  0  0
  188.0870  177.4310  146.2310 C   0  0  1  0  0  3  0  0  0  0  0  0
  187.9650  177.7930  144.9400 C   0  0  0  0  0  0  0  0  0  0  0  0
  184.3410  178.8930  143.9790 C   0  0  0  0  0  1  0  0  0  0  0  0
  191.1520  175.5520  147.7290 C   0  0  0  0  0  1  0  0  0  0  0  0
  189.3810  177.0250  146.7150 N   0  0  0  0  0  2  0  0  0  0  0  0
  188.9750  174.7230  147.1570 N   0  0  0  0  0  2  0  0  0  0  0  0
  189.7710  175.7390  147.2130 C   0  0  0  0  0  0  0  0  0  0  0  0
  1  2  1  1  0  0  0
  1  3  1  0  0  0  0
  2  3  1  0  0  0  0
  3 21  1  0  0  0  0
  4  9  1  0  0  0  0
  5 11  1  0  0  0  0
  6 10  1  0  0  0  0
  7  6  2  0  0  0  0
  8 11  1  0  0  0  0
  9 12  1  0  0  0  0
  9  8  1  0  0  0  0
 11 10  1  0  0  0  0
 12 14  1  0  0  0  0
 12  5  1  0  0  0  0
 13 14  1  0  0  0  0
 13  6  1  0  0  0  0
 14  1  1  0  0  0  0
 14  5  1  0  0  0  0
 15 19  1  0  0  0  0
 16 18  1  0  0  0  0
 16 21  2  0  0  0  0
 18 15  2  0  0  0  0
 19 17  1  0  0  0  0
 20 24  1  0  0  0  0
 20 17  1  0  0  0  0
 21 20  1  0  0  0  0
 22 18  1  0  0  0  0
 24 26  1  0  0  0  0
 25 26  2  0  0  0  0
 26 23  1  0  0  0  0
M  END
>  <MODEL>
4

>  <REMARK>
 VINA RESULT:      -6.8      2.839      5.356
  Name = 
  3 active torsions:
  status: ('A' for Active; 'I' for Inactive)
    1  A    between atoms: C_2  and  C_26
    2  A    between atoms: N_12  and  C_21
    3  A    between atoms: N_18  and  C_19
                            x       y       z     vdW  Elec       q    Type
                         _______ _______ _______ _____ _____    ______ ____

>  <TORSDO>
F 3

$$$$
=
 OpenBabel11042417203D

 26 30  0  0  1  0  0  0  0  0999 V2000
  189.8050  176.8770  143.0600 C   0  0  2  0  0  3  0  0  0  0  0  0
  189.8880  178.2410  142.8700 C   0  0  0  0  0  2  0  0  0  0  0  0
  188.5810  177.6850  143.3340 N   0  0  0  0  0  0  0  0  0  0  0  0
  192.9920  176.5610  145.8970 O   0  0  0  0  0  1  0  0  0  0  0  0
  190.1830  174.9650  144.7120 C   0  0  2  0  0  3  0  0  0  0  0  0
  189.8010  177.0520  146.7110 C   0  0  0  0  0  0  0  0  0  0  0  0
  189.6090  178.0060  147.6080 C   0  0  0  0  0  2  0  0  0  0  0  0
  191.6820  174.7020  146.6540 C   0  0  0  0  0  2  0  0  0  0  0  0
  192.4760  175.3210  145.5200 C   0  0  1  0  0  3  0  0  0  0  0  0
  189.3790  175.6510  147.0090 C   0  0  0  0  0  2  0  0  0  0  0  0
  190.2300  174.6630  146.2110 C   0  0  1  0  0  3  0  0  0  0  0  0
  191.5750  175.4420  144.2900 C   0  0  2  0  0  3  0  0  0  0  0  0
  190.4030  177.3560  145.4900 O   0  0  0  0  0  0  0  0  0  0  0  0
  190.4190  176.4370  144.3850 C   0  0  1  0  0  0  0  0  0  0  0  0
  184.7530  179.0100  145.2810 N   0  0  0  0  0  0  0  0  0  0  0  0
  187.0240  178.2020  145.1440 N   0  0  0  0  0  2  0  0  0  0  0  0
  184.8000  177.5970  143.3260 C   0  0  0  0  0  2  0  0  0  0  0  0
  185.8650  178.6670  145.8590 C   0  0  0  0  0  0  0  0  0  0  0  0
  184.5020  178.9780  143.8530 C   0  0  0  0  0  2  0  0  0  0  0  0
  186.2330  177.5280  142.9130 C   0  0  0  0  0  0  0  0  0  0  0  0
  187.2300  177.8020  143.7760 C   0  0  0  0  0  0  0  0  0  0  0  0
  185.9610  178.8000  147.3350 C   0  0  0  0  0  1  0  0  0  0  0  0
  186.4550  176.9910  139.0620 C   0  0  0  0  0  1  0  0  0  0  0  0
  186.5720  177.1260  141.5730 N   0  0  0  0  0  2  0  0  0  0  0  0
  185.1590  178.5710  140.3170 N   0  0  0  0  0  2  0  0  0  0  0  0
  186.0030  177.5920  140.3430 C   0  0  0  0  0  0  0  0  0  0  0  0
  1  2  1  1  0  0  0
  1  3  1  0  0  0  0
  1 14  1  0  0  0  0
  2  3  1  0  0  0  0
  3 21  1  0  0  0  0
  5 11  1  0  0  0  0
  6 10  1  0  0  0  0
  6  7  2  0  0  0  0
  9  4  1  0  0  0  0
  9  8  1  0  0  0  0
 11  8  1  0  0  0  0
 11 10  1  0  0  0  0
 12 14  1  0  0  0  0
 12  5  1  0  0  0  0
 12  9  1  0  0  0  0
 13  6  1  0  0  0  0
 14  5  1  0  0  0  0
 14 13  1  0  0  0  0
 15 18  2  0  0  0  0
 16 18  1  0  0  0  0
 17 19  1  0  0  0  0
 18 22  1  0  0  0  0
 19 15  1  0  0  0  0
 20 17  1  0  0  0  0
 20 21  2  0  0  0  0
 21 16  1  0  0  0  0
 23 26  1  0  0  0  0
 24 20  1  0  0  0  0
 25 26  2  0  0  0  0
 26 24  1  0  0  0  0
M  END
>  <MODEL>
5

>  <REMARK>
 VINA RESULT:      -6.8      2.816      6.724
  Name = 
  3 active torsions:
  status: ('A' for Active; 'I' for Inactive)
    1  A    between atoms: C_2  and  C_26
    2  A    between atoms: N_12  and  C_21
    3  A    between atoms: N_18  and  C_19
                            x       y       z     vdW  Elec       q    Type
                         _______ _______ _______ _____ _____    ______ ____

>  <TORSDO>
F 3

$$$$
=
 OpenBabel11042417203D

 26 30  0  0  1  0  0  0  0  0999 V2000
  187.6890  175.6290  141.5200 C   0  0  2  0  0  3  0  0  0  0  0  0
  188.2700  176.8800  141.5260 C   0  0  0  0  0  2  0  0  0  0  0  0
  187.7050  176.3720  142.8130 N   0  0  0  0  0  0  0  0  0  0  0  0
  190.9100  173.2960  139.9430 O   0  0  0  0  0  1  0  0  0  0  0  0
  188.1380  173.1560  141.9780 C   0  0  2  0  0  3  0  0  0  0  0  0
  190.6140  174.1600  143.1450 C   0  0  0  0  0  0  0  0  0  0  0  0
  191.7260  174.6310  143.6870 C   0  0  0  0  0  2  0  0  0  0  0  0
  190.0670  171.6910  141.5120 C   0  0  0  0  0  2  0  0  0  0  0  0
  189.7940  172.5260  140.2760 C   0  0  1  0  0  3  0  0  0  0  0  0
  189.9760  172.9290  143.7000 C   0  0  0  0  0  2  0  0  0  0  0  0
  189.1670  172.2200  142.6140 C   0  0  1  0  0  3  0  0  0  0  0  0
  188.5680  173.4030  140.5300 C   0  0  2  0  0  3  0  0  0  0  0  0
  190.0420  174.8120  142.0520 O   0  0  0  0  0  0  0  0  0  0  0  0
  188.7210  174.5080  141.5760 C   0  0  1  0  0  0  0  0  0  0  0  0
  187.9410  177.1420  147.2350 N   0  0  0  0  0  0  0  0  0  0  0  0
  188.5340  176.1760  145.1030 N   0  0  0  0  0  2  0  0  0  0  0  0
  185.8460  176.8560  146.0710 C   0  0  0  0  0  2  0  0  0  0  0  0
  188.7270  176.4040  146.5110 C   0  0  0  0  0  0  0  0  0  0  0  0
  186.7630  177.8400  146.7550 C   0  0  0  0  0  2  0  0  0  0  0  0
  186.1980  176.7850  144.6220 C   0  0  0  0  0  0  0  0  0  0  0  0
  187.4380  176.4590  144.2110 C   0  0  0  0  0  0  0  0  0  0  0  0
  189.9160  175.7930  147.1600 C   0  0  0  0  0  1  0  0  0  0  0  0
  183.6180  178.3320  142.1480 C   0  0  0  0  0  1  0  0  0  0  0  0
  185.1860  177.0330  143.6280 N   0  0  0  0  0  2  0  0  0  0  0  0
  185.3100  179.4040  143.4680 N   0  0  0  0  0  2  0  0  0  0  0  0
  184.7300  178.2990  143.1330 C   0  0  0  0  0  0  0  0  0  0  0  0
  1  2  1  6  0  0  0
  1 14  1  0  0  0  0
  1  3  1  0  0  0  0
  2  3  1  0  0  0  0
  3 21  1  0  0  0  0
  4  9  1  0  0  0  0
  5 11  1  0  0  0  0
  6  7  2  0  0  0  0
  6 10  1  0  0  0  0
  8 11  1  0  0  0  0
  9 12  1  0  0  0  0
  9  8  1  0  0  0  0
 11 10  1  0  0  0  0
 12 14  1  0  0  0  0
 12  5  1  0  0  0  0
 13  6  1  0  0  0  0
 14  5  1  0  0  0  0
 14 13  1  0  0  0  0
 16 18  1  0  0  0  0
 17 19  1  0  0  0  0
 18 22  1  0  0  0  0
 18 15  2  0  0  0  0
 19 15  1  0  0  0  0
 20 17  1  0  0  0  0
 21 20  2  0  0  0  0
 21 16  1  0  0  0  0
 23 26  1  0  0  0  0
 24 20  1  0  0  0  0
 26 25  2  0  0  0  0
 26 24  1  0  0  0  0
M  END
>  <MODEL>
6

>  <REMARK>
 VINA RESULT:      -6.7      2.756      6.617
  Name = 
  3 active torsions:
  status: ('A' for Active; 'I' for Inactive)
    1  A    between atoms: C_2  and  C_26
    2  A    between atoms: N_12  and  C_21
    3  A    between atoms: N_18  and  C_19
                            x       y       z     vdW  Elec       q    Type
                         _______ _______ _______ _____ _____    ______ ____

>  <TORSDO>
F 3

$$$$
=
 OpenBabel11042417203D

 26 30  0  0  1  0  0  0  0  0999 V2000
  189.5510  177.6620  144.7190 C   0  0  2  0  0  3  0  0  0  0  0  0
  190.4660  177.9480  143.7270 C   0  0  0  0  0  2  0  0  0  0  0  0
  190.4380  176.5540  144.2620 N   0  0  0  0  0  0  0  0  0  0  0  0
  186.5140  175.3590  142.7750 O   0  0  0  0  0  1  0  0  0  0  0  0
  187.6530  178.5690  143.2690 C   0  0  2  0  0  3  0  0  0  0  0  0
  185.9580  177.4100  145.3380 C   0  0  0  0  0  0  0  0  0  0  0  0
  185.2010  176.8940  146.2940 C   0  0  0  0  0  2  0  0  0  0  0  0
  185.6080  177.5370  142.3510 C   0  0  0  0  0  2  0  0  0  0  0  0
  186.7620  176.5760  142.1400 C   0  0  1  0  0  3  0  0  0  0  0  0
  185.5120  178.6360  144.6120 C   0  0  0  0  0  2  0  0  0  0  0  0
  186.1280  178.6740  143.2130 C   0  0  1  0  0  3  0  0  0  0  0  0
  188.0480  177.2230  142.6560 C   0  0  2  0  0  3  0  0  0  0  0  0
  187.1700  176.8040  145.0070 O   0  0  0  0  0  0  0  0  0  0  0  0
  188.1470  177.4380  144.1660 C   0  0  1  0  0  0  0  0  0  0  0  0
  191.3320  172.2680  143.2440 N   0  0  0  0  0  0  0  0  0  0  0  0
  189.9870  174.2290  143.6600 N   0  0  0  0  0  0  0  0  0  0  0  0
  192.4830  173.4590  144.9990 C   0  0  0  0  0  2  0  0  0  0  0  0
  190.1750  172.8580  143.2650 C   0  0  0  0  0  0  0  0  0  0  0  0
  192.5950  172.8790  143.6110 C   0  0  0  0  0  2  0  0  0  0  0  0
  192.0110  174.8720  144.9030 C   0  0  1  0  0  3  0  0  0  0  0  0
  190.8550  175.1900  144.2910 C   0  0  0  0  0  0  0  0  0  0  0  0
  188.9840  172.0910  142.8180 C   0  0  0  0  0  1  0  0  0  0  0  0
  194.6730  177.5560  145.8430 C   0  0  0  0  0  1  0  0  0  0  0  0
  192.7840  175.9260  145.5080 N   0  0  0  0  0  2  0  0  0  0  0  0
  194.4720  176.2240  143.8580 N   0  0  0  0  0  2  0  0  0  0  0  0
  193.9950  176.5180  145.0220 C   0  0  0  0  0  0  0  0  0  0  0  0
  1  2  1  6  0  0  0
  2  3  1  0  0  0  0
  3 21  1  0  0  0  0
  3  1  1  0  0  0  0
  5 14  1  0  0  0  0
  6  7  2  0  0  0  0
  8 11  1  0  0  0  0
  9  8  1  0  0  0  0
  9 12  1  0  0  0  0
  9  4  1  0  0  0  0
 10  6  1  0  0  0  0
 11  5  1  0  0  0  0
 11 10  1  0  0  0  0
 12  5  1  0  0  0  0
 12 14  1  0  0  0  0
 13  6  1  0  0  0  0
 14  1  1  0  0  0  0
 14 13  1  0  0  0  0
 15 18  2  0  0  0  0
 15 19  1  0  0  0  0
 16 21  2  0  0  0  0
 18 16  1  0  0  0  0
 19 17  1  0  0  0  0
 20 17  1  0  0  0  0
 20 24  1  0  0  0  0
 21 20  1  0  0  0  0
 22 18  1  0  0  0  0
 25 26  2  0  0  0  0
 26 24  1  0  0  0  0
 26 23  1  0  0  0  0
M  END
>  <MODEL>
7

>  <REMARK>
 VINA RESULT:      -6.7      1.368      2.355
  Name = 
  3 active torsions:
  status: ('A' for Active; 'I' for Inactive)
    1  A    between atoms: C_2  and  C_26
    2  A    between atoms: N_12  and  C_21
    3  A    between atoms: N_18  and  C_19
                            x       y       z     vdW  Elec       q    Type
                         _______ _______ _______ _____ _____    ______ ____

>  <TORSDO>
F 3

$$$$
=
 OpenBabel11042417203D

 26 30  0  0  1  0  0  0  0  0999 V2000
  189.9570  176.8890  142.9380 C   0  0  2  0  0  3  0  0  0  0  0  0
  190.7230  177.5430  143.8820 C   0  0  0  0  0  2  0  0  0  0  0  0
  189.2610  177.3960  144.1560 N   0  0  0  0  0  0  0  0  0  0  0  0
  190.0190  173.1670  145.0460 O   0  0  0  0  0  1  0  0  0  0  0  0
  191.3180  174.8170  142.3200 C   0  0  2  0  0  3  0  0  0  0  0  0
  188.6920  173.5850  142.0210 C   0  0  0  0  0  0  0  0  0  0  0  0
  187.4930  173.0440  141.8730 C   0  0  0  0  0  2  0  0  0  0  0  0
  191.2700  172.4830  143.1190 C   0  0  0  0  0  2  0  0  0  0  0  0
  191.1890  173.4010  144.3240 C   0  0  1  0  0  3  0  0  0  0  0  0
  189.8270  173.1330  141.1630 C   0  0  0  0  0  2  0  0  0  0  0  0
  191.1560  173.3600  141.8840 C   0  0  1  0  0  3  0  0  0  0  0  0
  191.2710  174.8520  143.8500 C   0  0  2  0  0  3  0  0  0  0  0  0
  188.8950  174.5750  142.9840 O   0  0  0  0  0  0  0  0  0  0  0  0
  190.0880  175.3730  143.0330 C   0  0  1  0  0  0  0  0  0  0  0  0
  185.0420  177.8310  145.6430 N   0  0  0  0  0  0  0  0  0  0  0  0
  187.0690  178.4260  144.4730 N   0  0  0  0  0  0  0  0  0  0  0  0
  186.8350  177.0010  147.0300 C   0  0  0  0  0  2  0  0  0  0  0  0
  185.6940  178.6260  144.8490 C   0  0  0  0  0  0  0  0  0  0  0  0
  185.5820  176.6400  146.2710 C   0  0  0  0  0  2  0  0  0  0  0  0
  188.0130  176.8630  146.1240 C   0  0  1  0  0  3  0  0  0  0  0  0
  188.0940  177.5410  144.9630 C   0  0  0  0  0  0  0  0  0  0  0  0
  184.9710  179.7840  144.2620 C   0  0  0  0  0  1  0  0  0  0  0  0
  191.3330  175.3560  147.4930 C   0  0  0  0  0  1  0  0  0  0  0  0
  189.1140  176.0180  146.5070 N   0  0  0  0  0  2  0  0  0  0  0  0
  190.3920  177.5390  147.8160 N   0  0  0  0  0  2  0  0  0  0  0  0
  190.2760  176.3760  147.2660 C   0  0  0  0  0  0  0  0  0  0  0  0
  1 14  1  0  0  0  0
  1  2  1  1  0  0  0
  1  3  1  0  0  0  0
  2  3  1  0  0  0  0
  3 21  1  0  0  0  0
  5 14  1  0  0  0  0
  5 12  1  0  0  0  0
  6 13  1  0  0  0  0
  7  6  2  0  0  0  0
  8  9  1  0  0  0  0
  9  4  1  0  0  0  0
 10 11  1  0  0  0  0
 10  6  1  0  0  0  0
 11  5  1  0  0  0  0
 11  8  1  0  0  0  0
 12  9  1  0  0  0  0
 13 14  1  0  0  0  0
 14 12  1  0  0  0  0
 15 19  1  0  0  0  0
 16 18  1  0  0  0  0
 16 21  2  0  0  0  0
 18 15  2  0  0  0  0
 19 17  1  0  0  0  0
 20 24  1  0  0  0  0
 20 17  1  0  0  0  0
 21 20  1  0  0  0  0
 22 18  1  0  0  0  0
 24 26  1  0  0  0  0
 26 23  1  0  0  0  0
 26 25  2  0  0  0  0
M  END
>  <MODEL>
8

>  <REMARK>
 VINA RESULT:      -6.7      2.670      5.525
  Name = 
  3 active torsions:
  status: ('A' for Active; 'I' for Inactive)
    1  A    between atoms: C_2  and  C_26
    2  A    between atoms: N_12  and  C_21
    3  A    between atoms: N_18  and  C_19
                            x       y       z     vdW  Elec       q    Type
                         _______ _______ _______ _____ _____    ______ ____

>  <TORSDO>
F 3

$$$$
=
 OpenBabel11042417203D

 26 30  0  0  1  0  0  0  0  0999 V2000
  190.8130  176.2060  146.6820 C   0  0  2  0  0  3  0  0  0  0  0  0
  190.0330  175.1200  147.0250 C   0  0  0  0  0  2  0  0  0  0  0  0
  189.6490  175.8900  145.8030 N   0  0  0  0  0  0  0  0  0  0  0  0
  194.9610  175.1670  146.5540 O   0  0  0  0  0  1  0  0  0  0  0  0
  192.4310  176.6590  144.7590 C   0  0  2  0  0  3  0  0  0  0  0  0
  192.6150  173.7500  144.6620 C   0  0  0  0  0  0  0  0  0  0  0  0
  192.6760  172.4290  144.6180 C   0  0  0  0  0  2  0  0  0  0  0  0
  194.7190  175.8690  144.2740 C   0  0  0  0  0  2  0  0  0  0  0  0
  194.6490  176.2560  145.7390 C   0  0  1  0  0  3  0  0  0  0  0  0
  192.7620  174.5470  143.4070 C   0  0  0  0  0  2  0  0  0  0  0  0
  193.3040  175.9400  143.7270 C   0  0  1  0  0  3  0  0  0  0  0  0
  193.2520  176.7980  146.0440 C   0  0  2  0  0  3  0  0  0  0  0  0
  192.4200  174.3990  145.8820 O   0  0  0  0  0  0  0  0  0  0  0  0
  192.0990  175.7960  145.9730 C   0  0  1  0  0  0  0  0  0  0  0  0
  187.2090  175.4590  142.0530 N   0  0  0  0  0  0  0  0  0  0  0  0
  189.1580  175.3430  143.4740 N   0  0  0  0  0  0  0  0  0  0  0  0
  187.0490  177.3850  143.5000 C   0  0  0  0  0  2  0  0  0  0  0  0
  188.4460  175.1110  142.2440 C   0  0  0  0  0  0  0  0  0  0  0  0
  186.3630  176.1280  143.0240 C   0  0  0  0  0  2  0  0  0  0  0  0
  187.8880  177.0640  144.6920 C   0  0  1  0  0  3  0  0  0  0  0  0
  188.8550  176.1280  144.6430 C   0  0  0  0  0  0  0  0  0  0  0  0
  189.1540  174.3970  141.1510 C   0  0  0  0  0  1  0  0  0  0  0  0
  186.5580  178.5880  148.0200 C   0  0  0  0  0  1  0  0  0  0  0  0
  187.6930  177.7900  145.9190 N   0  0  0  0  0  2  0  0  0  0  0  0
  185.6790  176.7900  146.6970 N   0  0  0  0  0  2  0  0  0  0  0  0
  186.5960  177.6900  146.8370 C   0  0  0  0  0  0  0  0  0  0  0  0
  1  2  1  1  0  0  0
  3  1  1  0  0  0  0
  3  2  1  0  0  0  0
  5 14  1  0  0  0  0
  5 12  1  0  0  0  0
  6 13  1  0  0  0  0
  7  6  2  0  0  0  0
  8  9  1  0  0  0  0
  9 12  1  0  0  0  0
  9  4  1  0  0  0  0
 10 11  1  0  0  0  0
 10  6  1  0  0  0  0
 11  8  1  0  0  0  0
 11  5  1  0  0  0  0
 13 14  1  0  0  0  0
 14 12  1  0  0  0  0
 14  1  1  0  0  0  0
 15 18  2  0  0  0  0
 15 19  1  0  0  0  0
 16 21  2  0  0  0  0
 17 20  1  0  0  0  0
 18 16  1  0  0  0  0
 19 17  1  0  0  0  0
 20 24  1  0  0  0  0
 21 20  1  0  0  0  0
 21  3  1  0  0  0  0
 22 18  1  0  0  0  0
 24 26  1  0  0  0  0
 25 26  2  0  0  0  0
 26 23  1  0  0  0  0
M  END
>  <MODEL>
9

>  <REMARK>
 VINA RESULT:      -6.6      2.850      6.281
  Name = 
  3 active torsions:
  status: ('A' for Active; 'I' for Inactive)
    1  A    between atoms: C_2  and  C_26
    2  A    between atoms: N_12  and  C_21
    3  A    between atoms: N_18  and  C_19
                            x       y       z     vdW  Elec       q    Type
                         _______ _______ _______ _____ _____    ______ ____

>  <TORSDO>
F 3

$$$$
