=
 OpenBabel11042415283D

 42 45  0  0  1  0  0  0  0  0999 V2000
  186.0490  179.2980  146.1940 C   0  0  0  0  0  2  0  0  0  0  0  0
  186.5350  178.4910  145.0030 C   0  0  2  0  0  3  0  0  0  0  0  0
  190.9200  176.3350  145.1660 C   0  0  0  0  0  0  0  0  0  0  0  0
  181.8910  178.6260  140.2510 O   0  0  0  0  0  0  0  0  0  0  0  0
  181.6910  178.4900  141.4880 C   0  0  0  0  0  0  0  0  0  0  0  0
  189.7660  175.6920  143.1770 C   0  0  0  0  0  0  0  0  0  0  0  0
  184.1680  178.1810  141.9870 C   0  0  0  0  0  0  0  0  0  0  0  0
  182.7900  178.2680  142.3740 N   0  0  0  0  0  2  0  0  0  0  0  0
  189.5940  176.5690  145.8610 C   0  0  1  0  0  3  0  0  0  0  0  0
  185.2960  178.2130  144.2220 C   0  0  2  0  0  3  0  0  0  0  0  0
  185.9750  178.2410  140.7310 N   0  0  0  0  0  2  0  0  0  0  0  0
  189.7330  177.5020  146.8930 O   0  0  0  0  0  1  0  0  0  0  0  0
  188.5500  177.0570  144.8550 C   0  0  2  0  0  3  0  0  0  0  0  0
  189.8260  175.0980  142.0680 O   0  0  0  0  0  0  0  0  0  0  0  0
  185.2890  177.9540  142.9000 C   0  0  2  0  0  3  0  0  0  0  0  0
  184.5820  178.3640  140.7810 N   0  0  0  0  0  0  0  0  0  0  0  0
  187.1830  177.2160  145.5100 C   0  0  0  0  0  2  0  0  0  0  0  0
  190.9590  175.8950  143.9410 N   0  0  0  0  0  0  0  0  0  0  0  0
  184.5680  178.9910  146.3520 C   0  0  0  0  0  2  0  0  0  0  0  0
  184.0680  178.5690  144.9840 C   0  0  0  0  0  2  0  0  0  0  0  0
  186.4990  177.8050  142.0200 C   0  0  1  0  0  3  0  0  0  0  0  0
  187.2540  175.6440  143.1610 C   0  0  0  0  0  2  0  0  0  0  0  0
  188.5120  176.1630  143.6900 N   0  0  0  0  0  0  0  0  0  0  0  0
  186.8880  176.3320  141.8580 C   0  0  0  0  0  2  0  0  0  0  0  0
  179.2630  178.9810  141.4750 C   0  0  0  0  0  3  0  0  0  0  0  0
  180.3740  178.6030  142.0450 N   0  0  0  0  0  0  0  0  0  0  0  0
  178.3870  178.2940  139.1920 C   0  0  0  0  0  1  0  0  0  0  0  0
  179.0670  179.3590  140.0340 C   0  0  1  0  0  3  0  0  0  0  0  0
  177.7190  181.2330  140.5870 O   0  0  0  0  0  0  0  0  0  0  0  0
  178.5460  180.7530  139.8270 C   0  0  0  0  0  0  0  0  0  0  0  0
  179.2120  183.0110  139.0560 C   0  0  0  0  0  1  0  0  0  0  0  0
  179.0610  181.5520  138.6700 C   0  0  0  0  0  3  0  0  0  0  0  0
  178.1370  181.4280  137.4730 C   0  0  0  0  0  1  0  0  0  0  0  0
  192.2090  176.5600  145.8900 C   0  0  0  0  0  2  0  0  0  0  0  0
  193.3300  175.8570  145.2000 C   0  0  0  0  0  3  0  0  0  0  0  0
  194.5400  176.3020  145.3010 N   0  0  0  0  0  0  0  0  0  0  0  0
  195.6480  175.6650  144.6620 C   0  0  0  0  0  0  0  0  0  0  0  0
  195.8920  175.9640  143.0690 S   0  0  0  0  0  0  0  0  0  0  0  0
  196.1680  173.2550  145.4030 C   0  0  0  0  0  0  0  0  0  0  0  0
  195.2620  172.6340  144.4970 N   0  0  0  0  0  1  0  0  0  0  0  0
  196.4100  174.6690  145.3670 N   0  0  0  0  0  2  0  0  0  0  0  0
  196.7950  172.5450  146.2300 O   0  0  0  0  0  0  0  0  0  0  0  0
  1 19  1  0  0  0  0
  2 17  1  1  0  0  0
  2  1  1  0  0  0  0
  3  9  1  0  0  0  0
  3 34  1  0  0  0  0
  4  5  2  0  0  0  0
  5 26  1  0  0  0  0
  5  8  1  0  0  0  0
  6 23  1  0  0  0  0
  6 18  1  0  0  0  0
  7  8  1  0  0  0  0
  9 12  1  1  0  0  0
 10 20  1  6  0  0  0
 10  2  1  0  0  0  0
 11 16  1  0  0  0  0
 11 21  1  0  0  0  0
 13 17  1  1  0  0  0
 13  9  1  0  0  0  0
 14  6  2  0  0  0  0
 15  7  1  6  0  0  0
 15 10  1  0  0  0  0
 16  7  2  0  0  0  0
 18  3  2  0  0  0  0
 20 19  1  0  0  0  0
 21 24  1  6  0  0  0
 21 15  1  0  0  0  0
 22 23  1  0  0  0  0
 23 13  1  0  0  0  0
 24 22  1  0  0  0  0
 25 26  2  0  0  0  0
 28 27  1  1  0  0  0
 28 25  1  0  0  0  0
 30 28  1  0  0  0  0
 30 29  2  0  0  0  0
 32 31  1  0  0  0  0
 32 30  1  0  0  0  0
 33 32  1  0  0  0  0
 35 36  2  0  0  0  0
 35 34  1  0  0  0  0
 37 36  1  0  0  0  0
 37 41  1  0  0  0  0
 38 37  2  0  0  0  0
 39 42  2  0  0  0  0
 40 39  1  0  0  0  0
 41 39  1  0  0  0  0
M  END
>  <MODEL>
1

>  <REMARK>
 VINA RESULT:      -9.0      0.000      0.000
  Name = 
  8 active torsions:
  status: ('A' for Active; 'I' for Inactive)
    1  A    between atoms: C_3  and  C_13
    2  A    between atoms: C_6  and  C_25
    3  A    between atoms: C_8  and  N_33
    4  A    between atoms: C_11  and  C_14
    5  A    between atoms: C_11  and  C_25
    6  A    between atoms: C_13  and  C_15
    7  A    between atoms: N_20  and  C_21
    8  A    between atoms: C_21  and  N_24
                            x       y       z     vdW  Elec       q    Type
                         _______ _______ _______ _____ _____    ______ ____

>  <TORSDO>
F 8

$$$$
=
 OpenBabel11042415283D

 42 45  0  0  1  0  0  0  0  0999 V2000
  189.8240  175.4640  147.4490 C   0  0  0  0  0  2  0  0  0  0  0  0
  189.6500  175.1790  145.9680 C   0  0  2  0  0  3  0  0  0  0  0  0
  186.2690  177.6190  143.4130 C   0  0  0  0  0  0  0  0  0  0  0  0
  193.9870  170.4890  144.1370 O   0  0  0  0  0  0  0  0  0  0  0  0
  194.2160  171.4570  144.9090 C   0  0  0  0  0  0  0  0  0  0  0  0
  187.5830  176.2660  141.9490 C   0  0  0  0  0  0  0  0  0  0  0  0
  191.9930  172.5780  144.3760 C   0  0  0  0  0  0  0  0  0  0  0  0
  193.2550  172.5070  145.0510 N   0  0  0  0  0  2  0  0  0  0  0  0
  187.4320  177.7000  144.3830 C   0  0  1  0  0  3  0  0  0  0  0  0
  190.9130  174.4890  145.5790 C   0  0  2  0  0  3  0  0  0  0  0  0
  190.2800  171.9990  143.1180 N   0  0  0  0  0  2  0  0  0  0  0  0
  186.9770  177.9280  145.6850 O   0  0  0  0  0  1  0  0  0  0  0  0
  188.2500  176.4080  144.3350 C   0  0  2  0  0  3  0  0  0  0  0  0
  187.7350  175.8150  140.7830 O   0  0  0  0  0  0  0  0  0  0  0  0
  191.0140  173.6550  144.5270 C   0  0  2  0  0  3  0  0  0  0  0  0
  191.5470  171.6500  143.6010 N   0  0  0  0  0  0  0  0  0  0  0  0
  189.4770  176.4960  145.2350 C   0  0  0  0  0  2  0  0  0  0  0  0
  186.3900  176.9800  142.2850 N   0  0  0  0  0  0  0  0  0  0  0  0
  191.3200  175.4430  147.7220 C   0  0  0  0  0  2  0  0  0  0  0  0
  191.9400  174.5660  146.6530 C   0  0  0  0  0  2  0  0  0  0  0  0
  189.9320  173.3560  143.5250 C   0  0  1  0  0  3  0  0  0  0  0  0
  189.9590  175.7240  142.5580 C   0  0  0  0  0  2  0  0  0  0  0  0
  188.5970  176.0800  142.9460 N   0  0  0  0  0  0  0  0  0  0  0  0
  190.0730  174.2350  142.2790 C   0  0  0  0  0  2  0  0  0  0  0  0
  196.4590  172.2790  145.5660 C   0  0  0  0  0  3  0  0  0  0  0  0
  195.4120  171.5120  145.7000 N   0  0  0  0  0  0  0  0  0  0  0  0
  196.5890  172.8930  143.1060 C   0  0  0  0  0  1  0  0  0  0  0  0
  196.6630  173.3640  144.5480 C   0  0  1  0  0  3  0  0  0  0  0  0
  195.6630  174.9680  145.9850 O   0  0  0  0  0  0  0  0  0  0  0  0
  195.9080  174.6310  144.8360 C   0  0  0  0  0  0  0  0  0  0  0  0
  196.3520  176.6980  143.5460 C   0  0  0  0  0  1  0  0  0  0  0  0
  195.4580  175.4810  143.6880 C   0  0  0  0  0  3  0  0  0  0  0  0
  194.0170  175.9180  143.8700 C   0  0  0  0  0  1  0  0  0  0  0  0
  184.9780  178.3110  143.7140 C   0  0  0  0  0  2  0  0  0  0  0  0
  184.0800  178.2880  142.5230 C   0  0  0  0  0  3  0  0  0  0  0  0
  182.8170  178.5370  142.6540 N   0  0  0  0  0  0  0  0  0  0  0  0
  181.9150  178.5290  141.5460 C   0  0  0  0  0  0  0  0  0  0  0  0
  182.3820  177.7570  140.1780 S   0  0  0  0  0  0  0  0  0  0  0  0
  179.3650  178.8450  141.7100 C   0  0  0  0  0  0  0  0  0  0  0  0
  179.0820  177.4970  142.0690 N   0  0  0  0  0  1  0  0  0  0  0  0
  180.7140  179.3200  141.5910 N   0  0  0  0  0  2  0  0  0  0  0  0
  178.4130  179.6460  141.5250 O   0  0  0  0  0  0  0  0  0  0  0  0
  1 19  1  0  0  0  0
  2 17  1  6  0  0  0
  2  1  1  0  0  0  0
  3 34  1  0  0  0  0
  3  9  1  0  0  0  0
  4  5  2  0  0  0  0
  5  8  1  0  0  0  0
  5 26  1  0  0  0  0
  6 18  1  0  0  0  0
  6 23  1  0  0  0  0
  7  8  1  0  0  0  0
  9 12  1  1  0  0  0
 10  2  1  0  0  0  0
 10 20  1  1  0  0  0
 11 21  1  0  0  0  0
 11 16  1  0  0  0  0
 13  9  1  0  0  0  0
 13 17  1  1  0  0  0
 14  6  2  0  0  0  0
 15  7  1  1  0  0  0
 15 10  1  0  0  0  0
 16  7  2  0  0  0  0
 18  3  2  0  0  0  0
 20 19  1  0  0  0  0
 21 24  1  6  0  0  0
 21 15  1  0  0  0  0
 22 23  1  0  0  0  0
 23 13  1  0  0  0  0
 24 22  1  0  0  0  0
 25 26  2  0  0  0  0
 28 27  1  6  0  0  0
 28 30  1  0  0  0  0
 28 25  1  0  0  0  0
 30 29  2  0  0  0  0
 31 32  1  0  0  0  0
 32 33  1  0  0  0  0
 32 30  1  0  0  0  0
 35 36  2  0  0  0  0
 35 34  1  0  0  0  0
 37 41  1  0  0  0  0
 37 36  1  0  0  0  0
 38 37  2  0  0  0  0
 39 40  1  0  0  0  0
 41 39  1  0  0  0  0
 42 39  2  0  0  0  0
M  END
>  <MODEL>
2

>  <REMARK>
 VINA RESULT:      -8.8      3.126     12.411
  Name = 
  8 active torsions:
  status: ('A' for Active; 'I' for Inactive)
    1  A    between atoms: C_3  and  C_13
    2  A    between atoms: C_6  and  C_25
    3  A    between atoms: C_8  and  N_33
    4  A    between atoms: C_11  and  C_14
    5  A    between atoms: C_11  and  C_25
    6  A    between atoms: C_13  and  C_15
    7  A    between atoms: N_20  and  C_21
    8  A    between atoms: C_21  and  N_24
                            x       y       z     vdW  Elec       q    Type
                         _______ _______ _______ _____ _____    ______ ____

>  <TORSDO>
F 8

$$$$
=
 OpenBabel11042415283D

 42 45  0  0  1  0  0  0  0  0999 V2000
  186.7380  177.1440  146.5940 C   0  0  0  0  0  2  0  0  0  0  0  0
  186.8530  177.0380  145.0830 C   0  0  2  0  0  3  0  0  0  0  0  0
  183.1470  178.5290  142.2640 C   0  0  0  0  0  0  0  0  0  0  0  0
  192.7640  174.4270  143.5340 O   0  0  0  0  0  0  0  0  0  0  0  0
  192.5390  175.2910  144.4230 C   0  0  0  0  0  0  0  0  0  0  0  0
  185.0200  177.9350  140.9070 C   0  0  0  0  0  0  0  0  0  0  0  0
  190.1410  175.6530  143.6470 C   0  0  0  0  0  0  0  0  0  0  0  0
  191.2570  175.9180  144.5080 N   0  0  0  0  0  2  0  0  0  0  0  0
  184.0820  178.8570  143.4110 C   0  0  1  0  0  3  0  0  0  0  0  0
  188.3160  176.8840  144.8390 C   0  0  2  0  0  3  0  0  0  0  0  0
  188.9090  174.7180  142.0800 N   0  0  0  0  0  2  0  0  0  0  0  0
  183.4260  178.7220  144.6380 O   0  0  0  0  0  1  0  0  0  0  0  0
  185.3070  177.9420  143.3720 C   0  0  2  0  0  3  0  0  0  0  0  0
  185.4590  177.7390  139.7430 O   0  0  0  0  0  0  0  0  0  0  0  0
  188.8310  176.2980  143.7410 C   0  0  2  0  0  3  0  0  0  0  0  0
  190.1510  174.7540  142.7250 N   0  0  0  0  0  0  0  0  0  0  0  0
  186.3070  178.3100  144.4620 C   0  0  0  0  0  2  0  0  0  0  0  0
  183.6190  178.1420  141.1130 N   0  0  0  0  0  0  0  0  0  0  0  0
  188.1000  177.5940  147.1020 C   0  0  0  0  0  2  0  0  0  0  0  0
  189.1140  177.1470  146.0670 C   0  0  0  0  0  2  0  0  0  0  0  0
  188.0530  175.7990  142.5540 C   0  0  1  0  0  3  0  0  0  0  0  0
  187.3440  178.1500  141.8370 C   0  0  0  0  0  2  0  0  0  0  0  0
  185.9090  177.9600  142.0320 N   0  0  0  0  0  0  0  0  0  0  0  0
  188.0150  176.8470  141.4380 C   0  0  0  0  0  2  0  0  0  0  0  0
  194.8330  175.6750  145.2760 C   0  0  0  0  0  3  0  0  0  0  0  0
  193.5350  175.6330  145.3980 N   0  0  0  0  0  0  0  0  0  0  0  0
  196.3510  176.6350  143.4800 C   0  0  0  0  0  1  0  0  0  0  0  0
  195.6350  175.4150  144.0320 C   0  0  1  0  0  3  0  0  0  0  0  0
  197.5370  174.0980  143.4980 O   0  0  0  0  0  0  0  0  0  0  0  0
  196.4680  174.1650  144.0860 C   0  0  0  0  0  0  0  0  0  0  0  0
  196.9220  172.6750  146.0120 C   0  0  0  0  0  1  0  0  0  0  0  0
  195.9680  172.9970  144.8790 C   0  0  0  0  0  3  0  0  0  0  0  0
  195.7900  171.7790  143.9920 C   0  0  0  0  0  1  0  0  0  0  0  0
  181.6680  178.6880  142.4170 C   0  0  0  0  0  2  0  0  0  0  0  0
  181.0710  179.2700  141.1800 C   0  0  0  0  0  3  0  0  0  0  0  0
  179.8220  179.6060  141.1540 N   0  0  0  0  0  0  0  0  0  0  0  0
  179.2020  180.1680  139.9970 C   0  0  0  0  0  0  0  0  0  0  0  0
  178.1860  179.2180  139.1290 S   0  0  0  0  0  0  0  0  0  0  0  0
  178.8660  182.6980  139.6510 C   0  0  0  0  0  0  0  0  0  0  0  0
  177.7360  182.8050  140.5110 N   0  0  0  0  0  1  0  0  0  0  0  0
  179.5990  181.4700  139.5290 N   0  0  0  0  0  2  0  0  0  0  0  0
  179.2490  183.7090  139.0090 O   0  0  0  0  0  0  0  0  0  0  0  0
  1 19  1  0  0  0  0
  2 17  1  6  0  0  0
  2  1  1  0  0  0  0
  3 34  1  0  0  0  0
  3  9  1  0  0  0  0
  4  5  2  0  0  0  0
  5  8  1  0  0  0  0
  5 26  1  0  0  0  0
  6 18  1  0  0  0  0
  6 23  1  0  0  0  0
  7  8  1  0  0  0  0
  9 12  1  1  0  0  0
 10  2  1  0  0  0  0
 10 20  1  1  0  0  0
 11 21  1  0  0  0  0
 11 16  1  0  0  0  0
 13  9  1  0  0  0  0
 13 17  1  1  0  0  0
 14  6  2  0  0  0  0
 15  7  1  1  0  0  0
 15 10  1  0  0  0  0
 16  7  2  0  0  0  0
 18  3  2  0  0  0  0
 20 19  1  0  0  0  0
 21 24  1  6  0  0  0
 21 15  1  0  0  0  0
 22 23  1  0  0  0  0
 23 13  1  0  0  0  0
 24 22  1  0  0  0  0
 25 26  2  0  0  0  0
 28 27  1  1  0  0  0
 28 30  1  0  0  0  0
 28 25  1  0  0  0  0
 29 30  2  0  0  0  0
 30 32  1  0  0  0  0
 32 31  1  0  0  0  0
 33 32  1  0  0  0  0
 35 34  1  0  0  0  0
 36 35  2  0  0  0  0
 37 36  1  0  0  0  0
 38 37  2  0  0  0  0
 39 40  1  0  0  0  0
 41 39  1  0  0  0  0
 41 37  1  0  0  0  0
 42 39  2  0  0  0  0
M  END
>  <MODEL>
3

>  <REMARK>
 VINA RESULT:      -8.8      3.461     12.961
  Name = 
  8 active torsions:
  status: ('A' for Active; 'I' for Inactive)
    1  A    between atoms: C_3  and  C_13
    2  A    between atoms: C_6  and  C_25
    3  A    between atoms: C_8  and  N_33
    4  A    between atoms: C_11  and  C_14
    5  A    between atoms: C_11  and  C_25
    6  A    between atoms: C_13  and  C_15
    7  A    between atoms: N_20  and  C_21
    8  A    between atoms: C_21  and  N_24
                            x       y       z     vdW  Elec       q    Type
                         _______ _______ _______ _____ _____    ______ ____

>  <TORSDO>
F 8

$$$$
=
 OpenBabel11042415283D

 42 45  0  0  1  0  0  0  0  0999 V2000
  188.4290  176.1430  146.8720 C   0  0  0  0  0  2  0  0  0  0  0  0
  188.2770  176.0700  145.3630 C   0  0  2  0  0  3  0  0  0  0  0  0
  184.6380  178.4990  143.1780 C   0  0  0  0  0  0  0  0  0  0  0  0
  193.0780  172.2050  142.8800 O   0  0  0  0  0  0  0  0  0  0  0  0
  193.2080  173.0630  143.7940 C   0  0  0  0  0  0  0  0  0  0  0  0
  186.0800  177.5340  141.5370 C   0  0  0  0  0  0  0  0  0  0  0  0
  190.8740  174.0080  143.4150 C   0  0  0  0  0  0  0  0  0  0  0  0
  192.1410  173.9700  144.0850 N   0  0  0  0  0  2  0  0  0  0  0  0
  185.7920  178.5530  144.1600 C   0  0  1  0  0  3  0  0  0  0  0  0
  189.6040  175.5860  144.8860 C   0  0  2  0  0  3  0  0  0  0  0  0
  189.2250  173.4500  142.0670 N   0  0  0  0  0  2  0  0  0  0  0  0
  185.3240  178.5300  145.4770 O   0  0  0  0  0  1  0  0  0  0  0  0
  186.7430  177.3790  143.9230 C   0  0  2  0  0  3  0  0  0  0  0  0
  186.2720  177.2850  140.3170 O   0  0  0  0  0  0  0  0  0  0  0  0
  189.7860  174.9390  143.7190 C   0  0  2  0  0  3  0  0  0  0  0  0
  190.5250  173.1680  142.5040 N   0  0  0  0  0  0  0  0  0  0  0  0
  187.9590  177.4590  144.8380 C   0  0  0  0  0  2  0  0  0  0  0  0
  184.8190  178.0570  141.9660 N   0  0  0  0  0  0  0  0  0  0  0  0
  189.9210  176.2400  147.1540 C   0  0  0  0  0  2  0  0  0  0  0  0
  190.6240  175.6080  145.9690 C   0  0  0  0  0  2  0  0  0  0  0  0
  188.7360  174.6830  142.6730 C   0  0  1  0  0  3  0  0  0  0  0  0
  188.5040  177.1610  142.0800 C   0  0  0  0  0  2  0  0  0  0  0  0
  187.1140  177.3060  142.5040 N   0  0  0  0  0  0  0  0  0  0  0  0
  188.7740  175.7530  141.5780 C   0  0  0  0  0  2  0  0  0  0  0  0
  195.2080  174.1230  144.7990 C   0  0  0  0  0  3  0  0  0  0  0  0
  194.3960  173.1230  144.5950 N   0  0  0  0  0  0  0  0  0  0  0  0
  194.7890  176.5730  145.3240 C   0  0  0  0  0  1  0  0  0  0  0  0
  195.0740  175.5220  144.2650 C   0  0  1  0  0  3  0  0  0  0  0  0
  197.3150  175.7480  143.5150 O   0  0  0  0  0  0  0  0  0  0  0  0
  196.1290  175.9040  143.2660 C   0  0  0  0  0  0  0  0  0  0  0  0
  194.2990  176.0260  141.6020 C   0  0  0  0  0  1  0  0  0  0  0  0
  195.7030  176.4810  141.9510 C   0  0  0  0  0  3  0  0  0  0  0  0
  196.6640  176.0810  140.8480 C   0  0  0  0  0  1  0  0  0  0  0  0
  183.2830  178.9950  143.5680 C   0  0  0  0  0  2  0  0  0  0  0  0
  182.2910  178.7190  142.4880 C   0  0  0  0  0  3  0  0  0  0  0  0
  181.1370  179.3040  142.4970 N   0  0  0  0  0  0  0  0  0  0  0  0
  180.1530  179.0750  141.4870 C   0  0  0  0  0  0  0  0  0  0  0  0
  179.8750  180.2700  140.4000 S   0  0  0  0  0  0  0  0  0  0  0  0
  178.4720  177.4850  142.6170 C   0  0  0  0  0  0  0  0  0  0  0  0
  178.1420  178.3690  143.6830 N   0  0  0  0  0  1  0  0  0  0  0  0
  179.3270  177.8980  141.5410 N   0  0  0  0  0  2  0  0  0  0  0  0
  177.9770  176.3290  142.5990 O   0  0  0  0  0  0  0  0  0  0  0  0
  1 19  1  0  0  0  0
  2 17  1  6  0  0  0
  2  1  1  0  0  0  0
  3 34  1  0  0  0  0
  3  9  1  0  0  0  0
  4  5  2  0  0  0  0
  5  8  1  0  0  0  0
  5 26  1  0  0  0  0
  6 18  1  0  0  0  0
  6 23  1  0  0  0  0
  7  8  1  0  0  0  0
  9 12  1  1  0  0  0
 10  2  1  0  0  0  0
 10 20  1  1  0  0  0
 11 16  1  0  0  0  0
 11 21  1  0  0  0  0
 13  9  1  0  0  0  0
 13 17  1  1  0  0  0
 14  6  2  0  0  0  0
 15  7  1  1  0  0  0
 15 10  1  0  0  0  0
 16  7  2  0  0  0  0
 18  3  2  0  0  0  0
 20 19  1  0  0  0  0
 21 24  1  6  0  0  0
 21 15  1  0  0  0  0
 22 23  1  0  0  0  0
 23 13  1  0  0  0  0
 24 22  1  0  0  0  0
 26 25  2  0  0  0  0
 28 25  1  0  0  0  0
 28 27  1  1  0  0  0
 30 29  2  0  0  0  0
 30 28  1  0  0  0  0
 31 32  1  0  0  0  0
 32 30  1  0  0  0  0
 33 32  1  0  0  0  0
 35 36  2  0  0  0  0
 35 34  1  0  0  0  0
 37 41  1  0  0  0  0
 37 36  1  0  0  0  0
 38 37  2  0  0  0  0
 39 40  1  0  0  0  0
 41 39  1  0  0  0  0
 42 39  2  0  0  0  0
M  END
>  <MODEL>
4

>  <REMARK>
 VINA RESULT:      -8.6      3.632     12.148
  Name = 
  8 active torsions:
  status: ('A' for Active; 'I' for Inactive)
    1  A    between atoms: C_3  and  C_13
    2  A    between atoms: C_6  and  C_25
    3  A    between atoms: C_8  and  N_33
    4  A    between atoms: C_11  and  C_14
    5  A    between atoms: C_11  and  C_25
    6  A    between atoms: C_13  and  C_15
    7  A    between atoms: N_20  and  C_21
    8  A    between atoms: C_21  and  N_24
                            x       y       z     vdW  Elec       q    Type
                         _______ _______ _______ _____ _____    ______ ____

>  <TORSDO>
F 8

$$$$
=
 OpenBabel11042415283D

 42 45  0  0  1  0  0  0  0  0999 V2000
  186.7450  176.6180  146.8090 C   0  0  0  0  0  2  0  0  0  0  0  0
  186.8330  176.5470  145.2950 C   0  0  2  0  0  3  0  0  0  0  0  0
  183.3750  178.6720  142.5680 C   0  0  0  0  0  0  0  0  0  0  0  0
  192.2760  173.1350  143.5940 O   0  0  0  0  0  0  0  0  0  0  0  0
  192.1890  173.9930  144.5130 C   0  0  0  0  0  0  0  0  0  0  0  0
  185.1290  177.8510  141.1710 C   0  0  0  0  0  0  0  0  0  0  0  0
  189.8670  174.7360  143.7770 C   0  0  0  0  0  0  0  0  0  0  0  0
  191.0150  174.8010  144.6330 N   0  0  0  0  0  2  0  0  0  0  0  0
  184.3550  178.8170  143.7150 C   0  0  1  0  0  3  0  0  0  0  0  0
  188.2550  176.1840  145.0290 C   0  0  2  0  0  3  0  0  0  0  0  0
  188.4990  174.0500  142.1940 N   0  0  0  0  0  2  0  0  0  0  0  0
  183.6950  178.7400  144.9450 O   0  0  0  0  0  1  0  0  0  0  0  0
  185.4300  177.7310  143.6320 C   0  0  2  0  0  3  0  0  0  0  0  0
  185.5260  177.6310  139.9970 O   0  0  0  0  0  0  0  0  0  0  0  0
  188.6690  175.5660  143.9070 C   0  0  2  0  0  3  0  0  0  0  0  0
  189.7360  173.8770  142.8260 N   0  0  0  0  0  0  0  0  0  0  0  0
  186.4800  177.9070  144.7220 C   0  0  0  0  0  2  0  0  0  0  0  0
  183.7770  178.2590  141.4000 N   0  0  0  0  0  0  0  0  0  0  0  0
  188.1620  176.8410  147.3160 C   0  0  0  0  0  2  0  0  0  0  0  0
  189.0910  176.2830  146.2560 C   0  0  0  0  0  2  0  0  0  0  0  0
  187.8180  175.2300  142.7130 C   0  0  1  0  0  3  0  0  0  0  0  0
  187.4640  177.6840  142.0810 C   0  0  0  0  0  2  0  0  0  0  0  0
  186.0190  177.7040  142.2870 N   0  0  0  0  0  0  0  0  0  0  0  0
  187.9300  176.3090  141.6320 C   0  0  0  0  0  2  0  0  0  0  0  0
  194.2550  174.9550  145.4820 C   0  0  0  0  0  3  0  0  0  0  0  0
  193.2300  174.1480  145.4870 N   0  0  0  0  0  0  0  0  0  0  0  0
  194.9540  177.3510  145.0130 C   0  0  0  0  0  1  0  0  0  0  0  0
  194.5880  175.9910  144.4460 C   0  0  1  0  0  3  0  0  0  0  0  0
  195.5340  174.3150  143.0540 O   0  0  0  0  0  0  0  0  0  0  0  0
  195.4930  175.4990  143.3510 C   0  0  0  0  0  0  0  0  0  0  0  0
  196.0620  176.4460  141.1340 C   0  0  0  0  0  1  0  0  0  0  0  0
  196.3490  176.4900  142.6230 C   0  0  0  0  0  3  0  0  0  0  0  0
  197.8200  176.2220  142.8740 C   0  0  0  0  0  1  0  0  0  0  0  0
  181.9380  179.0450  142.7440 C   0  0  0  0  0  2  0  0  0  0  0  0
  181.2380  179.0780  141.4260 C   0  0  0  0  0  3  0  0  0  0  0  0
  179.9520  179.2070  141.3730 N   0  0  0  0  0  0  0  0  0  0  0  0
  179.2350  179.2450  140.1390 C   0  0  0  0  0  0  0  0  0  0  0  0
  178.5180  177.8640  139.6220 S   0  0  0  0  0  0  0  0  0  0  0  0
  178.4900  181.6020  139.4200 C   0  0  0  0  0  0  0  0  0  0  0  0
  177.6920  181.8520  140.5720 N   0  0  0  0  0  1  0  0  0  0  0  0
  179.2940  180.4190  139.3090 N   0  0  0  0  0  2  0  0  0  0  0  0
  178.5170  182.4530  138.4940 O   0  0  0  0  0  0  0  0  0  0  0  0
  1 19  1  0  0  0  0
  2 17  1  6  0  0  0
  2  1  1  0  0  0  0
  3 34  1  0  0  0  0
  3  9  1  0  0  0  0
  4  5  2  0  0  0  0
  5  8  1  0  0  0  0
  5 26  1  0  0  0  0
  6 18  1  0  0  0  0
  6 23  1  0  0  0  0
  7  8  1  0  0  0  0
  9 12  1  1  0  0  0
 10  2  1  0  0  0  0
 10 20  1  1  0  0  0
 11 21  1  0  0  0  0
 11 16  1  0  0  0  0
 13  9  1  0  0  0  0
 13 17  1  1  0  0  0
 14  6  2  0  0  0  0
 15  7  1  1  0  0  0
 15 10  1  0  0  0  0
 16  7  2  0  0  0  0
 18  3  2  0  0  0  0
 20 19  1  0  0  0  0
 21 24  1  6  0  0  0
 21 15  1  0  0  0  0
 22 23  1  0  0  0  0
 23 13  1  0  0  0  0
 24 22  1  0  0  0  0
 25 26  2  0  0  0  0
 28 27  1  1  0  0  0
 28 25  1  0  0  0  0
 29 30  2  0  0  0  0
 30 28  1  0  0  0  0
 31 32  1  0  0  0  0
 32 33  1  0  0  0  0
 32 30  1  0  0  0  0
 35 34  1  0  0  0  0
 36 35  2  0  0  0  0
 37 36  1  0  0  0  0
 38 37  2  0  0  0  0
 39 40  1  0  0  0  0
 41 39  1  0  0  0  0
 41 37  1  0  0  0  0
 42 39  2  0  0  0  0
M  END
>  <MODEL>
5

>  <REMARK>
 VINA RESULT:      -8.5      3.492     12.519
  Name = 
  8 active torsions:
  status: ('A' for Active; 'I' for Inactive)
    1  A    between atoms: C_3  and  C_13
    2  A    between atoms: C_6  and  C_25
    3  A    between atoms: C_8  and  N_33
    4  A    between atoms: C_11  and  C_14
    5  A    between atoms: C_11  and  C_25
    6  A    between atoms: C_13  and  C_15
    7  A    between atoms: N_20  and  C_21
    8  A    between atoms: C_21  and  N_24
                            x       y       z     vdW  Elec       q    Type
                         _______ _______ _______ _____ _____    ______ ____

>  <TORSDO>
F 8

$$$$
=
 OpenBabel11042415283D

 42 45  0  0  1  0  0  0  0  0999 V2000
  189.5330  173.8140  141.9740 C   0  0  0  0  0  2  0  0  0  0  0  0
  190.3790  174.5410  143.0040 C   0  0  2  0  0  3  0  0  0  0  0  0
  195.1690  175.1330  142.2210 C   0  0  0  0  0  0  0  0  0  0  0  0
  186.5000  176.4160  148.0630 O   0  0  0  0  0  0  0  0  0  0  0  0
  186.2120  176.4780  146.8380 C   0  0  0  0  0  0  0  0  0  0  0  0
  194.5080  176.3200  144.1840 C   0  0  0  0  0  0  0  0  0  0  0  0
  188.5880  175.9150  146.1180 C   0  0  0  0  0  0  0  0  0  0  0  0
  187.2170  176.2380  145.8500 N   0  0  0  0  0  2  0  0  0  0  0  0
  193.7650  175.2680  141.6660 C   0  0  1  0  0  3  0  0  0  0  0  0
  189.3860  175.2860  143.8300 C   0  0  2  0  0  3  0  0  0  0  0  0
  190.4180  175.4060  147.2320 N   0  0  0  0  0  2  0  0  0  0  0  0
  193.4880  174.2390  140.7620 O   0  0  0  0  0  1  0  0  0  0  0  0
  192.7430  175.2530  142.8040 C   0  0  2  0  0  3  0  0  0  0  0  0
  194.8770  176.9750  145.1950 O   0  0  0  0  0  0  0  0  0  0  0  0
  189.6120  175.6700  145.1010 C   0  0  2  0  0  3  0  0  0  0  0  0
  189.0590  175.7360  147.3030 N   0  0  0  0  0  0  0  0  0  0  0  0
  191.3290  175.4770  142.2810 C   0  0  0  0  0  2  0  0  0  0  0  0
  195.4830  175.6630  143.3680 N   0  0  0  0  0  0  0  0  0  0  0  0
  188.2130  174.5660  141.8860 C   0  0  0  0  0  2  0  0  0  0  0  0
  188.0300  175.2670  143.2170 C   0  0  0  0  0  2  0  0  0  0  0  0
  190.9000  175.5110  145.8600 C   0  0  1  0  0  3  0  0  0  0  0  0
  192.1560  177.1790  144.3820 C   0  0  0  0  0  2  0  0  0  0  0  0
  193.1200  176.2290  143.8350 N   0  0  0  0  0  0  0  0  0  0  0  0
  191.7450  176.7870  145.7910 C   0  0  0  0  0  2  0  0  0  0  0  0
  184.3350  177.8570  145.9930 C   0  0  0  0  0  3  0  0  0  0  0  0
  184.8710  176.7390  146.4020 N   0  0  0  0  0  0  0  0  0  0  0  0
  186.0580  179.4910  146.8940 C   0  0  0  0  0  1  0  0  0  0  0  0
  185.0220  179.1820  145.8270 C   0  0  1  0  0  3  0  0  0  0  0  0
  185.6440  180.6270  144.0480 O   0  0  0  0  0  0  0  0  0  0  0  0
  185.4600  179.4780  144.4200 C   0  0  0  0  0  0  0  0  0  0  0  0
  186.9860  178.4920  142.7370 C   0  0  0  0  0  1  0  0  0  0  0  0
  185.6700  178.3360  143.4740 C   0  0  0  0  0  3  0  0  0  0  0  0
  184.5290  178.2410  142.4790 C   0  0  0  0  0  1  0  0  0  0  0  0
  196.2320  174.4280  141.4400 C   0  0  0  0  0  2  0  0  0  0  0  0
  196.6550  173.1780  142.1370 C   0  0  0  0  0  3  0  0  0  0  0  0
  195.7860  172.2610  142.4170 N   0  0  0  0  0  0  0  0  0  0  0  0
  196.1390  171.0480  143.0820 C   0  0  0  0  0  0  0  0  0  0  0  0
  197.3340  170.1330  142.4310 S   0  0  0  0  0  0  0  0  0  0  0  0
  195.6660  170.6710  145.5850 C   0  0  0  0  0  0  0  0  0  0  0  0
  196.7220  171.5040  146.0510 N   0  0  0  0  0  1  0  0  0  0  0  0
  195.3480  170.5770  144.1880 N   0  0  0  0  0  2  0  0  0  0  0  0
  194.9750  170.0280  146.4160 O   0  0  0  0  0  0  0  0  0  0  0  0
  2  1  1  6  0  0  0
  2 10  1  0  0  0  0
  3 18  2  0  0  0  0
  5  4  2  0  0  0  0
  6 14  2  0  0  0  0
  7 16  2  0  0  0  0
  8  7  1  0  0  0  0
  8  5  1  0  0  0  0
  9 12  1  6  0  0  0
  9  3  1  0  0  0  0
  9 13  1  0  0  0  0
 10 20  1  1  0  0  0
 10 15  1  0  0  0  0
 11 16  1  0  0  0  0
 13 17  1  6  0  0  0
 13 23  1  0  0  0  0
 15 21  1  0  0  0  0
 15  7  1  1  0  0  0
 17  2  1  0  0  0  0
 18  6  1  0  0  0  0
 19  1  1  0  0  0  0
 19 20  1  0  0  0  0
 21 24  1  1  0  0  0
 21 11  1  0  0  0  0
 22 24  1  0  0  0  0
 23  6  1  0  0  0  0
 23 22  1  0  0  0  0
 25 26  2  0  0  0  0
 26  5  1  0  0  0  0
 28 25  1  0  0  0  0
 28 27  1  1  0  0  0
 29 30  2  0  0  0  0
 30 28  1  0  0  0  0
 31 32  1  0  0  0  0
 32 30  1  0  0  0  0
 33 32  1  0  0  0  0
 34 35  1  0  0  0  0
 34  3  1  0  0  0  0
 35 36  2  0  0  0  0
 36 37  1  0  0  0  0
 37 41  1  0  0  0  0
 38 37  2  0  0  0  0
 39 40  1  0  0  0  0
 39 42  2  0  0  0  0
 41 39  1  0  0  0  0
M  END
>  <MODEL>
6

>  <REMARK>
 VINA RESULT:      -8.0      4.202      6.639
  Name = 
  8 active torsions:
  status: ('A' for Active; 'I' for Inactive)
    1  A    between atoms: C_3  and  C_13
    2  A    between atoms: C_6  and  C_25
    3  A    between atoms: C_8  and  N_33
    4  A    between atoms: C_11  and  C_14
    5  A    between atoms: C_11  and  C_25
    6  A    between atoms: C_13  and  C_15
    7  A    between atoms: N_20  and  C_21
    8  A    between atoms: C_21  and  N_24
                            x       y       z     vdW  Elec       q    Type
                         _______ _______ _______ _____ _____    ______ ____

>  <TORSDO>
F 8

$$$$
=
 OpenBabel11042415283D

 42 45  0  0  1  0  0  0  0  0999 V2000
  189.7960  176.1610  145.2830 C   0  0  0  0  0  2  0  0  0  0  0  0
  189.5950  175.3760  143.9990 C   0  0  2  0  0  3  0  0  0  0  0  0
  192.5260  171.5950  142.9880 C   0  0  0  0  0  0  0  0  0  0  0  0
  184.5030  177.9980  140.6290 O   0  0  0  0  0  0  0  0  0  0  0  0
  184.5570  177.8080  141.8730 C   0  0  0  0  0  0  0  0  0  0  0  0
  190.7810  171.7340  141.3640 C   0  0  0  0  0  0  0  0  0  0  0  0
  186.6990  176.4420  141.7040 C   0  0  0  0  0  0  0  0  0  0  0  0
  185.6250  177.0450  142.4390 N   0  0  0  0  0  2  0  0  0  0  0  0
  191.6310  172.2710  144.0080 C   0  0  1  0  0  3  0  0  0  0  0  0
  188.2130  175.7330  143.5660 C   0  0  2  0  0  3  0  0  0  0  0  0
  188.0090  175.9010  140.0190 N   0  0  0  0  0  2  0  0  0  0  0  0
  192.3940  172.9290  144.9770 O   0  0  0  0  0  1  0  0  0  0  0  0
  190.6980  173.2660  143.3150 C   0  0  2  0  0  3  0  0  0  0  0  0
  190.3190  171.3090  140.2730 O   0  0  0  0  0  0  0  0  0  0  0  0
  187.7900  175.6630  142.2900 C   0  0  2  0  0  3  0  0  0  0  0  0
  186.8580  176.5830  140.4340 N   0  0  0  0  0  0  0  0  0  0  0  0
  189.7270  173.8960  144.3060 C   0  0  0  0  0  2  0  0  0  0  0  0
  192.0850  171.3310  141.7920 N   0  0  0  0  0  0  0  0  0  0  0  0
  188.4080  176.4780  145.8200 C   0  0  0  0  0  2  0  0  0  0  0  0
  187.4740  176.4700  144.6270 C   0  0  0  0  0  2  0  0  0  0  0  0
  188.5760  175.1340  141.1220 C   0  0  1  0  0  3  0  0  0  0  0  0
  188.5660  172.7330  142.0050 C   0  0  0  0  0  2  0  0  0  0  0  0
  190.0100  172.6160  142.1920 N   0  0  0  0  0  0  0  0  0  0  0  0
  188.2420  173.6640  140.8500 C   0  0  0  0  0  2  0  0  0  0  0  0
  183.7380  178.8390  143.9720 C   0  0  0  0  0  3  0  0  0  0  0  0
  183.5870  178.3890  142.7570 N   0  0  0  0  0  0  0  0  0  0  0  0
  185.9450  180.0380  144.3480 C   0  0  0  0  0  1  0  0  0  0  0  0
  185.0160  178.9100  144.7590 C   0  0  1  0  0  3  0  0  0  0  0  0
  183.7200  178.7010  146.7380 O   0  0  0  0  0  0  0  0  0  0  0  0
  184.8360  178.7510  146.2430 C   0  0  0  0  0  0  0  0  0  0  0  0
  185.9860  177.4080  147.9770 C   0  0  0  0  0  1  0  0  0  0  0  0
  186.0520  178.6510  147.1110 C   0  0  0  0  0  3  0  0  0  0  0  0
  186.1960  179.8820  147.9850 C   0  0  0  0  0  1  0  0  0  0  0  0
  193.9140  171.1760  143.3530 C   0  0  0  0  0  2  0  0  0  0  0  0
  194.9150  171.8720  142.4930 C   0  0  0  0  0  3  0  0  0  0  0  0
  194.9910  173.1640  142.4940 N   0  0  0  0  0  0  0  0  0  0  0  0
  195.9320  173.8780  141.6910 C   0  0  0  0  0  0  0  0  0  0  0  0
  196.7730  173.0400  140.5610 S   0  0  0  0  0  0  0  0  0  0  0  0
  196.8100  175.7670  143.2040 C   0  0  0  0  0  0  0  0  0  0  0  0
  197.3950  174.9060  144.1750 N   0  0  0  0  0  1  0  0  0  0  0  0
  196.2390  175.2510  141.9930 N   0  0  0  0  0  2  0  0  0  0  0  0
  196.8240  177.0100  143.3960 O   0  0  0  0  0  0  0  0  0  0  0  0
  1 19  1  0  0  0  0
  2 17  1  1  0  0  0
  2  1  1  0  0  0  0
  3 34  1  0  0  0  0
  3  9  1  0  0  0  0
  4  5  2  0  0  0  0
  5  8  1  0  0  0  0
  5 26  1  0  0  0  0
  6 18  1  0  0  0  0
  6 23  1  0  0  0  0
  7  8  1  0  0  0  0
  9 12  1  1  0  0  0
 10  2  1  0  0  0  0
 10 20  1  6  0  0  0
 11 16  1  0  0  0  0
 11 21  1  0  0  0  0
 13  9  1  0  0  0  0
 13 17  1  1  0  0  0
 14  6  2  0  0  0  0
 15  7  1  6  0  0  0
 15 10  1  0  0  0  0
 16  7  2  0  0  0  0
 18  3  2  0  0  0  0
 20 19  1  0  0  0  0
 21 24  1  6  0  0  0
 21 15  1  0  0  0  0
 22 23  1  0  0  0  0
 23 13  1  0  0  0  0
 24 22  1  0  0  0  0
 25 28  1  0  0  0  0
 26 25  2  0  0  0  0
 28 27  1  1  0  0  0
 28 30  1  0  0  0  0
 30 29  2  0  0  0  0
 30 32  1  0  0  0  0
 32 31  1  0  0  0  0
 32 33  1  0  0  0  0
 35 36  2  0  0  0  0
 35 34  1  0  0  0  0
 37 41  1  0  0  0  0
 37 36  1  0  0  0  0
 38 37  2  0  0  0  0
 39 42  2  0  0  0  0
 39 40  1  0  0  0  0
 41 39  1  0  0  0  0
M  END
>  <MODEL>
7

>  <REMARK>
 VINA RESULT:      -7.8      3.838      5.747
  Name = 
  8 active torsions:
  status: ('A' for Active; 'I' for Inactive)
    1  A    between atoms: C_3  and  C_13
    2  A    between atoms: C_6  and  C_25
    3  A    between atoms: C_8  and  N_33
    4  A    between atoms: C_11  and  C_14
    5  A    between atoms: C_11  and  C_25
    6  A    between atoms: C_13  and  C_15
    7  A    between atoms: N_20  and  C_21
    8  A    between atoms: C_21  and  N_24
                            x       y       z     vdW  Elec       q    Type
                         _______ _______ _______ _____ _____    ______ ____

>  <TORSDO>
F 8

$$$$
=
 OpenBabel11042415283D

 42 45  0  0  1  0  0  0  0  0999 V2000
  191.9620  176.3990  146.1890 C   0  0  0  0  0  2  0  0  0  0  0  0
  191.4490  175.5370  145.0490 C   0  0  2  0  0  3  0  0  0  0  0  0
  188.0550  177.3110  142.0080 C   0  0  0  0  0  0  0  0  0  0  0  0
  194.5260  169.6490  145.2280 O   0  0  0  0  0  0  0  0  0  0  0  0
  195.0570  170.7760  145.4190 C   0  0  0  0  0  0  0  0  0  0  0  0
  188.8140  175.1830  141.2350 C   0  0  0  0  0  0  0  0  0  0  0  0
  192.9790  172.0310  144.6510 C   0  0  0  0  0  0  0  0  0  0  0  0
  194.3240  171.9720  145.1440 N   0  0  0  0  0  2  0  0  0  0  0  0
  189.3870  177.5370  142.6960 C   0  0  1  0  0  3  0  0  0  0  0  0
  192.4820  174.4710  144.9060 C   0  0  2  0  0  3  0  0  0  0  0  0
  190.9780  171.3760  144.0050 N   0  0  0  0  0  2  0  0  0  0  0  0
  189.2470  178.4170  143.7720 O   0  0  0  0  0  1  0  0  0  0  0  0
  189.9630  176.2060  143.1830 C   0  0  2  0  0  3  0  0  0  0  0  0
  188.6550  174.2400  140.4160 O   0  0  0  0  0  0  0  0  0  0  0  0
  192.2340  173.2590  144.3720 C   0  0  2  0  0  3  0  0  0  0  0  0
  192.2450  170.9900  144.4620 N   0  0  0  0  0  0  0  0  0  0  0  0
  191.3440  176.3930  143.8000 C   0  0  0  0  0  2  0  0  0  0  0  0
  187.8430  176.2300  141.3140 N   0  0  0  0  0  0  0  0  0  0  0  0
  193.4600  176.1510  146.2820 C   0  0  0  0  0  2  0  0  0  0  0  0
  193.7040  174.7720  145.7000 C   0  0  0  0  0  2  0  0  0  0  0  0
  190.9400  172.8110  143.7520 C   0  0  1  0  0  3  0  0  0  0  0  0
  191.1470  174.4260  141.7790 C   0  0  0  0  0  2  0  0  0  0  0  0
  189.9660  175.2250  142.0900 N   0  0  0  0  0  0  0  0  0  0  0  0
  190.9640  172.9870  142.2310 C   0  0  0  0  0  2  0  0  0  0  0  0
  197.4760  171.3090  145.3850 C   0  0  0  0  0  3  0  0  0  0  0  0
  196.3810  170.8930  145.9590 N   0  0  0  0  0  0  0  0  0  0  0  0
  197.1210  170.8850  142.9060 C   0  0  0  0  0  1  0  0  0  0  0  0
  197.6230  171.8310  143.9840 C   0  0  1  0  0  3  0  0  0  0  0  0
  197.1900  174.0320  144.7610 O   0  0  0  0  0  0  0  0  0  0  0  0
  197.2010  173.2630  143.8120 C   0  0  0  0  0  0  0  0  0  0  0  0
  197.8830  174.5950  141.8390 C   0  0  0  0  0  1  0  0  0  0  0  0
  196.7930  173.7370  142.4510 C   0  0  0  0  0  3  0  0  0  0  0  0
  195.4960  174.5200  142.5170 C   0  0  0  0  0  1  0  0  0  0  0  0
  186.9790  178.3460  142.0760 C   0  0  0  0  0  2  0  0  0  0  0  0
  186.4400  178.4530  143.4640 C   0  0  0  0  0  3  0  0  0  0  0  0
  185.7440  177.4870  143.9700 N   0  0  0  0  0  0  0  0  0  0  0  0
  185.2070  177.5400  145.2930 C   0  0  0  0  0  0  0  0  0  0  0  0
  184.1730  178.7580  145.6560 S   0  0  0  0  0  0  0  0  0  0  0  0
  187.0000  176.6490  146.9110 C   0  0  0  0  0  0  0  0  0  0  0  0
  187.8890  177.7490  146.7520 N   0  0  0  0  0  1  0  0  0  0  0  0
  185.7000  176.6430  146.3050 N   0  0  0  0  0  2  0  0  0  0  0  0
  187.3490  175.6740  147.6260 O   0  0  0  0  0  0  0  0  0  0  0  0
  1 19  1  0  0  0  0
  2 17  1  6  0  0  0
  2  1  1  0  0  0  0
  3 34  1  0  0  0  0
  3  9  1  0  0  0  0
  4  5  2  0  0  0  0
  5 26  1  0  0  0  0
  6 18  1  0  0  0  0
  6 23  1  0  0  0  0
  7  8  1  0  0  0  0
  8  5  1  0  0  0  0
  9 13  1  0  0  0  0
  9 12  1  1  0  0  0
 10  2  1  0  0  0  0
 10 20  1  1  0  0  0
 11 16  1  0  0  0  0
 13 17  1  6  0  0  0
 14  6  2  0  0  0  0
 15  7  1  1  0  0  0
 15 10  1  0  0  0  0
 16  7  2  0  0  0  0
 18  3  2  0  0  0  0
 20 19  1  0  0  0  0
 21 24  1  6  0  0  0
 21 11  1  0  0  0  0
 21 15  1  0  0  0  0
 22 23  1  0  0  0  0
 22 24  1  0  0  0  0
 23 13  1  0  0  0  0
 25 26  2  0  0  0  0
 28 27  1  6  0  0  0
 28 25  1  0  0  0  0
 30 28  1  0  0  0  0
 30 29  2  0  0  0  0
 31 32  1  0  0  0  0
 32 33  1  0  0  0  0
 32 30  1  0  0  0  0
 34 35  1  0  0  0  0
 35 36  2  0  0  0  0
 36 37  1  0  0  0  0
 37 38  2  0  0  0  0
 37 41  1  0  0  0  0
 39 42  2  0  0  0  0
 40 39  1  0  0  0  0
 41 39  1  0  0  0  0
M  END
>  <MODEL>
8

>  <REMARK>
 VINA RESULT:      -7.8      5.221     12.070
  Name = 
  8 active torsions:
  status: ('A' for Active; 'I' for Inactive)
    1  A    between atoms: C_3  and  C_13
    2  A    between atoms: C_6  and  C_25
    3  A    between atoms: C_8  and  N_33
    4  A    between atoms: C_11  and  C_14
    5  A    between atoms: C_11  and  C_25
    6  A    between atoms: C_13  and  C_15
    7  A    between atoms: N_20  and  C_21
    8  A    between atoms: C_21  and  N_24
                            x       y       z     vdW  Elec       q    Type
                         _______ _______ _______ _____ _____    ______ ____

>  <TORSDO>
F 8

$$$$
=
 OpenBabel11042415283D

 42 45  0  0  1  0  0  0  0  0999 V2000
  189.7610  173.0250  142.1270 C   0  0  0  0  0  2  0  0  0  0  0  0
  190.5310  174.0070  142.9920 C   0  0  2  0  0  3  0  0  0  0  0  0
  195.4010  174.2480  142.6330 C   0  0  0  0  0  0  0  0  0  0  0  0
  186.2450  177.3710  146.7980 O   0  0  0  0  0  0  0  0  0  0  0  0
  186.0910  177.0730  145.5830 C   0  0  0  0  0  0  0  0  0  0  0  0
  194.6010  175.9750  144.0740 C   0  0  0  0  0  0  0  0  0  0  0  0
  188.4970  176.2760  145.3390 C   0  0  0  0  0  0  0  0  0  0  0  0
  187.1810  176.5320  144.8320 N   0  0  0  0  0  2  0  0  0  0  0  0
  194.0730  174.2410  141.9030 C   0  0  1  0  0  3  0  0  0  0  0  0
  189.4970  174.9830  143.4440 C   0  0  2  0  0  3  0  0  0  0  0  0
  190.1700  176.0840  146.7580 N   0  0  0  0  0  2  0  0  0  0  0  0
  193.8380  172.9950  141.3130 O   0  0  0  0  0  1  0  0  0  0  0  0
  192.9370  174.5830  142.8690 C   0  0  2  0  0  3  0  0  0  0  0  0
  194.8950  176.8930  144.8850 O   0  0  0  0  0  0  0  0  0  0  0  0
  189.6070  175.7210  144.5640 C   0  0  2  0  0  3  0  0  0  0  0  0
  188.8310  176.4460  146.5710 N   0  0  0  0  0  0  0  0  0  0  0  0
  191.6000  174.6700  142.1430 C   0  0  0  0  0  2  0  0  0  0  0  0
  195.6200  175.0870  143.6040 N   0  0  0  0  0  0  0  0  0  0  0  0
  188.4990  173.7430  141.6720 C   0  0  0  0  0  2  0  0  0  0  0  0
  188.2140  174.8110  142.7100 C   0  0  0  0  0  2  0  0  0  0  0  0
  190.7990  175.7690  145.4810 C   0  0  1  0  0  3  0  0  0  0  0  0
  192.2900  176.9010  143.7370 C   0  0  0  0  0  2  0  0  0  0  0  0
  193.2540  175.8120  143.6080 N   0  0  0  0  0  0  0  0  0  0  0  0
  191.7120  176.9500  145.1410 C   0  0  0  0  0  2  0  0  0  0  0  0
  184.4600  178.0460  143.9930 C   0  0  0  0  0  3  0  0  0  0  0  0
  184.8190  177.2200  144.9370 N   0  0  0  0  0  0  0  0  0  0  0  0
  185.9130  180.1190  144.1990 C   0  0  0  0  0  1  0  0  0  0  0  0
  185.3270  179.0510  143.2910 C   0  0  1  0  0  3  0  0  0  0  0  0
  187.5010  178.6460  142.4260 O   0  0  0  0  0  0  0  0  0  0  0  0
  186.3000  178.4520  142.3140 C   0  0  0  0  0  0  0  0  0  0  0  0
  186.8790  177.2720  140.2150 C   0  0  0  0  0  1  0  0  0  0  0  0
  185.7720  177.6060  141.1970 C   0  0  0  0  0  3  0  0  0  0  0  0
  184.6380  178.3090  140.4760 C   0  0  0  0  0  1  0  0  0  0  0  0
  196.5010  173.3230  142.2200 C   0  0  0  0  0  2  0  0  0  0  0  0
  196.2790  171.9590  142.7810 C   0  0  0  0  0  3  0  0  0  0  0  0
  196.6710  171.6750  143.9820 N   0  0  0  0  0  0  0  0  0  0  0  0
  196.4810  170.3860  144.5660 C   0  0  0  0  0  0  0  0  0  0  0  0
  197.8070  169.5710  145.0790 S   0  0  0  0  0  0  0  0  0  0  0  0
  194.4950  169.1470  145.6380 C   0  0  0  0  0  0  0  0  0  0  0  0
  194.9400  169.3080  146.9810 N   0  0  0  0  0  1  0  0  0  0  0  0
  195.1800  169.7700  144.5420 N   0  0  0  0  0  2  0  0  0  0  0  0
  193.4580  168.4720  145.4100 O   0  0  0  0  0  0  0  0  0  0  0  0
  2  1  1  6  0  0  0
  2 10  1  0  0  0  0
  3 18  2  0  0  0  0
  5  4  2  0  0  0  0
  6 14  2  0  0  0  0
  7 16  2  0  0  0  0
  8  7  1  0  0  0  0
  8  5  1  0  0  0  0
  9 12  1  1  0  0  0
  9  3  1  0  0  0  0
  9 13  1  0  0  0  0
 10 20  1  1  0  0  0
 10 15  1  0  0  0  0
 13 17  1  6  0  0  0
 13 23  1  0  0  0  0
 15  7  1  1  0  0  0
 15 21  1  0  0  0  0
 16 11  1  0  0  0  0
 17  2  1  0  0  0  0
 18  6  1  0  0  0  0
 19  1  1  0  0  0  0
 19 20  1  0  0  0  0
 21 24  1  6  0  0  0
 21 11  1  0  0  0  0
 22 24  1  0  0  0  0
 23 22  1  0  0  0  0
 23  6  1  0  0  0  0
 25 26  2  0  0  0  0
 26  5  1  0  0  0  0
 28 25  1  0  0  0  0
 28 27  1  1  0  0  0
 30 29  2  0  0  0  0
 30 28  1  0  0  0  0
 31 32  1  0  0  0  0
 32 30  1  0  0  0  0
 33 32  1  0  0  0  0
 34  3  1  0  0  0  0
 34 35  1  0  0  0  0
 35 36  2  0  0  0  0
 36 37  1  0  0  0  0
 37 38  2  0  0  0  0
 39 40  1  0  0  0  0
 41 37  1  0  0  0  0
 41 39  1  0  0  0  0
 42 39  2  0  0  0  0
M  END
>  <MODEL>
9

>  <REMARK>
 VINA RESULT:      -7.7      4.101      6.581
  Name = 
  8 active torsions:
  status: ('A' for Active; 'I' for Inactive)
    1  A    between atoms: C_3  and  C_13
    2  A    between atoms: C_6  and  C_25
    3  A    between atoms: C_8  and  N_33
    4  A    between atoms: C_11  and  C_14
    5  A    between atoms: C_11  and  C_25
    6  A    between atoms: C_13  and  C_15
    7  A    between atoms: N_20  and  C_21
    8  A    between atoms: C_21  and  N_24
                            x       y       z     vdW  Elec       q    Type
                         _______ _______ _______ _____ _____    ______ ____

>  <TORSDO>
F 8

$$$$
