=
 OpenBabel11042414443D

 36 40  0  0  1  0  0  0  0  0999 V2000
  185.4360  177.8130  145.4270 C   0  0  0  0  0  3  0  0  0  0  0  0
  186.2980  177.1770  144.4040 C   0  0  0  0  0  0  0  0  0  0  0  0
  187.9760  177.3450  147.1050 C   0  0  0  0  0  3  0  0  0  0  0  0
  188.9070  174.7430  143.8200 C   0  0  0  0  0  0  0  0  0  0  0  0
  188.2060  175.9730  143.5430 N   0  0  0  0  0  0  0  0  0  0  0  0
  187.1230  179.0020  148.4900 O   0  0  0  0  0  1  0  0  0  0  0  0
  189.2960  173.8030  142.7090 C   0  0  0  0  0  2  0  0  0  0  0  0
  189.9670  173.1600  145.4100 C   0  0  0  0  0  2  0  0  0  0  0  0
  188.0730  176.3990  145.9940 C   0  0  0  0  0  0  0  0  0  0  0  0
  191.9460  172.1710  144.6080 O   0  0  0  0  0  0  0  0  0  0  0  0
  190.9470  172.8090  144.3240 C   0  0  0  0  0  0  0  0  0  0  0  0
  190.7210  173.2690  142.9020 C   0  0  1  0  0  3  0  0  0  0  0  0
  187.5070  176.6190  144.6360 C   0  0  0  0  0  0  0  0  0  0  0  0
  189.2270  174.4280  145.0890 C   0  0  0  0  0  0  0  0  0  0  0  0
  188.3440  176.1000  141.2070 O   0  0  0  0  0  0  0  0  0  0  0  0
  185.7160  178.2420  146.6540 C   0  0  0  0  0  3  0  0  0  0  0  0
  186.9830  178.1800  147.3820 C   0  0  0  0  0  0  0  0  0  0  0  0
  188.8880  175.3570  146.1800 C   0  0  0  0  0  3  0  0  0  0  0  0
  188.4730  176.6800  142.3170 C   0  0  0  0  0  0  0  0  0  0  0  0
  191.6630  171.2480  139.7320 C   0  0  0  0  0  1  0  0  0  0  0  0
  190.9710  172.1810  141.9660 N   0  0  0  0  0  2  0  0  0  0  0  0
  191.4410  172.4040  140.6360 C   0  0  0  0  0  0  0  0  0  0  0  0
  191.6720  173.5720  140.2250 O   0  0  0  0  0  0  0  0  0  0  0  0
  185.7890  177.0960  143.1000 O   0  0  0  0  0  0  0  0  0  0  0  0
  183.7530  178.0690  142.6100 C   0  0  0  0  0  2  0  0  0  0  0  0
  183.6020  178.8760  140.4360 C   0  0  0  0  0  1  0  0  0  0  0  0
  185.2250  178.1980  142.3970 C   0  0  1  0  0  0  0  0  0  0  0  0
  185.6480  178.0820  141.0710 O   0  0  0  0  0  0  0  0  0  0  0  0
  184.2870  177.7940  141.2390 C   0  0  1  0  0  0  0  0  0  0  0  0
  188.9530  178.0940  142.3510 C   0  0  0  0  0  2  0  0  0  0  0  0
  190.4470  178.1490  142.6260 C   0  0  0  0  0  2  0  0  0  0  0  0
  190.6910  178.0370  144.0550 N   0  0  0  0  0  2  0  0  0  0  0  0
  191.7690  177.0740  144.2390 C   0  0  0  0  0  2  0  0  0  0  0  0
  191.9740  176.8260  145.6560 N   0  0  0  0  0  2  0  0  0  0  0  0
  192.6650  175.6850  146.0940 C   0  0  0  0  0  0  0  0  0  0  0  0
  193.2340  174.7440  146.4550 N   0  0  0  0  0  0  0  0  0  0  0  0
  1 16  2  0  0  0  0
  2 13  2  0  0  0  0
  2  1  1  0  0  0  0
  3 17  2  0  0  0  0
  4 14  2  0  0  0  0
  5  4  1  0  0  0  0
  5 13  1  0  0  0  0
  7 12  1  0  0  0  0
  7  4  1  0  0  0  0
  9 18  2  0  0  0  0
  9  3  1  0  0  0  0
 11 10  2  0  0  0  0
 11  8  1  0  0  0  0
 12 21  1  6  0  0  0
 12 11  1  0  0  0  0
 13  9  1  0  0  0  0
 14  8  1  0  0  0  0
 14 18  1  0  0  0  0
 15 19  2  0  0  0  0
 16 17  1  0  0  0  0
 17  6  1  0  0  0  0
 19 30  1  0  0  0  0
 19  5  1  0  0  0  0
 20 22  1  0  0  0  0
 22 21  1  0  0  0  0
 23 22  2  0  0  0  0
 24  2  1  0  0  0  0
 27 25  1  0  0  0  0
 27 24  1  1  0  0  0
 28 29  1  0  0  0  0
 28 27  1  0  0  0  0
 29 26  1  6  0  0  0
 29 27  1  0  0  0  0
 29 25  1  0  0  0  0
 30 31  1  0  0  0  0
 31 32  1  0  0  0  0
 32 33  1  0  0  0  0
 33 34  1  0  0  0  0
 34 35  1  0  0  0  0
 35 36  3  0  0  0  0
M  END
>  <MODEL>
1

>  <REMARK>
 VINA RESULT:      -6.4      0.000      0.000
  Name = 
  9 active torsions:
  status: ('A' for Active; 'I' for Inactive)
    1  A    between atoms: C_3  and  O_5
    2  A    between atoms: O_5  and  C_21
    3  A    between atoms: C_6  and  N_24
    4  A    between atoms: C_8  and  C_13
    5  A    between atoms: C_8  and  N_29
    6  A    between atoms: C_13  and  C_36
    7  A    between atoms: N_18  and  C_25
    8  A    between atoms: N_24  and  C_32
    9  A    between atoms: N_29  and  C_32
                            x       y       z     vdW  Elec       q    Type
                         _______ _______ _______ _____ _____    ______ ____

>  <TORSDO>
F 9

$$$$
=
 OpenBabel11042414443D

 36 40  0  0  1  0  0  0  0  0999 V2000
  187.9660  175.8460  146.4720 C   0  0  0  0  0  3  0  0  0  0  0  0
  188.0440  175.8830  144.9930 C   0  0  0  0  0  0  0  0  0  0  0  0
  190.7800  174.6610  146.0710 C   0  0  0  0  0  3  0  0  0  0  0  0
  189.3400  174.2350  142.0480 C   0  0  0  0  0  0  0  0  0  0  0  0
  188.9350  175.3960  142.8030 N   0  0  0  0  0  0  0  0  0  0  0  0
  191.1420  175.2970  148.2740 O   0  0  0  0  0  1  0  0  0  0  0  0
  188.9000  174.0430  140.6200 C   0  0  0  0  0  2  0  0  0  0  0  0
  190.5800  172.0930  141.8610 C   0  0  0  0  0  2  0  0  0  0  0  0
  190.0920  174.4520  144.7960 C   0  0  0  0  0  0  0  0  0  0  0  0
  191.6130  171.7590  139.7730 O   0  0  0  0  0  0  0  0  0  0  0  0
  190.8010  172.4100  140.4070 C   0  0  0  0  0  0  0  0  0  0  0  0
  190.0550  173.5440  139.7420 C   0  0  1  0  0  3  0  0  0  0  0  0
  189.0290  175.3360  144.2480 C   0  0  0  0  0  0  0  0  0  0  0  0
  190.1300  173.3080  142.6230 C   0  0  0  0  0  0  0  0  0  0  0  0
  187.9760  176.7470  141.1440 O   0  0  0  0  0  0  0  0  0  0  0  0
  188.8920  175.5700  147.3850 C   0  0  0  0  0  3  0  0  0  0  0  0
  190.2880  175.1830  147.1870 C   0  0  0  0  0  0  0  0  0  0  0  0
  190.5990  173.5040  144.0050 C   0  0  0  0  0  3  0  0  0  0  0  0
  188.7600  176.6550  142.1260 C   0  0  0  0  0  0  0  0  0  0  0  0
  189.5530  173.0950  135.9250 C   0  0  0  0  0  1  0  0  0  0  0  0
  189.5430  173.1280  138.4430 N   0  0  0  0  0  2  0  0  0  0  0  0
  190.1350  173.5490  137.2140 C   0  0  0  0  0  0  0  0  0  0  0  0
  191.1490  174.2960  137.2120 O   0  0  0  0  0  0  0  0  0  0  0  0
  186.9760  176.4860  144.3120 O   0  0  0  0  0  0  0  0  0  0  0  0
  185.0500  177.6920  143.9040 C   0  0  0  0  0  2  0  0  0  0  0  0
  185.2810  179.9750  144.2740 C   0  0  0  0  0  1  0  0  0  0  0  0
  186.2190  177.5760  144.8260 C   0  0  1  0  0  0  0  0  0  0  0  0
  187.0740  178.6800  144.8470 O   0  0  0  0  0  0  0  0  0  0  0  0
  186.0900  178.7680  143.8540 C   0  0  1  0  0  0  0  0  0  0  0  0
  189.5430  177.8540  142.5490 C   0  0  0  0  0  2  0  0  0  0  0  0
  191.0090  177.5000  142.7360 C   0  0  0  0  0  2  0  0  0  0  0  0
  191.4650  177.9530  144.0400 N   0  0  0  0  0  2  0  0  0  0  0  0
  192.6220  177.1430  144.4030 C   0  0  0  0  0  2  0  0  0  0  0  0
  192.9500  176.2350  143.3160 N   0  0  0  0  0  2  0  0  0  0  0  0
  194.1980  175.5960  143.2650 C   0  0  0  0  0  0  0  0  0  0  0  0
  195.2280  175.0700  143.2210 N   0  0  0  0  0  0  0  0  0  0  0  0
  1 16  2  0  0  0  0
  2  1  1  0  0  0  0
  3 17  2  0  0  0  0
  4 14  2  0  0  0  0
  4  5  1  0  0  0  0
  5 13  1  0  0  0  0
  7  4  1  0  0  0  0
  8 14  1  0  0  0  0
  9  3  1  0  0  0  0
 10 11  2  0  0  0  0
 11  8  1  0  0  0  0
 12 21  1  6  0  0  0
 12 11  1  0  0  0  0
 12  7  1  0  0  0  0
 13  9  1  0  0  0  0
 13  2  2  0  0  0  0
 14 18  1  0  0  0  0
 15 19  2  0  0  0  0
 17 16  1  0  0  0  0
 17  6  1  0  0  0  0
 18  9  2  0  0  0  0
 19 30  1  0  0  0  0
 19  5  1  0  0  0  0
 20 22  1  0  0  0  0
 22 21  1  0  0  0  0
 23 22  2  0  0  0  0
 24  2  1  0  0  0  0
 25 27  1  0  0  0  0
 27 24  1  6  0  0  0
 27 28  1  0  0  0  0
 29 25  1  0  0  0  0
 29 26  1  1  0  0  0
 29 27  1  0  0  0  0
 29 28  1  0  0  0  0
 30 31  1  0  0  0  0
 31 32  1  0  0  0  0
 32 33  1  0  0  0  0
 34 33  1  0  0  0  0
 35 34  1  0  0  0  0
 36 35  3  0  0  0  0
M  END
>  <MODEL>
2

>  <REMARK>
 VINA RESULT:      -6.4      2.170      3.179
  Name = 
  9 active torsions:
  status: ('A' for Active; 'I' for Inactive)
    1  A    between atoms: C_3  and  O_5
    2  A    between atoms: O_5  and  C_21
    3  A    between atoms: C_6  and  N_24
    4  A    between atoms: C_8  and  C_13
    5  A    between atoms: C_8  and  N_29
    6  A    between atoms: C_13  and  C_36
    7  A    between atoms: N_18  and  C_25
    8  A    between atoms: N_24  and  C_32
    9  A    between atoms: N_29  and  C_32
                            x       y       z     vdW  Elec       q    Type
                         _______ _______ _______ _____ _____    ______ ____

>  <TORSDO>
F 9

$$$$
=
 OpenBabel11042414443D

 36 40  0  0  1  0  0  0  0  0999 V2000
  188.6910  177.9540  146.9910 C   0  0  0  0  0  3  0  0  0  0  0  0
  188.7770  177.3720  145.6320 C   0  0  0  0  0  0  0  0  0  0  0  0
  191.1050  176.0820  147.3790 C   0  0  0  0  0  3  0  0  0  0  0  0
  189.6070  174.4210  143.7150 C   0  0  0  0  0  0  0  0  0  0  0  0
  189.5130  175.8470  143.9100 N   0  0  0  0  0  0  0  0  0  0  0  0
  191.6180  177.4480  149.1850 O   0  0  0  0  0  1  0  0  0  0  0  0
  189.1330  173.7780  142.4370 C   0  0  0  0  0  2  0  0  0  0  0  0
  190.2530  172.1600  144.5080 C   0  0  0  0  0  2  0  0  0  0  0  0
  190.3880  175.5450  146.2230 C   0  0  0  0  0  0  0  0  0  0  0  0
  191.1670  170.7790  142.8350 O   0  0  0  0  0  0  0  0  0  0  0  0
  190.5490  171.8010  143.0770 C   0  0  0  0  0  0  0  0  0  0  0  0
  190.1210  172.7120  141.9490 C   0  0  1  0  0  3  0  0  0  0  0  0
  189.5880  176.3550  145.2660 C   0  0  0  0  0  0  0  0  0  0  0  0
  190.1310  173.6480  144.6840 C   0  0  0  0  0  0  0  0  0  0  0  0
  188.9360  176.5990  141.7660 O   0  0  0  0  0  0  0  0  0  0  0  0
  189.5150  177.8600  148.0310 C   0  0  0  0  0  3  0  0  0  0  0  0
  190.7640  177.1090  148.1460 C   0  0  0  0  0  0  0  0  0  0  0  0
  190.6340  174.2680  145.9210 C   0  0  0  0  0  3  0  0  0  0  0  0
  189.6690  176.7280  142.7820 C   0  0  0  0  0  0  0  0  0  0  0  0
  189.4800  170.9770  138.5430 C   0  0  0  0  0  1  0  0  0  0  0  0
  189.5190  171.9400  140.8690 N   0  0  0  0  0  2  0  0  0  0  0  0
  190.1560  171.7660  139.6020 C   0  0  0  0  0  0  0  0  0  0  0  0
  191.2870  172.2720  139.3780 O   0  0  0  0  0  0  0  0  0  0  0  0
  187.9010  177.8810  144.6620 O   0  0  0  0  0  0  0  0  0  0  0  0
  185.9800  176.9090  143.8280 C   0  0  0  0  0  2  0  0  0  0  0  0
  184.2200  178.4020  143.5560 C   0  0  0  0  0  1  0  0  0  0  0  0
  186.4860  177.9160  144.8080 C   0  0  1  0  0  0  0  0  0  0  0  0
  186.0930  179.2340  144.5650 O   0  0  0  0  0  0  0  0  0  0  0  0
  185.7310  178.3560  143.5360 C   0  0  1  0  0  0  0  0  0  0  0  0
  190.7350  177.7750  142.7840 C   0  0  0  0  0  2  0  0  0  0  0  0
  192.1140  177.1380  142.7980 C   0  0  0  0  0  2  0  0  0  0  0  0
  192.7000  177.2550  144.1240 N   0  0  0  0  0  2  0  0  0  0  0  0
  193.5550  176.0930  144.3270 C   0  0  0  0  0  2  0  0  0  0  0  0
  193.1750  175.0330  143.4080 N   0  0  0  0  0  2  0  0  0  0  0  0
  193.6810  173.7330  143.5610 C   0  0  0  0  0  0  0  0  0  0  0  0
  194.0960  172.6600  143.6880 N   0  0  0  0  0  0  0  0  0  0  0  0
  1 16  2  0  0  0  0
  2  1  1  0  0  0  0
  3 17  2  0  0  0  0
  4  5  1  0  0  0  0
  4 14  2  0  0  0  0
  5 13  1  0  0  0  0
  7  4  1  0  0  0  0
  8 14  1  0  0  0  0
  9  3  1  0  0  0  0
 10 11  2  0  0  0  0
 11  8  1  0  0  0  0
 12 21  1  6  0  0  0
 12  7  1  0  0  0  0
 12 11  1  0  0  0  0
 13  2  2  0  0  0  0
 13  9  1  0  0  0  0
 14 18  1  0  0  0  0
 15 19  2  0  0  0  0
 16 17  1  0  0  0  0
 17  6  1  0  0  0  0
 18  9  2  0  0  0  0
 19 30  1  0  0  0  0
 19  5  1  0  0  0  0
 20 22  1  0  0  0  0
 22 21  1  0  0  0  0
 23 22  2  0  0  0  0
 24  2  1  0  0  0  0
 25 27  1  0  0  0  0
 27 24  1  6  0  0  0
 28 27  1  0  0  0  0
 29 26  1  1  0  0  0
 29 25  1  0  0  0  0
 29 28  1  0  0  0  0
 29 27  1  0  0  0  0
 30 31  1  0  0  0  0
 31 32  1  0  0  0  0
 32 33  1  0  0  0  0
 34 35  1  0  0  0  0
 34 33  1  0  0  0  0
 35 36  3  0  0  0  0
M  END
>  <MODEL>
3

>  <REMARK>
 VINA RESULT:      -6.3      1.964      2.589
  Name = 
  9 active torsions:
  status: ('A' for Active; 'I' for Inactive)
    1  A    between atoms: C_3  and  O_5
    2  A    between atoms: O_5  and  C_21
    3  A    between atoms: C_6  and  N_24
    4  A    between atoms: C_8  and  C_13
    5  A    between atoms: C_8  and  N_29
    6  A    between atoms: C_13  and  C_36
    7  A    between atoms: N_18  and  C_25
    8  A    between atoms: N_24  and  C_32
    9  A    between atoms: N_29  and  C_32
                            x       y       z     vdW  Elec       q    Type
                         _______ _______ _______ _____ _____    ______ ____

>  <TORSDO>
F 9

$$$$
=
 OpenBabel11042414443D

 36 40  0  0  1  0  0  0  0  0999 V2000
  192.9500  173.7060  139.9460 C   0  0  0  0  0  3  0  0  0  0  0  0
  191.5380  173.7200  140.3930 C   0  0  0  0  0  0  0  0  0  0  0  0
  193.2750  175.1460  142.6490 C   0  0  0  0  0  3  0  0  0  0  0  0
  189.0230  175.5630  142.2240 C   0  0  0  0  0  0  0  0  0  0  0  0
  189.6440  174.3490  141.7520 N   0  0  0  0  0  0  0  0  0  0  0  0
  195.4940  174.4790  142.5090 O   0  0  0  0  0  1  0  0  0  0  0  0
  187.5320  175.7580  142.1370 C   0  0  0  0  0  2  0  0  0  0  0  0
  189.1670  177.8100  143.2660 C   0  0  0  0  0  2  0  0  0  0  0  0
  191.8700  175.3310  142.2850 C   0  0  0  0  0  0  0  0  0  0  0  0
  187.4070  178.2960  144.7520 O   0  0  0  0  0  0  0  0  0  0  0  0
  187.8130  177.5580  143.8710 C   0  0  0  0  0  0  0  0  0  0  0  0
  186.9750  176.3820  143.4230 C   0  0  1  0  0  3  0  0  0  0  0  0
  191.0670  174.3740  141.4780 C   0  0  0  0  0  0  0  0  0  0  0  0
  189.7830  176.5380  142.7560 C   0  0  0  0  0  0  0  0  0  0  0  0
  187.7890  172.9680  141.3670 O   0  0  0  0  0  0  0  0  0  0  0  0
  194.0680  174.0350  140.5870 C   0  0  0  0  0  3  0  0  0  0  0  0
  194.2290  174.5500  141.9460 C   0  0  0  0  0  0  0  0  0  0  0  0
  191.2380  176.3440  142.8820 C   0  0  0  0  0  3  0  0  0  0  0  0
  188.9370  173.1000  141.8700 C   0  0  0  0  0  0  0  0  0  0  0  0
  183.7860  178.1270  142.0770 C   0  0  0  0  0  1  0  0  0  0  0  0
  185.5910  176.7900  143.2140 N   0  0  0  0  0  2  0  0  0  0  0  0
  185.2140  177.7500  142.2260 C   0  0  0  0  0  0  0  0  0  0  0  0
  186.0810  178.2750  141.4780 O   0  0  0  0  0  0  0  0  0  0  0  0
  190.6070  173.0460  139.5900 O   0  0  0  0  0  0  0  0  0  0  0  0
  189.9660  171.9580  137.6560 C   0  0  0  0  0  2  0  0  0  0  0  0
  189.9470  169.6430  137.8500 C   0  0  0  0  0  1  0  0  0  0  0  0
  190.9150  171.8980  138.8080 C   0  0  1  0  0  0  0  0  0  0  0  0
  190.7630  170.7920  139.6470 O   0  0  0  0  0  0  0  0  0  0  0  0
  189.7530  170.8900  138.6820 C   0  0  1  0  0  0  0  0  0  0  0  0
  189.5350  171.9630  142.6300 C   0  0  0  0  0  2  0  0  0  0  0  0
  189.5620  172.2670  144.1190 C   0  0  0  0  0  2  0  0  0  0  0  0
  190.9350  172.4460  144.5630 N   0  0  0  0  0  2  0  0  0  0  0  0
  190.9820  173.6720  145.3490 C   0  0  0  0  0  2  0  0  0  0  0  0
  189.6340  174.1720  145.5670 N   0  0  0  0  0  2  0  0  0  0  0  0
  189.4120  175.3410  146.3100 C   0  0  0  0  0  0  0  0  0  0  0  0
  189.2280  176.3040  146.9250 N   0  0  0  0  0  0  0  0  0  0  0  0
  1  2  1  0  0  0  0
  1 16  2  0  0  0  0
  2 13  2  0  0  0  0
  4 14  2  0  0  0  0
  5 19  1  0  0  0  0
  5  4  1  0  0  0  0
  7  4  1  0  0  0  0
  7 12  1  0  0  0  0
  8 11  1  0  0  0  0
  9  3  1  0  0  0  0
  9 18  2  0  0  0  0
 11 10  2  0  0  0  0
 12 21  1  6  0  0  0
 12 11  1  0  0  0  0
 13  5  1  0  0  0  0
 13  9  1  0  0  0  0
 14 18  1  0  0  0  0
 14  8  1  0  0  0  0
 15 19  2  0  0  0  0
 16 17  1  0  0  0  0
 17  6  1  0  0  0  0
 17  3  2  0  0  0  0
 19 30  1  0  0  0  0
 20 22  1  0  0  0  0
 22 21  1  0  0  0  0
 23 22  2  0  0  0  0
 24  2  1  0  0  0  0
 25 29  1  0  0  0  0
 25 27  1  0  0  0  0
 27 24  1  1  0  0  0
 27 28  1  0  0  0  0
 29 26  1  6  0  0  0
 29 27  1  0  0  0  0
 29 28  1  0  0  0  0
 30 31  1  0  0  0  0
 31 32  1  0  0  0  0
 32 33  1  0  0  0  0
 33 34  1  0  0  0  0
 34 35  1  0  0  0  0
 35 36  3  0  0  0  0
M  END
>  <MODEL>
4

>  <REMARK>
 VINA RESULT:      -6.0      2.287      7.099
  Name = 
  9 active torsions:
  status: ('A' for Active; 'I' for Inactive)
    1  A    between atoms: C_3  and  O_5
    2  A    between atoms: O_5  and  C_21
    3  A    between atoms: C_6  and  N_24
    4  A    between atoms: C_8  and  C_13
    5  A    between atoms: C_8  and  N_29
    6  A    between atoms: C_13  and  C_36
    7  A    between atoms: N_18  and  C_25
    8  A    between atoms: N_24  and  C_32
    9  A    between atoms: N_29  and  C_32
                            x       y       z     vdW  Elec       q    Type
                         _______ _______ _______ _____ _____    ______ ____

>  <TORSDO>
F 9

$$$$
=
 OpenBabel11042414443D

 36 40  0  0  1  0  0  0  0  0999 V2000
  195.9030  175.0060  142.9320 C   0  0  0  0  0  3  0  0  0  0  0  0
  194.4880  175.0520  142.4970 C   0  0  0  0  0  0  0  0  0  0  0  0
  194.5140  174.9750  145.6800 C   0  0  0  0  0  3  0  0  0  0  0  0
  191.1730  176.2500  143.3040 C   0  0  0  0  0  0  0  0  0  0  0  0
  192.0980  175.3000  142.7340 N   0  0  0  0  0  0  0  0  0  0  0  0
  196.5120  174.0830  146.4550 O   0  0  0  0  0  1  0  0  0  0  0  0
  189.9610  176.7110  142.5370 C   0  0  0  0  0  2  0  0  0  0  0  0
  190.4400  177.7130  145.1690 C   0  0  0  0  0  2  0  0  0  0  0  0
  193.5270  175.5400  144.7600 C   0  0  0  0  0  0  0  0  0  0  0  0
  188.1100  177.7550  145.5000 O   0  0  0  0  0  0  0  0  0  0  0  0
  189.0200  177.4440  144.7510 C   0  0  0  0  0  0  0  0  0  0  0  0
  188.7190  176.7630  143.4350 C   0  0  1  0  0  3  0  0  0  0  0  0
  193.4230  175.2070  143.3140 C   0  0  0  0  0  0  0  0  0  0  0  0
  191.3890  176.7310  144.5420 C   0  0  0  0  0  0  0  0  0  0  0  0
  190.9460  174.5820  140.8230 O   0  0  0  0  0  0  0  0  0  0  0  0
  196.4370  174.8130  144.1340 C   0  0  0  0  0  3  0  0  0  0  0  0
  195.7630  174.6150  145.4170 C   0  0  0  0  0  0  0  0  0  0  0  0
  192.5490  176.2580  145.3180 C   0  0  0  0  0  3  0  0  0  0  0  0
  191.6050  174.2740  141.8520 C   0  0  0  0  0  0  0  0  0  0  0  0
  185.2340  177.7250  142.0360 C   0  0  0  0  0  1  0  0  0  0  0  0
  187.6360  177.4470  142.7410 N   0  0  0  0  0  2  0  0  0  0  0  0
  186.2860  176.9840  142.7780 C   0  0  0  0  0  0  0  0  0  0  0  0
  185.9780  175.9560  143.4380 O   0  0  0  0  0  0  0  0  0  0  0  0
  194.2400  174.9870  141.1180 O   0  0  0  0  0  0  0  0  0  0  0  0
  194.8480  175.0300  138.8910 C   0  0  0  0  0  2  0  0  0  0  0  0
  195.1480  172.9200  137.9630 C   0  0  0  0  0  1  0  0  0  0  0  0
  195.0940  174.3310  140.1870 C   0  0  1  0  0  0  0  0  0  0  0  0
  194.7460  172.9790  140.2110 O   0  0  0  0  0  0  0  0  0  0  0  0
  194.3480  173.6260  139.0350 C   0  0  1  0  0  0  0  0  0  0  0  0
  191.8280  172.8330  142.1710 C   0  0  0  0  0  2  0  0  0  0  0  0
  190.5770  172.2150  142.7730 C   0  0  0  0  0  2  0  0  0  0  0  0
  190.8270  171.8370  144.1540 N   0  0  0  0  0  2  0  0  0  0  0  0
  189.6970  172.3050  144.9460 C   0  0  0  0  0  2  0  0  0  0  0  0
  189.8600  173.7160  145.2560 N   0  0  0  0  0  2  0  0  0  0  0  0
  189.4060  174.2430  146.4740 C   0  0  0  0  0  0  0  0  0  0  0  0
  189.0300  174.6750  147.4800 N   0  0  0  0  0  0  0  0  0  0  0  0
  1 16  2  0  0  0  0
  2  1  1  0  0  0  0
  2 13  2  0  0  0  0
  4 14  2  0  0  0  0
  5  4  1  0  0  0  0
  5 13  1  0  0  0  0
  7  4  1  0  0  0  0
  7 12  1  0  0  0  0
  9 18  2  0  0  0  0
  9  3  1  0  0  0  0
 11  8  1  0  0  0  0
 11 10  2  0  0  0  0
 12 21  1  6  0  0  0
 12 11  1  0  0  0  0
 13  9  1  0  0  0  0
 14  8  1  0  0  0  0
 14 18  1  0  0  0  0
 15 19  2  0  0  0  0
 16 17  1  0  0  0  0
 17  3  2  0  0  0  0
 17  6  1  0  0  0  0
 19 30  1  0  0  0  0
 19  5  1  0  0  0  0
 20 22  1  0  0  0  0
 21 22  1  0  0  0  0
 22 23  2  0  0  0  0
 24  2  1  0  0  0  0
 25 29  1  0  0  0  0
 25 27  1  0  0  0  0
 27 28  1  0  0  0  0
 27 24  1  1  0  0  0
 29 26  1  6  0  0  0
 29 27  1  0  0  0  0
 29 28  1  0  0  0  0
 30 31  1  0  0  0  0
 31 32  1  0  0  0  0
 32 33  1  0  0  0  0
 33 34  1  0  0  0  0
 34 35  1  0  0  0  0
 35 36  3  0  0  0  0
M  END
>  <MODEL>
5

>  <REMARK>
 VINA RESULT:      -5.8      2.795      7.488
  Name = 
  9 active torsions:
  status: ('A' for Active; 'I' for Inactive)
    1  A    between atoms: C_3  and  O_5
    2  A    between atoms: O_5  and  C_21
    3  A    between atoms: C_6  and  N_24
    4  A    between atoms: C_8  and  C_13
    5  A    between atoms: C_8  and  N_29
    6  A    between atoms: C_13  and  C_36
    7  A    between atoms: N_18  and  C_25
    8  A    between atoms: N_24  and  C_32
    9  A    between atoms: N_29  and  C_32
                            x       y       z     vdW  Elec       q    Type
                         _______ _______ _______ _____ _____    ______ ____

>  <TORSDO>
F 9

$$$$
=
 OpenBabel11042414443D

 36 40  0  0  1  0  0  0  0  0999 V2000
  193.3500  173.7910  139.1630 C   0  0  0  0  0  3  0  0  0  0  0  0
  192.1370  173.8030  140.0120 C   0  0  0  0  0  0  0  0  0  0  0  0
  194.5440  174.9430  141.7580 C   0  0  0  0  0  3  0  0  0  0  0  0
  190.3880  175.5280  142.6650 C   0  0  0  0  0  0  0  0  0  0  0  0
  190.7700  174.3490  141.9260 N   0  0  0  0  0  0  0  0  0  0  0  0
  196.5790  174.2270  140.9010 O   0  0  0  0  0  1  0  0  0  0  0  0
  188.9520  175.7760  143.0470 C   0  0  0  0  0  2  0  0  0  0  0  0
  190.9660  177.6550  143.8060 C   0  0  0  0  0  2  0  0  0  0  0  0
  193.1070  175.2060  141.8490 C   0  0  0  0  0  0  0  0  0  0  0  0
  189.7560  178.0420  145.7880 O   0  0  0  0  0  0  0  0  0  0  0  0
  189.8390  177.3840  144.7660 C   0  0  0  0  0  0  0  0  0  0  0  0
  188.8380  176.2850  144.4890 C   0  0  1  0  0  3  0  0  0  0  0  0
  192.0470  174.3590  141.2400 C   0  0  0  0  0  0  0  0  0  0  0  0
  191.3280  176.4220  143.0260 C   0  0  0  0  0  0  0  0  0  0  0  0
  188.8060  173.0710  141.9970 O   0  0  0  0  0  0  0  0  0  0  0  0
  194.6250  174.0200  139.4640 C   0  0  0  0  0  3  0  0  0  0  0  0
  195.2100  174.3920  140.7520 C   0  0  0  0  0  0  0  0  0  0  0  0
  192.7400  176.1720  142.6940 C   0  0  0  0  0  3  0  0  0  0  0  0
  190.0570  173.1170  142.1420 C   0  0  0  0  0  0  0  0  0  0  0  0
  185.4460  177.0830  146.1870 C   0  0  0  0  0  1  0  0  0  0  0  0
  187.4810  176.7530  144.7420 N   0  0  0  0  0  2  0  0  0  0  0  0
  186.8360  176.5920  146.0050 C   0  0  0  0  0  0  0  0  0  0  0  0
  187.4350  176.0420  146.9660 O   0  0  0  0  0  0  0  0  0  0  0  0
  190.9710  173.2410  139.4700 O   0  0  0  0  0  0  0  0  0  0  0  0
  189.6770  172.3860  137.7600 C   0  0  0  0  0  2  0  0  0  0  0  0
  189.6900  170.0650  137.6490 C   0  0  0  0  0  1  0  0  0  0  0  0
  190.9680  172.2090  138.4900 C   0  0  1  0  0  0  0  0  0  0  0  0
  191.1020  171.0030  139.1800 O   0  0  0  0  0  0  0  0  0  0  0  0
  189.8190  171.1910  138.6490 C   0  0  1  0  0  0  0  0  0  0  0  0
  190.7850  171.8920  142.5870 C   0  0  0  0  0  2  0  0  0  0  0  0
  190.9710  171.8940  144.0950 C   0  0  0  0  0  2  0  0  0  0  0  0
  192.3760  171.7120  144.4210 N   0  0  0  0  0  2  0  0  0  0  0  0
  192.9230  173.0240  144.7390 C   0  0  0  0  0  2  0  0  0  0  0  0
  191.9180  173.8290  145.4130 N   0  0  0  0  0  2  0  0  0  0  0  0
  192.2880  174.9210  146.2130 C   0  0  0  0  0  0  0  0  0  0  0  0
  192.5940  175.8210  146.8740 N   0  0  0  0  0  0  0  0  0  0  0  0
  1 16  2  0  0  0  0
  1  2  1  0  0  0  0
  2 13  2  0  0  0  0
  3  9  1  0  0  0  0
  4 14  2  0  0  0  0
  4  7  1  0  0  0  0
  5 19  1  0  0  0  0
  5  4  1  0  0  0  0
  7 12  1  0  0  0  0
  8 11  1  0  0  0  0
  9 18  2  0  0  0  0
 11 10  2  0  0  0  0
 12 21  1  6  0  0  0
 12 11  1  0  0  0  0
 13  9  1  0  0  0  0
 13  5  1  0  0  0  0
 14  8  1  0  0  0  0
 15 19  2  0  0  0  0
 16 17  1  0  0  0  0
 17  6  1  0  0  0  0
 17  3  2  0  0  0  0
 18 14  1  0  0  0  0
 19 30  1  0  0  0  0
 21 22  1  0  0  0  0
 22 20  1  0  0  0  0
 22 23  2  0  0  0  0
 24  2  1  0  0  0  0
 25 27  1  0  0  0  0
 25 29  1  0  0  0  0
 27 29  1  0  0  0  0
 27 28  1  0  0  0  0
 27 24  1  1  0  0  0
 29 26  1  6  0  0  0
 29 28  1  0  0  0  0
 30 31  1  0  0  0  0
 31 32  1  0  0  0  0
 32 33  1  0  0  0  0
 33 34  1  0  0  0  0
 34 35  1  0  0  0  0
 35 36  3  0  0  0  0
M  END
>  <MODEL>
6

>  <REMARK>
 VINA RESULT:      -5.8      2.730      7.338
  Name = 
  9 active torsions:
  status: ('A' for Active; 'I' for Inactive)
    1  A    between atoms: C_3  and  O_5
    2  A    between atoms: O_5  and  C_21
    3  A    between atoms: C_6  and  N_24
    4  A    between atoms: C_8  and  C_13
    5  A    between atoms: C_8  and  N_29
    6  A    between atoms: C_13  and  C_36
    7  A    between atoms: N_18  and  C_25
    8  A    between atoms: N_24  and  C_32
    9  A    between atoms: N_29  and  C_32
                            x       y       z     vdW  Elec       q    Type
                         _______ _______ _______ _____ _____    ______ ____

>  <TORSDO>
F 9

$$$$
=
 OpenBabel11042414443D

 36 40  0  0  1  0  0  0  0  0999 V2000
  190.0000  177.8790  142.9850 C   0  0  0  0  0  3  0  0  0  0  0  0
  190.5180  176.5560  143.4040 C   0  0  0  0  0  0  0  0  0  0  0  0
  187.9810  176.0500  141.5480 C   0  0  0  0  0  3  0  0  0  0  0  0
  190.9770  173.1050  142.4310 C   0  0  0  0  0  0  0  0  0  0  0  0
  190.7400  174.1520  143.3950 N   0  0  0  0  0  0  0  0  0  0  0  0
  186.6140  177.9260  141.5110 O   0  0  0  0  0  1  0  0  0  0  0  0
  191.9890  172.0200  142.6950 C   0  0  0  0  0  2  0  0  0  0  0  0
  190.4980  172.0060  140.2590 C   0  0  0  0  0  2  0  0  0  0  0  0
  189.1530  175.2080  141.7920 C   0  0  0  0  0  0  0  0  0  0  0  0
  190.5140  169.6540  140.3460 O   0  0  0  0  0  0  0  0  0  0  0  0
  190.8100  170.6890  140.9170 C   0  0  0  0  0  0  0  0  0  0  0  0
  191.4510  170.6440  142.2850 C   0  0  1  0  0  3  0  0  0  0  0  0
  190.0890  175.3640  142.9370 C   0  0  0  0  0  0  0  0  0  0  0  0
  190.2830  173.0890  141.2790 C   0  0  0  0  0  0  0  0  0  0  0  0
  191.9150  173.3710  145.2670 O   0  0  0  0  0  0  0  0  0  0  0  0
  188.8850  178.2110  142.3410 C   0  0  0  0  0  3  0  0  0  0  0  0
  187.8330  177.3400  141.8190 C   0  0  0  0  0  0  0  0  0  0  0  0
  189.2630  174.1200  141.0260 C   0  0  0  0  0  3  0  0  0  0  0  0
  190.8520  173.8600  144.8000 C   0  0  0  0  0  0  0  0  0  0  0  0
  194.2180  168.2070  143.4820 C   0  0  0  0  0  1  0  0  0  0  0  0
  192.5300  169.6640  142.3120 N   0  0  0  0  0  2  0  0  0  0  0  0
  193.1130  169.1970  143.5300 C   0  0  0  0  0  0  0  0  0  0  0  0
  192.6950  169.6130  144.6420 O   0  0  0  0  0  0  0  0  0  0  0  0
  191.5820  176.5470  144.3190 O   0  0  0  0  0  0  0  0  0  0  0  0
  193.4340  176.0390  143.0370 C   0  0  0  0  0  2  0  0  0  0  0  0
  195.4540  176.4240  144.1200 C   0  0  0  0  0  1  0  0  0  0  0  0
  192.8910  177.0220  144.0210 C   0  0  1  0  0  0  0  0  0  0  0  0
  193.5750  177.0900  145.2360 O   0  0  0  0  0  0  0  0  0  0  0  0
  194.0200  176.0460  144.4140 C   0  0  1  0  0  0  0  0  0  0  0  0
  189.6920  174.0880  145.7130 C   0  0  0  0  0  2  0  0  0  0  0  0
  190.0960  174.9600  146.8900 C   0  0  0  0  0  2  0  0  0  0  0  0
  189.4460  176.2560  146.7920 N   0  0  0  0  0  2  0  0  0  0  0  0
  188.0320  176.0160  146.5350 C   0  0  0  0  0  2  0  0  0  0  0  0
  187.2660  177.2190  146.8200 N   0  0  0  0  0  2  0  0  0  0  0  0
  186.7460  178.0040  145.7790 C   0  0  0  0  0  0  0  0  0  0  0  0
  186.3190  178.6510  144.9200 N   0  0  0  0  0  0  0  0  0  0  0  0
  1  2  1  0  0  0  0
  2 24  1  0  0  0  0
  3  9  1  0  0  0  0
  3 17  2  0  0  0  0
  4  7  1  0  0  0  0
  4  5  1  0  0  0  0
  5 19  1  0  0  0  0
  6 17  1  0  0  0  0
  8 11  1  0  0  0  0
  8 14  1  0  0  0  0
  9 13  1  0  0  0  0
 10 11  2  0  0  0  0
 11 12  1  0  0  0  0
 12 21  1  6  0  0  0
 12  7  1  0  0  0  0
 13  5  1  0  0  0  0
 13  2  2  0  0  0  0
 14  4  2  0  0  0  0
 16  1  2  0  0  0  0
 17 16  1  0  0  0  0
 18 14  1  0  0  0  0
 18  9  2  0  0  0  0
 19 15  2  0  0  0  0
 19 30  1  0  0  0  0
 20 22  1  0  0  0  0
 21 22  1  0  0  0  0
 22 23  2  0  0  0  0
 25 27  1  0  0  0  0
 25 29  1  0  0  0  0
 27 24  1  1  0  0  0
 27 29  1  0  0  0  0
 27 28  1  0  0  0  0
 29 26  1  6  0  0  0
 29 28  1  0  0  0  0
 30 31  1  0  0  0  0
 32 31  1  0  0  0  0
 33 32  1  0  0  0  0
 33 34  1  0  0  0  0
 35 34  1  0  0  0  0
 36 35  3  0  0  0  0
M  END
>  <MODEL>
7

>  <REMARK>
 VINA RESULT:      -5.8      2.523      5.989
  Name = 
  9 active torsions:
  status: ('A' for Active; 'I' for Inactive)
    1  A    between atoms: C_3  and  O_5
    2  A    between atoms: O_5  and  C_21
    3  A    between atoms: C_6  and  N_24
    4  A    between atoms: C_8  and  C_13
    5  A    between atoms: C_8  and  N_29
    6  A    between atoms: C_13  and  C_36
    7  A    between atoms: N_18  and  C_25
    8  A    between atoms: N_24  and  C_32
    9  A    between atoms: N_29  and  C_32
                            x       y       z     vdW  Elec       q    Type
                         _______ _______ _______ _____ _____    ______ ____

>  <TORSDO>
F 9

$$$$
=
 OpenBabel11042414443D

 36 40  0  0  1  0  0  0  0  0999 V2000
  192.9590  176.0760  146.6760 C   0  0  0  0  0  3  0  0  0  0  0  0
  192.1890  175.3180  145.6630 C   0  0  0  0  0  0  0  0  0  0  0  0
  194.8450  176.3720  144.2590 C   0  0  0  0  0  3  0  0  0  0  0  0
  192.4090  173.1680  142.7640 C   0  0  0  0  0  0  0  0  0  0  0  0
  191.7820  174.1890  143.5670 N   0  0  0  0  0  0  0  0  0  0  0  0
  195.6980  178.2020  145.4050 O   0  0  0  0  0  1  0  0  0  0  0  0
  191.6050  172.0360  142.1790 C   0  0  0  0  0  2  0  0  0  0  0  0
  194.4150  172.1840  141.6850 C   0  0  0  0  0  2  0  0  0  0  0  0
  194.0250  175.1970  143.9620 C   0  0  0  0  0  0  0  0  0  0  0  0
  194.0130  171.2860  139.5460 O   0  0  0  0  0  0  0  0  0  0  0  0
  193.5160  171.6990  140.5800 C   0  0  0  0  0  0  0  0  0  0  0  0
  192.0130  171.7540  140.7280 C   0  0  1  0  0  3  0  0  0  0  0  0
  192.6270  174.9950  144.4270 C   0  0  0  0  0  0  0  0  0  0  0  0
  193.7320  173.2260  142.5260 C   0  0  0  0  0  0  0  0  0  0  0  0
  189.5050  173.7410  143.2390 O   0  0  0  0  0  0  0  0  0  0  0  0
  194.0460  176.8320  146.5540 C   0  0  0  0  0  3  0  0  0  0  0  0
  194.8360  177.1170  145.3570 C   0  0  0  0  0  0  0  0  0  0  0  0
  194.5230  174.3490  143.0590 C   0  0  0  0  0  3  0  0  0  0  0  0
  190.4320  174.5930  143.2720 C   0  0  0  0  0  0  0  0  0  0  0  0
  190.0700  169.1030  138.6730 C   0  0  0  0  0  1  0  0  0  0  0  0
  191.4080  170.5060  140.2800 N   0  0  0  0  0  2  0  0  0  0  0  0
  190.6690  170.4050  139.0620 C   0  0  0  0  0  0  0  0  0  0  0  0
  190.5240  171.4070  138.3140 O   0  0  0  0  0  0  0  0  0  0  0  0
  190.9230  174.8470  146.0430 O   0  0  0  0  0  0  0  0  0  0  0  0
  188.9470  174.5740  147.2070 C   0  0  0  0  0  2  0  0  0  0  0  0
  187.5980  176.4660  147.2140 C   0  0  0  0  0  1  0  0  0  0  0  0
  190.0480  175.5420  146.9250 C   0  0  1  0  0  0  0  0  0  0  0  0
  189.6600  176.7090  146.2620 O   0  0  0  0  0  0  0  0  0  0  0  0
  188.6300  175.7660  146.3590 C   0  0  1  0  0  0  0  0  0  0  0  0
  190.1230  176.0190  142.9520 C   0  0  0  0  0  2  0  0  0  0  0  0
  188.6290  176.2160  142.7610 C   0  0  0  0  0  2  0  0  0  0  0  0
  188.2750  177.6020  143.0260 N   0  0  0  0  0  2  0  0  0  0  0  0
  188.0370  178.2440  141.7390 C   0  0  0  0  0  2  0  0  0  0  0  0
  187.1210  177.4390  140.9470 N   0  0  0  0  0  2  0  0  0  0  0  0
  185.8270  177.8970  140.6560 C   0  0  0  0  0  0  0  0  0  0  0  0
  184.7590  178.2750  140.4190 N   0  0  0  0  0  0  0  0  0  0  0  0
  2 24  1  0  0  0  0
  2  1  1  0  0  0  0
  3 17  2  0  0  0  0
  4  5  1  0  0  0  0
  5 13  1  0  0  0  0
  7  4  1  0  0  0  0
  8 14  1  0  0  0  0
  9  3  1  0  0  0  0
  9 13  1  0  0  0  0
 10 11  2  0  0  0  0
 11 12  1  0  0  0  0
 11  8  1  0  0  0  0
 12 21  1  1  0  0  0
 12  7  1  0  0  0  0
 13  2  2  0  0  0  0
 14  4  2  0  0  0  0
 14 18  1  0  0  0  0
 15 19  2  0  0  0  0
 16  1  2  0  0  0  0
 17  6  1  0  0  0  0
 17 16  1  0  0  0  0
 18  9  2  0  0  0  0
 19  5  1  0  0  0  0
 20 22  1  0  0  0  0
 22 21  1  0  0  0  0
 23 22  2  0  0  0  0
 27 24  1  6  0  0  0
 27 25  1  0  0  0  0
 28 29  1  0  0  0  0
 28 27  1  0  0  0  0
 29 27  1  0  0  0  0
 29 25  1  0  0  0  0
 29 26  1  1  0  0  0
 30 19  1  0  0  0  0
 31 30  1  0  0  0  0
 31 32  1  0  0  0  0
 33 32  1  0  0  0  0
 34 33  1  0  0  0  0
 35 34  1  0  0  0  0
 36 35  3  0  0  0  0
M  END
>  <MODEL>
8

>  <REMARK>
 VINA RESULT:      -5.7      2.697      6.033
  Name = 
  9 active torsions:
  status: ('A' for Active; 'I' for Inactive)
    1  A    between atoms: C_3  and  O_5
    2  A    between atoms: O_5  and  C_21
    3  A    between atoms: C_6  and  N_24
    4  A    between atoms: C_8  and  C_13
    5  A    between atoms: C_8  and  N_29
    6  A    between atoms: C_13  and  C_36
    7  A    between atoms: N_18  and  C_25
    8  A    between atoms: N_24  and  C_32
    9  A    between atoms: N_29  and  C_32
                            x       y       z     vdW  Elec       q    Type
                         _______ _______ _______ _____ _____    ______ ____

>  <TORSDO>
F 9

$$$$
=
 OpenBabel11042414443D

 36 40  0  0  1  0  0  0  0  0999 V2000
  196.2230  173.4980  143.0230 C   0  0  0  0  0  3  0  0  0  0  0  0
  194.8490  174.0050  142.8040 C   0  0  0  0  0  0  0  0  0  0  0  0
  194.9810  172.8320  145.7610 C   0  0  0  0  0  3  0  0  0  0  0  0
  191.9770  175.5590  144.3580 C   0  0  0  0  0  0  0  0  0  0  0  0
  192.6090  174.6820  143.4010 N   0  0  0  0  0  0  0  0  0  0  0  0
  196.7200  171.3060  145.9530 O   0  0  0  0  0  1  0  0  0  0  0  0
  190.8900  176.5130  143.9370 C   0  0  0  0  0  2  0  0  0  0  0  0
  191.7100  176.4130  146.6720 C   0  0  0  0  0  2  0  0  0  0  0  0
  194.1320  173.8840  145.2030 C   0  0  0  0  0  0  0  0  0  0  0  0
  189.4800  176.8570  147.2820 O   0  0  0  0  0  0  0  0  0  0  0  0
  190.2530  176.6280  146.3670 C   0  0  0  0  0  0  0  0  0  0  0  0
  189.7380  176.5280  144.9490 C   0  0  1  0  0  3  0  0  0  0  0  0
  193.8910  174.1030  143.7520 C   0  0  0  0  0  0  0  0  0  0  0  0
  192.3560  175.5220  145.6480 C   0  0  0  0  0  0  0  0  0  0  0  0
  191.2390  174.9440  141.5170 O   0  0  0  0  0  0  0  0  0  0  0  0
  196.7390  172.7880  144.0220 C   0  0  0  0  0  3  0  0  0  0  0  0
  196.0880  172.3160  145.2440 C   0  0  0  0  0  0  0  0  0  0  0  0
  193.3890  174.5650  146.0790 C   0  0  0  0  0  3  0  0  0  0  0  0
  191.8400  174.1620  142.3010 C   0  0  0  0  0  0  0  0  0  0  0  0
  186.5550  178.6700  144.3970 C   0  0  0  0  0  1  0  0  0  0  0  0
  188.8350  177.6330  144.6530 N   0  0  0  0  0  2  0  0  0  0  0  0
  187.4140  177.5040  144.7240 C   0  0  0  0  0  0  0  0  0  0  0  0
  186.8850  176.4140  145.0660 O   0  0  0  0  0  0  0  0  0  0  0  0
  194.5380  174.4770  141.5200 O   0  0  0  0  0  0  0  0  0  0  0  0
  196.0560  175.4480  140.0760 C   0  0  0  0  0  2  0  0  0  0  0  0
  195.7290  174.8680  137.8500 C   0  0  0  0  0  1  0  0  0  0  0  0
  195.3080  174.1870  140.3590 C   0  0  1  0  0  0  0  0  0  0  0  0
  194.4040  173.7950  139.3690 O   0  0  0  0  0  0  0  0  0  0  0  0
  194.9580  175.0600  139.1360 C   0  0  1  0  0  0  0  0  0  0  0  0
  191.7050  172.6870  142.1050 C   0  0  0  0  0  2  0  0  0  0  0  0
  190.4880  172.3660  141.2540 C   0  0  0  0  0  2  0  0  0  0  0  0
  189.3280  172.1630  142.1060 N   0  0  0  0  0  2  0  0  0  0  0  0
  188.2450  172.9780  141.5700 C   0  0  0  0  0  2  0  0  0  0  0  0
  188.1150  174.2000  142.3470 N   0  0  0  0  0  2  0  0  0  0  0  0
  187.8090  175.4190  141.7240 C   0  0  0  0  0  0  0  0  0  0  0  0
  187.5560  176.4260  141.2120 N   0  0  0  0  0  0  0  0  0  0  0  0
  1 16  2  0  0  0  0
  2  1  1  0  0  0  0
  2 13  2  0  0  0  0
  4 14  2  0  0  0  0
  5 13  1  0  0  0  0
  5  4  1  0  0  0  0
  7  4  1  0  0  0  0
  7 12  1  0  0  0  0
  9  3  1  0  0  0  0
  9 18  2  0  0  0  0
 11  8  1  0  0  0  0
 11 10  2  0  0  0  0
 12 21  1  6  0  0  0
 12 11  1  0  0  0  0
 13  9  1  0  0  0  0
 14 18  1  0  0  0  0
 14  8  1  0  0  0  0
 15 19  2  0  0  0  0
 16 17  1  0  0  0  0
 17  3  2  0  0  0  0
 17  6  1  0  0  0  0
 19  5  1  0  0  0  0
 20 22  1  0  0  0  0
 21 22  1  0  0  0  0
 22 23  2  0  0  0  0
 24  2  1  0  0  0  0
 25 27  1  0  0  0  0
 27 24  1  1  0  0  0
 28 27  1  0  0  0  0
 29 26  1  6  0  0  0
 29 28  1  0  0  0  0
 29 25  1  0  0  0  0
 29 27  1  0  0  0  0
 30 19  1  0  0  0  0
 31 30  1  0  0  0  0
 31 32  1  0  0  0  0
 33 32  1  0  0  0  0
 33 34  1  0  0  0  0
 35 34  1  0  0  0  0
 36 35  3  0  0  0  0
M  END
>  <MODEL>
9

>  <REMARK>
 VINA RESULT:      -5.6      3.122      8.037
  Name = 
  9 active torsions:
  status: ('A' for Active; 'I' for Inactive)
    1  A    between atoms: C_3  and  O_5
    2  A    between atoms: O_5  and  C_21
    3  A    between atoms: C_6  and  N_24
    4  A    between atoms: C_8  and  C_13
    5  A    between atoms: C_8  and  N_29
    6  A    between atoms: C_13  and  C_36
    7  A    between atoms: N_18  and  C_25
    8  A    between atoms: N_24  and  C_32
    9  A    between atoms: N_29  and  C_32
                            x       y       z     vdW  Elec       q    Type
                         _______ _______ _______ _____ _____    ______ ____

>  <TORSDO>
F 9

$$$$
