=
 OpenBabel11042414333D

 64 72  0  0  1  0  0  0  0  0999 V2000
  188.3980  173.7160  141.0710 N   0  0  0  0  0  0  0  0  0  0  0  0
  192.1670  171.3830  138.3360 C   0  0  0  0  0  2  0  0  0  0  0  0
  190.8050  173.2290  140.7780 C   0  0  2  0  0  3  0  0  0  0  0  0
  189.7440  172.4800  143.6620 C   0  0  0  0  0  1  0  0  0  0  0  0
  191.5610  170.9120  140.5470 C   0  0  2  0  0  3  0  0  0  0  0  0
  189.7480  174.1900  141.3500 C   0  0  0  0  0  2  0  0  0  0  0  0
  193.0190  170.7910  140.4720 N   0  0  0  0  0  2  0  0  0  0  0  0
  191.0370  171.3360  139.2420 N   0  0  1  0  0  0  0  0  0  0  0  0
  191.7880  171.1120  143.8260 C   0  0  1  0  0  3  0  0  0  0  0  0
  189.0090  172.6520  138.9940 C   0  0  0  0  0  2  0  0  0  0  0  0
  190.5000  172.7000  139.3620 C   0  0  1  0  0  3  0  0  0  0  0  0
  193.4100  171.3050  139.1760 C   0  0  1  0  0  3  0  0  0  0  0  0
  192.0190  172.1700  142.7640 C   0  0  1  0  0  3  0  0  0  0  0  0
  191.1430  171.9720  141.5440 C   0  0  1  0  0  0  0  0  0  0  0  0
  190.6460  171.5160  142.9180 C   0  0  2  0  0  0  0  0  0  0  0  0
  188.2300  173.7940  139.6260 C   0  0  0  0  0  2  0  0  0  0  0  0
  187.4880  174.6710  141.6850 C   0  0  0  0  0  2  0  0  0  0  0  0
  187.9040  176.0860  141.3240 C   0  0  0  0  0  2  0  0  0  0  0  0
  186.7790  176.7830  140.7330 N   0  0  0  0  0  2  0  0  0  0  0  0
  186.0690  177.4520  141.8160 C   0  0  2  0  0  3  0  0  0  0  0  0
  184.7010  178.6160  140.0900 O   0  0  0  0  0  0  0  0  0  0  0  0
  184.7650  177.9970  141.3270 C   0  0  0  0  0  0  0  0  0  0  0  0
  183.7210  177.8670  142.0170 O   0  0  0  0  0  1  0  0  0  0  0  0
  186.9250  178.5390  142.4730 C   0  0  0  0  0  2  0  0  0  0  0  0
  185.6610  179.2890  144.4790 C   0  0  0  0  0  0  0  0  0  0  0  0
  186.0540  176.6160  145.4350 C   0  0  0  0  0  3  0  0  0  0  0  0
  186.8620  177.0720  144.4660 C   0  0  0  0  0  3  0  0  0  0  0  0
  185.5960  180.4880  144.2650 O   0  0  0  0  0  0  0  0  0  0  0  0
  184.5430  178.6120  145.2190 C   0  0  0  0  0  2  0  0  0  0  0  0
  186.8600  178.5080  143.9980 C   0  0  1  0  0  3  0  0  0  0  0  0
  185.0730  177.5110  146.1440 C   0  0  2  0  0  3  0  0  0  0  0  0
  185.7060  179.4960  147.6110 N   0  0  0  0  0  1  0  0  0  0  0  0
  186.0210  177.3080  148.3240 O   0  0  0  0  0  0  0  0  0  0  0  0
  185.6450  178.0850  147.4080 C   0  0  0  0  0  0  0  0  0  0  0  0
  194.4170  170.3790  138.5210 C   0  0  0  0  0  2  0  0  0  0  0  0
  195.8190  170.9090  138.7570 C   0  0  0  0  0  2  0  0  0  0  0  0
  196.1060  172.0570  137.9040 N   0  0  0  0  0  2  0  0  0  0  0  0
  197.6430  173.7770  137.6600 O   0  0  0  0  0  0  0  0  0  0  0  0
  196.7390  173.2550  138.3690 C   0  0  0  0  0  0  0  0  0  0  0  0
  196.4970  173.7950  139.7510 C   0  0  1  0  0  3  0  0  0  0  0  0
  194.6360  174.2990  141.1700 C   0  0  0  0  0  1  0  0  0  0  0  0
  196.6370  175.3280  139.7790 C   0  0  0  0  0  0  0  0  0  0  0  0
  195.2580  174.5990  139.8080 C   0  0  1  0  0  3  0  0  0  0  0  0
  197.5640  175.3800  141.0070 C   0  0  0  0  0  2  0  0  0  0  0  0
  196.4630  176.3580  140.9120 C   0  0  0  0  0  2  0  0  0  0  0  0
  192.3910  169.7850  143.3990 C   0  0  0  0  0  2  0  0  0  0  0  0
  193.2010  169.2210  144.5480 C   0  0  0  0  0  2  0  0  0  0  0  0
  194.5490  169.9190  144.6290 C   0  0  0  0  0  2  0  0  0  0  0  0
  194.5580  170.9660  145.7380 C   0  0  0  0  0  2  0  0  0  0  0  0
  195.1790  172.2920  145.3050 C   0  0  1  0  0  3  0  0  0  0  0  0
  195.5530  172.2400  143.9610 O   0  0  0  0  0  1  0  0  0  0  0  0
  194.2240  173.3820  145.5010 N   0  0  0  0  0  2  0  0  0  0  0  0
  195.7390  175.0960  145.0460 O   0  0  0  0  0  0  0  0  0  0  0  0
  194.5640  174.7700  145.3700 C   0  0  0  0  0  0  0  0  0  0  0  0
  192.7390  176.3880  144.5750 C   0  0  1  0  0  3  0  0  0  0  0  0
  192.5170  175.2190  146.6600 C   0  0  2  0  0  3  0  0  0  0  0  0
  193.5710  175.8570  145.7410 C   0  0  1  0  0  0  0  0  0  0  0  0
  191.4360  174.6850  145.7240 C   0  0  0  0  0  2  0  0  0  0  0  0
  193.6160  176.7230  143.0530 Cl  0  0  0  0  0  0  0  0  0  0  0  0
  191.5780  175.4250  144.4020 C   0  0  0  0  0  2  0  0  0  0  0  0
  194.3200  177.0170  146.3950 C   0  0  0  0  0  1  0  0  0  0  0  0
  191.8720  176.2040  147.6290 C   0  0  0  0  0  2  0  0  0  0  0  0
  190.3580  176.1190  147.5380 C   0  0  0  0  0  2  0  0  0  0  0  0
  189.8250  177.4070  147.4710 O   0  0  0  0  0  1  0  0  0  0  0  0
  1  6  1  0  0  0  0
  1 17  1  0  0  0  0
  2 12  1  0  0  0  0
  3  6  1  1  0  0  0
  3 14  1  0  0  0  0
  5  7  1  6  0  0  0
  5 14  1  0  0  0  0
  8  2  1  6  0  0  0
  8 11  1  0  0  0  0
  8  5  1  0  0  0  0
  9 46  1  6  0  0  0
 10 16  1  0  0  0  0
 11 10  1  1  0  0  0
 11  3  1  0  0  0  0
 12 35  1  6  0  0  0
 12  7  1  0  0  0  0
 13 15  1  0  0  0  0
 13  9  1  0  0  0  0
 14 13  1  0  0  0  0
 14 15  1  0  0  0  0
 15  4  1  0  0  0  0
 15  9  1  0  0  0  0
 16  1  1  0  0  0  0
 18 17  1  0  0  0  0
 19 18  1  0  0  0  0
 19 20  1  0  0  0  0
 20 24  1  0  0  0  0
 21 22  2  0  0  0  0
 22 20  1  0  0  0  0
 22 23  1  0  0  0  0
 24 30  1  0  0  0  0
 25 29  1  0  0  0  0
 26 31  1  0  0  0  0
 27 26  2  0  0  0  0
 28 25  2  0  0  0  0
 29 31  1  0  0  0  0
 30 27  1  0  0  0  0
 30 25  1  0  0  0  0
 31 34  1  0  0  0  0
 34 32  1  0  0  0  0
 34 33  2  0  0  0  0
 35 36  1  0  0  0  0
 37 39  1  0  0  0  0
 37 36  1  0  0  0  0
 38 39  2  0  0  0  0
 39 40  1  0  0  0  0
 40 42  1  0  0  0  0
 40 43  1  0  0  0  0
 42 43  1  0  0  0  0
 42 45  1  0  0  0  0
 42 44  1  0  0  0  0
 43 41  1  0  0  0  0
 45 44  1  0  0  0  0
 46 47  1  0  0  0  0
 47 48  1  0  0  0  0
 48 49  1  0  0  0  0
 50 52  1  0  0  0  0
 50 49  1  0  0  0  0
 51 50  1  0  0  0  0
 53 54  2  0  0  0  0
 54 52  1  0  0  0  0
 54 57  1  0  0  0  0
 55 57  1  0  0  0  0
 56 62  1  0  0  0  0
 57 61  1  0  0  0  0
 57 56  1  0  0  0  0
 58 56  1  0  0  0  0
 59 55  1  0  0  0  0
 60 55  1  0  0  0  0
 60 58  1  0  0  0  0
 63 62  1  0  0  0  0
 64 63  1  0  0  0  0
M  END
>  <MODEL>
1

>  <REMARK>
 VINA RESULT:      -7.3      0.000      0.000
  Name = 
  21 active torsions:
  status: ('A' for Active; 'I' for Inactive)
    1  A    between atoms: C_1  and  N_27
    2  A    between atoms: C_1  and  C_59
    3  A    between atoms: C_2  and  C_12
    4  A    between atoms: C_2  and  C_22
    5  A    between atoms: C_3  and  N_23
    6  A    between atoms: C_3  and  C_49
    7  A    between atoms: N_4  and  C_49
    8  A    between atoms: C_8  and  C_44
    9  A    between atoms: C_9  and  C_35
   10  A    between atoms: C_9  and  C_54
   11  A    between atoms: N_11  and  C_20
   12  A    between atoms: C_17  and  C_43
   13  A    between atoms: CA_18  and  N_23
   14  A    between atoms: CA_18  and  C_42
   15  A    between atoms: CA_18  and  C_47
   16  A    between atoms: C_20  and  C_21
   17  A    between atoms: C_21  and  C_45
   18  A    between atoms: C_42  and  C_61
   19  A    between atoms: C_51  and  C_54
   20  A    between atoms: C_51  and  C_59
   21  A    between atoms: C_62  and  C_63
                            x       y       z     vdW  Elec       q    Type
                         _______ _______ _______ _____ _____    ______ ____

>  <TORSDO>
F 21

$$$$
=
 OpenBabel11042414333D

 64 72  0  0  1  0  0  0  0  0999 V2000
  188.4930  173.9030  141.4470 N   0  0  0  0  0  0  0  0  0  0  0  0
  191.7010  170.8730  138.6800 C   0  0  0  0  0  2  0  0  0  0  0  0
  190.8010  173.1700  140.9480 C   0  0  2  0  0  3  0  0  0  0  0  0
  190.0820  172.9490  144.0200 C   0  0  0  0  0  1  0  0  0  0  0  0
  191.3610  170.7870  140.9940 C   0  0  2  0  0  3  0  0  0  0  0  0
  189.8970  174.2930  141.4840 C   0  0  0  0  0  2  0  0  0  0  0  0
  192.7850  170.5300  140.7650 N   0  0  0  0  0  2  0  0  0  0  0  0
  190.7000  171.0590  139.7110 N   0  0  1  0  0  0  0  0  0  0  0  0
  192.0320  171.4460  144.1490 C   0  0  1  0  0  3  0  0  0  0  0  0
  188.7510  172.4960  139.5050 C   0  0  0  0  0  2  0  0  0  0  0  0
  190.2770  172.4680  139.6800 C   0  0  1  0  0  3  0  0  0  0  0  0
  193.0370  170.8120  139.3670 C   0  0  1  0  0  3  0  0  0  0  0  0
  192.1930  172.3120  142.9150 C   0  0  1  0  0  3  0  0  0  0  0  0
  191.1510  172.0150  141.8550 C   0  0  1  0  0  0  0  0  0  0  0  0
  190.8100  171.8100  143.3330 C   0  0  2  0  0  0  0  0  0  0  0  0
  188.1410  173.7820  140.0390 C   0  0  0  0  0  2  0  0  0  0  0  0
  187.7390  175.0130  142.0090 C   0  0  0  0  0  2  0  0  0  0  0  0
  188.5740  176.2810  141.9610 C   0  0  0  0  0  2  0  0  0  0  0  0
  187.7110  177.4330  142.1310 N   0  0  0  0  0  2  0  0  0  0  0  0
  186.3740  177.0350  141.7080 C   0  0  2  0  0  3  0  0  0  0  0  0
  186.6540  177.2320  139.2400 O   0  0  0  0  0  0  0  0  0  0  0  0
  186.0320  177.6700  140.3970 C   0  0  0  0  0  0  0  0  0  0  0  0
  185.1590  178.5750  140.3350 O   0  0  0  0  0  1  0  0  0  0  0  0
  185.3210  177.3450  142.7770 C   0  0  0  0  0  2  0  0  0  0  0  0
  185.3260  179.0420  144.5950 C   0  0  0  0  0  0  0  0  0  0  0  0
  185.3720  176.7940  146.3710 C   0  0  0  0  0  3  0  0  0  0  0  0
  185.7570  176.6100  145.1000 C   0  0  0  0  0  3  0  0  0  0  0  0
  185.4950  180.0610  143.9460 O   0  0  0  0  0  0  0  0  0  0  0  0
  184.5150  179.0990  145.8570 C   0  0  0  0  0  2  0  0  0  0  0  0
  185.9320  177.7440  144.1170 C   0  0  1  0  0  3  0  0  0  0  0  0
  185.0850  178.1630  146.9280 C   0  0  2  0  0  3  0  0  0  0  0  0
  186.2260  180.0600  148.1880 N   0  0  0  0  0  1  0  0  0  0  0  0
  187.3440  178.0860  147.6920 O   0  0  0  0  0  0  0  0  0  0  0  0
  186.2870  178.7630  147.5990 C   0  0  0  0  0  0  0  0  0  0  0  0
  193.8830  169.7150  138.7490 C   0  0  0  0  0  2  0  0  0  0  0  0
  194.5780  170.2510  137.5110 C   0  0  0  0  0  2  0  0  0  0  0  0
  195.7650  171.0240  137.8580 N   0  0  0  0  0  2  0  0  0  0  0  0
  196.3790  173.0290  138.8510 O   0  0  0  0  0  0  0  0  0  0  0  0
  195.8020  172.4560  137.8860 C   0  0  0  0  0  0  0  0  0  0  0  0
  195.0160  173.2880  136.9120 C   0  0  1  0  0  3  0  0  0  0  0  0
  195.2660  175.3450  135.7120 C   0  0  0  0  0  1  0  0  0  0  0  0
  193.9330  174.1100  137.6350 C   0  0  0  0  0  0  0  0  0  0  0  0
  195.2640  174.7320  137.1110 C   0  0  1  0  0  3  0  0  0  0  0  0
  192.7810  173.7200  136.6900 C   0  0  0  0  0  2  0  0  0  0  0  0
  192.8950  175.1260  137.1180 C   0  0  0  0  0  2  0  0  0  0  0  0
  192.4830  170.0230  143.8670 C   0  0  0  0  0  2  0  0  0  0  0  0
  193.7560  169.7480  144.6390 C   0  0  0  0  0  2  0  0  0  0  0  0
  194.3350  171.0490  145.1710 C   0  0  0  0  0  2  0  0  0  0  0  0
  195.8400  171.1170  144.9350 C   0  0  0  0  0  2  0  0  0  0  0  0
  196.2160  171.9020  143.6810 C   0  0  1  0  0  3  0  0  0  0  0  0
  195.7950  171.2230  142.5360 O   0  0  0  0  0  1  0  0  0  0  0  0
  195.5990  173.2280  143.7130 N   0  0  0  0  0  2  0  0  0  0  0  0
  197.1250  174.2240  142.2570 O   0  0  0  0  0  0  0  0  0  0  0  0
  196.1050  174.3580  142.9890 C   0  0  0  0  0  0  0  0  0  0  0  0
  194.7270  176.2800  141.9940 C   0  0  1  0  0  3  0  0  0  0  0  0
  194.4480  175.6300  144.2890 C   0  0  2  0  0  3  0  0  0  0  0  0
  195.5150  175.7420  143.1880 C   0  0  1  0  0  0  0  0  0  0  0  0
  193.1510  175.2890  143.5600 C   0  0  0  0  0  2  0  0  0  0  0  0
  195.4650  176.0520  140.3810 Cl  0  0  0  0  0  0  0  0  0  0  0  0
  193.3300  175.6980  142.1040 C   0  0  0  0  0  2  0  0  0  0  0  0
  196.6380  176.7200  143.5320 C   0  0  0  0  0  1  0  0  0  0  0  0
  194.2360  176.9230  145.0690 C   0  0  0  0  0  2  0  0  0  0  0  0
  194.2650  176.6480  146.5630 C   0  0  0  0  0  2  0  0  0  0  0  0
  192.9680  176.7060  147.0710 O   0  0  0  0  0  1  0  0  0  0  0  0
  1  6  1  0  0  0  0
  1 17  1  0  0  0  0
  2 12  1  0  0  0  0
  3  6  1  1  0  0  0
  3 14  1  0  0  0  0
  5  7  1  6  0  0  0
  5 14  1  0  0  0  0
  8  2  1  6  0  0  0
  8  5  1  0  0  0  0
  9 46  1  6  0  0  0
 10 16  1  0  0  0  0
 11 10  1  1  0  0  0
 11  8  1  0  0  0  0
 11  3  1  0  0  0  0
 12 35  1  6  0  0  0
 12  7  1  0  0  0  0
 13 15  1  0  0  0  0
 13  9  1  0  0  0  0
 14 13  1  0  0  0  0
 14 15  1  0  0  0  0
 15  4  1  0  0  0  0
 15  9  1  0  0  0  0
 16  1  1  0  0  0  0
 18 17  1  0  0  0  0
 18 19  1  0  0  0  0
 20 19  1  0  0  0  0
 20 24  1  0  0  0  0
 21 22  2  0  0  0  0
 22 20  1  0  0  0  0
 23 22  1  0  0  0  0
 24 30  1  0  0  0  0
 25 29  1  0  0  0  0
 26 31  1  0  0  0  0
 27 26  2  0  0  0  0
 28 25  2  0  0  0  0
 29 31  1  0  0  0  0
 30 25  1  0  0  0  0
 30 27  1  0  0  0  0
 31 34  1  0  0  0  0
 34 33  2  0  0  0  0
 34 32  1  0  0  0  0
 36 37  1  0  0  0  0
 36 35  1  0  0  0  0
 37 39  1  0  0  0  0
 39 38  2  0  0  0  0
 40 43  1  0  0  0  0
 40 42  1  0  0  0  0
 40 39  1  0  0  0  0
 41 43  1  0  0  0  0
 43 42  1  0  0  0  0
 44 45  1  0  0  0  0
 44 42  1  0  0  0  0
 45 42  1  0  0  0  0
 46 47  1  0  0  0  0
 47 48  1  0  0  0  0
 49 48  1  0  0  0  0
 50 52  1  0  0  0  0
 50 49  1  0  0  0  0
 51 50  1  0  0  0  0
 53 54  2  0  0  0  0
 54 57  1  0  0  0  0
 54 52  1  0  0  0  0
 55 60  1  0  0  0  0
 55 57  1  0  0  0  0
 56 62  1  0  0  0  0
 57 61  1  0  0  0  0
 57 56  1  0  0  0  0
 58 56  1  0  0  0  0
 59 55  1  0  0  0  0
 60 58  1  0  0  0  0
 62 63  1  0  0  0  0
 63 64  1  0  0  0  0
M  END
>  <MODEL>
2

>  <REMARK>
 VINA RESULT:      -7.0      1.625      2.277
  Name = 
  21 active torsions:
  status: ('A' for Active; 'I' for Inactive)
    1  A    between atoms: C_1  and  N_27
    2  A    between atoms: C_1  and  C_59
    3  A    between atoms: C_2  and  C_12
    4  A    between atoms: C_2  and  C_22
    5  A    between atoms: C_3  and  N_23
    6  A    between atoms: C_3  and  C_49
    7  A    between atoms: N_4  and  C_49
    8  A    between atoms: C_8  and  C_44
    9  A    between atoms: C_9  and  C_35
   10  A    between atoms: C_9  and  C_54
   11  A    between atoms: N_11  and  C_20
   12  A    between atoms: C_17  and  C_43
   13  A    between atoms: CA_18  and  N_23
   14  A    between atoms: CA_18  and  C_42
   15  A    between atoms: CA_18  and  C_47
   16  A    between atoms: C_20  and  C_21
   17  A    between atoms: C_21  and  C_45
   18  A    between atoms: C_42  and  C_61
   19  A    between atoms: C_51  and  C_54
   20  A    between atoms: C_51  and  C_59
   21  A    between atoms: C_62  and  C_63
                            x       y       z     vdW  Elec       q    Type
                         _______ _______ _______ _____ _____    ______ ____

>  <TORSDO>
F 21

$$$$
=
 OpenBabel11042414333D

 64 72  0  0  1  0  0  0  0  0999 V2000
  190.2060  171.8890  141.4810 N   0  0  0  0  0  0  0  0  0  0  0  0
  187.4120  176.1410  140.3670 C   0  0  0  0  0  2  0  0  0  0  0  0
  188.5600  173.5860  142.2060 C   0  0  2  0  0  3  0  0  0  0  0  0
  191.0130  173.3330  144.1870 C   0  0  0  0  0  1  0  0  0  0  0  0
  189.0880  175.9670  141.9910 C   0  0  2  0  0  3  0  0  0  0  0  0
  189.0990  172.1570  142.3910 C   0  0  0  0  0  2  0  0  0  0  0  0
  188.0480  176.8360  142.5460 N   0  0  0  0  0  2  0  0  0  0  0  0
  188.6700  175.4870  140.6670 N   0  0  1  0  0  0  0  0  0  0  0  0
  190.2890  175.5340  145.0260 C   0  0  1  0  0  3  0  0  0  0  0  0
  189.3720  173.3480  139.7520 C   0  0  0  0  0  2  0  0  0  0  0  0
  188.4200  174.0400  140.7390 C   0  0  1  0  0  3  0  0  0  0  0  0
  186.9170  176.7550  141.6450 C   0  0  1  0  0  3  0  0  0  0  0  0
  189.1020  174.8830  144.3430 C   0  0  1  0  0  3  0  0  0  0  0  0
  189.2990  174.7370  142.8470 C   0  0  1  0  0  0  0  0  0  0  0  0
  190.5120  174.7040  143.7800 C   0  0  2  0  0  0  0  0  0  0  0  0
  189.6420  171.9030  140.1390 C   0  0  0  0  0  2  0  0  0  0  0  0
  190.6600  170.5360  141.7680 C   0  0  0  0  0  2  0  0  0  0  0  0
  191.2920  169.9300  140.5270 C   0  0  0  0  0  2  0  0  0  0  0  0
  192.6430  169.5030  140.8340 N   0  0  0  0  0  2  0  0  0  0  0  0
  193.5350  170.2080  139.9220 C   0  0  2  0  0  3  0  0  0  0  0  0
  195.7680  169.6550  140.8780 O   0  0  0  0  0  1  0  0  0  0  0  0
  194.8570  169.5140  139.8450 C   0  0  0  0  0  0  0  0  0  0  0  0
  195.1340  168.7770  138.8630 O   0  0  0  0  0  0  0  0  0  0  0  0
  193.6930  171.6830  140.3070 C   0  0  0  0  0  2  0  0  0  0  0  0
  193.2960  174.0640  139.7100 C   0  0  0  0  0  0  0  0  0  0  0  0
  194.4750  173.3830  137.1890 C   0  0  0  0  0  3  0  0  0  0  0  0
  193.9930  172.3930  137.9550 C   0  0  0  0  0  3  0  0  0  0  0  0
  192.6170  174.4200  140.6590 O   0  0  0  0  0  0  0  0  0  0  0  0
  194.2100  175.0530  139.0470 C   0  0  0  0  0  2  0  0  0  0  0  0
  193.2060  172.6380  139.2210 C   0  0  1  0  0  3  0  0  0  0  0  0
  194.2630  174.8330  137.5310 C   0  0  2  0  0  3  0  0  0  0  0  0
  193.1190  176.6440  136.1520 N   0  0  0  0  0  1  0  0  0  0  0  0
  191.9790  174.7450  136.8500 O   0  0  0  0  0  0  0  0  0  0  0  0
  193.0520  175.4030  136.8510 C   0  0  0  0  0  0  0  0  0  0  0  0
  186.3590  178.1390  141.3690 C   0  0  0  0  0  2  0  0  0  0  0  0
  186.1140  178.8550  142.6840 C   0  0  0  0  0  2  0  0  0  0  0  0
  184.8830  178.4010  143.3190 N   0  0  0  0  0  2  0  0  0  0  0  0
  183.4830  178.9060  145.0990 O   0  0  0  0  0  0  0  0  0  0  0  0
  184.6220  178.5140  144.7230 C   0  0  0  0  0  0  0  0  0  0  0  0
  185.7140  178.3660  145.7460 C   0  0  1  0  0  3  0  0  0  0  0  0
  187.0420  176.6170  146.7000 C   0  0  0  0  0  1  0  0  0  0  0  0
  185.1400  178.3940  147.1750 C   0  0  0  0  0  0  0  0  0  0  0  0
  185.6050  177.0820  146.4710 C   0  0  1  0  0  3  0  0  0  0  0  0
  186.1390  179.4280  147.7260 C   0  0  0  0  0  2  0  0  0  0  0  0
  185.8100  178.2540  148.5560 C   0  0  0  0  0  2  0  0  0  0  0  0
  190.3340  177.0210  144.7170 C   0  0  0  0  0  2  0  0  0  0  0  0
  191.7220  177.3800  144.2310 C   0  0  0  0  0  2  0  0  0  0  0  0
  192.7710  176.6930  145.0900 C   0  0  0  0  0  2  0  0  0  0  0  0
  193.9370  176.1980  144.2410 C   0  0  0  0  0  2  0  0  0  0  0  0
  195.0640  175.5860  145.0700 C   0  0  1  0  0  3  0  0  0  0  0  0
  194.7100  175.5450  146.4190 O   0  0  0  0  0  1  0  0  0  0  0  0
  195.3550  174.2320  144.6010 N   0  0  0  0  0  2  0  0  0  0  0  0
  193.6320  173.2050  145.7920 O   0  0  0  0  0  0  0  0  0  0  0  0
  194.6110  173.0740  145.0060 C   0  0  0  0  0  0  0  0  0  0  0  0
  196.3130  171.6320  143.7390 C   0  0  1  0  0  3  0  0  0  0  0  0
  195.5000  170.9580  145.8950 C   0  0  2  0  0  3  0  0  0  0  0  0
  195.0590  171.6790  144.6100 C   0  0  1  0  0  0  0  0  0  0  0  0
  196.9830  171.2840  146.0510 C   0  0  0  0  0  2  0  0  0  0  0  0
  196.3960  172.8090  142.3940 Cl  0  0  0  0  0  0  0  0  0  0  0  0
  197.4970  171.7150  144.6850 C   0  0  0  0  0  2  0  0  0  0  0  0
  193.9140  170.9730  143.8850 C   0  0  0  0  0  1  0  0  0  0  0  0
  195.3440  169.4430  145.8310 C   0  0  0  0  0  2  0  0  0  0  0  0
  194.7580  168.9170  147.1310 C   0  0  0  0  0  2  0  0  0  0  0  0
  195.7870  168.4580  147.9520 O   0  0  0  0  0  1  0  0  0  0  0  0
  1 17  1  0  0  0  0
  1  6  1  0  0  0  0
  2 12  1  0  0  0  0
  3  6  1  6  0  0  0
  3 14  1  0  0  0  0
  5  7  1  1  0  0  0
  5 14  1  0  0  0  0
  8  2  1  1  0  0  0
  8 11  1  0  0  0  0
  8  5  1  0  0  0  0
  9 46  1  6  0  0  0
 10 16  1  0  0  0  0
 11 10  1  6  0  0  0
 11  3  1  0  0  0  0
 12 35  1  6  0  0  0
 12  7  1  0  0  0  0
 13  9  1  0  0  0  0
 14 15  1  0  0  0  0
 14 13  1  0  0  0  0
 15  4  1  0  0  0  0
 15 13  1  0  0  0  0
 15  9  1  0  0  0  0
 16  1  1  0  0  0  0
 18 19  1  0  0  0  0
 18 17  1  0  0  0  0
 20 24  1  0  0  0  0
 20 19  1  0  0  0  0
 22 20  1  0  0  0  0
 22 21  1  0  0  0  0
 23 22  2  0  0  0  0
 25 28  2  0  0  0  0
 26 31  1  0  0  0  0
 26 27  2  0  0  0  0
 27 30  1  0  0  0  0
 29 25  1  0  0  0  0
 30 25  1  0  0  0  0
 30 24  1  0  0  0  0
 31 29  1  0  0  0  0
 32 34  1  0  0  0  0
 33 34  2  0  0  0  0
 34 31  1  0  0  0  0
 35 36  1  0  0  0  0
 36 37  1  0  0  0  0
 37 39  1  0  0  0  0
 39 38  2  0  0  0  0
 39 40  1  0  0  0  0
 40 43  1  0  0  0  0
 40 42  1  0  0  0  0
 42 44  1  0  0  0  0
 42 45  1  0  0  0  0
 43 41  1  0  0  0  0
 43 42  1  0  0  0  0
 44 45  1  0  0  0  0
 47 46  1  0  0  0  0
 47 48  1  0  0  0  0
 49 50  1  0  0  0  0
 49 48  1  0  0  0  0
 50 51  1  0  0  0  0
 52 54  1  0  0  0  0
 52 50  1  0  0  0  0
 54 53  2  0  0  0  0
 55 57  1  0  0  0  0
 55 60  1  0  0  0  0
 56 58  1  0  0  0  0
 57 54  1  0  0  0  0
 57 56  1  0  0  0  0
 59 55  1  0  0  0  0
 60 58  1  0  0  0  0
 61 57  1  0  0  0  0
 62 56  1  0  0  0  0
 62 63  1  0  0  0  0
 63 64  1  0  0  0  0
M  END
>  <MODEL>
3

>  <REMARK>
 VINA RESULT:      -6.6      2.424      9.240
  Name = 
  21 active torsions:
  status: ('A' for Active; 'I' for Inactive)
    1  A    between atoms: C_1  and  N_27
    2  A    between atoms: C_1  and  C_59
    3  A    between atoms: C_2  and  C_12
    4  A    between atoms: C_2  and  C_22
    5  A    between atoms: C_3  and  N_23
    6  A    between atoms: C_3  and  C_49
    7  A    between atoms: N_4  and  C_49
    8  A    between atoms: C_8  and  C_44
    9  A    between atoms: C_9  and  C_35
   10  A    between atoms: C_9  and  C_54
   11  A    between atoms: N_11  and  C_20
   12  A    between atoms: C_17  and  C_43
   13  A    between atoms: CA_18  and  N_23
   14  A    between atoms: CA_18  and  C_42
   15  A    between atoms: CA_18  and  C_47
   16  A    between atoms: C_20  and  C_21
   17  A    between atoms: C_21  and  C_45
   18  A    between atoms: C_42  and  C_61
   19  A    between atoms: C_51  and  C_54
   20  A    between atoms: C_51  and  C_59
   21  A    between atoms: C_62  and  C_63
                            x       y       z     vdW  Elec       q    Type
                         _______ _______ _______ _____ _____    ______ ____

>  <TORSDO>
F 21

$$$$
=
 OpenBabel11042414333D

 64 72  0  0  1  0  0  0  0  0999 V2000
  189.9470  172.1890  141.1360 N   0  0  0  0  0  0  0  0  0  0  0  0
  187.2510  176.6370  140.8710 C   0  0  0  0  0  2  0  0  0  0  0  0
  188.5370  173.8760  142.2670 C   0  0  2  0  0  3  0  0  0  0  0  0
  191.2590  173.3370  143.7850 C   0  0  0  0  0  1  0  0  0  0  0  0
  189.1550  176.2430  142.1740 C   0  0  2  0  0  3  0  0  0  0  0  0
  189.0170  172.4150  142.2370 C   0  0  0  0  0  2  0  0  0  0  0  0
  188.2680  177.0970  142.9670 N   0  0  0  0  0  2  0  0  0  0  0  0
  188.5030  175.9070  140.9020 N   0  0  1  0  0  0  0  0  0  0  0  0
  190.8040  175.4770  144.9190 C   0  0  1  0  0  3  0  0  0  0  0  0
  188.9270  173.8380  139.7010 C   0  0  0  0  0  2  0  0  0  0  0  0
  188.1870  174.4710  140.8890 C   0  0  1  0  0  3  0  0  0  0  0  0
  187.0040  177.1480  142.2630 C   0  0  1  0  0  3  0  0  0  0  0  0
  189.4870  174.9420  144.3890 C   0  0  1  0  0  3  0  0  0  0  0  0
  189.4320  174.9300  142.8750 C   0  0  1  0  0  0  0  0  0  0  0  0
  190.7760  174.7600  143.5870 C   0  0  2  0  0  0  0  0  0  0  0  0
  189.1760  172.3530  139.9120 C   0  0  0  0  0  2  0  0  0  0  0  0
  190.3650  170.7980  141.2260 C   0  0  0  0  0  2  0  0  0  0  0  0
  190.6250  170.2460  139.8350 C   0  0  0  0  0  2  0  0  0  0  0  0
  192.0540  170.1260  139.6240 N   0  0  0  0  0  2  0  0  0  0  0  0
  192.3330  170.6180  138.2800 C   0  0  2  0  0  3  0  0  0  0  0  0
  194.4330  169.3200  138.6140 O   0  0  0  0  0  1  0  0  0  0  0  0
  193.5980  170.0180  137.7570 C   0  0  0  0  0  0  0  0  0  0  0  0
  193.8930  170.1140  136.5370 O   0  0  0  0  0  0  0  0  0  0  0  0
  192.3710  172.1490  138.2310 C   0  0  0  0  0  2  0  0  0  0  0  0
  194.3160  173.6820  138.0090 C   0  0  0  0  0  0  0  0  0  0  0  0
  193.6010  174.5870  140.6320 C   0  0  0  0  0  3  0  0  0  0  0  0
  193.1480  173.3920  140.2250 C   0  0  0  0  0  3  0  0  0  0  0  0
  194.8220  173.2520  136.9850 O   0  0  0  0  0  0  0  0  0  0  0  0
  194.4260  175.1460  138.3260 C   0  0  0  0  0  2  0  0  0  0  0  0
  193.5890  172.7380  138.9360 C   0  0  1  0  0  3  0  0  0  0  0  0
  194.5990  175.3790  139.8310 C   0  0  2  0  0  3  0  0  0  0  0  0
  197.1170  175.5830  139.4990 N   0  0  0  0  0  1  0  0  0  0  0  0
  196.2180  174.5210  141.3590 O   0  0  0  0  0  0  0  0  0  0  0  0
  196.0110  175.1140  140.2680 C   0  0  0  0  0  0  0  0  0  0  0  0
  186.4870  178.5730  142.2030 C   0  0  0  0  0  2  0  0  0  0  0  0
  186.1320  179.0400  143.6030 C   0  0  0  0  0  2  0  0  0  0  0  0
  184.7440  178.7370  143.9300 N   0  0  0  0  0  2  0  0  0  0  0  0
  183.1820  179.0590  145.6150 O   0  0  0  0  0  0  0  0  0  0  0  0
  184.2700  178.5240  145.2660 C   0  0  0  0  0  0  0  0  0  0  0  0
  185.1160  177.8480  146.3080 C   0  0  1  0  0  3  0  0  0  0  0  0
  185.9490  178.3090  148.5050 C   0  0  0  0  0  1  0  0  0  0  0  0
  186.6120  177.9660  145.9670 C   0  0  0  0  0  0  0  0  0  0  0  0
  185.9210  178.8280  147.0680 C   0  0  1  0  0  3  0  0  0  0  0  0
  186.9400  176.4760  146.1760 C   0  0  0  0  0  2  0  0  0  0  0  0
  187.8780  177.4840  146.7040 C   0  0  0  0  0  2  0  0  0  0  0  0
  190.8810  176.9830  144.7370 C   0  0  0  0  0  2  0  0  0  0  0  0
  192.2380  177.3400  144.1660 C   0  0  0  0  0  2  0  0  0  0  0  0
  193.3360  176.6440  144.9530 C   0  0  0  0  0  2  0  0  0  0  0  0
  194.3000  175.9150  144.0240 C   0  0  0  0  0  2  0  0  0  0  0  0
  195.3010  175.0340  144.7680 C   0  0  1  0  0  3  0  0  0  0  0  0
  195.1910  175.2290  146.1460 O   0  0  0  0  0  1  0  0  0  0  0  0
  195.0630  173.6260  144.4550 N   0  0  0  0  0  2  0  0  0  0  0  0
  197.3160  173.0510  144.2690 O   0  0  0  0  0  0  0  0  0  0  0  0
  196.1120  172.6800  144.2020 C   0  0  0  0  0  0  0  0  0  0  0  0
  196.2240  170.1630  144.6880 C   0  0  1  0  0  3  0  0  0  0  0  0
  194.2670  171.1340  143.6920 C   0  0  2  0  0  3  0  0  0  0  0  0
  195.7980  171.2730  143.7280 C   0  0  1  0  0  0  0  0  0  0  0  0
  193.8740  170.6470  145.0840 C   0  0  0  0  0  2  0  0  0  0  0  0
  197.8520  170.3170  145.4140 Cl  0  0  0  0  0  0  0  0  0  0  0  0
  195.1160  170.0350  145.7160 C   0  0  0  0  0  2  0  0  0  0  0  0
  196.4560  171.0440  142.3690 C   0  0  0  0  0  1  0  0  0  0  0  0
  193.7680  170.1190  142.6690 C   0  0  0  0  0  2  0  0  0  0  0  0
  193.2500  168.8740  143.3700 C   0  0  0  0  0  2  0  0  0  0  0  0
  192.2570  168.2820  142.5890 O   0  0  0  0  0  1  0  0  0  0  0  0
  1 17  1  0  0  0  0
  1  6  1  0  0  0  0
  2 12  1  0  0  0  0
  3  6  1  6  0  0  0
  3 14  1  0  0  0  0
  5 14  1  0  0  0  0
  5  7  1  1  0  0  0
  8  2  1  1  0  0  0
  8  5  1  0  0  0  0
  9 46  1  6  0  0  0
 10 16  1  0  0  0  0
 11 10  1  6  0  0  0
 11  8  1  0  0  0  0
 11  3  1  0  0  0  0
 12 35  1  6  0  0  0
 12  7  1  0  0  0  0
 13  9  1  0  0  0  0
 14 15  1  0  0  0  0
 14 13  1  0  0  0  0
 15  4  1  0  0  0  0
 15 13  1  0  0  0  0
 15  9  1  0  0  0  0
 16  1  1  0  0  0  0
 18 17  1  0  0  0  0
 19 18  1  0  0  0  0
 20 19  1  0  0  0  0
 22 20  1  0  0  0  0
 22 21  1  0  0  0  0
 23 22  2  0  0  0  0
 24 20  1  0  0  0  0
 24 30  1  0  0  0  0
 25 29  1  0  0  0  0
 25 30  1  0  0  0  0
 27 26  2  0  0  0  0
 28 25  2  0  0  0  0
 29 31  1  0  0  0  0
 30 27  1  0  0  0  0
 31 34  1  0  0  0  0
 31 26  1  0  0  0  0
 32 34  1  0  0  0  0
 34 33  2  0  0  0  0
 35 36  1  0  0  0  0
 36 37  1  0  0  0  0
 37 39  1  0  0  0  0
 39 38  2  0  0  0  0
 39 40  1  0  0  0  0
 40 43  1  0  0  0  0
 42 44  1  0  0  0  0
 42 40  1  0  0  0  0
 42 45  1  0  0  0  0
 42 43  1  0  0  0  0
 43 41  1  0  0  0  0
 44 45  1  0  0  0  0
 47 46  1  0  0  0  0
 47 48  1  0  0  0  0
 49 50  1  0  0  0  0
 49 48  1  0  0  0  0
 50 51  1  0  0  0  0
 52 50  1  0  0  0  0
 54 53  2  0  0  0  0
 54 52  1  0  0  0  0
 55 59  1  0  0  0  0
 55 60  1  0  0  0  0
 56 57  1  0  0  0  0
 56 58  1  0  0  0  0
 57 54  1  0  0  0  0
 57 55  1  0  0  0  0
 58 60  1  0  0  0  0
 61 57  1  0  0  0  0
 62 63  1  0  0  0  0
 62 56  1  0  0  0  0
 64 63  1  0  0  0  0
M  END
>  <MODEL>
4

>  <REMARK>
 VINA RESULT:      -6.5      2.322      9.193
  Name = 
  21 active torsions:
  status: ('A' for Active; 'I' for Inactive)
    1  A    between atoms: C_1  and  N_27
    2  A    between atoms: C_1  and  C_59
    3  A    between atoms: C_2  and  C_12
    4  A    between atoms: C_2  and  C_22
    5  A    between atoms: C_3  and  N_23
    6  A    between atoms: C_3  and  C_49
    7  A    between atoms: N_4  and  C_49
    8  A    between atoms: C_8  and  C_44
    9  A    between atoms: C_9  and  C_35
   10  A    between atoms: C_9  and  C_54
   11  A    between atoms: N_11  and  C_20
   12  A    between atoms: C_17  and  C_43
   13  A    between atoms: CA_18  and  N_23
   14  A    between atoms: CA_18  and  C_42
   15  A    between atoms: CA_18  and  C_47
   16  A    between atoms: C_20  and  C_21
   17  A    between atoms: C_21  and  C_45
   18  A    between atoms: C_42  and  C_61
   19  A    between atoms: C_51  and  C_54
   20  A    between atoms: C_51  and  C_59
   21  A    between atoms: C_62  and  C_63
                            x       y       z     vdW  Elec       q    Type
                         _______ _______ _______ _____ _____    ______ ____

>  <TORSDO>
F 21

$$$$
=
 OpenBabel11042414333D

 64 72  0  0  1  0  0  0  0  0999 V2000
  191.1380  176.4230  145.4780 N   0  0  0  0  0  0  0  0  0  0  0  0
  194.4870  176.6840  141.4990 C   0  0  0  0  0  2  0  0  0  0  0  0
  193.4790  176.5370  144.6910 C   0  0  2  0  0  3  0  0  0  0  0  0
  192.9590  174.1020  146.6410 C   0  0  0  0  0  1  0  0  0  0  0  0
  194.2880  174.9280  143.0330 C   0  0  2  0  0  3  0  0  0  0  0  0
  192.4930  176.8240  145.8360 C   0  0  0  0  0  2  0  0  0  0  0  0
  195.7160  175.0760  142.7410 N   0  0  0  0  0  2  0  0  0  0  0  0
  193.5310  175.9600  142.3120 N   0  0  1  0  0  0  0  0  0  0  0  0
  195.0600  173.1950  145.7240 C   0  0  1  0  0  3  0  0  0  0  0  0
  191.4340  176.8760  143.1280 C   0  0  0  0  0  2  0  0  0  0  0  0
  192.9620  176.9040  143.2850 C   0  0  1  0  0  3  0  0  0  0  0  0
  195.8580  176.3000  141.9810 C   0  0  1  0  0  3  0  0  0  0  0  0
  195.0600  174.6940  145.4940 C   0  0  1  0  0  3  0  0  0  0  0  0
  193.9980  175.1310  144.5050 C   0  0  1  0  0  0  0  0  0  0  0  0
  193.7630  173.8930  145.3730 C   0  0  2  0  0  0  0  0  0  0  0  0
  190.7230  177.3090  144.4000 C   0  0  0  0  0  2  0  0  0  0  0  0
  190.3040  176.6990  146.6380 C   0  0  0  0  0  2  0  0  0  0  0  0
  189.0890  177.5080  146.2200 C   0  0  0  0  0  2  0  0  0  0  0  0
  187.9520  177.1280  147.0340 N   0  0  0  0  0  2  0  0  0  0  0  0
  186.7680  177.7240  146.4270 C   0  0  2  0  0  3  0  0  0  0  0  0
  184.6800  178.3860  147.6130 O   0  0  0  0  0  0  0  0  0  0  0  0
  186.0400  178.5680  147.4230 C   0  0  0  0  0  0  0  0  0  0  0  0
  186.6600  179.4190  148.1140 O   0  0  0  0  0  1  0  0  0  0  0  0
  185.8520  176.6660  145.8050 C   0  0  0  0  0  2  0  0  0  0  0  0
  185.1190  178.1780  143.9710 C   0  0  0  0  0  0  0  0  0  0  0  0
  187.5160  177.3420  142.6430 C   0  0  0  0  0  3  0  0  0  0  0  0
  187.0360  176.5760  143.6330 C   0  0  0  0  0  3  0  0  0  0  0  0
  183.9930  178.4580  144.3520 O   0  0  0  0  0  0  0  0  0  0  0  0
  185.9040  179.1900  143.1890 C   0  0  0  0  0  2  0  0  0  0  0  0
  185.7000  176.8220  144.2940 C   0  0  1  0  0  3  0  0  0  0  0  0
  186.7500  178.5200  142.1010 C   0  0  2  0  0  3  0  0  0  0  0  0
  186.4130  177.2530  139.9170 N   0  0  0  0  0  1  0  0  0  0  0  0
  184.7450  178.5990  140.8120 O   0  0  0  0  0  0  0  0  0  0  0  0
  185.9180  178.1520  140.9070 C   0  0  0  0  0  0  0  0  0  0  0  0
  196.7790  176.0840  140.7950 C   0  0  0  0  0  2  0  0  0  0  0  0
  196.0020  175.4350  139.6650 C   0  0  0  0  0  2  0  0  0  0  0  0
  196.6580  174.2200  139.1960 N   0  0  0  0  0  2  0  0  0  0  0  0
  197.2050  173.1150  137.2300 O   0  0  0  0  0  0  0  0  0  0  0  0
  196.2910  173.5300  137.9940 C   0  0  0  0  0  0  0  0  0  0  0  0
  194.8640  173.4570  137.5280 C   0  0  1  0  0  3  0  0  0  0  0  0
  193.5240  172.0930  136.0880 C   0  0  0  0  0  1  0  0  0  0  0  0
  194.5910  174.4900  136.4190 C   0  0  0  0  0  0  0  0  0  0  0  0
  194.7750  172.9670  136.1350 C   0  0  1  0  0  3  0  0  0  0  0  0
  193.3060  175.0600  137.0450 C   0  0  0  0  0  2  0  0  0  0  0  0
  193.3290  174.8060  135.5930 C   0  0  0  0  0  2  0  0  0  0  0  0
  195.6410  172.4700  144.5230 C   0  0  0  0  0  2  0  0  0  0  0  0
  195.9060  171.0270  144.9000 C   0  0  0  0  0  2  0  0  0  0  0  0
  194.7160  170.4580  145.6560 C   0  0  0  0  0  2  0  0  0  0  0  0
  194.0140  169.3780  144.8410 C   0  0  0  0  0  2  0  0  0  0  0  0
  194.3220  169.4580  143.3480 C   0  0  1  0  0  3  0  0  0  0  0  0
  194.9020  168.2680  142.9060 O   0  0  0  0  0  1  0  0  0  0  0  0
  193.0940  169.7100  142.5940 N   0  0  0  0  0  2  0  0  0  0  0  0
  193.5940  171.9310  142.0840 O   0  0  0  0  0  0  0  0  0  0  0  0
  192.7770  170.9740  141.9920 C   0  0  0  0  0  0  0  0  0  0  0  0
  190.8720  172.6330  141.5450 C   0  0  1  0  0  3  0  0  0  0  0  0
  191.5980  171.1120  139.8360 C   0  0  2  0  0  3  0  0  0  0  0  0
  191.4190  171.2190  141.3590 C   0  0  1  0  0  0  0  0  0  0  0  0
  191.9600  172.5200  139.3730 C   0  0  0  0  0  2  0  0  0  0  0  0
  191.0270  173.3420  143.1800 Cl  0  0  0  0  0  0  0  0  0  0  0  0
  191.5020  173.4840  140.4580 C   0  0  0  0  0  2  0  0  0  0  0  0
  190.4160  170.2120  141.9210 C   0  0  0  0  0  1  0  0  0  0  0  0
  190.3370  170.6720  139.1000 C   0  0  0  0  0  2  0  0  0  0  0  0
  190.5730  169.3480  138.3930 C   0  0  0  0  0  2  0  0  0  0  0  0
  191.8060  169.3840  137.7420 O   0  0  0  0  0  1  0  0  0  0  0  0
  1  6  1  0  0  0  0
  1 17  1  0  0  0  0
  2 12  1  0  0  0  0
  3  6  1  1  0  0  0
  5  7  1  1  0  0  0
  5 14  1  0  0  0  0
  8  2  1  6  0  0  0
  8  5  1  0  0  0  0
  8 11  1  0  0  0  0
  9 46  1  6  0  0  0
 10 16  1  0  0  0  0
 11 10  1  1  0  0  0
 11  3  1  0  0  0  0
 12 35  1  6  0  0  0
 12  7  1  0  0  0  0
 13  9  1  0  0  0  0
 14  3  1  0  0  0  0
 14 15  1  0  0  0  0
 14 13  1  0  0  0  0
 15 13  1  0  0  0  0
 15  9  1  0  0  0  0
 15  4  1  0  0  0  0
 16  1  1  0  0  0  0
 18 17  1  0  0  0  0
 18 19  1  0  0  0  0
 20 19  1  0  0  0  0
 20 22  1  0  0  0  0
 22 21  2  0  0  0  0
 22 23  1  0  0  0  0
 24 20  1  0  0  0  0
 25 30  1  0  0  0  0
 25 28  2  0  0  0  0
 26 27  2  0  0  0  0
 27 30  1  0  0  0  0
 29 25  1  0  0  0  0
 30 24  1  0  0  0  0
 31 26  1  0  0  0  0
 31 29  1  0  0  0  0
 32 34  1  0  0  0  0
 33 34  2  0  0  0  0
 34 31  1  0  0  0  0
 36 35  1  0  0  0  0
 37 36  1  0  0  0  0
 38 39  2  0  0  0  0
 39 37  1  0  0  0  0
 40 39  1  0  0  0  0
 41 43  1  0  0  0  0
 42 44  1  0  0  0  0
 42 40  1  0  0  0  0
 43 42  1  0  0  0  0
 43 40  1  0  0  0  0
 45 42  1  0  0  0  0
 45 44  1  0  0  0  0
 46 47  1  0  0  0  0
 47 48  1  0  0  0  0
 49 48  1  0  0  0  0
 50 49  1  0  0  0  0
 51 50  1  0  0  0  0
 52 50  1  0  0  0  0
 54 53  2  0  0  0  0
 54 52  1  0  0  0  0
 55 59  1  0  0  0  0
 56 57  1  0  0  0  0
 57 55  1  0  0  0  0
 57 61  1  0  0  0  0
 57 54  1  0  0  0  0
 58 56  1  0  0  0  0
 58 60  1  0  0  0  0
 60 55  1  0  0  0  0
 62 56  1  0  0  0  0
 63 62  1  0  0  0  0
 64 63  1  0  0  0  0
M  END
>  <MODEL>
5

>  <REMARK>
 VINA RESULT:      -6.5      2.240      5.698
  Name = 
  21 active torsions:
  status: ('A' for Active; 'I' for Inactive)
    1  A    between atoms: C_1  and  N_27
    2  A    between atoms: C_1  and  C_59
    3  A    between atoms: C_2  and  C_12
    4  A    between atoms: C_2  and  C_22
    5  A    between atoms: C_3  and  N_23
    6  A    between atoms: C_3  and  C_49
    7  A    between atoms: N_4  and  C_49
    8  A    between atoms: C_8  and  C_44
    9  A    between atoms: C_9  and  C_35
   10  A    between atoms: C_9  and  C_54
   11  A    between atoms: N_11  and  C_20
   12  A    between atoms: C_17  and  C_43
   13  A    between atoms: CA_18  and  N_23
   14  A    between atoms: CA_18  and  C_42
   15  A    between atoms: CA_18  and  C_47
   16  A    between atoms: C_20  and  C_21
   17  A    between atoms: C_21  and  C_45
   18  A    between atoms: C_42  and  C_61
   19  A    between atoms: C_51  and  C_54
   20  A    between atoms: C_51  and  C_59
   21  A    between atoms: C_62  and  C_63
                            x       y       z     vdW  Elec       q    Type
                         _______ _______ _______ _____ _____    ______ ____

>  <TORSDO>
F 21

$$$$
=
 OpenBabel11042414333D

 64 72  0  0  1  0  0  0  0  0999 V2000
  196.0210  173.3660  144.4320 N   0  0  0  0  0  0  0  0  0  0  0  0
  192.3060  176.6410  146.0440 C   0  0  0  0  0  2  0  0  0  0  0  0
  193.9600  174.6350  143.9300 C   0  0  2  0  0  3  0  0  0  0  0  0
  193.6890  171.5510  143.2830 C   0  0  0  0  0  1  0  0  0  0  0  0
  192.0060  174.4150  145.3880 C   0  0  2  0  0  3  0  0  0  0  0  0
  195.2320  173.9760  143.3690 C   0  0  0  0  0  2  0  0  0  0  0  0
  190.8420  175.1610  144.9020 N   0  0  0  0  0  2  0  0  0  0  0  0
  192.9420  175.3380  146.0420 N   0  0  1  0  0  0  0  0  0  0  0  0
  191.2610  171.9780  143.3040 C   0  0  1  0  0  3  0  0  0  0  0  0
  195.3430  174.9700  146.1010 C   0  0  0  0  0  2  0  0  0  0  0  0
  194.1650  175.4350  145.2310 C   0  0  1  0  0  3  0  0  0  0  0  0
  191.1380  176.5640  145.1020 C   0  0  1  0  0  3  0  0  0  0  0  0
  191.9640  173.2980  143.0520 C   0  0  1  0  0  3  0  0  0  0  0  0
  192.7650  173.7680  144.2490 C   0  0  1  0  0  0  0  0  0  0  0  0
  192.5680  172.2690  144.0090 C   0  0  2  0  0  0  0  0  0  0  0  0
  196.5040  174.4610  145.2610 C   0  0  0  0  0  2  0  0  0  0  0  0
  197.1700  172.7430  143.7900 C   0  0  0  0  0  2  0  0  0  0  0  0
  196.9770  172.7350  142.2840 C   0  0  0  0  0  2  0  0  0  0  0  0
  197.9410  173.6260  141.6700 N   0  0  0  0  0  2  0  0  0  0  0  0
  197.5700  173.7600  140.2660 C   0  0  2  0  0  3  0  0  0  0  0  0
  196.8090  176.0210  140.9840 O   0  0  0  0  0  1  0  0  0  0  0  0
  197.1950  175.1750  139.9590 C   0  0  0  0  0  0  0  0  0  0  0  0
  197.2610  175.6100  138.7790 O   0  0  0  0  0  0  0  0  0  0  0  0
  196.4560  172.7840  139.8760 C   0  0  0  0  0  2  0  0  0  0  0  0
  196.0030  170.5440  138.8940 C   0  0  0  0  0  0  0  0  0  0  0  0
  196.4520  171.8210  136.3690 C   0  0  0  0  0  3  0  0  0  0  0  0
  196.9290  172.4100  137.4750 C   0  0  0  0  0  3  0  0  0  0  0  0
  195.9780  169.8600  139.9050 O   0  0  0  0  0  0  0  0  0  0  0  0
  195.1400  170.1640  137.7270 C   0  0  0  0  0  2  0  0  0  0  0  0
  196.9000  171.7570  138.8370 C   0  0  1  0  0  3  0  0  0  0  0  0
  195.8470  170.4430  136.3960 C   0  0  2  0  0  3  0  0  0  0  0  0
  197.1490  168.3410  137.0130 N   0  0  0  0  0  1  0  0  0  0  0  0
  197.4050  169.3670  134.9450 O   0  0  0  0  0  0  0  0  0  0  0  0
  196.8550  169.3770  136.0770 C   0  0  0  0  0  0  0  0  0  0  0  0
  189.9430  177.2770  145.7060 C   0  0  0  0  0  2  0  0  0  0  0  0
  188.8110  176.2850  145.9030 C   0  0  0  0  0  2  0  0  0  0  0  0
  187.7810  176.8200  146.7860 N   0  0  0  0  0  2  0  0  0  0  0  0
  185.4750  177.0220  146.9450 O   0  0  0  0  0  0  0  0  0  0  0  0
  186.5270  177.3380  146.3240 C   0  0  0  0  0  0  0  0  0  0  0  0
  186.4080  178.0810  145.0230 C   0  0  1  0  0  3  0  0  0  0  0  0
  185.3760  180.0750  144.1940 C   0  0  0  0  0  1  0  0  0  0  0  0
  185.3510  177.4310  144.1110 C   0  0  0  0  0  0  0  0  0  0  0  0
  185.0960  178.7510  144.9020 C   0  0  1  0  0  3  0  0  0  0  0  0
  186.2350  177.3870  142.8510 C   0  0  0  0  0  2  0  0  0  0  0  0
  184.8280  177.8080  142.7110 C   0  0  0  0  0  2  0  0  0  0  0  0
  190.0750  172.1710  144.2330 C   0  0  0  0  0  2  0  0  0  0  0  0
  188.8030  171.8320  143.4840 C   0  0  0  0  0  2  0  0  0  0  0  0
  188.9480  172.1960  142.0160 C   0  0  0  0  0  2  0  0  0  0  0  0
  188.2440  173.5110  141.7040 C   0  0  0  0  0  2  0  0  0  0  0  0
  188.4880  173.9990  140.2770 C   0  0  1  0  0  3  0  0  0  0  0  0
  188.1640  175.3520  140.1620 O   0  0  0  0  0  1  0  0  0  0  0  0
  189.8900  173.8010  139.9110 N   0  0  0  0  0  2  0  0  0  0  0  0
  189.4640  173.2060  137.6960 O   0  0  0  0  0  0  0  0  0  0  0  0
  190.3200  173.3920  138.6050 C   0  0  0  0  0  0  0  0  0  0  0  0
  191.9910  171.7640  137.5380 C   0  0  1  0  0  3  0  0  0  0  0  0
  192.3290  174.1370  137.3950 C   0  0  2  0  0  3  0  0  0  0  0  0
  191.7730  173.0520  138.3310 C   0  0  1  0  0  0  0  0  0  0  0  0
  192.0470  173.6320  135.9820 C   0  0  0  0  0  2  0  0  0  0  0  0
  191.0150  170.3480  138.0290 Cl  0  0  0  0  0  0  0  0  0  0  0  0
  191.8300  172.1290  136.0740 C   0  0  0  0  0  2  0  0  0  0  0  0
  192.5240  172.9590  139.6590 C   0  0  0  0  0  1  0  0  0  0  0  0
  193.8310  174.3580  137.5360 C   0  0  0  0  0  2  0  0  0  0  0  0
  194.2980  175.4380  136.5750 C   0  0  0  0  0  2  0  0  0  0  0  0
  195.0220  174.8540  135.5370 O   0  0  0  0  0  1  0  0  0  0  0  0
  1 16  1  0  0  0  0
  3  6  1  1  0  0  0
  3 14  1  0  0  0  0
  3 11  1  0  0  0  0
  4 15  1  0  0  0  0
  5  7  1  6  0  0  0
  5  8  1  0  0  0  0
  6  1  1  0  0  0  0
  7 12  1  0  0  0  0
  8  2  1  6  0  0  0
  9 15  1  0  0  0  0
  9 46  1  1  0  0  0
 11  8  1  0  0  0  0
 11 10  1  1  0  0  0
 12 35  1  1  0  0  0
 12  2  1  0  0  0  0
 13  9  1  0  0  0  0
 13 15  1  0  0  0  0
 13 14  1  0  0  0  0
 14  5  1  0  0  0  0
 15 14  1  0  0  0  0
 16 10  1  0  0  0  0
 17  1  1  0  0  0  0
 18 17  1  0  0  0  0
 19 18  1  0  0  0  0
 20 19  1  0  0  0  0
 22 20  1  0  0  0  0
 22 21  1  0  0  0  0
 23 22  2  0  0  0  0
 24 20  1  0  0  0  0
 25 28  2  0  0  0  0
 26 31  1  0  0  0  0
 26 27  2  0  0  0  0
 27 30  1  0  0  0  0
 29 25  1  0  0  0  0
 30 25  1  0  0  0  0
 30 24  1  0  0  0  0
 31 29  1  0  0  0  0
 33 34  2  0  0  0  0
 34 31  1  0  0  0  0
 34 32  1  0  0  0  0
 35 36  1  0  0  0  0
 36 37  1  0  0  0  0
 39 37  1  0  0  0  0
 39 38  2  0  0  0  0
 40 39  1  0  0  0  0
 41 43  1  0  0  0  0
 42 43  1  0  0  0  0
 42 40  1  0  0  0  0
 43 40  1  0  0  0  0
 44 42  1  0  0  0  0
 45 44  1  0  0  0  0
 45 42  1  0  0  0  0
 47 46  1  0  0  0  0
 48 47  1  0  0  0  0
 49 48  1  0  0  0  0
 50 49  1  0  0  0  0
 51 50  1  0  0  0  0
 52 50  1  0  0  0  0
 53 54  2  0  0  0  0
 54 52  1  0  0  0  0
 55 59  1  0  0  0  0
 55 57  1  0  0  0  0
 56 62  1  0  0  0  0
 56 57  1  0  0  0  0
 57 54  1  0  0  0  0
 57 61  1  0  0  0  0
 58 60  1  0  0  0  0
 58 56  1  0  0  0  0
 60 55  1  0  0  0  0
 63 62  1  0  0  0  0
 64 63  1  0  0  0  0
M  END
>  <MODEL>
6

>  <REMARK>
 VINA RESULT:      -6.0      2.708     10.893
  Name = 
  21 active torsions:
  status: ('A' for Active; 'I' for Inactive)
    1  A    between atoms: C_1  and  N_27
    2  A    between atoms: C_1  and  C_59
    3  A    between atoms: C_2  and  C_12
    4  A    between atoms: C_2  and  C_22
    5  A    between atoms: C_3  and  N_23
    6  A    between atoms: C_3  and  C_49
    7  A    between atoms: N_4  and  C_49
    8  A    between atoms: C_8  and  C_44
    9  A    between atoms: C_9  and  C_35
   10  A    between atoms: C_9  and  C_54
   11  A    between atoms: N_11  and  C_20
   12  A    between atoms: C_17  and  C_43
   13  A    between atoms: CA_18  and  N_23
   14  A    between atoms: CA_18  and  C_42
   15  A    between atoms: CA_18  and  C_47
   16  A    between atoms: C_20  and  C_21
   17  A    between atoms: C_21  and  C_45
   18  A    between atoms: C_42  and  C_61
   19  A    between atoms: C_51  and  C_54
   20  A    between atoms: C_51  and  C_59
   21  A    between atoms: C_62  and  C_63
                            x       y       z     vdW  Elec       q    Type
                         _______ _______ _______ _____ _____    ______ ____

>  <TORSDO>
F 21

$$$$
=
 OpenBabel11042414333D

 64 72  0  0  1  0  0  0  0  0999 V2000
  189.1040  172.3610  139.9210 N   0  0  0  0  0  0  0  0  0  0  0  0
  192.8870  170.6840  136.7580 C   0  0  0  0  0  2  0  0  0  0  0  0
  191.4800  172.4400  139.2410 C   0  0  2  0  0  3  0  0  0  0  0  0
  191.1060  171.8300  142.3220 C   0  0  0  0  0  1  0  0  0  0  0  0
  192.7700  170.3660  139.0730 C   0  0  2  0  0  3  0  0  0  0  0  0
  190.3090  173.1800  139.9110 C   0  0  0  0  0  2  0  0  0  0  0  0
  194.1800  170.5940  138.7470 N   0  0  0  0  0  2  0  0  0  0  0  0
  191.9610  170.4810  137.8540 N   0  0  1  0  0  0  0  0  0  0  0  0
  193.4360  171.0310  142.2290 C   0  0  1  0  0  3  0  0  0  0  0  0
  189.6460  171.2220  137.8650 C   0  0  0  0  0  2  0  0  0  0  0  0
  191.1110  171.6770  137.9530 C   0  0  1  0  0  3  0  0  0  0  0  0
  194.2210  171.0190  137.3630 C   0  0  1  0  0  3  0  0  0  0  0  0
  193.2180  171.9690  141.0570 C   0  0  1  0  0  3  0  0  0  0  0  0
  192.2480  171.4110  140.0360 C   0  0  1  0  0  0  0  0  0  0  0  0
  192.1030  171.0260  141.5110 C   0  0  2  0  0  0  0  0  0  0  0  0
  188.7020  172.2110  138.5290 C   0  0  0  0  0  2  0  0  0  0  0  0
  188.0810  173.1360  140.6070 C   0  0  0  0  0  2  0  0  0  0  0  0
  188.6540  174.4730  141.0450 C   0  0  0  0  0  2  0  0  0  0  0  0
  187.8340  175.5450  140.5180 N   0  0  0  0  0  2  0  0  0  0  0  0
  187.4850  176.4100  141.6390 C   0  0  2  0  0  3  0  0  0  0  0  0
  188.6520  178.6090  141.5340 O   0  0  0  0  0  0  0  0  0  0  0  0
  188.6350  177.3010  141.9870 C   0  0  0  0  0  0  0  0  0  0  0  0
  189.5700  176.8790  142.7170 O   0  0  0  0  0  1  0  0  0  0  0  0
  187.0060  175.6060  142.8520 C   0  0  0  0  0  2  0  0  0  0  0  0
  186.8700  176.8630  144.9930 C   0  0  0  0  0  0  0  0  0  0  0  0
  185.3840  178.7970  143.4910 C   0  0  0  0  0  3  0  0  0  0  0  0
  185.4840  177.5520  143.0040 C   0  0  0  0  0  3  0  0  0  0  0  0
  187.3210  176.0330  145.7660 O   0  0  0  0  0  0  0  0  0  0  0  0
  187.0960  178.3220  145.2670 C   0  0  0  0  0  2  0  0  0  0  0  0
  186.0980  176.4090  143.7780 C   0  0  1  0  0  3  0  0  0  0  0  0
  185.8760  179.1590  144.8670 C   0  0  2  0  0  3  0  0  0  0  0  0
  183.4210  178.9360  145.5110 N   0  0  0  0  0  1  0  0  0  0  0  0
  185.0940  179.0560  147.1180 O   0  0  0  0  0  0  0  0  0  0  0  0
  184.7880  179.0700  145.8970 C   0  0  0  0  0  0  0  0  0  0  0  0
  195.3220  170.2890  136.6180 C   0  0  0  0  0  2  0  0  0  0  0  0
  196.6200  171.0640  136.7490 C   0  0  0  0  0  2  0  0  0  0  0  0
  196.5170  172.3840  136.1370 N   0  0  0  0  0  2  0  0  0  0  0  0
  197.7570  174.3180  135.8140 O   0  0  0  0  0  0  0  0  0  0  0  0
  197.1900  173.5470  136.6360 C   0  0  0  0  0  0  0  0  0  0  0  0
  197.4040  173.7690  138.1070 C   0  0  1  0  0  3  0  0  0  0  0  0
  196.5760  172.9080  140.1810 C   0  0  0  0  0  1  0  0  0  0  0  0
  196.6510  175.0210  138.5920 C   0  0  0  0  0  0  0  0  0  0  0  0
  196.1540  173.5690  138.8710 C   0  0  1  0  0  3  0  0  0  0  0  0
  197.8420  175.6400  139.3460 C   0  0  0  0  0  2  0  0  0  0  0  0
  196.5140  175.6640  139.9860 C   0  0  0  0  0  2  0  0  0  0  0  0
  194.2930  169.8470  141.8140 C   0  0  0  0  0  2  0  0  0  0  0  0
  195.6720  170.0030  142.4180 C   0  0  0  0  0  2  0  0  0  0  0  0
  195.7400  171.2750  143.2460 C   0  0  0  0  0  2  0  0  0  0  0  0
  195.5140  170.9810  144.7250 C   0  0  0  0  0  2  0  0  0  0  0  0
  196.2800  171.9260  145.6480 C   0  0  1  0  0  3  0  0  0  0  0  0
  197.6540  171.7140  145.5300 O   0  0  0  0  0  1  0  0  0  0  0  0
  195.9710  173.3160  145.3140 N   0  0  0  0  0  2  0  0  0  0  0  0
  193.7920  173.2690  146.1450 O   0  0  0  0  0  0  0  0  0  0  0  0
  194.7020  173.9320  145.5760 C   0  0  0  0  0  0  0  0  0  0  0  0
  195.0830  175.6970  143.7530 C   0  0  1  0  0  3  0  0  0  0  0  0
  192.9000  175.3550  144.6910 C   0  0  2  0  0  3  0  0  0  0  0  0
  194.3910  175.3270  145.0640 C   0  0  1  0  0  0  0  0  0  0  0  0
  192.8400  174.9120  143.2320 C   0  0  0  0  0  2  0  0  0  0  0  0
  196.8120  175.2620  143.6110 Cl  0  0  0  0  0  0  0  0  0  0  0  0
  194.2260  175.1260  142.6380 C   0  0  0  0  0  2  0  0  0  0  0  0
  194.7640  176.3490  146.1360 C   0  0  0  0  0  1  0  0  0  0  0  0
  192.2670  176.7380  144.8000 C   0  0  0  0  0  2  0  0  0  0  0  0
  191.1000  176.7100  145.7730 C   0  0  0  0  0  2  0  0  0  0  0  0
  190.8310  175.3900  146.1360 O   0  0  0  0  0  1  0  0  0  0  0  0
  1 17  1  0  0  0  0
  2 12  1  0  0  0  0
  3  6  1  1  0  0  0
  3 14  1  0  0  0  0
  5  7  1  6  0  0  0
  5 14  1  0  0  0  0
  6  1  1  0  0  0  0
  8  2  1  6  0  0  0
  8 11  1  0  0  0  0
  8  5  1  0  0  0  0
  9 46  1  6  0  0  0
 10 16  1  0  0  0  0
 11 10  1  1  0  0  0
 11  3  1  0  0  0  0
 12 35  1  6  0  0  0
 12  7  1  0  0  0  0
 13 15  1  0  0  0  0
 13  9  1  0  0  0  0
 14 13  1  0  0  0  0
 14 15  1  0  0  0  0
 15  9  1  0  0  0  0
 15  4  1  0  0  0  0
 16  1  1  0  0  0  0
 17 18  1  0  0  0  0
 19 18  1  0  0  0  0
 19 20  1  0  0  0  0
 20 22  1  0  0  0  0
 20 24  1  0  0  0  0
 21 22  2  0  0  0  0
 22 23  1  0  0  0  0
 24 30  1  0  0  0  0
 25 29  1  0  0  0  0
 25 28  2  0  0  0  0
 26 31  1  0  0  0  0
 27 26  2  0  0  0  0
 27 30  1  0  0  0  0
 30 25  1  0  0  0  0
 31 29  1  0  0  0  0
 31 34  1  0  0  0  0
 32 34  1  0  0  0  0
 34 33  2  0  0  0  0
 35 36  1  0  0  0  0
 37 39  1  0  0  0  0
 37 36  1  0  0  0  0
 38 39  2  0  0  0  0
 39 40  1  0  0  0  0
 40 42  1  0  0  0  0
 40 43  1  0  0  0  0
 42 43  1  0  0  0  0
 42 44  1  0  0  0  0
 42 45  1  0  0  0  0
 43 41  1  0  0  0  0
 44 45  1  0  0  0  0
 46 47  1  0  0  0  0
 47 48  1  0  0  0  0
 48 49  1  0  0  0  0
 49 50  1  0  0  0  0
 51 50  1  0  0  0  0
 52 54  1  0  0  0  0
 52 50  1  0  0  0  0
 54 53  2  0  0  0  0
 55 57  1  0  0  0  0
 56 62  1  0  0  0  0
 56 57  1  0  0  0  0
 57 54  1  0  0  0  0
 57 61  1  0  0  0  0
 58 56  1  0  0  0  0
 59 55  1  0  0  0  0
 60 58  1  0  0  0  0
 60 55  1  0  0  0  0
 62 63  1  0  0  0  0
 63 64  1  0  0  0  0
M  END
>  <MODEL>
7

>  <REMARK>
 VINA RESULT:      -5.9      1.869      2.444
  Name = 
  21 active torsions:
  status: ('A' for Active; 'I' for Inactive)
    1  A    between atoms: C_1  and  N_27
    2  A    between atoms: C_1  and  C_59
    3  A    between atoms: C_2  and  C_12
    4  A    between atoms: C_2  and  C_22
    5  A    between atoms: C_3  and  N_23
    6  A    between atoms: C_3  and  C_49
    7  A    between atoms: N_4  and  C_49
    8  A    between atoms: C_8  and  C_44
    9  A    between atoms: C_9  and  C_35
   10  A    between atoms: C_9  and  C_54
   11  A    between atoms: N_11  and  C_20
   12  A    between atoms: C_17  and  C_43
   13  A    between atoms: CA_18  and  N_23
   14  A    between atoms: CA_18  and  C_42
   15  A    between atoms: CA_18  and  C_47
   16  A    between atoms: C_20  and  C_21
   17  A    between atoms: C_21  and  C_45
   18  A    between atoms: C_42  and  C_61
   19  A    between atoms: C_51  and  C_54
   20  A    between atoms: C_51  and  C_59
   21  A    between atoms: C_62  and  C_63
                            x       y       z     vdW  Elec       q    Type
                         _______ _______ _______ _____ _____    ______ ____

>  <TORSDO>
F 21

$$$$
=
 OpenBabel11042414333D

 64 72  0  0  1  0  0  0  0  0999 V2000
  191.3780  170.5610  139.6850 N   0  0  0  0  0  0  0  0  0  0  0  0
  188.4620  174.6610  141.0340 C   0  0  0  0  0  2  0  0  0  0  0  0
  189.9260  171.6650  141.3560 C   0  0  2  0  0  3  0  0  0  0  0  0
  192.7210  170.7880  142.5490 C   0  0  0  0  0  1  0  0  0  0  0  0
  190.4250  173.9470  142.0880 C   0  0  2  0  0  3  0  0  0  0  0  0
  190.4760  170.3360  140.8090 C   0  0  0  0  0  2  0  0  0  0  0  0
  189.5250  174.4190  143.1430 N   0  0  0  0  0  2  0  0  0  0  0  0
  189.7480  174.0390  140.7880 N   0  0  1  0  0  0  0  0  0  0  0  0
  192.2010  172.3690  144.3670 C   0  0  1  0  0  3  0  0  0  0  0  0
  190.2310  172.5460  138.9330 C   0  0  0  0  0  2  0  0  0  0  0  0
  189.5020  172.6820  140.2790 C   0  0  1  0  0  3  0  0  0  0  0  0
  188.2370  174.6400  142.5190 C   0  0  1  0  0  3  0  0  0  0  0  0
  190.8950  171.9770  143.7020 C   0  0  1  0  0  3  0  0  0  0  0  0
  190.7900  172.4900  142.2800 C   0  0  1  0  0  0  0  0  0  0  0  0
  192.1640  172.1600  142.8680 C   0  0  2  0  0  0  0  0  0  0  0  0
  190.5580  171.0970  138.6070 C   0  0  0  0  0  2  0  0  0  0  0  0
  191.8660  169.2530  139.2760 C   0  0  0  0  0  2  0  0  0  0  0  0
  193.0550  169.4140  138.3450 C   0  0  0  0  0  2  0  0  0  0  0  0
  194.0400  170.2770  138.9660 N   0  0  0  0  0  2  0  0  0  0  0  0
  195.3530  169.7330  138.6430 C   0  0  2  0  0  3  0  0  0  0  0  0
  197.6290  169.5830  139.6460 O   0  0  0  0  0  0  0  0  0  0  0  0
  196.2990  169.9430  139.7830 C   0  0  0  0  0  0  0  0  0  0  0  0
  195.9010  170.4740  140.8520 O   0  0  0  0  0  1  0  0  0  0  0  0
  195.9050  170.3130  137.3370 C   0  0  0  0  0  2  0  0  0  0  0  0
  197.1040  172.4750  137.0670 C   0  0  0  0  0  0  0  0  0  0  0  0
  194.9930  173.1470  135.2500 C   0  0  0  0  0  3  0  0  0  0  0  0
  194.7820  172.1620  136.1350 C   0  0  0  0  0  3  0  0  0  0  0  0
  197.9400  172.3760  137.9500 O   0  0  0  0  0  0  0  0  0  0  0  0
  197.4380  173.2380  135.8180 C   0  0  0  0  0  2  0  0  0  0  0  0
  195.7510  171.8280  137.2450 C   0  0  1  0  0  3  0  0  0  0  0  0
  196.2230  174.0130  135.2960 C   0  0  2  0  0  3  0  0  0  0  0  0
  196.8120  176.4250  135.8660 N   0  0  0  0  0  1  0  0  0  0  0  0
  195.0410  175.3300  136.8950 O   0  0  0  0  0  0  0  0  0  0  0  0
  195.9990  175.2730  136.0800 C   0  0  0  0  0  0  0  0  0  0  0  0
  187.6500  175.9640  142.9700 C   0  0  0  0  0  2  0  0  0  0  0  0
  188.7400  176.8110  143.6000 C   0  0  0  0  0  2  0  0  0  0  0  0
  188.9690  176.4370  144.9910 N   0  0  0  0  0  2  0  0  0  0  0  0
  187.8110  175.7810  146.8910 O   0  0  0  0  0  0  0  0  0  0  0  0
  188.0350  176.6920  146.0480 C   0  0  0  0  0  0  0  0  0  0  0  0
  187.1810  177.9280  146.0690 C   0  0  1  0  0  3  0  0  0  0  0  0
  185.9500  179.2210  147.6640 C   0  0  0  0  0  1  0  0  0  0  0  0
  185.7590  177.6270  145.5610 C   0  0  0  0  0  0  0  0  0  0  0  0
  186.0990  177.8210  147.0720 C   0  0  1  0  0  3  0  0  0  0  0  0
  185.6880  178.8090  144.5770 C   0  0  0  0  0  2  0  0  0  0  0  0
  184.5090  178.5160  145.4130 C   0  0  0  0  0  2  0  0  0  0  0  0
  192.1990  173.8460  144.7220 C   0  0  0  0  0  2  0  0  0  0  0  0
  191.6850  174.0110  146.1360 C   0  0  0  0  0  2  0  0  0  0  0  0
  192.2050  175.3090  146.7330 C   0  0  0  0  0  2  0  0  0  0  0  0
  192.3530  176.3850  145.6630 C   0  0  0  0  0  2  0  0  0  0  0  0
  193.7680  176.9520  145.5740 C   0  0  1  0  0  3  0  0  0  0  0  0
  194.2350  177.2970  146.8430 O   0  0  0  0  0  1  0  0  0  0  0  0
  194.6680  175.9670  144.9760 N   0  0  0  0  0  2  0  0  0  0  0  0
  194.0830  176.4370  142.7670 O   0  0  0  0  0  0  0  0  0  0  0  0
  194.7760  175.7440  143.5620 C   0  0  0  0  0  0  0  0  0  0  0  0
  196.9270  175.0240  142.3640 C   0  0  1  0  0  3  0  0  0  0  0  0
  196.0670  173.7520  144.2100 C   0  0  2  0  0  3  0  0  0  0  0  0
  195.6100  174.6010  143.0130 C   0  0  1  0  0  0  0  0  0  0  0  0
  197.3880  174.3690  144.6610 C   0  0  0  0  0  2  0  0  0  0  0  0
  196.8630  176.4400  141.2730 Cl  0  0  0  0  0  0  0  0  0  0  0  0
  197.9310  175.1780  143.4920 C   0  0  0  0  0  2  0  0  0  0  0  0
  194.7780  173.8170  141.9990 C   0  0  0  0  0  1  0  0  0  0  0  0
  196.3140  172.2880  143.8630 C   0  0  0  0  0  2  0  0  0  0  0  0
  197.5750  171.7890  144.5480 C   0  0  0  0  0  2  0  0  0  0  0  0
  197.2300  170.9000  145.5650 O   0  0  0  0  0  1  0  0  0  0  0  0
  1  6  1  0  0  0  0
  2 12  1  0  0  0  0
  3  6  1  6  0  0  0
  3 14  1  0  0  0  0
  4 15  1  0  0  0  0
  5 14  1  0  0  0  0
  5  7  1  1  0  0  0
  8  2  1  1  0  0  0
  8  5  1  0  0  0  0
  9 46  1  6  0  0  0
 11 10  1  6  0  0  0
 11  8  1  0  0  0  0
 11  3  1  0  0  0  0
 12 35  1  1  0  0  0
 12  7  1  0  0  0  0
 13  9  1  0  0  0  0
 14 15  1  0  0  0  0
 14 13  1  0  0  0  0
 15 13  1  0  0  0  0
 15  9  1  0  0  0  0
 16 10  1  0  0  0  0
 16  1  1  0  0  0  0
 17  1  1  0  0  0  0
 18 19  1  0  0  0  0
 18 17  1  0  0  0  0
 20 19  1  0  0  0  0
 20 22  1  0  0  0  0
 21 22  2  0  0  0  0
 22 23  1  0  0  0  0
 24 20  1  0  0  0  0
 25 30  1  0  0  0  0
 25 28  2  0  0  0  0
 26 31  1  0  0  0  0
 26 27  2  0  0  0  0
 27 30  1  0  0  0  0
 29 25  1  0  0  0  0
 30 24  1  0  0  0  0
 31 29  1  0  0  0  0
 31 34  1  0  0  0  0
 32 34  1  0  0  0  0
 34 33  2  0  0  0  0
 35 36  1  0  0  0  0
 36 37  1  0  0  0  0
 37 39  1  0  0  0  0
 39 40  1  0  0  0  0
 39 38  2  0  0  0  0
 40 43  1  0  0  0  0
 42 40  1  0  0  0  0
 42 43  1  0  0  0  0
 43 41  1  0  0  0  0
 44 45  1  0  0  0  0
 44 42  1  0  0  0  0
 45 42  1  0  0  0  0
 46 47  1  0  0  0  0
 47 48  1  0  0  0  0
 49 48  1  0  0  0  0
 50 49  1  0  0  0  0
 50 51  1  0  0  0  0
 52 50  1  0  0  0  0
 53 54  2  0  0  0  0
 54 52  1  0  0  0  0
 55 57  1  0  0  0  0
 55 60  1  0  0  0  0
 56 58  1  0  0  0  0
 57 54  1  0  0  0  0
 57 56  1  0  0  0  0
 59 55  1  0  0  0  0
 60 58  1  0  0  0  0
 61 57  1  0  0  0  0
 62 56  1  0  0  0  0
 62 63  1  0  0  0  0
 63 64  1  0  0  0  0
M  END
>  <MODEL>
8

>  <REMARK>
 VINA RESULT:      -5.9      2.475      9.603
  Name = 
  21 active torsions:
  status: ('A' for Active; 'I' for Inactive)
    1  A    between atoms: C_1  and  N_27
    2  A    between atoms: C_1  and  C_59
    3  A    between atoms: C_2  and  C_12
    4  A    between atoms: C_2  and  C_22
    5  A    between atoms: C_3  and  N_23
    6  A    between atoms: C_3  and  C_49
    7  A    between atoms: N_4  and  C_49
    8  A    between atoms: C_8  and  C_44
    9  A    between atoms: C_9  and  C_35
   10  A    between atoms: C_9  and  C_54
   11  A    between atoms: N_11  and  C_20
   12  A    between atoms: C_17  and  C_43
   13  A    between atoms: CA_18  and  N_23
   14  A    between atoms: CA_18  and  C_42
   15  A    between atoms: CA_18  and  C_47
   16  A    between atoms: C_20  and  C_21
   17  A    between atoms: C_21  and  C_45
   18  A    between atoms: C_42  and  C_61
   19  A    between atoms: C_51  and  C_54
   20  A    between atoms: C_51  and  C_59
   21  A    between atoms: C_62  and  C_63
                            x       y       z     vdW  Elec       q    Type
                         _______ _______ _______ _____ _____    ______ ____

>  <TORSDO>
F 21

$$$$
=
 OpenBabel11042414333D

 64 72  0  0  1  0  0  0  0  0999 V2000
  186.4380  177.0590  141.4930 N   0  0  0  0  0  0  0  0  0  0  0  0
  188.1560  174.9890  137.0330 C   0  0  0  0  0  2  0  0  0  0  0  0
  188.3320  176.2100  140.1480 C   0  0  2  0  0  3  0  0  0  0  0  0
  188.1240  174.8240  142.9840 C   0  0  0  0  0  1  0  0  0  0  0  0
  188.2120  173.9810  139.1440 C   0  0  2  0  0  3  0  0  0  0  0  0
  187.8800  177.1360  141.2910 C   0  0  0  0  0  2  0  0  0  0  0  0
  189.4470  173.5960  138.4570 N   0  0  0  0  0  2  0  0  0  0  0  0
  187.4390  174.8910  138.2890 N   0  0  1  0  0  0  0  0  0  0  0  0
  189.5740  173.0880  142.0050 C   0  0  1  0  0  3  0  0  0  0  0  0
  185.9580  176.6020  139.1740 C   0  0  0  0  0  2  0  0  0  0  0  0
  187.4230  176.2270  138.9030 C   0  0  1  0  0  3  0  0  0  0  0  0
  189.5200  174.4000  137.2550 C   0  0  1  0  0  3  0  0  0  0  0  0
  189.7520  174.3560  141.1920 C   0  0  1  0  0  3  0  0  0  0  0  0
  188.5010  174.7350  140.4240 C   0  0  1  0  0  0  0  0  0  0  0  0
  188.3780  173.9810  141.7510 C   0  0  2  0  0  0  0  0  0  0  0  0
  185.8280  177.6200  140.2960 C   0  0  0  0  0  2  0  0  0  0  0  0
  186.1290  177.9360  142.6130 C   0  0  0  0  0  2  0  0  0  0  0  0
  185.9700  177.1160  143.8810 C   0  0  0  0  0  2  0  0  0  0  0  0
  186.9960  177.4960  144.8330 N   0  0  0  0  0  2  0  0  0  0  0  0
  186.5240  177.1000  146.1540 C   0  0  2  0  0  3  0  0  0  0  0  0
  185.5900  179.4050  146.2870 O   0  0  0  0  0  0  0  0  0  0  0  0
  186.1100  178.3020  146.9410 C   0  0  0  0  0  0  0  0  0  0  0  0
  186.2000  178.3030  148.1970 O   0  0  0  0  0  1  0  0  0  0  0  0
  187.5670  176.2650  146.9050 C   0  0  0  0  0  2  0  0  0  0  0  0
  189.9130  177.0010  147.2730 C   0  0  0  0  0  0  0  0  0  0  0  0
  190.6360  174.5070  146.0630 C   0  0  0  0  0  3  0  0  0  0  0  0
  189.4030  174.9850  145.8470 C   0  0  0  0  0  3  0  0  0  0  0  0
  189.7310  178.1560  147.6240 O   0  0  0  0  0  0  0  0  0  0  0  0
  191.0830  176.2400  147.8260 C   0  0  0  0  0  2  0  0  0  0  0  0
  188.9610  176.3600  146.2920 C   0  0  1  0  0  3  0  0  0  0  0  0
  191.6930  175.3120  146.7700 C   0  0  2  0  0  3  0  0  0  0  0  0
  193.6540  176.8620  146.2740 N   0  0  0  0  0  1  0  0  0  0  0  0
  192.3580  175.9580  144.5710 O   0  0  0  0  0  0  0  0  0  0  0  0
  192.5620  176.0710  145.8080 C   0  0  0  0  0  0  0  0  0  0  0  0
  189.9100  173.5430  136.0660 C   0  0  0  0  0  2  0  0  0  0  0  0
  191.4210  173.4070  136.0160 C   0  0  0  0  0  2  0  0  0  0  0  0
  192.0810  174.6410  136.4240 N   0  0  0  0  0  2  0  0  0  0  0  0
  194.0700  175.3950  137.3510 O   0  0  0  0  0  0  0  0  0  0  0  0
  193.0130  174.7240  137.5090 C   0  0  0  0  0  0  0  0  0  0  0  0
  192.8640  173.8860  138.7480 C   0  0  1  0  0  3  0  0  0  0  0  0
  193.3760  174.0400  141.0810 C   0  0  0  0  0  1  0  0  0  0  0  0
  193.9540  172.8010  138.8170 C   0  0  0  0  0  0  0  0  0  0  0  0
  193.9890  174.0980  139.6830 C   0  0  1  0  0  3  0  0  0  0  0  0
  192.9980  171.6340  139.1230 C   0  0  0  0  0  2  0  0  0  0  0  0
  194.2660  171.7200  139.8700 C   0  0  0  0  0  2  0  0  0  0  0  0
  189.5590  171.8690  141.0990 C   0  0  0  0  0  2  0  0  0  0  0  0
  190.4220  170.7880  141.7140 C   0  0  0  0  0  2  0  0  0  0  0  0
  191.2930  171.3760  142.8120 C   0  0  0  0  0  2  0  0  0  0  0  0
  192.6620  170.7040  142.8450 C   0  0  0  0  0  2  0  0  0  0  0  0
  193.2590  170.6300  144.2490 C   0  0  1  0  0  3  0  0  0  0  0  0
  193.3370  169.3040  144.6760 O   0  0  0  0  0  1  0  0  0  0  0  0
  194.5960  171.2230  144.2580 N   0  0  0  0  0  2  0  0  0  0  0  0
  194.0740  172.9360  145.7530 O   0  0  0  0  0  0  0  0  0  0  0  0
  194.9440  172.3870  145.0220 C   0  0  0  0  0  0  0  0  0  0  0  0
  197.4410  172.0910  144.5150 C   0  0  1  0  0  3  0  0  0  0  0  0
  196.2270  173.9670  143.6390 C   0  0  2  0  0  3  0  0  0  0  0  0
  196.3020  173.0460  144.8680 C   0  0  1  0  0  0  0  0  0  0  0  0
  196.6250  173.0920  142.4540 C   0  0  0  0  0  2  0  0  0  0  0  0
  197.5030  170.5500  145.4220 Cl  0  0  0  0  0  0  0  0  0  0  0  0
  197.3920  171.9010  143.0100 C   0  0  0  0  0  2  0  0  0  0  0  0
  196.6480  173.7880  146.1580 C   0  0  0  0  0  1  0  0  0  0  0  0
  197.1820  175.1540  143.7040 C   0  0  0  0  0  2  0  0  0  0  0  0
  196.4220  176.4550  143.5010 C   0  0  0  0  0  2  0  0  0  0  0  0
  195.7560  176.4160  142.2760 O   0  0  0  0  0  1  0  0  0  0  0  0
  1 17  1  0  0  0  0
  2 12  1  0  0  0  0
  3 14  1  0  0  0  0
  3  6  1  1  0  0  0
  5  7  1  6  0  0  0
  5 14  1  0  0  0  0
  6  1  1  0  0  0  0
  8  2  1  6  0  0  0
  8 11  1  0  0  0  0
  8  5  1  0  0  0  0
  9 46  1  6  0  0  0
 10 16  1  0  0  0  0
 11 10  1  1  0  0  0
 11  3  1  0  0  0  0
 12 35  1  6  0  0  0
 12  7  1  0  0  0  0
 13 15  1  0  0  0  0
 13  9  1  0  0  0  0
 14 13  1  0  0  0  0
 14 15  1  0  0  0  0
 15  9  1  0  0  0  0
 15  4  1  0  0  0  0
 16  1  1  0  0  0  0
 17 18  1  0  0  0  0
 18 19  1  0  0  0  0
 19 20  1  0  0  0  0
 20 24  1  0  0  0  0
 20 22  1  0  0  0  0
 21 22  2  0  0  0  0
 22 23  1  0  0  0  0
 25 28  2  0  0  0  0
 25 29  1  0  0  0  0
 26 31  1  0  0  0  0
 27 26  2  0  0  0  0
 27 30  1  0  0  0  0
 30 24  1  0  0  0  0
 30 25  1  0  0  0  0
 31 29  1  0  0  0  0
 33 34  2  0  0  0  0
 34 32  1  0  0  0  0
 34 31  1  0  0  0  0
 36 35  1  0  0  0  0
 36 37  1  0  0  0  0
 37 39  1  0  0  0  0
 38 39  2  0  0  0  0
 39 40  1  0  0  0  0
 40 42  1  0  0  0  0
 40 43  1  0  0  0  0
 42 44  1  0  0  0  0
 42 43  1  0  0  0  0
 42 45  1  0  0  0  0
 43 41  1  0  0  0  0
 44 45  1  0  0  0  0
 46 47  1  0  0  0  0
 47 48  1  0  0  0  0
 48 49  1  0  0  0  0
 49 50  1  0  0  0  0
 50 52  1  0  0  0  0
 50 51  1  0  0  0  0
 52 54  1  0  0  0  0
 54 53  2  0  0  0  0
 55 57  1  0  0  0  0
 55 59  1  0  0  0  0
 56 62  1  0  0  0  0
 56 57  1  0  0  0  0
 57 54  1  0  0  0  0
 57 61  1  0  0  0  0
 58 60  1  0  0  0  0
 58 56  1  0  0  0  0
 60 55  1  0  0  0  0
 63 62  1  0  0  0  0
 64 63  1  0  0  0  0
M  END
>  <MODEL>
9

>  <REMARK>
 VINA RESULT:      -5.9      2.375      5.077
  Name = 
  21 active torsions:
  status: ('A' for Active; 'I' for Inactive)
    1  A    between atoms: C_1  and  N_27
    2  A    between atoms: C_1  and  C_59
    3  A    between atoms: C_2  and  C_12
    4  A    between atoms: C_2  and  C_22
    5  A    between atoms: C_3  and  N_23
    6  A    between atoms: C_3  and  C_49
    7  A    between atoms: N_4  and  C_49
    8  A    between atoms: C_8  and  C_44
    9  A    between atoms: C_9  and  C_35
   10  A    between atoms: C_9  and  C_54
   11  A    between atoms: N_11  and  C_20
   12  A    between atoms: C_17  and  C_43
   13  A    between atoms: CA_18  and  N_23
   14  A    between atoms: CA_18  and  C_42
   15  A    between atoms: CA_18  and  C_47
   16  A    between atoms: C_20  and  C_21
   17  A    between atoms: C_21  and  C_45
   18  A    between atoms: C_42  and  C_61
   19  A    between atoms: C_51  and  C_54
   20  A    between atoms: C_51  and  C_59
   21  A    between atoms: C_62  and  C_63
                            x       y       z     vdW  Elec       q    Type
                         _______ _______ _______ _____ _____    ______ ____

>  <TORSDO>
F 21

$$$$
