=
 OpenBabel11042418553D

 31 31  0  0  1  0  0  0  0  0999 V2000
  189.9050  176.1190  143.2260 C   0  0  0  0  0  3  0  0  0  0  0  0
  188.1390  174.7010  142.3900 C   0  0  0  0  0  3  0  0  0  0  0  0
  191.3250  172.8020  142.2240 N   0  0  0  0  0  1  0  0  0  0  0  0
  190.4240  173.8840  142.4430 C   0  0  0  0  0  0  0  0  0  0  0  0
  188.5570  175.9180  142.9300 C   0  0  0  0  0  0  0  0  0  0  0  0
  190.8600  175.1170  142.9920 C   0  0  0  0  0  0  0  0  0  0  0  0
  189.0700  173.6910  142.1470 C   0  0  0  0  0  3  0  0  0  0  0  0
  187.3840  177.1760  143.2900 S   0  0  0  0  0  0  0  0  0  0  0  0
  186.0050  176.5810  143.3060 O   0  0  0  0  0  0  0  0  0  0  0  0
  187.4370  178.2340  142.2230 O   0  0  0  0  0  0  0  0  0  0  0  0
  187.7180  177.8760  144.8400 N   0  0  0  0  0  2  0  0  0  0  0  0
  186.7210  177.3930  145.7860 C   0  0  1  0  0  3  0  0  0  0  0  0
  187.3220  176.2960  146.6540 C   0  0  0  0  0  2  0  0  0  0  0  0
  188.8380  176.3890  146.6810 C   0  0  0  0  0  2  0  0  0  0  0  0
  189.4410  175.1620  147.3430 C   0  0  0  0  0  2  0  0  0  0  0  0
  191.3290  176.6470  148.0120 C   0  0  0  0  0  1  0  0  0  0  0  0
  190.9510  175.2960  147.4360 C   0  0  0  0  0  2  0  0  0  0  0  0
  186.2280  178.4950  146.6070 N   0  0  0  0  0  2  0  0  0  0  0  0
  183.9520  178.6940  145.9450 C   0  0  0  0  0  2  0  0  0  0  0  0
  184.8470  178.6570  146.9190 C   0  0  0  0  0  3  0  0  0  0  0  0
  192.7920  174.8590  144.4830 C   0  0  0  0  0  3  0  0  0  0  0  0
  192.2760  175.3950  143.3630 C   0  0  0  0  0  0  0  0  0  0  0  0
  194.1390  175.0000  144.9610 N   0  0  0  0  0  2  0  0  0  0  0  0
  194.5570  175.6760  146.1790 C   0  0  0  0  0  2  0  0  0  0  0  0
  194.5560  177.1720  145.9510 C   0  0  0  0  0  1  0  0  0  0  0  0
  193.0990  176.2470  142.4430 C   0  0  0  0  0  2  0  0  0  0  0  0
  193.7780  175.3830  141.3920 C   0  0  0  0  0  2  0  0  0  0  0  0
  195.1140  175.1000  141.7800 O   0  0  0  0  0  0  0  0  0  0  0  0
  196.1030  176.0840  141.7910 C   0  0  0  0  0  0  0  0  0  0  0  0
  196.4950  176.6850  142.9810 O   0  0  0  0  0  1  0  0  0  0  0  0
  196.6400  176.4370  140.7090 O   0  0  0  0  0  0  0  0  0  0  0  0
  2  5  1  0  0  0  0
  3  4  1  0  0  0  0
  4  6  2  0  0  0  0
  5  1  2  0  0  0  0
  5  8  1  0  0  0  0
  6  1  1  0  0  0  0
  6 22  1  0  0  0  0
  7  2  2  0  0  0  0
  7  4  1  0  0  0  0
  8  9  2  0  0  0  0
  8 11  1  0  0  0  0
 10  8  2  0  0  0  0
 11 12  1  0  0  0  0
 12 18  1  0  0  0  0
 12 13  1  1  0  0  0
 13 14  1  0  0  0  0
 14 15  1  0  0  0  0
 15 17  1  0  0  0  0
 17 16  1  0  0  0  0
 18 20  1  0  0  0  0
 19 20  2  0  0  0  0
 21 23  1  0  0  0  0
 22 21  2  0  0  0  0
 23 24  1  0  0  0  0
 25 24  1  0  0  0  0
 26 22  1  0  0  0  0
 27 28  1  0  0  0  0
 27 26  1  0  0  0  0
 28 29  1  0  0  0  0
 29 30  1  0  0  0  0
 31 29  2  0  0  0  0
M  END
>  <MODEL>
1

>  <REMARK>
 VINA RESULT:      -5.3      0.000      0.000
  Name = 
  16 active torsions:
  status: ('A' for Active; 'I' for Inactive)
    1  A    between atoms: C_1  and  N_7
    2  A    between atoms: C_2  and  O_8
    3  A    between atoms: C_3  and  O_8
    4  A    between atoms: C_3  and  C_28
    5  A    between atoms: C_4  and  C_25
    6  A    between atoms: C_4  and  C_26
    7  A    between atoms: S_6  and  N_16
    8  A    between atoms: S_6  and  C_21
    9  A    between atoms: N_7  and  C_11
   10  A    between atoms: C_9  and  C_15
   11  A    between atoms: C_9  and  N_16
   12  A    between atoms: C_9  and  N_29
   13  A    between atoms: C_14  and  C_27
   14  A    between atoms: C_14  and  C_28
   15  A    between atoms: C_15  and  C_25
   16  A    between atoms: N_29  and  C_30
                            x       y       z     vdW  Elec       q    Type
                         _______ _______ _______ _____ _____    ______ ____

>  <TORSDO>
F 16

$$$$
=
 OpenBabel11042418553D

 31 31  0  0  1  0  0  0  0  0999 V2000
  189.8990  176.0650  142.6790 C   0  0  0  0  0  3  0  0  0  0  0  0
  188.3090  174.2990  142.2550 C   0  0  0  0  0  3  0  0  0  0  0  0
  191.7110  172.8140  142.2640 N   0  0  0  0  0  1  0  0  0  0  0  0
  190.6830  173.7980  142.3210 C   0  0  0  0  0  0  0  0  0  0  0  0
  188.5800  175.6420  142.5160 C   0  0  0  0  0  0  0  0  0  0  0  0
  190.9700  175.1620  142.5870 C   0  0  0  0  0  0  0  0  0  0  0  0
  189.3570  173.3830  142.1570 C   0  0  0  0  0  3  0  0  0  0  0  0
  187.2640  176.7920  142.6940 S   0  0  0  0  0  0  0  0  0  0  0  0
  186.0130  176.0600  143.0890 O   0  0  0  0  0  0  0  0  0  0  0  0
  187.0190  177.4860  141.3820 O   0  0  0  0  0  0  0  0  0  0  0  0
  187.6510  177.9560  143.9200 N   0  0  0  0  0  2  0  0  0  0  0  0
  186.7960  177.7090  145.0730 C   0  0  1  0  0  3  0  0  0  0  0  0
  187.6470  177.3010  146.2680 C   0  0  0  0  0  2  0  0  0  0  0  0
  189.1260  177.3150  145.9160 C   0  0  0  0  0  2  0  0  0  0  0  0
  189.9120  176.4240  146.8630 C   0  0  0  0  0  2  0  0  0  0  0  0
  189.6850  174.1340  145.9060 C   0  0  0  0  0  1  0  0  0  0  0  0
  189.2340  175.0730  147.0070 C   0  0  0  0  0  2  0  0  0  0  0  0
  186.0040  178.8960  145.3790 N   0  0  0  0  0  2  0  0  0  0  0  0
  184.0670  179.0100  144.0030 C   0  0  0  0  0  2  0  0  0  0  0  0
  185.2060  179.5550  144.3990 C   0  0  0  0  0  3  0  0  0  0  0  0
  193.2270  175.6990  141.7870 C   0  0  0  0  0  3  0  0  0  0  0  0
  192.3490  175.6820  142.8050 C   0  0  0  0  0  0  0  0  0  0  0  0
  194.5740  176.1960  141.8230 N   0  0  0  0  0  2  0  0  0  0  0  0
  195.7540  175.4660  142.2590 C   0  0  0  0  0  2  0  0  0  0  0  0
  196.5760  176.3410  143.1810 C   0  0  0  0  0  1  0  0  0  0  0  0
  192.7040  176.2110  144.1630 C   0  0  0  0  0  2  0  0  0  0  0  0
  193.2870  175.1020  145.0240 C   0  0  0  0  0  2  0  0  0  0  0  0
  194.3210  175.6160  145.8510 O   0  0  0  0  0  0  0  0  0  0  0  0
  194.2250  176.8680  146.4590 C   0  0  0  0  0  0  0  0  0  0  0  0
  193.3130  177.0940  147.4830 O   0  0  0  0  0  1  0  0  0  0  0  0
  194.9660  177.8070  146.0690 O   0  0  0  0  0  0  0  0  0  0  0  0
  2  5  1  0  0  0  0
  3  4  1  0  0  0  0
  4  6  2  0  0  0  0
  5  1  2  0  0  0  0
  5  8  1  0  0  0  0
  6  1  1  0  0  0  0
  6 22  1  0  0  0  0
  7  2  2  0  0  0  0
  7  4  1  0  0  0  0
  8  9  2  0  0  0  0
  8 11  1  0  0  0  0
 10  8  2  0  0  0  0
 11 12  1  0  0  0  0
 12 18  1  0  0  0  0
 12 13  1  1  0  0  0
 14 13  1  0  0  0  0
 14 15  1  0  0  0  0
 15 17  1  0  0  0  0
 16 17  1  0  0  0  0
 19 20  2  0  0  0  0
 20 18  1  0  0  0  0
 21 23  1  0  0  0  0
 21 22  2  0  0  0  0
 22 26  1  0  0  0  0
 23 24  1  0  0  0  0
 24 25  1  0  0  0  0
 26 27  1  0  0  0  0
 27 28  1  0  0  0  0
 28 29  1  0  0  0  0
 29 30  1  0  0  0  0
 31 29  2  0  0  0  0
M  END
>  <MODEL>
2

>  <REMARK>
 VINA RESULT:      -5.3      1.852      2.620
  Name = 
  16 active torsions:
  status: ('A' for Active; 'I' for Inactive)
    1  A    between atoms: C_1  and  N_7
    2  A    between atoms: C_2  and  O_8
    3  A    between atoms: C_3  and  O_8
    4  A    between atoms: C_3  and  C_28
    5  A    between atoms: C_4  and  C_25
    6  A    between atoms: C_4  and  C_26
    7  A    between atoms: S_6  and  N_16
    8  A    between atoms: S_6  and  C_21
    9  A    between atoms: N_7  and  C_11
   10  A    between atoms: C_9  and  C_15
   11  A    between atoms: C_9  and  N_16
   12  A    between atoms: C_9  and  N_29
   13  A    between atoms: C_14  and  C_27
   14  A    between atoms: C_14  and  C_28
   15  A    between atoms: C_15  and  C_25
   16  A    between atoms: N_29  and  C_30
                            x       y       z     vdW  Elec       q    Type
                         _______ _______ _______ _____ _____    ______ ____

>  <TORSDO>
F 16

$$$$
=
 OpenBabel11042418553D

 31 31  0  0  1  0  0  0  0  0999 V2000
  191.3820  176.3840  145.1240 C   0  0  0  0  0  3  0  0  0  0  0  0
  192.1230  175.5510  147.2650 C   0  0  0  0  0  3  0  0  0  0  0  0
  188.4220  175.2920  147.1400 N   0  0  0  0  0  1  0  0  0  0  0  0
  189.7540  175.6040  146.7420 C   0  0  0  0  0  0  0  0  0  0  0  0
  192.4170  176.0880  146.0110 C   0  0  0  0  0  0  0  0  0  0  0  0
  190.0400  176.1510  145.4650 C   0  0  0  0  0  0  0  0  0  0  0  0
  190.7970  175.3120  147.6270 C   0  0  0  0  0  3  0  0  0  0  0  0
  194.0860  176.3420  145.5260 S   0  0  0  0  0  0  0  0  0  0  0  0
  194.9720  175.3860  146.2720 O   0  0  0  0  0  0  0  0  0  0  0  0
  194.5020  177.7470  145.8660 O   0  0  0  0  0  0  0  0  0  0  0  0
  194.2600  176.0660  143.8230 N   0  0  0  0  0  2  0  0  0  0  0  0
  195.0100  174.8310  143.6330 C   0  0  1  0  0  3  0  0  0  0  0  0
  194.1950  173.8560  142.7950 C   0  0  0  0  0  2  0  0  0  0  0  0
  192.8230  174.4250  142.4750 C   0  0  0  0  0  2  0  0  0  0  0  0
  191.7380  173.3930  142.7350 C   0  0  0  0  0  2  0  0  0  0  0  0
  190.4180  172.5040  144.6540 C   0  0  0  0  0  1  0  0  0  0  0  0
  191.7980  172.9120  144.1730 C   0  0  0  0  0  2  0  0  0  0  0  0
  196.2950  175.1140  143.0010 N   0  0  0  0  0  2  0  0  0  0  0  0
  196.3880  176.2780  140.9290 C   0  0  0  0  0  2  0  0  0  0  0  0
  196.5300  176.2980  142.2430 C   0  0  0  0  0  3  0  0  0  0  0  0
  188.6190  175.5250  143.5640 C   0  0  0  0  0  3  0  0  0  0  0  0
  188.9930  176.4630  144.4520 C   0  0  0  0  0  0  0  0  0  0  0  0
  187.6080  175.6550  142.5520 N   0  0  0  0  0  2  0  0  0  0  0  0
  187.8020  176.1320  141.1930 C   0  0  0  0  0  2  0  0  0  0  0  0
  186.9760  177.3810  140.9740 C   0  0  0  0  0  1  0  0  0  0  0  0
  188.3570  177.8220  144.4800 C   0  0  0  0  0  2  0  0  0  0  0  0
  186.9730  177.7420  145.1040 C   0  0  0  0  0  2  0  0  0  0  0  0
  186.0290  178.4230  144.2900 O   0  0  0  0  0  0  0  0  0  0  0  0
  184.6770  178.4900  144.6260 C   0  0  0  0  0  0  0  0  0  0  0  0
  184.2450  178.1580  145.9040 O   0  0  0  0  0  1  0  0  0  0  0  0
  183.8380  178.8470  143.7590 O   0  0  0  0  0  0  0  0  0  0  0  0
  1  6  2  0  0  0  0
  1  5  1  0  0  0  0
  2  7  1  0  0  0  0
  4  3  1  0  0  0  0
  4  7  2  0  0  0  0
  5  2  2  0  0  0  0
  6  4  1  0  0  0  0
  8 10  2  0  0  0  0
  8  5  1  0  0  0  0
  8  9  2  0  0  0  0
 11  8  1  0  0  0  0
 12 13  1  6  0  0  0
 12 11  1  0  0  0  0
 14 15  1  0  0  0  0
 14 13  1  0  0  0  0
 15 17  1  0  0  0  0
 17 16  1  0  0  0  0
 18 12  1  0  0  0  0
 19 20  2  0  0  0  0
 20 18  1  0  0  0  0
 21 22  2  0  0  0  0
 22 26  1  0  0  0  0
 22  6  1  0  0  0  0
 23 21  1  0  0  0  0
 24 23  1  0  0  0  0
 25 24  1  0  0  0  0
 26 27  1  0  0  0  0
 28 29  1  0  0  0  0
 28 27  1  0  0  0  0
 29 30  1  0  0  0  0
 31 29  2  0  0  0  0
M  END
>  <MODEL>
3

>  <REMARK>
 VINA RESULT:      -5.3      2.752      8.183
  Name = 
  16 active torsions:
  status: ('A' for Active; 'I' for Inactive)
    1  A    between atoms: C_1  and  N_7
    2  A    between atoms: C_2  and  O_8
    3  A    between atoms: C_3  and  O_8
    4  A    between atoms: C_3  and  C_28
    5  A    between atoms: C_4  and  C_25
    6  A    between atoms: C_4  and  C_26
    7  A    between atoms: S_6  and  N_16
    8  A    between atoms: S_6  and  C_21
    9  A    between atoms: N_7  and  C_11
   10  A    between atoms: C_9  and  C_15
   11  A    between atoms: C_9  and  N_16
   12  A    between atoms: C_9  and  N_29
   13  A    between atoms: C_14  and  C_27
   14  A    between atoms: C_14  and  C_28
   15  A    between atoms: C_15  and  C_25
   16  A    between atoms: N_29  and  C_30
                            x       y       z     vdW  Elec       q    Type
                         _______ _______ _______ _____ _____    ______ ____

>  <TORSDO>
F 16

$$$$
=
 OpenBabel11042418553D

 31 31  0  0  1  0  0  0  0  0999 V2000
  188.1330  175.2500  143.3340 C   0  0  0  0  0  3  0  0  0  0  0  0
  188.1840  175.4610  140.9290 C   0  0  0  0  0  3  0  0  0  0  0  0
  186.3910  178.4030  142.3120 N   0  0  0  0  0  1  0  0  0  0  0  0
  187.0770  177.1550  142.2690 C   0  0  0  0  0  0  0  0  0  0  0  0
  188.5190  174.7570  142.0860 C   0  0  0  0  0  0  0  0  0  0  0  0
  187.4120  176.4480  143.4530 C   0  0  0  0  0  0  0  0  0  0  0  0
  187.4660  176.6530  141.0220 C   0  0  0  0  0  3  0  0  0  0  0  0
  189.4690  173.2830  141.9830 S   0  0  0  0  0  0  0  0  0  0  0  0
  189.0090  172.4770  140.8010 O   0  0  0  0  0  0  0  0  0  0  0  0
  189.2680  172.4650  143.2280 O   0  0  0  0  0  0  0  0  0  0  0  0
  191.1480  173.6700  141.7870 N   0  0  0  0  0  2  0  0  0  0  0  0
  191.5590  174.5080  142.9060 C   0  0  1  0  0  3  0  0  0  0  0  0
  192.6940  173.8350  143.6640 C   0  0  0  0  0  2  0  0  0  0  0  0
  192.6230  174.1510  145.1490 C   0  0  0  0  0  2  0  0  0  0  0  0
  194.0160  174.3100  145.7340 C   0  0  0  0  0  2  0  0  0  0  0  0
  194.6960  176.6710  145.3090 C   0  0  0  0  0  1  0  0  0  0  0  0
  194.1810  175.6900  146.3450 C   0  0  0  0  0  2  0  0  0  0  0  0
  191.9620  175.8270  142.4280 N   0  0  0  0  0  2  0  0  0  0  0  0
  190.7890  177.8140  143.0030 C   0  0  0  0  0  2  0  0  0  0  0  0
  191.8120  177.0040  143.2170 C   0  0  0  0  0  3  0  0  0  0  0  0
  185.8270  176.7240  145.3060 C   0  0  0  0  0  3  0  0  0  0  0  0
  187.0640  176.9260  144.8200 C   0  0  0  0  0  0  0  0  0  0  0  0
  185.3450  177.0900  146.6080 N   0  0  0  0  0  2  0  0  0  0  0  0
  184.5770  178.2790  146.9430 C   0  0  0  0  0  2  0  0  0  0  0  0
  184.0240  178.8950  145.6760 C   0  0  0  0  0  1  0  0  0  0  0  0
  188.1330  177.5940  145.6340 C   0  0  0  0  0  2  0  0  0  0  0  0
  188.9040  176.5600  146.4390 C   0  0  0  0  0  2  0  0  0  0  0  0
  190.1850  177.0670  146.7870 O   0  0  0  0  0  0  0  0  0  0  0  0
  190.9230  176.5420  147.8470 C   0  0  0  0  0  0  0  0  0  0  0  0
  191.5820  177.3790  148.7390 O   0  0  0  0  0  1  0  0  0  0  0  0
  191.0020  175.2940  147.9920 O   0  0  0  0  0  0  0  0  0  0  0  0
  1  6  1  0  0  0  0
  2  7  2  0  0  0  0
  2  5  1  0  0  0  0
  4  3  1  0  0  0  0
  4  6  2  0  0  0  0
  5  1  2  0  0  0  0
  6 22  1  0  0  0  0
  7  4  1  0  0  0  0
  8  5  1  0  0  0  0
  8 10  2  0  0  0  0
  9  8  2  0  0  0  0
 11  8  1  0  0  0  0
 11 12  1  0  0  0  0
 12 13  1  6  0  0  0
 13 14  1  0  0  0  0
 14 15  1  0  0  0  0
 15 17  1  0  0  0  0
 16 17  1  0  0  0  0
 18 12  1  0  0  0  0
 18 20  1  0  0  0  0
 19 20  2  0  0  0  0
 21 23  1  0  0  0  0
 22 21  2  0  0  0  0
 22 26  1  0  0  0  0
 23 24  1  0  0  0  0
 25 24  1  0  0  0  0
 26 27  1  0  0  0  0
 27 28  1  0  0  0  0
 28 29  1  0  0  0  0
 29 31  2  0  0  0  0
 29 30  1  0  0  0  0
M  END
>  <MODEL>
4

>  <REMARK>
 VINA RESULT:      -5.3      3.219      6.523
  Name = 
  16 active torsions:
  status: ('A' for Active; 'I' for Inactive)
    1  A    between atoms: C_1  and  N_7
    2  A    between atoms: C_2  and  O_8
    3  A    between atoms: C_3  and  O_8
    4  A    between atoms: C_3  and  C_28
    5  A    between atoms: C_4  and  C_25
    6  A    between atoms: C_4  and  C_26
    7  A    between atoms: S_6  and  N_16
    8  A    between atoms: S_6  and  C_21
    9  A    between atoms: N_7  and  C_11
   10  A    between atoms: C_9  and  C_15
   11  A    between atoms: C_9  and  N_16
   12  A    between atoms: C_9  and  N_29
   13  A    between atoms: C_14  and  C_27
   14  A    between atoms: C_14  and  C_28
   15  A    between atoms: C_15  and  C_25
   16  A    between atoms: N_29  and  C_30
                            x       y       z     vdW  Elec       q    Type
                         _______ _______ _______ _____ _____    ______ ____

>  <TORSDO>
F 16

$$$$
=
 OpenBabel11042418553D

 31 31  0  0  1  0  0  0  0  0999 V2000
  189.6560  175.6340  143.1340 C   0  0  0  0  0  3  0  0  0  0  0  0
  188.1790  175.2450  141.2650 C   0  0  0  0  0  3  0  0  0  0  0  0
  191.0990  172.9780  140.9240 N   0  0  0  0  0  1  0  0  0  0  0  0
  190.2530  173.9980  141.4470 C   0  0  0  0  0  0  0  0  0  0  0  0
  188.4740  175.9190  142.4500 C   0  0  0  0  0  0  0  0  0  0  0  0
  190.5640  174.6770  142.6540 C   0  0  0  0  0  0  0  0  0  0  0  0
  189.0660  174.2910  140.7670 C   0  0  0  0  0  3  0  0  0  0  0  0
  187.3380  177.0830  143.1130 S   0  0  0  0  0  0  0  0  0  0  0  0
  186.0650  176.3780  143.4870 O   0  0  0  0  0  0  0  0  0  0  0  0
  187.0210  178.1260  142.0770 O   0  0  0  0  0  0  0  0  0  0  0  0
  188.0080  177.8320  144.5260 N   0  0  0  0  0  2  0  0  0  0  0  0
  187.2160  177.4260  145.6800 C   0  0  1  0  0  3  0  0  0  0  0  0
  188.1370  177.0430  146.8290 C   0  0  0  0  0  2  0  0  0  0  0  0
  188.2880  175.5340  146.9290 C   0  0  0  0  0  2  0  0  0  0  0  0
  189.7550  175.1430  146.9890 C   0  0  0  0  0  2  0  0  0  0  0  0
  192.0590  176.0230  147.3540 C   0  0  0  0  0  1  0  0  0  0  0  0
  190.6360  176.3790  146.9710 C   0  0  0  0  0  2  0  0  0  0  0  0
  186.3110  178.5010  146.0740 N   0  0  0  0  0  2  0  0  0  0  0  0
  184.0350  178.7920  145.4480 C   0  0  0  0  0  2  0  0  0  0  0  0
  184.9190  178.2870  146.2920 C   0  0  0  0  0  3  0  0  0  0  0  0
  191.7470  173.5130  144.4610 C   0  0  0  0  0  3  0  0  0  0  0  0
  191.7890  174.4050  143.4560 C   0  0  0  0  0  0  0  0  0  0  0  0
  192.8410  173.1150  145.3030 N   0  0  0  0  0  2  0  0  0  0  0  0
  193.7610  172.0150  145.0620 C   0  0  0  0  0  2  0  0  0  0  0  0
  193.0790  170.9640  144.2150 C   0  0  0  0  0  1  0  0  0  0  0  0
  193.0550  175.1210  143.0870 C   0  0  0  0  0  2  0  0  0  0  0  0
  193.2370  176.3520  143.9610 C   0  0  0  0  0  2  0  0  0  0  0  0
  194.6190  176.5810  144.2010 O   0  0  0  0  0  0  0  0  0  0  0  0
  195.4240  175.6350  144.8360 C   0  0  0  0  0  0  0  0  0  0  0  0
  195.2370  175.3280  146.1780 O   0  0  0  0  0  1  0  0  0  0  0  0
  196.3370  175.0600  144.1880 O   0  0  0  0  0  0  0  0  0  0  0  0
  2  5  1  0  0  0  0
  3  4  1  0  0  0  0
  4  6  2  0  0  0  0
  5  8  1  0  0  0  0
  5  1  2  0  0  0  0
  6  1  1  0  0  0  0
  6 22  1  0  0  0  0
  7  2  2  0  0  0  0
  7  4  1  0  0  0  0
  8  9  2  0  0  0  0
  8 11  1  0  0  0  0
 10  8  2  0  0  0  0
 11 12  1  0  0  0  0
 12 18  1  0  0  0  0
 12 13  1  1  0  0  0
 13 14  1  0  0  0  0
 14 15  1  0  0  0  0
 17 15  1  0  0  0  0
 17 16  1  0  0  0  0
 18 20  1  0  0  0  0
 19 20  2  0  0  0  0
 21 23  1  0  0  0  0
 22 21  2  0  0  0  0
 24 23  1  0  0  0  0
 25 24  1  0  0  0  0
 26 22  1  0  0  0  0
 26 27  1  0  0  0  0
 27 28  1  0  0  0  0
 28 29  1  0  0  0  0
 29 30  1  0  0  0  0
 31 29  2  0  0  0  0
M  END
>  <MODEL>
5

>  <REMARK>
 VINA RESULT:      -5.2      1.576      2.116
  Name = 
  16 active torsions:
  status: ('A' for Active; 'I' for Inactive)
    1  A    between atoms: C_1  and  N_7
    2  A    between atoms: C_2  and  O_8
    3  A    between atoms: C_3  and  O_8
    4  A    between atoms: C_3  and  C_28
    5  A    between atoms: C_4  and  C_25
    6  A    between atoms: C_4  and  C_26
    7  A    between atoms: S_6  and  N_16
    8  A    between atoms: S_6  and  C_21
    9  A    between atoms: N_7  and  C_11
   10  A    between atoms: C_9  and  C_15
   11  A    between atoms: C_9  and  N_16
   12  A    between atoms: C_9  and  N_29
   13  A    between atoms: C_14  and  C_27
   14  A    between atoms: C_14  and  C_28
   15  A    between atoms: C_15  and  C_25
   16  A    between atoms: N_29  and  C_30
                            x       y       z     vdW  Elec       q    Type
                         _______ _______ _______ _____ _____    ______ ____

>  <TORSDO>
F 16

$$$$
=
 OpenBabel11042418553D

 31 31  0  0  1  0  0  0  0  0999 V2000
  189.8780  175.6320  142.9290 C   0  0  0  0  0  3  0  0  0  0  0  0
  190.4180  177.9000  143.5580 C   0  0  0  0  0  3  0  0  0  0  0  0
  193.5970  176.0690  142.9870 N   0  0  0  0  0  1  0  0  0  0  0  0
  192.1980  176.3120  143.1120 C   0  0  0  0  0  0  0  0  0  0  0  0
  189.4660  176.9160  143.2870 C   0  0  0  0  0  0  0  0  0  0  0  0
  191.2400  175.3040  142.8340 C   0  0  0  0  0  0  0  0  0  0  0  0
  191.7770  177.5960  143.4710 C   0  0  0  0  0  3  0  0  0  0  0  0
  187.7530  177.3030  143.3400 S   0  0  0  0  0  0  0  0  0  0  0  0
  186.9540  176.0400  143.1910 O   0  0  0  0  0  0  0  0  0  0  0  0
  187.4090  178.2260  142.2040 O   0  0  0  0  0  0  0  0  0  0  0  0
  187.3580  178.0490  144.8550 N   0  0  0  0  0  2  0  0  0  0  0  0
  187.1760  177.0000  145.8490 C   0  0  1  0  0  3  0  0  0  0  0  0
  188.4810  176.7660  146.5970 C   0  0  0  0  0  2  0  0  0  0  0  0
  188.7020  175.2860  146.8620 C   0  0  0  0  0  2  0  0  0  0  0  0
  190.1130  174.8750  146.4760 C   0  0  0  0  0  2  0  0  0  0  0  0
  192.5300  175.4620  146.6470 C   0  0  0  0  0  1  0  0  0  0  0  0
  191.1120  175.9300  146.9160 C   0  0  0  0  0  2  0  0  0  0  0  0
  186.1040  177.3600  146.7720 N   0  0  0  0  0  2  0  0  0  0  0  0
  184.0810  178.5150  146.2930 C   0  0  0  0  0  2  0  0  0  0  0  0
  184.7330  177.3680  146.3840 C   0  0  0  0  0  3  0  0  0  0  0  0
  191.4800  172.9040  143.2870 C   0  0  0  0  0  3  0  0  0  0  0  0
  191.6010  173.9200  142.4160 C   0  0  0  0  0  0  0  0  0  0  0  0
  191.7520  171.5170  143.0330 N   0  0  0  0  0  2  0  0  0  0  0  0
  193.0310  170.8430  143.1940 C   0  0  0  0  0  2  0  0  0  0  0  0
  192.8810  169.7060  144.1810 C   0  0  0  0  0  1  0  0  0  0  0  0
  192.0610  173.7000  141.0040 C   0  0  0  0  0  2  0  0  0  0  0  0
  190.8850  173.8040  140.0460 C   0  0  0  0  0  2  0  0  0  0  0  0
  190.0970  172.6240  140.1100 O   0  0  0  0  0  0  0  0  0  0  0  0
  188.7220  172.6660  140.3410 C   0  0  0  0  0  0  0  0  0  0  0  0
  188.2210  172.7620  141.6340 O   0  0  0  0  0  1  0  0  0  0  0  0
  187.9260  172.6060  139.3690 O   0  0  0  0  0  0  0  0  0  0  0  0
  1  5  1  0  0  0  0
  3  4  1  0  0  0  0
  4  7  2  0  0  0  0
  5  8  1  0  0  0  0
  5  2  2  0  0  0  0
  6  1  2  0  0  0  0
  6  4  1  0  0  0  0
  7  2  1  0  0  0  0
  8 11  1  0  0  0  0
  9  8  2  0  0  0  0
 10  8  2  0  0  0  0
 11 12  1  0  0  0  0
 12 13  1  1  0  0  0
 12 18  1  0  0  0  0
 13 14  1  0  0  0  0
 15 14  1  0  0  0  0
 15 17  1  0  0  0  0
 16 17  1  0  0  0  0
 19 20  2  0  0  0  0
 20 18  1  0  0  0  0
 22  6  1  0  0  0  0
 22 21  2  0  0  0  0
 23 24  1  0  0  0  0
 23 21  1  0  0  0  0
 24 25  1  0  0  0  0
 26 22  1  0  0  0  0
 27 28  1  0  0  0  0
 27 26  1  0  0  0  0
 28 29  1  0  0  0  0
 29 30  1  0  0  0  0
 31 29  2  0  0  0  0
M  END
>  <MODEL>
6

>  <REMARK>
 VINA RESULT:      -5.2      2.713      4.078
  Name = 
  16 active torsions:
  status: ('A' for Active; 'I' for Inactive)
    1  A    between atoms: C_1  and  N_7
    2  A    between atoms: C_2  and  O_8
    3  A    between atoms: C_3  and  O_8
    4  A    between atoms: C_3  and  C_28
    5  A    between atoms: C_4  and  C_25
    6  A    between atoms: C_4  and  C_26
    7  A    between atoms: S_6  and  N_16
    8  A    between atoms: S_6  and  C_21
    9  A    between atoms: N_7  and  C_11
   10  A    between atoms: C_9  and  C_15
   11  A    between atoms: C_9  and  N_16
   12  A    between atoms: C_9  and  N_29
   13  A    between atoms: C_14  and  C_27
   14  A    between atoms: C_14  and  C_28
   15  A    between atoms: C_15  and  C_25
   16  A    between atoms: N_29  and  C_30
                            x       y       z     vdW  Elec       q    Type
                         _______ _______ _______ _____ _____    ______ ____

>  <TORSDO>
F 16

$$$$
=
 OpenBabel11042418553D

 31 31  0  0  1  0  0  0  0  0999 V2000
  190.8710  175.9230  143.0440 C   0  0  0  0  0  3  0  0  0  0  0  0
  188.9160  174.5100  143.1480 C   0  0  0  0  0  3  0  0  0  0  0  0
  191.9040  172.4020  143.7880 N   0  0  0  0  0  1  0  0  0  0  0  0
  191.1210  173.5510  143.4770 C   0  0  0  0  0  0  0  0  0  0  0  0
  189.4860  175.7710  142.9690 C   0  0  0  0  0  0  0  0  0  0  0  0
  191.7120  174.8280  143.2970 C   0  0  0  0  0  0  0  0  0  0  0  0
  189.7320  173.4070  143.3990 C   0  0  0  0  0  3  0  0  0  0  0  0
  188.4640  177.1750  142.7060 S   0  0  0  0  0  0  0  0  0  0  0  0
  187.1910  176.7450  142.0350 O   0  0  0  0  0  0  0  0  0  0  0  0
  189.1720  178.1540  141.8100 O   0  0  0  0  0  0  0  0  0  0  0  0
  188.0800  177.9250  144.2220 N   0  0  0  0  0  2  0  0  0  0  0  0
  187.4190  176.9400  145.0670 C   0  0  1  0  0  3  0  0  0  0  0  0
  188.1690  176.8030  146.3840 C   0  0  0  0  0  2  0  0  0  0  0  0
  188.4330  175.3430  146.7140 C   0  0  0  0  0  2  0  0  0  0  0  0
  189.8570  175.1510  147.2050 C   0  0  0  0  0  2  0  0  0  0  0  0
  191.6120  176.7790  147.9010 C   0  0  0  0  0  1  0  0  0  0  0  0
  190.7340  176.3070  146.7580 C   0  0  0  0  0  2  0  0  0  0  0  0
  186.0290  177.3240  145.2970 N   0  0  0  0  0  2  0  0  0  0  0  0
  184.5650  178.2520  146.9260 C   0  0  0  0  0  2  0  0  0  0  0  0
  185.4400  177.3160  146.5940 C   0  0  0  0  0  3  0  0  0  0  0  0
  193.9470  174.9750  142.2950 C   0  0  0  0  0  3  0  0  0  0  0  0
  193.1780  175.0750  143.3930 C   0  0  0  0  0  0  0  0  0  0  0  0
  195.3610  175.2140  142.2130 N   0  0  0  0  0  2  0  0  0  0  0  0
  196.0110  176.4980  142.0060 C   0  0  0  0  0  2  0  0  0  0  0  0
  196.9720  176.7660  143.1440 C   0  0  0  0  0  1  0  0  0  0  0  0
  193.7480  175.4680  144.7250 C   0  0  0  0  0  2  0  0  0  0  0  0
  194.4350  174.2780  145.3740 C   0  0  0  0  0  2  0  0  0  0  0  0
  195.7270  174.6500  145.8340 O   0  0  0  0  0  0  0  0  0  0  0  0
  196.8150  173.7800  145.7600 C   0  0  0  0  0  0  0  0  0  0  0  0
  197.8640  174.0270  144.8830 O   0  0  0  0  0  0  0  0  0  0  0  0
  196.8430  172.7560  146.4900 O   0  0  0  0  0  1  0  0  0  0  0  0
  1  6  1  0  0  0  0
  2  7  2  0  0  0  0
  4  3  1  0  0  0  0
  5  1  2  0  0  0  0
  5  2  1  0  0  0  0
  6 22  1  0  0  0  0
  6  4  2  0  0  0  0
  7  4  1  0  0  0  0
  8  5  1  0  0  0  0
  8 11  1  0  0  0  0
  9  8  2  0  0  0  0
 10  8  2  0  0  0  0
 11 12  1  0  0  0  0
 12 18  1  0  0  0  0
 12 13  1  1  0  0  0
 13 14  1  0  0  0  0
 14 15  1  0  0  0  0
 17 15  1  0  0  0  0
 17 16  1  0  0  0  0
 18 20  1  0  0  0  0
 20 19  2  0  0  0  0
 21 22  2  0  0  0  0
 22 26  1  0  0  0  0
 23 21  1  0  0  0  0
 24 23  1  0  0  0  0
 24 25  1  0  0  0  0
 26 27  1  0  0  0  0
 27 28  1  0  0  0  0
 29 28  1  0  0  0  0
 29 31  1  0  0  0  0
 30 29  2  0  0  0  0
M  END
>  <MODEL>
7

>  <REMARK>
 VINA RESULT:      -5.2      1.864      2.561
  Name = 
  16 active torsions:
  status: ('A' for Active; 'I' for Inactive)
    1  A    between atoms: C_1  and  N_7
    2  A    between atoms: C_2  and  O_8
    3  A    between atoms: C_3  and  O_8
    4  A    between atoms: C_3  and  C_28
    5  A    between atoms: C_4  and  C_25
    6  A    between atoms: C_4  and  C_26
    7  A    between atoms: S_6  and  N_16
    8  A    between atoms: S_6  and  C_21
    9  A    between atoms: N_7  and  C_11
   10  A    between atoms: C_9  and  C_15
   11  A    between atoms: C_9  and  N_16
   12  A    between atoms: C_9  and  N_29
   13  A    between atoms: C_14  and  C_27
   14  A    between atoms: C_14  and  C_28
   15  A    between atoms: C_15  and  C_25
   16  A    between atoms: N_29  and  C_30
                            x       y       z     vdW  Elec       q    Type
                         _______ _______ _______ _____ _____    ______ ____

>  <TORSDO>
F 16

$$$$
=
 OpenBabel11042418553D

 31 31  0  0  1  0  0  0  0  0999 V2000
  189.8150  175.7760  143.2040 C   0  0  0  0  0  3  0  0  0  0  0  0
  188.8670  177.5180  144.5810 C   0  0  0  0  0  3  0  0  0  0  0  0
  192.2820  176.7790  145.8360 N   0  0  0  0  0  1  0  0  0  0  0  0
  191.0960  176.6810  145.0520 C   0  0  0  0  0  0  0  0  0  0  0  0
  188.7580  176.6350  143.5060 C   0  0  0  0  0  0  0  0  0  0  0  0
  190.9970  175.7790  143.9620 C   0  0  0  0  0  0  0  0  0  0  0  0
  190.0320  177.5380  145.3500 C   0  0  0  0  0  3  0  0  0  0  0  0
  187.3180  176.6390  142.5000 S   0  0  0  0  0  0  0  0  0  0  0  0
  186.3160  175.6710  143.0620 O   0  0  0  0  0  0  0  0  0  0  0  0
  187.6760  176.2040  141.1060 O   0  0  0  0  0  0  0  0  0  0  0  0
  186.6180  178.2250  142.4680 N   0  0  0  0  0  2  0  0  0  0  0  0
  185.4450  178.2270  143.3320 C   0  0  1  0  0  3  0  0  0  0  0  0
  185.3680  179.5420  144.0950 C   0  0  0  0  0  2  0  0  0  0  0  0
  185.5640  179.3210  145.5860 C   0  0  0  0  0  2  0  0  0  0  0  0
  184.6820  178.1880  146.0830 C   0  0  0  0  0  2  0  0  0  0  0  0
  186.6870  177.8400  147.5240 C   0  0  0  0  0  1  0  0  0  0  0  0
  185.5090  177.1680  146.8450 C   0  0  0  0  0  2  0  0  0  0  0  0
  184.2370  178.0110  142.5430 N   0  0  0  0  0  2  0  0  0  0  0  0
  183.0300  178.2910  140.5130 C   0  0  0  0  0  2  0  0  0  0  0  0
  184.1950  178.2250  141.1350 C   0  0  0  0  0  3  0  0  0  0  0  0
  192.3520  173.7610  144.2950 C   0  0  0  0  0  3  0  0  0  0  0  0
  192.0930  174.8550  143.5580 C   0  0  0  0  0  0  0  0  0  0  0  0
  193.3450  172.7590  144.0260 N   0  0  0  0  0  2  0  0  0  0  0  0
  193.1850  171.5900  143.1760 C   0  0  0  0  0  2  0  0  0  0  0  0
  191.9610  170.8140  143.6120 C   0  0  0  0  0  1  0  0  0  0  0  0
  192.8580  175.1620  142.3050 C   0  0  0  0  0  2  0  0  0  0  0  0
  193.7220  176.3980  142.5050 C   0  0  0  0  0  2  0  0  0  0  0  0
  194.9480  176.0400  143.1260 O   0  0  0  0  0  0  0  0  0  0  0  0
  196.1790  176.4740  142.6320 C   0  0  0  0  0  0  0  0  0  0  0  0
  196.4040  176.5650  141.2640 O   0  0  0  0  0  0  0  0  0  0  0  0
  197.0990  176.7780  143.4350 O   0  0  0  0  0  1  0  0  0  0  0  0
  1  5  2  0  0  0  0
  1  6  1  0  0  0  0
  2  7  2  0  0  0  0
  4  7  1  0  0  0  0
  4  3  1  0  0  0  0
  5  2  1  0  0  0  0
  6  4  2  0  0  0  0
  8  9  2  0  0  0  0
  8  5  1  0  0  0  0
 10  8  2  0  0  0  0
 11  8  1  0  0  0  0
 11 12  1  0  0  0  0
 12 13  1  6  0  0  0
 13 14  1  0  0  0  0
 14 15  1  0  0  0  0
 15 17  1  0  0  0  0
 17 16  1  0  0  0  0
 18 12  1  0  0  0  0
 19 20  2  0  0  0  0
 20 18  1  0  0  0  0
 22  6  1  0  0  0  0
 22 21  2  0  0  0  0
 23 21  1  0  0  0  0
 24 25  1  0  0  0  0
 24 23  1  0  0  0  0
 26 27  1  0  0  0  0
 26 22  1  0  0  0  0
 27 28  1  0  0  0  0
 29 28  1  0  0  0  0
 29 31  1  0  0  0  0
 30 29  2  0  0  0  0
M  END
>  <MODEL>
8

>  <REMARK>
 VINA RESULT:      -5.2      2.369      3.735
  Name = 
  16 active torsions:
  status: ('A' for Active; 'I' for Inactive)
    1  A    between atoms: C_1  and  N_7
    2  A    between atoms: C_2  and  O_8
    3  A    between atoms: C_3  and  O_8
    4  A    between atoms: C_3  and  C_28
    5  A    between atoms: C_4  and  C_25
    6  A    between atoms: C_4  and  C_26
    7  A    between atoms: S_6  and  N_16
    8  A    between atoms: S_6  and  C_21
    9  A    between atoms: N_7  and  C_11
   10  A    between atoms: C_9  and  C_15
   11  A    between atoms: C_9  and  N_16
   12  A    between atoms: C_9  and  N_29
   13  A    between atoms: C_14  and  C_27
   14  A    between atoms: C_14  and  C_28
   15  A    between atoms: C_15  and  C_25
   16  A    between atoms: N_29  and  C_30
                            x       y       z     vdW  Elec       q    Type
                         _______ _______ _______ _____ _____    ______ ____

>  <TORSDO>
F 16

$$$$
=
 OpenBabel11042418553D

 31 31  0  0  1  0  0  0  0  0999 V2000
  190.3990  176.0690  144.4920 C   0  0  0  0  0  3  0  0  0  0  0  0
  188.3650  176.1430  145.7910 C   0  0  0  0  0  3  0  0  0  0  0  0
  191.1730  175.3440  148.0830 N   0  0  0  0  0  1  0  0  0  0  0  0
  190.4730  175.6200  146.8740 C   0  0  0  0  0  0  0  0  0  0  0  0
  189.0200  176.2680  144.5650 C   0  0  0  0  0  0  0  0  0  0  0  0
  191.1500  175.7440  145.6330 C   0  0  0  0  0  0  0  0  0  0  0  0
  189.0900  175.8200  146.9380 C   0  0  0  0  0  3  0  0  0  0  0  0
  188.1240  176.7270  143.1250 S   0  0  0  0  0  0  0  0  0  0  0  0
  187.2560  175.5800  142.6930 O   0  0  0  0  0  0  0  0  0  0  0  0
  189.0860  177.0460  142.0140 O   0  0  0  0  0  0  0  0  0  0  0  0
  187.1230  178.1020  143.4600 N   0  0  0  0  0  2  0  0  0  0  0  0
  185.7800  177.8220  142.9680 C   0  0  1  0  0  3  0  0  0  0  0  0
  184.7650  178.0590  144.0780 C   0  0  0  0  0  2  0  0  0  0  0  0
  185.4530  178.4680  145.3700 C   0  0  0  0  0  2  0  0  0  0  0  0
  185.0070  177.5810  146.5210 C   0  0  0  0  0  2  0  0  0  0  0  0
  186.3170  179.3320  147.7180 C   0  0  0  0  0  1  0  0  0  0  0  0
  185.7890  177.9120  147.7790 C   0  0  0  0  0  2  0  0  0  0  0  0
  185.4850  178.6550  141.8060 N   0  0  0  0  0  2  0  0  0  0  0  0
  186.2990  177.5430  139.8680 C   0  0  0  0  0  2  0  0  0  0  0  0
  185.2870  178.1080  140.5050 C   0  0  0  0  0  3  0  0  0  0  0  0
  193.3860  176.6370  145.1580 C   0  0  0  0  0  3  0  0  0  0  0  0
  192.6230  175.5790  145.4810 C   0  0  0  0  0  0  0  0  0  0  0  0
  194.8140  176.6520  145.0070 N   0  0  0  0  0  2  0  0  0  0  0  0
  195.5840  175.9440  143.9980 C   0  0  0  0  0  2  0  0  0  0  0  0
  194.8870  176.0570  142.6600 C   0  0  0  0  0  1  0  0  0  0  0  0
  193.2170  174.2240  145.7330 C   0  0  0  0  0  2  0  0  0  0  0  0
  193.0130  173.3270  144.5220 C   0  0  0  0  0  2  0  0  0  0  0  0
  193.1090  171.9620  144.9020 O   0  0  0  0  0  0  0  0  0  0  0  0
  192.3840  170.9630  144.2540 C   0  0  0  0  0  0  0  0  0  0  0  0
  192.8310  169.6470  144.2520 O   0  0  0  0  0  1  0  0  0  0  0  0
  191.3170  171.2580  143.6560 O   0  0  0  0  0  0  0  0  0  0  0  0
  1  5  2  0  0  0  0
  1  6  1  0  0  0  0
  2  7  2  0  0  0  0
  4  7  1  0  0  0  0
  4  3  1  0  0  0  0
  5  2  1  0  0  0  0
  6  4  2  0  0  0  0
  8 11  1  0  0  0  0
  8  5  1  0  0  0  0
  9  8  2  0  0  0  0
 10  8  2  0  0  0  0
 12 11  1  0  0  0  0
 12 13  1  1  0  0  0
 13 14  1  0  0  0  0
 14 15  1  0  0  0  0
 15 17  1  0  0  0  0
 16 17  1  0  0  0  0
 18 12  1  0  0  0  0
 19 20  2  0  0  0  0
 20 18  1  0  0  0  0
 21 22  2  0  0  0  0
 22  6  1  0  0  0  0
 22 26  1  0  0  0  0
 23 21  1  0  0  0  0
 24 23  1  0  0  0  0
 25 24  1  0  0  0  0
 27 28  1  0  0  0  0
 27 26  1  0  0  0  0
 29 28  1  0  0  0  0
 30 29  1  0  0  0  0
 31 29  2  0  0  0  0
M  END
>  <MODEL>
9

>  <REMARK>
 VINA RESULT:      -5.2      2.823      4.504
  Name = 
  16 active torsions:
  status: ('A' for Active; 'I' for Inactive)
    1  A    between atoms: C_1  and  N_7
    2  A    between atoms: C_2  and  O_8
    3  A    between atoms: C_3  and  O_8
    4  A    between atoms: C_3  and  C_28
    5  A    between atoms: C_4  and  C_25
    6  A    between atoms: C_4  and  C_26
    7  A    between atoms: S_6  and  N_16
    8  A    between atoms: S_6  and  C_21
    9  A    between atoms: N_7  and  C_11
   10  A    between atoms: C_9  and  C_15
   11  A    between atoms: C_9  and  N_16
   12  A    between atoms: C_9  and  N_29
   13  A    between atoms: C_14  and  C_27
   14  A    between atoms: C_14  and  C_28
   15  A    between atoms: C_15  and  C_25
   16  A    between atoms: N_29  and  C_30
                            x       y       z     vdW  Elec       q    Type
                         _______ _______ _______ _____ _____    ______ ____

>  <TORSDO>
F 16

$$$$
