=
 OpenBabel11042419383D

 63 68  0  0  1  0  0  0  0  0999 V2000
  187.1750  174.1020  142.2390 C   0  0  0  0  0  1  0  0  0  0  0  0
  192.3470  174.6630  144.0850 O   0  0  0  0  0  0  0  0  0  0  0  0
  193.6950  175.9590  145.4130 O   0  0  0  0  0  1  0  0  0  0  0  0
  193.2480  173.8210  143.4150 C   0  0  1  0  0  3  0  0  0  0  0  0
  188.4750  178.1180  141.2950 O   0  0  0  0  0  1  0  0  0  0  0  0
  192.8420  170.7450  141.0170 C   0  0  0  0  0  2  0  0  0  0  0  0
  191.6750  170.2390  141.8390 C   0  0  1  0  0  3  0  0  0  0  0  0
  193.5440  171.8590  141.7710 C   0  0  2  0  0  3  0  0  0  0  0  0
  195.0510  172.1330  143.8320 N   0  0  0  0  0  0  0  0  0  0  0  0
  189.1390  176.6300  143.0060 C   0  0  0  0  0  2  0  0  0  0  0  0
  190.1270  173.4710  142.5750 C   0  0  0  0  0  2  0  0  0  0  0  0
  194.0460  172.9920  144.3740 C   0  0  0  0  0  0  0  0  0  0  0  0
  191.1450  172.3170  142.7840 C   0  0  2  0  0  0  0  0  0  0  0  0
  190.9790  176.8500  145.0880 O   0  0  0  0  0  0  0  0  0  0  0  0
  194.6190  171.3380  142.7120 C   0  0  0  0  0  0  0  0  0  0  0  0
  192.9960  175.9010  144.2050 C   0  0  2  0  0  3  0  0  0  0  0  0
  195.1840  170.2360  142.4660 O   0  0  0  0  0  0  0  0  0  0  0  0
  188.1750  174.3560  141.1090 C   0  0  2  0  0  3  0  0  0  0  0  0
  189.4460  173.4900  141.1890 C   0  0  1  0  0  3  0  0  0  0  0  0
  191.9910  177.0290  144.1350 C   0  0  0  0  0  2  0  0  0  0  0  0
  190.1530  177.9690  144.9220 C   0  0  0  0  0  2  0  0  0  0  0  0
  190.4300  173.8100  140.0730 C   0  0  0  0  0  1  0  0  0  0  0  0
  192.5530  172.8810  142.3920 C   0  0  1  0  0  3  0  0  0  0  0  0
  193.6920  172.8720  145.5760 O   0  0  0  0  0  0  0  0  0  0  0  0
  188.1990  176.8690  141.8360 C   0  0  2  0  0  3  0  0  0  0  0  0
  190.7160  171.2620  141.9350 O   0  0  0  0  0  0  0  0  0  0  0  0
  188.4120  175.8380  140.7370 C   0  0  0  0  0  2  0  0  0  0  0  0
  188.8840  177.6440  144.1260 C   0  0  2  0  0  3  0  0  0  0  0  0
  197.9390  174.0090  142.9730 C   0  0  0  0  0  2  0  0  0  0  0  0
  196.7750  174.6210  143.7340 C   0  0  2  0  0  3  0  0  0  0  0  0
  196.2950  171.8470  144.5830 C   0  0  1  0  0  3  0  0  0  0  0  0
  197.5460  171.6290  143.7080 C   0  0  0  0  0  2  0  0  0  0  0  0
  196.5950  172.8910  145.6760 C   0  0  0  0  0  3  0  0  0  0  0  0
  197.6200  172.5890  142.5310 C   0  0  0  0  0  2  0  0  0  0  0  0
  196.7530  176.1170  143.4970 C   0  0  0  0  0  1  0  0  0  0  0  0
  196.8960  174.3350  145.2290 C   0  0  0  0  0  3  0  0  0  0  0  0
  191.1450  171.8050  144.2530 C   0  0  0  0  0  2  0  0  0  0  0  0
  189.8650  172.0660  145.0470 C   0  0  0  0  0  1  0  0  0  0  0  0
  187.7720  177.2050  145.0300 C   0  0  0  0  0  3  0  0  0  0  0  0
  187.4870  177.8930  146.0770 N   0  0  0  0  0  0  0  0  0  0  0  0
  186.2400  177.4000  147.1490 S   0  0  0  0  0  0  0  0  0  0  0  0
  186.0130  178.4640  148.1890 O   0  0  0  0  0  0  0  0  0  0  0  0
  186.6400  176.1190  147.8220 O   0  0  0  0  0  0  0  0  0  0  0  0
  184.7720  177.2120  146.2320 N   0  0  0  0  0  2  0  0  0  0  0  0
  184.1190  178.5060  146.0870 C   0  0  0  0  0  2  0  0  0  0  0  0
  184.1900  178.9660  144.6380 C   0  0  0  0  0  2  0  0  0  0  0  0
  185.2880  179.8070  144.4620 O   0  0  0  0  0  1  0  0  0  0  0  0
  191.0480  169.0650  141.1050 C   0  0  0  0  0  2  0  0  0  0  0  0
  191.4950  169.0110  139.7800 O   0  0  0  0  0  0  0  0  0  0  0  0
  190.3410  168.9460  138.9890 C   0  0  2  0  0  3  0  0  0  0  0  0
  190.6580  168.1660  137.7250 C   0  0  0  0  0  1  0  0  0  0  0  0
  189.8610  170.3520  138.6430 C   0  0  0  0  0  2  0  0  0  0  0  0
  190.1660  170.6560  137.2480 N   0  0  0  0  0  2  0  0  0  0  0  0
  189.6310  171.8710  136.9820 O   0  0  0  0  0  0  0  0  0  0  0  0
  190.2220  172.2620  135.7740 C   0  0  0  0  0  2  0  0  0  0  0  0
  191.6350  172.7770  136.0130 C   0  0  0  0  0  2  0  0  0  0  0  0
  190.4710  174.8710  136.2290 O   0  0  0  0  0  0  0  0  0  0  0  0
  190.9790  175.0630  134.9270 C   0  0  0  0  0  2  0  0  0  0  0  0
  191.7250  174.3010  135.9590 C   0  0  2  0  0  0  0  0  0  0  0  0
  192.8100  175.0300  136.7370 C   0  0  0  0  0  2  0  0  0  0  0  0
  195.2280  175.2240  137.1060 C   0  0  0  0  0  2  0  0  0  0  0  0
  194.9650  175.2610  135.7240 O   0  0  0  0  0  0  0  0  0  0  0  0
  194.1710  174.3920  136.5020 C   0  0  2  0  0  3  0  0  0  0  0  0
  2 16  1  0  0  0  0
  4  2  1  1  0  0  0
  4 12  1  0  0  0  0
  5 25  1  0  0  0  0
  6  7  1  0  0  0  0
  7 48  1  6  0  0  0
  7 26  1  0  0  0  0
  8  6  1  1  0  0  0
  8 23  1  0  0  0  0
  8 15  1  0  0  0  0
  9 12  1  0  0  0  0
  9 31  1  0  0  0  0
 10 28  1  0  0  0  0
 11 13  1  0  0  0  0
 12 24  2  0  0  0  0
 13 37  1  1  0  0  0
 15  9  1  0  0  0  0
 16  3  1  1  0  0  0
 17 15  2  0  0  0  0
 18 19  1  0  0  0  0
 18  1  1  1  0  0  0
 19 22  1  6  0  0  0
 19 11  1  0  0  0  0
 20 16  1  0  0  0  0
 20 14  1  0  0  0  0
 21 14  1  0  0  0  0
 23 13  1  0  0  0  0
 23  4  1  0  0  0  0
 25 10  1  0  0  0  0
 26 13  1  0  0  0  0
 27 18  1  0  0  0  0
 27 25  1  0  0  0  0
 28 21  1  0  0  0  0
 28 39  1  0  0  0  0
 29 30  1  0  0  0  0
 30 36  1  0  0  0  0
 31 33  1  0  0  0  0
 32 31  1  0  0  0  0
 34 29  1  0  0  0  0
 34 32  1  0  0  0  0
 35 30  1  0  0  0  0
 36 33  2  0  0  0  0
 37 38  1  0  0  0  0
 39 40  2  0  0  0  0
 40 41  1  0  0  0  0
 41 43  2  0  0  0  0
 41 42  2  0  0  0  0
 44 41  1  0  0  0  0
 45 44  1  0  0  0  0
 46 45  1  0  0  0  0
 47 46  1  0  0  0  0
 49 48  1  0  0  0  0
 50 49  1  0  0  0  0
 51 50  1  0  0  0  0
 52 50  1  0  0  0  0
 53 52  1  0  0  0  0
 54 53  1  0  0  0  0
 55 56  1  0  0  0  0
 55 54  1  0  0  0  0
 58 59  1  0  0  0  0
 58 57  1  0  0  0  0
 59 56  1  0  0  0  0
 59 57  1  0  0  0  0
 59 60  1  0  0  0  0
 62 63  1  0  0  0  0
 62 61  1  0  0  0  0
 63 60  1  0  0  0  0
 63 61  1  0  0  0  0
M  END
>  <MODEL>
1

>  <REMARK>
 VINA RESULT:      -6.3      0.000      0.000
  Name = 
  18 active torsions:
  status: ('A' for Active; 'I' for Inactive)
    1  A    between atoms: C_3  and  C_20
    2  A    between atoms: S_4  and  N_14
    3  A    between atoms: S_4  and  N_55
    4  A    between atoms: C_12  and  C_48
    5  A    between atoms: N_14  and  C_20
    6  A    between atoms: N_15  and  C_22
    7  A    between atoms: C_17  and  C_44
    8  A    between atoms: C_17  and  N_61
    9  A    between atoms: C_23  and  C_59
   10  A    between atoms: C_24  and  C_27
   11  A    between atoms: O_35  and  C_44
   12  A    between atoms: O_35  and  C_48
   13  A    between atoms: O_39  and  C_56
   14  A    between atoms: O_39  and  N_61
   15  A    between atoms: C_49  and  C_56
   16  A    between atoms: C_49  and  C_58
   17  A    between atoms: C_58  and  C_62
   18  A    between atoms: C_62  and  C_63
                            x       y       z     vdW  Elec       q    Type
                         _______ _______ _______ _____ _____    ______ ____

>  <TORSDO>
F 18

$$$$
=
 OpenBabel11042419383D

 63 68  0  0  1  0  0  0  0  0999 V2000
  190.4390  174.0910  144.0140 C   0  0  0  0  0  1  0  0  0  0  0  0
  192.2240  172.6280  139.0000 O   0  0  0  0  0  0  0  0  0  0  0  0
  191.7500  172.7830  136.7610 O   0  0  0  0  0  1  0  0  0  0  0  0
  193.2670  171.6890  139.0560 C   0  0  1  0  0  3  0  0  0  0  0  0
  187.1930  172.0490  142.0110 O   0  0  0  0  0  1  0  0  0  0  0  0
  195.6000  170.3720  141.9190 C   0  0  0  0  0  2  0  0  0  0  0  0
  195.6960  171.7660  142.5030 C   0  0  1  0  0  3  0  0  0  0  0  0
  194.9630  170.4440  140.5430 C   0  0  2  0  0  3  0  0  0  0  0  0
  195.5720  171.2480  138.1820 N   0  0  0  0  0  0  0  0  0  0  0  0
  189.0220  173.2760  141.1560 C   0  0  0  0  0  2  0  0  0  0  0  0
  192.2330  172.7980  141.9320 C   0  0  0  0  0  2  0  0  0  0  0  0
  194.4570  172.1380  138.2660 C   0  0  0  0  0  0  0  0  0  0  0  0
  193.7130  172.5540  141.5330 C   0  0  2  0  0  0  0  0  0  0  0  0
  189.8150  173.9180  138.5620 O   0  0  0  0  0  0  0  0  0  0  0  0
  195.9820  170.6820  139.4400 C   0  0  0  0  0  0  0  0  0  0  0  0
  191.3730  172.1940  137.9710 C   0  0  2  0  0  3  0  0  0  0  0  0
  197.1790  170.3130  139.6050 O   0  0  0  0  0  0  0  0  0  0  0  0
  190.4670  172.5730  143.8230 C   0  0  2  0  0  3  0  0  0  0  0  0
  191.7720  172.0440  143.1990 C   0  0  1  0  0  3  0  0  0  0  0  0
  189.9390  172.5480  138.2930 C   0  0  0  0  0  2  0  0  0  0  0  0
  188.4490  174.0940  138.8120 C   0  0  0  0  0  2  0  0  0  0  0  0
  191.7370  170.5370  142.9860 C   0  0  0  0  0  1  0  0  0  0  0  0
  193.7150  171.3680  140.5080 C   0  0  1  0  0  3  0  0  0  0  0  0
  194.5720  173.3340  137.8940 O   0  0  0  0  0  0  0  0  0  0  0  0
  188.2850  172.8140  142.4020 C   0  0  2  0  0  3  0  0  0  0  0  0
  194.3950  172.2430  142.7390 O   0  0  0  0  0  0  0  0  0  0  0  0
  189.1700  171.9360  143.2740 C   0  0  0  0  0  2  0  0  0  0  0  0
  188.1370  174.1970  140.3100 C   0  0  2  0  0  3  0  0  0  0  0  0
  194.9280  168.6630  135.8360 C   0  0  0  0  0  2  0  0  0  0  0  0
  193.9950  169.8510  136.0060 C   0  0  2  0  0  3  0  0  0  0  0  0
  196.4210  171.2040  136.9700 C   0  0  1  0  0  3  0  0  0  0  0  0
  197.0180  169.8190  136.6450 C   0  0  0  0  0  2  0  0  0  0  0  0
  195.7250  171.7810  135.7210 C   0  0  0  0  0  3  0  0  0  0  0  0
  196.0360  168.6820  136.8770 C   0  0  0  0  0  2  0  0  0  0  0  0
  192.6000  169.4590  135.5650 C   0  0  0  0  0  1  0  0  0  0  0  0
  194.4830  171.0430  135.1860 C   0  0  0  0  0  3  0  0  0  0  0  0
  194.3600  173.8240  140.9090 C   0  0  0  0  0  2  0  0  0  0  0  0
  193.7480  175.1590  141.3360 C   0  0  0  0  0  1  0  0  0  0  0  0
  188.2030  175.6180  140.7820 C   0  0  0  0  0  3  0  0  0  0  0  0
  187.3260  176.0610  141.6100 N   0  0  0  0  0  0  0  0  0  0  0  0
  187.3560  177.6910  142.1460 S   0  0  0  0  0  0  0  0  0  0  0  0
  186.1250  178.4080  141.6610 O   0  0  0  0  0  0  0  0  0  0  0  0
  188.5790  178.3710  141.6010 O   0  0  0  0  0  0  0  0  0  0  0  0
  187.3420  177.6970  143.8860 N   0  0  0  0  0  2  0  0  0  0  0  0
  186.2440  176.8670  144.3670 C   0  0  0  0  0  2  0  0  0  0  0  0
  185.3580  177.6700  145.3070 C   0  0  0  0  0  2  0  0  0  0  0  0
  184.4520  178.4300  144.5700 O   0  0  0  0  0  1  0  0  0  0  0  0
  196.4210  171.6760  143.8360 C   0  0  0  0  0  2  0  0  0  0  0  0
  197.5550  172.4950  143.8400 O   0  0  0  0  0  0  0  0  0  0  0  0
  197.3570  173.4170  144.8760 C   0  0  2  0  0  3  0  0  0  0  0  0
  196.3860  172.8220  145.8810 C   0  0  0  0  0  1  0  0  0  0  0  0
  196.8100  174.7260  144.3170 C   0  0  0  0  0  2  0  0  0  0  0  0
  195.4250  174.9130  144.7410 N   0  0  0  0  0  2  0  0  0  0  0  0
  195.3250  176.1760  145.2180 O   0  0  0  0  0  0  0  0  0  0  0  0
  194.4910  176.0680  146.3370 C   0  0  0  0  0  2  0  0  0  0  0  0
  193.2070  175.3310  145.9770 C   0  0  0  0  0  2  0  0  0  0  0  0
  192.2410  176.7150  147.6910 O   0  0  0  0  0  0  0  0  0  0  0  0
  191.3420  175.6310  147.7850 C   0  0  0  0  0  2  0  0  0  0  0  0
  191.9560  176.0370  146.4960 C   0  0  2  0  0  0  0  0  0  0  0  0
  191.1430  176.9290  145.5690 C   0  0  0  0  0  2  0  0  0  0  0  0
  191.3060  178.5170  143.7060 C   0  0  0  0  0  2  0  0  0  0  0  0
  191.2580  177.2060  143.1960 O   0  0  0  0  0  0  0  0  0  0  0  0
  191.9820  177.3990  144.3910 C   0  0  2  0  0  3  0  0  0  0  0  0
  2  4  1  0  0  0  0
  4 12  1  6  0  0  0
  4 23  1  0  0  0  0
  5 25  1  0  0  0  0
  6  7  1  0  0  0  0
  7 26  1  0  0  0  0
  7 48  1  1  0  0  0
  8  6  1  1  0  0  0
  9 12  1  0  0  0  0
  9 15  1  0  0  0  0
 10 25  1  0  0  0  0
 11 19  1  0  0  0  0
 13 37  1  6  0  0  0
 13 11  1  0  0  0  0
 13 26  1  0  0  0  0
 14 21  1  0  0  0  0
 15 17  2  0  0  0  0
 15  8  1  0  0  0  0
 16  3  1  6  0  0  0
 16 20  1  0  0  0  0
 16  2  1  0  0  0  0
 18  1  1  6  0  0  0
 19 22  1  6  0  0  0
 19 18  1  0  0  0  0
 20 14  1  0  0  0  0
 21 28  1  0  0  0  0
 23  8  1  0  0  0  0
 23 13  1  0  0  0  0
 24 12  2  0  0  0  0
 25 27  1  0  0  0  0
 27 18  1  0  0  0  0
 28 39  1  0  0  0  0
 28 10  1  0  0  0  0
 29 30  1  0  0  0  0
 29 34  1  0  0  0  0
 31  9  1  0  0  0  0
 32 34  1  0  0  0  0
 32 31  1  0  0  0  0
 33 31  1  0  0  0  0
 35 30  1  0  0  0  0
 36 33  2  0  0  0  0
 36 30  1  0  0  0  0
 37 38  1  0  0  0  0
 39 40  2  0  0  0  0
 40 41  1  0  0  0  0
 41 44  1  0  0  0  0
 42 41  2  0  0  0  0
 43 41  2  0  0  0  0
 44 45  1  0  0  0  0
 45 46  1  0  0  0  0
 47 46  1  0  0  0  0
 48 49  1  0  0  0  0
 49 50  1  0  0  0  0
 50 51  1  0  0  0  0
 52 53  1  0  0  0  0
 52 50  1  0  0  0  0
 53 54  1  0  0  0  0
 54 55  1  0  0  0  0
 56 55  1  0  0  0  0
 56 59  1  0  0  0  0
 57 58  1  0  0  0  0
 59 57  1  0  0  0  0
 59 58  1  0  0  0  0
 60 59  1  0  0  0  0
 61 63  1  0  0  0  0
 62 61  1  0  0  0  0
 62 63  1  0  0  0  0
 63 60  1  0  0  0  0
M  END
>  <MODEL>
2

>  <REMARK>
 VINA RESULT:      -6.0      2.687      7.276
  Name = 
  18 active torsions:
  status: ('A' for Active; 'I' for Inactive)
    1  A    between atoms: C_3  and  C_20
    2  A    between atoms: S_4  and  N_14
    3  A    between atoms: S_4  and  N_55
    4  A    between atoms: C_12  and  C_48
    5  A    between atoms: N_14  and  C_20
    6  A    between atoms: N_15  and  C_22
    7  A    between atoms: C_17  and  C_44
    8  A    between atoms: C_17  and  N_61
    9  A    between atoms: C_23  and  C_59
   10  A    between atoms: C_24  and  C_27
   11  A    between atoms: O_35  and  C_44
   12  A    between atoms: O_35  and  C_48
   13  A    between atoms: O_39  and  C_56
   14  A    between atoms: O_39  and  N_61
   15  A    between atoms: C_49  and  C_56
   16  A    between atoms: C_49  and  C_58
   17  A    between atoms: C_58  and  C_62
   18  A    between atoms: C_62  and  C_63
                            x       y       z     vdW  Elec       q    Type
                         _______ _______ _______ _____ _____    ______ ____

>  <TORSDO>
F 18

$$$$
=
 OpenBabel11042419383D

 63 68  0  0  1  0  0  0  0  0999 V2000
  191.2750  174.8550  143.6840 C   0  0  0  0  0  1  0  0  0  0  0  0
  192.2260  172.9250  138.6000 O   0  0  0  0  0  0  0  0  0  0  0  0
  191.2840  172.6690  136.5250 O   0  0  0  0  0  1  0  0  0  0  0  0
  193.4060  172.1680  138.5280 C   0  0  1  0  0  3  0  0  0  0  0  0
  188.0980  172.0820  142.7190 O   0  0  0  0  0  1  0  0  0  0  0  0
  196.4700  171.6540  140.9210 C   0  0  0  0  0  2  0  0  0  0  0  0
  196.4370  173.1200  141.3030 C   0  0  1  0  0  3  0  0  0  0  0  0
  195.5620  171.4240  139.7260 C   0  0  2  0  0  3  0  0  0  0  0  0
  195.5240  171.9400  137.2120 N   0  0  0  0  0  0  0  0  0  0  0  0
  189.4690  173.4190  141.3360 C   0  0  0  0  0  2  0  0  0  0  0  0
  192.8040  173.5370  141.4150 C   0  0  0  0  0  2  0  0  0  0  0  0
  194.3110  172.6610  137.4420 C   0  0  0  0  0  0  0  0  0  0  0  0
  194.1900  173.4550  140.7220 C   0  0  2  0  0  0  0  0  0  0  0  0
  189.5900  173.7690  138.5720 O   0  0  0  0  0  0  0  0  0  0  0  0
  196.2760  171.6380  138.4010 C   0  0  0  0  0  0  0  0  0  0  0  0
  191.2720  172.2220  137.8490 C   0  0  2  0  0  3  0  0  0  0  0  0
  197.5270  171.4770  138.3320 O   0  0  0  0  0  0  0  0  0  0  0  0
  191.5300  173.3460  143.6690 C   0  0  2  0  0  3  0  0  0  0  0  0
  192.7510  172.9250  142.8320 C   0  0  1  0  0  3  0  0  0  0  0  0
  189.8950  172.4070  138.4440 C   0  0  0  0  0  2  0  0  0  0  0  0
  188.2940  173.7800  139.1030 C   0  0  0  0  0  2  0  0  0  0  0  0
  192.9380  171.4150  142.8090 C   0  0  0  0  0  1  0  0  0  0  0  0
  194.1910  172.1400  139.8680 C   0  0  1  0  0  3  0  0  0  0  0  0
  194.1370  173.7910  136.9170 O   0  0  0  0  0  0  0  0  0  0  0  0
  189.0950  173.0480  142.7610 C   0  0  2  0  0  3  0  0  0  0  0  0
  195.1490  173.4330  141.7700 O   0  0  0  0  0  0  0  0  0  0  0  0
  190.2800  172.4520  143.5050 C   0  0  0  0  0  2  0  0  0  0  0  0
  188.2820  174.0620  140.6110 C   0  0  2  0  0  3  0  0  0  0  0  0
  194.8910  168.9580  135.3940 C   0  0  0  0  0  2  0  0  0  0  0  0
  193.8140  170.0050  135.6310 C   0  0  2  0  0  3  0  0  0  0  0  0
  196.1020  171.8380  135.8520 C   0  0  1  0  0  3  0  0  0  0  0  0
  196.8590  170.5240  135.5660 C   0  0  0  0  0  2  0  0  0  0  0  0
  195.0740  172.1040  134.7350 C   0  0  0  0  0  3  0  0  0  0  0  0
  196.1650  169.3030  136.1480 C   0  0  0  0  0  2  0  0  0  0  0  0
  192.4520  169.3450  135.5670 C   0  0  0  0  0  1  0  0  0  0  0  0
  193.9020  171.1150  134.5870 C   0  0  0  0  0  3  0  0  0  0  0  0
  194.4630  174.6960  139.8250 C   0  0  0  0  0  2  0  0  0  0  0  0
  194.7220  176.0070  140.5660 C   0  0  0  0  0  1  0  0  0  0  0  0
  188.1930  175.5330  140.8870 C   0  0  0  0  0  3  0  0  0  0  0  0
  188.2200  175.9610  142.0990 N   0  0  0  0  0  0  0  0  0  0  0  0
  188.0890  177.6360  142.4500 S   0  0  0  0  0  0  0  0  0  0  0  0
  186.8240  178.1840  141.8470 O   0  0  0  0  0  0  0  0  0  0  0  0
  189.2730  178.3590  141.8740 O   0  0  0  0  0  0  0  0  0  0  0  0
  187.9990  177.8280  144.1770 N   0  0  0  0  0  2  0  0  0  0  0  0
  187.2660  176.7090  144.7540 C   0  0  0  0  0  2  0  0  0  0  0  0
  186.4240  177.1890  145.9280 C   0  0  0  0  0  2  0  0  0  0  0  0
  185.2470  176.4460  146.0010 O   0  0  0  0  0  1  0  0  0  0  0  0
  197.4230  173.3400  142.4370 C   0  0  0  0  0  2  0  0  0  0  0  0
  197.7620  174.6930  142.5460 O   0  0  0  0  0  0  0  0  0  0  0  0
  197.5730  175.0280  143.8930 C   0  0  2  0  0  3  0  0  0  0  0  0
  197.6700  173.7640  144.7290 C   0  0  0  0  0  1  0  0  0  0  0  0
  196.2120  175.6900  144.0830 C   0  0  0  0  0  2  0  0  0  0  0  0
  195.4410  174.9720  145.0930 N   0  0  0  0  0  2  0  0  0  0  0  0
  195.0560  175.8830  146.0180 O   0  0  0  0  0  0  0  0  0  0  0  0
  193.7300  175.5460  146.3160 C   0  0  0  0  0  2  0  0  0  0  0  0
  192.9450  176.7850  146.7300 C   0  0  0  0  0  2  0  0  0  0  0  0
  190.8390  177.4910  147.6530 O   0  0  0  0  0  0  0  0  0  0  0  0
  191.5360  177.3180  148.8670 C   0  0  0  0  0  2  0  0  0  0  0  0
  191.7940  176.4630  147.6810 C   0  0  2  0  0  0  0  0  0  0  0  0
  191.1070  175.1070  147.6180 C   0  0  0  0  0  2  0  0  0  0  0  0
  188.7100  174.5830  147.6320 C   0  0  0  0  0  2  0  0  0  0  0  0
  189.3310  173.8930  146.5740 O   0  0  0  0  0  0  0  0  0  0  0  0
  189.7990  175.1950  146.8470 C   0  0  2  0  0  3  0  0  0  0  0  0
  4 12  1  6  0  0  0
  4  2  1  0  0  0  0
  4 23  1  0  0  0  0
  5 25  1  0  0  0  0
  6  7  1  0  0  0  0
  7 26  1  0  0  0  0
  7 48  1  1  0  0  0
  8 23  1  0  0  0  0
  8  6  1  1  0  0  0
  9 12  1  0  0  0  0
  9 15  1  0  0  0  0
 10 25  1  0  0  0  0
 11 19  1  0  0  0  0
 13 37  1  6  0  0  0
 13 11  1  0  0  0  0
 13 26  1  0  0  0  0
 14 21  1  0  0  0  0
 15  8  1  0  0  0  0
 16  3  1  6  0  0  0
 16 20  1  0  0  0  0
 16  2  1  0  0  0  0
 17 15  2  0  0  0  0
 18  1  1  6  0  0  0
 19 22  1  6  0  0  0
 19 18  1  0  0  0  0
 20 14  1  0  0  0  0
 21 28  1  0  0  0  0
 23 13  1  0  0  0  0
 24 12  2  0  0  0  0
 25 27  1  0  0  0  0
 27 18  1  0  0  0  0
 28 39  1  0  0  0  0
 28 10  1  0  0  0  0
 29 30  1  0  0  0  0
 29 34  1  0  0  0  0
 31  9  1  0  0  0  0
 32 31  1  0  0  0  0
 32 34  1  0  0  0  0
 33 31  1  0  0  0  0
 35 30  1  0  0  0  0
 36 33  2  0  0  0  0
 36 30  1  0  0  0  0
 37 38  1  0  0  0  0
 39 40  2  0  0  0  0
 40 41  1  0  0  0  0
 41 44  1  0  0  0  0
 42 41  2  0  0  0  0
 43 41  2  0  0  0  0
 44 45  1  0  0  0  0
 45 46  1  0  0  0  0
 46 47  1  0  0  0  0
 48 49  1  0  0  0  0
 49 50  1  0  0  0  0
 50 52  1  0  0  0  0
 50 51  1  0  0  0  0
 52 53  1  0  0  0  0
 53 54  1  0  0  0  0
 54 55  1  0  0  0  0
 55 56  1  0  0  0  0
 56 59  1  0  0  0  0
 57 59  1  0  0  0  0
 57 58  1  0  0  0  0
 59 58  1  0  0  0  0
 60 59  1  0  0  0  0
 62 63  1  0  0  0  0
 62 61  1  0  0  0  0
 63 60  1  0  0  0  0
 63 61  1  0  0  0  0
M  END
>  <MODEL>
3

>  <REMARK>
 VINA RESULT:      -5.9      2.912      7.950
  Name = 
  18 active torsions:
  status: ('A' for Active; 'I' for Inactive)
    1  A    between atoms: C_3  and  C_20
    2  A    between atoms: S_4  and  N_14
    3  A    between atoms: S_4  and  N_55
    4  A    between atoms: C_12  and  C_48
    5  A    between atoms: N_14  and  C_20
    6  A    between atoms: N_15  and  C_22
    7  A    between atoms: C_17  and  C_44
    8  A    between atoms: C_17  and  N_61
    9  A    between atoms: C_23  and  C_59
   10  A    between atoms: C_24  and  C_27
   11  A    between atoms: O_35  and  C_44
   12  A    between atoms: O_35  and  C_48
   13  A    between atoms: O_39  and  C_56
   14  A    between atoms: O_39  and  N_61
   15  A    between atoms: C_49  and  C_56
   16  A    between atoms: C_49  and  C_58
   17  A    between atoms: C_58  and  C_62
   18  A    between atoms: C_62  and  C_63
                            x       y       z     vdW  Elec       q    Type
                         _______ _______ _______ _____ _____    ______ ____

>  <TORSDO>
F 18

$$$$
=
 OpenBabel11042419383D

 63 68  0  0  1  0  0  0  0  0999 V2000
  193.9730  174.2390  145.3210 C   0  0  0  0  0  1  0  0  0  0  0  0
  193.4060  171.3380  140.6590 O   0  0  0  0  0  0  0  0  0  0  0  0
  194.3600  169.6740  139.4020 O   0  0  0  0  0  1  0  0  0  0  0  0
  192.4160  171.8680  139.8160 C   0  0  1  0  0  3  0  0  0  0  0  0
  197.6610  174.6090  143.0910 O   0  0  0  0  0  1  0  0  0  0  0  0
  189.5590  174.5110  140.2900 C   0  0  0  0  0  2  0  0  0  0  0  0
  189.2800  173.9830  141.6820 C   0  0  1  0  0  3  0  0  0  0  0  0
  190.4820  173.5520  139.5620 C   0  0  2  0  0  3  0  0  0  0  0  0
  190.3820  171.2120  138.5100 N   0  0  0  0  0  0  0  0  0  0  0  0
  196.0200  172.9090  143.1130 C   0  0  0  0  0  2  0  0  0  0  0  0
  192.7390  173.3510  142.6910 C   0  0  0  0  0  2  0  0  0  0  0  0
  191.4140  170.8270  139.4210 C   0  0  0  0  0  0  0  0  0  0  0  0
  191.3960  173.0210  141.9870 C   0  0  2  0  0  0  0  0  0  0  0  0
  195.7990  170.4830  141.7560 O   0  0  0  0  0  0  0  0  0  0  0  0
  189.7250  172.4500  138.8380 C   0  0  0  0  0  0  0  0  0  0  0  0
  194.4810  171.0010  139.8220 C   0  0  2  0  0  3  0  0  0  0  0  0
  188.5380  172.6530  138.4590 O   0  0  0  0  0  0  0  0  0  0  0  0
  194.0480  175.1190  144.0720 C   0  0  2  0  0  3  0  0  0  0  0  0
  192.9370  174.8420  143.0420 C   0  0  1  0  0  3  0  0  0  0  0  0
  195.7930  171.1940  140.5490 C   0  0  0  0  0  2  0  0  0  0  0  0
  197.0680  170.7350  142.2930 C   0  0  0  0  0  2  0  0  0  0  0  0
  193.0790  175.7080  141.7980 C   0  0  0  0  0  1  0  0  0  0  0  0
  191.6690  173.0760  140.4450 C   0  0  1  0  0  3  0  0  0  0  0  0
  191.3370  169.7350  140.0410 O   0  0  0  0  0  0  0  0  0  0  0  0
  196.4800  174.2260  143.7150 C   0  0  2  0  0  3  0  0  0  0  0  0
  190.4750  174.0130  142.4210 O   0  0  0  0  0  0  0  0  0  0  0  0
  195.4590  175.3280  143.4760 C   0  0  0  0  0  2  0  0  0  0  0  0
  197.0340  171.7960  143.4010 C   0  0  2  0  0  3  0  0  0  0  0  0
  191.6740  171.3020  135.2050 C   0  0  0  0  0  2  0  0  0  0  0  0
  192.4780  170.7520  136.3720 C   0  0  2  0  0  3  0  0  0  0  0  0
  189.8260  170.2440  137.5370 C   0  0  1  0  0  3  0  0  0  0  0  0
  189.3950  170.8560  136.1870 C   0  0  0  0  0  2  0  0  0  0  0  0
  190.7470  169.0330  137.2930 C   0  0  0  0  0  3  0  0  0  0  0  0
  190.3640  171.9110  135.6790 C   0  0  0  0  0  2  0  0  0  0  0  0
  193.9560  170.8700  136.0610 C   0  0  0  0  0  1  0  0  0  0  0  0
  192.1170  169.2930  136.6360 C   0  0  0  0  0  3  0  0  0  0  0  0
  190.8540  171.6240  142.4020 C   0  0  0  0  0  2  0  0  0  0  0  0
  191.3900  171.0690  143.7220 C   0  0  0  0  0  1  0  0  0  0  0  0
  196.8080  171.1720  144.7440 C   0  0  0  0  0  3  0  0  0  0  0  0
  197.0280  169.9170  144.9150 N   0  0  0  0  0  0  0  0  0  0  0  0
  196.7490  169.1670  146.4330 S   0  0  0  0  0  0  0  0  0  0  0  0
  196.5350  170.2180  147.4880 O   0  0  0  0  0  0  0  0  0  0  0  0
  197.9380  168.3260  146.7980 O   0  0  0  0  0  0  0  0  0  0  0  0
  195.3000  168.2100  146.3140 N   0  0  0  0  0  2  0  0  0  0  0  0
  194.2250  169.0210  145.7560 C   0  0  0  0  0  2  0  0  0  0  0  0
  193.5370  168.2680  144.6270 C   0  0  0  0  0  2  0  0  0  0  0  0
  194.1640  168.5550  143.4160 O   0  0  0  0  0  1  0  0  0  0  0  0
  188.2810  174.9110  142.3530 C   0  0  0  0  0  2  0  0  0  0  0  0
  188.5390  176.2450  142.0180 O   0  0  0  0  0  0  0  0  0  0  0  0
  187.2970  176.8070  141.6990 C   0  0  2  0  0  3  0  0  0  0  0  0
  187.0250  176.5890  140.2210 C   0  0  0  0  0  1  0  0  0  0  0  0
  187.2950  178.2970  142.0270 C   0  0  0  0  0  2  0  0  0  0  0  0
  186.7870  178.5130  143.3790 N   0  0  0  0  0  2  0  0  0  0  0  0
  185.4910  178.1220  143.3820 O   0  0  0  0  0  0  0  0  0  0  0  0
  185.2140  177.8240  144.7220 C   0  0  0  0  0  2  0  0  0  0  0  0
  186.1140  178.6350  145.6460 C   0  0  0  0  0  2  0  0  0  0  0  0
  185.9040  176.6500  146.9880 O   0  0  0  0  0  0  0  0  0  0  0  0
  185.8840  177.5970  148.0340 C   0  0  0  0  0  2  0  0  0  0  0  0
  186.6780  177.8060  146.7980 C   0  0  2  0  0  0  0  0  0  0  0  0
  188.1580  177.4570  146.8340 C   0  0  0  0  0  2  0  0  0  0  0  0
  189.9740  176.2560  145.7040 C   0  0  0  0  0  2  0  0  0  0  0  0
  189.6000  177.3690  144.9280 O   0  0  0  0  0  0  0  0  0  0  0  0
  188.5650  176.6780  145.5930 C   0  0  2  0  0  3  0  0  0  0  0  0
  4 12  1  1  0  0  0
  4 23  1  0  0  0  0
  4  2  1  0  0  0  0
  5 25  1  0  0  0  0
  6  7  1  0  0  0  0
  7 48  1  1  0  0  0
  7 26  1  0  0  0  0
  8  6  1  1  0  0  0
  8 23  1  0  0  0  0
  9 15  1  0  0  0  0
  9 12  1  0  0  0  0
 10 28  1  0  0  0  0
 10 25  1  0  0  0  0
 11 19  1  0  0  0  0
 12 24  2  0  0  0  0
 13 37  1  1  0  0  0
 13 26  1  0  0  0  0
 13 11  1  0  0  0  0
 14 21  1  0  0  0  0
 15  8  1  0  0  0  0
 16  3  1  1  0  0  0
 16 20  1  0  0  0  0
 16  2  1  0  0  0  0
 17 15  2  0  0  0  0
 18  1  1  1  0  0  0
 19 22  1  6  0  0  0
 19 18  1  0  0  0  0
 20 14  1  0  0  0  0
 21 28  1  0  0  0  0
 23 13  1  0  0  0  0
 27 25  1  0  0  0  0
 27 18  1  0  0  0  0
 28 39  1  0  0  0  0
 29 34  1  0  0  0  0
 29 30  1  0  0  0  0
 30 36  1  0  0  0  0
 31  9  1  0  0  0  0
 32 31  1  0  0  0  0
 33 31  1  0  0  0  0
 34 32  1  0  0  0  0
 35 30  1  0  0  0  0
 36 33  2  0  0  0  0
 37 38  1  0  0  0  0
 39 40  2  0  0  0  0
 40 41  1  0  0  0  0
 41 43  2  0  0  0  0
 41 42  2  0  0  0  0
 44 41  1  0  0  0  0
 45 44  1  0  0  0  0
 46 45  1  0  0  0  0
 47 46  1  0  0  0  0
 49 48  1  0  0  0  0
 50 49  1  0  0  0  0
 50 52  1  0  0  0  0
 51 50  1  0  0  0  0
 52 53  1  0  0  0  0
 53 54  1  0  0  0  0
 54 55  1  0  0  0  0
 55 56  1  0  0  0  0
 56 59  1  0  0  0  0
 57 58  1  0  0  0  0
 59 60  1  0  0  0  0
 59 57  1  0  0  0  0
 59 58  1  0  0  0  0
 62 63  1  0  0  0  0
 62 61  1  0  0  0  0
 63 61  1  0  0  0  0
 63 60  1  0  0  0  0
M  END
>  <MODEL>
4

>  <REMARK>
 VINA RESULT:      -5.8      2.815      9.389
  Name = 
  18 active torsions:
  status: ('A' for Active; 'I' for Inactive)
    1  A    between atoms: C_3  and  C_20
    2  A    between atoms: S_4  and  N_14
    3  A    between atoms: S_4  and  N_55
    4  A    between atoms: C_12  and  C_48
    5  A    between atoms: N_14  and  C_20
    6  A    between atoms: N_15  and  C_22
    7  A    between atoms: C_17  and  C_44
    8  A    between atoms: C_17  and  N_61
    9  A    between atoms: C_23  and  C_59
   10  A    between atoms: C_24  and  C_27
   11  A    between atoms: O_35  and  C_44
   12  A    between atoms: O_35  and  C_48
   13  A    between atoms: O_39  and  C_56
   14  A    between atoms: O_39  and  N_61
   15  A    between atoms: C_49  and  C_56
   16  A    between atoms: C_49  and  C_58
   17  A    between atoms: C_58  and  C_62
   18  A    between atoms: C_62  and  C_63
                            x       y       z     vdW  Elec       q    Type
                         _______ _______ _______ _____ _____    ______ ____

>  <TORSDO>
F 18

$$$$
=
 OpenBabel11042419383D

 63 68  0  0  1  0  0  0  0  0999 V2000
  194.4660  174.4900  146.2170 C   0  0  0  0  0  1  0  0  0  0  0  0
  193.1670  172.5800  141.2030 O   0  0  0  0  0  0  0  0  0  0  0  0
  193.9000  171.2250  139.5050 O   0  0  0  0  0  1  0  0  0  0  0  0
  192.0650  173.2490  140.6450 C   0  0  1  0  0  3  0  0  0  0  0  0
  197.7760  175.3780  143.5780 O   0  0  0  0  0  1  0  0  0  0  0  0
  189.3420  175.6830  142.0720 C   0  0  0  0  0  2  0  0  0  0  0  0
  189.2720  174.8790  143.3530 C   0  0  1  0  0  3  0  0  0  0  0  0
  190.1330  174.9100  141.0330 C   0  0  2  0  0  3  0  0  0  0  0  0
  189.8500  172.8300  139.5550 N   0  0  0  0  0  0  0  0  0  0  0  0
  196.1400  173.6760  143.5020 C   0  0  0  0  0  2  0  0  0  0  0  0
  192.8370  174.1270  143.6790 C   0  0  0  0  0  2  0  0  0  0  0  0
  191.0040  172.2900  140.2030 C   0  0  0  0  0  0  0  0  0  0  0  0
  191.3990  173.9180  143.1340 C   0  0  2  0  0  0  0  0  0  0  0  0
  195.6890  171.5710  141.7300 O   0  0  0  0  0  0  0  0  0  0  0  0
  189.2640  173.9620  140.2230 C   0  0  0  0  0  0  0  0  0  0  0  0
  194.0980  172.4410  140.1620 C   0  0  2  0  0  3  0  0  0  0  0  0
  188.0350  174.2120  140.0770 O   0  0  0  0  0  0  0  0  0  0  0  0
  194.3600  175.6060  145.1750 C   0  0  2  0  0  3  0  0  0  0  0  0
  193.1020  175.5200  144.2910 C   0  0  1  0  0  3  0  0  0  0  0  0
  195.5070  172.5110  140.7070 C   0  0  0  0  0  2  0  0  0  0  0  0
  197.0270  171.7350  142.1090 C   0  0  0  0  0  2  0  0  0  0  0  0
  193.0620  176.6220  143.2420 C   0  0  0  0  0  1  0  0  0  0  0  0
  191.4350  174.2890  141.6110 C   0  0  1  0  0  3  0  0  0  0  0  0
  191.0100  171.0930  140.5930 O   0  0  0  0  0  0  0  0  0  0  0  0
  196.7000  174.8530  144.2810 C   0  0  2  0  0  3  0  0  0  0  0  0
  190.5660  174.7820  143.8930 O   0  0  0  0  0  0  0  0  0  0  0  0
  195.6660  175.9600  144.4290 C   0  0  0  0  0  2  0  0  0  0  0  0
  197.1740  172.5490  143.4010 C   0  0  2  0  0  3  0  0  0  0  0  0
  190.6160  173.6200  136.1810 C   0  0  0  0  0  2  0  0  0  0  0  0
  191.5860  172.8630  137.0740 C   0  0  2  0  0  3  0  0  0  0  0  0
  189.1420  172.0670  138.5010 C   0  0  1  0  0  3  0  0  0  0  0  0
  188.5130  172.9300  137.3880 C   0  0  0  0  0  2  0  0  0  0  0  0
  190.0040  170.9530  137.8770 C   0  0  0  0  0  3  0  0  0  0  0  0
  189.4010  174.0890  136.9640 C   0  0  0  0  0  2  0  0  0  0  0  0
  192.9990  173.0760  136.5720 C   0  0  0  0  0  1  0  0  0  0  0  0
  191.2590  171.3730  137.0860 C   0  0  0  0  0  3  0  0  0  0  0  0
  190.9120  172.4550  143.3330 C   0  0  0  0  0  2  0  0  0  0  0  0
  190.4470  172.0970  144.7450 C   0  0  0  0  0  1  0  0  0  0  0  0
  197.1480  171.6610  144.6080 C   0  0  0  0  0  3  0  0  0  0  0  0
  196.6440  170.4810  144.5280 N   0  0  0  0  0  0  0  0  0  0  0  0
  196.5720  169.4530  145.8990 S   0  0  0  0  0  0  0  0  0  0  0  0
  196.1060  170.2360  147.0980 O   0  0  0  0  0  0  0  0  0  0  0  0
  197.9360  168.8880  146.1700 O   0  0  0  0  0  0  0  0  0  0  0  0
  195.4090  168.1980  145.5820 N   0  0  0  0  0  2  0  0  0  0  0  0
  194.6600  168.5200  144.3740 C   0  0  0  0  0  2  0  0  0  0  0  0
  193.3410  169.1840  144.7410 C   0  0  0  0  0  2  0  0  0  0  0  0
  193.4270  170.5590  144.5270 O   0  0  0  0  0  1  0  0  0  0  0  0
  188.3970  175.6310  144.3420 C   0  0  0  0  0  2  0  0  0  0  0  0
  188.7970  175.3710  145.6570 O   0  0  0  0  0  0  0  0  0  0  0  0
  189.1880  176.6070  146.1890 C   0  0  2  0  0  3  0  0  0  0  0  0
  190.6120  176.4890  146.7030 C   0  0  0  0  0  1  0  0  0  0  0  0
  188.2460  177.0140  147.3180 C   0  0  0  0  0  2  0  0  0  0  0  0
  187.1060  177.7500  146.7790 N   0  0  0  0  0  2  0  0  0  0  0  0
  185.9900  177.1930  147.3050 O   0  0  0  0  0  0  0  0  0  0  0  0
  184.9370  177.9680  146.8050 C   0  0  0  0  0  2  0  0  0  0  0  0
  185.4640  179.0320  145.8510 C   0  0  0  0  0  2  0  0  0  0  0  0
  184.5670  179.8660  143.7810 O   0  0  0  0  0  0  0  0  0  0  0  0
  183.7200  178.7470  143.9250 C   0  0  0  0  0  2  0  0  0  0  0  0
  185.1290  178.7340  144.3910 C   0  0  2  0  0  0  0  0  0  0  0  0
  186.1760  178.1130  143.4790 C   0  0  0  0  0  2  0  0  0  0  0  0
  185.9560  177.5670  141.0980 C   0  0  0  0  0  2  0  0  0  0  0  0
  187.1770  178.2350  141.3100 O   0  0  0  0  0  0  0  0  0  0  0  0
  186.0700  178.6710  142.0690 C   0  0  2  0  0  3  0  0  0  0  0  0
  4 12  1  1  0  0  0
  4  2  1  0  0  0  0
  4 23  1  0  0  0  0
  5 25  1  0  0  0  0
  6  7  1  0  0  0  0
  7 26  1  0  0  0  0
  7 48  1  1  0  0  0
  8 23  1  0  0  0  0
  8  6  1  1  0  0  0
  9 12  1  0  0  0  0
  9 15  1  0  0  0  0
 10 25  1  0  0  0  0
 11 19  1  0  0  0  0
 12 24  2  0  0  0  0
 13 37  1  1  0  0  0
 13 11  1  0  0  0  0
 13 26  1  0  0  0  0
 14 21  1  0  0  0  0
 15  8  1  0  0  0  0
 16  3  1  1  0  0  0
 16 20  1  0  0  0  0
 16  2  1  0  0  0  0
 17 15  2  0  0  0  0
 18  1  1  6  0  0  0
 19 22  1  6  0  0  0
 19 18  1  0  0  0  0
 20 14  1  0  0  0  0
 21 28  1  0  0  0  0
 23 13  1  0  0  0  0
 25 27  1  0  0  0  0
 27 18  1  0  0  0  0
 28 10  1  0  0  0  0
 28 39  1  0  0  0  0
 29 34  1  0  0  0  0
 29 30  1  0  0  0  0
 30 36  1  0  0  0  0
 31  9  1  0  0  0  0
 32 31  1  0  0  0  0
 33 31  1  0  0  0  0
 34 32  1  0  0  0  0
 35 30  1  0  0  0  0
 36 33  2  0  0  0  0
 37 38  1  0  0  0  0
 40 39  2  0  0  0  0
 40 41  1  0  0  0  0
 41 43  2  0  0  0  0
 41 42  2  0  0  0  0
 44 41  1  0  0  0  0
 45 46  1  0  0  0  0
 45 44  1  0  0  0  0
 47 46  1  0  0  0  0
 48 49  1  0  0  0  0
 49 50  1  0  0  0  0
 50 51  1  0  0  0  0
 50 52  1  0  0  0  0
 53 54  1  0  0  0  0
 53 52  1  0  0  0  0
 55 54  1  0  0  0  0
 56 55  1  0  0  0  0
 57 58  1  0  0  0  0
 57 59  1  0  0  0  0
 58 59  1  0  0  0  0
 59 56  1  0  0  0  0
 60 59  1  0  0  0  0
 61 62  1  0  0  0  0
 61 63  1  0  0  0  0
 62 63  1  0  0  0  0
 63 60  1  0  0  0  0
M  END
>  <MODEL>
5

>  <REMARK>
 VINA RESULT:      -5.6      2.710      9.371
  Name = 
  18 active torsions:
  status: ('A' for Active; 'I' for Inactive)
    1  A    between atoms: C_3  and  C_20
    2  A    between atoms: S_4  and  N_14
    3  A    between atoms: S_4  and  N_55
    4  A    between atoms: C_12  and  C_48
    5  A    between atoms: N_14  and  C_20
    6  A    between atoms: N_15  and  C_22
    7  A    between atoms: C_17  and  C_44
    8  A    between atoms: C_17  and  N_61
    9  A    between atoms: C_23  and  C_59
   10  A    between atoms: C_24  and  C_27
   11  A    between atoms: O_35  and  C_44
   12  A    between atoms: O_35  and  C_48
   13  A    between atoms: O_39  and  C_56
   14  A    between atoms: O_39  and  N_61
   15  A    between atoms: C_49  and  C_56
   16  A    between atoms: C_49  and  C_58
   17  A    between atoms: C_58  and  C_62
   18  A    between atoms: C_62  and  C_63
                            x       y       z     vdW  Elec       q    Type
                         _______ _______ _______ _____ _____    ______ ____

>  <TORSDO>
F 18

$$$$
=
 OpenBabel11042419383D

 63 68  0  0  1  0  0  0  0  0999 V2000
  192.0540  173.7730  140.6210 C   0  0  0  0  0  1  0  0  0  0  0  0
  189.4850  176.0710  144.9330 O   0  0  0  0  0  0  0  0  0  0  0  0
  189.6860  176.5040  147.1760 O   0  0  0  0  0  1  0  0  0  0  0  0
  188.1500  176.3980  144.6480 C   0  0  1  0  0  3  0  0  0  0  0  0
  191.8410  170.8010  143.7570 O   0  0  0  0  0  1  0  0  0  0  0  0
  186.0440  176.6400  141.3490 C   0  0  0  0  0  2  0  0  0  0  0  0
  187.2280  177.2420  140.6200 C   0  0  1  0  0  3  0  0  0  0  0  0
  186.3280  176.6200  142.8400 C   0  0  2  0  0  3  0  0  0  0  0  0
  186.5090  178.2850  144.7860 N   0  0  0  0  0  0  0  0  0  0  0  0
  191.8690  173.1610  143.8510 C   0  0  0  0  0  2  0  0  0  0  0  0
  189.8570  175.2110  142.1490 C   0  0  0  0  0  2  0  0  0  0  0  0
  187.8520  177.8300  144.9660 C   0  0  0  0  0  0  0  0  0  0  0  0
  188.8510  176.3900  142.0810 C   0  0  2  0  0  0  0  0  0  0  0  0
  191.7990  174.9650  145.9750 O   0  0  0  0  0  0  0  0  0  0  0  0
  185.9140  177.9100  143.5300 C   0  0  0  0  0  0  0  0  0  0  0  0
  189.4760  175.5090  146.2190 C   0  0  2  0  0  3  0  0  0  0  0  0
  184.9930  178.6170  143.0330 O   0  0  0  0  0  0  0  0  0  0  0  0
  190.7320  173.0780  140.9530 C   0  0  2  0  0  3  0  0  0  0  0  0
  189.5550  174.0450  141.1830 C   0  0  1  0  0  3  0  0  0  0  0  0
  190.5470  174.4480  146.3340 C   0  0  0  0  0  2  0  0  0  0  0  0
  192.6770  173.8900  146.1550 C   0  0  0  0  0  2  0  0  0  0  0  0
  188.2740  173.3120  141.5540 C   0  0  0  0  0  1  0  0  0  0  0  0
  187.7590  176.1160  143.1710 C   0  0  1  0  0  3  0  0  0  0  0  0
  188.7810  178.6580  145.1530 O   0  0  0  0  0  0  0  0  0  0  0  0
  191.9570  171.9330  142.9610 C   0  0  2  0  0  3  0  0  0  0  0  0
  188.3270  176.3790  140.7600 O   0  0  0  0  0  0  0  0  0  0  0  0
  190.8190  171.9000  141.9510 C   0  0  0  0  0  2  0  0  0  0  0  0
  193.0450  173.2080  144.8320 C   0  0  2  0  0  3  0  0  0  0  0  0
  184.4520  177.2110  147.4710 C   0  0  0  0  0  2  0  0  0  0  0  0
  185.9600  177.0230  147.4840 C   0  0  2  0  0  3  0  0  0  0  0  0
  185.9350  179.3320  145.6620 C   0  0  1  0  0  3  0  0  0  0  0  0
  184.4200  179.2010  145.9230 C   0  0  0  0  0  2  0  0  0  0  0  0
  186.6860  179.4800  147.0000 C   0  0  0  0  0  3  0  0  0  0  0  0
  183.9780  177.7620  146.1350 C   0  0  0  0  0  2  0  0  0  0  0  0
  186.3120  175.8570  148.3840 C   0  0  0  0  0  1  0  0  0  0  0  0
  186.6580  178.2880  147.9770 C   0  0  0  0  0  3  0  0  0  0  0  0
  189.5470  177.7590  142.3280 C   0  0  0  0  0  2  0  0  0  0  0  0
  191.0120  177.6910  142.7590 C   0  0  0  0  0  1  0  0  0  0  0  0
  194.2580  173.8370  144.2150 C   0  0  0  0  0  3  0  0  0  0  0  0
  194.3030  175.1100  144.0410 N   0  0  0  0  0  0  0  0  0  0  0  0
  195.6640  175.8570  143.3100 S   0  0  0  0  0  0  0  0  0  0  0  0
  196.8160  174.8890  143.2720 O   0  0  0  0  0  0  0  0  0  0  0  0
  196.0540  177.0690  144.1060 O   0  0  0  0  0  0  0  0  0  0  0  0
  195.2470  176.2730  141.6720 N   0  0  0  0  0  2  0  0  0  0  0  0
  196.3930  176.0400  140.8030 C   0  0  0  0  0  2  0  0  0  0  0  0
  196.0480  174.9940  139.7530 C   0  0  0  0  0  2  0  0  0  0  0  0
  196.6950  175.2940  138.5560 O   0  0  0  0  0  1  0  0  0  0  0  0
  186.8800  177.3370  139.1430 C   0  0  0  0  0  2  0  0  0  0  0  0
  186.7090  176.0640  138.5900 O   0  0  0  0  0  0  0  0  0  0  0  0
  186.9540  176.2060  137.2190 C   0  0  2  0  0  3  0  0  0  0  0  0
  185.6430  176.0470  136.4680 C   0  0  0  0  0  1  0  0  0  0  0  0
  187.9640  175.1600  136.7550 C   0  0  0  0  0  2  0  0  0  0  0  0
  188.1740  174.1660  137.8030 N   0  0  0  0  0  2  0  0  0  0  0  0
  189.4620  173.7590  137.7100 O   0  0  0  0  0  0  0  0  0  0  0  0
  189.3920  172.4860  137.1320 C   0  0  0  0  0  2  0  0  0  0  0  0
  189.4840  171.4080  138.2040 C   0  0  0  0  0  2  0  0  0  0  0  0
  190.6990  170.1090  136.5850 O   0  0  0  0  0  0  0  0  0  0  0  0
  190.3330  169.0540  137.4470 C   0  0  0  0  0  2  0  0  0  0  0  0
  190.6210  170.4200  137.9510 C   0  0  2  0  0  0  0  0  0  0  0  0
  192.0100  170.6960  138.5060 C   0  0  0  0  0  2  0  0  0  0  0  0
  194.1920  170.3790  137.4310 C   0  0  0  0  0  2  0  0  0  0  0  0
  194.1350  171.6680  137.9950 O   0  0  0  0  0  0  0  0  0  0  0  0
  192.9490  171.1740  137.4100 C   0  0  2  0  0  3  0  0  0  0  0  0
  2 16  1  0  0  0  0
  4  2  1  6  0  0  0
  4 12  1  0  0  0  0
  7 48  1  6  0  0  0
  7 26  1  0  0  0  0
  7  6  1  0  0  0  0
  8  6  1  6  0  0  0
  8 23  1  0  0  0  0
  8 15  1  0  0  0  0
  9 12  1  0  0  0  0
  9 31  1  0  0  0  0
 10 28  1  0  0  0  0
 12 24  2  0  0  0  0
 13 11  1  0  0  0  0
 13 37  1  1  0  0  0
 13 23  1  0  0  0  0
 14 21  1  0  0  0  0
 14 20  1  0  0  0  0
 15  9  1  0  0  0  0
 16 20  1  0  0  0  0
 16  3  1  1  0  0  0
 17 15  2  0  0  0  0
 18  1  1  1  0  0  0
 18 19  1  0  0  0  0
 18 27  1  0  0  0  0
 19 22  1  1  0  0  0
 19 11  1  0  0  0  0
 23  4  1  0  0  0  0
 25  5  1  0  0  0  0
 25 10  1  0  0  0  0
 26 13  1  0  0  0  0
 27 25  1  0  0  0  0
 28 21  1  0  0  0  0
 29 30  1  0  0  0  0
 30 36  1  0  0  0  0
 30 35  1  0  0  0  0
 31 32  1  0  0  0  0
 31 33  1  0  0  0  0
 32 34  1  0  0  0  0
 33 36  2  0  0  0  0
 34 29  1  0  0  0  0
 37 38  1  0  0  0  0
 39 28  1  0  0  0  0
 40 39  2  0  0  0  0
 41 40  1  0  0  0  0
 41 43  2  0  0  0  0
 42 41  2  0  0  0  0
 44 41  1  0  0  0  0
 45 44  1  0  0  0  0
 46 45  1  0  0  0  0
 47 46  1  0  0  0  0
 49 48  1  0  0  0  0
 50 49  1  0  0  0  0
 51 50  1  0  0  0  0
 52 50  1  0  0  0  0
 52 53  1  0  0  0  0
 54 53  1  0  0  0  0
 55 54  1  0  0  0  0
 55 56  1  0  0  0  0
 57 58  1  0  0  0  0
 57 59  1  0  0  0  0
 58 59  1  0  0  0  0
 59 56  1  0  0  0  0
 59 60  1  0  0  0  0
 61 62  1  0  0  0  0
 63 61  1  0  0  0  0
 63 62  1  0  0  0  0
 63 60  1  0  0  0  0
M  END
>  <MODEL>
6

>  <REMARK>
 VINA RESULT:      -5.2      2.774      8.327
  Name = 
  18 active torsions:
  status: ('A' for Active; 'I' for Inactive)
    1  A    between atoms: C_3  and  C_20
    2  A    between atoms: S_4  and  N_14
    3  A    between atoms: S_4  and  N_55
    4  A    between atoms: C_12  and  C_48
    5  A    between atoms: N_14  and  C_20
    6  A    between atoms: N_15  and  C_22
    7  A    between atoms: C_17  and  C_44
    8  A    between atoms: C_17  and  N_61
    9  A    between atoms: C_23  and  C_59
   10  A    between atoms: C_24  and  C_27
   11  A    between atoms: O_35  and  C_44
   12  A    between atoms: O_35  and  C_48
   13  A    between atoms: O_39  and  C_56
   14  A    between atoms: O_39  and  N_61
   15  A    between atoms: C_49  and  C_56
   16  A    between atoms: C_49  and  C_58
   17  A    between atoms: C_58  and  C_62
   18  A    between atoms: C_62  and  C_63
                            x       y       z     vdW  Elec       q    Type
                         _______ _______ _______ _____ _____    ______ ____

>  <TORSDO>
F 18

$$$$
=
 OpenBabel11042419383D

 63 68  0  0  1  0  0  0  0  0999 V2000
  191.8950  173.6560  140.5930 C   0  0  0  0  0  1  0  0  0  0  0  0
  189.4360  176.0690  144.9050 O   0  0  0  0  0  0  0  0  0  0  0  0
  189.6780  176.5300  147.1390 O   0  0  0  0  0  1  0  0  0  0  0  0
  188.1030  176.4190  144.6340 C   0  0  1  0  0  3  0  0  0  0  0  0
  191.6660  170.7340  143.7740 O   0  0  0  0  0  1  0  0  0  0  0  0
  185.9570  176.6570  141.3610 C   0  0  0  0  0  2  0  0  0  0  0  0
  187.1420  177.2240  140.6070 C   0  0  1  0  0  3  0  0  0  0  0  0
  186.2610  176.6530  142.8480 C   0  0  2  0  0  3  0  0  0  0  0  0
  186.5040  178.3410  144.7670 N   0  0  0  0  0  0  0  0  0  0  0  0
  191.7440  173.0950  143.8330 C   0  0  0  0  0  2  0  0  0  0  0  0
  189.7510  175.1610  142.1300 C   0  0  0  0  0  2  0  0  0  0  0  0
  187.8400  177.8620  144.9350 C   0  0  0  0  0  0  0  0  0  0  0  0
  188.7680  176.3590  142.0580 C   0  0  2  0  0  0  0  0  0  0  0  0
  191.7400  174.9300  145.9310 O   0  0  0  0  0  0  0  0  0  0  0  0
  185.8840  177.9610  143.5250 C   0  0  0  0  0  0  0  0  0  0  0  0
  189.4340  175.5250  146.1990 C   0  0  2  0  0  3  0  0  0  0  0  0
  184.9700  178.6790  143.0310 O   0  0  0  0  0  0  0  0  0  0  0  0
  190.5640  172.9930  140.9530 C   0  0  2  0  0  3  0  0  0  0  0  0
  189.4110  173.9870  141.1840 C   0  0  1  0  0  3  0  0  0  0  0  0
  190.4840  174.4440  146.3150 C   0  0  0  0  0  2  0  0  0  0  0  0
  192.5990  173.8400  146.1150 C   0  0  0  0  0  2  0  0  0  0  0  0
  188.1200  173.2870  141.5840 C   0  0  0  0  0  1  0  0  0  0  0  0
  187.6860  176.1240  143.1670 C   0  0  1  0  0  3  0  0  0  0  0  0
  188.7880  178.6730  145.0970 O   0  0  0  0  0  0  0  0  0  0  0  0
  191.7940  171.8520  142.9600 C   0  0  2  0  0  3  0  0  0  0  0  0
  188.2250  176.3400  140.7450 O   0  0  0  0  0  0  0  0  0  0  0  0
  190.6410  171.8290  141.9660 C   0  0  0  0  0  2  0  0  0  0  0  0
  192.9350  173.1310  144.7960 C   0  0  2  0  0  3  0  0  0  0  0  0
  184.4480  177.3500  147.4850 C   0  0  0  0  0  2  0  0  0  0  0  0
  185.9520  177.1260  147.4850 C   0  0  2  0  0  3  0  0  0  0  0  0
  185.9640  179.4120  145.6360 C   0  0  1  0  0  3  0  0  0  0  0  0
  184.4490  179.3210  145.9130 C   0  0  0  0  0  2  0  0  0  0  0  0
  186.7320  179.5590  146.9640 C   0  0  0  0  0  3  0  0  0  0  0  0
  183.9750  177.8960  146.1470 C   0  0  0  0  0  2  0  0  0  0  0  0
  186.2850  175.9630  148.3970 C   0  0  0  0  0  1  0  0  0  0  0  0
  186.6840  178.3800  147.9560 C   0  0  0  0  0  3  0  0  0  0  0  0
  189.4950  177.7170  142.2750 C   0  0  0  0  0  2  0  0  0  0  0  0
  190.9420  177.6260  142.7570 C   0  0  0  0  0  1  0  0  0  0  0  0
  194.1510  173.7260  144.1540 C   0  0  0  0  0  3  0  0  0  0  0  0
  194.8740  173.0140  143.3650 N   0  0  0  0  0  0  0  0  0  0  0  0
  196.2900  173.6560  142.6390 S   0  0  0  0  0  0  0  0  0  0  0  0
  196.1950  175.1570  142.5800 O   0  0  0  0  0  0  0  0  0  0  0  0
  196.4270  173.1080  141.2480 O   0  0  0  0  0  0  0  0  0  0  0  0
  197.6550  173.2340  143.6320 N   0  0  0  0  0  2  0  0  0  0  0  0
  197.5340  171.8480  144.0640 C   0  0  0  0  0  2  0  0  0  0  0  0
  197.0950  171.7920  145.5200 C   0  0  0  0  0  2  0  0  0  0  0  0
  197.1600  173.0660  146.0820 O   0  0  0  0  0  1  0  0  0  0  0  0
  186.7750  177.3050  139.1340 C   0  0  0  0  0  2  0  0  0  0  0  0
  186.7300  176.0290  138.5630 O   0  0  0  0  0  0  0  0  0  0  0  0
  186.9750  176.2120  137.1960 C   0  0  2  0  0  3  0  0  0  0  0  0
  185.6680  176.0530  136.4390 C   0  0  0  0  0  1  0  0  0  0  0  0
  188.0020  175.1960  136.7060 C   0  0  0  0  0  2  0  0  0  0  0  0
  188.1920  174.1510  137.7080 N   0  0  0  0  0  2  0  0  0  0  0  0
  189.4760  173.7340  137.6070 O   0  0  0  0  0  0  0  0  0  0  0  0
  189.6060  173.3040  136.2810 C   0  0  0  0  0  2  0  0  0  0  0  0
  189.3590  171.8030  136.1810 C   0  0  0  0  0  2  0  0  0  0  0  0
  191.6120  171.5970  135.3630 O   0  0  0  0  0  0  0  0  0  0  0  0
  191.1370  170.3350  134.9490 C   0  0  0  0  0  2  0  0  0  0  0  0
  190.6520  170.9910  136.1890 C   0  0  2  0  0  0  0  0  0  0  0  0
  191.2840  170.5750  137.5080 C   0  0  0  0  0  2  0  0  0  0  0  0
  190.8300  169.1760  139.4720 C   0  0  0  0  0  2  0  0  0  0  0  0
  190.0800  168.7010  138.3790 O   0  0  0  0  0  0  0  0  0  0  0  0
  190.2270  170.0990  138.4930 C   0  0  2  0  0  3  0  0  0  0  0  0
  2 16  1  0  0  0  0
  4  2  1  6  0  0  0
  4 12  1  0  0  0  0
  7 48  1  6  0  0  0
  7 26  1  0  0  0  0
  7  6  1  0  0  0  0
  8  6  1  6  0  0  0
  8 23  1  0  0  0  0
  8 15  1  0  0  0  0
  9 12  1  0  0  0  0
  9 31  1  0  0  0  0
 10 28  1  0  0  0  0
 12 24  2  0  0  0  0
 13 11  1  0  0  0  0
 13 37  1  1  0  0  0
 13 23  1  0  0  0  0
 14 21  1  0  0  0  0
 14 20  1  0  0  0  0
 15  9  1  0  0  0  0
 16 20  1  0  0  0  0
 16  3  1  1  0  0  0
 17 15  2  0  0  0  0
 18  1  1  1  0  0  0
 18 19  1  0  0  0  0
 18 27  1  0  0  0  0
 19 22  1  1  0  0  0
 19 11  1  0  0  0  0
 23  4  1  0  0  0  0
 25  5  1  0  0  0  0
 25 10  1  0  0  0  0
 26 13  1  0  0  0  0
 27 25  1  0  0  0  0
 28 21  1  0  0  0  0
 29 30  1  0  0  0  0
 30 36  1  0  0  0  0
 30 35  1  0  0  0  0
 31 32  1  0  0  0  0
 31 33  1  0  0  0  0
 32 34  1  0  0  0  0
 33 36  2  0  0  0  0
 34 29  1  0  0  0  0
 37 38  1  0  0  0  0
 39 28  1  0  0  0  0
 40 39  2  0  0  0  0
 41 40  1  0  0  0  0
 41 44  1  0  0  0  0
 42 41  2  0  0  0  0
 43 41  2  0  0  0  0
 44 45  1  0  0  0  0
 45 46  1  0  0  0  0
 46 47  1  0  0  0  0
 49 48  1  0  0  0  0
 50 49  1  0  0  0  0
 51 50  1  0  0  0  0
 52 50  1  0  0  0  0
 52 53  1  0  0  0  0
 54 53  1  0  0  0  0
 55 54  1  0  0  0  0
 56 59  1  0  0  0  0
 56 55  1  0  0  0  0
 57 59  1  0  0  0  0
 58 57  1  0  0  0  0
 58 59  1  0  0  0  0
 59 60  1  0  0  0  0
 60 63  1  0  0  0  0
 62 63  1  0  0  0  0
 62 61  1  0  0  0  0
 63 61  1  0  0  0  0
M  END
>  <MODEL>
7

>  <REMARK>
 VINA RESULT:      -5.0      2.705      8.627
  Name = 
  18 active torsions:
  status: ('A' for Active; 'I' for Inactive)
    1  A    between atoms: C_3  and  C_20
    2  A    between atoms: S_4  and  N_14
    3  A    between atoms: S_4  and  N_55
    4  A    between atoms: C_12  and  C_48
    5  A    between atoms: N_14  and  C_20
    6  A    between atoms: N_15  and  C_22
    7  A    between atoms: C_17  and  C_44
    8  A    between atoms: C_17  and  N_61
    9  A    between atoms: C_23  and  C_59
   10  A    between atoms: C_24  and  C_27
   11  A    between atoms: O_35  and  C_44
   12  A    between atoms: O_35  and  C_48
   13  A    between atoms: O_39  and  C_56
   14  A    between atoms: O_39  and  N_61
   15  A    between atoms: C_49  and  C_56
   16  A    between atoms: C_49  and  C_58
   17  A    between atoms: C_58  and  C_62
   18  A    between atoms: C_62  and  C_63
                            x       y       z     vdW  Elec       q    Type
                         _______ _______ _______ _____ _____    ______ ____

>  <TORSDO>
F 18

$$$$
=
 OpenBabel11042419383D

 63 68  0  0  1  0  0  0  0  0999 V2000
  193.8820  172.2880  138.5750 C   0  0  0  0  0  1  0  0  0  0  0  0
  190.4180  173.9700  142.5300 O   0  0  0  0  0  0  0  0  0  0  0  0
  188.2000  174.0920  143.1010 O   0  0  0  0  0  1  0  0  0  0  0  0
  191.0570  174.7520  143.5040 C   0  0  1  0  0  3  0  0  0  0  0  0
  190.9830  174.9230  136.7430 O   0  0  0  0  0  1  0  0  0  0  0  0
  194.8080  175.4700  144.3960 C   0  0  0  0  0  2  0  0  0  0  0  0
  195.1680  174.0270  144.1110 C   0  0  1  0  0  3  0  0  0  0  0  0
  193.2980  175.6140  144.4410 C   0  0  2  0  0  3  0  0  0  0  0  0
  191.3500  174.9650  145.9820 N   0  0  0  0  0  0  0  0  0  0  0  0
  190.8440  173.5510  138.6610 C   0  0  0  0  0  2  0  0  0  0  0  0
  193.0020  173.5230  141.2070 C   0  0  0  0  0  2  0  0  0  0  0  0
  190.8100  174.2260  144.8840 C   0  0  0  0  0  0  0  0  0  0  0  0
  193.3280  173.6040  142.7220 C   0  0  2  0  0  0  0  0  0  0  0  0
  188.7920  173.0590  140.4830 O   0  0  0  0  0  0  0  0  0  0  0  0
  192.7280  175.3480  145.8260 C   0  0  0  0  0  0  0  0  0  0  0  0
  189.1950  174.6080  142.2680 C   0  0  2  0  0  3  0  0  0  0  0  0
  193.4490  175.5380  146.8450 O   0  0  0  0  0  0  0  0  0  0  0  0
  193.9440  173.8000  138.8030 C   0  0  2  0  0  3  0  0  0  0  0  0
  194.0350  174.2070  140.2850 C   0  0  1  0  0  3  0  0  0  0  0  0
  188.8050  174.4190  140.8200 C   0  0  0  0  0  2  0  0  0  0  0  0
  188.3930  173.0430  139.1410 C   0  0  0  0  0  2  0  0  0  0  0  0
  194.0480  175.7190  140.4650 C   0  0  0  0  0  1  0  0  0  0  0  0
  192.5890  174.8710  143.2760 C   0  0  1  0  0  3  0  0  0  0  0  0
  190.3580  173.0660  145.0620 O   0  0  0  0  0  0  0  0  0  0  0  0
  191.6950  173.9860  137.4800 C   0  0  2  0  0  3  0  0  0  0  0  0
  194.7420  173.7060  142.8110 O   0  0  0  0  0  0  0  0  0  0  0  0
  192.9820  174.6520  137.9440 C   0  0  0  0  0  2  0  0  0  0  0  0
  189.5730  172.8400  138.1830 C   0  0  2  0  0  3  0  0  0  0  0  0
  189.3750  177.8320  146.6700 C   0  0  0  0  0  2  0  0  0  0  0  0
  188.9420  176.7740  145.6690 C   0  0  2  0  0  3  0  0  0  0  0  0
  190.6500  175.0100  147.2870 C   0  0  1  0  0  3  0  0  0  0  0  0
  190.8290  176.3240  148.0740 C   0  0  0  0  0  2  0  0  0  0  0  0
  189.1520  174.6610  147.1820 C   0  0  0  0  0  3  0  0  0  0  0  0
  190.7780  177.5580  147.1860 C   0  0  0  0  0  2  0  0  0  0  0  0
  188.0020  177.3970  144.6570 C   0  0  0  0  0  1  0  0  0  0  0  0
  188.2470  175.6130  146.3760 C   0  0  0  0  0  3  0  0  0  0  0  0
  192.8730  172.3250  143.4810 C   0  0  0  0  0  2  0  0  0  0  0  0
  193.6220  171.0400  143.1260 C   0  0  0  0  0  1  0  0  0  0  0  0
  189.8160  171.3840  137.9210 C   0  0  0  0  0  3  0  0  0  0  0  0
  190.8220  170.7940  138.4620 N   0  0  0  0  0  0  0  0  0  0  0  0
  191.1450  169.1360  138.1570 S   0  0  0  0  0  0  0  0  0  0  0  0
  190.0850  168.2840  138.8020 O   0  0  0  0  0  0  0  0  0  0  0  0
  192.4890  168.7790  138.7240 O   0  0  0  0  0  0  0  0  0  0  0  0
  191.0840  168.8730  136.4380 N   0  0  0  0  0  2  0  0  0  0  0  0
  192.1850  169.5810  135.7970 C   0  0  0  0  0  2  0  0  0  0  0  0
  193.1920  168.5840  135.2420 C   0  0  0  0  0  2  0  0  0  0  0  0
  194.2590  169.2650  134.6580 O   0  0  0  0  0  1  0  0  0  0  0  0
  196.6810  173.8930  144.1650 C   0  0  0  0  0  2  0  0  0  0  0  0
  197.0640  172.9850  145.1580 O   0  0  0  0  0  0  0  0  0  0  0  0
  196.5330  171.7480  144.7720 C   0  0  2  0  0  3  0  0  0  0  0  0
  195.7440  171.1700  145.9340 C   0  0  0  0  0  1  0  0  0  0  0  0
  197.6560  170.7990  144.3650 C   0  0  0  0  0  2  0  0  0  0  0  0
  197.3500  170.1830  143.0770 N   0  0  0  0  0  2  0  0  0  0  0  0
  196.9160  171.1710  142.2590 O   0  0  0  0  0  0  0  0  0  0  0  0
  196.6070  170.5250  141.0560 C   0  0  0  0  0  2  0  0  0  0  0  0
  197.8730  170.2730  140.2460 C   0  0  0  0  0  2  0  0  0  0  0  0
  196.2800  169.2870  138.7370 O   0  0  0  0  0  0  0  0  0  0  0  0
  197.3370  168.3770  138.5270 C   0  0  0  0  0  2  0  0  0  0  0  0
  197.5790  169.8120  138.8200 C   0  0  2  0  0  0  0  0  0  0  0  0
  197.8440  170.7430  137.6470 C   0  0  0  0  0  2  0  0  0  0  0  0
  197.4650  173.0130  136.7970 C   0  0  0  0  0  2  0  0  0  0  0  0
  197.7390  173.0730  138.1770 O   0  0  0  0  0  0  0  0  0  0  0  0
  196.9660  171.9820  137.7260 C   0  0  2  0  0  3  0  0  0  0  0  0
  4  2  1  6  0  0  0
  4 12  1  0  0  0  0
  5 25  1  0  0  0  0
  7 48  1  6  0  0  0
  7  6  1  0  0  0  0
  8  6  1  1  0  0  0
  8 15  1  0  0  0  0
  9 31  1  0  0  0  0
 11 13  1  0  0  0  0
 12 24  2  0  0  0  0
 12  9  1  0  0  0  0
 13 26  1  0  0  0  0
 13 23  1  0  0  0  0
 13 37  1  1  0  0  0
 14 20  1  0  0  0  0
 15  9  1  0  0  0  0
 15 17  2  0  0  0  0
 16  2  1  0  0  0  0
 16  3  1  1  0  0  0
 18  1  1  1  0  0  0
 18 19  1  0  0  0  0
 19 22  1  6  0  0  0
 19 11  1  0  0  0  0
 20 16  1  0  0  0  0
 21 14  1  0  0  0  0
 23  4  1  0  0  0  0
 23  8  1  0  0  0  0
 25 27  1  0  0  0  0
 25 10  1  0  0  0  0
 26  7  1  0  0  0  0
 27 18  1  0  0  0  0
 28 10  1  0  0  0  0
 28 21  1  0  0  0  0
 29 34  1  0  0  0  0
 30 36  1  0  0  0  0
 30 29  1  0  0  0  0
 31 32  1  0  0  0  0
 33 31  1  0  0  0  0
 34 32  1  0  0  0  0
 35 30  1  0  0  0  0
 36 33  2  0  0  0  0
 38 37  1  0  0  0  0
 39 28  1  0  0  0  0
 39 40  2  0  0  0  0
 41 40  1  0  0  0  0
 41 43  2  0  0  0  0
 41 42  2  0  0  0  0
 44 41  1  0  0  0  0
 45 44  1  0  0  0  0
 46 45  1  0  0  0  0
 47 46  1  0  0  0  0
 48 49  1  0  0  0  0
 50 49  1  0  0  0  0
 50 51  1  0  0  0  0
 52 50  1  0  0  0  0
 53 52  1  0  0  0  0
 54 53  1  0  0  0  0
 55 54  1  0  0  0  0
 56 55  1  0  0  0  0
 57 59  1  0  0  0  0
 58 57  1  0  0  0  0
 58 59  1  0  0  0  0
 59 56  1  0  0  0  0
 60 63  1  0  0  0  0
 60 59  1  0  0  0  0
 61 63  1  0  0  0  0
 61 62  1  0  0  0  0
 63 62  1  0  0  0  0
M  END
>  <MODEL>
8

>  <REMARK>
 VINA RESULT:      -5.0      3.213      8.225
  Name = 
  18 active torsions:
  status: ('A' for Active; 'I' for Inactive)
    1  A    between atoms: C_3  and  C_20
    2  A    between atoms: S_4  and  N_14
    3  A    between atoms: S_4  and  N_55
    4  A    between atoms: C_12  and  C_48
    5  A    between atoms: N_14  and  C_20
    6  A    between atoms: N_15  and  C_22
    7  A    between atoms: C_17  and  C_44
    8  A    between atoms: C_17  and  N_61
    9  A    between atoms: C_23  and  C_59
   10  A    between atoms: C_24  and  C_27
   11  A    between atoms: O_35  and  C_44
   12  A    between atoms: O_35  and  C_48
   13  A    between atoms: O_39  and  C_56
   14  A    between atoms: O_39  and  N_61
   15  A    between atoms: C_49  and  C_56
   16  A    between atoms: C_49  and  C_58
   17  A    between atoms: C_58  and  C_62
   18  A    between atoms: C_62  and  C_63
                            x       y       z     vdW  Elec       q    Type
                         _______ _______ _______ _____ _____    ______ ____

>  <TORSDO>
F 18

$$$$
=
 OpenBabel11042419383D

 63 68  0  0  1  0  0  0  0  0999 V2000
  187.4750  174.6320  141.4110 C   0  0  0  0  0  1  0  0  0  0  0  0
  192.9650  174.4580  140.8640 O   0  0  0  0  0  0  0  0  0  0  0  0
  194.6590  174.4400  139.3180 O   0  0  0  0  0  1  0  0  0  0  0  0
  193.6140  174.1670  142.0740 C   0  0  1  0  0  3  0  0  0  0  0  0
  188.4270  171.3160  138.8020 O   0  0  0  0  0  1  0  0  0  0  0  0
  192.4810  174.0910  145.8280 C   0  0  0  0  0  2  0  0  0  0  0  0
  191.6240  175.3200  145.6100 C   0  0  1  0  0  3  0  0  0  0  0  0
  193.3850  173.8860  144.6260 C   0  0  2  0  0  3  0  0  0  0  0  0
  195.4540  174.9770  143.5680 N   0  0  0  0  0  0  0  0  0  0  0  0
  189.5840  173.3270  139.2460 C   0  0  0  0  0  2  0  0  0  0  0  0
  190.3850  174.4960  142.2690 C   0  0  0  0  0  2  0  0  0  0  0  0
  194.6670  175.1830  142.3930 C   0  0  0  0  0  0  0  0  0  0  0  0
  191.4160  175.0440  143.2920 C   0  0  2  0  0  0  0  0  0  0  0  0
  191.9780  174.3790  138.2790 O   0  0  0  0  0  0  0  0  0  0  0  0
  194.6960  174.6460  144.7460 C   0  0  0  0  0  0  0  0  0  0  0  0
  193.6210  173.6960  139.8850 C   0  0  2  0  0  3  0  0  0  0  0  0
  195.1560  174.9220  145.8890 O   0  0  0  0  0  0  0  0  0  0  0  0
  188.0780  173.3420  141.9710 C   0  0  2  0  0  3  0  0  0  0  0  0
  189.3090  173.5640  142.8690 C   0  0  1  0  0  3  0  0  0  0  0  0
  192.6460  173.2690  138.8110 C   0  0  0  0  0  2  0  0  0  0  0  0
  191.1430  173.8360  137.2950 C   0  0  0  0  0  2  0  0  0  0  0  0
  189.9020  172.2530  143.3650 C   0  0  0  0  0  1  0  0  0  0  0  0
  192.6350  174.0600  143.2760 C   0  0  1  0  0  3  0  0  0  0  0  0
  194.7010  176.2890  141.7940 O   0  0  0  0  0  0  0  0  0  0  0  0
  188.3290  172.5100  139.5050 C   0  0  2  0  0  3  0  0  0  0  0  0
  190.7440  175.0710  144.5430 O   0  0  0  0  0  0  0  0  0  0  0  0
  188.1910  172.1620  140.9790 C   0  0  0  0  0  2  0  0  0  0  0  0
  189.6880  173.7120  137.7670 C   0  0  2  0  0  3  0  0  0  0  0  0
  197.9380  172.5260  142.9180 C   0  0  0  0  0  2  0  0  0  0  0  0
  197.0610  173.1000  141.8170 C   0  0  2  0  0  3  0  0  0  0  0  0
  196.8690  175.4120  143.6230 C   0  0  1  0  0  3  0  0  0  0  0  0
  197.7930  174.5110  144.4670 C   0  0  0  0  0  2  0  0  0  0  0  0
  197.4870  175.6390  142.2290 C   0  0  0  0  0  3  0  0  0  0  0  0
  197.5020  173.0290  144.2850 C   0  0  0  0  0  2  0  0  0  0  0  0
  196.9650  172.1010  140.6820 C   0  0  0  0  0  1  0  0  0  0  0  0
  197.6340  174.4170  141.3010 C   0  0  0  0  0  3  0  0  0  0  0  0
  191.8680  176.4890  142.9390 C   0  0  0  0  0  2  0  0  0  0  0  0
  190.8600  177.5960  143.2500 C   0  0  0  0  0  1  0  0  0  0  0  0
  188.9090  174.9540  137.4590 C   0  0  0  0  0  3  0  0  0  0  0  0
  187.6980  174.8650  137.0370 N   0  0  0  0  0  0  0  0  0  0  0  0
  186.7900  176.2680  136.6470 S   0  0  0  0  0  0  0  0  0  0  0  0
  187.3380  176.8970  135.3950 O   0  0  0  0  0  0  0  0  0  0  0  0
  186.8790  177.2490  137.7800 O   0  0  0  0  0  0  0  0  0  0  0  0
  185.1450  175.7880  136.3420 N   0  0  0  0  0  2  0  0  0  0  0  0
  184.7320  176.2710  135.0300 C   0  0  0  0  0  2  0  0  0  0  0  0
  183.5670  175.4410  134.5130 C   0  0  0  0  0  2  0  0  0  0  0  0
  182.5270  175.4540  135.4410 O   0  0  0  0  0  1  0  0  0  0  0  0
  190.8000  175.5560  146.8650 C   0  0  0  0  0  2  0  0  0  0  0  0
  190.9090  176.8840  147.2890 O   0  0  0  0  0  0  0  0  0  0  0  0
  189.6620  177.4700  147.0380 C   0  0  2  0  0  3  0  0  0  0  0  0
  189.4330  178.5850  148.0440 C   0  0  0  0  0  1  0  0  0  0  0  0
  188.5590  176.4220  147.1440 C   0  0  0  0  0  2  0  0  0  0  0  0
  187.9230  176.2290  145.8440 N   0  0  0  0  0  2  0  0  0  0  0  0
  186.6260  176.5920  145.9800 O   0  0  0  0  0  0  0  0  0  0  0  0
  186.6110  177.9650  145.7060 C   0  0  0  0  0  2  0  0  0  0  0  0
  185.4870  178.3030  144.7340 C   0  0  0  0  0  2  0  0  0  0  0  0
  186.6650  177.2710  142.9080 O   0  0  0  0  0  0  0  0  0  0  0  0
  187.4250  178.4570  142.9860 C   0  0  0  0  0  2  0  0  0  0  0  0
  185.9730  178.4300  143.2910 C   0  0  2  0  0  0  0  0  0  0  0  0
  185.0070  178.8510  142.1950 C   0  0  0  0  0  2  0  0  0  0  0  0
  182.9000  178.3270  141.0520 C   0  0  0  0  0  2  0  0  0  0  0  0
  182.6250  178.7240  142.3740 O   0  0  0  0  0  0  0  0  0  0  0  0
  183.7850  177.9470  142.1690 C   0  0  2  0  0  3  0  0  0  0  0  0
  4  2  1  6  0  0  0
  4 12  1  0  0  0  0
  4 23  1  0  0  0  0
  5 25  1  0  0  0  0
  7  6  1  0  0  0  0
  7 48  1  1  0  0  0
  8 15  1  0  0  0  0
  8  6  1  1  0  0  0
  9 31  1  0  0  0  0
  9 15  1  0  0  0  0
 10 25  1  0  0  0  0
 11 19  1  0  0  0  0
 11 13  1  0  0  0  0
 12  9  1  0  0  0  0
 13 37  1  6  0  0  0
 13 26  1  0  0  0  0
 14 20  1  0  0  0  0
 15 17  2  0  0  0  0
 16  3  1  6  0  0  0
 16  2  1  0  0  0  0
 18  1  1  6  0  0  0
 18 19  1  0  0  0  0
 19 22  1  6  0  0  0
 20 16  1  0  0  0  0
 21 28  1  0  0  0  0
 21 14  1  0  0  0  0
 23 13  1  0  0  0  0
 23  8  1  0  0  0  0
 24 12  2  0  0  0  0
 25 27  1  0  0  0  0
 26  7  1  0  0  0  0
 27 18  1  0  0  0  0
 28 10  1  0  0  0  0
 29 34  1  0  0  0  0
 30 29  1  0  0  0  0
 31 32  1  0  0  0  0
 33 31  1  0  0  0  0
 34 32  1  0  0  0  0
 35 30  1  0  0  0  0
 36 30  1  0  0  0  0
 36 33  2  0  0  0  0
 37 38  1  0  0  0  0
 39 28  1  0  0  0  0
 40 39  2  0  0  0  0
 41 40  1  0  0  0  0
 41 43  2  0  0  0  0
 42 41  2  0  0  0  0
 44 41  1  0  0  0  0
 45 44  1  0  0  0  0
 46 45  1  0  0  0  0
 46 47  1  0  0  0  0
 48 49  1  0  0  0  0
 50 52  1  0  0  0  0
 50 49  1  0  0  0  0
 50 51  1  0  0  0  0
 53 54  1  0  0  0  0
 53 52  1  0  0  0  0
 55 54  1  0  0  0  0
 56 55  1  0  0  0  0
 57 58  1  0  0  0  0
 57 59  1  0  0  0  0
 58 59  1  0  0  0  0
 59 56  1  0  0  0  0
 60 59  1  0  0  0  0
 61 63  1  0  0  0  0
 61 62  1  0  0  0  0
 63 60  1  0  0  0  0
 63 62  1  0  0  0  0
M  END
>  <MODEL>
9

>  <REMARK>
 VINA RESULT:      -5.0      3.190      7.834
  Name = 
  18 active torsions:
  status: ('A' for Active; 'I' for Inactive)
    1  A    between atoms: C_3  and  C_20
    2  A    between atoms: S_4  and  N_14
    3  A    between atoms: S_4  and  N_55
    4  A    between atoms: C_12  and  C_48
    5  A    between atoms: N_14  and  C_20
    6  A    between atoms: N_15  and  C_22
    7  A    between atoms: C_17  and  C_44
    8  A    between atoms: C_17  and  N_61
    9  A    between atoms: C_23  and  C_59
   10  A    between atoms: C_24  and  C_27
   11  A    between atoms: O_35  and  C_44
   12  A    between atoms: O_35  and  C_48
   13  A    between atoms: O_39  and  C_56
   14  A    between atoms: O_39  and  N_61
   15  A    between atoms: C_49  and  C_56
   16  A    between atoms: C_49  and  C_58
   17  A    between atoms: C_58  and  C_62
   18  A    between atoms: C_62  and  C_63
                            x       y       z     vdW  Elec       q    Type
                         _______ _______ _______ _____ _____    ______ ____

>  <TORSDO>
F 18

$$$$
