=
 OpenBabel11042419133D

 66 77  0  0  1  0  0  0  0  0999 V2000
  191.2200  174.1420  144.5010 C   0  0  0  0  0  2  0  0  0  0  0  0
  191.8900  169.6120  141.0010 N   0  0  0  0  0  0  0  0  0  0  0  0
  189.4780  173.5570  142.8760 C   0  0  0  0  0  2  0  0  0  0  0  0
  193.5170  171.8790  137.7600 C   0  0  0  0  0  3  0  0  0  0  0  0
  191.3060  173.8800  140.7820 C   0  0  0  0  0  2  0  0  0  0  0  0
  191.3650  170.3020  142.1790 C   0  0  2  0  0  3  0  0  0  0  0  0
  190.7290  175.4870  144.1370 N   0  0  0  0  0  0  0  0  0  0  0  0
  191.4060  172.3770  140.8450 C   0  0  2  0  0  3  0  0  0  0  0  0
  192.9860  172.4830  138.8210 C   0  0  0  0  0  3  0  0  0  0  0  0
  190.8150  171.6610  141.8380 C   0  0  2  0  0  3  0  0  0  0  0  0
  191.8140  174.4840  142.0960 C   0  0  0  0  0  2  0  0  0  0  0  0
  192.4720  170.3510  139.9140 C   0  0  0  0  0  0  0  0  0  0  0  0
  190.7340  174.3800  143.1580 C   0  0  1  0  0  0  0  0  0  0  0  0
  192.3120  171.6950  139.8770 C   0  0  0  0  0  0  0  0  0  0  0  0
  193.3440  170.3990  137.5710 C   0  0  2  0  0  3  0  0  0  0  0  0
  192.0180  168.1660  141.0630 C   0  0  0  0  0  1  0  0  0  0  0  0
  189.8250  172.1810  142.7020 O   0  0  0  0  0  0  0  0  0  0  0  0
  193.3770  169.6680  138.9160 C   0  0  0  0  0  2  0  0  0  0  0  0
  194.6610  169.3870  145.8900 C   0  0  0  0  0  3  0  0  0  0  0  0
  193.8630  169.9570  144.9100 C   0  0  0  0  0  0  0  0  0  0  0  0
  195.7620  170.2570  145.9670 C   0  0  0  0  0  3  0  0  0  0  0  0
  193.6880  171.6880  143.0900 S   0  0  0  0  0  0  0  0  0  0  0  0
  192.7010  169.6020  144.2590 C   0  0  0  0  0  3  0  0  0  0  0  0
  194.4660  171.0450  144.4330 C   0  0  0  0  0  0  0  0  0  0  0  0
  192.4510  170.5010  143.1990 C   0  0  0  0  0  0  0  0  0  0  0  0
  195.6260  171.2630  145.0580 N   0  0  0  0  0  0  0  0  0  0  0  0
  197.1510  172.5530  143.6710 C   0  0  0  0  0  0  0  0  0  0  0  0
  197.0220  173.8640  142.9580 C   0  0  0  0  0  2  0  0  0  0  0  0
  197.8330  171.5550  143.1220 C   0  0  0  0  0  2  0  0  0  0  0  0
  195.2360  174.4800  144.7730 C   0  0  1  0  0  3  0  0  0  0  0  0
  195.6840  174.5360  143.2920 C   0  0  1  0  0  3  0  0  0  0  0  0
  196.1430  173.5960  145.6440 C   0  0  0  0  0  2  0  0  0  0  0  0
  196.4760  172.3710  144.9250 N   0  0  0  0  0  0  0  0  0  0  0  0
  195.9780  175.6920  144.2310 C   0  0  0  0  0  2  0  0  0  0  0  0
  194.1280  169.8880  135.4010 O   0  0  0  0  0  0  0  0  0  0  0  0
  194.3420  169.8560  136.6030 C   0  0  0  0  0  0  0  0  0  0  0  0
  195.5900  169.2300  137.1290 C   0  0  0  0  0  2  0  0  0  0  0  0
  196.8120  169.8910  136.5190 C   0  0  0  0  0  2  0  0  0  0  0  0
  197.0230  172.3820  136.8120 C   0  0  1  0  0  3  0  0  0  0  0  0
  197.3140  171.0040  137.4200 C   0  0  1  0  0  3  0  0  0  0  0  0
  196.8210  171.9670  139.6200 C   0  0  0  0  0  3  0  0  0  0  0  0
  197.3360  173.4420  137.7850 N   0  0  0  0  0  0  0  0  0  0  0  0
  197.9410  175.6620  138.2170 O   0  0  0  0  0  0  0  0  0  0  0  0
  197.1450  173.1870  139.1870 C   0  0  0  0  0  3  0  0  0  0  0  0
  197.7700  172.5430  135.6350 O   0  0  0  0  0  1  0  0  0  0  0  0
  196.7290  170.9080  138.7160 O   0  0  0  0  0  0  0  0  0  0  0  0
  197.5680  174.8010  137.3710 C   0  0  0  0  0  0  0  0  0  0  0  0
  197.3680  175.1690  136.0360 O   0  0  0  0  0  0  0  0  0  0  0  0
  196.7970  176.4110  135.6770 C   0  0  0  0  0  1  0  0  0  0  0  0
  189.4240  175.6390  144.6580 N   0  0  0  0  0  2  0  0  0  0  0  0
  189.1170  177.3730  141.9500 O   0  0  0  0  0  0  0  0  0  0  0  0
  186.4410  177.5620  144.1790 N   0  0  0  0  0  0  0  0  0  0  0  0
  189.3150  176.9770  145.2250 C   0  0  1  0  0  3  0  0  0  0  0  0
  186.9300  177.1070  142.8800 C   0  0  2  0  0  3  0  0  0  0  0  0
  188.7970  178.0340  144.2280 C   0  0  1  0  0  3  0  0  0  0  0  0
  188.0030  177.0690  145.9990 C   0  0  1  0  0  3  0  0  0  0  0  0
  188.3580  177.5100  142.8960 C   0  0  0  0  0  0  0  0  0  0  0  0
  186.5980  177.6020  140.3410 C   0  0  0  0  0  1  0  0  0  0  0  0
  184.8420  178.0450  141.9630 C   0  0  0  0  0  3  0  0  0  0  0  0
  186.1100  177.6800  141.7460 C   0  0  0  0  0  0  0  0  0  0  0  0
  188.2350  177.6570  147.2440 O   0  0  0  0  0  1  0  0  0  0  0  0
  185.0480  177.8440  144.3870 C   0  0  0  0  0  0  0  0  0  0  0  0
  187.4940  178.1200  145.0280 C   0  0  2  0  0  3  0  0  0  0  0  0
  184.2720  178.0780  143.3220 C   0  0  0  0  0  3  0  0  0  0  0  0
  184.7760  176.7540  146.4650 O   0  0  0  0  0  1  0  0  0  0  0  0
  184.4750  177.9220  145.7660 C   0  0  0  0  0  2  0  0  0  0  0  0
  2 16  1  0  0  0  0
  2  6  1  0  0  0  0
  3 13  1  0  0  0  0
  4  9  2  0  0  0  0
  5 11  1  0  0  0  0
  6 25  1  1  0  0  0
  7  1  1  0  0  0  0
  7 50  1  0  0  0  0
  8  5  1  1  0  0  0
  8 10  1  0  0  0  0
  9 14  1  0  0  0  0
 10  6  1  0  0  0  0
 10 17  1  1  0  0  0
 12  2  1  0  0  0  0
 13 11  1  6  0  0  0
 13  7  1  0  0  0  0
 13  1  1  0  0  0  0
 14 12  2  0  0  0  0
 14  8  1  0  0  0  0
 15 36  1  6  0  0  0
 15  4  1  0  0  0  0
 15 18  1  0  0  0  0
 17  3  1  0  0  0  0
 18 12  1  0  0  0  0
 19 21  2  0  0  0  0
 20 19  1  0  0  0  0
 22 25  1  0  0  0  0
 22 24  1  0  0  0  0
 23 20  1  0  0  0  0
 24 20  2  0  0  0  0
 24 26  1  0  0  0  0
 25 23  2  0  0  0  0
 26 21  1  0  0  0  0
 27 33  1  0  0  0  0
 28 27  1  0  0  0  0
 29 27  2  0  0  0  0
 30 34  1  1  0  0  0
 30 32  1  0  0  0  0
 31 28  1  1  0  0  0
 31 34  1  0  0  0  0
 31 30  1  0  0  0  0
 33 26  1  0  0  0  0
 33 32  1  0  0  0  0
 35 36  2  0  0  0  0
 36 37  1  0  0  0  0
 38 37  1  0  0  0  0
 39 45  1  6  0  0  0
 39 40  1  0  0  0  0
 39 42  1  0  0  0  0
 40 38  1  6  0  0  0
 40 46  1  0  0  0  0
 42 44  1  0  0  0  0
 44 41  2  0  0  0  0
 46 41  1  0  0  0  0
 47 42  1  0  0  0  0
 47 43  2  0  0  0  0
 48 47  1  0  0  0  0
 49 48  1  0  0  0  0
 51 57  2  0  0  0  0
 52 62  1  0  0  0  0
 53 50  1  6  0  0  0
 53 56  1  0  0  0  0
 54 60  1  6  0  0  0
 54 57  1  0  0  0  0
 54 52  1  0  0  0  0
 55 57  1  6  0  0  0
 55 63  1  0  0  0  0
 55 53  1  0  0  0  0
 56 61  1  1  0  0  0
 58 60  1  0  0  0  0
 59 64  1  0  0  0  0
 60 59  2  0  0  0  0
 62 66  1  0  0  0  0
 63 52  1  6  0  0  0
 63 56  1  0  0  0  0
 64 62  2  0  0  0  0
 66 65  1  0  0  0  0
M  END
>  <MODEL>
1

>  <REMARK>
 VINA RESULT:      -8.1      0.000      0.000
  Name = 
  10 active torsions:
  status: ('A' for Active; 'I' for Inactive)
    1  A    between atoms: C_6  and  C_30
    2  A    between atoms: C_6  and  C_51
    3  A    between atoms: O_13  and  C_65
    4  A    between atoms: C_15  and  C_54
    5  A    between atoms: C_17  and  N_60
    6  A    between atoms: N_21  and  N_60
    7  A    between atoms: C_27  and  C_51
    8  A    between atoms: C_30  and  C_56
    9  A    between atoms: N_39  and  N_62
   10  A    between atoms: C_53  and  C_55
                            x       y       z     vdW  Elec       q    Type
                         _______ _______ _______ _____ _____    ______ ____

>  <TORSDO>
F 10

$$$$
=
 OpenBabel11042419133D

 66 77  0  0  1  0  0  0  0  0999 V2000
  196.0110  173.7530  138.9940 C   0  0  0  0  0  2  0  0  0  0  0  0
  195.9260  174.2570  144.7360 N   0  0  0  0  0  0  0  0  0  0  0  0
  197.0990  175.6570  140.0920 C   0  0  0  0  0  2  0  0  0  0  0  0
  192.4600  176.7600  144.8420 C   0  0  0  0  0  3  0  0  0  0  0  0
  194.6560  176.4170  141.2240 C   0  0  0  0  0  2  0  0  0  0  0  0
  196.5350  173.9130  143.4510 C   0  0  2  0  0  3  0  0  0  0  0  0
  195.7580  174.8160  138.0010 N   0  0  0  0  0  0  0  0  0  0  0  0
  195.1870  175.7220  142.4520 C   0  0  2  0  0  3  0  0  0  0  0  0
  193.0640  176.4730  143.6900 C   0  0  0  0  0  3  0  0  0  0  0  0
  196.3350  174.9950  142.4240 C   0  0  2  0  0  3  0  0  0  0  0  0
  194.4800  175.3980  140.0930 C   0  0  0  0  0  2  0  0  0  0  0  0
  194.7410  175.0690  144.7940 C   0  0  0  0  0  0  0  0  0  0  0  0
  195.8250  175.1160  139.4450 C   0  0  1  0  0  0  0  0  0  0  0  0
  194.3340  175.7140  143.6750 C   0  0  0  0  0  0  0  0  0  0  0  0
  193.1170  176.4070  146.1450 C   0  0  2  0  0  3  0  0  0  0  0  0
  196.4110  173.5710  145.9210 C   0  0  0  0  0  1  0  0  0  0  0  0
  197.2850  175.0630  141.3790 O   0  0  0  0  0  0  0  0  0  0  0  0
  193.8780  175.0830  146.0330 C   0  0  0  0  0  2  0  0  0  0  0  0
  195.4130  169.0360  142.7940 C   0  0  0  0  0  3  0  0  0  0  0  0
  195.5390  170.4130  142.6910 C   0  0  0  0  0  0  0  0  0  0  0  0
  194.2070  168.7650  142.1250 C   0  0  0  0  0  3  0  0  0  0  0  0
  194.4250  172.5820  142.0620 S   0  0  0  0  0  0  0  0  0  0  0  0
  196.4080  171.3610  143.1880 C   0  0  0  0  0  3  0  0  0  0  0  0
  194.4800  170.9030  142.0490 C   0  0  0  0  0  0  0  0  0  0  0  0
  195.9240  172.6550  142.9000 C   0  0  0  0  0  0  0  0  0  0  0  0
  193.6460  169.9250  141.6840 N   0  0  0  0  0  0  0  0  0  0  0  0
  191.4630  170.9290  141.3110 C   0  0  0  0  0  0  0  0  0  0  0  0
  190.9690  171.9770  140.3610 C   0  0  0  0  0  2  0  0  0  0  0  0
  190.9880  170.8700  142.5490 C   0  0  0  0  0  2  0  0  0  0  0  0
  192.9320  171.2360  138.7920 C   0  0  1  0  0  3  0  0  0  0  0  0
  192.0750  172.3830  139.3770 C   0  0  1  0  0  3  0  0  0  0  0  0
  192.6380  169.8730  139.4400 C   0  0  0  0  0  2  0  0  0  0  0  0
  192.4990  170.0320  140.8830 N   0  0  0  0  0  0  0  0  0  0  0  0
  191.7310  171.7720  138.0300 C   0  0  0  0  0  2  0  0  0  0  0  0
  192.1540  177.2770  148.1200 O   0  0  0  0  0  0  0  0  0  0  0  0
  192.1320  176.4050  147.2660 C   0  0  0  0  0  0  0  0  0  0  0  0
  191.1420  175.2910  147.3550 C   0  0  0  0  0  2  0  0  0  0  0  0
  189.7280  175.8280  147.2400 C   0  0  0  0  0  2  0  0  0  0  0  0
  188.6960  176.5580  145.0640 C   0  0  1  0  0  3  0  0  0  0  0  0
  189.0920  175.3650  145.9420 C   0  0  1  0  0  3  0  0  0  0  0  0
  189.7240  174.1770  143.8920 C   0  0  0  0  0  3  0  0  0  0  0  0
  188.2670  176.0900  143.7350 N   0  0  0  0  0  0  0  0  0  0  0  0
  187.0150  176.4370  141.7880 O   0  0  0  0  0  0  0  0  0  0  0  0
  188.8790  174.9170  143.1720 C   0  0  0  0  0  3  0  0  0  0  0  0
  187.6760  177.2870  145.6940 O   0  0  0  0  0  1  0  0  0  0  0  0
  189.9730  174.5020  145.2270 O   0  0  0  0  0  0  0  0  0  0  0  0
  187.4570  176.9100  142.8730 C   0  0  0  0  0  0  0  0  0  0  0  0
  187.1710  178.2320  143.2300 O   0  0  0  0  0  0  0  0  0  0  0  0
  185.8620  178.7610  143.1650 C   0  0  0  0  0  1  0  0  0  0  0  0
  196.9890  175.1620  137.3990 N   0  0  0  0  0  2  0  0  0  0  0  0
  197.9290  172.7190  135.5060 O   0  0  0  0  0  0  0  0  0  0  0  0
  194.5720  173.6310  135.2420 N   0  0  0  0  0  0  0  0  0  0  0  0
  196.7080  175.7340  136.0890 C   0  0  1  0  0  3  0  0  0  0  0  0
  195.5440  172.6250  135.6620 C   0  0  2  0  0  3  0  0  0  0  0  0
  196.7060  174.6990  134.9450 C   0  0  1  0  0  3  0  0  0  0  0  0
  195.1980  175.8930  135.9420 C   0  0  1  0  0  3  0  0  0  0  0  0
  196.8480  173.2690  135.3640 C   0  0  0  0  0  0  0  0  0  0  0  0
  196.3370  170.2280  135.0100 C   0  0  0  0  0  1  0  0  0  0  0  0
  194.0810  170.9960  134.5290 C   0  0  0  0  0  3  0  0  0  0  0  0
  195.3050  171.3010  134.9720 C   0  0  0  0  0  0  0  0  0  0  0  0
  194.9070  177.1630  135.4400 O   0  0  0  0  0  1  0  0  0  0  0  0
  193.2350  173.2600  134.8720 C   0  0  0  0  0  0  0  0  0  0  0  0
  195.1920  174.8840  134.8080 C   0  0  2  0  0  3  0  0  0  0  0  0
  192.9930  171.9900  134.5270 C   0  0  0  0  0  3  0  0  0  0  0  0
  191.8060  174.6650  136.1220 O   0  0  0  0  0  1  0  0  0  0  0  0
  192.1380  174.2740  134.8260 C   0  0  0  0  0  2  0  0  0  0  0  0
  2 12  1  0  0  0  0
  2 16  1  0  0  0  0
  3 17  1  0  0  0  0
  4 15  1  0  0  0  0
  6 25  1  6  0  0  0
  6  2  1  0  0  0  0
  7  1  1  0  0  0  0
  7 13  1  0  0  0  0
  8  5  1  6  0  0  0
  8 14  1  0  0  0  0
  9  4  2  0  0  0  0
 10 17  1  6  0  0  0
 10  8  1  0  0  0  0
 10  6  1  0  0  0  0
 11  5  1  0  0  0  0
 12 18  1  0  0  0  0
 13  1  1  1  0  0  0
 13  3  1  0  0  0  0
 13 11  1  0  0  0  0
 14  9  1  0  0  0  0
 14 12  2  0  0  0  0
 15 36  1  1  0  0  0
 18 15  1  0  0  0  0
 20 19  1  0  0  0  0
 20 23  1  0  0  0  0
 21 19  2  0  0  0  0
 22 25  1  0  0  0  0
 24 22  1  0  0  0  0
 24 20  2  0  0  0  0
 25 23  2  0  0  0  0
 26 24  1  0  0  0  0
 26 21  1  0  0  0  0
 27 29  2  0  0  0  0
 28 27  1  0  0  0  0
 30 34  1  6  0  0  0
 30 31  1  0  0  0  0
 30 32  1  0  0  0  0
 31 34  1  6  0  0  0
 31 28  1  0  0  0  0
 32 33  1  0  0  0  0
 33 27  1  0  0  0  0
 33 26  1  0  0  0  0
 36 37  1  0  0  0  0
 36 35  2  0  0  0  0
 38 37  1  0  0  0  0
 39 45  1  1  0  0  0
 39 40  1  0  0  0  0
 40 38  1  1  0  0  0
 41 46  1  0  0  0  0
 42 39  1  0  0  0  0
 43 47  2  0  0  0  0
 44 42  1  0  0  0  0
 44 41  2  0  0  0  0
 46 40  1  0  0  0  0
 47 48  1  0  0  0  0
 47 42  1  0  0  0  0
 49 48  1  0  0  0  0
 50  7  1  0  0  0  0
 52 54  1  0  0  0  0
 53 50  1  1  0  0  0
 54 60  1  6  0  0  0
 55 57  1  1  0  0  0
 55 53  1  0  0  0  0
 56 61  1  6  0  0  0
 56 53  1  0  0  0  0
 57 51  2  0  0  0  0
 57 54  1  0  0  0  0
 59 60  2  0  0  0  0
 60 58  1  0  0  0  0
 62 52  1  0  0  0  0
 63 55  1  0  0  0  0
 63 52  1  1  0  0  0
 63 56  1  0  0  0  0
 64 59  1  0  0  0  0
 64 62  2  0  0  0  0
 66 62  1  0  0  0  0
 66 65  1  0  0  0  0
M  END
>  <MODEL>
2

>  <REMARK>
 VINA RESULT:      -7.9      2.287      9.927
  Name = 
  10 active torsions:
  status: ('A' for Active; 'I' for Inactive)
    1  A    between atoms: C_6  and  C_30
    2  A    between atoms: C_6  and  C_51
    3  A    between atoms: O_13  and  C_65
    4  A    between atoms: C_15  and  C_54
    5  A    between atoms: C_17  and  N_60
    6  A    between atoms: N_21  and  N_60
    7  A    between atoms: C_27  and  C_51
    8  A    between atoms: C_30  and  C_56
    9  A    between atoms: N_39  and  N_62
   10  A    between atoms: C_53  and  C_55
                            x       y       z     vdW  Elec       q    Type
                         _______ _______ _______ _____ _____    ______ ____

>  <TORSDO>
F 10

$$$$
=
 OpenBabel11042419133D

 66 77  0  0  1  0  0  0  0  0999 V2000
  194.1870  173.3530  140.7230 C   0  0  0  0  0  2  0  0  0  0  0  0
  190.2020  173.0960  144.8800 N   0  0  0  0  0  0  0  0  0  0  0  0
  194.8530  173.2810  143.0830 C   0  0  0  0  0  2  0  0  0  0  0  0
  190.0540  177.3210  145.5200 C   0  0  0  0  0  3  0  0  0  0  0  0
  193.4300  175.6400  143.5700 C   0  0  0  0  0  2  0  0  0  0  0  0
  191.2110  172.5310  143.9830 C   0  0  2  0  0  3  0  0  0  0  0  0
  195.3880  174.2120  140.6900 N   0  0  0  0  0  0  0  0  0  0  0  0
  192.3690  174.7070  144.0960 C   0  0  2  0  0  3  0  0  0  0  0  0
  190.9940  176.7770  144.7500 C   0  0  0  0  0  3  0  0  0  0  0  0
  192.4680  173.3590  143.9570 C   0  0  2  0  0  3  0  0  0  0  0  0
  193.6400  175.3870  142.0730 C   0  0  0  0  0  2  0  0  0  0  0  0
  190.1120  174.5160  145.0840 C   0  0  0  0  0  0  0  0  0  0  0  0
  194.5150  174.1600  141.8800 C   0  0  1  0  0  0  0  0  0  0  0  0
  191.1150  175.3070  144.6370 C   0  0  0  0  0  0  0  0  0  0  0  0
  189.1740  176.4470  146.3670 C   0  0  2  0  0  3  0  0  0  0  0  0
  189.1580  172.2110  145.3690 C   0  0  0  0  0  1  0  0  0  0  0  0
  193.6620  172.6880  143.6060 O   0  0  0  0  0  0  0  0  0  0  0  0
  188.8540  175.1330  145.6470 C   0  0  0  0  0  2  0  0  0  0  0  0
  188.5730  173.6000  139.8150 C   0  0  0  0  0  3  0  0  0  0  0  0
  189.3980  173.0390  140.7780 C   0  0  0  0  0  0  0  0  0  0  0  0
  189.1180  173.1390  138.6040 C   0  0  0  0  0  3  0  0  0  0  0  0
  191.5420  171.8040  141.2430 S   0  0  0  0  0  0  0  0  0  0  0  0
  189.5180  173.1360  142.1470 C   0  0  0  0  0  3  0  0  0  0  0  0
  190.3620  172.3430  140.1760 C   0  0  0  0  0  0  0  0  0  0  0  0
  190.6870  172.4690  142.5760 C   0  0  0  0  0  0  0  0  0  0  0  0
  190.2200  172.3770  138.8490 N   0  0  0  0  0  0  0  0  0  0  0  0
  190.3080  170.5680  137.2260 C   0  0  0  0  0  0  0  0  0  0  0  0
  190.2800  170.5370  135.7290 C   0  0  0  0  0  2  0  0  0  0  0  0
  189.6920  169.6240  137.9280 C   0  0  0  0  0  2  0  0  0  0  0  0
  191.2910  172.9520  135.8300 C   0  0  1  0  0  3  0  0  0  0  0  0
  190.3150  171.9600  135.1540 C   0  0  1  0  0  3  0  0  0  0  0  0
  191.9490  172.3820  137.0970 C   0  0  0  0  0  2  0  0  0  0  0  0
  190.9560  171.6640  137.8890 N   0  0  0  0  0  0  0  0  0  0  0  0
  191.7040  172.1850  134.5830 C   0  0  0  0  0  2  0  0  0  0  0  0
  187.2700  176.7590  147.7300 O   0  0  0  0  0  0  0  0  0  0  0  0
  187.9450  177.1730  146.8010 C   0  0  0  0  0  0  0  0  0  0  0  0
  187.5250  178.3930  146.0500 C   0  0  0  0  0  2  0  0  0  0  0  0
  186.1830  178.1650  145.3790 C   0  0  0  0  0  2  0  0  0  0  0  0
  185.4110  178.2930  142.9870 C   0  0  1  0  0  3  0  0  0  0  0  0
  186.3810  177.6310  143.9730 C   0  0  1  0  0  3  0  0  0  0  0  0
  188.0740  177.6720  142.1990 C   0  0  0  0  0  3  0  0  0  0  0  0
  185.7500  177.9110  141.6060 N   0  0  0  0  0  0  0  0  0  0  0  0
  185.0800  177.5830  139.3870 O   0  0  0  0  0  0  0  0  0  0  0  0
  187.1260  177.6790  141.2600 C   0  0  0  0  0  3  0  0  0  0  0  0
  184.0950  177.9220  143.3030 O   0  0  0  0  0  1  0  0  0  0  0  0
  187.7260  177.8270  143.5420 O   0  0  0  0  0  0  0  0  0  0  0  0
  184.7930  178.0220  140.5360 C   0  0  0  0  0  0  0  0  0  0  0  0
  183.5530  178.6260  140.7680 O   0  0  0  0  0  0  0  0  0  0  0  0
  182.3340  177.9760  140.4700 C   0  0  0  0  0  1  0  0  0  0  0  0
  196.5220  173.3980  140.9120 N   0  0  0  0  0  2  0  0  0  0  0  0
  197.1460  170.8290  139.0550 O   0  0  0  0  0  0  0  0  0  0  0  0
  196.1780  173.7200  137.3610 N   0  0  0  0  0  0  0  0  0  0  0  0
  197.6210  173.9240  140.1130 C   0  0  1  0  0  3  0  0  0  0  0  0
  195.8430  172.3540  137.7520 C   0  0  2  0  0  3  0  0  0  0  0  0
  197.9410  173.0790  138.8630 C   0  0  1  0  0  3  0  0  0  0  0  0
  197.0820  175.0360  139.2180 C   0  0  1  0  0  3  0  0  0  0  0  0
  197.0010  171.9470  138.5870 C   0  0  0  0  0  0  0  0  0  0  0  0
  195.5170  169.9990  136.6800 C   0  0  0  0  0  1  0  0  0  0  0  0
  195.1640  172.0370  135.4030 C   0  0  0  0  0  3  0  0  0  0  0  0
  195.5780  171.4800  136.5460 C   0  0  0  0  0  0  0  0  0  0  0  0
  197.9330  176.1410  139.2800 O   0  0  0  0  0  1  0  0  0  0  0  0
  195.6230  174.3070  136.1730 C   0  0  0  0  0  0  0  0  0  0  0  0
  197.4070  174.2130  137.9840 C   0  0  2  0  0  3  0  0  0  0  0  0
  195.1330  173.4990  135.2250 C   0  0  0  0  0  3  0  0  0  0  0  0
  196.5690  176.1220  134.9940 O   0  0  0  0  0  1  0  0  0  0  0  0
  195.6300  175.7880  135.9690 C   0  0  0  0  0  2  0  0  0  0  0  0
  2 12  1  0  0  0  0
  2 16  1  0  0  0  0
  3 17  1  0  0  0  0
  4 15  1  0  0  0  0
  6 25  1  6  0  0  0
  6  2  1  0  0  0  0
  7  1  1  0  0  0  0
  7 50  1  0  0  0  0
  7 13  1  0  0  0  0
  8  5  1  6  0  0  0
  8 14  1  0  0  0  0
  9  4  2  0  0  0  0
 10 17  1  6  0  0  0
 10  6  1  0  0  0  0
 10  8  1  0  0  0  0
 11  5  1  0  0  0  0
 12 18  1  0  0  0  0
 13  1  1  6  0  0  0
 13 11  1  0  0  0  0
 13  3  1  0  0  0  0
 14  9  1  0  0  0  0
 14 12  2  0  0  0  0
 15 36  1  6  0  0  0
 18 15  1  0  0  0  0
 19 20  1  0  0  0  0
 20 23  1  0  0  0  0
 21 26  1  0  0  0  0
 21 19  2  0  0  0  0
 22 25  1  0  0  0  0
 23 25  2  0  0  0  0
 24 20  2  0  0  0  0
 24 22  1  0  0  0  0
 26 24  1  0  0  0  0
 27 33  1  0  0  0  0
 27 29  2  0  0  0  0
 28 27  1  0  0  0  0
 30 34  1  6  0  0  0
 30 32  1  0  0  0  0
 31 34  1  6  0  0  0
 31 28  1  0  0  0  0
 31 30  1  0  0  0  0
 32 33  1  0  0  0  0
 33 26  1  0  0  0  0
 36 35  2  0  0  0  0
 37 36  1  0  0  0  0
 38 37  1  0  0  0  0
 39 45  1  1  0  0  0
 39 40  1  0  0  0  0
 40 38  1  1  0  0  0
 41 46  1  0  0  0  0
 42 39  1  0  0  0  0
 43 47  2  0  0  0  0
 44 42  1  0  0  0  0
 44 41  2  0  0  0  0
 46 40  1  0  0  0  0
 47 48  1  0  0  0  0
 47 42  1  0  0  0  0
 49 48  1  0  0  0  0
 52 54  1  0  0  0  0
 53 50  1  1  0  0  0
 54 60  1  6  0  0  0
 54 57  1  0  0  0  0
 55 57  1  1  0  0  0
 55 53  1  0  0  0  0
 56 61  1  6  0  0  0
 56 53  1  0  0  0  0
 57 51  2  0  0  0  0
 59 60  2  0  0  0  0
 60 58  1  0  0  0  0
 62 52  1  0  0  0  0
 63 52  1  1  0  0  0
 63 55  1  0  0  0  0
 63 56  1  0  0  0  0
 64 59  1  0  0  0  0
 64 62  2  0  0  0  0
 65 66  1  0  0  0  0
 66 62  1  0  0  0  0
M  END
>  <MODEL>
3

>  <REMARK>
 VINA RESULT:      -7.8      2.426     10.717
  Name = 
  10 active torsions:
  status: ('A' for Active; 'I' for Inactive)
    1  A    between atoms: C_6  and  C_30
    2  A    between atoms: C_6  and  C_51
    3  A    between atoms: O_13  and  C_65
    4  A    between atoms: C_15  and  C_54
    5  A    between atoms: C_17  and  N_60
    6  A    between atoms: N_21  and  N_60
    7  A    between atoms: C_27  and  C_51
    8  A    between atoms: C_30  and  C_56
    9  A    between atoms: N_39  and  N_62
   10  A    between atoms: C_53  and  C_55
                            x       y       z     vdW  Elec       q    Type
                         _______ _______ _______ _____ _____    ______ ____

>  <TORSDO>
F 10

$$$$
=
 OpenBabel11042419133D

 66 77  0  0  1  0  0  0  0  0999 V2000
  195.6760  173.5740  139.0420 C   0  0  0  0  0  2  0  0  0  0  0  0
  194.6860  172.9800  144.6900 N   0  0  0  0  0  0  0  0  0  0  0  0
  197.1550  174.6390  140.6830 C   0  0  0  0  0  2  0  0  0  0  0  0
  192.4280  176.5940  145.0570 C   0  0  0  0  0  3  0  0  0  0  0  0
  194.9940  176.0870  141.7120 C   0  0  0  0  0  2  0  0  0  0  0  0
  195.3600  172.6690  143.4290 C   0  0  2  0  0  3  0  0  0  0  0  0
  196.0260  174.8160  138.3230 N   0  0  0  0  0  0  0  0  0  0  0  0
  194.9870  175.0200  142.7780 C   0  0  2  0  0  3  0  0  0  0  0  0
  193.0930  176.3110  143.9390 C   0  0  0  0  0  3  0  0  0  0  0  0
  195.7710  173.9130  142.6880 C   0  0  2  0  0  3  0  0  0  0  0  0
  194.6760  175.4560  140.3520 C   0  0  0  0  0  2  0  0  0  0  0  0
  193.8940  174.1720  144.8260 C   0  0  0  0  0  0  0  0  0  0  0  0
  195.9200  174.7860  139.7960 C   0  0  1  0  0  0  0  0  0  0  0  0
  193.9730  175.1240  143.8660 C   0  0  0  0  0  0  0  0  0  0  0  0
  192.6480  175.7690  146.2930 C   0  0  2  0  0  3  0  0  0  0  0  0
  194.6490  171.9480  145.7120 C   0  0  0  0  0  1  0  0  0  0  0  0
  196.8610  173.7890  141.7950 O   0  0  0  0  0  0  0  0  0  0  0  0
  192.8770  174.2970  145.9350 C   0  0  0  0  0  2  0  0  0  0  0  0
  193.0290  168.8030  141.1730 C   0  0  0  0  0  3  0  0  0  0  0  0
  193.5030  170.0470  141.5610 C   0  0  0  0  0  0  0  0  0  0  0  0
  191.7930  169.0930  140.5700 C   0  0  0  0  0  3  0  0  0  0  0  0
  192.9790  172.4910  141.8640 S   0  0  0  0  0  0  0  0  0  0  0  0
  194.5860  170.5060  142.2790 C   0  0  0  0  0  3  0  0  0  0  0  0
  192.6030  170.9760  141.2430 C   0  0  0  0  0  0  0  0  0  0  0  0
  194.4470  171.8900  142.5240 C   0  0  0  0  0  0  0  0  0  0  0  0
  191.5470  170.4320  140.6320 N   0  0  0  0  0  0  0  0  0  0  0  0
  189.8130  172.1290  140.7930 C   0  0  0  0  0  0  0  0  0  0  0  0
  189.6550  173.4880  140.1830 C   0  0  0  0  0  2  0  0  0  0  0  0
  189.4090  171.9010  142.0370 C   0  0  0  0  0  2  0  0  0  0  0  0
  191.1730  172.6050  138.2390 C   0  0  1  0  0  3  0  0  0  0  0  0
  190.7820  173.7690  139.1800 C   0  0  1  0  0  3  0  0  0  0  0  0
  190.4700  171.2840  138.5900 C   0  0  0  0  0  2  0  0  0  0  0  0
  190.4640  171.0960  140.0370 N   0  0  0  0  0  0  0  0  0  0  0  0
  190.1860  173.6700  137.7870 C   0  0  0  0  0  2  0  0  0  0  0  0
  191.5560  175.3860  148.3530 O   0  0  0  0  0  0  0  0  0  0  0  0
  191.5360  175.9510  147.2710 C   0  0  0  0  0  0  0  0  0  0  0  0
  190.3700  176.8010  146.8880 C   0  0  0  0  0  2  0  0  0  0  0  0
  189.1030  175.9680  146.8340 C   0  0  0  0  0  2  0  0  0  0  0  0
  187.5250  176.3420  144.9100 C   0  0  1  0  0  3  0  0  0  0  0  0
  187.9470  176.8010  146.3110 C   0  0  1  0  0  3  0  0  0  0  0  0
  185.5770  177.1930  146.8030 C   0  0  0  0  0  3  0  0  0  0  0  0
  186.2840  177.0240  144.5050 N   0  0  0  0  0  0  0  0  0  0  0  0
  184.8830  177.8080  142.8010 O   0  0  0  0  0  0  0  0  0  0  0  0
  185.3100  177.3640  145.5070 C   0  0  0  0  0  3  0  0  0  0  0  0
  188.5600  176.6000  143.9990 O   0  0  0  0  0  1  0  0  0  0  0  0
  186.8360  176.7400  147.2010 O   0  0  0  0  0  0  0  0  0  0  0  0
  185.8940  177.1220  143.1230 C   0  0  0  0  0  0  0  0  0  0  0  0
  186.6270  176.4480  142.1400 O   0  0  0  0  0  0  0  0  0  0  0  0
  187.2500  177.1280  141.0690 C   0  0  0  0  0  1  0  0  0  0  0  0
  197.3880  174.7450  137.9550 N   0  0  0  0  0  2  0  0  0  0  0  0
  197.9310  171.9500  136.4300 O   0  0  0  0  0  0  0  0  0  0  0  0
  195.0610  173.6740  135.4510 N   0  0  0  0  0  0  0  0  0  0  0  0
  197.5130  175.2240  136.5840 C   0  0  1  0  0  3  0  0  0  0  0  0
  195.6250  172.5010  136.1130 C   0  0  2  0  0  3  0  0  0  0  0  0
  197.4250  174.1070  135.5250 C   0  0  1  0  0  3  0  0  0  0  0  0
  196.1560  175.7560  136.1310 C   0  0  1  0  0  3  0  0  0  0  0  0
  197.0880  172.7440  136.0450 C   0  0  0  0  0  0  0  0  0  0  0  0
  195.8230  169.9230  135.7710 C   0  0  0  0  0  1  0  0  0  0  0  0
  193.9910  171.1970  134.8060 C   0  0  0  0  0  3  0  0  0  0  0  0
  195.1530  171.2180  135.4660 C   0  0  0  0  0  0  0  0  0  0  0  0
  196.3230  176.9950  135.5090 O   0  0  0  0  0  1  0  0  0  0  0  0
  193.7600  173.6270  134.8430 C   0  0  0  0  0  0  0  0  0  0  0  0
  196.0710  174.6660  135.0780 C   0  0  2  0  0  3  0  0  0  0  0  0
  193.2390  172.4350  134.5300 C   0  0  0  0  0  3  0  0  0  0  0  0
  192.3900  175.3630  135.6710 O   0  0  0  0  0  1  0  0  0  0  0  0
  193.0140  174.8820  134.5210 C   0  0  0  0  0  2  0  0  0  0  0  0
  2 12  1  0  0  0  0
  2 16  1  0  0  0  0
  3 17  1  0  0  0  0
  4 15  1  0  0  0  0
  6 25  1  6  0  0  0
  6  2  1  0  0  0  0
  7  1  1  0  0  0  0
  7 13  1  0  0  0  0
  8  5  1  6  0  0  0
  8 14  1  0  0  0  0
  9  4  2  0  0  0  0
 10 17  1  6  0  0  0
 10  8  1  0  0  0  0
 10  6  1  0  0  0  0
 11  5  1  0  0  0  0
 12 18  1  0  0  0  0
 13  1  1  1  0  0  0
 13 11  1  0  0  0  0
 13  3  1  0  0  0  0
 14  9  1  0  0  0  0
 14 12  2  0  0  0  0
 15 36  1  1  0  0  0
 18 15  1  0  0  0  0
 19 20  1  0  0  0  0
 20 23  1  0  0  0  0
 21 26  1  0  0  0  0
 21 19  2  0  0  0  0
 22 25  1  0  0  0  0
 23 25  2  0  0  0  0
 24 20  2  0  0  0  0
 24 22  1  0  0  0  0
 26 24  1  0  0  0  0
 27 29  2  0  0  0  0
 28 27  1  0  0  0  0
 30 34  1  6  0  0  0
 30 32  1  0  0  0  0
 30 31  1  0  0  0  0
 31 34  1  6  0  0  0
 31 28  1  0  0  0  0
 32 33  1  0  0  0  0
 33 26  1  0  0  0  0
 33 27  1  0  0  0  0
 36 35  2  0  0  0  0
 37 36  1  0  0  0  0
 38 37  1  0  0  0  0
 39 45  1  6  0  0  0
 39 40  1  0  0  0  0
 40 38  1  1  0  0  0
 40 46  1  0  0  0  0
 41 46  1  0  0  0  0
 42 39  1  0  0  0  0
 42 44  1  0  0  0  0
 43 47  2  0  0  0  0
 44 41  2  0  0  0  0
 47 42  1  0  0  0  0
 48 47  1  0  0  0  0
 49 48  1  0  0  0  0
 50  7  1  0  0  0  0
 52 54  1  0  0  0  0
 53 50  1  1  0  0  0
 54 60  1  6  0  0  0
 55 57  1  1  0  0  0
 55 53  1  0  0  0  0
 56 61  1  6  0  0  0
 56 53  1  0  0  0  0
 57 54  1  0  0  0  0
 57 51  2  0  0  0  0
 59 60  2  0  0  0  0
 60 58  1  0  0  0  0
 62 52  1  0  0  0  0
 63 52  1  1  0  0  0
 63 55  1  0  0  0  0
 63 56  1  0  0  0  0
 64 59  1  0  0  0  0
 64 62  2  0  0  0  0
 66 62  1  0  0  0  0
 66 65  1  0  0  0  0
M  END
>  <MODEL>
4

>  <REMARK>
 VINA RESULT:      -7.7      2.233     10.338
  Name = 
  10 active torsions:
  status: ('A' for Active; 'I' for Inactive)
    1  A    between atoms: C_6  and  C_30
    2  A    between atoms: C_6  and  C_51
    3  A    between atoms: O_13  and  C_65
    4  A    between atoms: C_15  and  C_54
    5  A    between atoms: C_17  and  N_60
    6  A    between atoms: N_21  and  N_60
    7  A    between atoms: C_27  and  C_51
    8  A    between atoms: C_30  and  C_56
    9  A    between atoms: N_39  and  N_62
   10  A    between atoms: C_53  and  C_55
                            x       y       z     vdW  Elec       q    Type
                         _______ _______ _______ _____ _____    ______ ____

>  <TORSDO>
F 10

$$$$
=
 OpenBabel11042419133D

 66 77  0  0  1  0  0  0  0  0999 V2000
  191.5720  173.7080  144.5960 C   0  0  0  0  0  2  0  0  0  0  0  0
  192.8540  170.4160  140.0420 N   0  0  0  0  0  0  0  0  0  0  0  0
  190.3800  174.0030  142.4740 C   0  0  0  0  0  2  0  0  0  0  0  0
  195.6320  173.1890  138.3450 C   0  0  0  0  0  3  0  0  0  0  0  0
  192.7940  174.5760  141.1820 C   0  0  0  0  0  2  0  0  0  0  0  0
  192.0560  170.8060  141.2050 C   0  0  2  0  0  3  0  0  0  0  0  0
  191.3560  175.1690  144.6100 N   0  0  0  0  0  0  0  0  0  0  0  0
  192.7200  173.1360  140.7400 C   0  0  2  0  0  3  0  0  0  0  0  0
  194.8570  173.5350  139.3700 C   0  0  0  0  0  3  0  0  0  0  0  0
  191.7790  172.2850  141.2280 C   0  0  2  0  0  3  0  0  0  0  0  0
  192.9220  174.6390  142.7080 C   0  0  0  0  0  2  0  0  0  0  0  0
  193.8180  171.3200  139.4750 C   0  0  0  0  0  0  0  0  0  0  0  0
  191.5580  174.4340  143.3440 C   0  0  1  0  0  0  0  0  0  0  0  0
  193.8110  172.6150  139.8680 C   0  0  0  0  0  0  0  0  0  0  0  0
  195.3810  171.9020  137.6120 C   0  0  2  0  0  3  0  0  0  0  0  0
  192.8110  169.0250  139.6260 C   0  0  0  0  0  1  0  0  0  0  0  0
  190.6240  172.7040  141.9280 O   0  0  0  0  0  0  0  0  0  0  0  0
  194.9170  170.8060  138.5760 C   0  0  0  0  0  2  0  0  0  0  0  0
  193.5390  168.3260  145.3430 C   0  0  0  0  0  3  0  0  0  0  0  0
  193.3260  169.2530  144.3330 C   0  0  0  0  0  0  0  0  0  0  0  0
  194.7970  168.6820  145.8590 C   0  0  0  0  0  3  0  0  0  0  0  0
  194.3270  171.0760  142.9140 S   0  0  0  0  0  0  0  0  0  0  0  0
  192.3690  169.4460  143.3620 C   0  0  0  0  0  3  0  0  0  0  0  0
  194.3860  170.0560  144.2470 C   0  0  0  0  0  0  0  0  0  0  0  0
  192.7810  170.4660  142.4760 C   0  0  0  0  0  0  0  0  0  0  0  0
  195.3030  169.7400  145.1660 N   0  0  0  0  0  0  0  0  0  0  0  0
  197.4500  170.6050  144.4220 C   0  0  0  0  0  0  0  0  0  0  0  0
  197.9410  171.9840  144.1040 C   0  0  0  0  0  2  0  0  0  0  0  0
  197.8600  169.5660  143.7040 C   0  0  0  0  0  2  0  0  0  0  0  0
  196.1050  172.8360  145.7660 C   0  0  1  0  0  3  0  0  0  0  0  0
  196.8720  173.0330  144.4370 C   0  0  1  0  0  3  0  0  0  0  0  0
  196.4320  171.5040  146.4590 C   0  0  0  0  0  2  0  0  0  0  0  0
  196.4850  170.4320  145.4700 N   0  0  0  0  0  0  0  0  0  0  0  0
  197.3170  173.7510  145.6980 C   0  0  0  0  0  2  0  0  0  0  0  0
  196.9700  170.3370  136.8320 O   0  0  0  0  0  0  0  0  0  0  0  0
  196.5730  171.4920  136.8140 C   0  0  0  0  0  0  0  0  0  0  0  0
  197.3050  172.5270  136.0260 C   0  0  0  0  0  2  0  0  0  0  0  0
  196.6210  172.7590  134.6920 C   0  0  0  0  0  2  0  0  0  0  0  0
  195.0060  174.6080  135.2450 C   0  0  1  0  0  3  0  0  0  0  0  0
  196.3000  174.2310  134.5130 C   0  0  1  0  0  3  0  0  0  0  0  0
  197.2040  176.4150  135.1670 C   0  0  0  0  0  3  0  0  0  0  0  0
  194.8200  176.0690  135.2260 N   0  0  0  0  0  0  0  0  0  0  0  0
  193.3830  177.9150  135.3140 O   0  0  0  0  0  0  0  0  0  0  0  0
  195.9740  176.9250  135.2580 C   0  0  0  0  0  3  0  0  0  0  0  0
  193.9190  173.9550  134.6440 O   0  0  0  0  0  1  0  0  0  0  0  0
  197.3770  175.0430  134.9740 O   0  0  0  0  0  0  0  0  0  0  0  0
  193.5290  176.6670  135.4460 C   0  0  0  0  0  0  0  0  0  0  0  0
  192.4420  175.8690  135.8160 O   0  0  0  0  0  0  0  0  0  0  0  0
  191.2040  175.9220  135.1360 C   0  0  0  0  0  1  0  0  0  0  0  0
  189.9760  175.4120  144.7890 N   0  0  0  0  0  2  0  0  0  0  0  0
  189.6820  177.2750  142.1660 O   0  0  0  0  0  0  0  0  0  0  0  0
  186.9570  177.2890  144.3440 N   0  0  0  0  0  0  0  0  0  0  0  0
  189.8230  176.7170  145.4200 C   0  0  1  0  0  3  0  0  0  0  0  0
  187.4840  176.9120  143.0350 C   0  0  2  0  0  3  0  0  0  0  0  0
  189.3010  177.8110  144.4680 C   0  0  1  0  0  3  0  0  0  0  0  0
  188.4940  176.7400  146.1700 C   0  0  1  0  0  3  0  0  0  0  0  0
  188.9010  177.3460  143.1020 C   0  0  0  0  0  0  0  0  0  0  0  0
  187.1910  177.5280  140.5180 C   0  0  0  0  0  1  0  0  0  0  0  0
  185.3920  177.8470  142.1220 C   0  0  0  0  0  3  0  0  0  0  0  0
  186.6730  177.5220  141.9140 C   0  0  0  0  0  0  0  0  0  0  0  0
  188.6870  177.2680  147.4480 O   0  0  0  0  0  1  0  0  0  0  0  0
  185.5540  177.5270  144.5370 C   0  0  0  0  0  0  0  0  0  0  0  0
  187.9800  177.8260  145.2430 C   0  0  2  0  0  3  0  0  0  0  0  0
  184.7940  177.7970  143.4690 C   0  0  0  0  0  3  0  0  0  0  0  0
  184.0550  178.5820  146.0270 O   0  0  0  0  0  1  0  0  0  0  0  0
  184.9520  177.5220  145.9060 C   0  0  0  0  0  2  0  0  0  0  0  0
  1  7  1  0  0  0  0
  2  6  1  0  0  0  0
  4  9  2  0  0  0  0
  5 11  1  0  0  0  0
  6 10  1  0  0  0  0
  6 25  1  1  0  0  0
  7 50  1  0  0  0  0
  8  5  1  1  0  0  0
  8 10  1  0  0  0  0
  9 14  1  0  0  0  0
 10 17  1  1  0  0  0
 11 13  1  0  0  0  0
 12 14  2  0  0  0  0
 12  2  1  0  0  0  0
 13  3  1  6  0  0  0
 13  1  1  0  0  0  0
 13  7  1  0  0  0  0
 14  8  1  0  0  0  0
 15 36  1  1  0  0  0
 15  4  1  0  0  0  0
 15 18  1  0  0  0  0
 16  2  1  0  0  0  0
 17  3  1  0  0  0  0
 18 12  1  0  0  0  0
 19 21  2  0  0  0  0
 20 19  1  0  0  0  0
 22 24  1  0  0  0  0
 23 20  1  0  0  0  0
 24 20  2  0  0  0  0
 24 26  1  0  0  0  0
 25 22  1  0  0  0  0
 25 23  2  0  0  0  0
 26 33  1  0  0  0  0
 26 21  1  0  0  0  0
 27 33  1  0  0  0  0
 28 27  1  0  0  0  0
 29 27  2  0  0  0  0
 30 34  1  1  0  0  0
 30 32  1  0  0  0  0
 31 28  1  1  0  0  0
 31 34  1  0  0  0  0
 31 30  1  0  0  0  0
 33 32  1  0  0  0  0
 36 35  2  0  0  0  0
 37 36  1  0  0  0  0
 38 37  1  0  0  0  0
 39 45  1  6  0  0  0
 40 38  1  1  0  0  0
 40 46  1  0  0  0  0
 40 39  1  0  0  0  0
 41 44  2  0  0  0  0
 42 39  1  0  0  0  0
 42 44  1  0  0  0  0
 42 47  1  0  0  0  0
 43 47  2  0  0  0  0
 46 41  1  0  0  0  0
 47 48  1  0  0  0  0
 49 48  1  0  0  0  0
 51 57  2  0  0  0  0
 52 62  1  0  0  0  0
 53 50  1  6  0  0  0
 53 56  1  0  0  0  0
 54 60  1  6  0  0  0
 54 57  1  0  0  0  0
 54 52  1  0  0  0  0
 55 57  1  6  0  0  0
 55 63  1  0  0  0  0
 55 53  1  0  0  0  0
 56 61  1  1  0  0  0
 58 60  1  0  0  0  0
 59 64  1  0  0  0  0
 60 59  2  0  0  0  0
 62 66  1  0  0  0  0
 63 52  1  6  0  0  0
 63 56  1  0  0  0  0
 64 62  2  0  0  0  0
 66 65  1  0  0  0  0
M  END
>  <MODEL>
5

>  <REMARK>
 VINA RESULT:      -7.6      1.819      2.588
  Name = 
  10 active torsions:
  status: ('A' for Active; 'I' for Inactive)
    1  A    between atoms: C_6  and  C_30
    2  A    between atoms: C_6  and  C_51
    3  A    between atoms: O_13  and  C_65
    4  A    between atoms: C_15  and  C_54
    5  A    between atoms: C_17  and  N_60
    6  A    between atoms: N_21  and  N_60
    7  A    between atoms: C_27  and  C_51
    8  A    between atoms: C_30  and  C_56
    9  A    between atoms: N_39  and  N_62
   10  A    between atoms: C_53  and  C_55
                            x       y       z     vdW  Elec       q    Type
                         _______ _______ _______ _____ _____    ______ ____

>  <TORSDO>
F 10

$$$$
=
 OpenBabel11042419133D

 66 77  0  0  1  0  0  0  0  0999 V2000
  193.1210  172.4460  143.2580 C   0  0  0  0  0  2  0  0  0  0  0  0
  189.6130  177.0120  142.9910 N   0  0  0  0  0  0  0  0  0  0  0  0
  190.9180  172.2620  142.1950 C   0  0  0  0  0  2  0  0  0  0  0  0
  187.4680  176.0470  146.5630 C   0  0  0  0  0  3  0  0  0  0  0  0
  189.6850  173.0080  144.5940 C   0  0  0  0  0  2  0  0  0  0  0  0
  190.5900  176.0660  142.4520 C   0  0  2  0  0  3  0  0  0  0  0  0
  192.7590  171.0620  143.6270 N   0  0  0  0  0  0  0  0  0  0  0  0
  189.6080  174.3690  143.9500 C   0  0  2  0  0  3  0  0  0  0  0  0
  188.3240  175.1830  146.0220 C   0  0  0  0  0  3  0  0  0  0  0  0
  190.2290  174.6400  142.7710 C   0  0  2  0  0  3  0  0  0  0  0  0
  191.1530  172.6160  144.7920 C   0  0  0  0  0  2  0  0  0  0  0  0
  188.9050  176.7240  144.2080 C   0  0  0  0  0  0  0  0  0  0  0  0
  191.7300  172.1120  143.4810 C   0  0  1  0  0  0  0  0  0  0  0  0
  188.9650  175.4720  144.7200 C   0  0  0  0  0  0  0  0  0  0  0  0
  187.0620  177.2780  145.8050 C   0  0  2  0  0  3  0  0  0  0  0  0
  189.5520  178.3370  142.3970 C   0  0  0  0  0  1  0  0  0  0  0  0
  190.7270  173.6470  141.8970 O   0  0  0  0  0  0  0  0  0  0  0  0
  188.2340  177.8300  144.9880 C   0  0  0  0  0  2  0  0  0  0  0  0
  194.2420  177.1530  145.7600 C   0  0  0  0  0  3  0  0  0  0  0  0
  193.4930  176.8700  144.6280 C   0  0  0  0  0  0  0  0  0  0  0  0
  195.5350  176.7200  145.4180 C   0  0  0  0  0  3  0  0  0  0  0  0
  193.4210  175.7070  142.3970 S   0  0  0  0  0  0  0  0  0  0  0  0
  192.1580  176.9350  144.2910 C   0  0  0  0  0  3  0  0  0  0  0  0
  194.2760  176.2890  143.7200 C   0  0  0  0  0  0  0  0  0  0  0  0
  191.9500  176.3250  143.0340 C   0  0  0  0  0  0  0  0  0  0  0  0
  195.5310  176.1850  144.1650 N   0  0  0  0  0  0  0  0  0  0  0  0
  196.7890  174.3460  143.1920 C   0  0  0  0  0  0  0  0  0  0  0  0
  196.9960  173.8840  141.7820 C   0  0  0  0  0  2  0  0  0  0  0  0
  196.6700  173.4630  144.1760 C   0  0  0  0  0  2  0  0  0  0  0  0
  196.5580  176.3700  141.0830 C   0  0  1  0  0  3  0  0  0  0  0  0
  196.3590  174.8640  140.7880 C   0  0  1  0  0  3  0  0  0  0  0  0
  197.2280  176.6350  142.4410 C   0  0  0  0  0  2  0  0  0  0  0  0
  196.6600  175.7510  143.4530 N   0  0  0  0  0  0  0  0  0  0  0  0
  197.4850  175.6380  140.1270 C   0  0  0  0  0  2  0  0  0  0  0  0
  187.0820  178.6990  147.6920 O   0  0  0  0  0  0  0  0  0  0  0  0
  186.4690  178.3030  146.7140 C   0  0  0  0  0  0  0  0  0  0  0  0
  185.0910  178.8030  146.4350 C   0  0  0  0  0  2  0  0  0  0  0  0
  185.0720  179.6220  145.1580 C   0  0  0  0  0  2  0  0  0  0  0  0
  183.5440  179.1610  143.2130 C   0  0  1  0  0  3  0  0  0  0  0  0
  184.8100  178.7260  143.9620 C   0  0  1  0  0  3  0  0  0  0  0  0
  185.8130  178.2040  141.7860 C   0  0  0  0  0  3  0  0  0  0  0  0
  183.4180  178.4100  141.9520 N   0  0  0  0  0  0  0  0  0  0  0  0
  182.0600  177.5490  140.2500 O   0  0  0  0  0  0  0  0  0  0  0  0
  184.6070  178.0180  141.2460 C   0  0  0  0  0  3  0  0  0  0  0  0
  182.4220  178.9600  144.0310 O   0  0  0  0  0  1  0  0  0  0  0  0
  185.9260  178.7260  143.0750 O   0  0  0  0  0  0  0  0  0  0  0  0
  182.1560  178.2900  141.2690 C   0  0  0  0  0  0  0  0  0  0  0  0
  181.0430  179.0030  141.7260 O   0  0  0  0  0  0  0  0  0  0  0  0
  180.3580  179.9310  140.9090 C   0  0  0  0  0  1  0  0  0  0  0  0
  192.7820  170.2710  142.4570 N   0  0  0  0  0  2  0  0  0  0  0  0
  191.7470  168.1660  140.2360 O   0  0  0  0  0  0  0  0  0  0  0  0
  195.0040  169.3370  139.8070 N   0  0  0  0  0  0  0  0  0  0  0  0
  193.7490  169.1980  142.6540 C   0  0  1  0  0  3  0  0  0  0  0  0
  193.6310  169.3110  139.3110 C   0  0  2  0  0  3  0  0  0  0  0  0
  193.7740  168.1660  141.5090 C   0  0  1  0  0  3  0  0  0  0  0  0
  195.1250  169.7010  142.2250 C   0  0  1  0  0  3  0  0  0  0  0  0
  192.9210  168.4910  140.3230 C   0  0  0  0  0  0  0  0  0  0  0  0
  192.2590  168.3940  137.2920 C   0  0  0  0  0  1  0  0  0  0  0  0
  194.6280  168.9050  137.0920 C   0  0  0  0  0  3  0  0  0  0  0  0
  193.5620  168.7910  137.8930 C   0  0  0  0  0  0  0  0  0  0  0  0
  196.0700  169.3640  143.1960 O   0  0  0  0  0  1  0  0  0  0  0  0
  196.1090  169.5650  138.9170 C   0  0  0  0  0  0  0  0  0  0  0  0
  195.1600  168.6780  141.1050 C   0  0  2  0  0  3  0  0  0  0  0  0
  195.9320  169.3580  137.6070 C   0  0  0  0  0  3  0  0  0  0  0  0
  197.6410  171.3410  139.1970 O   0  0  0  0  0  1  0  0  0  0  0  0
  197.4460  169.9820  139.4390 C   0  0  0  0  0  2  0  0  0  0  0  0
  1 13  1  0  0  0  0
  1  7  1  0  0  0  0
  2 12  1  0  0  0  0
  5 11  1  0  0  0  0
  6 10  1  0  0  0  0
  6  2  1  0  0  0  0
  6 25  1  1  0  0  0
  8  5  1  1  0  0  0
  8 14  1  0  0  0  0
  9  4  2  0  0  0  0
 10 17  1  1  0  0  0
 10  8  1  0  0  0  0
 12 14  2  0  0  0  0
 12 18  1  0  0  0  0
 13  3  1  6  0  0  0
 13  7  1  0  0  0  0
 13 11  1  0  0  0  0
 14  9  1  0  0  0  0
 15  4  1  0  0  0  0
 15 36  1  1  0  0  0
 16  2  1  0  0  0  0
 17  3  1  0  0  0  0
 18 15  1  0  0  0  0
 20 19  1  0  0  0  0
 21 19  2  0  0  0  0
 22 25  1  0  0  0  0
 22 24  1  0  0  0  0
 23 20  1  0  0  0  0
 24 26  1  0  0  0  0
 24 20  2  0  0  0  0
 25 23  2  0  0  0  0
 26 21  1  0  0  0  0
 27 33  1  0  0  0  0
 27 29  2  0  0  0  0
 28 27  1  0  0  0  0
 30 34  1  6  0  0  0
 30 32  1  0  0  0  0
 31 34  1  6  0  0  0
 31 30  1  0  0  0  0
 31 28  1  0  0  0  0
 32 33  1  0  0  0  0
 33 26  1  0  0  0  0
 36 35  2  0  0  0  0
 37 36  1  0  0  0  0
 38 37  1  0  0  0  0
 39 40  1  0  0  0  0
 39 45  1  1  0  0  0
 40 38  1  1  0  0  0
 41 46  1  0  0  0  0
 42 39  1  0  0  0  0
 43 47  2  0  0  0  0
 44 41  2  0  0  0  0
 44 42  1  0  0  0  0
 46 40  1  0  0  0  0
 47 48  1  0  0  0  0
 47 42  1  0  0  0  0
 49 48  1  0  0  0  0
 50  7  1  0  0  0  0
 51 57  2  0  0  0  0
 53 50  1  6  0  0  0
 54 60  1  6  0  0  0
 54 52  1  0  0  0  0
 54 57  1  0  0  0  0
 55 57  1  6  0  0  0
 55 53  1  0  0  0  0
 56 53  1  0  0  0  0
 56 61  1  1  0  0  0
 58 60  1  0  0  0  0
 59 64  1  0  0  0  0
 59 60  2  0  0  0  0
 62 66  1  0  0  0  0
 62 52  1  0  0  0  0
 63 52  1  6  0  0  0
 63 55  1  0  0  0  0
 63 56  1  0  0  0  0
 64 62  2  0  0  0  0
 65 66  1  0  0  0  0
M  END
>  <MODEL>
6

>  <REMARK>
 VINA RESULT:      -7.4      2.606     10.925
  Name = 
  10 active torsions:
  status: ('A' for Active; 'I' for Inactive)
    1  A    between atoms: C_6  and  C_30
    2  A    between atoms: C_6  and  C_51
    3  A    between atoms: O_13  and  C_65
    4  A    between atoms: C_15  and  C_54
    5  A    between atoms: C_17  and  N_60
    6  A    between atoms: N_21  and  N_60
    7  A    between atoms: C_27  and  C_51
    8  A    between atoms: C_30  and  C_56
    9  A    between atoms: N_39  and  N_62
   10  A    between atoms: C_53  and  C_55
                            x       y       z     vdW  Elec       q    Type
                         _______ _______ _______ _____ _____    ______ ____

>  <TORSDO>
F 10

$$$$
=
 OpenBabel11042419133D

 66 77  0  0  1  0  0  0  0  0999 V2000
  194.0920  173.3200  140.1650 C   0  0  0  0  0  2  0  0  0  0  0  0
  190.4260  172.5020  144.5360 N   0  0  0  0  0  0  0  0  0  0  0  0
  194.9320  172.9170  142.4330 C   0  0  0  0  0  2  0  0  0  0  0  0
  190.3890  176.5980  145.7660 C   0  0  0  0  0  3  0  0  0  0  0  0
  193.5840  175.1910  143.3500 C   0  0  0  0  0  2  0  0  0  0  0  0
  191.3560  172.0640  143.4960 C   0  0  2  0  0  3  0  0  0  0  0  0
  195.3010  174.1700  140.1590 N   0  0  0  0  0  0  0  0  0  0  0  0
  192.5520  174.1980  143.8210 C   0  0  2  0  0  3  0  0  0  0  0  0
  191.2600  176.1620  144.8590 C   0  0  0  0  0  3  0  0  0  0  0  0
  192.6200  172.8820  143.4890 C   0  0  2  0  0  3  0  0  0  0  0  0
  193.6780  175.1480  141.8210 C   0  0  0  0  0  2  0  0  0  0  0  0
  190.3720  173.8800  144.9420 C   0  0  0  0  0  0  0  0  0  0  0  0
  194.5170  173.9560  141.3930 C   0  0  1  0  0  0  0  0  0  0  0  0
  191.3510  174.7220  144.5330 C   0  0  0  0  0  0  0  0  0  0  0  0
  189.5620  175.6180  146.5480 C   0  0  2  0  0  3  0  0  0  0  0  0
  189.4090  171.5630  144.9760 C   0  0  0  0  0  1  0  0  0  0  0  0
  193.7750  172.2620  142.9580 O   0  0  0  0  0  0  0  0  0  0  0  0
  189.1690  174.4190  145.6800 C   0  0  0  0  0  2  0  0  0  0  0  0
  188.7980  173.9700  139.5850 C   0  0  0  0  0  3  0  0  0  0  0  0
  189.5100  173.1700  140.4650 C   0  0  0  0  0  0  0  0  0  0  0  0
  189.1000  173.4260  138.3250 C   0  0  0  0  0  3  0  0  0  0  0  0
  191.2610  171.3790  140.7260 S   0  0  0  0  0  0  0  0  0  0  0  0
  189.7580  173.1780  141.8210 C   0  0  0  0  0  3  0  0  0  0  0  0
  190.1950  172.2610  139.7730 C   0  0  0  0  0  0  0  0  0  0  0  0
  190.7270  172.2010  142.1370 C   0  0  0  0  0  0  0  0  0  0  0  0
  189.9660  172.3830  138.4630 N   0  0  0  0  0  0  0  0  0  0  0  0
  191.8020  171.5140  137.1270 C   0  0  0  0  0  0  0  0  0  0  0  0
  192.5270  170.2030  137.1170 C   0  0  0  0  0  2  0  0  0  0  0  0
  192.4620  172.6460  136.9110 C   0  0  0  0  0  2  0  0  0  0  0  0
  190.3210  169.1710  138.0820 C   0  0  1  0  0  3  0  0  0  0  0  0
  191.8680  169.2100  138.0830 C   0  0  1  0  0  3  0  0  0  0  0  0
  189.6910  170.2770  137.2200 C   0  0  0  0  0  2  0  0  0  0  0  0
  190.4000  171.5340  137.4330 N   0  0  0  0  0  0  0  0  0  0  0  0
  191.1220  168.1870  137.2450 C   0  0  0  0  0  2  0  0  0  0  0  0
  187.6690  175.6800  147.9610 O   0  0  0  0  0  0  0  0  0  0  0  0
  188.3800  176.2820  147.1710 C   0  0  0  0  0  0  0  0  0  0  0  0
  188.0490  177.6830  146.7780 C   0  0  0  0  0  2  0  0  0  0  0  0
  186.5840  177.9760  147.0430 C   0  0  0  0  0  2  0  0  0  0  0  0
  186.0640  177.6710  144.6000 C   0  0  1  0  0  3  0  0  0  0  0  0
  185.9400  178.5950  145.8170 C   0  0  1  0  0  3  0  0  0  0  0  0
  183.7070  179.2120  145.0110 C   0  0  0  0  0  3  0  0  0  0  0  0
  185.2660  178.1970  143.4790 N   0  0  0  0  0  0  0  0  0  0  0  0
  184.8900  178.3480  141.1740 O   0  0  0  0  0  0  0  0  0  0  0  0
  184.0470  178.9070  143.7580 C   0  0  0  0  0  3  0  0  0  0  0  0
  187.4150  177.5470  144.2400 O   0  0  0  0  0  1  0  0  0  0  0  0
  184.5690  178.8970  146.0640 O   0  0  0  0  0  0  0  0  0  0  0  0
  185.5190  177.7960  142.1200 C   0  0  0  0  0  0  0  0  0  0  0  0
  186.4500  176.7880  141.8500 O   0  0  0  0  0  0  0  0  0  0  0  0
  187.4650  176.9440  140.8780 C   0  0  0  0  0  1  0  0  0  0  0  0
  196.4350  173.3280  140.1790 N   0  0  0  0  0  2  0  0  0  0  0  0
  197.5090  170.6860  138.6620 O   0  0  0  0  0  0  0  0  0  0  0  0
  196.1350  173.1530  136.6140 N   0  0  0  0  0  0  0  0  0  0  0  0
  197.4560  173.9230  139.3270 C   0  0  1  0  0  3  0  0  0  0  0  0
  196.0140  171.8080  137.1700 C   0  0  2  0  0  3  0  0  0  0  0  0
  197.9400  172.9940  138.1950 C   0  0  1  0  0  3  0  0  0  0  0  0
  196.7690  174.8150  138.2970 C   0  0  1  0  0  3  0  0  0  0  0  0
  197.2000  171.7000  138.0560 C   0  0  0  0  0  0  0  0  0  0  0  0
  196.0960  169.3180  136.4000 C   0  0  0  0  0  1  0  0  0  0  0  0
  195.4550  171.1000  134.8760 C   0  0  0  0  0  3  0  0  0  0  0  0
  195.9230  170.7630  136.0820 C   0  0  0  0  0  0  0  0  0  0  0  0
  197.4300  176.0430  138.2250 O   0  0  0  0  0  1  0  0  0  0  0  0
  195.5250  173.4920  135.3590 C   0  0  0  0  0  0  0  0  0  0  0  0
  197.2530  173.9110  137.1770 C   0  0  2  0  0  3  0  0  0  0  0  0
  195.1940  172.5060  134.5160 C   0  0  0  0  0  3  0  0  0  0  0  0
  193.9390  175.1380  134.7610 O   0  0  0  0  0  1  0  0  0  0  0  0
  195.3000  174.9190  134.9710 C   0  0  0  0  0  2  0  0  0  0  0  0
  2 12  1  0  0  0  0
  2 16  1  0  0  0  0
  3 17  1  0  0  0  0
  4 15  1  0  0  0  0
  6 25  1  6  0  0  0
  6  2  1  0  0  0  0
  7  1  1  0  0  0  0
  7 50  1  0  0  0  0
  7 13  1  0  0  0  0
  8  5  1  6  0  0  0
  8 14  1  0  0  0  0
  9  4  2  0  0  0  0
 10 17  1  6  0  0  0
 10  6  1  0  0  0  0
 10  8  1  0  0  0  0
 11  5  1  0  0  0  0
 12 18  1  0  0  0  0
 13  1  1  6  0  0  0
 13 11  1  0  0  0  0
 13  3  1  0  0  0  0
 14  9  1  0  0  0  0
 14 12  2  0  0  0  0
 15 36  1  6  0  0  0
 18 15  1  0  0  0  0
 19 20  1  0  0  0  0
 20 23  1  0  0  0  0
 21 26  1  0  0  0  0
 21 19  2  0  0  0  0
 22 25  1  0  0  0  0
 23 25  2  0  0  0  0
 24 20  2  0  0  0  0
 24 22  1  0  0  0  0
 26 24  1  0  0  0  0
 27 33  1  0  0  0  0
 28 27  1  0  0  0  0
 29 27  2  0  0  0  0
 30 32  1  6  0  0  0
 30 31  1  0  0  0  0
 31 28  1  6  0  0  0
 32 33  1  0  0  0  0
 33 26  1  0  0  0  0
 34 30  1  0  0  0  0
 34 31  1  0  0  0  0
 36 35  2  0  0  0  0
 37 38  1  0  0  0  0
 37 36  1  0  0  0  0
 39 45  1  6  0  0  0
 39 40  1  0  0  0  0
 40 46  1  0  0  0  0
 40 38  1  1  0  0  0
 41 46  1  0  0  0  0
 42 44  1  0  0  0  0
 42 39  1  0  0  0  0
 43 47  2  0  0  0  0
 44 41  2  0  0  0  0
 47 42  1  0  0  0  0
 48 47  1  0  0  0  0
 49 48  1  0  0  0  0
 52 54  1  0  0  0  0
 53 50  1  1  0  0  0
 54 60  1  6  0  0  0
 54 57  1  0  0  0  0
 55 57  1  1  0  0  0
 55 53  1  0  0  0  0
 56 61  1  6  0  0  0
 56 53  1  0  0  0  0
 57 51  2  0  0  0  0
 59 60  2  0  0  0  0
 60 58  1  0  0  0  0
 62 52  1  0  0  0  0
 63 52  1  1  0  0  0
 63 55  1  0  0  0  0
 63 56  1  0  0  0  0
 64 59  1  0  0  0  0
 64 62  2  0  0  0  0
 65 66  1  0  0  0  0
 66 62  1  0  0  0  0
M  END
>  <MODEL>
7

>  <REMARK>
 VINA RESULT:      -7.4      2.459     10.895
  Name = 
  10 active torsions:
  status: ('A' for Active; 'I' for Inactive)
    1  A    between atoms: C_6  and  C_30
    2  A    between atoms: C_6  and  C_51
    3  A    between atoms: O_13  and  C_65
    4  A    between atoms: C_15  and  C_54
    5  A    between atoms: C_17  and  N_60
    6  A    between atoms: N_21  and  N_60
    7  A    between atoms: C_27  and  C_51
    8  A    between atoms: C_30  and  C_56
    9  A    between atoms: N_39  and  N_62
   10  A    between atoms: C_53  and  C_55
                            x       y       z     vdW  Elec       q    Type
                         _______ _______ _______ _____ _____    ______ ____

>  <TORSDO>
F 10

$$$$
=
 OpenBabel11042419133D

 66 77  0  0  1  0  0  0  0  0999 V2000
  194.1840  173.6750  141.3770 C   0  0  0  0  0  2  0  0  0  0  0  0
  190.2480  173.7090  145.5870 N   0  0  0  0  0  0  0  0  0  0  0  0
  194.8310  174.2190  143.6790 C   0  0  0  0  0  2  0  0  0  0  0  0
  189.4350  177.8980  145.3070 C   0  0  0  0  0  3  0  0  0  0  0  0
  193.0510  176.3780  143.6820 C   0  0  0  0  0  2  0  0  0  0  0  0
  191.3410  173.1270  144.8080 C   0  0  2  0  0  3  0  0  0  0  0  0
  195.2370  174.6820  141.1300 N   0  0  0  0  0  0  0  0  0  0  0  0
  192.1440  175.4280  144.4230 C   0  0  2  0  0  3  0  0  0  0  0  0
  190.4560  177.3520  144.6490 C   0  0  0  0  0  3  0  0  0  0  0  0
  192.4540  174.1130  144.5740 C   0  0  2  0  0  3  0  0  0  0  0  0
  193.3130  175.8420  142.2700 C   0  0  0  0  0  2  0  0  0  0  0  0
  189.9350  175.1080  145.4840 C   0  0  0  0  0  0  0  0  0  0  0  0
  194.3700  174.7530  142.3240 C   0  0  1  0  0  0  0  0  0  0  0  0
  190.8070  175.9290  144.8520 C   0  0  0  0  0  0  0  0  0  0  0  0
  188.6940  177.1020  146.3430 C   0  0  2  0  0  3  0  0  0  0  0  0
  189.3510  172.8000  146.2800 C   0  0  0  0  0  1  0  0  0  0  0  0
  193.7420  173.5760  144.3470 O   0  0  0  0  0  0  0  0  0  0  0  0
  188.5910  175.6310  145.9310 C   0  0  0  0  0  2  0  0  0  0  0  0
  188.6960  172.9300  140.5150 C   0  0  0  0  0  3  0  0  0  0  0  0
  189.5480  172.6900  141.5820 C   0  0  0  0  0  0  0  0  0  0  0  0
  189.2960  172.2340  139.4510 C   0  0  0  0  0  3  0  0  0  0  0  0
  191.7750  171.7820  142.3280 S   0  0  0  0  0  0  0  0  0  0  0  0
  189.6370  173.1270  142.8860 C   0  0  0  0  0  3  0  0  0  0  0  0
  190.5730  171.9490  141.1660 C   0  0  0  0  0  0  0  0  0  0  0  0
  190.8470  172.6810  143.4610 C   0  0  0  0  0  0  0  0  0  0  0  0
  190.4510  171.6470  139.8710 N   0  0  0  0  0  0  0  0  0  0  0  0
  190.9480  169.3820  139.1390 C   0  0  0  0  0  0  0  0  0  0  0  0
  190.7380  168.6570  137.8450 C   0  0  0  0  0  2  0  0  0  0  0  0
  190.7940  168.7470  140.2950 C   0  0  0  0  0  2  0  0  0  0  0  0
  190.8550  171.0130  136.7050 C   0  0  1  0  0  3  0  0  0  0  0  0
  190.2030  169.6110  136.7680 C   0  0  1  0  0  3  0  0  0  0  0  0
  191.8280  171.2780  137.8640 C   0  0  0  0  0  2  0  0  0  0  0  0
  191.2570  170.7830  139.1120 N   0  0  0  0  0  0  0  0  0  0  0  0
  191.3410  169.8900  135.8020 C   0  0  0  0  0  2  0  0  0  0  0  0
  187.1140  178.1570  147.7480 O   0  0  0  0  0  0  0  0  0  0  0  0
  187.3630  177.7060  146.6410 C   0  0  0  0  0  0  0  0  0  0  0  0
  186.3180  177.7090  145.5750 C   0  0  0  0  0  2  0  0  0  0  0  0
  186.0580  179.1230  145.0920 C   0  0  0  0  0  2  0  0  0  0  0  0
  186.1660  178.2010  142.7530 C   0  0  1  0  0  3  0  0  0  0  0  0
  185.3960  179.1010  143.7270 C   0  0  1  0  0  3  0  0  0  0  0  0
  183.3220  178.3040  142.6890 C   0  0  0  0  0  3  0  0  0  0  0  0
  185.4040  178.0360  141.5040 N   0  0  0  0  0  0  0  0  0  0  0  0
  185.3800  177.5910  139.2060 O   0  0  0  0  0  0  0  0  0  0  0  0
  183.9670  178.0280  141.5530 C   0  0  0  0  0  3  0  0  0  0  0  0
  187.4300  178.7540  142.5010 O   0  0  0  0  0  1  0  0  0  0  0  0
  184.0420  178.6670  143.8280 O   0  0  0  0  0  0  0  0  0  0  0  0
  186.0400  177.6170  140.2820 C   0  0  0  0  0  0  0  0  0  0  0  0
  187.3830  177.2270  140.2920 O   0  0  0  0  0  0  0  0  0  0  0  0
  187.7720  175.8760  140.4460 C   0  0  0  0  0  1  0  0  0  0  0  0
  196.4810  174.1200  141.4940 N   0  0  0  0  0  2  0  0  0  0  0  0
  197.7180  171.1530  141.1770 O   0  0  0  0  0  0  0  0  0  0  0  0
  196.0740  172.4130  138.3710 N   0  0  0  0  0  0  0  0  0  0  0  0
  197.4200  174.3520  140.4030 C   0  0  1  0  0  3  0  0  0  0  0  0
  196.0840  171.4330  139.4540 C   0  0  2  0  0  3  0  0  0  0  0  0
  197.9390  173.0580  139.7450 C   0  0  1  0  0  3  0  0  0  0  0  0
  196.6260  174.6720  139.1400 C   0  0  1  0  0  3  0  0  0  0  0  0
  197.3050  171.7880  140.2200 C   0  0  0  0  0  0  0  0  0  0  0  0
  196.3460  168.8640  139.8130 C   0  0  0  0  0  1  0  0  0  0  0  0
  195.5070  169.7760  137.7220 C   0  0  0  0  0  3  0  0  0  0  0  0
  196.0420  170.0180  138.9230 C   0  0  0  0  0  0  0  0  0  0  0  0
  197.1800  175.7870  138.5090 O   0  0  0  0  0  1  0  0  0  0  0  0
  195.3950  172.1430  137.1350 C   0  0  0  0  0  0  0  0  0  0  0  0
  197.1440  173.4050  138.4820 C   0  0  2  0  0  3  0  0  0  0  0  0
  195.1180  170.8720  136.8170 C   0  0  0  0  0  3  0  0  0  0  0  0
  194.1080  174.0940  136.7940 O   0  0  0  0  0  1  0  0  0  0  0  0
  195.0390  173.2480  136.1930 C   0  0  0  0  0  2  0  0  0  0  0  0
  2 16  1  0  0  0  0
  3 17  1  0  0  0  0
  4 15  1  0  0  0  0
  6 25  1  6  0  0  0
  6  2  1  0  0  0  0
  7  1  1  0  0  0  0
  7 50  1  0  0  0  0
  7 13  1  0  0  0  0
  8  5  1  6  0  0  0
  8 10  1  0  0  0  0
  8 14  1  0  0  0  0
  9 14  1  0  0  0  0
  9  4  2  0  0  0  0
 10 17  1  6  0  0  0
 10  6  1  0  0  0  0
 11 13  1  0  0  0  0
 11  5  1  0  0  0  0
 12  2  1  0  0  0  0
 12 18  1  0  0  0  0
 13  1  1  6  0  0  0
 13  3  1  0  0  0  0
 14 12  2  0  0  0  0
 15 36  1  6  0  0  0
 18 15  1  0  0  0  0
 19 20  1  0  0  0  0
 20 23  1  0  0  0  0
 21 26  1  0  0  0  0
 21 19  2  0  0  0  0
 22 25  1  0  0  0  0
 23 25  2  0  0  0  0
 24 20  2  0  0  0  0
 24 22  1  0  0  0  0
 26 24  1  0  0  0  0
 27 29  2  0  0  0  0
 28 27  1  0  0  0  0
 30 34  1  6  0  0  0
 30 31  1  0  0  0  0
 30 32  1  0  0  0  0
 31 34  1  6  0  0  0
 31 28  1  0  0  0  0
 32 33  1  0  0  0  0
 33 27  1  0  0  0  0
 33 26  1  0  0  0  0
 36 35  2  0  0  0  0
 37 36  1  0  0  0  0
 38 37  1  0  0  0  0
 39 45  1  6  0  0  0
 39 40  1  0  0  0  0
 40 46  1  0  0  0  0
 40 38  1  1  0  0  0
 41 46  1  0  0  0  0
 42 44  1  0  0  0  0
 42 39  1  0  0  0  0
 43 47  2  0  0  0  0
 44 41  2  0  0  0  0
 47 48  1  0  0  0  0
 47 42  1  0  0  0  0
 48 49  1  0  0  0  0
 52 54  1  0  0  0  0
 53 50  1  1  0  0  0
 54 60  1  6  0  0  0
 54 57  1  0  0  0  0
 55 57  1  1  0  0  0
 55 53  1  0  0  0  0
 56 61  1  6  0  0  0
 56 53  1  0  0  0  0
 57 51  2  0  0  0  0
 59 60  2  0  0  0  0
 60 58  1  0  0  0  0
 62 52  1  0  0  0  0
 63 52  1  1  0  0  0
 63 56  1  0  0  0  0
 63 55  1  0  0  0  0
 64 62  2  0  0  0  0
 64 59  1  0  0  0  0
 66 65  1  0  0  0  0
 66 62  1  0  0  0  0
M  END
>  <MODEL>
8

>  <REMARK>
 VINA RESULT:      -7.3      2.412     10.614
  Name = 
  10 active torsions:
  status: ('A' for Active; 'I' for Inactive)
    1  A    between atoms: C_6  and  C_30
    2  A    between atoms: C_6  and  C_51
    3  A    between atoms: O_13  and  C_65
    4  A    between atoms: C_15  and  C_54
    5  A    between atoms: C_17  and  N_60
    6  A    between atoms: N_21  and  N_60
    7  A    between atoms: C_27  and  C_51
    8  A    between atoms: C_30  and  C_56
    9  A    between atoms: N_39  and  N_62
   10  A    between atoms: C_53  and  C_55
                            x       y       z     vdW  Elec       q    Type
                         _______ _______ _______ _____ _____    ______ ____

>  <TORSDO>
F 10

$$$$
=
 OpenBabel11042419133D

 66 77  0  0  1  0  0  0  0  0999 V2000
  191.7050  173.7890  144.4570 C   0  0  0  0  0  2  0  0  0  0  0  0
  192.8900  170.3770  139.9650 N   0  0  0  0  0  0  0  0  0  0  0  0
  190.5220  174.0790  142.3280 C   0  0  0  0  0  2  0  0  0  0  0  0
  195.7480  173.0350  138.2180 C   0  0  0  0  0  3  0  0  0  0  0  0
  192.9520  174.5570  141.0280 C   0  0  0  0  0  2  0  0  0  0  0  0
  192.1040  170.8110  141.1200 C   0  0  2  0  0  3  0  0  0  0  0  0
  191.5320  175.2560  144.4430 N   0  0  0  0  0  0  0  0  0  0  0  0
  192.8360  173.1120  140.6130 C   0  0  2  0  0  3  0  0  0  0  0  0
  194.9840  173.4230  139.2370 C   0  0  0  0  0  3  0  0  0  0  0  0
  191.8710  172.2990  141.1160 C   0  0  2  0  0  3  0  0  0  0  0  0
  193.0820  174.6450  142.5520 C   0  0  0  0  0  2  0  0  0  0  0  0
  193.8800  171.2410  139.3820 C   0  0  0  0  0  0  0  0  0  0  0  0
  191.7130  174.4920  143.1920 C   0  0  1  0  0  0  0  0  0  0  0  0
  193.9110  172.5430  139.7510 C   0  0  0  0  0  0  0  0  0  0  0  0
  195.4590  171.7420  137.5100 C   0  0  2  0  0  3  0  0  0  0  0  0
  192.8070  168.9800  139.5760 C   0  0  0  0  0  1  0  0  0  0  0  0
  190.7280  172.7640  141.8070 O   0  0  0  0  0  0  0  0  0  0  0  0
  194.9640  170.6780  138.4940 C   0  0  0  0  0  2  0  0  0  0  0  0
  193.5580  168.3370  145.2720 C   0  0  0  0  0  3  0  0  0  0  0  0
  193.3520  169.2630  144.2610 C   0  0  0  0  0  0  0  0  0  0  0  0
  194.8100  168.6980  145.7990 C   0  0  0  0  0  3  0  0  0  0  0  0
  194.3580  171.0900  142.8500 S   0  0  0  0  0  0  0  0  0  0  0  0
  192.4020  169.4530  143.2800 C   0  0  0  0  0  3  0  0  0  0  0  0
  194.4090  170.0700  144.1840 C   0  0  0  0  0  0  0  0  0  0  0  0
  192.8190  170.4740  142.3990 C   0  0  0  0  0  0  0  0  0  0  0  0
  195.3180  169.7580  145.1110 N   0  0  0  0  0  0  0  0  0  0  0  0
  197.4580  170.6530  144.3800 C   0  0  0  0  0  0  0  0  0  0  0  0
  197.9380  172.0410  144.0850 C   0  0  0  0  0  2  0  0  0  0  0  0
  197.8760  169.6290  143.6450 C   0  0  0  0  0  2  0  0  0  0  0  0
  196.0950  172.8500  145.7630 C   0  0  1  0  0  3  0  0  0  0  0  0
  196.8590  173.0750  144.4360 C   0  0  1  0  0  3  0  0  0  0  0  0
  196.4340  171.5090  146.4330 C   0  0  0  0  0  2  0  0  0  0  0  0
  196.4950  170.4550  145.4260 N   0  0  0  0  0  0  0  0  0  0  0  0
  197.3000  173.7760  145.7090 C   0  0  0  0  0  2  0  0  0  0  0  0
  197.7740  171.4530  137.1360 O   0  0  0  0  0  0  0  0  0  0  0  0
  196.6390  171.2820  136.7200 C   0  0  0  0  0  0  0  0  0  0  0  0
  196.4130  170.6510  135.3870 C   0  0  0  0  0  2  0  0  0  0  0  0
  195.3140  171.3780  134.6350 C   0  0  0  0  0  2  0  0  0  0  0  0
  192.8440  171.8570  134.6830 C   0  0  1  0  0  3  0  0  0  0  0  0
  193.9520  170.8720  135.0730 C   0  0  1  0  0  3  0  0  0  0  0  0
  192.3970  169.0500  134.5460 C   0  0  0  0  0  3  0  0  0  0  0  0
  191.5220  171.2610  134.9370 N   0  0  0  0  0  0  0  0  0  0  0  0
  189.2440  171.5400  135.3990 O   0  0  0  0  0  0  0  0  0  0  0  0
  191.3500  169.8420  134.7820 C   0  0  0  0  0  3  0  0  0  0  0  0
  193.0030  173.0520  135.4030 O   0  0  0  0  0  1  0  0  0  0  0  0
  193.6850  169.5890  134.5130 O   0  0  0  0  0  0  0  0  0  0  0  0
  190.3410  172.0740  135.0730 C   0  0  0  0  0  0  0  0  0  0  0  0
  190.4080  173.4500  134.8320 O   0  0  0  0  0  0  0  0  0  0  0  0
  189.6150  174.3770  135.5440 C   0  0  0  0  0  1  0  0  0  0  0  0
  190.1600  175.5430  144.6160 N   0  0  0  0  0  2  0  0  0  0  0  0
  189.5530  177.3660  142.0200 O   0  0  0  0  0  0  0  0  0  0  0  0
  187.0720  177.3520  144.4710 N   0  0  0  0  0  0  0  0  0  0  0  0
  190.0460  176.8520  145.2470 C   0  0  1  0  0  3  0  0  0  0  0  0
  187.4660  176.9690  143.1180 C   0  0  2  0  0  3  0  0  0  0  0  0
  189.4030  177.9230  144.3420 C   0  0  1  0  0  3  0  0  0  0  0  0
  188.8020  176.8580  146.1310 C   0  0  1  0  0  3  0  0  0  0  0  0
  188.8730  177.4330  143.0310 C   0  0  0  0  0  0  0  0  0  0  0  0
  186.8990  177.5470  140.6390 C   0  0  0  0  0  1  0  0  0  0  0  0
  185.2710  177.8500  142.4190 C   0  0  0  0  0  3  0  0  0  0  0  0
  186.5300  177.5490  142.0810 C   0  0  0  0  0  0  0  0  0  0  0  0
  189.1160  177.4060  147.3760 O   0  0  0  0  0  1  0  0  0  0  0  0
  185.6910  177.5650  144.8070 C   0  0  0  0  0  0  0  0  0  0  0  0
  188.1710  177.9220  145.2510 C   0  0  2  0  0  3  0  0  0  0  0  0
  184.8190  177.8060  143.8210 C   0  0  0  0  0  3  0  0  0  0  0  0
  184.7180  178.8180  146.5570 O   0  0  0  0  0  1  0  0  0  0  0  0
  185.2360  177.5650  146.2310 C   0  0  0  0  0  2  0  0  0  0  0  0
  2  6  1  0  0  0  0
  4  9  2  0  0  0  0
  5 11  1  0  0  0  0
  6 25  1  1  0  0  0
  7  1  1  0  0  0  0
  7 50  1  0  0  0  0
  8  5  1  1  0  0  0
  8 10  1  0  0  0  0
  9 14  1  0  0  0  0
 10  6  1  0  0  0  0
 10 17  1  1  0  0  0
 11 13  1  0  0  0  0
 12 14  2  0  0  0  0
 12  2  1  0  0  0  0
 13  3  1  6  0  0  0
 13  7  1  0  0  0  0
 13  1  1  0  0  0  0
 14  8  1  0  0  0  0
 15 36  1  1  0  0  0
 15  4  1  0  0  0  0
 15 18  1  0  0  0  0
 16  2  1  0  0  0  0
 17  3  1  0  0  0  0
 18 12  1  0  0  0  0
 19 21  2  0  0  0  0
 20 19  1  0  0  0  0
 22 24  1  0  0  0  0
 23 20  1  0  0  0  0
 24 20  2  0  0  0  0
 24 26  1  0  0  0  0
 25 22  1  0  0  0  0
 25 23  2  0  0  0  0
 26 33  1  0  0  0  0
 26 21  1  0  0  0  0
 27 33  1  0  0  0  0
 28 27  1  0  0  0  0
 29 27  2  0  0  0  0
 30 34  1  1  0  0  0
 30 32  1  0  0  0  0
 31 28  1  1  0  0  0
 31 34  1  0  0  0  0
 31 30  1  0  0  0  0
 33 32  1  0  0  0  0
 36 35  2  0  0  0  0
 37 36  1  0  0  0  0
 38 37  1  0  0  0  0
 39 42  1  0  0  0  0
 39 40  1  0  0  0  0
 39 45  1  1  0  0  0
 40 38  1  6  0  0  0
 41 44  2  0  0  0  0
 42 47  1  0  0  0  0
 44 42  1  0  0  0  0
 46 41  1  0  0  0  0
 46 40  1  0  0  0  0
 47 43  2  0  0  0  0
 48 47  1  0  0  0  0
 48 49  1  0  0  0  0
 51 57  2  0  0  0  0
 52 62  1  0  0  0  0
 53 50  1  6  0  0  0
 53 56  1  0  0  0  0
 54 60  1  6  0  0  0
 54 52  1  0  0  0  0
 55 57  1  6  0  0  0
 55 53  1  0  0  0  0
 55 63  1  0  0  0  0
 56 61  1  1  0  0  0
 57 54  1  0  0  0  0
 58 60  1  0  0  0  0
 59 64  1  0  0  0  0
 60 59  2  0  0  0  0
 62 66  1  0  0  0  0
 63 52  1  6  0  0  0
 63 56  1  0  0  0  0
 64 62  2  0  0  0  0
 66 65  1  0  0  0  0
M  END
>  <MODEL>
9

>  <REMARK>
 VINA RESULT:      -6.9      2.019      3.224
  Name = 
  10 active torsions:
  status: ('A' for Active; 'I' for Inactive)
    1  A    between atoms: C_6  and  C_30
    2  A    between atoms: C_6  and  C_51
    3  A    between atoms: O_13  and  C_65
    4  A    between atoms: C_15  and  C_54
    5  A    between atoms: C_17  and  N_60
    6  A    between atoms: N_21  and  N_60
    7  A    between atoms: C_27  and  C_51
    8  A    between atoms: C_30  and  C_56
    9  A    between atoms: N_39  and  N_62
   10  A    between atoms: C_53  and  C_55
                            x       y       z     vdW  Elec       q    Type
                         _______ _______ _______ _____ _____    ______ ____

>  <TORSDO>
F 10

$$$$
