=
 OpenBabel11042414553D

 39 43  0  0  1  0  0  0  0  0999 V2000
  189.0800  174.3830  142.1100 C   0  0  2  0  0  3  0  0  0  0  0  0
  190.7740  175.2850  146.1620 C   0  0  1  0  0  3  0  0  0  0  0  0
  191.6510  169.7440  140.1780 C   0  0  0  0  0  1  0  0  0  0  0  0
  186.8850  176.0230  143.3390 C   0  0  0  0  0  2  0  0  0  0  0  0
  191.8240  175.7460  143.0200 C   0  0  0  0  0  1  0  0  0  0  0  0
  191.6590  171.8610  141.5410 C   0  0  0  0  0  0  0  0  0  0  0  0
  189.0250  176.9220  145.3760 C   0  0  1  0  0  3  0  0  0  0  0  0
  191.1300  171.1120  140.4700 C   0  0  0  0  0  0  0  0  0  0  0  0
  192.4620  172.4500  144.1810 C   0  0  0  0  0  0  0  0  0  0  0  0
  191.1850  175.9160  147.3390 O   0  0  0  0  0  1  0  0  0  0  0  0
  190.4140  176.3420  145.0910 C   0  0  2  0  0  3  0  0  0  0  0  0
  190.0040  173.3100  144.2180 C   0  0  0  0  0  2  0  0  0  0  0  0
  189.0520  177.7480  146.5030 O   0  0  0  0  0  1  0  0  0  0  0  0
  187.2000  176.0930  141.8330 C   0  0  0  0  0  2  0  0  0  0  0  0
  189.6080  174.5640  143.4970 N   0  0  1  0  0  0  0  0  0  0  0  0
  188.4150  177.6720  144.1900 C   0  0  0  0  0  2  0  0  0  0  0  0
  191.4450  173.3020  144.7290 C   0  0  0  0  0  0  0  0  0  0  0  0
  189.9640  173.5470  141.2060 C   0  0  0  0  0  0  0  0  0  0  0  0
  187.0090  177.3010  144.0540 N   0  0  0  0  0  0  0  0  0  0  0  0
  189.4090  172.8080  140.1530 C   0  0  0  0  0  3  0  0  0  0  0  0
  190.4420  175.7780  143.6640 C   0  0  2  0  0  3  0  0  0  0  0  0
  191.1570  173.1210  141.7570 C   0  0  0  0  0  3  0  0  0  0  0  0
  194.1260  173.6200  145.5010 C   0  0  0  0  0  3  0  0  0  0  0  0
  193.1430  174.4350  146.0540 C   0  0  0  0  0  3  0  0  0  0  0  0
  190.0430  171.6290  139.7290 C   0  0  0  0  0  0  0  0  0  0  0  0
  193.7870  172.6420  144.5740 C   0  0  0  0  0  3  0  0  0  0  0  0
  191.8040  174.2800  145.6870 C   0  0  0  0  0  0  0  0  0  0  0  0
  192.1850  171.0270  143.0650 S   0  0  0  0  0  0  0  0  0  0  0  0
  188.6420  175.7100  141.4730 C   0  0  0  0  0  2  0  0  0  0  0  0
  189.5340  170.9370  138.6330 O   0  0  0  0  0  1  0  0  0  0  0  0
  186.3280  178.3010  143.3300 N   0  0  0  0  0  2  0  0  0  0  0  0
  184.1270  178.3420  142.4480 O   0  0  0  0  0  1  0  0  0  0  0  0
  184.8890  178.2490  143.6190 C   0  0  2  0  0  3  0  0  0  0  0  0
  184.5210  179.3810  144.5650 C   0  0  0  0  0  2  0  0  0  0  0  0
  183.6860  178.8760  145.6400 N   0  0  0  0  0  2  0  0  0  0  0  0
  184.4780  177.9930  146.3880 N   0  0  0  0  0  2  0  0  0  0  0  0
  185.4140  178.8050  147.1520 C   0  0  0  0  0  2  0  0  0  0  0  0
  186.1620  176.7310  147.6720 O   0  0  0  0  0  1  0  0  0  0  0  0
  186.0710  177.9920  148.1620 N   0  0  0  0  0  2  0  0  0  0  0  0
  1 29  1  6  0  0  0
  1 15  1  0  0  0  0
  2 10  1  1  0  0  0
  3  8  1  0  0  0  0
  4 19  1  0  0  0  0
  5 21  1  0  0  0  0
  6 22  1  0  0  0  0
  6 28  1  0  0  0  0
  7 13  1  1  0  0  0
  8  6  2  0  0  0  0
  9 26  2  0  0  0  0
  9 17  1  0  0  0  0
 11  7  1  0  0  0  0
 11  2  1  0  0  0  0
 12 17  1  0  0  0  0
 14  4  1  0  0  0  0
 15 21  1  0  0  0  0
 15 12  1  0  0  0  0
 16  7  1  0  0  0  0
 17 27  2  0  0  0  0
 18 22  2  0  0  0  0
 18  1  1  0  0  0  0
 19 16  1  0  0  0  0
 20 18  1  0  0  0  0
 21 11  1  0  0  0  0
 23 24  2  0  0  0  0
 25 20  2  0  0  0  0
 25  8  1  0  0  0  0
 26 23  1  0  0  0  0
 27 24  1  0  0  0  0
 27  2  1  0  0  0  0
 28  9  1  0  0  0  0
 29 14  1  0  0  0  0
 30 25  1  0  0  0  0
 31 33  1  0  0  0  0
 31 19  1  0  0  0  0
 32 33  1  0  0  0  0
 33 34  1  0  0  0  0
 34 35  1  0  0  0  0
 35 36  1  0  0  0  0
 36 37  1  0  0  0  0
 37 39  1  0  0  0  0
 38 39  1  0  0  0  0
M  END
>  <MODEL>
1

>  <REMARK>
 VINA RESULT:      -7.7      0.000      0.000
  Name = 
  7 active torsions:
  status: ('A' for Active; 'I' for Inactive)
    1  A    between atoms: C_3  and  N_23
    2  A    between atoms: C_3  and  N_27
    3  A    between atoms: N_9  and  N_27
    4  A    between atoms: N_9  and  C_32
    5  A    between atoms: N_22  and  N_25
    6  A    between atoms: N_25  and  C_39
    7  A    between atoms: C_32  and  C_39
                            x       y       z     vdW  Elec       q    Type
                         _______ _______ _______ _____ _____    ______ ____

>  <TORSDO>
F 7

$$$$
=
 OpenBabel11042414553D

 39 43  0  0  1  0  0  0  0  0999 V2000
  188.9750  174.8390  142.4940 C   0  0  2  0  0  3  0  0  0  0  0  0
  191.0520  175.1850  146.4530 C   0  0  1  0  0  3  0  0  0  0  0  0
  191.0660  170.3070  139.8600 C   0  0  0  0  0  1  0  0  0  0  0  0
  187.0010  176.4540  144.0810 C   0  0  0  0  0  2  0  0  0  0  0  0
  191.8690  175.9340  143.2980 C   0  0  0  0  0  1  0  0  0  0  0  0
  191.3260  172.2550  141.4340 C   0  0  0  0  0  0  0  0  0  0  0  0
  189.3560  176.9960  146.0040 C   0  0  1  0  0  3  0  0  0  0  0  0
  190.6630  171.6610  140.3410 C   0  0  0  0  0  0  0  0  0  0  0  0
  192.3800  172.4980  144.0390 C   0  0  0  0  0  0  0  0  0  0  0  0
  191.5990  175.6550  147.6500 O   0  0  0  0  0  1  0  0  0  0  0  0
  190.6760  176.3730  145.5370 C   0  0  2  0  0  3  0  0  0  0  0  0
  189.9960  173.4870  144.3860 C   0  0  0  0  0  2  0  0  0  0  0  0
  189.5300  177.6880  147.2070 O   0  0  0  0  0  1  0  0  0  0  0  0
  187.1960  176.6740  142.5690 C   0  0  0  0  0  2  0  0  0  0  0  0
  189.6260  174.8340  143.8410 N   0  0  1  0  0  0  0  0  0  0  0  0
  188.7020  177.9080  144.9640 C   0  0  0  0  0  2  0  0  0  0  0  0
  191.4700  173.3400  144.7630 C   0  0  0  0  0  0  0  0  0  0  0  0
  189.7250  174.0600  141.4320 C   0  0  0  0  0  0  0  0  0  0  0  0
  187.2680  177.6350  144.9140 N   0  0  0  0  0  0  0  0  0  0  0  0
  189.0370  173.4770  140.3600 C   0  0  0  0  0  3  0  0  0  0  0  0
  190.5500  175.9720  144.0610 C   0  0  2  0  0  3  0  0  0  0  0  0
  190.9270  173.5090  141.8260 C   0  0  0  0  0  3  0  0  0  0  0  0
  194.2210  173.4160  145.3240 C   0  0  0  0  0  3  0  0  0  0  0  0
  193.3420  174.2180  146.0460 C   0  0  0  0  0  3  0  0  0  0  0  0
  189.5550  172.3190  139.7580 C   0  0  0  0  0  0  0  0  0  0  0  0
  193.7420  172.5690  144.3320 C   0  0  0  0  0  3  0  0  0  0  0  0
  191.9710  174.1820  145.7850 C   0  0  0  0  0  0  0  0  0  0  0  0
  191.9190  171.2270  142.8080 S   0  0  0  0  0  0  0  0  0  0  0  0
  188.5750  176.2520  142.0450 C   0  0  0  0  0  2  0  0  0  0  0  0
  188.9130  171.7840  138.6440 O   0  0  0  0  0  1  0  0  0  0  0  0
  186.5980  178.7470  144.3650 N   0  0  0  0  0  2  0  0  0  0  0  0
  185.4110  178.3630  146.3820 O   0  0  0  0  0  1  0  0  0  0  0  0
  185.4410  179.1060  145.1950 C   0  0  2  0  0  3  0  0  0  0  0  0
  184.1620  178.8720  144.4080 C   0  0  0  0  0  2  0  0  0  0  0  0
  184.4210  179.0210  142.9880 N   0  0  0  0  0  2  0  0  0  0  0  0
  183.8190  177.9280  142.3490 N   0  0  0  0  0  2  0  0  0  0  0  0
  183.7330  178.2570  140.9340 C   0  0  0  0  0  2  0  0  0  0  0  0
  181.5880  178.9550  140.7220 O   0  0  0  0  0  1  0  0  0  0  0  0
  182.4140  177.9220  140.4230 N   0  0  0  0  0  2  0  0  0  0  0  0
  1 29  1  6  0  0  0
  1 15  1  0  0  0  0
  2 10  1  1  0  0  0
  3  8  1  0  0  0  0
  4 19  1  0  0  0  0
  5 21  1  0  0  0  0
  6 22  1  0  0  0  0
  6 28  1  0  0  0  0
  7 13  1  1  0  0  0
  8  6  2  0  0  0  0
  9 26  2  0  0  0  0
  9 17  1  0  0  0  0
 11  7  1  0  0  0  0
 11  2  1  0  0  0  0
 12 17  1  0  0  0  0
 14  4  1  0  0  0  0
 15 21  1  0  0  0  0
 15 12  1  0  0  0  0
 16  7  1  0  0  0  0
 17 27  2  0  0  0  0
 18 22  2  0  0  0  0
 18  1  1  0  0  0  0
 19 16  1  0  0  0  0
 20 18  1  0  0  0  0
 21 11  1  0  0  0  0
 23 24  2  0  0  0  0
 25  8  1  0  0  0  0
 25 20  2  0  0  0  0
 26 23  1  0  0  0  0
 27 24  1  0  0  0  0
 27  2  1  0  0  0  0
 28  9  1  0  0  0  0
 29 14  1  0  0  0  0
 30 25  1  0  0  0  0
 31 19  1  0  0  0  0
 31 33  1  0  0  0  0
 33 32  1  0  0  0  0
 34 33  1  0  0  0  0
 35 34  1  0  0  0  0
 36 35  1  0  0  0  0
 37 36  1  0  0  0  0
 39 38  1  0  0  0  0
 39 37  1  0  0  0  0
M  END
>  <MODEL>
2

>  <REMARK>
 VINA RESULT:      -7.5      1.373      2.521
  Name = 
  7 active torsions:
  status: ('A' for Active; 'I' for Inactive)
    1  A    between atoms: C_3  and  N_23
    2  A    between atoms: C_3  and  N_27
    3  A    between atoms: N_9  and  N_27
    4  A    between atoms: N_9  and  C_32
    5  A    between atoms: N_22  and  N_25
    6  A    between atoms: N_25  and  C_39
    7  A    between atoms: C_32  and  C_39
                            x       y       z     vdW  Elec       q    Type
                         _______ _______ _______ _____ _____    ______ ____

>  <TORSDO>
F 7

$$$$
=
 OpenBabel11042414553D

 39 43  0  0  1  0  0  0  0  0999 V2000
  192.0100  175.2180  145.2000 C   0  0  2  0  0  3  0  0  0  0  0  0
  189.1790  175.0790  141.7270 C   0  0  1  0  0  3  0  0  0  0  0  0
  196.9310  173.0540  143.4800 C   0  0  0  0  0  1  0  0  0  0  0  0
  190.0330  177.3550  145.9380 C   0  0  0  0  0  2  0  0  0  0  0  0
  190.3070  172.8310  143.9300 C   0  0  0  0  0  1  0  0  0  0  0  0
  194.4180  173.1620  143.3810 C   0  0  0  0  0  0  0  0  0  0  0  0
  188.1900  176.0360  143.8390 C   0  0  1  0  0  3  0  0  0  0  0  0
  195.6110  173.3710  144.1010 C   0  0  0  0  0  0  0  0  0  0  0  0
  192.5800  173.3420  141.2480 C   0  0  0  0  0  0  0  0  0  0  0  0
  188.0380  175.0400  140.9200 O   0  0  0  0  0  1  0  0  0  0  0  0
  188.8000  174.7850  143.1980 C   0  0  2  0  0  3  0  0  0  0  0  0
  191.8750  175.4060  142.6710 C   0  0  0  0  0  2  0  0  0  0  0  0
  186.9130  176.2870  143.3270 O   0  0  0  0  0  1  0  0  0  0  0  0
  190.7090  176.4760  147.0060 C   0  0  0  0  0  2  0  0  0  0  0  0
  191.1530  175.2420  143.9750 N   0  0  1  0  0  0  0  0  0  0  0  0
  188.1410  175.9840  145.3680 C   0  0  0  0  0  2  0  0  0  0  0  0
  191.5940  174.3060  141.6490 C   0  0  0  0  0  0  0  0  0  0  0  0
  193.1620  174.2350  145.1420 C   0  0  0  0  0  0  0  0  0  0  0  0
  188.5650  177.2710  145.9110 N   0  0  0  0  0  0  0  0  0  0  0  0
  194.3380  174.4720  145.8640 C   0  0  0  0  0  3  0  0  0  0  0  0
  189.9960  174.3190  144.0390 C   0  0  2  0  0  3  0  0  0  0  0  0
  193.2290  173.4540  144.0040 C   0  0  0  0  0  3  0  0  0  0  0  0
  190.8680  172.1230  140.0360 C   0  0  0  0  0  3  0  0  0  0  0  0
  189.9120  173.0660  140.4020 C   0  0  0  0  0  3  0  0  0  0  0  0
  195.5570  173.9650  145.3820 C   0  0  0  0  0  0  0  0  0  0  0  0
  192.1850  172.2620  140.4590 C   0  0  0  0  0  3  0  0  0  0  0  0
  190.2610  174.1620  141.1940 C   0  0  0  0  0  0  0  0  0  0  0  0
  194.3740  173.4370  141.5870 S   0  0  0  0  0  0  0  0  0  0  0  0
  191.1840  175.1110  146.4900 C   0  0  0  0  0  2  0  0  0  0  0  0
  196.7130  174.1360  146.1390 O   0  0  0  0  0  1  0  0  0  0  0  0
  188.0720  177.4120  147.2230 N   0  0  0  0  0  2  0  0  0  0  0  0
  186.8650  179.1350  148.3180 O   0  0  0  0  0  1  0  0  0  0  0  0
  186.8700  178.2570  147.2280 C   0  0  2  0  0  3  0  0  0  0  0  0
  185.6320  177.3750  147.2690 C   0  0  0  0  0  2  0  0  0  0  0  0
  184.9380  177.4370  145.9960 N   0  0  0  0  0  2  0  0  0  0  0  0
  184.2080  178.6340  145.9900 N   0  0  0  0  0  2  0  0  0  0  0  0
  184.2200  179.1320  144.6230 C   0  0  0  0  0  2  0  0  0  0  0  0
  185.8800  179.4290  143.1100 O   0  0  0  0  0  1  0  0  0  0  0  0
  185.4770  179.8080  144.3490 N   0  0  0  0  0  2  0  0  0  0  0  0
  1 29  1  1  0  0  0
  2 10  1  6  0  0  0
  2 11  1  0  0  0  0
  3  8  1  0  0  0  0
  4 14  1  0  0  0  0
  5 21  1  0  0  0  0
  6 22  2  0  0  0  0
  6  8  1  0  0  0  0
  7 13  1  6  0  0  0
  7 16  1  0  0  0  0
  8 25  2  0  0  0  0
  9 28  1  0  0  0  0
  9 17  1  0  0  0  0
 11  7  1  0  0  0  0
 11 21  1  0  0  0  0
 12 15  1  0  0  0  0
 15 21  1  0  0  0  0
 15  1  1  0  0  0  0
 16 19  1  0  0  0  0
 17 12  1  0  0  0  0
 18  1  1  0  0  0  0
 18 20  2  0  0  0  0
 19  4  1  0  0  0  0
 19 31  1  0  0  0  0
 22 18  1  0  0  0  0
 23 24  2  0  0  0  0
 23 26  1  0  0  0  0
 24 27  1  0  0  0  0
 25 20  1  0  0  0  0
 25 30  1  0  0  0  0
 26  9  2  0  0  0  0
 27 17  2  0  0  0  0
 27  2  1  0  0  0  0
 28  6  1  0  0  0  0
 29 14  1  0  0  0  0
 31 33  1  0  0  0  0
 33 34  1  0  0  0  0
 33 32  1  0  0  0  0
 35 34  1  0  0  0  0
 36 35  1  0  0  0  0
 37 36  1  0  0  0  0
 38 39  1  0  0  0  0
 39 37  1  0  0  0  0
M  END
>  <MODEL>
3

>  <REMARK>
 VINA RESULT:      -7.4      2.044      4.918
  Name = 
  7 active torsions:
  status: ('A' for Active; 'I' for Inactive)
    1  A    between atoms: C_3  and  N_23
    2  A    between atoms: C_3  and  N_27
    3  A    between atoms: N_9  and  N_27
    4  A    between atoms: N_9  and  C_32
    5  A    between atoms: N_22  and  N_25
    6  A    between atoms: N_25  and  C_39
    7  A    between atoms: C_32  and  C_39
                            x       y       z     vdW  Elec       q    Type
                         _______ _______ _______ _____ _____    ______ ____

>  <TORSDO>
F 7

$$$$
=
 OpenBabel11042414553D

 39 43  0  0  1  0  0  0  0  0999 V2000
  188.8640  176.1280  145.2760 C   0  0  2  0  0  3  0  0  0  0  0  0
  188.7580  174.7190  141.0210 C   0  0  1  0  0  3  0  0  0  0  0  0
  184.1260  179.0430  146.2290 C   0  0  0  0  0  1  0  0  0  0  0  0
  190.7350  173.7790  145.3630 C   0  0  0  0  0  2  0  0  0  0  0  0
  189.4500  177.6290  142.5160 C   0  0  0  0  0  1  0  0  0  0  0  0
  185.9610  178.2630  144.6910 C   0  0  0  0  0  0  0  0  0  0  0  0
  190.8320  174.0510  142.2880 C   0  0  1  0  0  3  0  0  0  0  0  0
  185.5140  178.5450  145.9980 C   0  0  0  0  0  0  0  0  0  0  0  0
  185.9570  177.1240  142.1110 C   0  0  0  0  0  0  0  0  0  0  0  0
  189.0990  174.2710  139.7420 O   0  0  0  0  0  1  0  0  0  0  0  0
  190.0160  175.2340  141.7580 C   0  0  2  0  0  3  0  0  0  0  0  0
  187.3120  175.3330  143.4300 C   0  0  0  0  0  2  0  0  0  0  0  0
  191.4540  173.3650  141.2400 O   0  0  0  0  0  1  0  0  0  0  0  0
  190.9620  175.0270  146.2370 C   0  0  0  0  0  2  0  0  0  0  0  0
  188.7160  175.5990  143.8850 N   0  0  1  0  0  0  0  0  0  0  0  0
  191.8670  174.4400  143.3460 C   0  0  0  0  0  2  0  0  0  0  0  0
  186.9160  176.0550  142.1420 C   0  0  0  0  0  0  0  0  0  0  0  0
  188.0030  177.3370  145.5840 C   0  0  0  0  0  0  0  0  0  0  0  0
  191.8330  173.4690  144.4370 N   0  0  0  0  0  0  0  0  0  0  0  0
  187.5700  177.5870  146.8910 C   0  0  0  0  0  3  0  0  0  0  0  0
  189.6810  176.1780  142.9210 C   0  0  2  0  0  3  0  0  0  0  0  0
  187.2520  177.8240  144.5320 C   0  0  0  0  0  3  0  0  0  0  0  0
  186.5280  177.5400  139.7900 C   0  0  0  0  0  3  0  0  0  0  0  0
  187.4420  176.4910  139.8070 C   0  0  0  0  0  3  0  0  0  0  0  0
  186.3590  178.2690  147.0970 C   0  0  0  0  0  0  0  0  0  0  0  0
  185.7970  177.8510  140.9310 C   0  0  0  0  0  3  0  0  0  0  0  0
  187.6370  175.7380  140.9660 C   0  0  0  0  0  0  0  0  0  0  0  0
  184.8130  177.5800  143.4620 S   0  0  0  0  0  0  0  0  0  0  0  0
  190.3350  176.3110  145.6780 C   0  0  0  0  0  2  0  0  0  0  0  0
  185.9670  178.5850  148.3950 O   0  0  0  0  0  1  0  0  0  0  0  0
  193.0540  173.5110  145.1400 N   0  0  0  0  0  2  0  0  0  0  0  0
  193.7710  171.2570  144.9740 O   0  0  0  0  0  1  0  0  0  0  0  0
  194.0140  172.5690  144.5500 C   0  0  2  0  0  3  0  0  0  0  0  0
  195.4270  172.9810  144.9320 C   0  0  0  0  0  2  0  0  0  0  0  0
  195.4190  174.3230  145.4850 N   0  0  0  0  0  2  0  0  0  0  0  0
  196.1690  175.1250  144.6140 N   0  0  0  0  0  2  0  0  0  0  0  0
  195.3340  176.2600  144.2550 C   0  0  0  0  0  2  0  0  0  0  0  0
  194.9400  177.9030  145.7650 O   0  0  0  0  0  1  0  0  0  0  0  0
  194.5250  176.6660  145.3930 N   0  0  0  0  0  2  0  0  0  0  0  0
  1 18  1  0  0  0  0
  1 29  1  6  0  0  0
  2 10  1  6  0  0  0
  2 11  1  0  0  0  0
  4 14  1  0  0  0  0
  5 21  1  0  0  0  0
  6  8  1  0  0  0  0
  7 13  1  6  0  0  0
  7 16  1  0  0  0  0
  8  3  1  0  0  0  0
  8 25  2  0  0  0  0
  9 17  1  0  0  0  0
  9 28  1  0  0  0  0
 11  7  1  0  0  0  0
 11 21  1  0  0  0  0
 12 15  1  0  0  0  0
 15  1  1  0  0  0  0
 16 19  1  0  0  0  0
 17 12  1  0  0  0  0
 18 20  2  0  0  0  0
 19 31  1  0  0  0  0
 19  4  1  0  0  0  0
 20 25  1  0  0  0  0
 21 15  1  0  0  0  0
 22  6  2  0  0  0  0
 22 18  1  0  0  0  0
 23 24  2  0  0  0  0
 23 26  1  0  0  0  0
 24 27  1  0  0  0  0
 25 30  1  0  0  0  0
 26  9  2  0  0  0  0
 27  2  1  0  0  0  0
 27 17  2  0  0  0  0
 28  6  1  0  0  0  0
 29 14  1  0  0  0  0
 33 34  1  0  0  0  0
 33 32  1  0  0  0  0
 33 31  1  0  0  0  0
 34 35  1  0  0  0  0
 36 35  1  0  0  0  0
 37 36  1  0  0  0  0
 37 39  1  0  0  0  0
 39 38  1  0  0  0  0
M  END
>  <MODEL>
4

>  <REMARK>
 VINA RESULT:      -7.4      3.208      8.445
  Name = 
  7 active torsions:
  status: ('A' for Active; 'I' for Inactive)
    1  A    between atoms: C_3  and  N_23
    2  A    between atoms: C_3  and  N_27
    3  A    between atoms: N_9  and  N_27
    4  A    between atoms: N_9  and  C_32
    5  A    between atoms: N_22  and  N_25
    6  A    between atoms: N_25  and  C_39
    7  A    between atoms: C_32  and  C_39
                            x       y       z     vdW  Elec       q    Type
                         _______ _______ _______ _____ _____    ______ ____

>  <TORSDO>
F 7

$$$$
=
 OpenBabel11042414553D

 39 43  0  0  1  0  0  0  0  0999 V2000
  190.8750  176.2590  143.7380 C   0  0  2  0  0  3  0  0  0  0  0  0
  190.0420  173.6300  140.2020 C   0  0  1  0  0  3  0  0  0  0  0  0
  195.7790  174.5980  145.9830 C   0  0  0  0  0  1  0  0  0  0  0  0
  189.0070  177.9730  142.1280 C   0  0  0  0  0  2  0  0  0  0  0  0
  189.7560  173.2730  143.5150 C   0  0  0  0  0  1  0  0  0  0  0  0
  193.6410  174.1020  144.7500 C   0  0  0  0  0  0  0  0  0  0  0  0
  188.2670  175.3620  140.6540 C   0  0  1  0  0  3  0  0  0  0  0  0
  194.3620  174.9200  145.6440 C   0  0  0  0  0  0  0  0  0  0  0  0
  193.0700  172.6810  142.3810 C   0  0  0  0  0  0  0  0  0  0  0  0
  189.4260  172.9130  139.1730 O   0  0  0  0  0  1  0  0  0  0  0  0
  188.9820  174.1270  141.2130 C   0  0  2  0  0  3  0  0  0  0  0  0
  191.9800  174.9840  141.8400 C   0  0  0  0  0  2  0  0  0  0  0  0
  187.4200  175.0120  139.5970 O   0  0  0  0  0  1  0  0  0  0  0  0
  189.0020  177.9980  143.6680 C   0  0  0  0  0  2  0  0  0  0  0  0
  190.7120  175.4200  142.5100 N   0  0  1  0  0  0  0  0  0  0  0  0
  187.4900  176.1550  141.7080 C   0  0  0  0  0  2  0  0  0  0  0  0
  192.1130  173.4710  141.6600 C   0  0  0  0  0  0  0  0  0  0  0  0
  191.8120  175.6760  144.7770 C   0  0  0  0  0  0  0  0  0  0  0  0
  187.7300  177.5820  141.5140 N   0  0  0  0  0  0  0  0  0  0  0  0
  192.5190  176.5140  145.6480 C   0  0  0  0  0  3  0  0  0  0  0  0
  189.5790  174.4680  142.5850 C   0  0  2  0  0  3  0  0  0  0  0  0
  192.3350  174.4320  144.4840 C   0  0  0  0  0  3  0  0  0  0  0  0
  192.0310  170.6680  141.5120 C   0  0  0  0  0  3  0  0  0  0  0  0
  191.1150  171.4290  140.7920 C   0  0  0  0  0  3  0  0  0  0  0  0
  193.7620  176.0960  146.1490 C   0  0  0  0  0  0  0  0  0  0  0  0
  192.9950  171.2900  142.2980 C   0  0  0  0  0  3  0  0  0  0  0  0
  191.1510  172.8230  140.8480 C   0  0  0  0  0  0  0  0  0  0  0  0
  194.4850  173.3230  143.3440 S   0  0  0  0  0  0  0  0  0  0  0  0
  189.5280  176.7110  144.3190 C   0  0  0  0  0  2  0  0  0  0  0  0
  194.4290  176.8950  147.0740 O   0  0  0  0  0  1  0  0  0  0  0  0
  186.6870  178.3170  142.1130 N   0  0  0  0  0  2  0  0  0  0  0  0
  185.0490  178.3880  140.3990 O   0  0  0  0  0  1  0  0  0  0  0  0
  185.3840  177.8320  141.6400 C   0  0  2  0  0  3  0  0  0  0  0  0
  184.3140  178.1730  142.6650 C   0  0  0  0  0  2  0  0  0  0  0  0
  184.8440  179.1070  143.6400 N   0  0  0  0  0  2  0  0  0  0  0  0
  184.4290  178.6550  144.9010 N   0  0  0  0  0  2  0  0  0  0  0  0
  185.5350  178.8820  145.8190 C   0  0  0  0  0  2  0  0  0  0  0  0
  185.3370  176.6350  146.0280 O   0  0  0  0  0  1  0  0  0  0  0  0
  186.2490  177.6390  146.0590 N   0  0  0  0  0  2  0  0  0  0  0  0
  1 29  1  1  0  0  0
  1 18  1  0  0  0  0
  2 10  1  6  0  0  0
  2 27  1  0  0  0  0
  2 11  1  0  0  0  0
  4 14  1  0  0  0  0
  6  8  1  0  0  0  0
  7 13  1  6  0  0  0
  7 11  1  0  0  0  0
  7 16  1  0  0  0  0
  8  3  1  0  0  0  0
  8 25  2  0  0  0  0
  9 28  1  0  0  0  0
 11 21  1  0  0  0  0
 12 15  1  0  0  0  0
 14 29  1  0  0  0  0
 15 21  1  0  0  0  0
 15  1  1  0  0  0  0
 17 12  1  0  0  0  0
 17  9  2  0  0  0  0
 18 20  2  0  0  0  0
 19 16  1  0  0  0  0
 19 31  1  0  0  0  0
 19  4  1  0  0  0  0
 20 25  1  0  0  0  0
 21  5  1  0  0  0  0
 22  6  2  0  0  0  0
 22 18  1  0  0  0  0
 23 26  2  0  0  0  0
 24 27  2  0  0  0  0
 24 23  1  0  0  0  0
 25 30  1  0  0  0  0
 26  9  1  0  0  0  0
 27 17  1  0  0  0  0
 28  6  1  0  0  0  0
 32 33  1  0  0  0  0
 33 31  1  0  0  0  0
 33 34  1  0  0  0  0
 34 35  1  0  0  0  0
 35 36  1  0  0  0  0
 36 37  1  0  0  0  0
 37 39  1  0  0  0  0
 38 39  1  0  0  0  0
M  END
>  <MODEL>
5

>  <REMARK>
 VINA RESULT:      -7.3      1.782      4.818
  Name = 
  7 active torsions:
  status: ('A' for Active; 'I' for Inactive)
    1  A    between atoms: C_3  and  N_23
    2  A    between atoms: C_3  and  N_27
    3  A    between atoms: N_9  and  N_27
    4  A    between atoms: N_9  and  C_32
    5  A    between atoms: N_22  and  N_25
    6  A    between atoms: N_25  and  C_39
    7  A    between atoms: C_32  and  C_39
                            x       y       z     vdW  Elec       q    Type
                         _______ _______ _______ _____ _____    ______ ____

>  <TORSDO>
F 7

$$$$
=
 OpenBabel11042414553D

 39 43  0  0  1  0  0  0  0  0999 V2000
  190.3770  173.8760  142.3120 C   0  0  2  0  0  3  0  0  0  0  0  0
  190.8130  176.1870  146.1290 C   0  0  1  0  0  3  0  0  0  0  0  0
  194.5530  170.0840  142.1250 C   0  0  0  0  0  1  0  0  0  0  0  0
  187.5850  174.9010  142.7290 C   0  0  0  0  0  2  0  0  0  0  0  0
  192.3330  176.2600  143.1510 C   0  0  0  0  0  1  0  0  0  0  0  0
  193.6430  172.3250  142.8220 C   0  0  0  0  0  0  0  0  0  0  0  0
  188.8720  176.9080  144.6900 C   0  0  1  0  0  3  0  0  0  0  0  0
  193.6020  171.2210  141.9470 C   0  0  0  0  0  0  0  0  0  0  0  0
  193.6470  173.7290  145.2690 C   0  0  0  0  0  0  0  0  0  0  0  0
  190.7560  177.1670  147.1240 O   0  0  0  0  0  1  0  0  0  0  0  0
  190.3980  176.7880  144.7660 C   0  0  2  0  0  3  0  0  0  0  0  0
  191.0980  173.6860  144.7400 C   0  0  0  0  0  2  0  0  0  0  0  0
  188.4100  177.9250  145.5320 O   0  0  0  0  0  1  0  0  0  0  0  0
  188.1830  174.7340  141.3190 C   0  0  0  0  0  2  0  0  0  0  0  0
  190.5160  174.5330  143.6480 N   0  0  1  0  0  0  0  0  0  0  0  0
  188.3390  177.1190  143.2710 C   0  0  0  0  0  2  0  0  0  0  0  0
  192.3310  174.2840  145.4160 C   0  0  0  0  0  0  0  0  0  0  0  0
  191.6410  173.2110  141.8050 C   0  0  0  0  0  0  0  0  0  0  0  0
  187.1690  176.2710  143.0630 N   0  0  0  0  0  0  0  0  0  0  0  0
  191.5690  172.1110  140.9410 C   0  0  0  0  0  3  0  0  0  0  0  0
  190.8990  175.9630  143.5730 C   0  0  2  0  0  3  0  0  0  0  0  0
  192.7580  173.3530  142.6050 C   0  0  0  0  0  3  0  0  0  0  0  0
  194.5670  175.6620  146.4120 C   0  0  0  0  0  3  0  0  0  0  0  0
  193.2920  176.1940  146.5780 C   0  0  0  0  0  3  0  0  0  0  0  0
  192.5980  171.1560  140.9540 C   0  0  0  0  0  0  0  0  0  0  0  0
  194.7390  174.4450  145.7620 C   0  0  0  0  0  3  0  0  0  0  0  0
  192.1710  175.5140  146.0970 C   0  0  0  0  0  0  0  0  0  0  0  0
  194.0490  172.0860  144.5750 S   0  0  0  0  0  0  0  0  0  0  0  0
  189.7160  174.7950  141.2750 C   0  0  0  0  0  2  0  0  0  0  0  0
  192.5650  170.1040  140.0420 O   0  0  0  0  0  1  0  0  0  0  0  0
  186.3970  176.7890  142.0040 N   0  0  0  0  0  2  0  0  0  0  0  0
  185.7080  179.0380  142.3070 O   0  0  0  0  0  1  0  0  0  0  0  0
  185.3660  177.6980  142.5220 C   0  0  2  0  0  3  0  0  0  0  0  0
  185.1720  177.4470  144.0090 C   0  0  0  0  0  2  0  0  0  0  0  0
  185.1710  178.7080  144.7270 N   0  0  0  0  0  2  0  0  0  0  0  0
  184.0250  178.7140  145.5350 N   0  0  0  0  0  2  0  0  0  0  0  0
  184.4390  178.2900  146.8640 C   0  0  0  0  0  2  0  0  0  0  0  0
  186.3840  178.1870  148.0210 O   0  0  0  0  0  1  0  0  0  0  0  0
  185.6210  179.0270  147.2780 N   0  0  0  0  0  2  0  0  0  0  0  0
  1 29  1  6  0  0  0
  1 15  1  0  0  0  0
  2 10  1  1  0  0  0
  4 19  1  0  0  0  0
  5 21  1  0  0  0  0
  6 28  1  0  0  0  0
  7 11  1  0  0  0  0
  7 13  1  1  0  0  0
  8  3  1  0  0  0  0
  8  6  2  0  0  0  0
  9 17  2  0  0  0  0
  9 26  1  0  0  0  0
 11  2  1  0  0  0  0
 12 17  1  0  0  0  0
 14  4  1  0  0  0  0
 15 12  1  0  0  0  0
 16  7  1  0  0  0  0
 17 27  1  0  0  0  0
 18  1  1  0  0  0  0
 18 22  2  0  0  0  0
 19 16  1  0  0  0  0
 20 25  2  0  0  0  0
 20 18  1  0  0  0  0
 21 15  1  0  0  0  0
 21 11  1  0  0  0  0
 22  6  1  0  0  0  0
 23 24  1  0  0  0  0
 25  8  1  0  0  0  0
 26 23  2  0  0  0  0
 27  2  1  0  0  0  0
 27 24  2  0  0  0  0
 28  9  1  0  0  0  0
 29 14  1  0  0  0  0
 30 25  1  0  0  0  0
 31 33  1  0  0  0  0
 31 19  1  0  0  0  0
 32 33  1  0  0  0  0
 33 34  1  0  0  0  0
 34 35  1  0  0  0  0
 35 36  1  0  0  0  0
 36 37  1  0  0  0  0
 37 39  1  0  0  0  0
 39 38  1  0  0  0  0
M  END
>  <MODEL>
6

>  <REMARK>
 VINA RESULT:      -7.1      1.511      1.841
  Name = 
  7 active torsions:
  status: ('A' for Active; 'I' for Inactive)
    1  A    between atoms: C_3  and  N_23
    2  A    between atoms: C_3  and  N_27
    3  A    between atoms: N_9  and  N_27
    4  A    between atoms: N_9  and  C_32
    5  A    between atoms: N_22  and  N_25
    6  A    between atoms: N_25  and  C_39
    7  A    between atoms: C_32  and  C_39
                            x       y       z     vdW  Elec       q    Type
                         _______ _______ _______ _____ _____    ______ ____

>  <TORSDO>
F 7

$$$$
=
 OpenBabel11042414553D

 39 43  0  0  1  0  0  0  0  0999 V2000
  188.9350  176.0430  145.1570 C   0  0  2  0  0  3  0  0  0  0  0  0
  188.6570  174.6850  140.8940 C   0  0  1  0  0  3  0  0  0  0  0  0
  184.2930  179.0440  146.3000 C   0  0  0  0  0  1  0  0  0  0  0  0
  190.7570  173.6560  145.1560 C   0  0  0  0  0  2  0  0  0  0  0  0
  189.4590  177.5630  142.3950 C   0  0  0  0  0  1  0  0  0  0  0  0
  186.0590  178.2440  144.6940 C   0  0  0  0  0  0  0  0  0  0  0  0
  190.7580  173.9600  142.0830 C   0  0  1  0  0  3  0  0  0  0  0  0
  185.6620  178.5200  146.0170 C   0  0  0  0  0  0  0  0  0  0  0  0
  185.9450  177.1340  142.1020 C   0  0  0  0  0  0  0  0  0  0  0  0
  188.9460  174.2450  139.5990 O   0  0  0  0  0  1  0  0  0  0  0  0
  189.9490  175.1660  141.5930 C   0  0  2  0  0  3  0  0  0  0  0  0
  187.3050  175.3010  143.3560 C   0  0  0  0  0  2  0  0  0  0  0  0
  191.3300  173.2730  141.0070 O   0  0  0  0  0  1  0  0  0  0  0  0
  191.0390  174.8880  146.0360 C   0  0  0  0  0  2  0  0  0  0  0  0
  188.7290  175.5330  143.7670 N   0  0  1  0  0  0  0  0  0  0  0  0
  191.8360  174.3160  143.1100 C   0  0  0  0  0  2  0  0  0  0  0  0
  186.8820  176.0460  142.0910 C   0  0  0  0  0  0  0  0  0  0  0  0
  188.1100  177.2660  145.5070 C   0  0  0  0  0  0  0  0  0  0  0  0
  191.8180  173.3330  144.1900 N   0  0  0  0  0  0  0  0  0  0  0  0
  187.7260  177.5100  146.8310 C   0  0  0  0  0  3  0  0  0  0  0  0
  189.6740  176.1030  142.7770 C   0  0  2  0  0  3  0  0  0  0  0  0
  187.3350  177.7800  144.4860 C   0  0  0  0  0  3  0  0  0  0  0  0
  186.4460  177.5650  139.7680 C   0  0  0  0  0  3  0  0  0  0  0  0
  187.3390  176.4970  139.7430 C   0  0  0  0  0  3  0  0  0  0  0  0
  186.5370  178.2150  147.0850 C   0  0  0  0  0  0  0  0  0  0  0  0
  185.7610  177.8780  140.9370 C   0  0  0  0  0  3  0  0  0  0  0  0
  187.5570  175.7270  140.8880 C   0  0  0  0  0  0  0  0  0  0  0  0
  184.8570  177.5990  143.4960 S   0  0  0  0  0  0  0  0  0  0  0  0
  190.4220  176.1910  145.5110 C   0  0  0  0  0  2  0  0  0  0  0  0
  186.1950  178.5240  148.3990 O   0  0  0  0  0  1  0  0  0  0  0  0
  193.0620  173.3420  144.8520 N   0  0  0  0  0  2  0  0  0  0  0  0
  193.6710  171.0680  145.1400 O   0  0  0  0  0  1  0  0  0  0  0  0
  193.8950  172.2260  144.3860 C   0  0  2  0  0  3  0  0  0  0  0  0
  195.3610  172.6210  144.4690 C   0  0  0  0  0  2  0  0  0  0  0  0
  195.9040  172.2400  145.7590 N   0  0  0  0  0  2  0  0  0  0  0  0
  197.2000  171.7570  145.5280 N   0  0  0  0  0  2  0  0  0  0  0  0
  197.1080  170.3070  145.4590 C   0  0  0  0  0  2  0  0  0  0  0  0
  195.7610  168.7830  146.4570 O   0  0  0  0  0  1  0  0  0  0  0  0
  196.6460  169.7740  146.7300 N   0  0  0  0  0  2  0  0  0  0  0  0
  1 18  1  0  0  0  0
  1 29  1  6  0  0  0
  2 10  1  6  0  0  0
  2 11  1  0  0  0  0
  4 14  1  0  0  0  0
  5 21  1  0  0  0  0
  6  8  1  0  0  0  0
  7 13  1  6  0  0  0
  7 16  1  0  0  0  0
  8  3  1  0  0  0  0
  8 25  2  0  0  0  0
  9 28  1  0  0  0  0
 11  7  1  0  0  0  0
 11 21  1  0  0  0  0
 12 15  1  0  0  0  0
 15  1  1  0  0  0  0
 16 19  1  0  0  0  0
 17  9  1  0  0  0  0
 17 12  1  0  0  0  0
 18 20  2  0  0  0  0
 19 31  1  0  0  0  0
 19  4  1  0  0  0  0
 20 25  1  0  0  0  0
 21 15  1  0  0  0  0
 22  6  2  0  0  0  0
 22 18  1  0  0  0  0
 23 26  1  0  0  0  0
 24 23  2  0  0  0  0
 24 27  1  0  0  0  0
 25 30  1  0  0  0  0
 26  9  2  0  0  0  0
 27  2  1  0  0  0  0
 27 17  2  0  0  0  0
 28  6  1  0  0  0  0
 29 14  1  0  0  0  0
 33 34  1  0  0  0  0
 33 31  1  0  0  0  0
 33 32  1  0  0  0  0
 34 35  1  0  0  0  0
 36 35  1  0  0  0  0
 37 36  1  0  0  0  0
 37 39  1  0  0  0  0
 38 39  1  0  0  0  0
M  END
>  <MODEL>
7

>  <REMARK>
 VINA RESULT:      -6.9      3.691      8.990
  Name = 
  7 active torsions:
  status: ('A' for Active; 'I' for Inactive)
    1  A    between atoms: C_3  and  N_23
    2  A    between atoms: C_3  and  N_27
    3  A    between atoms: N_9  and  N_27
    4  A    between atoms: N_9  and  C_32
    5  A    between atoms: N_22  and  N_25
    6  A    between atoms: N_25  and  C_39
    7  A    between atoms: C_32  and  C_39
                            x       y       z     vdW  Elec       q    Type
                         _______ _______ _______ _____ _____    ______ ____

>  <TORSDO>
F 7

$$$$
=
 OpenBabel11042414553D

 39 43  0  0  1  0  0  0  0  0999 V2000
  192.8660  174.5220  144.2090 C   0  0  2  0  0  3  0  0  0  0  0  0
  190.3890  172.6080  140.9990 C   0  0  1  0  0  3  0  0  0  0  0  0
  197.3810  171.2440  145.0620 C   0  0  0  0  0  1  0  0  0  0  0  0
  191.3040  176.8650  143.1650 C   0  0  0  0  0  2  0  0  0  0  0  0
  190.8360  172.0540  144.2660 C   0  0  0  0  0  1  0  0  0  0  0  0
  194.9610  171.5400  144.4360 C   0  0  0  0  0  0  0  0  0  0  0  0
  189.4290  174.7510  141.9180 C   0  0  1  0  0  3  0  0  0  0  0  0
  196.1030  172.0120  145.1130 C   0  0  0  0  0  0  0  0  0  0  0  0
  193.3970  170.5840  142.2910 C   0  0  0  0  0  0  0  0  0  0  0  0
  189.3410  172.2110  140.1640 O   0  0  0  0  0  1  0  0  0  0  0  0
  189.8280  173.3110  142.2580 C   0  0  2  0  0  3  0  0  0  0  0  0
  193.0000  173.1490  142.0760 C   0  0  0  0  0  2  0  0  0  0  0  0
  188.2800  174.7740  141.1210 O   0  0  0  0  0  1  0  0  0  0  0  0
  191.6900  176.7480  144.6510 C   0  0  0  0  0  2  0  0  0  0  0  0
  192.1450  173.8890  143.0620 N   0  0  1  0  0  0  0  0  0  0  0  0
  189.2330  175.6420  143.1470 C   0  0  0  0  0  2  0  0  0  0  0  0
  192.5940  171.6920  141.8550 C   0  0  0  0  0  0  0  0  0  0  0  0
  193.7960  173.5870  144.9580 C   0  0  0  0  0  0  0  0  0  0  0  0
  189.8590  176.9400  142.9080 N   0  0  0  0  0  0  0  0  0  0  0  0
  194.9260  174.0860  145.6180 C   0  0  0  0  0  3  0  0  0  0  0  0
  190.8240  173.3260  143.4260 C   0  0  2  0  0  3  0  0  0  0  0  0
  193.8050  172.2760  144.5270 C   0  0  0  0  0  3  0  0  0  0  0  0
  191.5890  169.0730  141.7110 C   0  0  0  0  0  3  0  0  0  0  0  0
  190.8150  170.1400  141.2660 C   0  0  0  0  0  3  0  0  0  0  0  0
  196.0550  173.2640  145.7680 C   0  0  0  0  0  0  0  0  0  0  0  0
  192.8640  169.2970  142.2190 C   0  0  0  0  0  3  0  0  0  0  0  0
  191.3060  171.4460  141.3210 C   0  0  0  0  0  0  0  0  0  0  0  0
  195.1350  170.6720  142.8500 S   0  0  0  0  0  0  0  0  0  0  0  0
  191.9230  175.3080  145.1300 C   0  0  0  0  0  2  0  0  0  0  0  0
  197.1490  173.7340  146.4910 O   0  0  0  0  0  1  0  0  0  0  0  0
  189.2880  177.9000  143.7670 N   0  0  0  0  0  2  0  0  0  0  0  0
  186.9900  178.2800  143.3180 O   0  0  0  0  0  1  0  0  0  0  0  0
  187.8990  177.5400  144.0830 C   0  0  2  0  0  3  0  0  0  0  0  0
  187.6400  177.7760  145.5630 C   0  0  0  0  0  2  0  0  0  0  0  0
  186.9650  176.6270  146.1360 N   0  0  0  0  0  2  0  0  0  0  0  0
  185.5900  176.8360  145.9630 N   0  0  0  0  0  2  0  0  0  0  0  0
  185.2430  178.0310  146.7160 C   0  0  0  0  0  2  0  0  0  0  0  0
  184.4830  179.4040  145.0830 O   0  0  0  0  0  1  0  0  0  0  0  0
  184.0680  178.6620  146.1400 N   0  0  0  0  0  2  0  0  0  0  0  0
  1 18  1  0  0  0  0
  1 29  1  1  0  0  0
  2 10  1  6  0  0  0
  2 27  1  0  0  0  0
  2 11  1  0  0  0  0
  3  8  1  0  0  0  0
  4 14  1  0  0  0  0
  6 22  2  0  0  0  0
  6  8  1  0  0  0  0
  7 13  1  1  0  0  0
  7 11  1  0  0  0  0
  7 16  1  0  0  0  0
  8 25  2  0  0  0  0
  9 28  1  0  0  0  0
 11 21  1  0  0  0  0
 12 15  1  0  0  0  0
 14 29  1  0  0  0  0
 15 21  1  0  0  0  0
 15  1  1  0  0  0  0
 17 12  1  0  0  0  0
 17  9  2  0  0  0  0
 18 20  2  0  0  0  0
 19 16  1  0  0  0  0
 19  4  1  0  0  0  0
 19 31  1  0  0  0  0
 20 25  1  0  0  0  0
 21  5  1  0  0  0  0
 22 18  1  0  0  0  0
 23 26  2  0  0  0  0
 24 27  2  0  0  0  0
 24 23  1  0  0  0  0
 25 30  1  0  0  0  0
 26  9  1  0  0  0  0
 27 17  1  0  0  0  0
 28  6  1  0  0  0  0
 31 33  1  0  0  0  0
 32 33  1  0  0  0  0
 33 34  1  0  0  0  0
 34 35  1  0  0  0  0
 36 35  1  0  0  0  0
 36 37  1  0  0  0  0
 38 39  1  0  0  0  0
 39 37  1  0  0  0  0
M  END
>  <MODEL>
8

>  <REMARK>
 VINA RESULT:      -6.8      2.204      5.084
  Name = 
  7 active torsions:
  status: ('A' for Active; 'I' for Inactive)
    1  A    between atoms: C_3  and  N_23
    2  A    between atoms: C_3  and  N_27
    3  A    between atoms: N_9  and  N_27
    4  A    between atoms: N_9  and  C_32
    5  A    between atoms: N_22  and  N_25
    6  A    between atoms: N_25  and  C_39
    7  A    between atoms: C_32  and  C_39
                            x       y       z     vdW  Elec       q    Type
                         _______ _______ _______ _____ _____    ______ ____

>  <TORSDO>
F 7

$$$$
=
 OpenBabel11042414553D

 39 43  0  0  1  0  0  0  0  0999 V2000
  188.7360  174.7220  141.9540 C   0  0  2  0  0  3  0  0  0  0  0  0
  192.9720  174.1990  143.3280 C   0  0  1  0  0  3  0  0  0  0  0  0
  186.3660  178.6890  145.1950 C   0  0  0  0  0  1  0  0  0  0  0  0
  190.0320  173.5550  139.5090 C   0  0  0  0  0  2  0  0  0  0  0  0
  189.9940  173.1730  144.4510 C   0  0  0  0  0  1  0  0  0  0  0  0
  187.9980  176.8000  144.8640 C   0  0  0  0  0  0  0  0  0  0  0  0
  192.3030  172.6960  141.4170 C   0  0  1  0  0  3  0  0  0  0  0  0
  186.8060  177.4500  144.4870 C   0  0  0  0  0  0  0  0  0  0  0  0
  190.7390  176.4960  145.4610 C   0  0  0  0  0  0  0  0  0  0  0  0
  194.2470  173.6960  143.5990 O   0  0  0  0  0  1  0  0  0  0  0  0
  192.0310  173.0550  142.8830 C   0  0  2  0  0  3  0  0  0  0  0  0
  190.7350  175.9590  142.9130 C   0  0  0  0  0  2  0  0  0  0  0  0
  193.5310  172.0400  141.2840 O   0  0  0  0  0  1  0  0  0  0  0  0
  188.5720  173.2340  139.8810 C   0  0  0  0  0  2  0  0  0  0  0  0
  190.1650  174.6750  142.3900 N   0  0  1  0  0  0  0  0  0  0  0  0
  191.1920  171.8670  140.7690 C   0  0  0  0  0  2  0  0  0  0  0  0
  191.3310  175.8620  144.3180 C   0  0  0  0  0  0  0  0  0  0  0  0
  187.7860  175.3070  142.9800 C   0  0  0  0  0  0  0  0  0  0  0  0
  190.9180  172.3850  139.4320 N   0  0  0  0  0  0  0  0  0  0  0  0
  186.6100  175.9510  142.5750 C   0  0  0  0  0  3  0  0  0  0  0  0
  190.5460  173.4040  143.0490 C   0  0  2  0  0  3  0  0  0  0  0  0
  188.3490  175.6560  144.1920 C   0  0  0  0  0  3  0  0  0  0  0  0
  192.3080  175.3280  146.8960 C   0  0  0  0  0  3  0  0  0  0  0  0
  192.9010  174.7280  145.7900 C   0  0  0  0  0  3  0  0  0  0  0  0
  186.0730  176.9720  143.3770 C   0  0  0  0  0  0  0  0  0  0  0  0
  191.2380  176.2000  146.7300 C   0  0  0  0  0  3  0  0  0  0  0  0
  192.4330  174.9930  144.5020 C   0  0  0  0  0  0  0  0  0  0  0  0
  189.4270  177.7700  145.4240 S   0  0  0  0  0  0  0  0  0  0  0  0
  188.2570  173.3820  141.3760 C   0  0  0  0  0  2  0  0  0  0  0  0
  184.8640  177.5600  143.0130 O   0  0  0  0  0  1  0  0  0  0  0  0
  190.2940  171.3840  138.6600 N   0  0  0  0  0  2  0  0  0  0  0  0
  192.2870  171.7950  137.4410 O   0  0  0  0  0  1  0  0  0  0  0  0
  191.1910  170.9360  137.5860 C   0  0  2  0  0  3  0  0  0  0  0  0
  190.4170  170.8610  136.2800 C   0  0  0  0  0  2  0  0  0  0  0  0
  189.3450  171.8390  136.2830 N   0  0  0  0  0  2  0  0  0  0  0  0
  189.7130  172.8470  135.3800 N   0  0  0  0  0  2  0  0  0  0  0  0
  189.2910  174.1120  135.9600 C   0  0  0  0  0  2  0  0  0  0  0  0
  191.4460  174.7690  136.1990 O   0  0  0  0  0  1  0  0  0  0  0  0
  190.2630  175.1500  135.6570 N   0  0  0  0  0  2  0  0  0  0  0  0
  1 29  1  1  0  0  0
  1 15  1  0  0  0  0
  1 18  1  0  0  0  0
  2 10  1  1  0  0  0
  2 27  1  0  0  0  0
  4 14  1  0  0  0  0
  6 28  1  0  0  0  0
  7 13  1  1  0  0  0
  7 11  1  0  0  0  0
  8  6  1  0  0  0  0
  8  3  1  0  0  0  0
  9 26  1  0  0  0  0
 11 21  1  0  0  0  0
 11  2  1  0  0  0  0
 12 17  1  0  0  0  0
 14 29  1  0  0  0  0
 15 12  1  0  0  0  0
 15 21  1  0  0  0  0
 16  7  1  0  0  0  0
 17 27  1  0  0  0  0
 17  9  2  0  0  0  0
 18 22  1  0  0  0  0
 19  4  1  0  0  0  0
 19 16  1  0  0  0  0
 20 18  2  0  0  0  0
 20 25  1  0  0  0  0
 21  5  1  0  0  0  0
 22  6  2  0  0  0  0
 24 23  1  0  0  0  0
 25  8  2  0  0  0  0
 26 23  2  0  0  0  0
 27 24  2  0  0  0  0
 28  9  1  0  0  0  0
 30 25  1  0  0  0  0
 31 19  1  0  0  0  0
 32 33  1  0  0  0  0
 33 31  1  0  0  0  0
 34 35  1  0  0  0  0
 34 33  1  0  0  0  0
 36 37  1  0  0  0  0
 36 35  1  0  0  0  0
 39 37  1  0  0  0  0
 39 38  1  0  0  0  0
M  END
>  <MODEL>
9

>  <REMARK>
 VINA RESULT:      -6.8      3.477      7.730
  Name = 
  7 active torsions:
  status: ('A' for Active; 'I' for Inactive)
    1  A    between atoms: C_3  and  N_23
    2  A    between atoms: C_3  and  N_27
    3  A    between atoms: N_9  and  N_27
    4  A    between atoms: N_9  and  C_32
    5  A    between atoms: N_22  and  N_25
    6  A    between atoms: N_25  and  C_39
    7  A    between atoms: C_32  and  C_39
                            x       y       z     vdW  Elec       q    Type
                         _______ _______ _______ _____ _____    ______ ____

>  <TORSDO>
F 7

$$$$
