=
 OpenBabel11042414473D

 36 39  0  0  1  0  0  0  0  0999 V2000
  191.9970  170.3800  142.7170 S   0  0  0  0  0  0  0  0  0  0  0  0
  190.6520  169.8540  140.3530 N   0  0  0  0  0  1  0  0  0  0  0  0
  191.8330  171.9150  143.3830 C   0  0  0  0  0  0  0  0  0  0  0  0
  191.6390  173.9630  144.3420 C   0  0  0  0  0  0  0  0  0  0  0  0
  190.5260  172.0750  141.4850 C   0  0  0  0  0  0  0  0  0  0  0  0
  190.8490  173.9910  143.1370 N   0  0  0  0  0  0  0  0  0  0  0  0
  190.9850  170.7590  141.3980 C   0  0  0  0  0  0  0  0  0  0  0  0
  191.7600  175.0250  145.1540 C   0  0  2  0  0  3  0  0  0  0  0  0
  189.7030  172.6710  140.5890 F   0  0  0  0  0  0  0  0  0  0  0  0
  192.3260  172.6280  144.5790 C   0  0  0  0  0  2  0  0  0  0  0  0
  191.0330  172.6870  142.6230 C   0  0  0  0  0  0  0  0  0  0  0  0
  191.8160  177.2840  144.0260 C   0  0  0  0  0  1  0  0  0  0  0  0
  189.8320  176.5680  145.3710 C   0  0  0  0  0  0  0  0  0  0  0  0
  191.0630  176.2990  144.8620 C   0  0  0  0  0  0  0  0  0  0  0  0
  189.1780  175.6020  146.3060 C   0  0  0  0  0  1  0  0  0  0  0  0
  189.0410  177.7960  145.1150 C   0  0  0  0  0  3  0  0  0  0  0  0
  186.4440  178.0230  145.2870 C   0  0  0  0  0  3  0  0  0  0  0  0
  187.7410  177.9030  145.2010 C   0  0  0  0  0  0  0  0  0  0  0  0
  184.5640  178.0790  140.5380 C   0  0  0  0  0  3  0  0  0  0  0  0
  186.4970  178.5590  142.1560 C   0  0  0  0  0  3  0  0  0  0  0  0
  184.1780  178.5870  142.8570 C   0  0  0  0  0  0  0  0  0  0  0  0
  185.7340  179.0990  144.5370 C   0  0  1  0  0  3  0  0  0  0  0  0
  182.2160  178.1500  141.2470 C   0  0  0  0  0  1  0  0  0  0  0  0
  183.4850  178.8380  143.9110 N   0  0  0  0  0  2  0  0  0  0  0  0
  186.0720  178.1760  140.7490 C   0  0  0  0  0  3  0  0  0  0  0  0
  185.5820  178.7150  143.1100 C   0  0  0  0  0  0  0  0  0  0  0  0
  184.3590  179.1430  144.9360 O   0  0  0  0  0  0  0  0  0  0  0  0
  183.6740  178.2610  141.5220 C   0  0  0  0  0  0  0  0  0  0  0  0
  192.6610  174.9660  146.3500 C   0  0  0  0  0  2  0  0  0  0  0  0
  194.0830  174.6270  145.9280 C   0  0  0  0  0  2  0  0  0  0  0  0
  194.8990  175.8980  145.7510 C   0  0  2  0  0  3  0  0  0  0  0  0
  194.3240  176.9720  146.5450 N   0  0  0  0  0  1  0  0  0  0  0  0
  195.0170  176.3120  144.2820 C   0  0  0  0  0  2  0  0  0  0  0  0
  196.7620  174.8680  143.5270 O   0  0  0  0  0  1  0  0  0  0  0  0
  196.3740  176.0510  143.7120 C   0  0  0  0  0  0  0  0  0  0  0  0
  197.1980  177.1120  143.3620 O   0  0  0  0  0  0  0  0  0  0  0  0
  1  3  1  0  0  0  0
  2  7  1  0  0  0  0
  3 10  1  0  0  0  0
  4 10  1  0  0  0  0
  4  8  1  0  0  0  0
  5 11  1  0  0  0  0
  6  4  2  0  0  0  0
  7  5  2  0  0  0  0
  7  1  1  0  0  0  0
  8 29  1  6  0  0  0
  9  5  1  0  0  0  0
 11  6  1  0  0  0  0
 11  3  2  0  0  0  0
 12 14  1  0  0  0  0
 13 15  1  0  0  0  0
 14  8  1  0  0  0  0
 14 13  2  0  0  0  0
 16 18  2  0  0  0  0
 16 13  1  0  0  0  0
 18 17  2  0  0  0  0
 19 25  2  0  0  0  0
 19 28  1  0  0  0  0
 20 26  2  0  0  0  0
 21 26  1  0  0  0  0
 21 24  1  0  0  0  0
 22 27  1  0  0  0  0
 22 17  1  1  0  0  0
 23 28  1  0  0  0  0
 24 27  1  0  0  0  0
 25 20  1  0  0  0  0
 26 22  1  0  0  0  0
 28 21  2  0  0  0  0
 30 29  1  0  0  0  0
 31 30  1  0  0  0  0
 31 32  1  1  0  0  0
 33 31  1  0  0  0  0
 34 35  1  0  0  0  0
 35 33  1  0  0  0  0
 36 35  2  0  0  0  0
M  END
>  <MODEL>
1

>  <REMARK>
 VINA RESULT:      -7.9      0.000      0.000
  Name = 
  8 active torsions:
  status: ('A' for Active; 'I' for Inactive)
    1  A    between atoms: C_7  and  C_19
    2  A    between atoms: C_9  and  C_16
    3  A    between atoms: C_14  and  C_21
    4  A    between atoms: C_14  and  C_24
    5  A    between atoms: C_15  and  C_26
    6  A    between atoms: C_21  and  C_32
    7  A    between atoms: C_24  and  C_25
    8  A    between atoms: C_25  and  C_26
                            x       y       z     vdW  Elec       q    Type
                         _______ _______ _______ _____ _____    ______ ____

>  <TORSDO>
F 8

$$$$
=
 OpenBabel11042414473D

 36 39  0  0  1  0  0  0  0  0999 V2000
  184.0140  178.2150  142.9370 S   0  0  0  0  0  0  0  0  0  0  0  0
  183.4190  178.4640  140.2430 N   0  0  0  0  0  1  0  0  0  0  0  0
  185.6210  177.9640  143.3610 C   0  0  0  0  0  0  0  0  0  0  0  0
  187.7750  177.6410  143.9990 C   0  0  0  0  0  0  0  0  0  0  0  0
  185.7480  178.0880  141.0580 C   0  0  0  0  0  0  0  0  0  0  0  0
  187.7750  177.7220  142.5610 N   0  0  0  0  0  0  0  0  0  0  0  0
  184.3800  178.2660  141.2720 C   0  0  0  0  0  0  0  0  0  0  0  0
  188.8940  177.4370  144.7150 C   0  0  2  0  0  3  0  0  0  0  0  0
  186.3500  178.0810  139.8440 F   0  0  0  0  0  0  0  0  0  0  0  0
  186.3910  177.7890  144.6090 C   0  0  0  0  0  2  0  0  0  0  0  0
  186.4070  177.9210  142.2680 C   0  0  0  0  0  0  0  0  0  0  0  0
  190.9990  178.5600  143.8890 C   0  0  0  0  0  1  0  0  0  0  0  0
  190.6500  176.1030  143.5840 C   0  0  0  0  0  0  0  0  0  0  0  0
  190.2130  177.3000  144.0540 C   0  0  0  0  0  0  0  0  0  0  0  0
  189.7690  174.8970  143.6600 C   0  0  0  0  0  1  0  0  0  0  0  0
  191.9610  175.8560  142.9370 C   0  0  0  0  0  3  0  0  0  0  0  0
  192.4560  174.0880  141.0790 C   0  0  0  0  0  3  0  0  0  0  0  0
  192.2040  174.9680  142.0080 C   0  0  0  0  0  0  0  0  0  0  0  0
  196.9600  176.1080  142.3930 C   0  0  0  0  0  3  0  0  0  0  0  0
  195.1010  175.7960  140.6520 C   0  0  0  0  0  3  0  0  0  0  0  0
  195.5730  174.1430  142.3590 C   0  0  0  0  0  0  0  0  0  0  0  0
  193.8440  173.5790  140.8770 C   0  0  1  0  0  3  0  0  0  0  0  0
  197.4590  174.4100  144.0930 C   0  0  0  0  0  1  0  0  0  0  0  0
  195.1760  172.9720  142.7140 N   0  0  0  0  0  2  0  0  0  0  0  0
  196.1920  176.6920  141.2110 C   0  0  0  0  0  3  0  0  0  0  0  0
  194.8320  174.6290  141.2340 C   0  0  0  0  0  0  0  0  0  0  0  0
  194.1490  172.5940  141.8700 O   0  0  0  0  0  0  0  0  0  0  0  0
  196.6690  174.9200  142.9400 C   0  0  0  0  0  0  0  0  0  0  0  0
  188.8230  177.2800  146.2030 C   0  0  0  0  0  2  0  0  0  0  0  0
  190.2110  177.0460  146.7790 C   0  0  0  0  0  2  0  0  0  0  0  0
  190.4940  175.5560  146.8880 C   0  0  2  0  0  3  0  0  0  0  0  0
  189.4450  174.9060  147.6570 N   0  0  0  0  0  1  0  0  0  0  0  0
  191.8690  175.2690  147.4970 C   0  0  0  0  0  2  0  0  0  0  0  0
  193.6590  176.1220  146.1650 O   0  0  0  0  0  1  0  0  0  0  0  0
  192.9430  175.1310  146.4660 C   0  0  0  0  0  0  0  0  0  0  0  0
  193.1700  173.9040  145.8580 O   0  0  0  0  0  0  0  0  0  0  0  0
  1  3  1  0  0  0  0
  2  7  1  0  0  0  0
  3 10  1  0  0  0  0
  4 10  1  0  0  0  0
  4  8  1  0  0  0  0
  5  7  2  0  0  0  0
  5 11  1  0  0  0  0
  6  4  2  0  0  0  0
  7  1  1  0  0  0  0
  8 29  1  6  0  0  0
  9  5  1  0  0  0  0
 11  6  1  0  0  0  0
 11  3  2  0  0  0  0
 12 14  1  0  0  0  0
 13 15  1  0  0  0  0
 13 14  2  0  0  0  0
 14  8  1  0  0  0  0
 16 13  1  0  0  0  0
 17 18  2  0  0  0  0
 18 16  2  0  0  0  0
 19 28  1  0  0  0  0
 20 25  1  0  0  0  0
 20 26  2  0  0  0  0
 21 24  1  0  0  0  0
 21 28  2  0  0  0  0
 22 17  1  1  0  0  0
 22 26  1  0  0  0  0
 22 27  1  0  0  0  0
 25 19  2  0  0  0  0
 26 21  1  0  0  0  0
 27 24  1  0  0  0  0
 28 23  1  0  0  0  0
 29 30  1  0  0  0  0
 30 31  1  0  0  0  0
 31 33  1  0  0  0  0
 31 32  1  1  0  0  0
 34 35  1  0  0  0  0
 35 33  1  0  0  0  0
 36 35  2  0  0  0  0
M  END
>  <MODEL>
2

>  <REMARK>
 VINA RESULT:      -7.5      3.698      8.337
  Name = 
  8 active torsions:
  status: ('A' for Active; 'I' for Inactive)
    1  A    between atoms: C_7  and  C_19
    2  A    between atoms: C_9  and  C_16
    3  A    between atoms: C_14  and  C_21
    4  A    between atoms: C_14  and  C_24
    5  A    between atoms: C_15  and  C_26
    6  A    between atoms: C_21  and  C_32
    7  A    between atoms: C_24  and  C_25
    8  A    between atoms: C_25  and  C_26
                            x       y       z     vdW  Elec       q    Type
                         _______ _______ _______ _____ _____    ______ ____

>  <TORSDO>
F 8

$$$$
=
 OpenBabel11042414473D

 36 39  0  0  1  0  0  0  0  0999 V2000
  186.0400  178.5040  147.1660 S   0  0  0  0  0  0  0  0  0  0  0  0
  183.7350  179.0250  145.7210 N   0  0  0  0  0  1  0  0  0  0  0  0
  187.1580  177.4410  146.4970 C   0  0  0  0  0  0  0  0  0  0  0  0
  188.7130  176.0280  145.6400 C   0  0  0  0  0  0  0  0  0  0  0  0
  185.5040  177.4740  144.8850 C   0  0  0  0  0  0  0  0  0  0  0  0
  187.6380  176.0930  144.6830 N   0  0  0  0  0  0  0  0  0  0  0  0
  184.9820  178.3490  145.8380 C   0  0  0  0  0  0  0  0  0  0  0  0
  189.8030  175.2650  145.4560 C   0  0  2  0  0  3  0  0  0  0  0  0
  184.9000  177.1470  143.7170 F   0  0  0  0  0  0  0  0  0  0  0  0
  188.4760  176.8880  146.8700 C   0  0  0  0  0  2  0  0  0  0  0  0
  186.7350  176.9860  145.3020 C   0  0  0  0  0  0  0  0  0  0  0  0
  189.7860  172.9740  144.3950 C   0  0  0  0  0  1  0  0  0  0  0  0
  190.3220  175.0100  143.0460 C   0  0  0  0  0  0  0  0  0  0  0  0
  189.9710  174.4480  144.2320 C   0  0  0  0  0  0  0  0  0  0  0  0
  190.6210  176.4730  142.9660 C   0  0  0  0  0  1  0  0  0  0  0  0
  190.4860  174.2870  141.7620 C   0  0  0  0  0  3  0  0  0  0  0  0
  188.6240  173.8650  139.9790 C   0  0  0  0  0  3  0  0  0  0  0  0
  189.5500  174.0770  140.8740 C   0  0  0  0  0  0  0  0  0  0  0  0
  191.4670  173.3810  135.7630 C   0  0  0  0  0  3  0  0  0  0  0  0
  189.2420  174.0260  136.8670 C   0  0  0  0  0  3  0  0  0  0  0  0
  190.7310  172.3670  137.8160 C   0  0  0  0  0  0  0  0  0  0  0  0
  188.7480  172.7310  139.0180 C   0  0  1  0  0  3  0  0  0  0  0  0
  192.9490  171.6690  136.7100 C   0  0  0  0  0  1  0  0  0  0  0  0
  190.7690  171.5510  138.8100 N   0  0  0  0  0  2  0  0  0  0  0  0
  190.2230  174.2630  135.7320 C   0  0  0  0  0  3  0  0  0  0  0  0
  189.5330  173.1520  137.8280 C   0  0  0  0  0  0  0  0  0  0  0  0
  189.6190  171.7300  139.5560 O   0  0  0  0  0  0  0  0  0  0  0  0
  191.7140  172.4980  136.7410 C   0  0  0  0  0  0  0  0  0  0  0  0
  190.8520  175.1720  146.5220 C   0  0  0  0  0  2  0  0  0  0  0  0
  191.9970  176.1270  146.2260 C   0  0  0  0  0  2  0  0  0  0  0  0
  193.3100  175.3660  146.1300 C   0  0  2  0  0  3  0  0  0  0  0  0
  194.4020  176.1960  146.6100 N   0  0  0  0  0  1  0  0  0  0  0  0
  193.5900  174.8690  144.7090 C   0  0  0  0  0  2  0  0  0  0  0  0
  193.2490  172.8400  143.4960 O   0  0  0  0  0  0  0  0  0  0  0  0
  193.5430  173.3790  144.5950 C   0  0  0  0  0  0  0  0  0  0  0  0
  193.8490  172.5860  145.6930 O   0  0  0  0  0  1  0  0  0  0  0  0
  2  7  1  0  0  0  0
  3 10  1  0  0  0  0
  3  1  1  0  0  0  0
  4 10  1  0  0  0  0
  5 11  1  0  0  0  0
  5  7  2  0  0  0  0
  6 11  1  0  0  0  0
  6  4  2  0  0  0  0
  7  1  1  0  0  0  0
  8  4  1  0  0  0  0
  8 29  1  1  0  0  0
  9  5  1  0  0  0  0
 11  3  2  0  0  0  0
 13 14  2  0  0  0  0
 14 12  1  0  0  0  0
 14  8  1  0  0  0  0
 15 13  1  0  0  0  0
 16 13  1  0  0  0  0
 17 18  2  0  0  0  0
 18 16  2  0  0  0  0
 19 28  1  0  0  0  0
 20 26  2  0  0  0  0
 21 26  1  0  0  0  0
 21 24  1  0  0  0  0
 22 27  1  0  0  0  0
 22 17  1  1  0  0  0
 23 28  1  0  0  0  0
 24 27  1  0  0  0  0
 25 19  2  0  0  0  0
 25 20  1  0  0  0  0
 26 22  1  0  0  0  0
 28 21  2  0  0  0  0
 30 29  1  0  0  0  0
 31 30  1  0  0  0  0
 31 32  1  6  0  0  0
 33 31  1  0  0  0  0
 34 35  2  0  0  0  0
 35 33  1  0  0  0  0
 35 36  1  0  0  0  0
M  END
>  <MODEL>
3

>  <REMARK>
 VINA RESULT:      -7.4      3.929      7.368
  Name = 
  8 active torsions:
  status: ('A' for Active; 'I' for Inactive)
    1  A    between atoms: C_7  and  C_19
    2  A    between atoms: C_9  and  C_16
    3  A    between atoms: C_14  and  C_21
    4  A    between atoms: C_14  and  C_24
    5  A    between atoms: C_15  and  C_26
    6  A    between atoms: C_21  and  C_32
    7  A    between atoms: C_24  and  C_25
    8  A    between atoms: C_25  and  C_26
                            x       y       z     vdW  Elec       q    Type
                         _______ _______ _______ _____ _____    ______ ____

>  <TORSDO>
F 8

$$$$
=
 OpenBabel11042414473D

 36 39  0  0  1  0  0  0  0  0999 V2000
  195.9630  173.0450  144.6960 S   0  0  0  0  0  0  0  0  0  0  0  0
  197.9410  174.9440  144.3080 N   0  0  0  0  0  1  0  0  0  0  0  0
  194.3640  173.5510  144.5900 C   0  0  0  0  0  0  0  0  0  0  0  0
  192.1840  174.1680  144.4440 C   0  0  0  0  0  0  0  0  0  0  0  0
  195.5140  175.5130  144.1890 C   0  0  0  0  0  0  0  0  0  0  0  0
  192.9690  175.3530  144.2100 N   0  0  0  0  0  0  0  0  0  0  0  0
  196.5610  174.6090  144.3760 C   0  0  0  0  0  0  0  0  0  0  0  0
  190.8410  174.1750  144.4440 C   0  0  2  0  0  3  0  0  0  0  0  0
  195.6650  176.8320  143.9170 F   0  0  0  0  0  0  0  0  0  0  0  0
  193.0270  172.9310  144.7060 C   0  0  0  0  0  2  0  0  0  0  0  0
  194.2910  174.8680  144.3200 C   0  0  0  0  0  0  0  0  0  0  0  0
  189.8140  175.7360  142.7460 C   0  0  0  0  0  1  0  0  0  0  0  0
  189.6960  176.2420  145.1930 C   0  0  0  0  0  0  0  0  0  0  0  0
  190.0800  175.4190  144.1830 C   0  0  0  0  0  0  0  0  0  0  0  0
  190.1000  175.9440  146.6010 C   0  0  0  0  0  1  0  0  0  0  0  0
  188.9100  177.4900  145.0380 C   0  0  0  0  0  3  0  0  0  0  0  0
  186.3050  177.6760  144.9730 C   0  0  0  0  0  3  0  0  0  0  0  0
  187.6060  177.5770  145.0050 C   0  0  0  0  0  0  0  0  0  0  0  0
  184.1680  178.1370  140.3560 C   0  0  0  0  0  3  0  0  0  0  0  0
  186.2260  178.3650  141.8730 C   0  0  0  0  0  3  0  0  0  0  0  0
  183.9630  178.5580  142.7160 C   0  0  0  0  0  0  0  0  0  0  0  0
  185.6520  178.8460  144.3190 C   0  0  1  0  0  3  0  0  0  0  0  0
  181.8800  178.3750  141.2120 C   0  0  0  0  0  1  0  0  0  0  0  0
  183.3560  178.8140  143.8210 N   0  0  0  0  0  2  0  0  0  0  0  0
  185.6880  178.0930  140.4790 C   0  0  0  0  0  3  0  0  0  0  0  0
  185.3850  178.5510  142.8870 C   0  0  0  0  0  0  0  0  0  0  0  0
  184.3120  178.9890  144.8040 O   0  0  0  0  0  0  0  0  0  0  0  0
  183.3560  178.3450  141.4020 C   0  0  0  0  0  0  0  0  0  0  0  0
  190.0770  172.9300  144.7750 C   0  0  0  0  0  2  0  0  0  0  0  0
  188.9740  172.6960  143.7540 C   0  0  0  0  0  2  0  0  0  0  0  0
  189.4030  171.6410  142.7460 C   0  0  2  0  0  3  0  0  0  0  0  0
  190.6920  171.0870  143.1240 N   0  0  0  0  0  1  0  0  0  0  0  0
  189.4470  172.1890  141.3160 C   0  0  0  0  0  2  0  0  0  0  0  0
  191.5480  173.3130  141.1570 O   0  0  0  0  0  1  0  0  0  0  0  0
  190.8400  172.3380  140.7940 C   0  0  0  0  0  0  0  0  0  0  0  0
  191.3640  171.3880  139.9280 O   0  0  0  0  0  0  0  0  0  0  0  0
  2  7  1  0  0  0  0
  3  1  1  0  0  0  0
  3 10  1  0  0  0  0
  4 10  1  0  0  0  0
  5 11  1  0  0  0  0
  5  7  2  0  0  0  0
  6 11  1  0  0  0  0
  6  4  2  0  0  0  0
  7  1  1  0  0  0  0
  8  4  1  0  0  0  0
  8 29  1  1  0  0  0
  9  5  1  0  0  0  0
 11  3  2  0  0  0  0
 12 14  1  0  0  0  0
 13 15  1  0  0  0  0
 14  8  1  0  0  0  0
 14 13  2  0  0  0  0
 16 13  1  0  0  0  0
 17 18  2  0  0  0  0
 18 16  2  0  0  0  0
 19 25  2  0  0  0  0
 19 28  1  0  0  0  0
 20 26  2  0  0  0  0
 21 26  1  0  0  0  0
 21 24  1  0  0  0  0
 22 27  1  0  0  0  0
 22 17  1  1  0  0  0
 23 28  1  0  0  0  0
 24 27  1  0  0  0  0
 25 20  1  0  0  0  0
 26 22  1  0  0  0  0
 28 21  2  0  0  0  0
 30 29  1  0  0  0  0
 31 32  1  1  0  0  0
 31 30  1  0  0  0  0
 33 31  1  0  0  0  0
 35 34  1  0  0  0  0
 35 33  1  0  0  0  0
 36 35  2  0  0  0  0
M  END
>  <MODEL>
4

>  <REMARK>
 VINA RESULT:      -7.3      2.660      4.488
  Name = 
  8 active torsions:
  status: ('A' for Active; 'I' for Inactive)
    1  A    between atoms: C_7  and  C_19
    2  A    between atoms: C_9  and  C_16
    3  A    between atoms: C_14  and  C_21
    4  A    between atoms: C_14  and  C_24
    5  A    between atoms: C_15  and  C_26
    6  A    between atoms: C_21  and  C_32
    7  A    between atoms: C_24  and  C_25
    8  A    between atoms: C_25  and  C_26
                            x       y       z     vdW  Elec       q    Type
                         _______ _______ _______ _____ _____    ______ ____

>  <TORSDO>
F 8

$$$$
=
 OpenBabel11042414473D

 36 39  0  0  1  0  0  0  0  0999 V2000
  186.0820  178.0030  147.3840 S   0  0  0  0  0  0  0  0  0  0  0  0
  183.7580  178.6810  146.0380 N   0  0  0  0  0  1  0  0  0  0  0  0
  187.2630  177.1680  146.5290 C   0  0  0  0  0  0  0  0  0  0  0  0
  188.9040  176.0540  145.4250 C   0  0  0  0  0  0  0  0  0  0  0  0
  185.6190  177.4410  144.9300 C   0  0  0  0  0  0  0  0  0  0  0  0
  187.8320  176.2550  144.4840 N   0  0  0  0  0  0  0  0  0  0  0  0
  185.0410  178.0680  146.0350 C   0  0  0  0  0  0  0  0  0  0  0  0
  190.0380  175.4080  145.1060 C   0  0  2  0  0  3  0  0  0  0  0  0
  185.0410  177.3290  143.7090 F   0  0  0  0  0  0  0  0  0  0  0  0
  188.6100  176.6250  146.8030 C   0  0  0  0  0  2  0  0  0  0  0  0
  186.8750  176.9480  145.2580 C   0  0  0  0  0  0  0  0  0  0  0  0
  190.5590  175.8850  142.6820 C   0  0  0  0  0  1  0  0  0  0  0  0
  190.1450  173.5480  143.4710 C   0  0  0  0  0  0  0  0  0  0  0  0
  190.2600  174.8750  143.7420 C   0  0  0  0  0  0  0  0  0  0  0  0
  189.7180  172.5960  144.5420 C   0  0  0  0  0  1  0  0  0  0  0  0
  190.3740  172.9140  142.1510 C   0  0  0  0  0  3  0  0  0  0  0  0
  192.4840  171.5470  141.4410 C   0  0  0  0  0  3  0  0  0  0  0  0
  191.4330  172.2320  141.8000 C   0  0  0  0  0  0  0  0  0  0  0  0
  189.7770  169.6950  137.5250 C   0  0  0  0  0  3  0  0  0  0  0  0
  191.4760  169.3200  139.4120 C   0  0  0  0  0  3  0  0  0  0  0  0
  191.1870  171.4690  138.3310 C   0  0  0  0  0  0  0  0  0  0  0  0
  192.8370  171.4050  139.9980 C   0  0  1  0  0  3  0  0  0  0  0  0
  189.5200  171.8650  136.4080 C   0  0  0  0  0  1  0  0  0  0  0  0
  191.7010  172.6480  138.3600 N   0  0  0  0  0  2  0  0  0  0  0  0
  190.3760  168.7320  138.5460 C   0  0  0  0  0  3  0  0  0  0  0  0
  191.8020  170.6050  139.2940 C   0  0  0  0  0  0  0  0  0  0  0  0
  192.6810  172.6640  139.3340 O   0  0  0  0  0  0  0  0  0  0  0  0
  190.1460  170.9790  137.4270 C   0  0  0  0  0  0  0  0  0  0  0  0
  191.0850  175.1560  146.1480 C   0  0  0  0  0  2  0  0  0  0  0  0
  192.1370  176.2540  146.1220 C   0  0  0  0  0  2  0  0  0  0  0  0
  193.5080  175.6650  145.8310 C   0  0  2  0  0  3  0  0  0  0  0  0
  194.5320  176.4180  146.5370 N   0  0  0  0  0  1  0  0  0  0  0  0
  193.8120  175.6120  144.3320 C   0  0  0  0  0  2  0  0  0  0  0  0
  193.4970  173.2480  144.4700 O   0  0  0  0  0  1  0  0  0  0  0  0
  193.9730  174.2150  143.8210 C   0  0  0  0  0  0  0  0  0  0  0  0
  194.6250  173.9860  142.6170 O   0  0  0  0  0  0  0  0  0  0  0  0
  3 10  1  0  0  0  0
  3  1  1  0  0  0  0
  4 10  1  0  0  0  0
  5 11  1  0  0  0  0
  5  7  2  0  0  0  0
  6 11  1  0  0  0  0
  6  4  2  0  0  0  0
  7  2  1  0  0  0  0
  7  1  1  0  0  0  0
  8  4  1  0  0  0  0
  8 29  1  1  0  0  0
  9  5  1  0  0  0  0
 11  3  2  0  0  0  0
 12 14  1  0  0  0  0
 13 14  2  0  0  0  0
 13 15  1  0  0  0  0
 14  8  1  0  0  0  0
 16 13  1  0  0  0  0
 17 18  2  0  0  0  0
 18 16  2  0  0  0  0
 19 25  1  0  0  0  0
 21 24  1  0  0  0  0
 21 26  2  0  0  0  0
 22 17  1  1  0  0  0
 23 28  1  0  0  0  0
 24 27  1  0  0  0  0
 25 20  2  0  0  0  0
 26 20  1  0  0  0  0
 26 22  1  0  0  0  0
 27 22  1  0  0  0  0
 28 19  2  0  0  0  0
 28 21  1  0  0  0  0
 30 29  1  0  0  0  0
 31 30  1  0  0  0  0
 31 32  1  1  0  0  0
 33 31  1  0  0  0  0
 35 33  1  0  0  0  0
 35 34  1  0  0  0  0
 36 35  2  0  0  0  0
M  END
>  <MODEL>
5

>  <REMARK>
 VINA RESULT:      -7.3      3.713      7.737
  Name = 
  8 active torsions:
  status: ('A' for Active; 'I' for Inactive)
    1  A    between atoms: C_7  and  C_19
    2  A    between atoms: C_9  and  C_16
    3  A    between atoms: C_14  and  C_21
    4  A    between atoms: C_14  and  C_24
    5  A    between atoms: C_15  and  C_26
    6  A    between atoms: C_21  and  C_32
    7  A    between atoms: C_24  and  C_25
    8  A    between atoms: C_25  and  C_26
                            x       y       z     vdW  Elec       q    Type
                         _______ _______ _______ _____ _____    ______ ____

>  <TORSDO>
F 8

$$$$
=
 OpenBabel11042414473D

 36 39  0  0  1  0  0  0  0  0999 V2000
  184.8160  178.1610  143.1300 S   0  0  0  0  0  0  0  0  0  0  0  0
  184.0790  178.6630  140.5080 N   0  0  0  0  0  1  0  0  0  0  0  0
  186.3240  177.4690  143.3980 C   0  0  0  0  0  0  0  0  0  0  0  0
  188.3550  176.5510  143.8280 C   0  0  0  0  0  0  0  0  0  0  0  0
  186.2790  177.6400  141.0960 C   0  0  0  0  0  0  0  0  0  0  0  0
  188.2520  176.6820  142.3970 N   0  0  0  0  0  0  0  0  0  0  0  0
  185.0350  178.1730  141.4390 C   0  0  0  0  0  0  0  0  0  0  0  0
  189.4330  176.0250  144.4320 C   0  0  2  0  0  3  0  0  0  0  0  0
  186.7480  177.5170  139.8300 F   0  0  0  0  0  0  0  0  0  0  0  0
  187.1220  177.0450  144.5670 C   0  0  0  0  0  2  0  0  0  0  0  0
  186.9700  177.2560  142.2360 C   0  0  0  0  0  0  0  0  0  0  0  0
  190.6980  174.0860  143.4240 C   0  0  0  0  0  1  0  0  0  0  0  0
  191.5520  176.4270  143.2100 C   0  0  0  0  0  0  0  0  0  0  0  0
  190.6020  175.5610  143.6490 C   0  0  0  0  0  0  0  0  0  0  0  0
  191.4750  177.8750  143.5730 C   0  0  0  0  0  1  0  0  0  0  0  0
  192.7390  176.0680  142.3980 C   0  0  0  0  0  3  0  0  0  0  0  0
  194.8780  174.8350  143.2530 C   0  0  0  0  0  3  0  0  0  0  0  0
  193.8080  175.4520  142.8310 C   0  0  0  0  0  0  0  0  0  0  0  0
  196.3320  173.0760  138.6830 C   0  0  0  0  0  3  0  0  0  0  0  0
  196.2010  172.7750  141.2280 C   0  0  0  0  0  3  0  0  0  0  0  0
  196.2540  174.9580  140.1780 C   0  0  0  0  0  0  0  0  0  0  0  0
  196.1710  174.9820  142.5230 C   0  0  1  0  0  3  0  0  0  0  0  0
  196.4260  175.2910  137.6300 C   0  0  0  0  0  1  0  0  0  0  0  0
  196.2840  176.1990  140.5170 N   0  0  0  0  0  2  0  0  0  0  0  0
  196.2360  172.1130  139.8620 C   0  0  0  0  0  3  0  0  0  0  0  0
  196.1860  174.1030  141.3250 C   0  0  0  0  0  0  0  0  0  0  0  0
  196.2330  176.2680  141.8960 O   0  0  0  0  0  0  0  0  0  0  0  0
  196.3310  174.4080  138.8240 C   0  0  0  0  0  0  0  0  0  0  0  0
  189.4520  175.8370  145.9180 C   0  0  0  0  0  2  0  0  0  0  0  0
  190.1340  177.0160  146.5950 C   0  0  0  0  0  2  0  0  0  0  0  0
  191.2950  176.5350  147.4500 C   0  0  2  0  0  3  0  0  0  0  0  0
  191.2360  177.1570  148.7630 N   0  0  0  0  0  1  0  0  0  0  0  0
  192.6510  176.7950  146.7880 C   0  0  0  0  0  2  0  0  0  0  0  0
  192.7950  174.4740  146.2470 O   0  0  0  0  0  0  0  0  0  0  0  0
  193.4120  175.5380  146.5100 C   0  0  0  0  0  0  0  0  0  0  0  0
  194.8000  175.5500  146.5150 O   0  0  0  0  0  1  0  0  0  0  0  0
  1  3  1  0  0  0  0
  2  7  1  0  0  0  0
  3 10  1  0  0  0  0
  4  8  1  0  0  0  0
  4 10  1  0  0  0  0
  5  7  2  0  0  0  0
  5 11  1  0  0  0  0
  6  4  2  0  0  0  0
  7  1  1  0  0  0  0
  8 29  1  6  0  0  0
  9  5  1  0  0  0  0
 11  6  1  0  0  0  0
 11  3  2  0  0  0  0
 12 14  1  0  0  0  0
 13 15  1  0  0  0  0
 13 14  2  0  0  0  0
 14  8  1  0  0  0  0
 16 18  2  0  0  0  0
 16 13  1  0  0  0  0
 18 17  2  0  0  0  0
 19 28  2  0  0  0  0
 19 25  1  0  0  0  0
 20 26  1  0  0  0  0
 21 24  1  0  0  0  0
 21 26  2  0  0  0  0
 22 17  1  6  0  0  0
 23 28  1  0  0  0  0
 24 27  1  0  0  0  0
 25 20  2  0  0  0  0
 26 22  1  0  0  0  0
 27 22  1  0  0  0  0
 28 21  1  0  0  0  0
 29 30  1  0  0  0  0
 30 31  1  0  0  0  0
 31 32  1  1  0  0  0
 33 31  1  0  0  0  0
 34 35  2  0  0  0  0
 35 36  1  0  0  0  0
 35 33  1  0  0  0  0
M  END
>  <MODEL>
6

>  <REMARK>
 VINA RESULT:      -7.3      3.657      8.395
  Name = 
  8 active torsions:
  status: ('A' for Active; 'I' for Inactive)
    1  A    between atoms: C_7  and  C_19
    2  A    between atoms: C_9  and  C_16
    3  A    between atoms: C_14  and  C_21
    4  A    between atoms: C_14  and  C_24
    5  A    between atoms: C_15  and  C_26
    6  A    between atoms: C_21  and  C_32
    7  A    between atoms: C_24  and  C_25
    8  A    between atoms: C_25  and  C_26
                            x       y       z     vdW  Elec       q    Type
                         _______ _______ _______ _____ _____    ______ ____

>  <TORSDO>
F 8

$$$$
=
 OpenBabel11042414473D

 36 39  0  0  1  0  0  0  0  0999 V2000
  197.4920  171.1150  145.1400 S   0  0  0  0  0  0  0  0  0  0  0  0
  196.1780  168.8730  146.1000 N   0  0  0  0  0  1  0  0  0  0  0  0
  196.5530  172.3670  144.5280 C   0  0  0  0  0  0  0  0  0  0  0  0
  195.3410  174.1000  143.7030 C   0  0  0  0  0  0  0  0  0  0  0  0
  194.9490  170.8280  145.1540 C   0  0  0  0  0  0  0  0  0  0  0  0
  194.3980  173.0890  144.1100 N   0  0  0  0  0  0  0  0  0  0  0  0
  196.1240  170.1650  145.5090 C   0  0  0  0  0  0  0  0  0  0  0  0
  194.9620  175.2650  143.1520 C   0  0  2  0  0  3  0  0  0  0  0  0
  193.6970  170.3350  145.3230 F   0  0  0  0  0  0  0  0  0  0  0  0
  196.7880  173.7030  143.9420 C   0  0  0  0  0  3  0  0  0  0  0  0
  195.2420  172.0680  144.6030 C   0  0  1  0  0  3  0  0  0  0  0  0
  192.9400  175.1500  141.6450 C   0  0  0  0  0  1  0  0  0  0  0  0
  192.8210  176.2850  143.8700 C   0  0  0  0  0  0  0  0  0  0  0  0
  193.5310  175.5880  142.9470 C   0  0  0  0  0  0  0  0  0  0  0  0
  193.4940  176.8110  145.0980 C   0  0  0  0  0  1  0  0  0  0  0  0
  191.3820  176.6330  143.7720 C   0  0  0  0  0  3  0  0  0  0  0  0
  189.4930  175.8640  145.4050 C   0  0  0  0  0  3  0  0  0  0  0  0
  190.4410  176.2440  144.5910 C   0  0  0  0  0  0  0  0  0  0  0  0
  185.5760  178.9520  146.5040 C   0  0  0  0  0  3  0  0  0  0  0  0
  186.9230  176.8260  147.0050 C   0  0  0  0  0  3  0  0  0  0  0  0
  186.8010  177.7950  144.7880 C   0  0  0  0  0  0  0  0  0  0  0  0
  188.0740  175.8310  144.9480 C   0  0  1  0  0  3  0  0  0  0  0  0
  185.4250  179.9040  144.2470 C   0  0  0  0  0  1  0  0  0  0  0  0
  187.2100  177.5450  143.5940 N   0  0  0  0  0  2  0  0  0  0  0  0
  186.0560  177.9480  147.5480 C   0  0  0  0  0  3  0  0  0  0  0  0
  187.2640  176.8100  145.7180 C   0  0  0  0  0  0  0  0  0  0  0  0
  187.9720  176.3930  143.6350 O   0  0  0  0  0  0  0  0  0  0  0  0
  185.9290  178.8910  145.2130 C   0  0  0  0  0  0  0  0  0  0  0  0
  195.9890  176.2450  142.6720 C   0  0  0  0  0  2  0  0  0  0  0  0
  195.9530  176.3510  141.1560 C   0  0  0  0  0  2  0  0  0  0  0  0
  196.8860  175.3250  140.5320 C   0  0  2  0  0  3  0  0  0  0  0  0
  197.9400  175.9980  139.7900 N   0  0  0  0  0  1  0  0  0  0  0  0
  196.1420  174.3320  139.6350 C   0  0  0  0  0  2  0  0  0  0  0  0
  195.0660  172.5240  140.7640 O   0  0  0  0  0  1  0  0  0  0  0  0
  196.1080  172.9490  140.2030 C   0  0  0  0  0  0  0  0  0  0  0  0
  197.2180  172.1230  140.0890 O   0  0  0  0  0  0  0  0  0  0  0  0
  1  7  1  0  0  0  0
  3 11  1  0  0  0  0
  3  1  1  0  0  0  0
  4 10  1  0  0  0  0
  4  6  2  0  0  0  0
  5  9  1  0  0  0  0
  5  7  2  0  0  0  0
  7  2  1  0  0  0  0
  8 29  1  6  0  0  0
  8  4  1  0  0  0  0
 10  3  2  0  0  0  0
 11  6  1  1  0  0  0
 11  5  1  0  0  0  0
 12 14  1  0  0  0  0
 13 15  1  0  0  0  0
 14  8  1  0  0  0  0
 14 13  2  0  0  0  0
 16 13  1  0  0  0  0
 16 18  2  0  0  0  0
 18 17  2  0  0  0  0
 19 25  1  0  0  0  0
 20 25  2  0  0  0  0
 21 28  1  0  0  0  0
 21 26  2  0  0  0  0
 22 17  1  1  0  0  0
 22 26  1  0  0  0  0
 23 28  1  0  0  0  0
 24 27  1  0  0  0  0
 24 21  1  0  0  0  0
 26 20  1  0  0  0  0
 27 22  1  0  0  0  0
 28 19  2  0  0  0  0
 30 29  1  0  0  0  0
 31 32  1  6  0  0  0
 31 30  1  0  0  0  0
 33 35  1  0  0  0  0
 33 31  1  0  0  0  0
 35 34  1  0  0  0  0
 36 35  2  0  0  0  0
M  END
>  <MODEL>
7

>  <REMARK>
 VINA RESULT:      -7.2      3.575      4.996
  Name = 
  8 active torsions:
  status: ('A' for Active; 'I' for Inactive)
    1  A    between atoms: C_7  and  C_19
    2  A    between atoms: C_9  and  C_16
    3  A    between atoms: C_14  and  C_21
    4  A    between atoms: C_14  and  C_24
    5  A    between atoms: C_15  and  C_26
    6  A    between atoms: C_21  and  C_32
    7  A    between atoms: C_24  and  C_25
    8  A    between atoms: C_25  and  C_26
                            x       y       z     vdW  Elec       q    Type
                         _______ _______ _______ _____ _____    ______ ____

>  <TORSDO>
F 8

$$$$
=
 OpenBabel11042414473D

 36 39  0  0  1  0  0  0  0  0999 V2000
  184.7490  178.0730  144.9410 S   0  0  0  0  0  0  0  0  0  0  0  0
  184.7910  179.0410  147.5370 N   0  0  0  0  0  1  0  0  0  0  0  0
  186.0930  177.2190  144.4050 C   0  0  0  0  0  0  0  0  0  0  0  0
  187.8710  176.0430  143.6260 C   0  0  0  0  0  0  0  0  0  0  0  0
  186.6970  177.7510  146.5690 C   0  0  0  0  0  0  0  0  0  0  0  0
  188.1820  176.4180  144.9820 N   0  0  0  0  0  0  0  0  0  0  0  0
  185.4310  178.3310  146.4830 C   0  0  0  0  0  0  0  0  0  0  0  0
  188.7190  175.3430  142.8540 C   0  0  2  0  0  3  0  0  0  0  0  0
  187.4920  177.7820  147.6670 F   0  0  0  0  0  0  0  0  0  0  0  0
  186.5090  176.5340  143.1640 C   0  0  0  0  0  3  0  0  0  0  0  0
  187.0280  177.1350  145.3700 C   0  0  1  0  0  3  0  0  0  0  0  0
  190.0630  173.5480  144.0150 C   0  0  0  0  0  1  0  0  0  0  0  0
  191.1320  175.6930  143.2990 C   0  0  0  0  0  0  0  0  0  0  0  0
  190.0340  174.8960  143.3690 C   0  0  0  0  0  0  0  0  0  0  0  0
  191.0200  177.0830  142.7600 C   0  0  0  0  0  1  0  0  0  0  0  0
  192.4950  175.3290  143.7580 C   0  0  0  0  0  3  0  0  0  0  0  0
  194.0040  176.7210  145.3730 C   0  0  0  0  0  3  0  0  0  0  0  0
  193.2460  176.0300  144.5650 C   0  0  0  0  0  0  0  0  0  0  0  0
  196.8530  172.7060  144.0130 C   0  0  0  0  0  3  0  0  0  0  0  0
  195.6350  174.0350  145.8390 C   0  0  0  0  0  3  0  0  0  0  0  0
  196.5180  175.0820  143.8400 C   0  0  0  0  0  0  0  0  0  0  0  0
  195.4840  176.5430  145.3570 C   0  0  1  0  0  3  0  0  0  0  0  0
  197.7810  173.7810  142.0110 C   0  0  0  0  0  1  0  0  0  0  0  0
  196.6360  176.2570  143.3290 N   0  0  0  0  0  2  0  0  0  0  0  0
  196.1040  172.6790  145.3420 C   0  0  0  0  0  3  0  0  0  0  0  0
  195.8270  175.1210  145.0940 C   0  0  0  0  0  0  0  0  0  0  0  0
  196.0360  177.1580  144.1870 O   0  0  0  0  0  0  0  0  0  0  0  0
  197.0420  173.8260  143.3010 C   0  0  0  0  0  0  0  0  0  0  0  0
  188.3780  175.0520  141.4250 C   0  0  0  0  0  2  0  0  0  0  0  0
  188.3160  173.5510  141.1890 C   0  0  0  0  0  2  0  0  0  0  0  0
  189.0970  173.1800  139.9380 C   0  0  2  0  0  3  0  0  0  0  0  0
  188.1920  172.6750  138.9180 N   0  0  0  0  0  1  0  0  0  0  0  0
  190.2080  172.1670  140.2260 C   0  0  0  0  0  2  0  0  0  0  0  0
  192.1800  172.2620  141.5690 O   0  0  0  0  0  1  0  0  0  0  0  0
  191.4780  172.8120  140.6820 C   0  0  0  0  0  0  0  0  0  0  0  0
  191.8980  174.0050  140.1090 O   0  0  0  0  0  0  0  0  0  0  0  0
  1  7  1  0  0  0  0
  3  1  1  0  0  0  0
  4  6  2  0  0  0  0
  5  9  1  0  0  0  0
  6 11  1  0  0  0  0
  7  5  2  0  0  0  0
  7  2  1  0  0  0  0
  8 29  1  6  0  0  0
  8 14  1  0  0  0  0
  8  4  1  0  0  0  0
 10  4  1  0  0  0  0
 10  3  2  0  0  0  0
 11  3  1  1  0  0  0
 11  5  1  0  0  0  0
 13 14  2  0  0  0  0
 13 16  1  0  0  0  0
 14 12  1  0  0  0  0
 15 13  1  0  0  0  0
 16 18  2  0  0  0  0
 18 17  2  0  0  0  0
 19 25  1  0  0  0  0
 21 26  2  0  0  0  0
 22 17  1  6  0  0  0
 23 28  1  0  0  0  0
 24 21  1  0  0  0  0
 24 27  1  0  0  0  0
 25 20  2  0  0  0  0
 26 22  1  0  0  0  0
 26 20  1  0  0  0  0
 27 22  1  0  0  0  0
 28 21  1  0  0  0  0
 28 19  2  0  0  0  0
 30 29  1  0  0  0  0
 31 32  1  6  0  0  0
 31 33  1  0  0  0  0
 31 30  1  0  0  0  0
 33 35  1  0  0  0  0
 35 34  1  0  0  0  0
 36 35  2  0  0  0  0
M  END
>  <MODEL>
8

>  <REMARK>
 VINA RESULT:      -7.1      3.806      9.168
  Name = 
  8 active torsions:
  status: ('A' for Active; 'I' for Inactive)
    1  A    between atoms: C_7  and  C_19
    2  A    between atoms: C_9  and  C_16
    3  A    between atoms: C_14  and  C_21
    4  A    between atoms: C_14  and  C_24
    5  A    between atoms: C_15  and  C_26
    6  A    between atoms: C_21  and  C_32
    7  A    between atoms: C_24  and  C_25
    8  A    between atoms: C_25  and  C_26
                            x       y       z     vdW  Elec       q    Type
                         _______ _______ _______ _____ _____    ______ ____

>  <TORSDO>
F 8

$$$$
=
 OpenBabel11042414473D

 36 39  0  0  1  0  0  0  0  0999 V2000
  192.5560  170.7090  139.5710 S   0  0  0  0  0  0  0  0  0  0  0  0
  191.6570  171.0240  136.9700 N   0  0  0  0  0  1  0  0  0  0  0  0
  192.2770  171.9650  140.6520 C   0  0  0  0  0  0  0  0  0  0  0  0
  191.9140  173.6190  142.1630 C   0  0  0  0  0  0  0  0  0  0  0  0
  191.3300  172.7840  138.7100 C   0  0  0  0  0  0  0  0  0  0  0  0
  191.3520  174.0670  140.9140 N   0  0  0  0  0  0  0  0  0  0  0  0
  191.7970  171.5380  138.2890 C   0  0  0  0  0  0  0  0  0  0  0  0
  191.8880  174.3660  143.2790 C   0  0  2  0  0  3  0  0  0  0  0  0
  190.6800  173.6760  137.9240 F   0  0  0  0  0  0  0  0  0  0  0  0
  192.5480  172.2400  142.0780 C   0  0  0  0  0  2  0  0  0  0  0  0
  191.6250  172.9810  140.0530 C   0  0  0  0  0  0  0  0  0  0  0  0
  192.0840  176.8300  142.7620 C   0  0  0  0  0  1  0  0  0  0  0  0
  190.0110  175.8970  143.8060 C   0  0  0  0  0  0  0  0  0  0  0  0
  191.2540  175.7050  143.2920 C   0  0  0  0  0  0  0  0  0  0  0  0
  189.2760  174.7610  144.4410 C   0  0  0  0  0  1  0  0  0  0  0  0
  189.2800  177.1870  143.8390 C   0  0  0  0  0  3  0  0  0  0  0  0
  186.8140  177.5440  144.6230 C   0  0  0  0  0  3  0  0  0  0  0  0
  188.0450  177.3600  144.2310 C   0  0  0  0  0  0  0  0  0  0  0  0
  183.8810  178.1460  140.4840 C   0  0  0  0  0  3  0  0  0  0  0  0
  186.1730  178.3550  141.6190 C   0  0  0  0  0  3  0  0  0  0  0  0
  184.0950  178.4670  142.8590 C   0  0  0  0  0  0  0  0  0  0  0  0
  186.0390  178.7260  144.1470 C   0  0  1  0  0  3  0  0  0  0  0  0
  181.7800  178.3010  141.7430 C   0  0  0  0  0  1  0  0  0  0  0  0
  183.6920  178.6660  144.0640 N   0  0  0  0  0  2  0  0  0  0  0  0
  185.3990  178.1280  140.3320 C   0  0  0  0  0  3  0  0  0  0  0  0
  185.5240  178.4830  142.7740 C   0  0  0  0  0  0  0  0  0  0  0  0
  184.8050  178.8210  144.8680 O   0  0  0  0  0  0  0  0  0  0  0  0
  183.2650  178.2940  141.6650 C   0  0  0  0  0  0  0  0  0  0  0  0
  192.5610  173.8850  144.5290 C   0  0  0  0  0  2  0  0  0  0  0  0
  193.6420  174.8630  144.9610 C   0  0  0  0  0  2  0  0  0  0  0  0
  193.1090  175.8010  146.0320 C   0  0  2  0  0  3  0  0  0  0  0  0
  194.1890  176.6170  146.5610 N   0  0  0  0  0  1  0  0  0  0  0  0
  192.3960  175.0490  147.1600 C   0  0  0  0  0  2  0  0  0  0  0  0
  191.3650  176.9430  148.1870 O   0  0  0  0  0  1  0  0  0  0  0  0
  191.2160  175.7930  147.6990 C   0  0  0  0  0  0  0  0  0  0  0  0
  189.9490  175.2270  147.6370 O   0  0  0  0  0  0  0  0  0  0  0  0
  1  3  1  0  0  0  0
  2  7  1  0  0  0  0
  3 10  1  0  0  0  0
  4  8  1  0  0  0  0
  5 11  1  0  0  0  0
  6  4  2  0  0  0  0
  7  5  2  0  0  0  0
  7  1  1  0  0  0  0
  8 14  1  0  0  0  0
  8 29  1  6  0  0  0
  9  5  1  0  0  0  0
 10  4  1  0  0  0  0
 11  3  2  0  0  0  0
 11  6  1  0  0  0  0
 12 14  1  0  0  0  0
 13 16  1  0  0  0  0
 13 15  1  0  0  0  0
 14 13  2  0  0  0  0
 16 18  2  0  0  0  0
 18 17  2  0  0  0  0
 19 28  1  0  0  0  0
 20 26  2  0  0  0  0
 21 24  1  0  0  0  0
 22 17  1  1  0  0  0
 22 27  1  0  0  0  0
 24 27  1  0  0  0  0
 25 19  2  0  0  0  0
 25 20  1  0  0  0  0
 26 21  1  0  0  0  0
 26 22  1  0  0  0  0
 28 23  1  0  0  0  0
 28 21  2  0  0  0  0
 29 30  1  0  0  0  0
 30 31  1  0  0  0  0
 31 32  1  1  0  0  0
 31 33  1  0  0  0  0
 33 35  1  0  0  0  0
 35 34  1  0  0  0  0
 36 35  2  0  0  0  0
M  END
>  <MODEL>
9

>  <REMARK>
 VINA RESULT:      -7.1      2.402      2.913
  Name = 
  8 active torsions:
  status: ('A' for Active; 'I' for Inactive)
    1  A    between atoms: C_7  and  C_19
    2  A    between atoms: C_9  and  C_16
    3  A    between atoms: C_14  and  C_21
    4  A    between atoms: C_14  and  C_24
    5  A    between atoms: C_15  and  C_26
    6  A    between atoms: C_21  and  C_32
    7  A    between atoms: C_24  and  C_25
    8  A    between atoms: C_25  and  C_26
                            x       y       z     vdW  Elec       q    Type
                         _______ _______ _______ _____ _____    ______ ____

>  <TORSDO>
F 8

$$$$
