=
 OpenBabel11042417483D

 25 27  0  0  1  0  0  0  0  0999 V2000
  189.8090  177.8560  144.3180 S   0  0  0  0  0  0  0  0  0  0  0  0
  187.8760  177.0310  146.5080 C   0  0  0  0  0  0  0  0  0  0  0  0
  188.1060  175.7330  147.0930 C   0  0  0  0  0  3  0  0  0  0  0  0
  189.1530  174.8770  146.6910 N   0  0  0  0  0  0  0  0  0  0  0  0
  190.0860  175.1720  145.7070 C   0  0  0  0  0  0  0  0  0  0  0  0
  189.8790  176.3890  145.1530 C   0  0  0  0  0  0  0  0  0  0  0  0
  188.7980  177.2910  145.5470 C   0  0  0  0  0  0  0  0  0  0  0  0
  186.5660  178.1500  146.9930 S   0  0  0  0  0  0  0  0  0  0  0  0
  185.4010  177.6070  145.6850 C   0  0  0  0  0  0  0  0  0  0  0  0
  185.5030  176.2360  145.5290 F   0  0  0  0  0  0  0  0  0  0  0  0
  184.1040  177.9110  146.0610 F   0  0  0  0  0  0  0  0  0  0  0  0
  185.7000  178.2770  144.3340 C   0  0  2  0  0  3  0  0  0  0  0  0
  185.4510  179.7800  144.3370 C   0  0  0  0  0  1  0  0  0  0  0  0
  185.0550  177.5830  143.1320 C   0  0  0  0  0  2  0  0  0  0  0  0
  186.0450  177.2230  142.1300 N   0  0  0  0  0  2  0  0  0  0  0  0
  186.6340  176.0250  142.5590 N   0  0  0  0  0  2  0  0  0  0  0  0
  187.8100  175.8090  141.7300 C   0  0  0  0  0  2  0  0  0  0  0  0
  188.5810  174.5910  142.2140 C   0  0  0  0  0  2  0  0  0  0  0  0
  189.9410  174.7530  141.9480 O   0  0  0  0  0  1  0  0  0  0  0  0
  191.1460  174.2190  145.2740 C   0  0  0  0  0  2  0  0  0  0  0  0
  193.5530  175.0730  145.1140 C   0  0  2  0  0  3  0  0  0  0  0  0
  192.4380  174.9320  147.3110 F   0  0  0  0  0  0  0  0  0  0  0  0
  193.6190  173.6310  145.6070 C   0  0  0  0  0  2  0  0  0  0  0  0
  194.4230  175.8600  145.8710 O   0  0  0  0  0  1  0  0  0  0  0  0
  192.4530  174.5100  145.9910 C   0  0  1  0  0  0  0  0  0  0  0  0
  1  6  1  0  0  0  0
  1  7  1  0  0  0  0
  2  8  1  0  0  0  0
  2  3  1  0  0  0  0
  4  3  2  0  0  0  0
  5  4  1  0  0  0  0
  6  7  1  0  0  0  0
  6  5  2  0  0  0  0
  7  2  2  0  0  0  0
  9 11  1  0  0  0  0
  9  8  1  0  0  0  0
 10  9  1  0  0  0  0
 12 13  1  1  0  0  0
 12  9  1  0  0  0  0
 14 12  1  0  0  0  0
 15 16  1  0  0  0  0
 15 14  1  0  0  0  0
 17 18  1  0  0  0  0
 17 16  1  0  0  0  0
 19 18  1  0  0  0  0
 20  5  1  0  0  0  0
 20 25  1  0  0  0  0
 21 23  1  0  0  0  0
 21 24  1  1  0  0  0
 21 25  1  0  0  0  0
 23 25  1  0  0  0  0
 25 22  1  1  0  0  0
M  END
>  <MODEL>
1

>  <REMARK>
 VINA RESULT:      -5.8      0.000      0.000
  Name = 
  10 active torsions:
  status: ('A' for Active; 'I' for Inactive)
    1  A    between atoms: C_1  and  N_6
    2  A    between atoms: C_1  and  C_7
    3  A    between atoms: C_3  and  C_4
    4  A    between atoms: C_3  and  N_24
    5  A    between atoms: C_5  and  C_7
    6  A    between atoms: C_5  and  S_8
    7  A    between atoms: N_6  and  N_24
    8  A    between atoms: S_8  and  C_13
    9  A    between atoms: C_12  and  C_17
   10  A    between atoms: C_12  and  C_20
                            x       y       z     vdW  Elec       q    Type
                         _______ _______ _______ _____ _____    ______ ____

>  <TORSDO>
F 10

$$$$
=
 OpenBabel11042417483D

 25 27  0  0  1  0  0  0  0  0999 V2000
  189.0310  174.5490  147.2940 S   0  0  0  0  0  0  0  0  0  0  0  0
  190.4740  176.3700  145.3400 C   0  0  0  0  0  0  0  0  0  0  0  0
  189.7650  177.5650  144.9550 C   0  0  0  0  0  3  0  0  0  0  0  0
  188.4800  177.8920  145.4350 N   0  0  0  0  0  0  0  0  0  0  0  0
  187.7490  177.1270  146.3330 C   0  0  0  0  0  0  0  0  0  0  0  0
  188.4070  176.0040  146.7020 C   0  0  0  0  0  0  0  0  0  0  0  0
  189.7360  175.6390  146.2130 C   0  0  0  0  0  0  0  0  0  0  0  0
  192.1070  175.9220  144.7610 S   0  0  0  0  0  0  0  0  0  0  0  0
  192.8540  175.8500  146.4350 C   0  0  0  0  0  0  0  0  0  0  0  0
  192.2290  176.7780  147.2490 F   0  0  0  0  0  0  0  0  0  0  0  0
  192.6630  174.5910  146.9770 F   0  0  0  0  0  0  0  0  0  0  0  0
  194.3600  176.1590  146.4070 C   0  0  2  0  0  3  0  0  0  0  0  0
  194.6890  177.4940  145.7510 C   0  0  0  0  0  1  0  0  0  0  0  0
  195.2250  175.0180  145.8680 C   0  0  0  0  0  2  0  0  0  0  0  0
  195.9540  175.4190  144.6750 N   0  0  0  0  0  2  0  0  0  0  0  0
  195.5750  174.5340  143.6560 N   0  0  0  0  0  2  0  0  0  0  0  0
  196.3620  174.8750  142.4820 C   0  0  0  0  0  2  0  0  0  0  0  0
  196.7550  176.3430  142.5160 C   0  0  0  0  0  2  0  0  0  0  0  0
  196.1870  177.0130  141.4320 O   0  0  0  0  0  1  0  0  0  0  0  0
  186.3710  177.4800  146.7760 C   0  0  0  0  0  2  0  0  0  0  0  0
  185.2770  179.2660  145.3050 C   0  0  2  0  0  3  0  0  0  0  0  0
  185.4990  176.9520  144.4770 F   0  0  0  0  0  0  0  0  0  0  0  0
  184.1540  178.4210  145.8990 C   0  0  0  0  0  2  0  0  0  0  0  0
  185.0290  179.4770  143.9480 O   0  0  0  0  0  1  0  0  0  0  0  0
  185.4870  177.7900  145.5800 C   0  0  1  0  0  0  0  0  0  0  0  0
  2  7  1  0  0  0  0
  3  2  2  0  0  0  0
  3  4  1  0  0  0  0
  4  5  2  0  0  0  0
  5  6  1  0  0  0  0
  5 20  1  0  0  0  0
  6  1  1  0  0  0  0
  7  6  2  0  0  0  0
  7  1  1  0  0  0  0
  8  2  1  0  0  0  0
  8  9  1  0  0  0  0
  9 11  1  0  0  0  0
  9 10  1  0  0  0  0
 12 13  1  6  0  0  0
 12  9  1  0  0  0  0
 14 12  1  0  0  0  0
 15 14  1  0  0  0  0
 16 15  1  0  0  0  0
 17 18  1  0  0  0  0
 17 16  1  0  0  0  0
 19 18  1  0  0  0  0
 21 24  1  6  0  0  0
 21 25  1  0  0  0  0
 21 23  1  0  0  0  0
 25 22  1  6  0  0  0
 25 23  1  0  0  0  0
 25 20  1  0  0  0  0
M  END
>  <MODEL>
2

>  <REMARK>
 VINA RESULT:      -5.6      3.341      7.579
  Name = 
  10 active torsions:
  status: ('A' for Active; 'I' for Inactive)
    1  A    between atoms: C_1  and  N_6
    2  A    between atoms: C_1  and  C_7
    3  A    between atoms: C_3  and  C_4
    4  A    between atoms: C_3  and  N_24
    5  A    between atoms: C_5  and  C_7
    6  A    between atoms: C_5  and  S_8
    7  A    between atoms: N_6  and  N_24
    8  A    between atoms: S_8  and  C_13
    9  A    between atoms: C_12  and  C_17
   10  A    between atoms: C_12  and  C_20
                            x       y       z     vdW  Elec       q    Type
                         _______ _______ _______ _____ _____    ______ ____

>  <TORSDO>
F 10

$$$$
=
 OpenBabel11042417483D

 25 27  0  0  1  0  0  0  0  0999 V2000
  189.3750  173.9900  142.3040 S   0  0  0  0  0  0  0  0  0  0  0  0
  191.1130  176.1490  143.5410 C   0  0  0  0  0  0  0  0  0  0  0  0
  190.6210  177.4990  143.4180 C   0  0  0  0  0  3  0  0  0  0  0  0
  189.4140  177.8270  142.7650 N   0  0  0  0  0  0  0  0  0  0  0  0
  188.5540  176.9090  142.1790 C   0  0  0  0  0  0  0  0  0  0  0  0
  189.0070  175.6390  142.2910 C   0  0  0  0  0  0  0  0  0  0  0  0
  190.2570  175.2750  142.9550 C   0  0  0  0  0  0  0  0  0  0  0  0
  192.6330  175.6900  144.3660 S   0  0  0  0  0  0  0  0  0  0  0  0
  191.8080  174.7450  145.7040 C   0  0  0  0  0  0  0  0  0  0  0  0
  191.2720  173.5850  145.1730 F   0  0  0  0  0  0  0  0  0  0  0  0
  192.7370  174.3970  146.6700 F   0  0  0  0  0  0  0  0  0  0  0  0
  190.6770  175.5500  146.3640 C   0  0  2  0  0  3  0  0  0  0  0  0
  191.1480  176.4100  147.5300 C   0  0  0  0  0  1  0  0  0  0  0  0
  189.4390  174.7220  146.7160 C   0  0  0  0  0  2  0  0  0  0  0  0
  188.2990  175.5710  147.0200 N   0  0  0  0  0  2  0  0  0  0  0  0
  187.9620  176.2330  145.8310 N   0  0  0  0  0  2  0  0  0  0  0  0
  187.2220  177.4280  146.2050 C   0  0  0  0  0  2  0  0  0  0  0  0
  186.0080  177.0600  147.0420 C   0  0  0  0  0  2  0  0  0  0  0  0
  184.9130  176.8190  146.2120 O   0  0  0  0  0  1  0  0  0  0  0  0
  187.3130  177.3000  141.4520 C   0  0  0  0  0  2  0  0  0  0  0  0
  185.0260  178.3490  141.9200 C   0  0  2  0  0  3  0  0  0  0  0  0
  185.8060  176.4380  143.2720 F   0  0  0  0  0  0  0  0  0  0  0  0
  185.9850  178.8630  142.9900 C   0  0  0  0  0  2  0  0  0  0  0  0
  183.8220  177.9770  142.5190 O   0  0  0  0  0  1  0  0  0  0  0  0
  186.1570  177.4750  142.4230 C   0  0  1  0  0  0  0  0  0  0  0  0
  1  7  1  0  0  0  0
  2  8  1  0  0  0  0
  3  2  1  0  0  0  0
  4  3  2  0  0  0  0
  5  6  2  0  0  0  0
  5  4  1  0  0  0  0
  6  1  1  0  0  0  0
  6  7  1  0  0  0  0
  7  2  2  0  0  0  0
  8  9  1  0  0  0  0
  9 12  1  0  0  0  0
  9 11  1  0  0  0  0
 10  9  1  0  0  0  0
 12 14  1  0  0  0  0
 12 13  1  1  0  0  0
 14 15  1  0  0  0  0
 16 17  1  0  0  0  0
 16 15  1  0  0  0  0
 17 18  1  0  0  0  0
 19 18  1  0  0  0  0
 20  5  1  0  0  0  0
 20 25  1  0  0  0  0
 21 25  1  0  0  0  0
 21 24  1  1  0  0  0
 21 23  1  0  0  0  0
 25 23  1  0  0  0  0
 25 22  1  1  0  0  0
M  END
>  <MODEL>
3

>  <REMARK>
 VINA RESULT:      -5.5      3.314      6.668
  Name = 
  10 active torsions:
  status: ('A' for Active; 'I' for Inactive)
    1  A    between atoms: C_1  and  N_6
    2  A    between atoms: C_1  and  C_7
    3  A    between atoms: C_3  and  C_4
    4  A    between atoms: C_3  and  N_24
    5  A    between atoms: C_5  and  C_7
    6  A    between atoms: C_5  and  S_8
    7  A    between atoms: N_6  and  N_24
    8  A    between atoms: S_8  and  C_13
    9  A    between atoms: C_12  and  C_17
   10  A    between atoms: C_12  and  C_20
                            x       y       z     vdW  Elec       q    Type
                         _______ _______ _______ _____ _____    ______ ____

>  <TORSDO>
F 10

$$$$
=
 OpenBabel11042417483D

 25 27  0  0  1  0  0  0  0  0999 V2000
  189.0970  174.7900  147.2480 S   0  0  0  0  0  0  0  0  0  0  0  0
  190.7700  176.6530  145.5320 C   0  0  0  0  0  0  0  0  0  0  0  0
  190.0350  177.6180  144.7520 C   0  0  0  0  0  3  0  0  0  0  0  0
  188.6280  177.7120  144.7620 N   0  0  0  0  0  0  0  0  0  0  0  0
  187.7840  176.9100  145.5190 C   0  0  0  0  0  0  0  0  0  0  0  0
  188.4650  176.0020  146.2550 C   0  0  0  0  0  0  0  0  0  0  0  0
  189.9220  175.8800  146.2560 C   0  0  0  0  0  0  0  0  0  0  0  0
  192.5540  176.5070  145.5540 S   0  0  0  0  0  0  0  0  0  0  0  0
  192.6470  175.4820  144.0350 C   0  0  0  0  0  0  0  0  0  0  0  0
  192.2540  176.2460  142.9510 F   0  0  0  0  0  0  0  0  0  0  0  0
  193.9530  175.0700  143.8320 F   0  0  0  0  0  0  0  0  0  0  0  0
  191.7380  174.2450  144.1190 C   0  0  2  0  0  3  0  0  0  0  0  0
  192.4680  172.9900  144.5770 C   0  0  0  0  0  1  0  0  0  0  0  0
  190.8930  174.0020  142.8670 C   0  0  0  0  0  2  0  0  0  0  0  0
  189.4830  174.2520  143.1190 N   0  0  0  0  0  2  0  0  0  0  0  0
  189.0820  175.2430  142.2120 N   0  0  0  0  0  2  0  0  0  0  0  0
  187.6300  175.1870  142.1340 C   0  0  0  0  0  2  0  0  0  0  0  0
  187.0670  176.5470  141.7570 C   0  0  0  0  0  2  0  0  0  0  0  0
  188.1020  177.4030  141.3810 O   0  0  0  0  0  1  0  0  0  0  0  0
  186.2980  177.0040  145.4610 C   0  0  0  0  0  2  0  0  0  0  0  0
  185.9180  178.4660  147.5280 C   0  0  2  0  0  3  0  0  0  0  0  0
  186.0080  179.4970  145.2870 F   0  0  0  0  0  0  0  0  0  0  0  0
  184.5640  178.2840  146.8480 C   0  0  0  0  0  2  0  0  0  0  0  0
  186.0770  179.8040  147.8900 O   0  0  0  0  0  1  0  0  0  0  0  0
  185.8250  178.3360  146.0200 C   0  0  1  0  0  0  0  0  0  0  0  0
  2  8  1  0  0  0  0
  2  7  1  0  0  0  0
  3  4  1  0  0  0  0
  3  2  2  0  0  0  0
  4  5  2  0  0  0  0
  5  6  1  0  0  0  0
  6  7  2  0  0  0  0
  6  1  1  0  0  0  0
  7  1  1  0  0  0  0
  9 12  1  0  0  0  0
  9  8  1  0  0  0  0
 10  9  1  0  0  0  0
 11  9  1  0  0  0  0
 12 13  1  6  0  0  0
 14 15  1  0  0  0  0
 14 12  1  0  0  0  0
 16 15  1  0  0  0  0
 17 16  1  0  0  0  0
 18 17  1  0  0  0  0
 19 18  1  0  0  0  0
 20  5  1  0  0  0  0
 20 25  1  0  0  0  0
 21 24  1  6  0  0  0
 23 21  1  0  0  0  0
 25 22  1  6  0  0  0
 25 23  1  0  0  0  0
 25 21  1  0  0  0  0
M  END
>  <MODEL>
4

>  <REMARK>
 VINA RESULT:      -5.5      2.937      6.319
  Name = 
  10 active torsions:
  status: ('A' for Active; 'I' for Inactive)
    1  A    between atoms: C_1  and  N_6
    2  A    between atoms: C_1  and  C_7
    3  A    between atoms: C_3  and  C_4
    4  A    between atoms: C_3  and  N_24
    5  A    between atoms: C_5  and  C_7
    6  A    between atoms: C_5  and  S_8
    7  A    between atoms: N_6  and  N_24
    8  A    between atoms: S_8  and  C_13
    9  A    between atoms: C_12  and  C_17
   10  A    between atoms: C_12  and  C_20
                            x       y       z     vdW  Elec       q    Type
                         _______ _______ _______ _____ _____    ______ ____

>  <TORSDO>
F 10

$$$$
=
 OpenBabel11042417483D

 25 27  0  0  1  0  0  0  0  0999 V2000
  188.2140  176.1820  143.0590 S   0  0  0  0  0  0  0  0  0  0  0  0
  190.0400  176.7980  145.4050 C   0  0  0  0  0  0  0  0  0  0  0  0
  189.3820  177.0680  146.6590 C   0  0  0  0  0  3  0  0  0  0  0  0
  187.9800  177.0590  146.8160 N   0  0  0  0  0  0  0  0  0  0  0  0
  187.0700  176.7820  145.8050 C   0  0  0  0  0  0  0  0  0  0  0  0
  187.6780  176.5250  144.6250 C   0  0  0  0  0  0  0  0  0  0  0  0
  189.1280  176.5360  144.4350 C   0  0  0  0  0  0  0  0  0  0  0  0
  191.8130  176.7920  145.1650 S   0  0  0  0  0  0  0  0  0  0  0  0
  192.1020  175.2720  146.1500 C   0  0  0  0  0  0  0  0  0  0  0  0
  192.0100  175.5830  147.4960 F   0  0  0  0  0  0  0  0  0  0  0  0
  191.1320  174.3320  145.8500 F   0  0  0  0  0  0  0  0  0  0  0  0
  193.4880  174.6660  145.8800 C   0  0  2  0  0  3  0  0  0  0  0  0
  194.6350  175.6180  146.1960 C   0  0  0  0  0  1  0  0  0  0  0  0
  193.6330  174.0200  144.5010 C   0  0  0  0  0  2  0  0  0  0  0  0
  194.4590  174.8270  143.6180 N   0  0  0  0  0  2  0  0  0  0  0  0
  195.5220  174.0120  143.2050 N   0  0  0  0  0  2  0  0  0  0  0  0
  196.5800  174.8960  142.7400 C   0  0  0  0  0  2  0  0  0  0  0  0
  196.0910  176.3350  142.7040 C   0  0  0  0  0  2  0  0  0  0  0  0
  196.9250  177.1400  143.4800 O   0  0  0  0  0  1  0  0  0  0  0  0
  185.5930  176.8340  145.9990 C   0  0  0  0  0  2  0  0  0  0  0  0
  185.4700  179.3160  145.3890 C   0  0  2  0  0  3  0  0  0  0  0  0
  184.6260  177.6150  143.8130 F   0  0  0  0  0  0  0  0  0  0  0  0
  184.0730  178.8900  145.8280 C   0  0  0  0  0  2  0  0  0  0  0  0
  185.3750  180.0930  144.2330 O   0  0  0  0  0  1  0  0  0  0  0  0
  184.9760  177.9090  145.1210 C   0  0  1  0  0  0  0  0  0  0  0  0
  1  7  1  0  0  0  0
  1  6  1  0  0  0  0
  2  3  1  0  0  0  0
  3  4  2  0  0  0  0
  5 20  1  0  0  0  0
  5  4  1  0  0  0  0
  6  5  2  0  0  0  0
  7  6  1  0  0  0  0
  7  2  2  0  0  0  0
  8  2  1  0  0  0  0
  8  9  1  0  0  0  0
  9 10  1  0  0  0  0
 11  9  1  0  0  0  0
 12  9  1  0  0  0  0
 12 13  1  6  0  0  0
 14 12  1  0  0  0  0
 15 14  1  0  0  0  0
 16 15  1  0  0  0  0
 17 16  1  0  0  0  0
 18 17  1  0  0  0  0
 18 19  1  0  0  0  0
 21 24  1  6  0  0  0
 21 23  1  0  0  0  0
 25 22  1  6  0  0  0
 25 21  1  0  0  0  0
 25 23  1  0  0  0  0
 25 20  1  0  0  0  0
M  END
>  <MODEL>
5

>  <REMARK>
 VINA RESULT:      -5.4      3.070      7.354
  Name = 
  10 active torsions:
  status: ('A' for Active; 'I' for Inactive)
    1  A    between atoms: C_1  and  N_6
    2  A    between atoms: C_1  and  C_7
    3  A    between atoms: C_3  and  C_4
    4  A    between atoms: C_3  and  N_24
    5  A    between atoms: C_5  and  C_7
    6  A    between atoms: C_5  and  S_8
    7  A    between atoms: N_6  and  N_24
    8  A    between atoms: S_8  and  C_13
    9  A    between atoms: C_12  and  C_17
   10  A    between atoms: C_12  and  C_20
                            x       y       z     vdW  Elec       q    Type
                         _______ _______ _______ _____ _____    ______ ____

>  <TORSDO>
F 10

$$$$
=
 OpenBabel11042417483D

 25 27  0  0  1  0  0  0  0  0999 V2000
  189.9760  174.0560  143.3080 S   0  0  0  0  0  0  0  0  0  0  0  0
  189.5270  177.0580  143.3720 C   0  0  0  0  0  0  0  0  0  0  0  0
  190.3190  177.7910  144.3290 C   0  0  0  0  0  3  0  0  0  0  0  0
  191.2480  177.1790  145.1960 N   0  0  0  0  0  0  0  0  0  0  0  0
  191.5240  175.8190  145.2330 C   0  0  0  0  0  0  0  0  0  0  0  0
  190.7870  175.1230  144.3370 C   0  0  0  0  0  0  0  0  0  0  0  0
  189.8130  175.7330  143.4330 C   0  0  0  0  0  0  0  0  0  0  0  0
  188.3450  177.7960  142.2500 S   0  0  0  0  0  0  0  0  0  0  0  0
  186.8830  176.9840  143.0030 C   0  0  0  0  0  0  0  0  0  0  0  0
  186.6210  175.8060  142.3270 F   0  0  0  0  0  0  0  0  0  0  0  0
  187.1500  176.6800  144.3270 F   0  0  0  0  0  0  0  0  0  0  0  0
  185.6320  177.8750  142.9360 C   0  0  2  0  0  3  0  0  0  0  0  0
  184.9900  177.9120  141.5560 C   0  0  0  0  0  1  0  0  0  0  0  0
  185.8260  179.2750  143.5240 C   0  0  0  0  0  2  0  0  0  0  0  0
  185.5930  179.2870  144.9590 N   0  0  0  0  0  2  0  0  0  0  0  0
  184.2910  178.8090  145.1590 N   0  0  0  0  0  2  0  0  0  0  0  0
  184.2250  178.3090  146.5230 C   0  0  0  0  0  2  0  0  0  0  0  0
  185.5360  177.6410  146.9060 C   0  0  0  0  0  2  0  0  0  0  0  0
  185.9120  178.0320  148.1910 O   0  0  0  0  0  1  0  0  0  0  0  0
  192.4750  175.2030  146.2010 C   0  0  0  0  0  2  0  0  0  0  0  0
  194.5220  175.8350  144.8000 C   0  0  2  0  0  3  0  0  0  0  0  0
  194.0430  177.0410  146.8990 F   0  0  0  0  0  0  0  0  0  0  0  0
  195.0190  174.9960  145.9740 C   0  0  0  0  0  2  0  0  0  0  0  0
  195.3590  176.9390  144.6330 O   0  0  0  0  0  1  0  0  0  0  0  0
  193.8230  175.9010  146.1440 C   0  0  1  0  0  0  0  0  0  0  0  0
  1  7  1  0  0  0  0
  1  6  1  0  0  0  0
  2  7  2  0  0  0  0
  2  3  1  0  0  0  0
  3  4  2  0  0  0  0
  4  5  1  0  0  0  0
  5 20  1  0  0  0  0
  6  5  2  0  0  0  0
  7  6  1  0  0  0  0
  8  9  1  0  0  0  0
  8  2  1  0  0  0  0
  9 11  1  0  0  0  0
 10  9  1  0  0  0  0
 12 13  1  6  0  0  0
 12  9  1  0  0  0  0
 12 14  1  0  0  0  0
 14 15  1  0  0  0  0
 15 16  1  0  0  0  0
 16 17  1  0  0  0  0
 17 18  1  0  0  0  0
 18 19  1  0  0  0  0
 21 24  1  1  0  0  0
 21 23  1  0  0  0  0
 21 25  1  0  0  0  0
 23 25  1  0  0  0  0
 25 20  1  0  0  0  0
 25 22  1  1  0  0  0
M  END
>  <MODEL>
6

>  <REMARK>
 VINA RESULT:      -5.4      2.762      3.761
  Name = 
  10 active torsions:
  status: ('A' for Active; 'I' for Inactive)
    1  A    between atoms: C_1  and  N_6
    2  A    between atoms: C_1  and  C_7
    3  A    between atoms: C_3  and  C_4
    4  A    between atoms: C_3  and  N_24
    5  A    between atoms: C_5  and  C_7
    6  A    between atoms: C_5  and  S_8
    7  A    between atoms: N_6  and  N_24
    8  A    between atoms: S_8  and  C_13
    9  A    between atoms: C_12  and  C_17
   10  A    between atoms: C_12  and  C_20
                            x       y       z     vdW  Elec       q    Type
                         _______ _______ _______ _____ _____    ______ ____

>  <TORSDO>
F 10

$$$$
=
 OpenBabel11042417483D

 25 27  0  0  1  0  0  0  0  0999 V2000
  191.2210  175.2940  147.4130 S   0  0  0  0  0  0  0  0  0  0  0  0
  189.9810  176.4640  144.9020 C   0  0  0  0  0  0  0  0  0  0  0  0
  190.8900  177.1430  144.0110 C   0  0  0  0  0  3  0  0  0  0  0  0
  192.2710  177.2750  144.2660 N   0  0  0  0  0  0  0  0  0  0  0  0
  192.9250  176.7680  145.3800 C   0  0  0  0  0  0  0  0  0  0  0  0
  192.0800  176.1270  146.2210 C   0  0  0  0  0  0  0  0  0  0  0  0
  190.6450  175.9840  145.9830 C   0  0  0  0  0  0  0  0  0  0  0  0
  188.2260  176.2680  144.6130 S   0  0  0  0  0  0  0  0  0  0  0  0
  187.7190  177.0010  146.2160 C   0  0  0  0  0  0  0  0  0  0  0  0
  187.6390  175.9970  147.1660 F   0  0  0  0  0  0  0  0  0  0  0  0
  188.6670  177.9210  146.6290 F   0  0  0  0  0  0  0  0  0  0  0  0
  186.3510  177.6970  146.1230 C   0  0  2  0  0  3  0  0  0  0  0  0
  185.1870  176.7960  146.5140 C   0  0  0  0  0  1  0  0  0  0  0  0
  186.1050  178.4230  144.7980 C   0  0  0  0  0  2  0  0  0  0  0  0
  184.8140  178.0710  144.2300 N   0  0  0  0  0  2  0  0  0  0  0  0
  185.0660  177.5420  142.9560 N   0  0  0  0  0  2  0  0  0  0  0  0
  185.8420  178.5340  142.2290 C   0  0  0  0  0  2  0  0  0  0  0  0
  186.4670  177.9130  140.9900 C   0  0  0  0  0  2  0  0  0  0  0  0
  187.7990  177.5860  141.2420 O   0  0  0  0  0  1  0  0  0  0  0  0
  194.3770  176.9740  145.6390 C   0  0  0  0  0  2  0  0  0  0  0  0
  196.1080  175.6990  144.2500 C   0  0  2  0  0  3  0  0  0  0  0  0
  195.5140  174.9060  146.5100 F   0  0  0  0  0  0  0  0  0  0  0  0
  194.8010  174.9180  144.1680 C   0  0  0  0  0  2  0  0  0  0  0  0
  197.1640  174.8140  144.4740 O   0  0  0  0  0  1  0  0  0  0  0  0
  195.1480  175.6820  145.4230 C   0  0  1  0  0  0  0  0  0  0  0  0
  2  7  1  0  0  0  0
  3  4  1  0  0  0  0
  3  2  2  0  0  0  0
  4  5  2  0  0  0  0
  5 20  1  0  0  0  0
  5  6  1  0  0  0  0
  6  1  1  0  0  0  0
  7  6  2  0  0  0  0
  7  1  1  0  0  0  0
  8  2  1  0  0  0  0
  8  9  1  0  0  0  0
  9 11  1  0  0  0  0
  9 10  1  0  0  0  0
 12  9  1  0  0  0  0
 12 13  1  6  0  0  0
 14 12  1  0  0  0  0
 15 14  1  0  0  0  0
 16 15  1  0  0  0  0
 17 16  1  0  0  0  0
 18 19  1  0  0  0  0
 18 17  1  0  0  0  0
 21 24  1  1  0  0  0
 21 25  1  0  0  0  0
 23 21  1  0  0  0  0
 23 25  1  0  0  0  0
 25 20  1  0  0  0  0
 25 22  1  1  0  0  0
M  END
>  <MODEL>
7

>  <REMARK>
 VINA RESULT:      -5.4      2.442      3.290
  Name = 
  10 active torsions:
  status: ('A' for Active; 'I' for Inactive)
    1  A    between atoms: C_1  and  N_6
    2  A    between atoms: C_1  and  C_7
    3  A    between atoms: C_3  and  C_4
    4  A    between atoms: C_3  and  N_24
    5  A    between atoms: C_5  and  C_7
    6  A    between atoms: C_5  and  S_8
    7  A    between atoms: N_6  and  N_24
    8  A    between atoms: S_8  and  C_13
    9  A    between atoms: C_12  and  C_17
   10  A    between atoms: C_12  and  C_20
                            x       y       z     vdW  Elec       q    Type
                         _______ _______ _______ _____ _____    ______ ____

>  <TORSDO>
F 10

$$$$
=
 OpenBabel11042417483D

 25 27  0  0  1  0  0  0  0  0999 V2000
  187.8040  175.2090  142.3790 S   0  0  0  0  0  0  0  0  0  0  0  0
  190.1480  176.2180  144.0210 C   0  0  0  0  0  0  0  0  0  0  0  0
  189.8680  177.3250  144.9030 C   0  0  0  0  0  3  0  0  0  0  0  0
  188.5950  177.9240  145.0130 N   0  0  0  0  0  0  0  0  0  0  0  0
  187.4670  177.5260  144.3100 C   0  0  0  0  0  0  0  0  0  0  0  0
  187.7200  176.4870  143.4810 C   0  0  0  0  0  0  0  0  0  0  0  0
  189.0310  175.8540  143.3440 C   0  0  0  0  0  0  0  0  0  0  0  0
  191.7440  175.4260  143.8570 S   0  0  0  0  0  0  0  0  0  0  0  0
  191.5860  174.4320  145.3910 C   0  0  0  0  0  0  0  0  0  0  0  0
  190.2450  174.2810  145.6950 F   0  0  0  0  0  0  0  0  0  0  0  0
  192.1340  173.1770  145.1910 F   0  0  0  0  0  0  0  0  0  0  0  0
  192.2870  175.1000  146.5850 C   0  0  2  0  0  3  0  0  0  0  0  0
  191.3710  175.3060  147.7840 C   0  0  0  0  0  1  0  0  0  0  0  0
  193.0670  176.3670  146.2250 C   0  0  0  0  0  2  0  0  0  0  0  0
  194.5020  176.1430  146.2850 N   0  0  0  0  0  2  0  0  0  0  0  0
  195.0730  176.9200  145.2680 N   0  0  0  0  0  2  0  0  0  0  0  0
  195.3970  176.0180  144.1730 C   0  0  0  0  0  2  0  0  0  0  0  0
  196.6890  176.4470  143.4980 C   0  0  0  0  0  2  0  0  0  0  0  0
  196.4410  176.7890  142.1690 O   0  0  0  0  0  1  0  0  0  0  0  0
  186.1520  178.2180  144.4150 C   0  0  0  0  0  2  0  0  0  0  0  0
  185.7790  177.0620  146.6680 C   0  0  2  0  0  3  0  0  0  0  0  0
  186.0000  179.5180  146.5630 F   0  0  0  0  0  0  0  0  0  0  0  0
  184.4420  177.6580  146.2400 C   0  0  0  0  0  2  0  0  0  0  0  0
  185.9970  177.3370  148.0190 O   0  0  0  0  0  1  0  0  0  0  0  0
  185.7310  178.3490  145.8690 C   0  0  1  0  0  0  0  0  0  0  0  0
  1  7  1  0  0  0  0
  1  6  1  0  0  0  0
  2  3  1  0  0  0  0
  3  4  2  0  0  0  0
  5 20  1  0  0  0  0
  5  4  1  0  0  0  0
  6  5  2  0  0  0  0
  7  6  1  0  0  0  0
  7  2  2  0  0  0  0
  8  2  1  0  0  0  0
  8  9  1  0  0  0  0
  9 10  1  0  0  0  0
  9 12  1  0  0  0  0
 11  9  1  0  0  0  0
 12 13  1  1  0  0  0
 14 15  1  0  0  0  0
 14 12  1  0  0  0  0
 16 15  1  0  0  0  0
 17 16  1  0  0  0  0
 18 17  1  0  0  0  0
 19 18  1  0  0  0  0
 20 25  1  0  0  0  0
 21 24  1  1  0  0  0
 23 21  1  0  0  0  0
 25 23  1  0  0  0  0
 25 22  1  1  0  0  0
 25 21  1  0  0  0  0
M  END
>  <MODEL>
8

>  <REMARK>
 VINA RESULT:      -5.4      3.180      7.060
  Name = 
  10 active torsions:
  status: ('A' for Active; 'I' for Inactive)
    1  A    between atoms: C_1  and  N_6
    2  A    between atoms: C_1  and  C_7
    3  A    between atoms: C_3  and  C_4
    4  A    between atoms: C_3  and  N_24
    5  A    between atoms: C_5  and  C_7
    6  A    between atoms: C_5  and  S_8
    7  A    between atoms: N_6  and  N_24
    8  A    between atoms: S_8  and  C_13
    9  A    between atoms: C_12  and  C_17
   10  A    between atoms: C_12  and  C_20
                            x       y       z     vdW  Elec       q    Type
                         _______ _______ _______ _____ _____    ______ ____

>  <TORSDO>
F 10

$$$$
=
 OpenBabel11042417483D

 25 27  0  0  1  0  0  0  0  0999 V2000
  188.3250  175.8840  143.1740 S   0  0  0  0  0  0  0  0  0  0  0  0
  190.2540  176.8820  145.2950 C   0  0  0  0  0  0  0  0  0  0  0  0
  189.6580  177.2840  146.5460 C   0  0  0  0  0  3  0  0  0  0  0  0
  188.2710  177.2320  146.7960 N   0  0  0  0  0  0  0  0  0  0  0  0
  187.3180  176.7850  145.8910 C   0  0  0  0  0  0  0  0  0  0  0  0
  187.8670  176.4040  144.7150 C   0  0  0  0  0  0  0  0  0  0  0  0
  189.3000  176.4550  144.4300 C   0  0  0  0  0  0  0  0  0  0  0  0
  192.0070  176.9240  144.9410 S   0  0  0  0  0  0  0  0  0  0  0  0
  192.4190  175.4870  146.0040 C   0  0  0  0  0  0  0  0  0  0  0  0
  192.6360  175.9290  147.2970 F   0  0  0  0  0  0  0  0  0  0  0  0
  191.3570  174.5980  146.0170 F   0  0  0  0  0  0  0  0  0  0  0  0
  193.6800  174.7550  145.5180 C   0  0  2  0  0  3  0  0  0  0  0  0
  194.9640  175.2850  146.1420 C   0  0  0  0  0  1  0  0  0  0  0  0
  193.7830  174.6250  143.9970 C   0  0  0  0  0  2  0  0  0  0  0  0
  192.8930  173.5950  143.4880 N   0  0  0  0  0  2  0  0  0  0  0  0
  193.1950  172.4190  144.1890 N   0  0  0  0  0  2  0  0  0  0  0  0
  191.9700  171.6370  144.2580 C   0  0  0  0  0  2  0  0  0  0  0  0
  190.8130  172.4120  143.6500 C   0  0  0  0  0  2  0  0  0  0  0  0
  189.6960  172.3290  144.4820 O   0  0  0  0  0  1  0  0  0  0  0  0
  185.8550  176.7950  146.1740 C   0  0  0  0  0  2  0  0  0  0  0  0
  185.4950  179.2180  145.4310 C   0  0  2  0  0  3  0  0  0  0  0  0
  184.8150  177.3600  143.9550 F   0  0  0  0  0  0  0  0  0  0  0  0
  184.1450  178.6850  145.9010 C   0  0  0  0  0  2  0  0  0  0  0  0
  185.3250  179.9170  144.2350 O   0  0  0  0  0  1  0  0  0  0  0  0
  185.1370  177.7570  145.2430 C   0  0  1  0  0  0  0  0  0  0  0  0
  1  7  1  0  0  0  0
  1  6  1  0  0  0  0
  2  3  1  0  0  0  0
  3  4  2  0  0  0  0
  5 20  1  0  0  0  0
  5  4  1  0  0  0  0
  6  5  2  0  0  0  0
  7  6  1  0  0  0  0
  7  2  2  0  0  0  0
  8  2  1  0  0  0  0
  8  9  1  0  0  0  0
  9 11  1  0  0  0  0
  9 10  1  0  0  0  0
 12  9  1  0  0  0  0
 12 13  1  6  0  0  0
 14 12  1  0  0  0  0
 15 14  1  0  0  0  0
 15 16  1  0  0  0  0
 16 17  1  0  0  0  0
 18 17  1  0  0  0  0
 18 19  1  0  0  0  0
 21 24  1  6  0  0  0
 21 23  1  0  0  0  0
 25 22  1  6  0  0  0
 25 21  1  0  0  0  0
 25 23  1  0  0  0  0
 25 20  1  0  0  0  0
M  END
>  <MODEL>
9

>  <REMARK>
 VINA RESULT:      -5.4      2.720      6.892
  Name = 
  10 active torsions:
  status: ('A' for Active; 'I' for Inactive)
    1  A    between atoms: C_1  and  N_6
    2  A    between atoms: C_1  and  C_7
    3  A    between atoms: C_3  and  C_4
    4  A    between atoms: C_3  and  N_24
    5  A    between atoms: C_5  and  C_7
    6  A    between atoms: C_5  and  S_8
    7  A    between atoms: N_6  and  N_24
    8  A    between atoms: S_8  and  C_13
    9  A    between atoms: C_12  and  C_17
   10  A    between atoms: C_12  and  C_20
                            x       y       z     vdW  Elec       q    Type
                         _______ _______ _______ _____ _____    ______ ____

>  <TORSDO>
F 10

$$$$
