=
 OpenBabel11042418243D

 28 34  0  0  1  0  0  0  0  0999 V2000
  190.1580  176.0450  144.7220 C   0  0  2  0  0  0  0  0  0  0  0  0
  193.3410  175.5930  146.7220 O   0  0  0  0  0  0  0  0  0  0  0  0
  190.2050  177.0380  147.2530 C   0  0  0  0  0  3  0  0  0  0  0  0
  189.7050  176.7020  145.9810 N   0  0  0  0  0  0  0  0  0  0  0  0
  192.1360  175.8850  146.4990 C   0  0  0  0  0  0  0  0  0  0  0  0
  191.4340  175.3140  145.2450 C   0  0  2  0  0  3  0  0  0  0  0  0
  188.7950  175.9690  145.0870 C   0  0  2  0  0  0  0  0  0  0  0  0
  189.3520  174.9000  144.3070 N   0  0  0  0  0  2  0  0  0  0  0  0
  191.4160  176.6540  147.4880 N   0  0  0  0  0  0  0  0  0  0  0  0
  194.1740  174.7080  142.0330 N   0  0  0  0  0  0  0  0  0  0  0  0
  192.4000  175.0890  144.1180 C   0  0  0  0  0  0  0  0  0  0  0  0
  193.8060  173.6420  142.7940 C   0  0  0  0  0  3  0  0  0  0  0  0
  192.9100  173.8120  143.8520 C   0  0  0  0  0  3  0  0  0  0  0  0
  193.6880  175.9560  142.2740 C   0  0  0  0  0  3  0  0  0  0  0  0
  192.7900  176.1680  143.3220 C   0  0  0  0  0  3  0  0  0  0  0  0
  188.0210  176.9330  144.2080 C   0  0  0  0  0  2  0  0  0  0  0  0
  186.4910  178.1730  145.7880 C   0  0  1  0  0  3  0  0  0  0  0  0
  184.9830  178.3980  147.7430 C   0  0  0  0  0  2  0  0  0  0  0  0
  186.5910  177.0950  144.7170 C   0  0  1  0  0  3  0  0  0  0  0  0
  184.4140  178.3590  144.1070 C   0  0  0  0  0  3  0  0  0  0  0  0
  185.5250  177.4260  143.6040 C   0  0  1  0  0  3  0  0  0  0  0  0
  184.2550  178.5730  145.4350 C   0  0  0  0  0  3  0  0  0  0  0  0
  185.1210  177.7750  146.3730 C   0  0  1  0  0  0  0  0  0  0  0  0
  186.3460  177.9540  147.2580 C   0  0  1  0  0  3  0  0  0  0  0  0
  186.5500  179.1520  142.2930 O   0  0  0  0  0  0  0  0  0  0  0  0
  186.1610  177.1410  141.1770 N   0  0  0  0  0  2  0  0  0  0  0  0
  186.7070  177.6130  139.9760 N   0  0  0  0  0  1  0  0  0  0  0  0
  186.1040  177.9730  142.3340 C   0  0  0  0  0  0  0  0  0  0  0  0
  1  8  1  1  0  0  0
  1  7  1  0  0  0  0
  1  6  1  0  0  0  0
  1  4  1  0  0  0  0
  3  9  2  0  0  0  0
  4  3  1  0  0  0  0
  5  2  2  0  0  0  0
  5  9  1  0  0  0  0
  6 11  1  6  0  0  0
  6  5  1  0  0  0  0
  7 16  1  6  0  0  0
  7  4  1  0  0  0  0
  8  7  1  0  0  0  0
 10 14  2  0  0  0  0
 10 12  1  0  0  0  0
 12 13  2  0  0  0  0
 13 11  1  0  0  0  0
 14 15  1  0  0  0  0
 15 11  2  0  0  0  0
 16 19  1  0  0  0  0
 17 23  1  0  0  0  0
 17 24  1  0  0  0  0
 19 17  1  0  0  0  0
 20 22  2  0  0  0  0
 21 20  1  0  0  0  0
 21 19  1  0  0  0  0
 22 23  1  0  0  0  0
 23 24  1  0  0  0  0
 23 18  1  0  0  0  0
 24 18  1  0  0  0  0
 25 28  2  0  0  0  0
 26 28  1  0  0  0  0
 27 26  1  0  0  0  0
 28 21  1  0  0  0  0
M  END
>  <MODEL>
1

>  <REMARK>
 VINA RESULT:      -7.6      0.000      0.000
  Name = 
  4 active torsions:
  status: ('A' for Active; 'I' for Inactive)
    1  A    between atoms: C_6  and  C_15
    2  A    between atoms: C_12  and  C_27
    3  A    between atoms: C_13  and  C_19
    4  A    between atoms: C_15  and  C_22
                            x       y       z     vdW  Elec       q    Type
                         _______ _______ _______ _____ _____    ______ ____

>  <TORSDO>
F 4

$$$$
=
 OpenBabel11042418243D

 28 34  0  0  1  0  0  0  0  0999 V2000
  190.0920  176.5840  144.0630 C   0  0  2  0  0  0  0  0  0  0  0  0
  192.3210  173.5790  143.4770 O   0  0  0  0  0  0  0  0  0  0  0  0
  188.9560  174.3690  142.9680 C   0  0  0  0  0  3  0  0  0  0  0  0
  189.0690  175.6830  143.4600 N   0  0  0  0  0  0  0  0  0  0  0  0
  191.2860  174.2940  143.4070 C   0  0  0  0  0  0  0  0  0  0  0  0
  191.3920  175.8150  143.6690 C   0  0  2  0  0  3  0  0  0  0  0  0
  189.0450  177.1450  143.2990 C   0  0  2  0  0  0  0  0  0  0  0  0
  190.3020  177.8370  143.3430 N   0  0  0  0  0  2  0  0  0  0  0  0
  190.0510  173.6830  142.9730 N   0  0  0  0  0  0  0  0  0  0  0  0
  194.5110  176.7390  146.4270 N   0  0  0  0  0  0  0  0  0  0  0  0
  192.4980  176.1410  144.6300 C   0  0  0  0  0  0  0  0  0  0  0  0
  194.7770  176.7820  145.0940 C   0  0  0  0  0  3  0  0  0  0  0  0
  193.7750  176.4840  144.1690 C   0  0  0  0  0  3  0  0  0  0  0  0
  193.2770  176.4090  146.8960 C   0  0  0  0  0  3  0  0  0  0  0  0
  192.2470  176.1040  146.0030 C   0  0  0  0  0  3  0  0  0  0  0  0
  188.0490  177.7700  144.2580 C   0  0  0  0  0  2  0  0  0  0  0  0
  186.3980  177.4010  142.3840 C   0  0  1  0  0  3  0  0  0  0  0  0
  185.3510  177.8700  140.1860 C   0  0  0  0  0  2  0  0  0  0  0  0
  186.8510  178.3350  143.4980 C   0  0  1  0  0  3  0  0  0  0  0  0
  184.2680  178.4020  143.6630 C   0  0  0  0  0  3  0  0  0  0  0  0
  185.5950  178.6620  144.3920 C   0  0  1  0  0  3  0  0  0  0  0  0
  184.2520  178.2250  142.3210 C   0  0  0  0  0  3  0  0  0  0  0  0
  185.5520  178.4110  141.5830 C   0  0  1  0  0  0  0  0  0  0  0  0
  186.6410  177.5780  140.9220 C   0  0  1  0  0  3  0  0  0  0  0  0
  185.2710  176.7490  145.8010 O   0  0  0  0  0  0  0  0  0  0  0  0
  185.9410  178.6990  146.8930 N   0  0  0  0  0  2  0  0  0  0  0  0
  185.9530  178.0830  148.1510 N   0  0  0  0  0  1  0  0  0  0  0  0
  185.5820  177.9690  145.7210 C   0  0  0  0  0  0  0  0  0  0  0  0
  1  8  1  6  0  0  0
  3  9  2  0  0  0  0
  3  4  1  0  0  0  0
  4  1  1  0  0  0  0
  5  2  2  0  0  0  0
  5  6  1  0  0  0  0
  6  1  1  0  0  0  0
  6 11  1  1  0  0  0
  7  8  1  0  0  0  0
  7  4  1  0  0  0  0
  7  1  1  0  0  0  0
  7 16  1  1  0  0  0
  9  5  1  0  0  0  0
 10 14  1  0  0  0  0
 11 15  1  0  0  0  0
 12 10  2  0  0  0  0
 13 11  2  0  0  0  0
 13 12  1  0  0  0  0
 15 14  2  0  0  0  0
 17 19  1  0  0  0  0
 18 24  1  0  0  0  0
 18 23  1  0  0  0  0
 19 16  1  0  0  0  0
 19 21  1  0  0  0  0
 20 21  1  0  0  0  0
 21 28  1  0  0  0  0
 22 20  2  0  0  0  0
 23 22  1  0  0  0  0
 23 17  1  0  0  0  0
 24 23  1  0  0  0  0
 24 17  1  0  0  0  0
 26 27  1  0  0  0  0
 28 25  2  0  0  0  0
 28 26  1  0  0  0  0
M  END
>  <MODEL>
2

>  <REMARK>
 VINA RESULT:      -7.6      2.382      4.119
  Name = 
  4 active torsions:
  status: ('A' for Active; 'I' for Inactive)
    1  A    between atoms: C_6  and  C_15
    2  A    between atoms: C_12  and  C_27
    3  A    between atoms: C_13  and  C_19
    4  A    between atoms: C_15  and  C_22
                            x       y       z     vdW  Elec       q    Type
                         _______ _______ _______ _____ _____    ______ ____

>  <TORSDO>
F 4

$$$$
=
 OpenBabel11042418243D

 28 34  0  0  1  0  0  0  0  0999 V2000
  189.4140  176.5320  142.7250 C   0  0  2  0  0  0  0  0  0  0  0  0
  190.9890  173.3100  141.5090 O   0  0  0  0  0  0  0  0  0  0  0  0
  188.1060  175.1450  140.7850 C   0  0  0  0  0  3  0  0  0  0  0  0
  188.3890  176.1730  141.7040 N   0  0  0  0  0  0  0  0  0  0  0  0
  190.1870  174.2810  141.5270 C   0  0  0  0  0  0  0  0  0  0  0  0
  190.5640  175.5670  142.2990 C   0  0  2  0  0  3  0  0  0  0  0  0
  188.7310  177.5640  142.0440 C   0  0  2  0  0  0  0  0  0  0  0  0
  190.0630  177.8230  142.5120 N   0  0  0  0  0  2  0  0  0  0  0  0
  188.9870  174.2010  140.7270 N   0  0  0  0  0  0  0  0  0  0  0  0
  193.0640  174.7200  145.6500 N   0  0  0  0  0  0  0  0  0  0  0  0
  191.4540  175.2730  143.4720 C   0  0  0  0  0  0  0  0  0  0  0  0
  193.6010  175.3500  144.5710 C   0  0  0  0  0  3  0  0  0  0  0  0
  192.8060  175.6390  143.4600 C   0  0  0  0  0  3  0  0  0  0  0  0
  191.7530  174.3580  145.6830 C   0  0  0  0  0  3  0  0  0  0  0  0
  190.9230  174.6290  144.5920 C   0  0  0  0  0  3  0  0  0  0  0  0
  187.7010  178.1480  142.9920 C   0  0  0  0  0  2  0  0  0  0  0  0
  188.1200  177.8330  145.4620 C   0  0  1  0  0  3  0  0  0  0  0  0
  189.1350  176.7530  147.4500 C   0  0  0  0  0  2  0  0  0  0  0  0
  187.5050  177.2380  144.2020 C   0  0  1  0  0  3  0  0  0  0  0  0
  185.7390  176.7450  146.0310 C   0  0  0  0  0  3  0  0  0  0  0  0
  186.0040  176.8790  144.5240 C   0  0  1  0  0  3  0  0  0  0  0  0
  186.7740  176.6440  146.8980 C   0  0  0  0  0  3  0  0  0  0  0  0
  188.1580  176.5480  146.3140 C   0  0  1  0  0  0  0  0  0  0  0  0
  189.3950  177.4110  146.1120 C   0  0  1  0  0  3  0  0  0  0  0  0
  184.5910  178.8150  144.5610 O   0  0  0  0  0  0  0  0  0  0  0  0
  184.5210  177.5590  142.5970 N   0  0  0  0  0  2  0  0  0  0  0  0
  183.5920  178.4140  141.9920 N   0  0  0  0  0  1  0  0  0  0  0  0
  185.0000  177.8100  143.9170 C   0  0  0  0  0  0  0  0  0  0  0  0
  1  8  1  6  0  0  0
  2  5  2  0  0  0  0
  3  4  1  0  0  0  0
  4  7  1  0  0  0  0
  4  1  1  0  0  0  0
  5  6  1  0  0  0  0
  6  1  1  0  0  0  0
  6 11  1  1  0  0  0
  7  8  1  0  0  0  0
  7  1  1  0  0  0  0
  7 16  1  1  0  0  0
  9  3  2  0  0  0  0
  9  5  1  0  0  0  0
 10 14  1  0  0  0  0
 11 15  1  0  0  0  0
 12 10  2  0  0  0  0
 13 11  2  0  0  0  0
 13 12  1  0  0  0  0
 15 14  2  0  0  0  0
 16 19  1  0  0  0  0
 17 24  1  0  0  0  0
 17 23  1  0  0  0  0
 19 21  1  0  0  0  0
 19 17  1  0  0  0  0
 20 22  2  0  0  0  0
 21 20  1  0  0  0  0
 23 22  1  0  0  0  0
 23 18  1  0  0  0  0
 24 23  1  0  0  0  0
 24 18  1  0  0  0  0
 26 28  1  0  0  0  0
 27 26  1  0  0  0  0
 28 21  1  0  0  0  0
 28 25  2  0  0  0  0
M  END
>  <MODEL>
3

>  <REMARK>
 VINA RESULT:      -7.5      2.442      3.724
  Name = 
  4 active torsions:
  status: ('A' for Active; 'I' for Inactive)
    1  A    between atoms: C_6  and  C_15
    2  A    between atoms: C_12  and  C_27
    3  A    between atoms: C_13  and  C_19
    4  A    between atoms: C_15  and  C_22
                            x       y       z     vdW  Elec       q    Type
                         _______ _______ _______ _____ _____    ______ ____

>  <TORSDO>
F 4

$$$$
=
 OpenBabel11042418243D

 28 34  0  0  1  0  0  0  0  0999 V2000
  188.8520  176.7270  144.8200 C   0  0  2  0  0  0  0  0  0  0  0  0
  185.9390  176.8690  147.2360 O   0  0  0  0  0  0  0  0  0  0  0  0
  189.0640  175.3110  147.1320 C   0  0  0  0  0  3  0  0  0  0  0  0
  189.4240  175.8550  145.8850 N   0  0  0  0  0  0  0  0  0  0  0  0
  187.0990  176.6040  146.8230 C   0  0  0  0  0  0  0  0  0  0  0  0
  187.6710  177.3740  145.6090 C   0  0  2  0  0  3  0  0  0  0  0  0
  190.2490  176.7200  145.0260 C   0  0  2  0  0  0  0  0  0  0  0  0
  189.6420  177.9160  144.5120 N   0  0  0  0  0  2  0  0  0  0  0  0
  187.9020  175.6650  147.5720 N   0  0  0  0  0  0  0  0  0  0  0  0
  184.6030  178.5690  142.8970 N   0  0  0  0  0  0  0  0  0  0  0  0
  186.5890  177.8040  144.6610 C   0  0  0  0  0  0  0  0  0  0  0  0
  184.9620  179.4160  143.9000 C   0  0  0  0  0  3  0  0  0  0  0  0
  185.9630  179.0490  144.8020 C   0  0  0  0  0  3  0  0  0  0  0  0
  185.2000  177.3560  142.7430 C   0  0  0  0  0  3  0  0  0  0  0  0
  186.2050  176.9520  143.6240 C   0  0  0  0  0  3  0  0  0  0  0  0
  190.8830  175.9120  143.9090 C   0  0  0  0  0  2  0  0  0  0  0  0
  189.7420  174.3100  142.3260 C   0  0  1  0  0  3  0  0  0  0  0  0
  187.8180  173.0400  141.4120 C   0  0  0  0  0  2  0  0  0  0  0  0
  190.1870  174.5610  143.7600 C   0  0  1  0  0  3  0  0  0  0  0  0
  190.7820  172.0710  143.3660 C   0  0  0  0  0  3  0  0  0  0  0  0
  191.0440  173.3210  144.2210 C   0  0  1  0  0  3  0  0  0  0  0  0
  189.7060  172.0210  142.5460 C   0  0  0  0  0  3  0  0  0  0  0  0
  188.7380  173.1730  142.6050 C   0  0  1  0  0  0  0  0  0  0  0  0
  188.3490  174.4040  141.7990 C   0  0  1  0  0  3  0  0  0  0  0  0
  193.2220  173.5630  143.2490 O   0  0  0  0  0  0  0  0  0  0  0  0
  193.1160  173.8590  145.5600 N   0  0  0  0  0  2  0  0  0  0  0  0
  194.4880  174.1180  145.6680 N   0  0  0  0  0  1  0  0  0  0  0  0
  192.5180  173.5790  144.2960 C   0  0  0  0  0  0  0  0  0  0  0  0
  1  8  1  1  0  0  0
  1  7  1  0  0  0  0
  1  6  1  0  0  0  0
  1  4  1  0  0  0  0
  3  9  2  0  0  0  0
  4  3  1  0  0  0  0
  5  2  2  0  0  0  0
  5  9  1  0  0  0  0
  6 11  1  6  0  0  0
  6  5  1  0  0  0  0
  7 16  1  6  0  0  0
  7  4  1  0  0  0  0
  8  7  1  0  0  0  0
 10 12  1  0  0  0  0
 11 13  1  0  0  0  0
 12 13  2  0  0  0  0
 14 10  2  0  0  0  0
 14 15  1  0  0  0  0
 15 11  2  0  0  0  0
 17 23  1  0  0  0  0
 17 19  1  0  0  0  0
 18 24  1  0  0  0  0
 18 23  1  0  0  0  0
 19 16  1  0  0  0  0
 19 21  1  0  0  0  0
 20 21  1  0  0  0  0
 21 28  1  0  0  0  0
 22 23  1  0  0  0  0
 22 20  2  0  0  0  0
 24 17  1  0  0  0  0
 24 23  1  0  0  0  0
 25 28  2  0  0  0  0
 26 27  1  0  0  0  0
 28 26  1  0  0  0  0
M  END
>  <MODEL>
4

>  <REMARK>
 VINA RESULT:      -7.4      2.661      6.976
  Name = 
  4 active torsions:
  status: ('A' for Active; 'I' for Inactive)
    1  A    between atoms: C_6  and  C_15
    2  A    between atoms: C_12  and  C_27
    3  A    between atoms: C_13  and  C_19
    4  A    between atoms: C_15  and  C_22
                            x       y       z     vdW  Elec       q    Type
                         _______ _______ _______ _____ _____    ______ ____

>  <TORSDO>
F 4

$$$$
=
 OpenBabel11042418243D

 28 34  0  0  1  0  0  0  0  0999 V2000
  188.7680  176.7340  144.6200 C   0  0  2  0  0  0  0  0  0  0  0  0
  186.1060  176.8960  147.3070 O   0  0  0  0  0  0  0  0  0  0  0  0
  189.1400  175.2260  146.8520 C   0  0  0  0  0  3  0  0  0  0  0  0
  189.4020  175.8020  145.5960 N   0  0  0  0  0  0  0  0  0  0  0  0
  187.2100  176.6030  146.7770 C   0  0  0  0  0  0  0  0  0  0  0  0
  187.6950  177.3950  145.5400 C   0  0  2  0  0  3  0  0  0  0  0  0
  190.1770  176.6670  144.6910 C   0  0  2  0  0  0  0  0  0  0  0  0
  189.5750  177.9030  144.2780 N   0  0  0  0  0  2  0  0  0  0  0  0
  188.0400  175.6070  147.4140 N   0  0  0  0  0  0  0  0  0  0  0  0
  184.4380  178.8080  143.1760 N   0  0  0  0  0  0  0  0  0  0  0  0
  186.5470  177.9020  144.7160 C   0  0  0  0  0  0  0  0  0  0  0  0
  184.8750  179.5670  144.2170 C   0  0  0  0  0  3  0  0  0  0  0  0
  185.9380  179.1290  145.0070 C   0  0  0  0  0  3  0  0  0  0  0  0
  185.0170  177.6140  142.8750 C   0  0  0  0  0  3  0  0  0  0  0  0
  186.0840  177.1390  143.6420 C   0  0  0  0  0  3  0  0  0  0  0  0
  190.6690  175.8770  143.4920 C   0  0  0  0  0  2  0  0  0  0  0  0
  192.4840  175.5240  145.2100 C   0  0  1  0  0  3  0  0  0  0  0  0
  194.7720  175.7430  146.1410 C   0  0  0  0  0  2  0  0  0  0  0  0
  192.0010  175.2000  143.8030 C   0  0  1  0  0  3  0  0  0  0  0  0
  192.9030  172.9330  144.6720 C   0  0  0  0  0  3  0  0  0  0  0  0
  191.9990  173.6320  143.6450 C   0  0  1  0  0  3  0  0  0  0  0  0
  193.8060  173.6500  145.3830 C   0  0  0  0  0  3  0  0  0  0  0  0
  193.9590  175.1070  145.0360 C   0  0  1  0  0  0  0  0  0  0  0  0
  193.5730  176.4760  145.5790 C   0  0  1  0  0  3  0  0  0  0  0  0
  190.1350  172.6130  144.7560 O   0  0  0  0  0  0  0  0  0  0  0  0
  189.9060  172.8790  142.4500 N   0  0  0  0  0  2  0  0  0  0  0  0
  188.6250  172.3130  142.4330 N   0  0  0  0  0  1  0  0  0  0  0  0
  190.6370  173.0080  143.6680 C   0  0  0  0  0  0  0  0  0  0  0  0
  1  8  1  1  0  0  0
  1  7  1  0  0  0  0
  1  6  1  0  0  0  0
  1  4  1  0  0  0  0
  3  9  2  0  0  0  0
  4  3  1  0  0  0  0
  5  2  2  0  0  0  0
  5  9  1  0  0  0  0
  6 11  1  6  0  0  0
  6  5  1  0  0  0  0
  7 16  1  6  0  0  0
  7  4  1  0  0  0  0
  8  7  1  0  0  0  0
 10 12  1  0  0  0  0
 11 13  1  0  0  0  0
 12 13  2  0  0  0  0
 14 10  2  0  0  0  0
 14 15  1  0  0  0  0
 15 11  2  0  0  0  0
 16 19  1  0  0  0  0
 17 24  1  0  0  0  0
 19 17  1  0  0  0  0
 20 22  2  0  0  0  0
 21 28  1  0  0  0  0
 21 19  1  0  0  0  0
 21 20  1  0  0  0  0
 23 17  1  0  0  0  0
 23 22  1  0  0  0  0
 23 24  1  0  0  0  0
 23 18  1  0  0  0  0
 24 18  1  0  0  0  0
 26 28  1  0  0  0  0
 27 26  1  0  0  0  0
 28 25  2  0  0  0  0
M  END
>  <MODEL>
5

>  <REMARK>
 VINA RESULT:      -7.4      2.394      7.055
  Name = 
  4 active torsions:
  status: ('A' for Active; 'I' for Inactive)
    1  A    between atoms: C_6  and  C_15
    2  A    between atoms: C_12  and  C_27
    3  A    between atoms: C_13  and  C_19
    4  A    between atoms: C_15  and  C_22
                            x       y       z     vdW  Elec       q    Type
                         _______ _______ _______ _____ _____    ______ ____

>  <TORSDO>
F 4

$$$$
=
 OpenBabel11042418243D

 28 34  0  0  1  0  0  0  0  0999 V2000
  189.7510  176.9390  144.4930 C   0  0  2  0  0  0  0  0  0  0  0  0
  186.2500  176.4720  145.8580 O   0  0  0  0  0  0  0  0  0  0  0  0
  189.4890  175.6460  146.8710 C   0  0  0  0  0  3  0  0  0  0  0  0
  190.1130  176.2360  145.7560 N   0  0  0  0  0  0  0  0  0  0  0  0
  187.5090  176.4650  145.8530 C   0  0  0  0  0  0  0  0  0  0  0  0
  188.2720  177.3210  144.8150 C   0  0  2  0  0  3  0  0  0  0  0  0
  190.9760  177.2470  145.1240 C   0  0  2  0  0  0  0  0  0  0  0  0
  190.3370  178.2690  144.3440 N   0  0  0  0  0  2  0  0  0  0  0  0
  188.2000  175.7400  146.8940 N   0  0  0  0  0  0  0  0  0  0  0  0
  186.0340  177.8100  141.2170 N   0  0  0  0  0  0  0  0  0  0  0  0
  187.4910  177.4840  143.5430 C   0  0  0  0  0  0  0  0  0  0  0  0
  186.9420  176.8000  141.2950 C   0  0  0  0  0  3  0  0  0  0  0  0
  187.6890  176.6170  142.4610 C   0  0  0  0  0  3  0  0  0  0  0  0
  185.8260  178.6620  142.2570 C   0  0  0  0  0  3  0  0  0  0  0  0
  186.5520  178.5130  143.4410 C   0  0  0  0  0  3  0  0  0  0  0  0
  192.0880  176.5810  144.3360 C   0  0  0  0  0  2  0  0  0  0  0  0
  192.3220  174.1000  143.9270 C   0  0  1  0  0  3  0  0  0  0  0  0
  191.7190  171.7100  144.2000 C   0  0  0  0  0  2  0  0  0  0  0  0
  192.4430  175.2260  144.9450 C   0  0  1  0  0  3  0  0  0  0  0  0
  194.5270  173.7600  145.4100 C   0  0  0  0  0  3  0  0  0  0  0  0
  193.8810  175.1440  145.5830 C   0  0  1  0  0  3  0  0  0  0  0  0
  193.7730  172.7010  145.0330 C   0  0  0  0  0  3  0  0  0  0  0  0
  192.2870  172.9160  144.9140 C   0  0  1  0  0  0  0  0  0  0  0  0
  191.2220  173.0950  143.8410 C   0  0  1  0  0  3  0  0  0  0  0  0
  194.9300  177.2940  145.7370 O   0  0  0  0  0  0  0  0  0  0  0  0
  195.6330  175.9600  143.9580 N   0  0  0  0  0  2  0  0  0  0  0  0
  196.5410  176.9210  143.4950 N   0  0  0  0  0  1  0  0  0  0  0  0
  194.8310  176.2030  145.1120 C   0  0  0  0  0  0  0  0  0  0  0  0
  1  8  1  1  0  0  0
  1  6  1  0  0  0  0
  1  7  1  0  0  0  0
  1  4  1  0  0  0  0
  3  9  2  0  0  0  0
  4  3  1  0  0  0  0
  5  2  2  0  0  0  0
  5  9  1  0  0  0  0
  6 11  1  6  0  0  0
  6  5  1  0  0  0  0
  7 16  1  6  0  0  0
  7  4  1  0  0  0  0
  8  7  1  0  0  0  0
 10 12  2  0  0  0  0
 10 14  1  0  0  0  0
 12 13  1  0  0  0  0
 13 11  2  0  0  0  0
 14 15  2  0  0  0  0
 15 11  1  0  0  0  0
 16 19  1  0  0  0  0
 17 23  1  0  0  0  0
 17 19  1  0  0  0  0
 18 23  1  0  0  0  0
 19 21  1  0  0  0  0
 20 21  1  0  0  0  0
 22 20  2  0  0  0  0
 23 22  1  0  0  0  0
 24 17  1  0  0  0  0
 24 18  1  0  0  0  0
 24 23  1  0  0  0  0
 26 28  1  0  0  0  0
 27 26  1  0  0  0  0
 28 21  1  0  0  0  0
 28 25  2  0  0  0  0
M  END
>  <MODEL>
6

>  <REMARK>
 VINA RESULT:      -7.2      2.075      7.311
  Name = 
  4 active torsions:
  status: ('A' for Active; 'I' for Inactive)
    1  A    between atoms: C_6  and  C_15
    2  A    between atoms: C_12  and  C_27
    3  A    between atoms: C_13  and  C_19
    4  A    between atoms: C_15  and  C_22
                            x       y       z     vdW  Elec       q    Type
                         _______ _______ _______ _____ _____    ______ ____

>  <TORSDO>
F 4

$$$$
=
 OpenBabel11042418243D

 28 34  0  0  1  0  0  0  0  0999 V2000
  188.4290  177.2530  144.3260 C   0  0  2  0  0  0  0  0  0  0  0  0
  185.2580  178.4760  142.6580 O   0  0  0  0  0  0  0  0  0  0  0  0
  188.5820  177.9740  141.7090 C   0  0  0  0  0  3  0  0  0  0  0  0
  188.9910  177.4930  142.9660 N   0  0  0  0  0  0  0  0  0  0  0  0
  186.4520  178.0850  142.7470 C   0  0  0  0  0  0  0  0  0  0  0  0
  186.9040  177.2960  143.9980 C   0  0  2  0  0  3  0  0  0  0  0  0
  189.4840  176.4350  143.8640 C   0  0  2  0  0  0  0  0  0  0  0  0
  188.5540  175.8790  144.8060 N   0  0  0  0  0  2  0  0  0  0  0  0
  187.3320  178.2910  141.6200 N   0  0  0  0  0  0  0  0  0  0  0  0
  184.6650  178.3820  147.4620 N   0  0  0  0  0  0  0  0  0  0  0  0
  186.1230  177.6890  145.2180 C   0  0  0  0  0  0  0  0  0  0  0  0
  185.5670  179.2670  146.9570 C   0  0  0  0  0  3  0  0  0  0  0  0
  186.3130  178.9370  145.8240 C   0  0  0  0  0  3  0  0  0  0  0  0
  184.4650  177.1650  146.8880 C   0  0  0  0  0  3  0  0  0  0  0  0
  185.1910  176.7970  145.7530 C   0  0  0  0  0  3  0  0  0  0  0  0
  190.7580  176.8780  144.5570 C   0  0  0  0  0  2  0  0  0  0  0  0
  193.1790  176.2460  144.2230 C   0  0  1  0  0  3  0  0  0  0  0  0
  195.0730  175.1270  143.0780 C   0  0  0  0  0  2  0  0  0  0  0  0
  191.7840  175.7470  144.5730 C   0  0  1  0  0  3  0  0  0  0  0  0
  193.3130  174.4970  146.2480 C   0  0  0  0  0  3  0  0  0  0  0  0
  191.8820  174.9620  145.9350 C   0  0  1  0  0  3  0  0  0  0  0  0
  194.2600  174.5130  145.2810 C   0  0  0  0  0  3  0  0  0  0  0  0
  193.8210  174.8830  143.8890 C   0  0  1  0  0  0  0  0  0  0  0  0
  193.8900  176.0590  142.9240 C   0  0  1  0  0  3  0  0  0  0  0  0
  190.2260  175.3390  147.6270 O   0  0  0  0  0  0  0  0  0  0  0  0
  192.0510  176.7910  147.6670 N   0  0  0  0  0  2  0  0  0  0  0  0
  191.5660  177.4930  148.7790 N   0  0  0  0  0  1  0  0  0  0  0  0
  191.3230  175.6950  147.1160 C   0  0  0  0  0  0  0  0  0  0  0  0
  1  8  1  6  0  0  0
  2  5  2  0  0  0  0
  3  4  1  0  0  0  0
  4  7  1  0  0  0  0
  4  1  1  0  0  0  0
  5  6  1  0  0  0  0
  6  1  1  0  0  0  0
  6 11  1  1  0  0  0
  7  1  1  0  0  0  0
  7 16  1  1  0  0  0
  7  8  1  0  0  0  0
  9  3  2  0  0  0  0
  9  5  1  0  0  0  0
 11 15  2  0  0  0  0
 11 13  1  0  0  0  0
 12 10  1  0  0  0  0
 13 12  2  0  0  0  0
 14 10  2  0  0  0  0
 15 14  1  0  0  0  0
 16 19  1  0  0  0  0
 17 19  1  0  0  0  0
 18 23  1  0  0  0  0
 19 21  1  0  0  0  0
 21 20  1  0  0  0  0
 21 28  1  0  0  0  0
 22 20  2  0  0  0  0
 23 17  1  0  0  0  0
 23 22  1  0  0  0  0
 24 18  1  0  0  0  0
 24 23  1  0  0  0  0
 24 17  1  0  0  0  0
 26 27  1  0  0  0  0
 28 25  2  0  0  0  0
 28 26  1  0  0  0  0
M  END
>  <MODEL>
7

>  <REMARK>
 VINA RESULT:      -7.2      1.829      7.941
  Name = 
  4 active torsions:
  status: ('A' for Active; 'I' for Inactive)
    1  A    between atoms: C_6  and  C_15
    2  A    between atoms: C_12  and  C_27
    3  A    between atoms: C_13  and  C_19
    4  A    between atoms: C_15  and  C_22
                            x       y       z     vdW  Elec       q    Type
                         _______ _______ _______ _____ _____    ______ ____

>  <TORSDO>
F 4

$$$$
=
 OpenBabel11042418243D

 28 34  0  0  1  0  0  0  0  0999 V2000
  191.7940  176.3380  143.5830 C   0  0  2  0  0  0  0  0  0  0  0  0
  193.3950  173.2450  142.0970 O   0  0  0  0  0  0  0  0  0  0  0  0
  190.4220  173.9980  143.7700 C   0  0  0  0  0  3  0  0  0  0  0  0
  190.7070  175.3700  143.9010 N   0  0  0  0  0  0  0  0  0  0  0  0
  192.4950  173.9560  142.6160 C   0  0  0  0  0  0  0  0  0  0  0  0
  192.6080  175.4970  142.5500 C   0  0  2  0  0  3  0  0  0  0  0  0
  190.4570  176.7900  143.6060 C   0  0  2  0  0  0  0  0  0  0  0  0
  191.3870  177.4610  142.7420 N   0  0  0  0  0  2  0  0  0  0  0  0
  191.3260  173.3040  143.1590 N   0  0  0  0  0  0  0  0  0  0  0  0
  196.6730  176.7870  142.5130 N   0  0  0  0  0  0  0  0  0  0  0  0
  194.0380  175.9520  142.5250 C   0  0  0  0  0  0  0  0  0  0  0  0
  195.9880  176.7350  141.3390 C   0  0  0  0  0  3  0  0  0  0  0  0
  194.6570  176.3160  141.3220 C   0  0  0  0  0  3  0  0  0  0  0  0
  196.0910  176.4380  143.6920 C   0  0  0  0  0  3  0  0  0  0  0  0
  194.7600  176.0140  143.7180 C   0  0  0  0  0  3  0  0  0  0  0  0
  190.2480  177.5710  144.8890 C   0  0  0  0  0  2  0  0  0  0  0  0
  187.8950  177.2180  144.0460 C   0  0  1  0  0  3  0  0  0  0  0  0
  185.6590  177.9400  143.2530 C   0  0  0  0  0  2  0  0  0  0  0  0
  188.7600  177.7160  145.1960 C   0  0  1  0  0  3  0  0  0  0  0  0
  186.8580  176.4190  146.3820 C   0  0  0  0  0  3  0  0  0  0  0  0
  188.2800  176.9850  146.5070 C   0  0  1  0  0  3  0  0  0  0  0  0
  186.0560  176.8120  145.3650 C   0  0  0  0  0  3  0  0  0  0  0  0
  186.5730  177.8970  144.4570 C   0  0  1  0  0  0  0  0  0  0  0  0
  187.1560  178.0620  143.0610 C   0  0  1  0  0  3  0  0  0  0  0  0
  188.9270  174.6970  146.8110 O   0  0  0  0  0  0  0  0  0  0  0  0
  190.4170  176.2810  147.6530 N   0  0  0  0  0  2  0  0  0  0  0  0
  191.3150  175.3080  148.1100 N   0  0  0  0  0  1  0  0  0  0  0  0
  189.2070  175.9130  146.9940 C   0  0  0  0  0  0  0  0  0  0  0  0
  1  8  1  6  0  0  0
  1  7  1  0  0  0  0
  1  4  1  0  0  0  0
  2  5  2  0  0  0  0
  3  4  1  0  0  0  0
  5  9  1  0  0  0  0
  6 11  1  1  0  0  0
  6  5  1  0  0  0  0
  6  1  1  0  0  0  0
  7  4  1  0  0  0  0
  7 16  1  1  0  0  0
  8  7  1  0  0  0  0
  9  3  2  0  0  0  0
 10 14  1  0  0  0  0
 11 15  1  0  0  0  0
 12 10  2  0  0  0  0
 13 12  1  0  0  0  0
 13 11  2  0  0  0  0
 14 15  2  0  0  0  0
 16 19  1  0  0  0  0
 17 23  1  0  0  0  0
 17 19  1  0  0  0  0
 18 23  1  0  0  0  0
 19 21  1  0  0  0  0
 20 21  1  0  0  0  0
 21 28  1  0  0  0  0
 22 20  2  0  0  0  0
 23 22  1  0  0  0  0
 24 18  1  0  0  0  0
 24 17  1  0  0  0  0
 24 23  1  0  0  0  0
 25 28  2  0  0  0  0
 26 27  1  0  0  0  0
 28 26  1  0  0  0  0
M  END
>  <MODEL>
8

>  <REMARK>
 VINA RESULT:      -7.2      2.665      4.356
  Name = 
  4 active torsions:
  status: ('A' for Active; 'I' for Inactive)
    1  A    between atoms: C_6  and  C_15
    2  A    between atoms: C_12  and  C_27
    3  A    between atoms: C_13  and  C_19
    4  A    between atoms: C_15  and  C_22
                            x       y       z     vdW  Elec       q    Type
                         _______ _______ _______ _____ _____    ______ ____

>  <TORSDO>
F 4

$$$$
=
 OpenBabel11042418243D

 28 34  0  0  1  0  0  0  0  0999 V2000
  190.6080  175.3640  145.3700 C   0  0  2  0  0  0  0  0  0  0  0  0
  193.8770  173.4530  145.4110 O   0  0  0  0  0  0  0  0  0  0  0  0
  192.6360  176.3710  146.8760 C   0  0  0  0  0  3  0  0  0  0  0  0
  191.3560  176.2540  146.3020 N   0  0  0  0  0  0  0  0  0  0  0  0
  193.0290  174.3180  145.7530 C   0  0  0  0  0  0  0  0  0  0  0  0
  191.5390  174.1110  145.3910 C   0  0  2  0  0  3  0  0  0  0  0  0
  189.9020  176.0460  146.3850 C   0  0  2  0  0  0  0  0  0  0  0  0
  189.3850  174.7890  145.9240 N   0  0  0  0  0  2  0  0  0  0  0  0
  193.4630  175.4250  146.5740 N   0  0  0  0  0  0  0  0  0  0  0  0
  191.0820  171.9060  141.7690 N   0  0  0  0  0  0  0  0  0  0  0  0
  191.3770  173.3250  144.1220 C   0  0  0  0  0  0  0  0  0  0  0  0
  190.9270  171.2610  142.9560 C   0  0  0  0  0  3  0  0  0  0  0  0
  191.0710  171.9590  144.1570 C   0  0  0  0  0  3  0  0  0  0  0  0
  191.3780  173.2330  141.7140 C   0  0  0  0  0  3  0  0  0  0  0  0
  191.5310  173.9670  142.8920 C   0  0  0  0  0  3  0  0  0  0  0  0
  189.1620  177.2040  145.7420 C   0  0  0  0  0  2  0  0  0  0  0  0
  186.8960  178.2070  146.2270 C   0  0  1  0  0  3  0  0  0  0  0  0
  184.7690  178.4570  147.4770 C   0  0  0  0  0  2  0  0  0  0  0  0
  187.6540  176.9660  145.7760 C   0  0  1  0  0  3  0  0  0  0  0  0
  185.6110  177.0400  144.1870 C   0  0  0  0  0  3  0  0  0  0  0  0
  187.0280  176.4900  144.4110 C   0  0  1  0  0  3  0  0  0  0  0  0
  184.9250  177.5910  145.2150 C   0  0  0  0  0  3  0  0  0  0  0  0
  185.5570  177.5290  146.5810 C   0  0  1  0  0  0  0  0  0  0  0  0
  186.2800  178.4340  147.5670 C   0  0  1  0  0  3  0  0  0  0  0  0
  188.5190  175.8490  142.6470 O   0  0  0  0  0  0  0  0  0  0  0  0
  187.9300  178.1050  142.6920 N   0  0  0  0  0  2  0  0  0  0  0  0
  188.6990  178.4080  141.5620 N   0  0  0  0  0  1  0  0  0  0  0  0
  187.8740  176.7760  143.2070 C   0  0  0  0  0  0  0  0  0  0  0  0
  1  6  1  0  0  0  0
  1  8  1  1  0  0  0
  1  4  1  0  0  0  0
  1  7  1  0  0  0  0
  2  5  2  0  0  0  0
  4  7  1  0  0  0  0
  4  3  1  0  0  0  0
  5  9  1  0  0  0  0
  6 11  1  6  0  0  0
  6  5  1  0  0  0  0
  7 16  1  6  0  0  0
  8  7  1  0  0  0  0
  9  3  2  0  0  0  0
 10 12  1  0  0  0  0
 11 13  1  0  0  0  0
 12 13  2  0  0  0  0
 14 10  2  0  0  0  0
 14 15  1  0  0  0  0
 15 11  2  0  0  0  0
 16 19  1  0  0  0  0
 17 23  1  0  0  0  0
 17 24  1  0  0  0  0
 18 24  1  0  0  0  0
 19 17  1  0  0  0  0
 20 21  1  0  0  0  0
 20 22  2  0  0  0  0
 21 19  1  0  0  0  0
 22 23  1  0  0  0  0
 23 18  1  0  0  0  0
 23 24  1  0  0  0  0
 25 28  2  0  0  0  0
 26 28  1  0  0  0  0
 27 26  1  0  0  0  0
 28 21  1  0  0  0  0
M  END
>  <MODEL>
9

>  <REMARK>
 VINA RESULT:      -7.2      1.995      2.284
  Name = 
  4 active torsions:
  status: ('A' for Active; 'I' for Inactive)
    1  A    between atoms: C_6  and  C_15
    2  A    between atoms: C_12  and  C_27
    3  A    between atoms: C_13  and  C_19
    4  A    between atoms: C_15  and  C_22
                            x       y       z     vdW  Elec       q    Type
                         _______ _______ _______ _____ _____    ______ ____

>  <TORSDO>
F 4

$$$$
