=
 OpenBabel11042419243D

 42 48  0  0  1  0  0  0  0  0999 V2000
  191.2370  173.3390  144.0780 C   0  0  0  0  0  0  0  0  0  0  0  0
  190.5040  172.2780  143.9430 N   0  0  0  0  0  0  0  0  0  0  0  0
  191.4350  171.7750  141.6960 C   0  0  2  0  0  0  0  0  0  0  0  0
  190.1300  172.5770  139.3510 C   0  0  2  0  0  3  0  0  0  0  0  0
  191.5880  172.4640  139.4400 C   0  0  0  0  0  2  0  0  0  0  0  0
  190.5060  171.3920  142.7720 C   0  0  2  0  0  3  0  0  0  0  0  0
  190.0240  172.1210  141.5810 N   0  0  2  0  0  0  0  0  0  0  0  0
  190.7240  171.5830  140.3750 C   0  0  2  0  0  0  0  0  0  0  0  0
  192.1400  173.7410  142.9930 C   0  0  0  0  0  0  0  0  0  0  0  0
  192.1910  173.0250  141.9120 N   0  0  0  0  0  0  0  0  0  0  0  0
  189.7460  170.3490  138.0750 C   0  0  0  0  0  1  0  0  0  0  0  0
  189.0350  172.4300  137.2630 O   0  0  0  0  0  0  0  0  0  0  0  0
  189.6130  171.8330  138.1560 C   0  0  0  0  0  0  0  0  0  0  0  0
  192.9530  174.9930  143.0980 C   0  0  2  0  0  3  0  0  0  0  0  0
  192.2300  176.0850  142.6110 O   0  0  0  0  0  1  0  0  0  0  0  0
  195.8220  176.3640  142.3150 C   0  0  0  0  0  2  0  0  0  0  0  0
  194.6240  175.9840  141.4660 C   0  0  0  0  0  2  0  0  0  0  0  0
  194.3190  174.8290  142.4060 C   0  0  1  0  0  3  0  0  0  0  0  0
  195.5730  175.1740  143.2270 C   0  0  2  0  0  3  0  0  0  0  0  0
  195.5540  174.6140  145.7400 N   0  0  0  0  0  2  0  0  0  0  0  0
  195.4050  175.5680  144.6820 C   0  0  0  0  0  0  0  0  0  0  0  0
  194.9960  176.7210  144.9770 O   0  0  0  0  0  0  0  0  0  0  0  0
  195.8030  173.1980  145.5260 C   0  0  0  0  0  2  0  0  0  0  0  0
  194.4930  172.4410  145.5960 C   0  0  0  0  0  2  0  0  0  0  0  0
  193.5060  170.3630  144.5650 N   0  0  0  0  0  1  0  0  0  0  0  0
  195.1730  171.5690  143.4860 O   0  0  0  0  0  0  0  0  0  0  0  0
  194.4270  171.4430  144.4940 C   0  0  0  0  0  0  0  0  0  0  0  0
  191.1250  174.1490  145.3320 C   0  0  0  0  0  2  0  0  0  0  0  0
  189.6890  174.5790  145.5920 C   0  0  2  0  0  3  0  0  0  0  0  0
  187.7660  176.7210  146.1770 C   0  0  0  0  0  2  0  0  0  0  0  0
  189.2820  175.6010  144.5330 C   0  0  0  0  0  2  0  0  0  0  0  0
  189.5700  175.1960  146.9870 C   0  0  0  0  0  2  0  0  0  0  0  0
  187.8600  176.1020  144.7820 C   0  0  2  0  0  3  0  0  0  0  0  0
  188.1480  175.6900  147.2330 C   0  0  0  0  0  2  0  0  0  0  0  0
  187.4900  176.4840  142.3640 C   0  0  0  0  0  2  0  0  0  0  0  0
  186.1780  176.7670  143.0730 C   0  0  1  0  0  3  0  0  0  0  0  0
  187.5010  177.1360  143.7290 C   0  0  1  0  0  3  0  0  0  0  0  0
  185.5290  177.9850  142.4860 C   0  0  0  0  0  0  0  0  0  0  0  0
  185.7460  178.2920  141.2490 N   0  0  0  0  0  2  0  0  0  0  0  0
  184.8000  178.9280  143.3510 C   0  0  0  0  0  0  0  0  0  0  0  0
  185.4830  179.9350  144.0230 O   0  0  0  0  0  1  0  0  0  0  0  0
  183.5510  178.8340  143.4840 O   0  0  0  0  0  0  0  0  0  0  0  0
  1 28  1  0  0  0  0
  2  1  2  0  0  0  0
  3 10  1  1  0  0  0
  3  6  1  0  0  0  0
  4 13  1  6  0  0  0
  4  5  1  0  0  0  0
  4  8  1  0  0  0  0
  5  8  1  0  0  0  0
  6  2  1  1  0  0  0
  7  3  1  0  0  0  0
  7  6  1  0  0  0  0
  8  7  1  0  0  0  0
  8  3  1  0  0  0  0
  9 14  1  0  0  0  0
  9  1  1  0  0  0  0
 10  9  2  0  0  0  0
 11 13  1  0  0  0  0
 12 13  2  0  0  0  0
 15 14  1  0  0  0  0
 16 19  1  0  0  0  0
 17 16  1  0  0  0  0
 17 18  1  0  0  0  0
 18 14  1  0  0  0  0
 18 19  1  0  0  0  0
 19 21  1  0  0  0  0
 21 22  2  0  0  0  0
 21 20  1  0  0  0  0
 23 24  1  0  0  0  0
 23 20  1  0  0  0  0
 26 27  2  0  0  0  0
 27 25  1  0  0  0  0
 27 24  1  0  0  0  0
 28 29  1  0  0  0  0
 29 32  1  0  0  0  0
 30 34  1  0  0  0  0
 31 33  1  0  0  0  0
 31 29  1  0  0  0  0
 32 34  1  0  0  0  0
 33 30  1  0  0  0  0
 35 36  1  0  0  0  0
 35 37  1  0  0  0  0
 36 37  1  0  0  0  0
 37 33  1  0  0  0  0
 38 36  1  0  0  0  0
 38 40  1  0  0  0  0
 39 38  2  0  0  0  0
 40 42  2  0  0  0  0
 40 41  1  0  0  0  0
M  END
>  <MODEL>
1

>  <REMARK>
 VINA RESULT:      -6.7      0.000      0.000
  Name = 
  12 active torsions:
  status: ('A' for Active; 'I' for Inactive)
    1  A    between atoms: N_1  and  C_38
    2  A    between atoms: C_2  and  C_23
    3  A    between atoms: C_2  and  C_38
    4  A    between atoms: C_3  and  C_32
    5  A    between atoms: C_5  and  CA_30
    6  A    between atoms: C_6  and  CA_30
    7  A    between atoms: C_8  and  C_33
    8  A    between atoms: C_8  and  C_37
    9  A    between atoms: C_10  and  C_32
   10  A    between atoms: C_13  and  C_28
   11  A    between atoms: C_17  and  C_34
   12  A    between atoms: C_22  and  C_36
                            x       y       z     vdW  Elec       q    Type
                         _______ _______ _______ _____ _____    ______ ____

>  <TORSDO>
F 12

$$$$
=
 OpenBabel11042419243D

 42 48  0  0  1  0  0  0  0  0999 V2000
  191.5860  173.8250  142.9460 C   0  0  0  0  0  0  0  0  0  0  0  0
  190.5980  172.9880  142.8750 N   0  0  0  0  0  0  0  0  0  0  0  0
  191.7640  171.5670  141.2040 C   0  0  2  0  0  0  0  0  0  0  0  0
  191.2970  171.8460  138.4560 C   0  0  2  0  0  3  0  0  0  0  0  0
  192.5920  171.4200  138.9950 C   0  0  0  0  0  2  0  0  0  0  0  0
  190.5610  171.7930  142.0210 C   0  0  2  0  0  3  0  0  0  0  0  0
  190.5930  172.1860  140.5970 N   0  0  2  0  0  0  0  0  0  0  0  0
  191.3190  171.1310  139.8260 C   0  0  2  0  0  0  0  0  0  0  0  0
  192.7730  173.6190  142.1090 C   0  0  0  0  0  0  0  0  0  0  0  0
  192.8170  172.5980  141.3090 N   0  0  0  0  0  0  0  0  0  0  0  0
  189.7650  169.8960  137.6880 C   0  0  0  0  0  1  0  0  0  0  0  0
  191.2810  170.9740  136.2610 O   0  0  0  0  0  0  0  0  0  0  0  0
  190.8300  170.8990  137.3920 C   0  0  0  0  0  0  0  0  0  0  0  0
  193.9020  174.6020  142.1270 C   0  0  2  0  0  3  0  0  0  0  0  0
  193.6660  175.6310  141.2120 O   0  0  0  0  0  1  0  0  0  0  0  0
  197.1290  174.9300  141.6710 C   0  0  0  0  0  2  0  0  0  0  0  0
  196.0170  174.5070  140.7290 C   0  0  0  0  0  2  0  0  0  0  0  0
  195.2540  173.9010  141.8940 C   0  0  1  0  0  3  0  0  0  0  0  0
  196.4120  174.2690  142.8370 C   0  0  2  0  0  3  0  0  0  0  0  0
  195.8310  174.7510  145.2990 N   0  0  0  0  0  2  0  0  0  0  0  0
  196.1420  175.2250  143.9840 C   0  0  0  0  0  0  0  0  0  0  0  0
  196.0530  176.4610  143.7640 O   0  0  0  0  0  0  0  0  0  0  0  0
  195.6760  173.3460  145.6390 C   0  0  0  0  0  2  0  0  0  0  0  0
  194.2170  172.9580  145.5200 C   0  0  0  0  0  2  0  0  0  0  0  0
  195.2500  171.0600  144.2200 N   0  0  0  0  0  1  0  0  0  0  0  0
  192.9700  171.1180  144.6630 O   0  0  0  0  0  0  0  0  0  0  0  0
  194.0950  171.6740  144.7770 C   0  0  0  0  0  0  0  0  0  0  0  0
  191.4810  175.0020  143.8640 C   0  0  0  0  0  2  0  0  0  0  0  0
  190.2720  174.8890  144.7810 C   0  0  2  0  0  3  0  0  0  0  0  0
  188.6410  176.0090  146.9520 C   0  0  0  0  0  2  0  0  0  0  0  0
  189.3730  176.1040  144.5620 C   0  0  0  0  0  2  0  0  0  0  0  0
  190.7230  174.8280  146.2400 C   0  0  0  0  0  2  0  0  0  0  0  0
  188.1670  176.0610  145.4990 C   0  0  2  0  0  3  0  0  0  0  0  0
  189.5170  174.7800  147.1720 C   0  0  0  0  0  2  0  0  0  0  0  0
  186.8970  177.3680  143.8220 C   0  0  0  0  0  2  0  0  0  0  0  0
  185.9060  176.8870  144.8670 C   0  0  1  0  0  3  0  0  0  0  0  0
  187.3140  177.2980  145.2750 C   0  0  1  0  0  3  0  0  0  0  0  0
  184.9290  177.9790  145.1890 C   0  0  0  0  0  0  0  0  0  0  0  0
  184.3170  177.9720  146.3280 N   0  0  0  0  0  2  0  0  0  0  0  0
  184.5280  178.9460  144.1530 C   0  0  0  0  0  0  0  0  0  0  0  0
  183.6650  178.5640  143.1330 O   0  0  0  0  0  0  0  0  0  0  0  0
  184.9590  180.1290  144.1880 O   0  0  0  0  0  1  0  0  0  0  0  0
  1 28  1  0  0  0  0
  2  1  2  0  0  0  0
  3 10  1  1  0  0  0
  3  6  1  0  0  0  0
  4 13  1  6  0  0  0
  4  5  1  0  0  0  0
  4  8  1  0  0  0  0
  5  8  1  0  0  0  0
  6  2  1  1  0  0  0
  7  3  1  0  0  0  0
  7  6  1  0  0  0  0
  8  7  1  0  0  0  0
  8  3  1  0  0  0  0
  9 14  1  0  0  0  0
  9  1  1  0  0  0  0
 10  9  2  0  0  0  0
 12 13  2  0  0  0  0
 13 11  1  0  0  0  0
 15 14  1  0  0  0  0
 16 19  1  0  0  0  0
 17 16  1  0  0  0  0
 17 18  1  0  0  0  0
 18 14  1  0  0  0  0
 18 19  1  0  0  0  0
 19 21  1  0  0  0  0
 20 23  1  0  0  0  0
 21 20  1  0  0  0  0
 22 21  2  0  0  0  0
 24 23  1  0  0  0  0
 25 27  1  0  0  0  0
 26 27  2  0  0  0  0
 27 24  1  0  0  0  0
 28 29  1  0  0  0  0
 29 32  1  0  0  0  0
 30 34  1  0  0  0  0
 31 29  1  0  0  0  0
 31 33  1  0  0  0  0
 32 34  1  0  0  0  0
 33 30  1  0  0  0  0
 35 36  1  0  0  0  0
 35 37  1  0  0  0  0
 36 38  1  0  0  0  0
 36 37  1  0  0  0  0
 37 33  1  0  0  0  0
 38 39  2  0  0  0  0
 40 42  1  0  0  0  0
 40 38  1  0  0  0  0
 41 40  2  0  0  0  0
M  END
>  <MODEL>
2

>  <REMARK>
 VINA RESULT:      -6.4      1.532      1.731
  Name = 
  12 active torsions:
  status: ('A' for Active; 'I' for Inactive)
    1  A    between atoms: N_1  and  C_38
    2  A    between atoms: C_2  and  C_23
    3  A    between atoms: C_2  and  C_38
    4  A    between atoms: C_3  and  C_32
    5  A    between atoms: C_5  and  CA_30
    6  A    between atoms: C_6  and  CA_30
    7  A    between atoms: C_8  and  C_33
    8  A    between atoms: C_8  and  C_37
    9  A    between atoms: C_10  and  C_32
   10  A    between atoms: C_13  and  C_28
   11  A    between atoms: C_17  and  C_34
   12  A    between atoms: C_22  and  C_36
                            x       y       z     vdW  Elec       q    Type
                         _______ _______ _______ _____ _____    ______ ____

>  <TORSDO>
F 12

$$$$
=
 OpenBabel11042419243D

 42 48  0  0  1  0  0  0  0  0999 V2000
  191.6650  174.2820  143.9850 C   0  0  0  0  0  0  0  0  0  0  0  0
  192.5250  175.1460  144.4270 N   0  0  0  0  0  0  0  0  0  0  0  0
  193.2750  175.7510  142.1380 C   0  0  2  0  0  0  0  0  0  0  0  0
  195.5400  174.5820  140.9760 C   0  0  2  0  0  3  0  0  0  0  0  0
  194.3880  175.0210  140.1840 C   0  0  0  0  0  2  0  0  0  0  0  0
  193.4130  175.9610  143.5890 C   0  0  2  0  0  3  0  0  0  0  0  0
  194.3590  175.0940  142.8560 N   0  0  2  0  0  0  0  0  0  0  0  0
  194.6620  175.7240  141.5350 C   0  0  2  0  0  0  0  0  0  0  0  0
  191.5490  174.0470  142.5410 C   0  0  0  0  0  0  0  0  0  0  0  0
  192.3100  174.7110  141.7270 N   0  0  0  0  0  0  0  0  0  0  0  0
  197.6650  174.3190  139.5070 C   0  0  0  0  0  1  0  0  0  0  0  0
  197.1360  176.2930  140.6560 O   0  0  0  0  0  0  0  0  0  0  0  0
  196.8130  175.1420  140.4140 C   0  0  0  0  0  0  0  0  0  0  0  0
  190.6080  173.0140  142.0070 C   0  0  2  0  0  3  0  0  0  0  0  0
  191.1620  171.7380  142.1360 O   0  0  0  0  0  1  0  0  0  0  0  0
  188.6210  172.3200  139.4980 C   0  0  0  0  0  2  0  0  0  0  0  0
  190.1060  172.0860  139.6990 C   0  0  0  0  0  2  0  0  0  0  0  0
  190.1900  173.3360  140.5590 C   0  0  1  0  0  3  0  0  0  0  0  0
  188.6990  173.6100  140.2980 C   0  0  2  0  0  3  0  0  0  0  0  0
  187.3910  174.8560  142.1330 N   0  0  0  0  0  2  0  0  0  0  0  0
  187.7450  173.6330  141.4780 C   0  0  0  0  0  0  0  0  0  0  0  0
  187.3530  172.5520  141.9900 O   0  0  0  0  0  0  0  0  0  0  0  0
  187.9520  176.1530  141.7870 C   0  0  0  0  0  2  0  0  0  0  0  0
  189.1950  176.3990  142.6150 C   0  0  0  0  0  2  0  0  0  0  0  0
  190.6490  178.3310  143.3300 N   0  0  0  0  0  1  0  0  0  0  0  0
  188.9250  178.6220  141.8010 O   0  0  0  0  0  0  0  0  0  0  0  0
  189.5630  177.8410  142.5560 C   0  0  0  0  0  0  0  0  0  0  0  0
  190.8270  173.5200  144.9630 C   0  0  0  0  0  2  0  0  0  0  0  0
  190.3830  174.4000  146.1210 C   0  0  2  0  0  3  0  0  0  0  0  0
  190.2070  177.0670  147.3380 C   0  0  0  0  0  2  0  0  0  0  0  0
  189.4180  175.4590  145.5930 C   0  0  0  0  0  2  0  0  0  0  0  0
  191.5950  175.0720  146.7660 C   0  0  0  0  0  2  0  0  0  0  0  0
  188.9800  176.4010  146.7140 C   0  0  2  0  0  3  0  0  0  0  0  0
  191.1550  176.0070  147.8880 C   0  0  0  0  0  2  0  0  0  0  0  0
  186.8800  176.7830  145.4590 C   0  0  0  0  0  2  0  0  0  0  0  0
  186.6960  177.3800  146.8420 C   0  0  1  0  0  3  0  0  0  0  0  0
  188.0480  177.4570  146.1460 C   0  0  1  0  0  3  0  0  0  0  0  0
  185.9820  178.6960  146.7430 C   0  0  0  0  0  0  0  0  0  0  0  0
  185.9990  179.5090  147.7480 N   0  0  0  0  0  2  0  0  0  0  0  0
  185.1160  178.9840  145.5880 C   0  0  0  0  0  0  0  0  0  0  0  0
  185.6110  179.6910  144.4980 O   0  0  0  0  0  0  0  0  0  0  0  0
  183.9210  178.5860  145.5750 O   0  0  0  0  0  1  0  0  0  0  0  0
  1  2  2  0  0  0  0
  1 28  1  0  0  0  0
  3 10  1  6  0  0  0
  3  7  1  0  0  0  0
  3  6  1  0  0  0  0
  4 13  1  6  0  0  0
  4  8  1  0  0  0  0
  5  4  1  0  0  0  0
  5  8  1  0  0  0  0
  6  2  1  1  0  0  0
  7  6  1  0  0  0  0
  8  3  1  0  0  0  0
  8  7  1  0  0  0  0
  9  1  1  0  0  0  0
 10  9  2  0  0  0  0
 11 13  1  0  0  0  0
 13 12  2  0  0  0  0
 14 15  1  0  0  0  0
 14  9  1  0  0  0  0
 16 17  1  0  0  0  0
 16 19  1  0  0  0  0
 17 18  1  0  0  0  0
 18 14  1  0  0  0  0
 19 18  1  0  0  0  0
 19 21  1  0  0  0  0
 21 22  2  0  0  0  0
 21 20  1  0  0  0  0
 23 20  1  0  0  0  0
 23 24  1  0  0  0  0
 26 27  2  0  0  0  0
 27 24  1  0  0  0  0
 27 25  1  0  0  0  0
 28 29  1  0  0  0  0
 29 32  1  0  0  0  0
 30 34  1  0  0  0  0
 31 29  1  0  0  0  0
 31 33  1  0  0  0  0
 32 34  1  0  0  0  0
 33 30  1  0  0  0  0
 35 37  1  0  0  0  0
 35 36  1  0  0  0  0
 37 33  1  0  0  0  0
 37 36  1  0  0  0  0
 38 36  1  0  0  0  0
 38 39  2  0  0  0  0
 40 38  1  0  0  0  0
 41 40  2  0  0  0  0
 42 40  1  0  0  0  0
M  END
>  <MODEL>
3

>  <REMARK>
 VINA RESULT:      -6.3      2.642      5.748
  Name = 
  12 active torsions:
  status: ('A' for Active; 'I' for Inactive)
    1  A    between atoms: N_1  and  C_38
    2  A    between atoms: C_2  and  C_23
    3  A    between atoms: C_2  and  C_38
    4  A    between atoms: C_3  and  C_32
    5  A    between atoms: C_5  and  CA_30
    6  A    between atoms: C_6  and  CA_30
    7  A    between atoms: C_8  and  C_33
    8  A    between atoms: C_8  and  C_37
    9  A    between atoms: C_10  and  C_32
   10  A    between atoms: C_13  and  C_28
   11  A    between atoms: C_17  and  C_34
   12  A    between atoms: C_22  and  C_36
                            x       y       z     vdW  Elec       q    Type
                         _______ _______ _______ _____ _____    ______ ____

>  <TORSDO>
F 12

$$$$
=
 OpenBabel11042419243D

 42 48  0  0  1  0  0  0  0  0999 V2000
  192.0920  173.5240  144.3730 C   0  0  0  0  0  0  0  0  0  0  0  0
  192.7150  173.8530  145.4620 N   0  0  0  0  0  0  0  0  0  0  0  0
  194.8580  172.8770  144.6730 C   0  0  2  0  0  0  0  0  0  0  0  0
  195.6480  170.2870  145.3930 C   0  0  2  0  0  3  0  0  0  0  0  0
  196.0200  170.8960  144.1130 C   0  0  0  0  0  2  0  0  0  0  0  0
  194.1300  173.5780  145.7430 C   0  0  2  0  0  3  0  0  0  0  0  0
  194.3600  172.1200  145.8140 N   0  0  2  0  0  0  0  0  0  0  0  0
  195.7390  171.8280  145.3160 C   0  0  2  0  0  0  0  0  0  0  0  0
  192.8080  172.7970  143.3190 C   0  0  0  0  0  0  0  0  0  0  0  0
  194.0580  172.4950  143.4920 N   0  0  0  0  0  0  0  0  0  0  0  0
  196.7350  169.1300  147.4470 C   0  0  0  0  0  1  0  0  0  0  0  0
  197.9400  169.7370  145.5300 O   0  0  0  0  0  0  0  0  0  0  0  0
  196.8560  169.7370  146.0890 C   0  0  0  0  0  0  0  0  0  0  0  0
  192.0980  172.3520  142.0780 C   0  0  2  0  0  3  0  0  0  0  0  0
  192.4810  171.0530  141.7380 O   0  0  0  0  0  1  0  0  0  0  0  0
  192.0370  172.8830  138.8470 C   0  0  0  0  0  2  0  0  0  0  0  0
  193.1890  172.7820  139.8280 C   0  0  0  0  0  2  0  0  0  0  0  0
  192.3090  173.3540  140.9270 C   0  0  1  0  0  3  0  0  0  0  0  0
  191.1620  173.5200  139.9150 C   0  0  2  0  0  3  0  0  0  0  0  0
  188.7490  173.3730  140.8000 N   0  0  0  0  0  2  0  0  0  0  0  0
  189.8690  172.7620  140.1500 C   0  0  0  0  0  0  0  0  0  0  0  0
  189.8070  171.5310  139.8950 O   0  0  0  0  0  0  0  0  0  0  0  0
  188.7650  174.7200  141.3490 C   0  0  0  0  0  2  0  0  0  0  0  0
  187.9150  175.6260  140.4830 C   0  0  0  0  0  2  0  0  0  0  0  0
  186.3620  176.4070  142.3090 N   0  0  0  0  0  1  0  0  0  0  0  0
  187.7090  177.9030  141.1500 O   0  0  0  0  0  0  0  0  0  0  0  0
  187.3290  176.7130  141.3140 C   0  0  0  0  0  0  0  0  0  0  0  0
  190.6430  173.8700  144.2280 C   0  0  0  0  0  2  0  0  0  0  0  0
  190.3440  175.2590  144.7720 C   0  0  2  0  0  3  0  0  0  0  0  0
  188.9790  177.8430  144.4740 C   0  0  0  0  0  2  0  0  0  0  0  0
  188.8360  175.3950  144.9700 C   0  0  0  0  0  2  0  0  0  0  0  0
  190.8410  176.3240  143.7940 C   0  0  0  0  0  2  0  0  0  0  0  0
  188.4790  176.7950  145.4690 C   0  0  2  0  0  3  0  0  0  0  0  0
  190.4880  177.7200  144.2990 C   0  0  0  0  0  2  0  0  0  0  0  0
  186.6120  176.8630  147.0940 C   0  0  0  0  0  2  0  0  0  0  0  0
  186.6200  178.1900  146.3580 C   0  0  1  0  0  3  0  0  0  0  0  0
  186.9730  176.9030  145.6250 C   0  0  1  0  0  3  0  0  0  0  0  0
  185.2160  178.6070  146.0350 C   0  0  0  0  0  0  0  0  0  0  0  0
  184.2750  178.4070  146.8990 N   0  0  0  0  0  2  0  0  0  0  0  0
  184.8730  179.0690  144.6790 C   0  0  0  0  0  0  0  0  0  0  0  0
  185.4900  180.1940  144.1440 O   0  0  0  0  0  1  0  0  0  0  0  0
  184.0220  178.4450  143.9920 O   0  0  0  0  0  0  0  0  0  0  0  0
  1  2  2  0  0  0  0
  3 10  1  6  0  0  0
  3  8  1  0  0  0  0
  3  6  1  0  0  0  0
  3  7  1  0  0  0  0
  4 13  1  1  0  0  0
  5  8  1  0  0  0  0
  5  4  1  0  0  0  0
  6  2  1  6  0  0  0
  6  7  1  0  0  0  0
  8  4  1  0  0  0  0
  8  7  1  0  0  0  0
  9 10  2  0  0  0  0
  9  1  1  0  0  0  0
 12 13  2  0  0  0  0
 13 11  1  0  0  0  0
 14  9  1  0  0  0  0
 15 14  1  0  0  0  0
 16 17  1  0  0  0  0
 16 19  1  0  0  0  0
 17 18  1  0  0  0  0
 18 14  1  0  0  0  0
 19 21  1  0  0  0  0
 19 18  1  0  0  0  0
 20 23  1  0  0  0  0
 21 20  1  0  0  0  0
 22 21  2  0  0  0  0
 24 27  1  0  0  0  0
 24 23  1  0  0  0  0
 26 27  2  0  0  0  0
 27 25  1  0  0  0  0
 28  1  1  0  0  0  0
 28 29  1  0  0  0  0
 29 31  1  0  0  0  0
 30 33  1  0  0  0  0
 31 33  1  0  0  0  0
 32 34  1  0  0  0  0
 32 29  1  0  0  0  0
 33 37  1  0  0  0  0
 34 30  1  0  0  0  0
 36 35  1  0  0  0  0
 37 36  1  0  0  0  0
 37 35  1  0  0  0  0
 38 36  1  0  0  0  0
 38 39  2  0  0  0  0
 40 38  1  0  0  0  0
 41 40  1  0  0  0  0
 42 40  2  0  0  0  0
M  END
>  <MODEL>
4

>  <REMARK>
 VINA RESULT:      -6.3      2.448      6.145
  Name = 
  12 active torsions:
  status: ('A' for Active; 'I' for Inactive)
    1  A    between atoms: N_1  and  C_38
    2  A    between atoms: C_2  and  C_23
    3  A    between atoms: C_2  and  C_38
    4  A    between atoms: C_3  and  C_32
    5  A    between atoms: C_5  and  CA_30
    6  A    between atoms: C_6  and  CA_30
    7  A    between atoms: C_8  and  C_33
    8  A    between atoms: C_8  and  C_37
    9  A    between atoms: C_10  and  C_32
   10  A    between atoms: C_13  and  C_28
   11  A    between atoms: C_17  and  C_34
   12  A    between atoms: C_22  and  C_36
                            x       y       z     vdW  Elec       q    Type
                         _______ _______ _______ _____ _____    ______ ____

>  <TORSDO>
F 12

$$$$
=
 OpenBabel11042419243D

 42 48  0  0  1  0  0  0  0  0999 V2000
  190.3430  173.7050  142.5400 C   0  0  0  0  0  0  0  0  0  0  0  0
  189.2090  174.0290  142.0030 N   0  0  0  0  0  0  0  0  0  0  0  0
  189.3670  172.2320  140.2950 C   0  0  2  0  0  0  0  0  0  0  0  0
  190.3570  172.7320  137.7220 C   0  0  2  0  0  3  0  0  0  0  0  0
  190.5170  171.4370  138.3890 C   0  0  0  0  0  2  0  0  0  0  0  0
  188.5970  173.3590  140.8470 C   0  0  2  0  0  3  0  0  0  0  0  0
  189.4450  173.5370  139.6500 N   0  0  2  0  0  0  0  0  0  0  0  0
  189.3120  172.3240  138.7860 C   0  0  2  0  0  0  0  0  0  0  0  0
  191.1270  172.6020  141.9710 C   0  0  0  0  0  0  0  0  0  0  0  0
  190.6710  171.9670  140.9360 N   0  0  0  0  0  0  0  0  0  0  0  0
  189.7130  171.1960  135.7310 C   0  0  0  0  0  1  0  0  0  0  0  0
  189.3270  173.5090  135.7440 O   0  0  0  0  0  0  0  0  0  0  0  0
  189.7850  172.5530  136.3480 C   0  0  0  0  0  0  0  0  0  0  0  0
  192.4670  172.2450  142.5350 C   0  0  2  0  0  3  0  0  0  0  0  0
  193.1920  171.4790  141.6190 O   0  0  0  0  0  1  0  0  0  0  0  0
  193.6380  170.0080  144.6210 C   0  0  0  0  0  2  0  0  0  0  0  0
  192.3690  170.0420  143.7900 C   0  0  0  0  0  2  0  0  0  0  0  0
  192.3280  171.5560  143.9060 C   0  0  1  0  0  3  0  0  0  0  0  0
  193.5750  171.5160  144.8060 C   0  0  2  0  0  3  0  0  0  0  0  0
  195.0630  173.6080  144.6140 N   0  0  0  0  0  2  0  0  0  0  0  0
  194.8340  172.2220  144.3380 C   0  0  0  0  0  0  0  0  0  0  0  0
  195.6410  171.6290  143.5760 O   0  0  0  0  0  0  0  0  0  0  0  0
  194.1060  174.4700  145.2890 C   0  0  0  0  0  2  0  0  0  0  0  0
  194.8500  175.5320  146.0710 C   0  0  0  0  0  2  0  0  0  0  0  0
  193.0610  176.9890  145.0550 N   0  0  0  0  0  1  0  0  0  0  0  0
  194.9010  177.9130  146.1320 O   0  0  0  0  0  0  0  0  0  0  0  0
  194.2920  176.8750  145.7560 C   0  0  0  0  0  0  0  0  0  0  0  0
  190.8420  174.4820  143.7170 C   0  0  0  0  0  2  0  0  0  0  0  0
  189.7740  174.6160  144.7920 C   0  0  2  0  0  3  0  0  0  0  0  0
  188.6360  176.1210  147.0430 C   0  0  0  0  0  2  0  0  0  0  0  0
  189.0230  175.9280  144.5800 C   0  0  0  0  0  2  0  0  0  0  0  0
  190.4180  174.6000  146.1790 C   0  0  0  0  0  2  0  0  0  0  0  0
  187.9690  176.1320  145.6680 C   0  0  2  0  0  3  0  0  0  0  0  0
  189.3630  174.7980  147.2610 C   0  0  0  0  0  2  0  0  0  0  0  0
  186.8180  177.5550  144.0000 C   0  0  0  0  0  2  0  0  0  0  0  0
  185.8070  177.2160  145.0810 C   0  0  1  0  0  3  0  0  0  0  0  0
  187.2670  177.4590  145.4420 C   0  0  1  0  0  3  0  0  0  0  0  0
  184.9800  178.4230  145.4070 C   0  0  0  0  0  0  0  0  0  0  0  0
  184.4650  178.5450  146.5870 N   0  0  0  0  0  2  0  0  0  0  0  0
  184.5990  179.3700  144.3460 C   0  0  0  0  0  0  0  0  0  0  0  0
  183.6020  179.0400  143.4350 O   0  0  0  0  0  0  0  0  0  0  0  0
  185.1670  180.4910  144.2610 O   0  0  0  0  0  1  0  0  0  0  0  0
  1 28  1  0  0  0  0
  2  1  2  0  0  0  0
  3  6  1  0  0  0  0
  3 10  1  1  0  0  0
  4 13  1  6  0  0  0
  4  5  1  0  0  0  0
  4  8  1  0  0  0  0
  5  8  1  0  0  0  0
  6  2  1  1  0  0  0
  7  3  1  0  0  0  0
  7  6  1  0  0  0  0
  8  7  1  0  0  0  0
  8  3  1  0  0  0  0
  9 14  1  0  0  0  0
  9  1  1  0  0  0  0
 10  9  2  0  0  0  0
 11 13  1  0  0  0  0
 12 13  2  0  0  0  0
 14 18  1  0  0  0  0
 15 14  1  0  0  0  0
 16 19  1  0  0  0  0
 17 18  1  0  0  0  0
 17 16  1  0  0  0  0
 18 19  1  0  0  0  0
 20 23  1  0  0  0  0
 21 20  1  0  0  0  0
 21 19  1  0  0  0  0
 22 21  2  0  0  0  0
 23 24  1  0  0  0  0
 25 27  1  0  0  0  0
 27 24  1  0  0  0  0
 27 26  2  0  0  0  0
 28 29  1  0  0  0  0
 29 32  1  0  0  0  0
 30 34  1  0  0  0  0
 31 29  1  0  0  0  0
 31 33  1  0  0  0  0
 32 34  1  0  0  0  0
 33 30  1  0  0  0  0
 35 36  1  0  0  0  0
 35 37  1  0  0  0  0
 36 38  1  0  0  0  0
 36 37  1  0  0  0  0
 37 33  1  0  0  0  0
 38 39  2  0  0  0  0
 40 38  1  0  0  0  0
 41 40  2  0  0  0  0
 42 40  1  0  0  0  0
M  END
>  <MODEL>
5

>  <REMARK>
 VINA RESULT:      -6.2      2.087      3.399
  Name = 
  12 active torsions:
  status: ('A' for Active; 'I' for Inactive)
    1  A    between atoms: N_1  and  C_38
    2  A    between atoms: C_2  and  C_23
    3  A    between atoms: C_2  and  C_38
    4  A    between atoms: C_3  and  C_32
    5  A    between atoms: C_5  and  CA_30
    6  A    between atoms: C_6  and  CA_30
    7  A    between atoms: C_8  and  C_33
    8  A    between atoms: C_8  and  C_37
    9  A    between atoms: C_10  and  C_32
   10  A    between atoms: C_13  and  C_28
   11  A    between atoms: C_17  and  C_34
   12  A    between atoms: C_22  and  C_36
                            x       y       z     vdW  Elec       q    Type
                         _______ _______ _______ _____ _____    ______ ____

>  <TORSDO>
F 12

$$$$
=
 OpenBabel11042419243D

 42 48  0  0  1  0  0  0  0  0999 V2000
  193.4580  174.4500  143.8780 C   0  0  0  0  0  0  0  0  0  0  0  0
  194.6570  174.7340  144.2820 N   0  0  0  0  0  0  0  0  0  0  0  0
  195.4790  172.4310  143.8470 C   0  0  2  0  0  0  0  0  0  0  0  0
  195.6030  170.5050  145.8780 C   0  0  2  0  0  3  0  0  0  0  0  0
  195.3560  170.1550  144.4770 C   0  0  0  0  0  2  0  0  0  0  0  0
  195.7820  173.7910  144.3200 C   0  0  2  0  0  3  0  0  0  0  0  0
  195.5010  172.7020  145.2780 N   0  0  2  0  0  0  0  0  0  0  0  0
  196.1490  171.4490  144.7830 C   0  0  2  0  0  0  0  0  0  0  0  0
  193.1450  173.0860  143.4360 C   0  0  0  0  0  0  0  0  0  0  0  0
  194.0760  172.1830  143.4560 N   0  0  0  0  0  0  0  0  0  0  0  0
  197.8400  169.2260  145.5690 C   0  0  0  0  0  1  0  0  0  0  0  0
  196.7410  169.4080  147.6320 O   0  0  0  0  0  0  0  0  0  0  0  0
  196.7180  169.6770  146.4430 C   0  0  0  0  0  0  0  0  0  0  0  0
  191.7550  172.7160  143.0220 C   0  0  2  0  0  3  0  0  0  0  0  0
  191.4820  171.3900  143.3650 O   0  0  0  0  0  1  0  0  0  0  0  0
  190.1030  171.9560  140.2980 C   0  0  0  0  0  2  0  0  0  0  0  0
  191.5490  171.7280  140.6930 C   0  0  0  0  0  2  0  0  0  0  0  0
  191.5260  173.0000  141.5250 C   0  0  1  0  0  3  0  0  0  0  0  0
  190.0820  173.2660  141.0680 C   0  0  2  0  0  3  0  0  0  0  0  0
  188.3700  174.5550  142.4970 N   0  0  0  0  0  2  0  0  0  0  0  0
  188.9850  173.3190  142.1160 C   0  0  0  0  0  0  0  0  0  0  0  0
  188.6910  172.2850  142.7700 O   0  0  0  0  0  0  0  0  0  0  0  0
  188.7750  175.8540  141.9840 C   0  0  0  0  0  2  0  0  0  0  0  0
  187.8110  176.2890  140.9000 C   0  0  0  0  0  2  0  0  0  0  0  0
  185.8410  177.8550  140.7570 N   0  0  0  0  0  1  0  0  0  0  0  0
  187.6120  178.2760  142.1990 O   0  0  0  0  0  0  0  0  0  0  0  0
  187.1030  177.5290  141.3220 C   0  0  0  0  0  0  0  0  0  0  0  0
  192.4090  175.5170  143.8980 C   0  0  0  0  0  2  0  0  0  0  0  0
  191.5840  175.4660  145.1750 C   0  0  2  0  0  3  0  0  0  0  0  0
  190.4770  176.8490  147.5180 C   0  0  0  0  0  2  0  0  0  0  0  0
  190.4210  176.4470  145.0500 C   0  0  0  0  0  2  0  0  0  0  0  0
  192.4540  175.8360  146.3770 C   0  0  0  0  0  2  0  0  0  0  0  0
  189.5900  176.4690  146.3320 C   0  0  2  0  0  3  0  0  0  0  0  0
  191.6220  175.8510  147.6550 C   0  0  0  0  0  2  0  0  0  0  0  0
  187.3310  176.8550  145.3940 C   0  0  0  0  0  2  0  0  0  0  0  0
  187.2210  176.9730  146.9040 C   0  0  1  0  0  3  0  0  0  0  0  0
  188.4640  177.4760  146.1820 C   0  0  1  0  0  3  0  0  0  0  0  0
  186.3260  178.1210  147.2650 C   0  0  0  0  0  0  0  0  0  0  0  0
  186.4980  178.7360  148.3900 N   0  0  0  0  0  2  0  0  0  0  0  0
  185.1450  178.4300  146.4400 C   0  0  0  0  0  0  0  0  0  0  0  0
  184.0080  177.6350  146.5170 O   0  0  0  0  0  1  0  0  0  0  0  0
  185.1550  179.4220  145.6640 O   0  0  0  0  0  0  0  0  0  0  0  0
  1 28  1  0  0  0  0
  1  2  2  0  0  0  0
  3 10  1  6  0  0  0
  3  6  1  0  0  0  0
  3  8  1  0  0  0  0
  3  7  1  0  0  0  0
  4 13  1  6  0  0  0
  5  8  1  0  0  0  0
  5  4  1  0  0  0  0
  6  2  1  6  0  0  0
  6  7  1  0  0  0  0
  8  7  1  0  0  0  0
  8  4  1  0  0  0  0
  9 10  2  0  0  0  0
  9  1  1  0  0  0  0
 11 13  1  0  0  0  0
 13 12  2  0  0  0  0
 14 15  1  0  0  0  0
 14  9  1  0  0  0  0
 16 17  1  0  0  0  0
 16 19  1  0  0  0  0
 17 18  1  0  0  0  0
 18 14  1  0  0  0  0
 19 18  1  0  0  0  0
 19 21  1  0  0  0  0
 21 20  1  0  0  0  0
 21 22  2  0  0  0  0
 23 20  1  0  0  0  0
 24 27  1  0  0  0  0
 24 23  1  0  0  0  0
 25 27  1  0  0  0  0
 27 26  2  0  0  0  0
 28 29  1  0  0  0  0
 29 32  1  0  0  0  0
 30 34  1  0  0  0  0
 31 29  1  0  0  0  0
 31 33  1  0  0  0  0
 32 34  1  0  0  0  0
 33 30  1  0  0  0  0
 35 37  1  0  0  0  0
 35 36  1  0  0  0  0
 36 38  1  0  0  0  0
 37 33  1  0  0  0  0
 37 36  1  0  0  0  0
 38 39  2  0  0  0  0
 40 41  1  0  0  0  0
 40 38  1  0  0  0  0
 42 40  2  0  0  0  0
M  END
>  <MODEL>
6

>  <REMARK>
 VINA RESULT:      -6.2      2.537      6.452
  Name = 
  12 active torsions:
  status: ('A' for Active; 'I' for Inactive)
    1  A    between atoms: N_1  and  C_38
    2  A    between atoms: C_2  and  C_23
    3  A    between atoms: C_2  and  C_38
    4  A    between atoms: C_3  and  C_32
    5  A    between atoms: C_5  and  CA_30
    6  A    between atoms: C_6  and  CA_30
    7  A    between atoms: C_8  and  C_33
    8  A    between atoms: C_8  and  C_37
    9  A    between atoms: C_10  and  C_32
   10  A    between atoms: C_13  and  C_28
   11  A    between atoms: C_17  and  C_34
   12  A    between atoms: C_22  and  C_36
                            x       y       z     vdW  Elec       q    Type
                         _______ _______ _______ _____ _____    ______ ____

>  <TORSDO>
F 12

$$$$
=
 OpenBabel11042419243D

 42 48  0  0  1  0  0  0  0  0999 V2000
  190.3640  174.2070  143.6830 C   0  0  0  0  0  0  0  0  0  0  0  0
  189.2240  173.6240  143.4830 N   0  0  0  0  0  0  0  0  0  0  0  0
  188.6640  175.1100  141.5720 C   0  0  2  0  0  0  0  0  0  0  0  0
  187.0710  177.3910  141.9010 C   0  0  2  0  0  3  0  0  0  0  0  0
  188.1310  177.3110  140.8930 C   0  0  0  0  0  2  0  0  0  0  0  0
  188.2580  173.9910  142.4390 C   0  0  2  0  0  3  0  0  0  0  0  0
  187.7460  175.3570  142.6770 N   0  0  2  0  0  0  0  0  0  0  0  0
  187.4570  175.9960  141.3570 C   0  0  2  0  0  0  0  0  0  0  0  0
  190.7570  175.3430  142.8410 C   0  0  0  0  0  0  0  0  0  0  0  0
  189.9540  175.7470  141.9050 N   0  0  0  0  0  0  0  0  0  0  0  0
  184.5650  178.0340  142.1220 C   0  0  0  0  0  1  0  0  0  0  0  0
  185.7340  178.1070  140.0910 O   0  0  0  0  0  0  0  0  0  0  0  0
  185.7830  177.8430  141.2810 C   0  0  0  0  0  0  0  0  0  0  0  0
  192.0410  176.0710  143.0880 C   0  0  2  0  0  3  0  0  0  0  0  0
  191.8980  177.4270  142.7830 O   0  0  0  0  0  1  0  0  0  0  0  0
  195.1560  176.2960  142.1020 C   0  0  0  0  0  2  0  0  0  0  0  0
  193.8500  176.3630  141.3330 C   0  0  0  0  0  2  0  0  0  0  0  0
  193.2090  175.4120  142.3310 C   0  0  1  0  0  3  0  0  0  0  0  0
  194.5530  175.2910  143.0700 C   0  0  2  0  0  3  0  0  0  0  0  0
  195.0400  174.8520  145.5600 N   0  0  0  0  0  2  0  0  0  0  0  0
  194.6310  175.7430  144.5160 C   0  0  0  0  0  0  0  0  0  0  0  0
  194.2040  176.8810  144.8440 O   0  0  0  0  0  0  0  0  0  0  0  0
  195.3420  173.4440  145.3520 C   0  0  0  0  0  2  0  0  0  0  0  0
  196.6750  173.1170  145.9920 C   0  0  0  0  0  2  0  0  0  0  0  0
  197.9370  171.7230  144.3140 N   0  0  0  0  0  1  0  0  0  0  0  0
  196.9020  170.7510  146.1530 O   0  0  0  0  0  0  0  0  0  0  0  0
  197.1600  171.7980  145.5010 C   0  0  0  0  0  0  0  0  0  0  0  0
  191.2470  173.7230  144.7910 C   0  0  0  0  0  2  0  0  0  0  0  0
  190.8640  174.3500  146.1230 C   0  0  2  0  0  3  0  0  0  0  0  0
  190.8700  176.6840  147.9060 C   0  0  0  0  0  2  0  0  0  0  0  0
  189.9720  175.5600  145.8590 C   0  0  0  0  0  2  0  0  0  0  0  0
  192.1200  174.7800  146.8820 C   0  0  0  0  0  2  0  0  0  0  0  0
  189.6010  176.2560  147.1690 C   0  0  2  0  0  3  0  0  0  0  0  0
  191.7450  175.4680  148.1900 C   0  0  0  0  0  2  0  0  0  0  0  0
  187.9620  177.2310  145.5900 C   0  0  0  0  0  2  0  0  0  0  0  0
  187.2680  177.0890  146.9330 C   0  0  1  0  0  3  0  0  0  0  0  0
  188.7410  177.4700  146.8650 C   0  0  1  0  0  3  0  0  0  0  0  0
  186.4280  178.3010  147.2080 C   0  0  0  0  0  0  0  0  0  0  0  0
  186.5800  178.9450  148.3180 N   0  0  0  0  0  2  0  0  0  0  0  0
  185.3120  178.6490  146.3120 C   0  0  0  0  0  0  0  0  0  0  0  0
  184.0980  177.9800  146.4100 O   0  0  0  0  0  1  0  0  0  0  0  0
  185.4470  179.5610  145.4540 O   0  0  0  0  0  0  0  0  0  0  0  0
  1 28  1  0  0  0  0
  2  1  2  0  0  0  0
  3 10  1  6  0  0  0
  3  6  1  0  0  0  0
  3  7  1  0  0  0  0
  4 13  1  6  0  0  0
  5  8  1  0  0  0  0
  5  4  1  0  0  0  0
  6  7  1  0  0  0  0
  6  2  1  1  0  0  0
  8  3  1  0  0  0  0
  8  4  1  0  0  0  0
  8  7  1  0  0  0  0
  9 14  1  0  0  0  0
  9  1  1  0  0  0  0
 10  9  2  0  0  0  0
 12 13  2  0  0  0  0
 13 11  1  0  0  0  0
 15 14  1  0  0  0  0
 16 19  1  0  0  0  0
 17 16  1  0  0  0  0
 17 18  1  0  0  0  0
 18 19  1  0  0  0  0
 18 14  1  0  0  0  0
 19 21  1  0  0  0  0
 21 22  2  0  0  0  0
 21 20  1  0  0  0  0
 23 20  1  0  0  0  0
 23 24  1  0  0  0  0
 25 27  1  0  0  0  0
 27 24  1  0  0  0  0
 27 26  2  0  0  0  0
 28 29  1  0  0  0  0
 29 32  1  0  0  0  0
 30 34  1  0  0  0  0
 31 29  1  0  0  0  0
 31 33  1  0  0  0  0
 32 34  1  0  0  0  0
 33 30  1  0  0  0  0
 35 37  1  0  0  0  0
 35 36  1  0  0  0  0
 36 38  1  0  0  0  0
 37 36  1  0  0  0  0
 37 33  1  0  0  0  0
 38 39  2  0  0  0  0
 40 41  1  0  0  0  0
 40 38  1  0  0  0  0
 42 40  2  0  0  0  0
M  END
>  <MODEL>
7

>  <REMARK>
 VINA RESULT:      -6.0      2.661      3.891
  Name = 
  12 active torsions:
  status: ('A' for Active; 'I' for Inactive)
    1  A    between atoms: N_1  and  C_38
    2  A    between atoms: C_2  and  C_23
    3  A    between atoms: C_2  and  C_38
    4  A    between atoms: C_3  and  C_32
    5  A    between atoms: C_5  and  CA_30
    6  A    between atoms: C_6  and  CA_30
    7  A    between atoms: C_8  and  C_33
    8  A    between atoms: C_8  and  C_37
    9  A    between atoms: C_10  and  C_32
   10  A    between atoms: C_13  and  C_28
   11  A    between atoms: C_17  and  C_34
   12  A    between atoms: C_22  and  C_36
                            x       y       z     vdW  Elec       q    Type
                         _______ _______ _______ _____ _____    ______ ____

>  <TORSDO>
F 12

$$$$
=
 OpenBabel11042419243D

 42 48  0  0  1  0  0  0  0  0999 V2000
  193.8990  173.8790  144.1810 C   0  0  0  0  0  0  0  0  0  0  0  0
  195.1140  173.9870  144.6210 N   0  0  0  0  0  0  0  0  0  0  0  0
  195.5660  171.5630  144.3250 C   0  0  2  0  0  0  0  0  0  0  0  0
  195.3070  169.7490  146.4440 C   0  0  2  0  0  3  0  0  0  0  0  0
  195.0550  169.3710  145.0500 C   0  0  0  0  0  2  0  0  0  0  0  0
  196.0700  172.8790  144.7490 C   0  0  2  0  0  3  0  0  0  0  0  0
  195.5830  171.8990  145.7420 N   0  0  2  0  0  0  0  0  0  0  0  0
  196.0360  170.5360  145.3310 C   0  0  2  0  0  0  0  0  0  0  0  0
  193.3840  172.5610  143.7880 C   0  0  0  0  0  0  0  0  0  0  0  0
  194.1560  171.5230  143.8860 N   0  0  0  0  0  0  0  0  0  0  0  0
  197.6370  168.6090  146.5590 C   0  0  0  0  0  1  0  0  0  0  0  0
  195.9160  168.1660  148.0880 O   0  0  0  0  0  0  0  0  0  0  0  0
  196.2530  168.7820  147.0910 C   0  0  0  0  0  0  0  0  0  0  0  0
  191.9680  172.3980  143.3320 C   0  0  2  0  0  3  0  0  0  0  0  0
  191.1570  172.0030  144.3980 O   0  0  0  0  0  1  0  0  0  0  0  0
  190.3180  171.4960  140.6510 C   0  0  0  0  0  2  0  0  0  0  0  0
  190.4950  170.8210  141.9980 C   0  0  0  0  0  2  0  0  0  0  0  0
  191.8770  171.4390  142.1300 C   0  0  1  0  0  3  0  0  0  0  0  0
  191.7240  172.0670  140.7340 C   0  0  2  0  0  3  0  0  0  0  0  0
  192.9420  174.2730  140.2040 N   0  0  0  0  0  2  0  0  0  0  0  0
  191.7560  173.5790  140.6090 C   0  0  0  0  0  0  0  0  0  0  0  0
  190.7720  174.2630  140.9930 O   0  0  0  0  0  0  0  0  0  0  0  0
  194.2170  173.6210  139.9500 C   0  0  0  0  0  2  0  0  0  0  0  0
  195.2240  174.0620  140.9920 C   0  0  0  0  0  2  0  0  0  0  0  0
  195.4180  176.5210  141.5100 N   0  0  0  0  0  1  0  0  0  0  0  0
  196.4470  175.5980  139.6430 O   0  0  0  0  0  0  0  0  0  0  0  0
  195.7270  175.4240  140.6620 C   0  0  0  0  0  0  0  0  0  0  0  0
  193.0370  175.0990  144.1090 C   0  0  0  0  0  2  0  0  0  0  0  0
  191.9600  175.0870  145.1840 C   0  0  2  0  0  3  0  0  0  0  0  0
  190.5320  176.4830  147.3380 C   0  0  0  0  0  2  0  0  0  0  0  0
  190.9580  176.2000  144.8890 C   0  0  0  0  0  2  0  0  0  0  0  0
  192.5900  175.3000  146.5600 C   0  0  0  0  0  2  0  0  0  0  0  0
  189.8810  176.2610  145.9720 C   0  0  2  0  0  3  0  0  0  0  0  0
  191.5130  175.3540  147.6390 C   0  0  0  0  0  2  0  0  0  0  0  0
  188.4660  177.2960  144.2240 C   0  0  0  0  0  2  0  0  0  0  0  0
  187.5440  176.8360  145.3390 C   0  0  1  0  0  3  0  0  0  0  0  0
  188.9230  177.3970  145.6630 C   0  0  1  0  0  3  0  0  0  0  0  0
  186.4870  177.8700  145.5910 C   0  0  0  0  0  0  0  0  0  0  0  0
  186.2170  178.2250  146.8040 N   0  0  0  0  0  2  0  0  0  0  0  0
  185.6340  178.3430  144.4870 C   0  0  0  0  0  0  0  0  0  0  0  0
  185.5520  179.6990  144.1950 O   0  0  0  0  0  1  0  0  0  0  0  0
  184.9790  177.5200  143.7930 O   0  0  0  0  0  0  0  0  0  0  0  0
  1  2  2  0  0  0  0
  3 10  1  6  0  0  0
  3  6  1  0  0  0  0
  3  8  1  0  0  0  0
  3  7  1  0  0  0  0
  4 13  1  1  0  0  0
  5  8  1  0  0  0  0
  5  4  1  0  0  0  0
  6  2  1  6  0  0  0
  6  7  1  0  0  0  0
  8  7  1  0  0  0  0
  8  4  1  0  0  0  0
  9 10  2  0  0  0  0
  9  1  1  0  0  0  0
 11 13  1  0  0  0  0
 13 12  2  0  0  0  0
 14  9  1  0  0  0  0
 14 15  1  0  0  0  0
 16 19  1  0  0  0  0
 16 17  1  0  0  0  0
 17 18  1  0  0  0  0
 18 14  1  0  0  0  0
 19 18  1  0  0  0  0
 20 21  1  0  0  0  0
 21 19  1  0  0  0  0
 21 22  2  0  0  0  0
 23 20  1  0  0  0  0
 23 24  1  0  0  0  0
 26 27  2  0  0  0  0
 27 24  1  0  0  0  0
 27 25  1  0  0  0  0
 28  1  1  0  0  0  0
 28 29  1  0  0  0  0
 29 32  1  0  0  0  0
 30 34  1  0  0  0  0
 31 29  1  0  0  0  0
 31 33  1  0  0  0  0
 32 34  1  0  0  0  0
 33 30  1  0  0  0  0
 35 36  1  0  0  0  0
 35 37  1  0  0  0  0
 36 38  1  0  0  0  0
 36 37  1  0  0  0  0
 37 33  1  0  0  0  0
 38 39  2  0  0  0  0
 40 38  1  0  0  0  0
 41 40  1  0  0  0  0
 42 40  2  0  0  0  0
M  END
>  <MODEL>
8

>  <REMARK>
 VINA RESULT:      -6.0      2.550      5.731
  Name = 
  12 active torsions:
  status: ('A' for Active; 'I' for Inactive)
    1  A    between atoms: N_1  and  C_38
    2  A    between atoms: C_2  and  C_23
    3  A    between atoms: C_2  and  C_38
    4  A    between atoms: C_3  and  C_32
    5  A    between atoms: C_5  and  CA_30
    6  A    between atoms: C_6  and  CA_30
    7  A    between atoms: C_8  and  C_33
    8  A    between atoms: C_8  and  C_37
    9  A    between atoms: C_10  and  C_32
   10  A    between atoms: C_13  and  C_28
   11  A    between atoms: C_17  and  C_34
   12  A    between atoms: C_22  and  C_36
                            x       y       z     vdW  Elec       q    Type
                         _______ _______ _______ _____ _____    ______ ____

>  <TORSDO>
F 12

$$$$
=
 OpenBabel11042419243D

 42 48  0  0  1  0  0  0  0  0999 V2000
  188.9790  174.1600  142.9000 C   0  0  0  0  0  0  0  0  0  0  0  0
  188.0860  174.4630  142.0090 N   0  0  0  0  0  0  0  0  0  0  0  0
  187.7690  176.7490  142.9270 C   0  0  2  0  0  0  0  0  0  0  0  0
  185.7020  177.3380  144.7240 C   0  0  2  0  0  3  0  0  0  0  0  0
  186.9900  178.0370  144.7500 C   0  0  0  0  0  2  0  0  0  0  0  0
  187.3880  175.7510  141.9140 C   0  0  2  0  0  3  0  0  0  0  0  0
  186.5540  175.9670  143.1150 N   0  0  2  0  0  0  0  0  0  0  0  0
  186.5090  177.4320  143.4090 C   0  0  2  0  0  0  0  0  0  0  0  0
  189.3370  175.1420  143.9300 C   0  0  0  0  0  0  0  0  0  0  0  0
  188.7540  176.3010  143.9330 N   0  0  0  0  0  0  0  0  0  0  0  0
  184.1020  178.9650  145.9620 C   0  0  0  0  0  1  0  0  0  0  0  0
  184.0490  178.6320  143.6420 O   0  0  0  0  0  0  0  0  0  0  0  0
  184.5680  178.3180  144.7010 C   0  0  0  0  0  0  0  0  0  0  0  0
  190.3200  174.7990  145.0050 C   0  0  2  0  0  3  0  0  0  0  0  0
  189.6680  174.2110  146.0920 O   0  0  0  0  0  1  0  0  0  0  0  0
  192.7150  176.0000  146.8890 C   0  0  0  0  0  2  0  0  0  0  0  0
  191.2130  176.2080  146.9170 C   0  0  0  0  0  2  0  0  0  0  0  0
  191.1550  176.0290  145.4090 C   0  0  1  0  0  3  0  0  0  0  0  0
  192.6870  175.8860  145.3740 C   0  0  2  0  0  3  0  0  0  0  0  0
  193.6300  174.4080  143.4880 N   0  0  0  0  0  2  0  0  0  0  0  0
  193.2850  174.5880  144.8670 C   0  0  0  0  0  0  0  0  0  0  0  0
  193.3640  173.5910  145.6310 O   0  0  0  0  0  0  0  0  0  0  0  0
  193.3790  175.3990  142.4540 C   0  0  0  0  0  2  0  0  0  0  0  0
  194.1090  175.0000  141.1880 C   0  0  0  0  0  2  0  0  0  0  0  0
  196.1850  175.6580  139.9180 N   0  0  0  0  0  1  0  0  0  0  0  0
  195.8080  176.4110  142.0830 O   0  0  0  0  0  0  0  0  0  0  0  0
  195.4080  175.7220  141.1060 C   0  0  0  0  0  0  0  0  0  0  0  0
  189.6060  172.8020  142.8740 C   0  0  0  0  0  2  0  0  0  0  0  0
  190.8090  172.7610  141.9430 C   0  0  2  0  0  3  0  0  0  0  0  0
  192.3600  171.3450  139.8890 C   0  0  0  0  0  2  0  0  0  0  0  0
  190.3130  172.6450  140.5030 C   0  0  0  0  0  2  0  0  0  0  0  0
  191.7000  171.5670  142.2870 C   0  0  0  0  0  2  0  0  0  0  0  0
  191.4890  172.5490  139.5310 C   0  0  2  0  0  3  0  0  0  0  0  0
  192.8740  171.4790  141.3180 C   0  0  0  0  0  2  0  0  0  0  0  0
  189.6790  173.2000  137.9710 C   0  0  0  0  0  2  0  0  0  0  0  0
  190.9770  173.7570  137.4160 C   0  0  1  0  0  3  0  0  0  0  0  0
  190.9580  172.4040  138.1160 C   0  0  1  0  0  3  0  0  0  0  0  0
  191.0200  173.5740  135.9280 C   0  0  0  0  0  0  0  0  0  0  0  0
  192.1610  173.5050  135.3250 N   0  0  0  0  0  2  0  0  0  0  0  0
  189.7820  173.6590  135.1350 C   0  0  0  0  0  0  0  0  0  0  0  0
  189.1240  174.8750  134.9870 O   0  0  0  0  0  1  0  0  0  0  0  0
  189.3130  172.6310  134.5770 O   0  0  0  0  0  0  0  0  0  0  0  0
  1  9  1  0  0  0  0
  2  1  2  0  0  0  0
  3  7  1  0  0  0  0
  3  8  1  0  0  0  0
  3 10  1  1  0  0  0
  4 13  1  6  0  0  0
  4  5  1  0  0  0  0
  6  2  1  1  0  0  0
  6  3  1  0  0  0  0
  6  7  1  0  0  0  0
  7  8  1  0  0  0  0
  8  4  1  0  0  0  0
  8  5  1  0  0  0  0
  9 10  2  0  0  0  0
  9 14  1  0  0  0  0
 12 13  2  0  0  0  0
 13 11  1  0  0  0  0
 14 18  1  0  0  0  0
 14 15  1  0  0  0  0
 16 17  1  0  0  0  0
 18 17  1  0  0  0  0
 19 18  1  0  0  0  0
 19 16  1  0  0  0  0
 20 21  1  0  0  0  0
 21 19  1  0  0  0  0
 21 22  2  0  0  0  0
 23 20  1  0  0  0  0
 24 23  1  0  0  0  0
 25 27  1  0  0  0  0
 27 24  1  0  0  0  0
 27 26  2  0  0  0  0
 28  1  1  0  0  0  0
 29 32  1  0  0  0  0
 29 28  1  0  0  0  0
 30 34  1  0  0  0  0
 31 29  1  0  0  0  0
 33 30  1  0  0  0  0
 33 31  1  0  0  0  0
 34 32  1  0  0  0  0
 35 37  1  0  0  0  0
 36 35  1  0  0  0  0
 36 37  1  0  0  0  0
 37 33  1  0  0  0  0
 38 36  1  0  0  0  0
 39 38  2  0  0  0  0
 40 38  1  0  0  0  0
 41 40  1  0  0  0  0
 42 40  2  0  0  0  0
M  END
>  <MODEL>
9

>  <REMARK>
 VINA RESULT:      -5.9      2.537      7.135
  Name = 
  12 active torsions:
  status: ('A' for Active; 'I' for Inactive)
    1  A    between atoms: N_1  and  C_38
    2  A    between atoms: C_2  and  C_23
    3  A    between atoms: C_2  and  C_38
    4  A    between atoms: C_3  and  C_32
    5  A    between atoms: C_5  and  CA_30
    6  A    between atoms: C_6  and  CA_30
    7  A    between atoms: C_8  and  C_33
    8  A    between atoms: C_8  and  C_37
    9  A    between atoms: C_10  and  C_32
   10  A    between atoms: C_13  and  C_28
   11  A    between atoms: C_17  and  C_34
   12  A    between atoms: C_22  and  C_36
                            x       y       z     vdW  Elec       q    Type
                         _______ _______ _______ _____ _____    ______ ____

>  <TORSDO>
F 12

$$$$
