=
 OpenBabel11042415593D

 52 55  0  0  1  0  0  0  0  0999 V2000
  189.4190  176.1450  146.9150 C   0  0  2  0  0  3  0  0  0  0  0  0
  191.0920  177.1240  148.3820 N   0  0  0  0  0  1  0  0  0  0  0  0
  188.0320  177.6280  143.6260 C   0  0  0  0  0  0  0  0  0  0  0  0
  188.2750  177.0130  144.9380 C   0  0  0  0  0  3  0  0  0  0  0  0
  190.4290  177.7410  142.8100 C   0  0  0  0  0  3  0  0  0  0  0  0
  191.6710  176.6390  146.1200 N   0  0  0  0  0  2  0  0  0  0  0  0
  191.2120  177.3360  143.8110 C   0  0  0  0  0  0  0  0  0  0  0  0
  189.4150  176.7010  145.5510 C   0  0  0  0  0  0  0  0  0  0  0  0
  188.9770  177.9040  142.7320 C   0  0  0  0  0  3  0  0  0  0  0  0
  190.7400  176.9520  145.1160 N   0  0  0  0  0  0  0  0  0  0  0  0
  190.8960  176.1940  147.2840 C   0  0  2  0  0  3  0  0  0  0  0  0
  186.2010  177.5540  141.9530 C   0  0  0  0  0  3  0  0  0  0  0  0
  186.6120  177.8760  143.2570 C   0  0  0  0  0  0  0  0  0  0  0  0
  183.9450  178.3060  142.4230 C   0  0  0  0  0  0  0  0  0  0  0  0
  185.6550  178.4070  144.1570 C   0  0  0  0  0  0  0  0  0  0  0  0
  184.3390  178.6170  143.7310 C   0  0  0  0  0  3  0  0  0  0  0  0
  184.8860  177.7660  141.5410 C   0  0  0  0  0  3  0  0  0  0  0  0
  182.1330  178.0750  140.6860 C   0  0  0  0  0  1  0  0  0  0  0  0
  182.5940  178.5250  141.9890 N   0  0  0  0  0  0  0  0  0  0  0  0
  181.7130  179.1560  142.8010 O   0  0  0  0  0  1  0  0  0  0  0  0
  185.2710  177.8890  146.4320 O   0  0  0  0  0  1  0  0  0  0  0  0
  185.9830  178.7310  145.5790 C   0  0  0  0  0  2  0  0  0  0  0  0
  193.3270  176.1970  143.4610 N   0  0  0  0  0  0  0  0  0  0  0  0
  192.6700  177.3060  143.5690 C   0  0  0  0  0  3  0  0  0  0  0  0
  194.6820  176.2180  143.2400 O   0  0  0  0  0  0  0  0  0  0  0  0
  195.3140  175.1150  142.6110 C   0  0  0  0  0  2  0  0  0  0  0  0
  194.6960  173.8040  143.0770 C   0  0  1  0  0  3  0  0  0  0  0  0
  194.6990  172.8770  142.0340 O   0  0  0  0  0  1  0  0  0  0  0  0
  195.4370  173.2290  144.2770 C   0  0  0  0  0  2  0  0  0  0  0  0
  195.5550  171.8160  144.1600 O   0  0  0  0  0  0  0  0  0  0  0  0
  196.9020  170.0800  146.0710 C   0  0  0  0  0  2  0  0  0  0  0  0
  194.8050  170.9380  144.9480 C   0  0  0  0  0  0  0  0  0  0  0  0
  195.8380  168.5380  147.6290 C   0  0  0  0  0  2  0  0  0  0  0  0
  197.1830  168.9510  147.0450 C   0  0  0  0  0  2  0  0  0  0  0  0
  195.4680  170.0820  145.8830 N   0  0  0  0  0  0  0  0  0  0  0  0
  193.5480  170.9020  144.8440 O   0  0  0  0  0  0  0  0  0  0  0  0
  194.7750  169.1280  146.7220 C   0  0  0  0  0  2  0  0  0  0  0  0
  188.9570  174.6940  146.9170 C   0  0  0  0  0  2  0  0  0  0  0  0
  189.9350  173.8550  146.2340 N   0  0  0  0  0  2  0  0  0  0  0  0
  190.1570  173.6670  143.8900 C   0  0  0  0  0  3  0  0  0  0  0  0
  189.6740  173.2250  145.0070 N   0  0  0  0  0  0  0  0  0  0  0  0
  189.8560  172.9680  142.6030 C   0  0  2  0  0  3  0  0  0  0  0  0
  190.9280  173.1470  141.5620 C   0  0  0  0  0  0  0  0  0  0  0  0
  191.5190  174.2570  141.4980 O   0  0  0  0  0  0  0  0  0  0  0  0
  191.2990  172.1160  140.6380 N   0  0  0  0  0  2  0  0  0  0  0  0
  190.7530  170.7690  140.6450 C   0  0  0  0  0  2  0  0  0  0  0  0
  190.4590  170.3260  139.2240 C   0  0  0  0  0  2  0  0  0  0  0  0
  189.4890  171.2880  138.5630 C   0  0  0  0  0  2  0  0  0  0  0  0
  189.9410  171.6020  137.1490 C   0  0  0  0  0  1  0  0  0  0  0  0
  187.5850  172.4190  142.0440 O   0  0  0  0  0  0  0  0  0  0  0  0
  188.4950  173.2900  142.0710 C   0  0  0  0  0  0  0  0  0  0  0  0
  188.2160  174.6100  141.6190 N   0  0  0  0  0  1  0  0  0  0  0  0
  1 38  1  6  0  0  0
  1 11  1  0  0  0  0
  3  4  1  0  0  0  0
  4  8  2  0  0  0  0
  5  7  2  0  0  0  0
  6 11  1  0  0  0  0
  7 10  1  0  0  0  0
  8  1  1  0  0  0  0
  9  5  1  0  0  0  0
  9  3  2  0  0  0  0
 10  8  1  0  0  0  0
 10  6  1  0  0  0  0
 11  2  1  1  0  0  0
 12 13  1  0  0  0  0
 13  3  1  0  0  0  0
 13 15  2  0  0  0  0
 14 16  2  0  0  0  0
 15 22  1  0  0  0  0
 16 15  1  0  0  0  0
 17 12  2  0  0  0  0
 17 14  1  0  0  0  0
 18 19  1  0  0  0  0
 19 14  1  0  0  0  0
 19 20  1  0  0  0  0
 22 21  1  0  0  0  0
 23 24  2  0  0  0  0
 24  7  1  0  0  0  0
 25 23  1  0  0  0  0
 26 27  1  0  0  0  0
 26 25  1  0  0  0  0
 27 28  1  6  0  0  0
 27 29  1  0  0  0  0
 30 29  1  0  0  0  0
 30 32  1  0  0  0  0
 31 34  1  0  0  0  0
 32 35  1  0  0  0  0
 34 33  1  0  0  0  0
 35 31  1  0  0  0  0
 35 37  1  0  0  0  0
 36 32  2  0  0  0  0
 37 33  1  0  0  0  0
 39 38  1  0  0  0  0
 40 41  2  0  0  0  0
 41 39  1  0  0  0  0
 42 40  1  1  0  0  0
 43 42  1  0  0  0  0
 44 43  2  0  0  0  0
 45 46  1  0  0  0  0
 45 43  1  0  0  0  0
 47 46  1  0  0  0  0
 48 47  1  0  0  0  0
 49 48  1  0  0  0  0
 50 51  2  0  0  0  0
 51 42  1  0  0  0  0
 52 51  1  0  0  0  0
M  END
>  <MODEL>
1

>  <REMARK>
 VINA RESULT:      -6.7      0.000      0.000
  Name = 
  19 active torsions:
  status: ('A' for Active; 'I' for Inactive)
    1  A    between atoms: C_2  and  C_16
    2  A    between atoms: C_4  and  C_18
    3  A    between atoms: N_7  and  C_21
    4  A    between atoms: C_8  and  C_14
    5  A    between atoms: C_11  and  C_16
    6  A    between atoms: C_13  and  C_17
    7  A    between atoms: C_13  and  C_36
    8  A    between atoms: C_16  and  C_35
    9  A    between atoms: C_17  and  O_46
   10  A    between atoms: C_18  and  N_42
   11  A    between atoms: C_20  and  O_43
   12  A    between atoms: C_24  and  C_40
   13  A    between atoms: N_26  and  N_42
   14  A    between atoms: C_28  and  C_34
   15  A    between atoms: C_28  and  C_51
   16  A    between atoms: C_31  and  C_41
   17  A    between atoms: C_36  and  O_43
   18  A    between atoms: N_38  and  O_46
   19  A    between atoms: N_47  and  C_51
                            x       y       z     vdW  Elec       q    Type
                         _______ _______ _______ _____ _____    ______ ____

>  <TORSDO>
F 19

$$$$
=
 OpenBabel11042415593D

 52 55  0  0  1  0  0  0  0  0999 V2000
  188.6950  176.9230  146.5740 C   0  0  2  0  0  3  0  0  0  0  0  0
  190.4240  178.0840  147.8300 N   0  0  0  0  0  1  0  0  0  0  0  0
  187.3050  177.8560  143.0900 C   0  0  0  0  0  0  0  0  0  0  0  0
  187.5500  177.4710  144.4860 C   0  0  0  0  0  3  0  0  0  0  0  0
  189.6910  177.7390  142.2420 C   0  0  0  0  0  3  0  0  0  0  0  0
  190.9500  177.1900  145.6820 N   0  0  0  0  0  2  0  0  0  0  0  0
  190.4780  177.4880  143.2910 C   0  0  0  0  0  0  0  0  0  0  0  0
  188.6880  177.2310  145.1340 C   0  0  0  0  0  0  0  0  0  0  0  0
  188.2450  177.9370  142.1510 C   0  0  0  0  0  3  0  0  0  0  0  0
  190.0130  177.3560  144.6480 N   0  0  0  0  0  0  0  0  0  0  0  0
  190.1790  176.9830  146.9140 C   0  0  2  0  0  3  0  0  0  0  0  0
  184.9490  178.3220  143.7120 C   0  0  0  0  0  3  0  0  0  0  0  0
  185.8890  178.0850  142.6970 C   0  0  0  0  0  0  0  0  0  0  0  0
  183.1640  178.5250  142.0850 C   0  0  0  0  0  0  0  0  0  0  0  0
  185.4470  178.0870  141.3500 C   0  0  0  0  0  0  0  0  0  0  0  0
  184.0940  178.3030  141.0620 C   0  0  0  0  0  3  0  0  0  0  0  0
  183.6050  178.5390  143.4120 C   0  0  0  0  0  3  0  0  0  0  0  0
  181.1840  178.2700  140.5450 C   0  0  0  0  0  1  0  0  0  0  0  0
  181.7770  178.7440  141.7850 N   0  0  0  0  0  0  0  0  0  0  0  0
  180.9860  179.3990  142.6670 O   0  0  0  0  0  1  0  0  0  0  0  0
  185.9000  176.8840  139.3660 O   0  0  0  0  0  1  0  0  0  0  0  0
  186.3790  177.8960  140.1980 C   0  0  0  0  0  2  0  0  0  0  0  0
  192.4350  176.3600  142.4050 N   0  0  0  0  0  0  0  0  0  0  0  0
  191.9290  177.3650  143.0440 C   0  0  0  0  0  3  0  0  0  0  0  0
  193.7920  176.2860  142.2020 O   0  0  0  0  0  0  0  0  0  0  0  0
  194.3010  175.5980  141.0700 C   0  0  0  0  0  2  0  0  0  0  0  0
  195.7950  175.8480  140.9180 C   0  0  1  0  0  3  0  0  0  0  0  0
  196.1190  177.1170  141.4030 O   0  0  0  0  0  1  0  0  0  0  0  0
  196.6180  174.7950  141.6480 C   0  0  0  0  0  2  0  0  0  0  0  0
  196.9270  175.2290  142.9670 O   0  0  0  0  0  0  0  0  0  0  0  0
  195.3790  176.9430  144.7420 C   0  0  0  0  0  2  0  0  0  0  0  0
  196.3090  174.6820  144.0950 C   0  0  0  0  0  0  0  0  0  0  0  0
  194.1240  176.2370  146.7080 C   0  0  0  0  0  2  0  0  0  0  0  0
  194.6310  177.4610  145.9570 C   0  0  0  0  0  2  0  0  0  0  0  0
  195.5530  175.5250  144.9690 N   0  0  0  0  0  0  0  0  0  0  0  0
  196.4080  173.4490  144.3430 O   0  0  0  0  0  0  0  0  0  0  0  0
  194.8990  175.0490  146.1690 C   0  0  0  0  0  2  0  0  0  0  0  0
  188.1860  175.5120  146.8350 C   0  0  0  0  0  2  0  0  0  0  0  0
  189.2710  174.5500  146.6820 N   0  0  0  0  0  2  0  0  0  0  0  0
  190.8890  173.7600  145.1530 C   0  0  0  0  0  3  0  0  0  0  0  0
  189.6540  174.0260  145.4370 N   0  0  0  0  0  0  0  0  0  0  0  0
  191.2560  173.2020  143.8150 C   0  0  2  0  0  3  0  0  0  0  0  0
  190.2610  172.2010  143.2920 C   0  0  0  0  0  0  0  0  0  0  0  0
  189.7980  171.3450  144.0910 O   0  0  0  0  0  0  0  0  0  0  0  0
  189.8240  172.1750  141.9270 N   0  0  0  0  0  2  0  0  0  0  0  0
  190.2190  173.1430  140.9180 C   0  0  0  0  0  2  0  0  0  0  0  0
  189.3490  174.3810  141.0240 C   0  0  0  0  0  2  0  0  0  0  0  0
  188.3500  174.4220  139.8820 C   0  0  0  0  0  2  0  0  0  0  0  0
  188.9680  173.8470  138.6210 C   0  0  0  0  0  1  0  0  0  0  0  0
  193.3150  172.6780  142.6940 O   0  0  0  0  0  0  0  0  0  0  0  0
  192.6580  172.6790  143.7690 C   0  0  0  0  0  0  0  0  0  0  0  0
  193.2660  172.2040  144.9640 N   0  0  0  0  0  1  0  0  0  0  0  0
  1 38  1  6  0  0  0
  1 11  1  0  0  0  0
  3  4  1  0  0  0  0
  4  8  2  0  0  0  0
  5  7  2  0  0  0  0
  6 11  1  0  0  0  0
  7 10  1  0  0  0  0
  8  1  1  0  0  0  0
  9  5  1  0  0  0  0
  9  3  2  0  0  0  0
 10  8  1  0  0  0  0
 10  6  1  0  0  0  0
 11  2  1  1  0  0  0
 13  3  1  0  0  0  0
 13 12  2  0  0  0  0
 14 17  2  0  0  0  0
 15 13  1  0  0  0  0
 16 15  2  0  0  0  0
 16 14  1  0  0  0  0
 17 12  1  0  0  0  0
 18 19  1  0  0  0  0
 19 14  1  0  0  0  0
 19 20  1  0  0  0  0
 21 22  1  0  0  0  0
 22 15  1  0  0  0  0
 23 24  2  0  0  0  0
 24  7  1  0  0  0  0
 25 23  1  0  0  0  0
 26 25  1  0  0  0  0
 27 26  1  0  0  0  0
 27 28  1  1  0  0  0
 27 29  1  0  0  0  0
 29 30  1  0  0  0  0
 30 32  1  0  0  0  0
 31 35  1  0  0  0  0
 31 34  1  0  0  0  0
 32 36  2  0  0  0  0
 32 35  1  0  0  0  0
 34 33  1  0  0  0  0
 35 37  1  0  0  0  0
 37 33  1  0  0  0  0
 39 38  1  0  0  0  0
 40 41  2  0  0  0  0
 41 39  1  0  0  0  0
 42 40  1  1  0  0  0
 43 42  1  0  0  0  0
 43 44  2  0  0  0  0
 45 43  1  0  0  0  0
 46 47  1  0  0  0  0
 46 45  1  0  0  0  0
 48 47  1  0  0  0  0
 49 48  1  0  0  0  0
 50 51  2  0  0  0  0
 51 42  1  0  0  0  0
 51 52  1  0  0  0  0
M  END
>  <MODEL>
2

>  <REMARK>
 VINA RESULT:      -6.7      2.440      3.560
  Name = 
  19 active torsions:
  status: ('A' for Active; 'I' for Inactive)
    1  A    between atoms: C_2  and  C_16
    2  A    between atoms: C_4  and  C_18
    3  A    between atoms: N_7  and  C_21
    4  A    between atoms: C_8  and  C_14
    5  A    between atoms: C_11  and  C_16
    6  A    between atoms: C_13  and  C_17
    7  A    between atoms: C_13  and  C_36
    8  A    between atoms: C_16  and  C_35
    9  A    between atoms: C_17  and  O_46
   10  A    between atoms: C_18  and  N_42
   11  A    between atoms: C_20  and  O_43
   12  A    between atoms: C_24  and  C_40
   13  A    between atoms: N_26  and  N_42
   14  A    between atoms: C_28  and  C_34
   15  A    between atoms: C_28  and  C_51
   16  A    between atoms: C_31  and  C_41
   17  A    between atoms: C_36  and  O_43
   18  A    between atoms: N_38  and  O_46
   19  A    between atoms: N_47  and  C_51
                            x       y       z     vdW  Elec       q    Type
                         _______ _______ _______ _____ _____    ______ ____

>  <TORSDO>
F 19

$$$$
=
 OpenBabel11042415593D

 52 55  0  0  1  0  0  0  0  0999 V2000
  189.1820  174.3220  142.0590 C   0  0  2  0  0  3  0  0  0  0  0  0
  188.0700  176.2740  141.1280 N   0  0  0  0  0  1  0  0  0  0  0  0
  191.8990  174.2650  144.8090 C   0  0  0  0  0  0  0  0  0  0  0  0
  191.0450  174.0990  143.6240 C   0  0  0  0  0  3  0  0  0  0  0  0
  190.2670  175.5340  146.2760 C   0  0  0  0  0  3  0  0  0  0  0  0
  187.8750  175.8300  143.4630 N   0  0  0  0  0  2  0  0  0  0  0  0
  189.1810  175.7870  145.5420 C   0  0  0  0  0  0  0  0  0  0  0  0
  189.8240  174.5610  143.3630 C   0  0  0  0  0  0  0  0  0  0  0  0
  191.5220  174.8650  145.9350 C   0  0  0  0  0  3  0  0  0  0  0  0
  189.0260  175.4210  144.1580 N   0  0  0  0  0  0  0  0  0  0  0  0
  187.9570  175.2260  142.1270 C   0  0  2  0  0  3  0  0  0  0  0  0
  193.3510  172.2690  145.0580 C   0  0  0  0  0  3  0  0  0  0  0  0
  193.2450  173.6360  144.7560 C   0  0  0  0  0  0  0  0  0  0  0  0
  195.7490  172.3220  144.7030 C   0  0  0  0  0  0  0  0  0  0  0  0
  194.4220  174.3450  144.4050 C   0  0  0  0  0  0  0  0  0  0  0  0
  195.6540  173.6830  144.3860 C   0  0  0  0  0  3  0  0  0  0  0  0
  194.5850  171.6200  145.0320 C   0  0  0  0  0  3  0  0  0  0  0  0
  197.3380  170.6090  145.6490 C   0  0  0  0  0  1  0  0  0  0  0  0
  197.0160  171.6470  144.6830 N   0  0  0  0  0  0  0  0  0  0  0  0
  197.9410  171.9660  143.7490 O   0  0  0  0  0  1  0  0  0  0  0  0
  195.6790  176.3330  144.1660 O   0  0  0  0  0  1  0  0  0  0  0  0
  194.4040  175.7890  144.0180 C   0  0  0  0  0  2  0  0  0  0  0  0
  187.2990  175.9600  147.0640 N   0  0  0  0  0  0  0  0  0  0  0  0
  188.0730  176.5180  146.1900 C   0  0  0  0  0  3  0  0  0  0  0  0
  186.2780  176.6780  147.6380 O   0  0  0  0  0  0  0  0  0  0  0  0
  186.4450  178.0650  147.8910 C   0  0  0  0  0  2  0  0  0  0  0  0
  185.3290  178.8670  147.2360 C   0  0  1  0  0  3  0  0  0  0  0  0
  185.8420  180.0530  146.7070 O   0  0  0  0  0  1  0  0  0  0  0  0
  184.6360  178.0720  146.1370 C   0  0  0  0  0  2  0  0  0  0  0  0
  184.4330  178.8850  144.9870 O   0  0  0  0  0  0  0  0  0  0  0  0
  182.9650  178.4850  142.5040 C   0  0  0  0  0  2  0  0  0  0  0  0
  185.1310  178.6740  143.7940 C   0  0  0  0  0  0  0  0  0  0  0  0
  183.9240  178.1990  140.2820 C   0  0  0  0  0  2  0  0  0  0  0  0
  182.6250  178.1090  141.0730 C   0  0  0  0  0  2  0  0  0  0  0  0
  184.4090  178.4730  142.5760 N   0  0  0  0  0  0  0  0  0  0  0  0
  186.3930  178.6670  143.7850 O   0  0  0  0  0  0  0  0  0  0  0  0
  185.0480  178.2260  141.3010 C   0  0  0  0  0  2  0  0  0  0  0  0
  188.7220  172.8770  141.9310 C   0  0  0  0  0  2  0  0  0  0  0  0
  188.0380  172.6780  140.6590 N   0  0  0  0  0  2  0  0  0  0  0  0
  188.3080  173.3050  138.3980 C   0  0  0  0  0  3  0  0  0  0  0  0
  188.7140  172.6360  139.4290 N   0  0  0  0  0  0  0  0  0  0  0  0
  189.0560  173.2340  137.1040 C   0  0  2  0  0  3  0  0  0  0  0  0
  190.5120  172.8940  137.2750 C   0  0  0  0  0  0  0  0  0  0  0  0
  191.2850  173.7860  137.7130 O   0  0  0  0  0  0  0  0  0  0  0  0
  191.0560  171.6080  136.9550 N   0  0  0  0  0  2  0  0  0  0  0  0
  190.2700  170.4690  136.5110 C   0  0  0  0  0  2  0  0  0  0  0  0
  189.8940  169.6080  137.7020 C   0  0  0  0  0  2  0  0  0  0  0  0
  191.1110  169.3530  138.5730 C   0  0  0  0  0  2  0  0  0  0  0  0
  190.8060  169.7020  140.0180 C   0  0  0  0  0  1  0  0  0  0  0  0
  188.0900  175.3770  136.6140 O   0  0  0  0  0  0  0  0  0  0  0  0
  188.8560  174.4470  136.2500 C   0  0  0  0  0  0  0  0  0  0  0  0
  189.5680  174.5630  135.0240 N   0  0  0  0  0  1  0  0  0  0  0  0
  1 38  1  1  0  0  0
  1 11  1  0  0  0  0
  1  8  1  0  0  0  0
  3  9  2  0  0  0  0
  4  3  1  0  0  0  0
  6 10  1  0  0  0  0
  7 24  1  0  0  0  0
  7  5  2  0  0  0  0
  8  4  2  0  0  0  0
  8 10  1  0  0  0  0
  9  5  1  0  0  0  0
 10  7  1  0  0  0  0
 11  2  1  6  0  0  0
 11  6  1  0  0  0  0
 13  3  1  0  0  0  0
 13 12  2  0  0  0  0
 14 17  2  0  0  0  0
 15 13  1  0  0  0  0
 16 15  2  0  0  0  0
 16 14  1  0  0  0  0
 17 12  1  0  0  0  0
 19 14  1  0  0  0  0
 19 18  1  0  0  0  0
 20 19  1  0  0  0  0
 22 21  1  0  0  0  0
 22 15  1  0  0  0  0
 23 25  1  0  0  0  0
 24 23  2  0  0  0  0
 25 26  1  0  0  0  0
 27 28  1  6  0  0  0
 27 26  1  0  0  0  0
 29 27  1  0  0  0  0
 30 29  1  0  0  0  0
 31 35  1  0  0  0  0
 32 30  1  0  0  0  0
 33 34  1  0  0  0  0
 33 37  1  0  0  0  0
 34 31  1  0  0  0  0
 35 32  1  0  0  0  0
 36 32  2  0  0  0  0
 37 35  1  0  0  0  0
 39 38  1  0  0  0  0
 40 41  2  0  0  0  0
 41 39  1  0  0  0  0
 42 43  1  0  0  0  0
 42 40  1  1  0  0  0
 43 44  2  0  0  0  0
 45 43  1  0  0  0  0
 46 45  1  0  0  0  0
 46 47  1  0  0  0  0
 47 48  1  0  0  0  0
 48 49  1  0  0  0  0
 51 50  2  0  0  0  0
 51 42  1  0  0  0  0
 52 51  1  0  0  0  0
M  END
>  <MODEL>
3

>  <REMARK>
 VINA RESULT:      -6.5      2.434      9.707
  Name = 
  19 active torsions:
  status: ('A' for Active; 'I' for Inactive)
    1  A    between atoms: C_2  and  C_16
    2  A    between atoms: C_4  and  C_18
    3  A    between atoms: N_7  and  C_21
    4  A    between atoms: C_8  and  C_14
    5  A    between atoms: C_11  and  C_16
    6  A    between atoms: C_13  and  C_17
    7  A    between atoms: C_13  and  C_36
    8  A    between atoms: C_16  and  C_35
    9  A    between atoms: C_17  and  O_46
   10  A    between atoms: C_18  and  N_42
   11  A    between atoms: C_20  and  O_43
   12  A    between atoms: C_24  and  C_40
   13  A    between atoms: N_26  and  N_42
   14  A    between atoms: C_28  and  C_34
   15  A    between atoms: C_28  and  C_51
   16  A    between atoms: C_31  and  C_41
   17  A    between atoms: C_36  and  O_43
   18  A    between atoms: N_38  and  O_46
   19  A    between atoms: N_47  and  C_51
                            x       y       z     vdW  Elec       q    Type
                         _______ _______ _______ _____ _____    ______ ____

>  <TORSDO>
F 19

$$$$
=
 OpenBabel11042415593D

 52 55  0  0  1  0  0  0  0  0999 V2000
  195.2010  175.8860  144.6590 C   0  0  2  0  0  3  0  0  0  0  0  0
  196.9570  176.9600  143.3640 N   0  0  0  0  0  1  0  0  0  0  0  0
  191.4280  175.7520  143.8300 C   0  0  0  0  0  0  0  0  0  0  0  0
  192.7700  175.8750  144.4150 C   0  0  0  0  0  3  0  0  0  0  0  0
  192.0780  174.7290  141.6040 C   0  0  0  0  0  3  0  0  0  0  0  0
  195.6700  175.2210  142.3590 N   0  0  0  0  0  2  0  0  0  0  0  0
  193.4110  174.7040  141.5490 C   0  0  0  0  0  0  0  0  0  0  0  0
  193.9690  175.6190  143.8970 C   0  0  0  0  0  0  0  0  0  0  0  0
  191.1690  175.2340  142.6320 C   0  0  0  0  0  3  0  0  0  0  0  0
  194.2820  175.2140  142.5760 N   0  0  0  0  0  0  0  0  0  0  0  0
  196.2850  175.6950  143.6050 C   0  0  2  0  0  3  0  0  0  0  0  0
  190.0700  175.4660  145.8870 C   0  0  0  0  0  3  0  0  0  0  0  0
  190.2840  176.1630  144.6870 C   0  0  0  0  0  0  0  0  0  0  0  0
  188.1390  176.8390  146.4020 C   0  0  0  0  0  0  0  0  0  0  0  0
  189.4100  177.2300  144.3580 C   0  0  0  0  0  0  0  0  0  0  0  0
  188.3510  177.5510  145.2150 C   0  0  0  0  0  3  0  0  0  0  0  0
  189.0130  175.7980  146.7330 C   0  0  0  0  0  3  0  0  0  0  0  0
  186.7670  178.5480  147.6470 C   0  0  0  0  0  1  0  0  0  0  0  0
  187.0500  177.1710  147.2770 N   0  0  0  0  0  0  0  0  0  0  0  0
  186.2540  176.1940  147.7710 O   0  0  0  0  0  1  0  0  0  0  0  0
  188.5260  177.8430  142.2530 O   0  0  0  0  0  1  0  0  0  0  0  0
  189.5870  178.0640  143.1310 C   0  0  0  0  0  2  0  0  0  0  0  0
  193.9070  174.6900  139.1730 N   0  0  0  0  0  0  0  0  0  0  0  0
  194.0350  174.1360  140.3360 C   0  0  0  0  0  3  0  0  0  0  0  0
  194.5010  174.1230  138.0720 O   0  0  0  0  0  0  0  0  0  0  0  0
  193.8680  174.2060  136.8040 C   0  0  0  0  0  2  0  0  0  0  0  0
  192.5090  174.8810  136.9260 C   0  0  1  0  0  3  0  0  0  0  0  0
  192.4200  175.9420  136.0230 O   0  0  0  0  0  1  0  0  0  0  0  0
  191.3710  173.8990  136.6790 C   0  0  0  0  0  2  0  0  0  0  0  0
  190.4130  173.9730  137.7280 O   0  0  0  0  0  0  0  0  0  0  0  0
  188.6360  174.4000  139.9960 C   0  0  0  0  0  2  0  0  0  0  0  0
  190.3610  173.0270  138.7570 C   0  0  0  0  0  0  0  0  0  0  0  0
  188.2770  172.8750  141.8630 C   0  0  0  0  0  2  0  0  0  0  0  0
  187.9940  174.2880  141.3670 C   0  0  0  0  0  2  0  0  0  0  0  0
  189.4910  173.2400  139.8730 N   0  0  0  0  0  0  0  0  0  0  0  0
  191.0700  171.9850  138.7030 O   0  0  0  0  0  0  0  0  0  0  0  0
  189.3900  172.3270  140.9900 C   0  0  0  0  0  2  0  0  0  0  0  0
  195.3980  174.8550  145.7610 C   0  0  0  0  0  2  0  0  0  0  0  0
  196.7690  174.3600  145.7480 N   0  0  0  0  0  2  0  0  0  0  0  0
  196.1800  172.0760  145.6310 C   0  0  0  0  0  3  0  0  0  0  0  0
  197.0880  172.9980  145.6230 N   0  0  0  0  0  0  0  0  0  0  0  0
  196.5600  170.6350  145.4960 C   0  0  2  0  0  3  0  0  0  0  0  0
  196.3870  170.1020  144.0990 C   0  0  0  0  0  0  0  0  0  0  0  0
  197.0490  169.0850  143.7620 O   0  0  0  0  0  0  0  0  0  0  0  0
  195.5110  170.7020  143.1380 N   0  0  0  0  0  2  0  0  0  0  0  0
  194.6370  171.8300  143.4110 C   0  0  0  0  0  2  0  0  0  0  0  0
  193.1970  171.3590  143.4870 C   0  0  0  0  0  2  0  0  0  0  0  0
  192.4390  172.1510  144.5370 C   0  0  0  0  0  2  0  0  0  0  0  0
  190.9430  171.9940  144.3360 C   0  0  0  0  0  1  0  0  0  0  0  0
  196.5420  169.3390  147.5170 O   0  0  0  0  0  0  0  0  0  0  0  0
  195.9030  169.7620  146.5180 C   0  0  0  0  0  0  0  0  0  0  0  0
  194.5270  169.4320  146.3730 N   0  0  0  0  0  1  0  0  0  0  0  0
  1 38  1  1  0  0  0
  3  4  1  0  0  0  0
  3 13  1  0  0  0  0
  5  9  1  0  0  0  0
  6 10  1  0  0  0  0
  6 11  1  0  0  0  0
  7  5  2  0  0  0  0
  7 10  1  0  0  0  0
  8  4  2  0  0  0  0
  8  1  1  0  0  0  0
  9  3  2  0  0  0  0
 10  8  1  0  0  0  0
 11  2  1  6  0  0  0
 11  1  1  0  0  0  0
 12 17  1  0  0  0  0
 13 12  2  0  0  0  0
 14 17  2  0  0  0  0
 14 19  1  0  0  0  0
 15 13  1  0  0  0  0
 15 16  2  0  0  0  0
 16 14  1  0  0  0  0
 19 18  1  0  0  0  0
 19 20  1  0  0  0  0
 21 22  1  0  0  0  0
 22 15  1  0  0  0  0
 23 24  2  0  0  0  0
 24  7  1  0  0  0  0
 25 23  1  0  0  0  0
 26 27  1  0  0  0  0
 26 25  1  0  0  0  0
 27 28  1  6  0  0  0
 29 27  1  0  0  0  0
 29 30  1  0  0  0  0
 30 32  1  0  0  0  0
 31 34  1  0  0  0  0
 32 35  1  0  0  0  0
 34 33  1  0  0  0  0
 35 31  1  0  0  0  0
 35 37  1  0  0  0  0
 36 32  2  0  0  0  0
 37 33  1  0  0  0  0
 39 38  1  0  0  0  0
 41 40  2  0  0  0  0
 41 39  1  0  0  0  0
 42 40  1  6  0  0  0
 42 51  1  0  0  0  0
 43 42  1  0  0  0  0
 44 43  2  0  0  0  0
 45 46  1  0  0  0  0
 45 43  1  0  0  0  0
 46 47  1  0  0  0  0
 47 48  1  0  0  0  0
 49 48  1  0  0  0  0
 51 50  2  0  0  0  0
 52 51  1  0  0  0  0
M  END
>  <MODEL>
4

>  <REMARK>
 VINA RESULT:      -6.4      3.268      6.946
  Name = 
  19 active torsions:
  status: ('A' for Active; 'I' for Inactive)
    1  A    between atoms: C_2  and  C_16
    2  A    between atoms: C_4  and  C_18
    3  A    between atoms: N_7  and  C_21
    4  A    between atoms: C_8  and  C_14
    5  A    between atoms: C_11  and  C_16
    6  A    between atoms: C_13  and  C_17
    7  A    between atoms: C_13  and  C_36
    8  A    between atoms: C_16  and  C_35
    9  A    between atoms: C_17  and  O_46
   10  A    between atoms: C_18  and  N_42
   11  A    between atoms: C_20  and  O_43
   12  A    between atoms: C_24  and  C_40
   13  A    between atoms: N_26  and  N_42
   14  A    between atoms: C_28  and  C_34
   15  A    between atoms: C_28  and  C_51
   16  A    between atoms: C_31  and  C_41
   17  A    between atoms: C_36  and  O_43
   18  A    between atoms: N_38  and  O_46
   19  A    between atoms: N_47  and  C_51
                            x       y       z     vdW  Elec       q    Type
                         _______ _______ _______ _____ _____    ______ ____

>  <TORSDO>
F 19

$$$$
=
 OpenBabel11042415593D

 52 55  0  0  1  0  0  0  0  0999 V2000
  189.1100  172.3070  142.0740 C   0  0  2  0  0  3  0  0  0  0  0  0
  190.6410  170.4210  142.1840 N   0  0  0  0  0  1  0  0  0  0  0  0
  189.4960  175.7400  143.8080 C   0  0  0  0  0  0  0  0  0  0  0  0
  189.0740  174.4480  143.2510 C   0  0  0  0  0  3  0  0  0  0  0  0
  191.7380  175.9400  142.6410 C   0  0  0  0  0  3  0  0  0  0  0  0
  191.4190  172.4990  141.3100 N   0  0  0  0  0  2  0  0  0  0  0  0
  191.9440  174.8040  141.9720 C   0  0  0  0  0  0  0  0  0  0  0  0
  189.7150  173.5950  142.4550 C   0  0  0  0  0  0  0  0  0  0  0  0
  190.6350  176.3600  143.5050 C   0  0  0  0  0  3  0  0  0  0  0  0
  191.0450  173.6790  141.9740 N   0  0  0  0  0  0  0  0  0  0  0  0
  190.2730  171.5870  141.4010 C   0  0  2  0  0  3  0  0  0  0  0  0
  187.7500  177.4650  144.1710 C   0  0  0  0  0  3  0  0  0  0  0  0
  188.5320  176.4290  144.7070 C   0  0  0  0  0  0  0  0  0  0  0  0
  186.6680  177.8260  146.3100 C   0  0  0  0  0  0  0  0  0  0  0  0
  188.3560  176.0830  146.0700 C   0  0  0  0  0  0  0  0  0  0  0  0
  187.4320  176.7850  146.8530 C   0  0  0  0  0  3  0  0  0  0  0  0
  186.8300  178.1540  144.9610 C   0  0  0  0  0  3  0  0  0  0  0  0
  186.1490  179.5770  148.0470 C   0  0  0  0  0  1  0  0  0  0  0  0
  185.7230  178.5440  147.1180 N   0  0  0  0  0  0  0  0  0  0  0  0
  184.4010  178.2720  147.0200 O   0  0  0  0  0  1  0  0  0  0  0  0
  190.2570  175.4550  147.3270 O   0  0  0  0  0  1  0  0  0  0  0  0
  189.1040  174.9630  146.7170 C   0  0  0  0  0  2  0  0  0  0  0  0
  194.0900  175.6200  141.1860 N   0  0  0  0  0  0  0  0  0  0  0  0
  193.1960  174.6850  141.1970 C   0  0  0  0  0  3  0  0  0  0  0  0
  195.2380  175.4660  140.4470 O   0  0  0  0  0  0  0  0  0  0  0  0
  195.6970  174.1650  140.1150 C   0  0  0  0  0  2  0  0  0  0  0  0
  196.6800  173.6600  141.1620 C   0  0  1  0  0  3  0  0  0  0  0  0
  197.5350  172.7130  140.5950 O   0  0  0  0  0  1  0  0  0  0  0  0
  197.4970  174.7970  141.7600 C   0  0  0  0  0  2  0  0  0  0  0  0
  197.2470  174.9100  143.1560 O   0  0  0  0  0  0  0  0  0  0  0  0
  194.9090  174.3370  144.7950 C   0  0  0  0  0  2  0  0  0  0  0  0
  196.5030  175.9630  143.6960 C   0  0  0  0  0  0  0  0  0  0  0  0
  193.5020  175.9680  145.9350 C   0  0  0  0  0  2  0  0  0  0  0  0
  193.6020  174.4970  145.5510 C   0  0  0  0  0  2  0  0  0  0  0  0
  195.3520  175.6810  144.4970 N   0  0  0  0  0  0  0  0  0  0  0  0
  196.8450  177.1590  143.4880 O   0  0  0  0  0  0  0  0  0  0  0  0
  194.5120  176.7070  145.0770 C   0  0  0  0  0  2  0  0  0  0  0  0
  187.9960  172.5050  141.0560 C   0  0  0  0  0  2  0  0  0  0  0  0
  188.3720  173.5320  140.0920 N   0  0  0  0  0  2  0  0  0  0  0  0
  189.9470  173.8830  138.3670 C   0  0  0  0  0  3  0  0  0  0  0  0
  188.9320  173.2330  138.8390 N   0  0  0  0  0  0  0  0  0  0  0  0
  190.5140  173.5340  137.0270 C   0  0  2  0  0  3  0  0  0  0  0  0
  191.9360  173.9910  136.8440 C   0  0  0  0  0  0  0  0  0  0  0  0
  192.1400  175.0920  136.2690 O   0  0  0  0  0  0  0  0  0  0  0  0
  193.0640  173.2270  137.2880 N   0  0  0  0  0  2  0  0  0  0  0  0
  192.9740  171.9790  138.0270 C   0  0  0  0  0  2  0  0  0  0  0  0
  194.0490  171.0210  137.5510 C   0  0  0  0  0  2  0  0  0  0  0  0
  194.3260  169.9710  138.6110 C   0  0  0  0  0  2  0  0  0  0  0  0
  194.5220  170.6280  139.9650 C   0  0  0  0  0  1  0  0  0  0  0  0
  188.8960  174.9790  135.9950 O   0  0  0  0  0  0  0  0  0  0  0  0
  189.6340  173.9640  135.8950 C   0  0  0  0  0  0  0  0  0  0  0  0
  189.6570  173.2310  134.6760 N   0  0  0  0  0  1  0  0  0  0  0  0
  1 38  1  6  0  0  0
  1  8  1  0  0  0  0
  3 13  1  0  0  0  0
  4  3  1  0  0  0  0
  5  9  1  0  0  0  0
  6 11  1  0  0  0  0
  6 10  1  0  0  0  0
  7 10  1  0  0  0  0
  7  5  2  0  0  0  0
  8  4  2  0  0  0  0
  9  3  2  0  0  0  0
 10  8  1  0  0  0  0
 11  1  1  0  0  0  0
 11  2  1  1  0  0  0
 12 13  2  0  0  0  0
 12 17  1  0  0  0  0
 13 15  1  0  0  0  0
 14 16  1  0  0  0  0
 14 19  1  0  0  0  0
 15 22  1  0  0  0  0
 15 16  2  0  0  0  0
 17 14  2  0  0  0  0
 19 18  1  0  0  0  0
 20 19  1  0  0  0  0
 22 21  1  0  0  0  0
 23 24  2  0  0  0  0
 24  7  1  0  0  0  0
 25 23  1  0  0  0  0
 26 25  1  0  0  0  0
 26 27  1  0  0  0  0
 27 28  1  6  0  0  0
 27 29  1  0  0  0  0
 29 30  1  0  0  0  0
 30 32  1  0  0  0  0
 31 34  1  0  0  0  0
 32 35  1  0  0  0  0
 34 33  1  0  0  0  0
 35 31  1  0  0  0  0
 35 37  1  0  0  0  0
 36 32  2  0  0  0  0
 37 33  1  0  0  0  0
 39 38  1  0  0  0  0
 40 41  2  0  0  0  0
 41 39  1  0  0  0  0
 42 40  1  1  0  0  0
 43 42  1  0  0  0  0
 43 45  1  0  0  0  0
 44 43  2  0  0  0  0
 45 46  1  0  0  0  0
 47 46  1  0  0  0  0
 47 48  1  0  0  0  0
 48 49  1  0  0  0  0
 51 50  2  0  0  0  0
 51 42  1  0  0  0  0
 52 51  1  0  0  0  0
M  END
>  <MODEL>
5

>  <REMARK>
 VINA RESULT:      -6.3      3.459      5.257
  Name = 
  19 active torsions:
  status: ('A' for Active; 'I' for Inactive)
    1  A    between atoms: C_2  and  C_16
    2  A    between atoms: C_4  and  C_18
    3  A    between atoms: N_7  and  C_21
    4  A    between atoms: C_8  and  C_14
    5  A    between atoms: C_11  and  C_16
    6  A    between atoms: C_13  and  C_17
    7  A    between atoms: C_13  and  C_36
    8  A    between atoms: C_16  and  C_35
    9  A    between atoms: C_17  and  O_46
   10  A    between atoms: C_18  and  N_42
   11  A    between atoms: C_20  and  O_43
   12  A    between atoms: C_24  and  C_40
   13  A    between atoms: N_26  and  N_42
   14  A    between atoms: C_28  and  C_34
   15  A    between atoms: C_28  and  C_51
   16  A    between atoms: C_31  and  C_41
   17  A    between atoms: C_36  and  O_43
   18  A    between atoms: N_38  and  O_46
   19  A    between atoms: N_47  and  C_51
                            x       y       z     vdW  Elec       q    Type
                         _______ _______ _______ _____ _____    ______ ____

>  <TORSDO>
F 19

$$$$
=
 OpenBabel11042415593D

 52 55  0  0  1  0  0  0  0  0999 V2000
  193.3110  175.2800  143.7270 C   0  0  2  0  0  3  0  0  0  0  0  0
  194.3050  175.2860  145.9460 N   0  0  0  0  0  1  0  0  0  0  0  0
  190.4830  172.9840  142.4340 C   0  0  0  0  0  0  0  0  0  0  0  0
  191.6900  173.7880  142.6700 C   0  0  0  0  0  3  0  0  0  0  0  0
  189.0850  173.8180  144.3760 C   0  0  0  0  0  3  0  0  0  0  0  0
  191.9700  175.7130  145.7180 N   0  0  0  0  0  2  0  0  0  0  0  0
  189.8540  174.6300  145.1040 C   0  0  0  0  0  0  0  0  0  0  0  0
  191.9930  174.6260  143.6600 C   0  0  0  0  0  0  0  0  0  0  0  0
  189.3780  173.0410  143.1720 C   0  0  0  0  0  3  0  0  0  0  0  0
  191.2360  174.9190  144.8210 N   0  0  0  0  0  0  0  0  0  0  0  0
  193.2930  175.9110  145.1140 C   0  0  2  0  0  3  0  0  0  0  0  0
  189.9030  172.6070  140.0510 C   0  0  0  0  0  3  0  0  0  0  0  0
  190.4870  172.1120  141.2290 C   0  0  0  0  0  0  0  0  0  0  0  0
  190.4180  170.5530  138.8710 C   0  0  0  0  0  0  0  0  0  0  0  0
  191.0590  170.8150  141.2080 C   0  0  0  0  0  0  0  0  0  0  0  0
  191.0160  170.0540  140.0350 C   0  0  0  0  0  3  0  0  0  0  0  0
  189.8690  171.8390  138.8880 C   0  0  0  0  0  3  0  0  0  0  0  0
  190.4340  170.3850  136.3560 C   0  0  0  0  0  1  0  0  0  0  0  0
  190.3740  169.7670  137.6700 N   0  0  0  0  0  0  0  0  0  0  0  0
  190.2820  168.4180  137.7430 O   0  0  0  0  0  1  0  0  0  0  0  0
  193.1240  170.4240  142.2910 O   0  0  0  0  0  1  0  0  0  0  0  0
  191.7480  170.2230  142.3950 C   0  0  0  0  0  2  0  0  0  0  0  0
  188.1390  175.9150  146.2430 N   0  0  0  0  0  0  0  0  0  0  0  0
  189.2500  175.2540  146.2990 C   0  0  0  0  0  3  0  0  0  0  0  0
  187.6170  176.4820  147.3810 O   0  0  0  0  0  0  0  0  0  0  0  0
  186.8580  177.6780  147.2920 C   0  0  0  0  0  2  0  0  0  0  0  0
  185.9420  177.6430  146.0770 C   0  0  1  0  0  3  0  0  0  0  0  0
  184.7740  176.9420  146.3800 O   0  0  0  0  0  1  0  0  0  0  0  0
  185.5890  179.0460  145.5990 C   0  0  0  0  0  2  0  0  0  0  0  0
  186.1610  179.2950  144.3200 O   0  0  0  0  0  0  0  0  0  0  0  0
  188.2950  177.6660  143.1920 C   0  0  0  0  0  2  0  0  0  0  0  0
  185.9000  178.4780  143.2160 C   0  0  0  0  0  0  0  0  0  0  0  0
  188.0920  176.0880  141.3460 C   0  0  0  0  0  2  0  0  0  0  0  0
  189.1000  176.8020  142.2390 C   0  0  0  0  0  2  0  0  0  0  0  0
  186.9500  177.6820  142.6600 N   0  0  0  0  0  0  0  0  0  0  0  0
  184.7440  178.4340  142.7130 O   0  0  0  0  0  0  0  0  0  0  0  0
  186.7770  176.8260  141.5060 C   0  0  0  0  0  2  0  0  0  0  0  0
  193.4300  176.3830  142.6840 C   0  0  0  0  0  2  0  0  0  0  0  0
  194.6880  176.2540  141.9580 N   0  0  0  0  0  2  0  0  0  0  0  0
  194.0030  175.0160  140.0670 C   0  0  0  0  0  3  0  0  0  0  0  0
  194.7510  175.9320  140.5930 N   0  0  0  0  0  0  0  0  0  0  0  0
  194.1010  174.7030  138.6070 C   0  0  2  0  0  3  0  0  0  0  0  0
  193.2570  173.5270  138.1920 C   0  0  0  0  0  0  0  0  0  0  0  0
  193.3830  172.4480  138.8270 O   0  0  0  0  0  0  0  0  0  0  0  0
  192.3260  173.5810  137.1040 N   0  0  0  0  0  2  0  0  0  0  0  0
  192.0270  174.7760  136.3340 C   0  0  0  0  0  2  0  0  0  0  0  0
  192.7020  174.6960  134.9770 C   0  0  0  0  0  2  0  0  0  0  0  0
  193.1170  176.0800  134.5130 C   0  0  0  0  0  2  0  0  0  0  0  0
  193.0590  177.0620  135.6680 C   0  0  0  0  0  1  0  0  0  0  0  0
  196.3680  173.9360  138.8020 O   0  0  0  0  0  0  0  0  0  0  0  0
  195.5150  174.5760  138.1340 C   0  0  0  0  0  0  0  0  0  0  0  0
  195.8910  175.1640  136.8940 N   0  0  0  0  0  1  0  0  0  0  0  0
  1 38  1  6  0  0  0
  1 11  1  0  0  0  0
  3  4  1  0  0  0  0
  3  9  2  0  0  0  0
  4  8  2  0  0  0  0
  5  7  2  0  0  0  0
  7 24  1  0  0  0  0
  8  1  1  0  0  0  0
  8 10  1  0  0  0  0
  9  5  1  0  0  0  0
 10  7  1  0  0  0  0
 10  6  1  0  0  0  0
 11  6  1  0  0  0  0
 11  2  1  1  0  0  0
 12 13  1  0  0  0  0
 13  3  1  0  0  0  0
 14 17  1  0  0  0  0
 14 16  2  0  0  0  0
 15 13  2  0  0  0  0
 15 22  1  0  0  0  0
 16 15  1  0  0  0  0
 17 12  2  0  0  0  0
 18 19  1  0  0  0  0
 19 20  1  0  0  0  0
 19 14  1  0  0  0  0
 21 22  1  0  0  0  0
 23 24  2  0  0  0  0
 23 25  1  0  0  0  0
 26 25  1  0  0  0  0
 27 28  1  1  0  0  0
 27 26  1  0  0  0  0
 29 27  1  0  0  0  0
 30 29  1  0  0  0  0
 32 30  1  0  0  0  0
 33 37  1  0  0  0  0
 33 34  1  0  0  0  0
 34 31  1  0  0  0  0
 35 31  1  0  0  0  0
 35 32  1  0  0  0  0
 36 32  2  0  0  0  0
 37 35  1  0  0  0  0
 39 38  1  0  0  0  0
 40 41  2  0  0  0  0
 41 39  1  0  0  0  0
 42 40  1  1  0  0  0
 43 42  1  0  0  0  0
 43 44  2  0  0  0  0
 45 43  1  0  0  0  0
 46 45  1  0  0  0  0
 47 46  1  0  0  0  0
 48 47  1  0  0  0  0
 48 49  1  0  0  0  0
 51 42  1  0  0  0  0
 51 50  2  0  0  0  0
 52 51  1  0  0  0  0
M  END
>  <MODEL>
6

>  <REMARK>
 VINA RESULT:      -6.2      3.077      8.632
  Name = 
  19 active torsions:
  status: ('A' for Active; 'I' for Inactive)
    1  A    between atoms: C_2  and  C_16
    2  A    between atoms: C_4  and  C_18
    3  A    between atoms: N_7  and  C_21
    4  A    between atoms: C_8  and  C_14
    5  A    between atoms: C_11  and  C_16
    6  A    between atoms: C_13  and  C_17
    7  A    between atoms: C_13  and  C_36
    8  A    between atoms: C_16  and  C_35
    9  A    between atoms: C_17  and  O_46
   10  A    between atoms: C_18  and  N_42
   11  A    between atoms: C_20  and  O_43
   12  A    between atoms: C_24  and  C_40
   13  A    between atoms: N_26  and  N_42
   14  A    between atoms: C_28  and  C_34
   15  A    between atoms: C_28  and  C_51
   16  A    between atoms: C_31  and  C_41
   17  A    between atoms: C_36  and  O_43
   18  A    between atoms: N_38  and  O_46
   19  A    between atoms: N_47  and  C_51
                            x       y       z     vdW  Elec       q    Type
                         _______ _______ _______ _____ _____    ______ ____

>  <TORSDO>
F 19

$$$$
=
 OpenBabel11042415593D

 52 55  0  0  1  0  0  0  0  0999 V2000
  190.0320  176.1030  147.4550 C   0  0  2  0  0  3  0  0  0  0  0  0
  191.5210  177.1940  149.0380 N   0  0  0  0  0  1  0  0  0  0  0  0
  189.0370  177.3500  143.9340 C   0  0  0  0  0  0  0  0  0  0  0  0
  189.1260  176.8260  145.3040 C   0  0  0  0  0  3  0  0  0  0  0  0
  191.5130  177.4310  143.3970 C   0  0  0  0  0  3  0  0  0  0  0  0
  192.3610  176.5650  146.8970 N   0  0  0  0  0  2  0  0  0  0  0  0
  192.1750  177.1010  144.5080 C   0  0  0  0  0  0  0  0  0  0  0  0
  190.1870  176.5670  146.0660 C   0  0  0  0  0  0  0  0  0  0  0  0
  190.0800  177.5740  143.1400 C   0  0  0  0  0  3  0  0  0  0  0  0
  191.5530  176.8010  145.7720 N   0  0  0  0  0  0  0  0  0  0  0  0
  191.4560  176.1910  147.9900 C   0  0  2  0  0  3  0  0  0  0  0  0
  187.0280  178.7790  143.6510 C   0  0  0  0  0  3  0  0  0  0  0  0
  187.6700  177.5590  143.3860 C   0  0  0  0  0  0  0  0  0  0  0  0
  185.0670  178.0770  142.4100 C   0  0  0  0  0  0  0  0  0  0  0  0
  186.9920  176.5930  142.6010 C   0  0  0  0  0  0  0  0  0  0  0  0
  185.7030  176.8620  142.1270 C   0  0  0  0  0  3  0  0  0  0  0  0
  185.7450  179.0360  143.1710 C   0  0  0  0  0  3  0  0  0  0  0  0
  183.4290  178.2840  140.5060 C   0  0  0  0  0  1  0  0  0  0  0  0
  183.7440  178.3480  141.9240 N   0  0  0  0  0  0  0  0  0  0  0  0
  182.7530  178.6650  142.7890 O   0  0  0  0  0  1  0  0  0  0  0  0
  187.9770  175.3110  140.8750 O   0  0  0  0  0  1  0  0  0  0  0  0
  187.6110  175.2870  142.2210 C   0  0  0  0  0  2  0  0  0  0  0  0
  194.3140  175.9580  144.4170 N   0  0  0  0  0  0  0  0  0  0  0  0
  193.6500  177.0690  144.4410 C   0  0  0  0  0  3  0  0  0  0  0  0
  195.6860  175.9780  144.3580 O   0  0  0  0  0  0  0  0  0  0  0  0
  196.4250  174.8070  144.6720 C   0  0  0  0  0  2  0  0  0  0  0  0
  197.6890  174.7290  143.8290 C   0  0  1  0  0  3  0  0  0  0  0  0
  197.8190  173.4510  143.2810 O   0  0  0  0  0  1  0  0  0  0  0  0
  197.6870  175.7670  142.7140 C   0  0  0  0  0  2  0  0  0  0  0  0
  197.1580  175.2100  141.5160 O   0  0  0  0  0  0  0  0  0  0  0  0
  195.3410  173.0570  140.7790 C   0  0  0  0  0  2  0  0  0  0  0  0
  195.8720  175.5140  141.0590 C   0  0  0  0  0  0  0  0  0  0  0  0
  193.0270  173.2980  140.0520 C   0  0  0  0  0  2  0  0  0  0  0  0
  194.1700  172.2990  140.1810 C   0  0  0  0  0  2  0  0  0  0  0  0
  194.9820  174.4550  140.6920 N   0  0  0  0  0  0  0  0  0  0  0  0
  195.4910  176.7130  140.9740 O   0  0  0  0  0  0  0  0  0  0  0  0
  193.6440  174.6780  140.1880 C   0  0  0  0  0  2  0  0  0  0  0  0
  189.5750  174.6520  147.5010 C   0  0  0  0  0  2  0  0  0  0  0  0
  189.3320  174.1590  146.1510 N   0  0  0  0  0  2  0  0  0  0  0  0
  190.3030  173.0480  144.3060 C   0  0  0  0  0  3  0  0  0  0  0  0
  190.0690  173.1100  145.5780 N   0  0  0  0  0  0  0  0  0  0  0  0
  191.0920  171.9130  143.7350 C   0  0  2  0  0  3  0  0  0  0  0  0
  192.5790  172.1440  143.7690 C   0  0  0  0  0  0  0  0  0  0  0  0
  193.0160  173.2770  143.4380 O   0  0  0  0  0  0  0  0  0  0  0  0
  193.5170  171.1310  144.1550 N   0  0  0  0  0  2  0  0  0  0  0  0
  193.1510  169.8070  144.6280 C   0  0  0  0  0  2  0  0  0  0  0  0
  194.1760  168.7910  144.1590 C   0  0  0  0  0  2  0  0  0  0  0  0
  195.1950  168.5280  145.2520 C   0  0  0  0  0  2  0  0  0  0  0  0
  194.5720  168.7530  146.6170 C   0  0  0  0  0  1  0  0  0  0  0  0
  191.2100  170.5980  141.7280 O   0  0  0  0  0  0  0  0  0  0  0  0
  190.6180  171.5020  142.3760 C   0  0  0  0  0  0  0  0  0  0  0  0
  189.4620  172.1190  141.8230 N   0  0  0  0  0  1  0  0  0  0  0  0
  1 38  1  6  0  0  0
  1 11  1  0  0  0  0
  3  4  1  0  0  0  0
  4  8  2  0  0  0  0
  5  7  2  0  0  0  0
  6 11  1  0  0  0  0
  7 10  1  0  0  0  0
  8  1  1  0  0  0  0
  9  5  1  0  0  0  0
  9  3  2  0  0  0  0
 10  8  1  0  0  0  0
 10  6  1  0  0  0  0
 11  2  1  1  0  0  0
 13 12  1  0  0  0  0
 13  3  1  0  0  0  0
 14 17  1  0  0  0  0
 15 13  2  0  0  0  0
 16 14  2  0  0  0  0
 16 15  1  0  0  0  0
 17 12  2  0  0  0  0
 18 19  1  0  0  0  0
 19 14  1  0  0  0  0
 19 20  1  0  0  0  0
 21 22  1  0  0  0  0
 22 15  1  0  0  0  0
 23 24  2  0  0  0  0
 24  7  1  0  0  0  0
 25 23  1  0  0  0  0
 25 26  1  0  0  0  0
 27 28  1  6  0  0  0
 27 26  1  0  0  0  0
 29 27  1  0  0  0  0
 30 29  1  0  0  0  0
 32 30  1  0  0  0  0
 33 34  1  0  0  0  0
 33 37  1  0  0  0  0
 34 31  1  0  0  0  0
 35 31  1  0  0  0  0
 35 32  1  0  0  0  0
 36 32  2  0  0  0  0
 37 35  1  0  0  0  0
 39 38  1  0  0  0  0
 40 41  2  0  0  0  0
 41 39  1  0  0  0  0
 42 43  1  0  0  0  0
 42 40  1  6  0  0  0
 43 45  1  0  0  0  0
 44 43  2  0  0  0  0
 45 46  1  0  0  0  0
 47 46  1  0  0  0  0
 47 48  1  0  0  0  0
 48 49  1  0  0  0  0
 50 51  2  0  0  0  0
 51 42  1  0  0  0  0
 52 51  1  0  0  0  0
M  END
>  <MODEL>
7

>  <REMARK>
 VINA RESULT:      -6.2      1.990      4.224
  Name = 
  19 active torsions:
  status: ('A' for Active; 'I' for Inactive)
    1  A    between atoms: C_2  and  C_16
    2  A    between atoms: C_4  and  C_18
    3  A    between atoms: N_7  and  C_21
    4  A    between atoms: C_8  and  C_14
    5  A    between atoms: C_11  and  C_16
    6  A    between atoms: C_13  and  C_17
    7  A    between atoms: C_13  and  C_36
    8  A    between atoms: C_16  and  C_35
    9  A    between atoms: C_17  and  O_46
   10  A    between atoms: C_18  and  N_42
   11  A    between atoms: C_20  and  O_43
   12  A    between atoms: C_24  and  C_40
   13  A    between atoms: N_26  and  N_42
   14  A    between atoms: C_28  and  C_34
   15  A    between atoms: C_28  and  C_51
   16  A    between atoms: C_31  and  C_41
   17  A    between atoms: C_36  and  O_43
   18  A    between atoms: N_38  and  O_46
   19  A    between atoms: N_47  and  C_51
                            x       y       z     vdW  Elec       q    Type
                         _______ _______ _______ _____ _____    ______ ____

>  <TORSDO>
F 19

$$$$
=
 OpenBabel11042415593D

 52 55  0  0  1  0  0  0  0  0999 V2000
  195.0000  176.0730  144.6830 C   0  0  2  0  0  3  0  0  0  0  0  0
  196.8200  177.1760  143.5080 N   0  0  0  0  0  1  0  0  0  0  0  0
  191.3330  175.7150  143.5120 C   0  0  0  0  0  0  0  0  0  0  0  0
  192.6060  175.9300  144.2140 C   0  0  0  0  0  3  0  0  0  0  0  0
  192.2400  174.6280  141.4090 C   0  0  0  0  0  3  0  0  0  0  0  0
  195.7170  175.3320  142.4730 N   0  0  0  0  0  2  0  0  0  0  0  0
  193.5720  174.6670  141.4810 C   0  0  0  0  0  0  0  0  0  0  0  0
  193.8600  175.7120  143.8230 C   0  0  0  0  0  0  0  0  0  0  0  0
  191.2140  175.1320  142.3220 C   0  0  0  0  0  3  0  0  0  0  0  0
  194.3160  175.2650  142.5580 N   0  0  0  0  0  0  0  0  0  0  0  0
  196.1870  175.8910  143.7460 C   0  0  2  0  0  3  0  0  0  0  0  0
  189.7800  175.4270  145.4250 C   0  0  0  0  0  3  0  0  0  0  0  0
  190.0950  176.1060  144.2370 C   0  0  0  0  0  0  0  0  0  0  0  0
  187.7650  176.7450  145.7070 C   0  0  0  0  0  0  0  0  0  0  0  0
  189.2270  177.1360  143.7950 C   0  0  0  0  0  0  0  0  0  0  0  0
  188.0760  177.4400  144.5310 C   0  0  0  0  0  3  0  0  0  0  0  0
  188.6310  175.7410  146.1510 C   0  0  0  0  0  3  0  0  0  0  0  0
  186.6160  177.9880  147.5750 C   0  0  0  0  0  1  0  0  0  0  0  0
  186.5820  177.0590  146.4570 N   0  0  0  0  0  0  0  0  0  0  0  0
  185.3980  176.4930  146.1270 O   0  0  0  0  0  1  0  0  0  0  0  0
  188.3030  178.2910  141.9510 O   0  0  0  0  0  1  0  0  0  0  0  0
  189.5040  177.9500  142.5730 C   0  0  0  0  0  2  0  0  0  0  0  0
  194.7290  174.7850  139.3500 N   0  0  0  0  0  0  0  0  0  0  0  0
  194.3340  174.0790  140.3600 C   0  0  0  0  0  3  0  0  0  0  0  0
  195.4320  174.1930  138.3290 O   0  0  0  0  0  0  0  0  0  0  0  0
  195.3330  174.7080  137.0110 C   0  0  0  0  0  2  0  0  0  0  0  0
  195.4370  173.5860  135.9870 C   0  0  1  0  0  3  0  0  0  0  0  0
  195.8710  172.4130  136.6080 O   0  0  0  0  0  1  0  0  0  0  0  0
  194.1050  173.3360  135.2910 C   0  0  0  0  0  2  0  0  0  0  0  0
  193.3420  172.3720  136.0070 O   0  0  0  0  0  0  0  0  0  0  0  0
  192.3350  171.6530  138.6430 C   0  0  0  0  0  2  0  0  0  0  0  0
  191.9920  172.5670  136.3110 C   0  0  0  0  0  0  0  0  0  0  0  0
  190.0640  171.9790  139.4660 C   0  0  0  0  0  2  0  0  0  0  0  0
  191.3940  171.3080  139.7840 C   0  0  0  0  0  2  0  0  0  0  0  0
  191.4970  172.2090  137.6040 N   0  0  0  0  0  0  0  0  0  0  0  0
  191.2100  173.0630  135.4540 O   0  0  0  0  0  0  0  0  0  0  0  0
  190.1120  172.3560  137.9970 C   0  0  0  0  0  2  0  0  0  0  0  0
  195.1360  175.1030  145.8480 C   0  0  0  0  0  2  0  0  0  0  0  0
  196.1960  174.1390  145.5770 N   0  0  0  0  0  2  0  0  0  0  0  0
  194.7770  172.3600  144.9450 C   0  0  0  0  0  3  0  0  0  0  0  0
  195.9570  172.8900  144.9810 N   0  0  0  0  0  0  0  0  0  0  0  0
  194.5640  171.0270  144.3010 C   0  0  2  0  0  3  0  0  0  0  0  0
  193.6220  171.0750  143.1280 C   0  0  0  0  0  0  0  0  0  0  0  0
  194.0020  170.5760  142.0370 O   0  0  0  0  0  0  0  0  0  0  0  0
  192.3200  171.6680  143.1970 N   0  0  0  0  0  2  0  0  0  0  0  0
  191.7260  172.2140  144.4070 C   0  0  0  0  0  2  0  0  0  0  0  0
  190.2250  171.9990  144.3860 C   0  0  0  0  0  2  0  0  0  0  0  0
  189.7350  171.8460  142.9570 C   0  0  0  0  0  2  0  0  0  0  0  0
  188.5120  172.7130  142.7240 C   0  0  0  0  0  1  0  0  0  0  0  0
  193.2360  169.1700  145.0480 O   0  0  0  0  0  0  0  0  0  0  0  0
  194.1870  169.9610  145.2820 C   0  0  0  0  0  0  0  0  0  0  0  0
  194.9370  169.8210  146.4830 N   0  0  0  0  0  1  0  0  0  0  0  0
  1 38  1  1  0  0  0
  3  4  1  0  0  0  0
  3 13  1  0  0  0  0
  5  7  2  0  0  0  0
  5  9  1  0  0  0  0
  6 10  1  0  0  0  0
  6 11  1  0  0  0  0
  7 10  1  0  0  0  0
  8  4  2  0  0  0  0
  8  1  1  0  0  0  0
  9  3  2  0  0  0  0
 10  8  1  0  0  0  0
 11  2  1  6  0  0  0
 11  1  1  0  0  0  0
 12 17  1  0  0  0  0
 13 12  2  0  0  0  0
 14 17  2  0  0  0  0
 14 19  1  0  0  0  0
 15 13  1  0  0  0  0
 15 16  2  0  0  0  0
 16 14  1  0  0  0  0
 19 18  1  0  0  0  0
 20 19  1  0  0  0  0
 21 22  1  0  0  0  0
 22 15  1  0  0  0  0
 23 24  2  0  0  0  0
 24  7  1  0  0  0  0
 25 23  1  0  0  0  0
 26 25  1  0  0  0  0
 27 28  1  1  0  0  0
 27 26  1  0  0  0  0
 29 27  1  0  0  0  0
 29 30  1  0  0  0  0
 30 32  1  0  0  0  0
 31 34  1  0  0  0  0
 32 35  1  0  0  0  0
 33 34  1  0  0  0  0
 35 37  1  0  0  0  0
 35 31  1  0  0  0  0
 36 32  2  0  0  0  0
 37 33  1  0  0  0  0
 39 38  1  0  0  0  0
 40 41  2  0  0  0  0
 41 39  1  0  0  0  0
 42 40  1  1  0  0  0
 42 51  1  0  0  0  0
 43 45  1  0  0  0  0
 43 42  1  0  0  0  0
 44 43  2  0  0  0  0
 45 46  1  0  0  0  0
 47 46  1  0  0  0  0
 48 47  1  0  0  0  0
 49 48  1  0  0  0  0
 50 51  2  0  0  0  0
 51 52  1  0  0  0  0
M  END
>  <MODEL>
8

>  <REMARK>
 VINA RESULT:      -6.1      3.164      6.413
  Name = 
  19 active torsions:
  status: ('A' for Active; 'I' for Inactive)
    1  A    between atoms: C_2  and  C_16
    2  A    between atoms: C_4  and  C_18
    3  A    between atoms: N_7  and  C_21
    4  A    between atoms: C_8  and  C_14
    5  A    between atoms: C_11  and  C_16
    6  A    between atoms: C_13  and  C_17
    7  A    between atoms: C_13  and  C_36
    8  A    between atoms: C_16  and  C_35
    9  A    between atoms: C_17  and  O_46
   10  A    between atoms: C_18  and  N_42
   11  A    between atoms: C_20  and  O_43
   12  A    between atoms: C_24  and  C_40
   13  A    between atoms: N_26  and  N_42
   14  A    between atoms: C_28  and  C_34
   15  A    between atoms: C_28  and  C_51
   16  A    between atoms: C_31  and  C_41
   17  A    between atoms: C_36  and  O_43
   18  A    between atoms: N_38  and  O_46
   19  A    between atoms: N_47  and  C_51
                            x       y       z     vdW  Elec       q    Type
                         _______ _______ _______ _____ _____    ______ ____

>  <TORSDO>
F 19

$$$$
=
 OpenBabel11042415593D

 52 55  0  0  1  0  0  0  0  0999 V2000
  190.5000  172.9240  143.0460 C   0  0  2  0  0  3  0  0  0  0  0  0
  192.1060  171.3000  143.8800 N   0  0  0  0  0  1  0  0  0  0  0  0
  189.7820  176.4470  144.4650 C   0  0  0  0  0  0  0  0  0  0  0  0
  189.7610  175.0830  143.9200 C   0  0  0  0  0  3  0  0  0  0  0  0
  192.2510  176.9360  144.1680 C   0  0  0  0  0  3  0  0  0  0  0  0
  192.8840  173.4320  143.1490 N   0  0  0  0  0  2  0  0  0  0  0  0
  192.8310  175.8170  143.7300 C   0  0  0  0  0  0  0  0  0  0  0  0
  190.7530  174.3040  143.4930 C   0  0  0  0  0  0  0  0  0  0  0  0
  190.8630  177.2190  144.5330 C   0  0  0  0  0  3  0  0  0  0  0  0
  192.1450  174.5690  143.5170 N   0  0  0  0  0  0  0  0  0  0  0  0
  191.9090  172.3610  142.9080 C   0  0  2  0  0  3  0  0  0  0  0  0
  188.0840  176.8630  146.2260 C   0  0  0  0  0  3  0  0  0  0  0  0
  188.4750  177.0190  144.8860 C   0  0  0  0  0  0  0  0  0  0  0  0
  186.0100  178.0500  145.8140 C   0  0  0  0  0  0  0  0  0  0  0  0
  187.6130  177.7220  144.0070 C   0  0  0  0  0  0  0  0  0  0  0  0
  186.3960  178.2240  144.4790 C   0  0  0  0  0  3  0  0  0  0  0  0
  186.8690  177.3710  146.6840 C   0  0  0  0  0  3  0  0  0  0  0  0
  183.7360  179.0460  145.3790 C   0  0  0  0  0  1  0  0  0  0  0  0
  184.7590  178.5650  146.2930 N   0  0  0  0  0  0  0  0  0  0  0  0
  184.5050  178.6060  147.6220 O   0  0  0  0  0  1  0  0  0  0  0  0
  186.8060  178.2570  141.8500 O   0  0  0  0  0  1  0  0  0  0  0  0
  187.9640  177.9850  142.5780 C   0  0  0  0  0  2  0  0  0  0  0  0
  195.1030  176.5020  144.2400 N   0  0  0  0  0  0  0  0  0  0  0  0
  194.2850  175.8570  143.4720 C   0  0  0  0  0  3  0  0  0  0  0  0
  196.4480  176.5140  143.9580 O   0  0  0  0  0  0  0  0  0  0  0  0
  196.9470  175.7660  142.8600 C   0  0  0  0  0  2  0  0  0  0  0  0
  197.8550  174.6450  143.3420 C   0  0  1  0  0  3  0  0  0  0  0  0
  197.6170  174.3840  144.6930 O   0  0  0  0  0  1  0  0  0  0  0  0
  197.6550  173.3710  142.5310 C   0  0  0  0  0  2  0  0  0  0  0  0
  196.2970  172.9520  142.5890 O   0  0  0  0  0  0  0  0  0  0  0  0
  195.0960  173.6160  140.0210 C   0  0  0  0  0  2  0  0  0  0  0  0
  195.7960  171.9330  141.7730 C   0  0  0  0  0  0  0  0  0  0  0  0
  194.2420  172.0410  138.3690 C   0  0  0  0  0  2  0  0  0  0  0  0
  194.2990  173.5190  138.7320 C   0  0  0  0  0  2  0  0  0  0  0  0
  195.2020  172.2610  140.5130 N   0  0  0  0  0  0  0  0  0  0  0  0
  195.8720  170.7280  142.1380 O   0  0  0  0  0  0  0  0  0  0  0  0
  194.6390  171.2750  139.6160 C   0  0  0  0  0  2  0  0  0  0  0  0
  189.8250  172.9050  141.6820 C   0  0  0  0  0  2  0  0  0  0  0  0
  190.4470  171.9000  140.8280 N   0  0  0  0  0  2  0  0  0  0  0  0
  190.1470  172.6060  138.5940 C   0  0  0  0  0  3  0  0  0  0  0  0
  190.9250  172.1840  139.5390 N   0  0  0  0  0  0  0  0  0  0  0  0
  190.6950  172.8980  137.2330 C   0  0  2  0  0  3  0  0  0  0  0  0
  190.1130  174.1370  136.6090 C   0  0  0  0  0  0  0  0  0  0  0  0
  188.8870  174.3700  136.7750 O   0  0  0  0  0  0  0  0  0  0  0  0
  190.8880  175.0560  135.8300 N   0  0  0  0  0  2  0  0  0  0  0  0
  192.3220  174.9510  135.6180 C   0  0  0  0  0  2  0  0  0  0  0  0
  193.0390  176.0360  136.3990 C   0  0  0  0  0  2  0  0  0  0  0  0
  193.7470  176.9870  135.4520 C   0  0  0  0  0  2  0  0  0  0  0  0
  192.7340  177.8150  134.6840 C   0  0  0  0  0  1  0  0  0  0  0  0
  189.6470  170.9270  136.3460 O   0  0  0  0  0  0  0  0  0  0  0  0
  190.6270  171.7180  136.3140 C   0  0  0  0  0  0  0  0  0  0  0  0
  191.6690  171.5070  135.3710 N   0  0  0  0  0  1  0  0  0  0  0  0
  1 38  1  6  0  0  0
  1  8  1  0  0  0  0
  3  9  2  0  0  0  0
  3 13  1  0  0  0  0
  4  3  1  0  0  0  0
  5  9  1  0  0  0  0
  6 10  1  0  0  0  0
  7  5  2  0  0  0  0
  8 10  1  0  0  0  0
  8  4  2  0  0  0  0
 10  7  1  0  0  0  0
 11  1  1  0  0  0  0
 11  6  1  0  0  0  0
 11  2  1  1  0  0  0
 12 17  1  0  0  0  0
 13 12  2  0  0  0  0
 14 19  1  0  0  0  0
 14 17  2  0  0  0  0
 15 16  2  0  0  0  0
 15 13  1  0  0  0  0
 16 14  1  0  0  0  0
 18 19  1  0  0  0  0
 19 20  1  0  0  0  0
 21 22  1  0  0  0  0
 22 15  1  0  0  0  0
 24  7  1  0  0  0  0
 24 23  2  0  0  0  0
 25 23  1  0  0  0  0
 26 27  1  0  0  0  0
 26 25  1  0  0  0  0
 27 28  1  1  0  0  0
 29 30  1  0  0  0  0
 29 27  1  0  0  0  0
 31 35  1  0  0  0  0
 32 36  2  0  0  0  0
 32 30  1  0  0  0  0
 33 34  1  0  0  0  0
 33 37  1  0  0  0  0
 34 31  1  0  0  0  0
 35 32  1  0  0  0  0
 37 35  1  0  0  0  0
 39 38  1  0  0  0  0
 40 41  2  0  0  0  0
 41 39  1  0  0  0  0
 42 40  1  1  0  0  0
 43 44  2  0  0  0  0
 43 42  1  0  0  0  0
 45 43  1  0  0  0  0
 46 45  1  0  0  0  0
 46 47  1  0  0  0  0
 48 47  1  0  0  0  0
 49 48  1  0  0  0  0
 51 50  2  0  0  0  0
 51 42  1  0  0  0  0
 52 51  1  0  0  0  0
M  END
>  <MODEL>
9

>  <REMARK>
 VINA RESULT:      -6.0      3.158      5.190
  Name = 
  19 active torsions:
  status: ('A' for Active; 'I' for Inactive)
    1  A    between atoms: C_2  and  C_16
    2  A    between atoms: C_4  and  C_18
    3  A    between atoms: N_7  and  C_21
    4  A    between atoms: C_8  and  C_14
    5  A    between atoms: C_11  and  C_16
    6  A    between atoms: C_13  and  C_17
    7  A    between atoms: C_13  and  C_36
    8  A    between atoms: C_16  and  C_35
    9  A    between atoms: C_17  and  O_46
   10  A    between atoms: C_18  and  N_42
   11  A    between atoms: C_20  and  O_43
   12  A    between atoms: C_24  and  C_40
   13  A    between atoms: N_26  and  N_42
   14  A    between atoms: C_28  and  C_34
   15  A    between atoms: C_28  and  C_51
   16  A    between atoms: C_31  and  C_41
   17  A    between atoms: C_36  and  O_43
   18  A    between atoms: N_38  and  O_46
   19  A    between atoms: N_47  and  C_51
                            x       y       z     vdW  Elec       q    Type
                         _______ _______ _______ _____ _____    ______ ____

>  <TORSDO>
F 19

$$$$
