=
 OpenBabel11042417473D

 25 27  0  0  1  0  0  0  0  0999 V2000
  186.0170  176.8380  144.8500 C   0  0  0  0  0  3  0  0  0  0  0  0
  185.1130  178.9090  146.5410 N   0  0  0  0  0  0  0  0  0  0  0  0
  185.9400  177.7840  148.4030 O   0  0  0  0  0  0  0  0  0  0  0  0
  185.8230  177.8260  147.1490 C   0  0  0  0  0  0  0  0  0  0  0  0
  186.3980  176.7130  146.3020 C   0  0  2  0  0  3  0  0  0  0  0  0
  185.3290  177.8770  144.3590 C   0  0  0  0  0  0  0  0  0  0  0  0
  184.8780  178.9520  145.2640 C   0  0  0  0  0  3  0  0  0  0  0  0
  189.8130  177.1740  144.9630 C   0  0  0  0  0  3  0  0  0  0  0  0
  189.7530  175.0970  147.2540 C   0  0  0  0  0  3  0  0  0  0  0  0
  190.7110  176.2220  145.2220 C   0  0  0  0  0  3  0  0  0  0  0  0
  187.8870  176.5640  146.4370 C   0  0  0  0  0  0  0  0  0  0  0  0
  188.8100  177.6510  145.9600 C   0  0  0  0  0  2  0  0  0  0  0  0
  188.3400  175.4740  147.0650 C   0  0  0  0  0  3  0  0  0  0  0  0
  190.7780  175.4220  146.4580 C   0  0  0  0  0  3  0  0  0  0  0  0
  185.6760  177.7650  140.5940 C   0  0  0  0  0  0  0  0  0  0  0  0
  183.7260  178.1790  142.5090 N   0  0  0  0  0  0  0  0  0  0  0  0
  185.9980  177.7130  141.9560 C   0  0  0  0  0  3  0  0  0  0  0  0
  185.0020  177.9240  142.9170 C   0  0  0  0  0  0  0  0  0  0  0  0
  184.3600  178.0300  140.2130 C   0  0  0  0  0  3  0  0  0  0  0  0
  183.3850  178.2400  141.1890 C   0  0  0  0  0  0  0  0  0  0  0  0
  186.5230  176.6240  138.5940 C   0  0  0  0  0  2  0  0  0  0  0  0
  186.6830  177.5310  139.5510 C   0  0  0  0  0  3  0  0  0  0  0  0
  182.0710  178.5080  140.7960 O   0  0  0  0  0  0  0  0  0  0  0  0
  181.0630  178.9350  141.7040 C   0  0  0  0  0  2  0  0  0  0  0  0
  180.0530  179.8120  140.9900 C   0  0  0  0  0  1  0  0  0  0  0  0
  1  5  1  0  0  0  0
  2  4  1  0  0  0  0
  4  3  2  0  0  0  0
  5 11  1  6  0  0  0
  5  4  1  0  0  0  0
  6  1  2  0  0  0  0
  6  7  1  0  0  0  0
  7  2  2  0  0  0  0
  8 10  2  0  0  0  0
  8 12  1  0  0  0  0
 10 14  1  0  0  0  0
 11 13  2  0  0  0  0
 12 11  1  0  0  0  0
 13  9  1  0  0  0  0
 14  9  2  0  0  0  0
 15 17  1  0  0  0  0
 16 18  1  0  0  0  0
 17 18  2  0  0  0  0
 18  6  1  0  0  0  0
 19 15  2  0  0  0  0
 19 20  1  0  0  0  0
 20 16  2  0  0  0  0
 21 22  2  0  0  0  0
 22 15  1  0  0  0  0
 23 20  1  0  0  0  0
 23 24  1  0  0  0  0
 25 24  1  0  0  0  0
M  END
>  <MODEL>
1

>  <REMARK>
 VINA RESULT:      -7.7      0.000      0.000
  Name = 
  5 active torsions:
  status: ('A' for Active; 'I' for Inactive)
    1  A    between atoms: C_1  and  O_21
    2  A    between atoms: C_4  and  C_19
    3  A    between atoms: C_9  and  C_16
    4  A    between atoms: C_13  and  C_20
    5  A    between atoms: O_21  and  C_24
                            x       y       z     vdW  Elec       q    Type
                         _______ _______ _______ _____ _____    ______ ____

>  <TORSDO>
F 5

$$$$
=
 OpenBabel11042417473D

 25 27  0  0  1  0  0  0  0  0999 V2000
  188.6480  176.5140  143.4380 C   0  0  0  0  0  3  0  0  0  0  0  0
  188.4970  174.2140  141.8090 N   0  0  0  0  0  0  0  0  0  0  0  0
  190.7820  173.8520  142.0640 O   0  0  0  0  0  0  0  0  0  0  0  0
  189.7710  174.5360  142.3760 C   0  0  0  0  0  0  0  0  0  0  0  0
  189.9180  175.7130  143.3130 C   0  0  2  0  0  3  0  0  0  0  0  0
  187.4950  176.1570  142.8570 C   0  0  0  0  0  0  0  0  0  0  0  0
  187.4420  174.9430  142.0180 C   0  0  0  0  0  3  0  0  0  0  0  0
  189.3030  174.6530  146.8010 C   0  0  0  0  0  3  0  0  0  0  0  0
  192.1510  175.8020  146.4400 C   0  0  0  0  0  3  0  0  0  0  0  0
  190.1100  175.1400  147.7460 C   0  0  0  0  0  3  0  0  0  0  0  0
  190.4280  175.3350  144.6750 C   0  0  0  0  0  0  0  0  0  0  0  0
  189.7800  174.2250  145.4530 C   0  0  0  0  0  2  0  0  0  0  0  0
  191.5190  175.9680  145.1180 C   0  0  0  0  0  3  0  0  0  0  0  0
  191.5420  175.4410  147.5750 C   0  0  0  0  0  3  0  0  0  0  0  0
  184.7310  178.1680  144.4730 C   0  0  0  0  0  0  0  0  0  0  0  0
  185.5730  177.4100  141.9530 N   0  0  0  0  0  0  0  0  0  0  0  0
  185.8740  177.3750  144.3180 C   0  0  0  0  0  3  0  0  0  0  0  0
  186.2920  176.9980  143.0350 C   0  0  0  0  0  0  0  0  0  0  0  0
  184.0180  178.5700  143.3430 C   0  0  0  0  0  3  0  0  0  0  0  0
  184.4530  178.1790  142.0760 C   0  0  0  0  0  0  0  0  0  0  0  0
  184.7810  178.1310  146.9260 C   0  0  0  0  0  2  0  0  0  0  0  0
  184.2650  178.6040  145.7970 C   0  0  0  0  0  3  0  0  0  0  0  0
  183.7310  178.5850  140.9500 O   0  0  0  0  0  0  0  0  0  0  0  0
  182.5640  177.9110  140.4940 C   0  0  0  0  0  2  0  0  0  0  0  0
  181.3280  178.7260  140.8200 C   0  0  0  0  0  1  0  0  0  0  0  0
  2  7  2  0  0  0  0
  2  4  1  0  0  0  0
  3  4  2  0  0  0  0
  4  5  1  0  0  0  0
  5  1  1  0  0  0  0
  5 11  1  1  0  0  0
  6 18  1  0  0  0  0
  6  1  2  0  0  0  0
  7  6  1  0  0  0  0
  8 10  2  0  0  0  0
  9 14  2  0  0  0  0
 11 13  2  0  0  0  0
 11 12  1  0  0  0  0
 12  8  1  0  0  0  0
 13  9  1  0  0  0  0
 14 10  1  0  0  0  0
 15 22  1  0  0  0  0
 16 20  2  0  0  0  0
 16 18  1  0  0  0  0
 17 15  1  0  0  0  0
 18 17  2  0  0  0  0
 19 15  2  0  0  0  0
 20 19  1  0  0  0  0
 22 21  2  0  0  0  0
 23 20  1  0  0  0  0
 24 25  1  0  0  0  0
 24 23  1  0  0  0  0
M  END
>  <MODEL>
2

>  <REMARK>
 VINA RESULT:      -7.4      2.688      4.451
  Name = 
  5 active torsions:
  status: ('A' for Active; 'I' for Inactive)
    1  A    between atoms: C_1  and  O_21
    2  A    between atoms: C_4  and  C_19
    3  A    between atoms: C_9  and  C_16
    4  A    between atoms: C_13  and  C_20
    5  A    between atoms: O_21  and  C_24
                            x       y       z     vdW  Elec       q    Type
                         _______ _______ _______ _____ _____    ______ ____

>  <TORSDO>
F 5

$$$$
=
 OpenBabel11042417473D

 25 27  0  0  1  0  0  0  0  0999 V2000
  186.1380  176.8640  144.9030 C   0  0  0  0  0  3  0  0  0  0  0  0
  185.5010  179.1190  146.4750 N   0  0  0  0  0  0  0  0  0  0  0  0
  186.2710  178.0360  148.3870 O   0  0  0  0  0  0  0  0  0  0  0  0
  186.1180  178.0100  147.1360 C   0  0  0  0  0  0  0  0  0  0  0  0
  186.5510  176.7930  146.3500 C   0  0  2  0  0  3  0  0  0  0  0  0
  185.5420  177.9340  144.3620 C   0  0  0  0  0  0  0  0  0  0  0  0
  185.2300  179.1050  145.2060 C   0  0  0  0  0  3  0  0  0  0  0  0
  189.9660  176.9120  144.9390 C   0  0  0  0  0  3  0  0  0  0  0  0
  189.7530  174.8660  147.2490 C   0  0  0  0  0  3  0  0  0  0  0  0
  190.7730  175.8790  145.1880 C   0  0  0  0  0  3  0  0  0  0  0  0
  188.0210  176.5020  146.4570 C   0  0  0  0  0  0  0  0  0  0  0  0
  189.0340  177.4900  145.9520 C   0  0  0  0  0  2  0  0  0  0  0  0
  188.3790  175.3770  147.0850 C   0  0  0  0  0  3  0  0  0  0  0  0
  190.7880  175.0850  146.4300 C   0  0  0  0  0  3  0  0  0  0  0  0
  183.5310  178.2040  141.1710 C   0  0  0  0  0  0  0  0  0  0  0  0
  186.1060  177.6160  141.9820 N   0  0  0  0  0  0  0  0  0  0  0  0
  183.8660  178.2220  142.5300 C   0  0  0  0  0  3  0  0  0  0  0  0
  185.1750  177.9230  142.9290 C   0  0  0  0  0  0  0  0  0  0  0  0
  184.5090  177.8830  140.2290 C   0  0  0  0  0  3  0  0  0  0  0  0
  185.8050  177.5860  140.6520 C   0  0  0  0  0  0  0  0  0  0  0  0
  181.0860  178.1860  141.3810 C   0  0  0  0  0  2  0  0  0  0  0  0
  182.1760  178.5290  140.7040 C   0  0  0  0  0  3  0  0  0  0  0  0
  186.7770  177.2640  139.7000 O   0  0  0  0  0  0  0  0  0  0  0  0
  186.4600  176.9090  138.3600 C   0  0  0  0  0  2  0  0  0  0  0  0
  187.2020  175.6470  137.9630 C   0  0  0  0  0  1  0  0  0  0  0  0
  1  5  1  0  0  0  0
  2  4  1  0  0  0  0
  4  3  2  0  0  0  0
  5 11  1  6  0  0  0
  5  4  1  0  0  0  0
  6  1  2  0  0  0  0
  6  7  1  0  0  0  0
  7  2  2  0  0  0  0
  8 10  2  0  0  0  0
  8 12  1  0  0  0  0
 10 14  1  0  0  0  0
 11 13  2  0  0  0  0
 12 11  1  0  0  0  0
 13  9  1  0  0  0  0
 14  9  2  0  0  0  0
 15 17  1  0  0  0  0
 16 18  1  0  0  0  0
 17 18  2  0  0  0  0
 18  6  1  0  0  0  0
 19 20  1  0  0  0  0
 19 15  2  0  0  0  0
 20 16  2  0  0  0  0
 22 15  1  0  0  0  0
 22 21  2  0  0  0  0
 23 20  1  0  0  0  0
 24 23  1  0  0  0  0
 25 24  1  0  0  0  0
M  END
>  <MODEL>
3

>  <REMARK>
 VINA RESULT:      -7.3      1.277      3.058
  Name = 
  5 active torsions:
  status: ('A' for Active; 'I' for Inactive)
    1  A    between atoms: C_1  and  O_21
    2  A    between atoms: C_4  and  C_19
    3  A    between atoms: C_9  and  C_16
    4  A    between atoms: C_13  and  C_20
    5  A    between atoms: O_21  and  C_24
                            x       y       z     vdW  Elec       q    Type
                         _______ _______ _______ _____ _____    ______ ____

>  <TORSDO>
F 5

$$$$
=
 OpenBabel11042417473D

 25 27  0  0  1  0  0  0  0  0999 V2000
  188.7140  177.0550  143.4890 C   0  0  0  0  0  3  0  0  0  0  0  0
  189.0890  175.0840  141.5050 N   0  0  0  0  0  0  0  0  0  0  0  0
  191.3520  174.9450  142.0330 O   0  0  0  0  0  0  0  0  0  0  0  0
  190.2240  175.4410  142.2990 C   0  0  0  0  0  0  0  0  0  0  0  0
  190.0870  176.4400  143.4260 C   0  0  2  0  0  3  0  0  0  0  0  0
  187.7040  176.6790  142.6930 C   0  0  0  0  0  0  0  0  0  0  0  0
  187.9260  175.6380  141.6700 C   0  0  0  0  0  3  0  0  0  0  0  0
  189.2460  174.5240  146.4740 C   0  0  0  0  0  3  0  0  0  0  0  0
  191.7450  176.2970  146.8910 C   0  0  0  0  0  3  0  0  0  0  0  0
  189.7590  174.9460  147.6300 C   0  0  0  0  0  3  0  0  0  0  0  0
  190.4690  175.8840  144.7690 C   0  0  0  0  0  0  0  0  0  0  0  0
  190.0060  174.5170  145.1900 C   0  0  0  0  0  2  0  0  0  0  0  0
  191.2930  176.6170  145.5240 C   0  0  0  0  0  3  0  0  0  0  0  0
  191.0830  175.5720  147.8010 C   0  0  0  0  0  3  0  0  0  0  0  0
  184.3050  178.1040  141.8470 C   0  0  0  0  0  0  0  0  0  0  0  0
  185.9650  177.7990  144.0350 N   0  0  0  0  0  0  0  0  0  0  0  0
  185.5520  177.4810  141.7090 C   0  0  0  0  0  3  0  0  0  0  0  0
  186.3840  177.3310  142.8250 C   0  0  0  0  0  0  0  0  0  0  0  0
  183.9100  178.5730  143.1000 C   0  0  0  0  0  3  0  0  0  0  0  0
  184.7580  178.4140  144.1970 C   0  0  0  0  0  0  0  0  0  0  0  0
  182.0700  178.2120  140.8400 C   0  0  0  0  0  2  0  0  0  0  0  0
  183.3910  178.2670  140.7080 C   0  0  0  0  0  3  0  0  0  0  0  0
  184.3530  178.8890  145.4480 O   0  0  0  0  0  0  0  0  0  0  0  0
  184.4220  178.1060  146.6330 C   0  0  0  0  0  2  0  0  0  0  0  0
  185.5410  178.6060  147.5270 C   0  0  0  0  0  1  0  0  0  0  0  0
  2  7  2  0  0  0  0
  2  4  1  0  0  0  0
  3  4  2  0  0  0  0
  4  5  1  0  0  0  0
  5  1  1  0  0  0  0
  5 11  1  1  0  0  0
  6 18  1  0  0  0  0
  6  1  2  0  0  0  0
  7  6  1  0  0  0  0
  8 10  2  0  0  0  0
  9 14  2  0  0  0  0
 10 14  1  0  0  0  0
 11 12  1  0  0  0  0
 11 13  2  0  0  0  0
 12  8  1  0  0  0  0
 13  9  1  0  0  0  0
 15 19  2  0  0  0  0
 16 20  2  0  0  0  0
 17 15  1  0  0  0  0
 17 18  2  0  0  0  0
 18 16  1  0  0  0  0
 19 20  1  0  0  0  0
 20 23  1  0  0  0  0
 22 21  2  0  0  0  0
 22 15  1  0  0  0  0
 23 24  1  0  0  0  0
 24 25  1  0  0  0  0
M  END
>  <MODEL>
4

>  <REMARK>
 VINA RESULT:      -7.3      2.720      4.592
  Name = 
  5 active torsions:
  status: ('A' for Active; 'I' for Inactive)
    1  A    between atoms: C_1  and  O_21
    2  A    between atoms: C_4  and  C_19
    3  A    between atoms: C_9  and  C_16
    4  A    between atoms: C_13  and  C_20
    5  A    between atoms: O_21  and  C_24
                            x       y       z     vdW  Elec       q    Type
                         _______ _______ _______ _____ _____    ______ ____

>  <TORSDO>
F 5

$$$$
=
 OpenBabel11042417473D

 25 27  0  0  1  0  0  0  0  0999 V2000
  188.4680  176.3190  144.0380 C   0  0  0  0  0  3  0  0  0  0  0  0
  188.9020  178.1750  141.9570 N   0  0  0  0  0  0  0  0  0  0  0  0
  186.7780  177.7520  141.1020 O   0  0  0  0  0  0  0  0  0  0  0  0
  187.6210  177.5390  142.0140 C   0  0  0  0  0  0  0  0  0  0  0  0
  187.2890  176.5840  143.1380 C   0  0  2  0  0  3  0  0  0  0  0  0
  189.6460  176.9420  143.9060 C   0  0  0  0  0  0  0  0  0  0  0  0
  189.8420  177.9170  142.8150 C   0  0  0  0  0  3  0  0  0  0  0  0
  184.5480  178.9650  143.8350 C   0  0  0  0  0  3  0  0  0  0  0  0
  185.1040  177.1200  146.2540 C   0  0  0  0  0  3  0  0  0  0  0  0
  184.2250  179.1780  145.1120 C   0  0  0  0  0  3  0  0  0  0  0  0
  186.0990  177.0070  143.9520 C   0  0  0  0  0  0  0  0  0  0  0  0
  184.8980  177.6200  143.2890 C   0  0  0  0  0  2  0  0  0  0  0  0
  186.1270  176.7410  145.2630 C   0  0  0  0  0  3  0  0  0  0  0  0
  184.2800  178.1730  146.1880 C   0  0  0  0  0  3  0  0  0  0  0  0
  191.6390  176.4940  147.0890 C   0  0  0  0  0  0  0  0  0  0  0  0
  191.9460  176.1770  144.3610 N   0  0  0  0  0  0  0  0  0  0  0  0
  190.5840  176.7920  146.2180 C   0  0  0  0  0  3  0  0  0  0  0  0
  190.7510  176.6270  144.8380 C   0  0  0  0  0  0  0  0  0  0  0  0
  192.8490  176.0380  146.5650 C   0  0  0  0  0  3  0  0  0  0  0  0
  192.9920  175.8840  145.1860 C   0  0  0  0  0  0  0  0  0  0  0  0
  191.5020  177.8160  149.1520 C   0  0  0  0  0  2  0  0  0  0  0  0
  191.5040  176.6340  148.5450 C   0  0  0  0  0  3  0  0  0  0  0  0
  194.2100  175.4290  144.6710 O   0  0  0  0  0  0  0  0  0  0  0  0
  195.4160  175.4290  145.4250 C   0  0  0  0  0  2  0  0  0  0  0  0
  195.8860  174.0060  145.6600 C   0  0  0  0  0  1  0  0  0  0  0  0
  2  4  1  0  0  0  0
  2  7  2  0  0  0  0
  3  4  2  0  0  0  0
  4  5  1  0  0  0  0
  5 11  1  1  0  0  0
  5  1  1  0  0  0  0
  6  1  2  0  0  0  0
  6 18  1  0  0  0  0
  7  6  1  0  0  0  0
  8 10  2  0  0  0  0
 10 14  1  0  0  0  0
 11 13  2  0  0  0  0
 12  8  1  0  0  0  0
 12 11  1  0  0  0  0
 13  9  1  0  0  0  0
 14  9  2  0  0  0  0
 15 22  1  0  0  0  0
 16 18  1  0  0  0  0
 16 20  2  0  0  0  0
 17 15  1  0  0  0  0
 18 17  2  0  0  0  0
 19 15  2  0  0  0  0
 20 19  1  0  0  0  0
 22 21  2  0  0  0  0
 23 20  1  0  0  0  0
 23 24  1  0  0  0  0
 24 25  1  0  0  0  0
M  END
>  <MODEL>
5

>  <REMARK>
 VINA RESULT:      -7.2      3.499      8.499
  Name = 
  5 active torsions:
  status: ('A' for Active; 'I' for Inactive)
    1  A    between atoms: C_1  and  O_21
    2  A    between atoms: C_4  and  C_19
    3  A    between atoms: C_9  and  C_16
    4  A    between atoms: C_13  and  C_20
    5  A    between atoms: O_21  and  C_24
                            x       y       z     vdW  Elec       q    Type
                         _______ _______ _______ _____ _____    ______ ____

>  <TORSDO>
F 5

$$$$
=
 OpenBabel11042417473D

 25 27  0  0  1  0  0  0  0  0999 V2000
  188.2300  177.6370  145.5520 C   0  0  0  0  0  3  0  0  0  0  0  0
  186.4420  176.6770  147.5130 N   0  0  0  0  0  0  0  0  0  0  0  0
  185.0540  178.5160  147.1860 O   0  0  0  0  0  0  0  0  0  0  0  0
  186.0850  177.8840  146.8330 C   0  0  0  0  0  0  0  0  0  0  0  0
  186.9570  178.4250  145.7230 C   0  0  2  0  0  3  0  0  0  0  0  0
  188.5020  176.5240  146.2450 C   0  0  0  0  0  0  0  0  0  0  0  0
  187.5440  176.0380  147.2570 C   0  0  0  0  0  3  0  0  0  0  0  0
  183.8720  179.0330  143.7790 C   0  0  0  0  0  3  0  0  0  0  0  0
  186.0500  177.6600  142.0670 C   0  0  0  0  0  3  0  0  0  0  0  0
  183.7030  178.3360  142.6540 C   0  0  0  0  0  3  0  0  0  0  0  0
  186.2440  178.5500  144.4060 C   0  0  0  0  0  0  0  0  0  0  0  0
  185.1850  179.5980  144.2070 C   0  0  0  0  0  2  0  0  0  0  0  0
  186.6460  177.7510  143.4120 C   0  0  0  0  0  3  0  0  0  0  0  0
  184.7780  177.9160  141.7380 C   0  0  0  0  0  3  0  0  0  0  0  0
  192.1930  175.7100  146.1250 C   0  0  0  0  0  0  0  0  0  0  0  0
  189.7700  174.5630  145.4520 N   0  0  0  0  0  0  0  0  0  0  0  0
  190.9960  176.3990  146.3550 C   0  0  0  0  0  3  0  0  0  0  0  0
  189.7740  175.8070  146.0110 C   0  0  0  0  0  0  0  0  0  0  0  0
  192.1520  174.4400  145.5490 C   0  0  0  0  0  3  0  0  0  0  0  0
  190.9220  173.8730  145.2120 C   0  0  0  0  0  0  0  0  0  0  0  0
  194.6470  175.7170  146.1380 C   0  0  0  0  0  2  0  0  0  0  0  0
  193.4970  176.2830  146.4860 C   0  0  0  0  0  3  0  0  0  0  0  0
  190.8920  172.6000  144.6340 O   0  0  0  0  0  0  0  0  0  0  0  0
  189.6920  171.9820  144.1860 C   0  0  0  0  0  2  0  0  0  0  0  0
  189.5230  172.1880  142.6930 C   0  0  0  0  0  1  0  0  0  0  0  0
  1  5  1  0  0  0  0
  1  6  2  0  0  0  0
  4  3  2  0  0  0  0
  4  2  1  0  0  0  0
  5 11  1  6  0  0  0
  5  4  1  0  0  0  0
  6  7  1  0  0  0  0
  7  2  2  0  0  0  0
  8 12  1  0  0  0  0
  9 13  1  0  0  0  0
 10  8  2  0  0  0  0
 12 11  1  0  0  0  0
 13 11  2  0  0  0  0
 14  9  2  0  0  0  0
 14 10  1  0  0  0  0
 15 17  1  0  0  0  0
 15 22  1  0  0  0  0
 16 18  1  0  0  0  0
 18  6  1  0  0  0  0
 18 17  2  0  0  0  0
 19 15  2  0  0  0  0
 20 16  2  0  0  0  0
 20 19  1  0  0  0  0
 21 22  2  0  0  0  0
 23 20  1  0  0  0  0
 24 23  1  0  0  0  0
 25 24  1  0  0  0  0
M  END
>  <MODEL>
6

>  <REMARK>
 VINA RESULT:      -6.9      2.921      7.373
  Name = 
  5 active torsions:
  status: ('A' for Active; 'I' for Inactive)
    1  A    between atoms: C_1  and  O_21
    2  A    between atoms: C_4  and  C_19
    3  A    between atoms: C_9  and  C_16
    4  A    between atoms: C_13  and  C_20
    5  A    between atoms: O_21  and  C_24
                            x       y       z     vdW  Elec       q    Type
                         _______ _______ _______ _____ _____    ______ ____

>  <TORSDO>
F 5

$$$$
=
 OpenBabel11042417473D

 25 27  0  0  1  0  0  0  0  0999 V2000
  186.5760  175.9750  142.8820 C   0  0  0  0  0  3  0  0  0  0  0  0
  186.2590  177.8250  140.7750 N   0  0  0  0  0  0  0  0  0  0  0  0
  184.3730  178.7170  141.8070 O   0  0  0  0  0  0  0  0  0  0  0  0
  185.3340  177.9050  141.8640 C   0  0  0  0  0  0  0  0  0  0  0  0
  185.4790  176.9930  143.0610 C   0  0  2  0  0  3  0  0  0  0  0  0
  187.3900  175.9530  141.8190 C   0  0  0  0  0  0  0  0  0  0  0  0
  187.2080  176.9400  140.7360 C   0  0  0  0  0  3  0  0  0  0  0  0
  187.3310  177.5530  146.2110 C   0  0  0  0  0  3  0  0  0  0  0  0
  184.5010  178.7960  146.3110 C   0  0  0  0  0  3  0  0  0  0  0  0
  186.6230  177.8770  147.2940 C   0  0  0  0  0  3  0  0  0  0  0  0
  185.6620  177.7300  144.3570 C   0  0  0  0  0  0  0  0  0  0  0  0
  187.0380  178.0840  144.8480 C   0  0  0  0  0  2  0  0  0  0  0  0
  184.5570  178.1200  145.0020 C   0  0  0  0  0  3  0  0  0  0  0  0
  185.3960  178.6940  147.3010 C   0  0  0  0  0  3  0  0  0  0  0  0
  189.9390  173.3290  142.7770 C   0  0  0  0  0  0  0  0  0  0  0  0
  188.9580  174.5700  140.5110 N   0  0  0  0  0  0  0  0  0  0  0  0
  188.9360  174.3010  142.8800 C   0  0  0  0  0  3  0  0  0  0  0  0
  188.4460  174.9220  141.7240 C   0  0  0  0  0  0  0  0  0  0  0  0
  190.4410  172.9950  141.5180 C   0  0  0  0  0  3  0  0  0  0  0  0
  189.9390  173.6310  140.3820 C   0  0  0  0  0  0  0  0  0  0  0  0
  189.6850  172.1480  144.9130 C   0  0  0  0  0  2  0  0  0  0  0  0
  190.4700  172.6360  143.9590 C   0  0  0  0  0  3  0  0  0  0  0  0
  190.4500  173.2910  139.1270 O   0  0  0  0  0  0  0  0  0  0  0  0
  189.8700  173.7370  137.9070 C   0  0  0  0  0  2  0  0  0  0  0  0
  189.2180  172.5750  137.1820 C   0  0  0  0  0  1  0  0  0  0  0  0
  1  5  1  0  0  0  0
  2  4  1  0  0  0  0
  3  4  2  0  0  0  0
  4  5  1  0  0  0  0
  5 11  1  1  0  0  0
  6  1  2  0  0  0  0
  7  2  2  0  0  0  0
  7  6  1  0  0  0  0
  8 10  2  0  0  0  0
  9 14  2  0  0  0  0
 10 14  1  0  0  0  0
 11 12  1  0  0  0  0
 11 13  2  0  0  0  0
 12  8  1  0  0  0  0
 13  9  1  0  0  0  0
 15 17  1  0  0  0  0
 15 22  1  0  0  0  0
 16 18  1  0  0  0  0
 18  6  1  0  0  0  0
 18 17  2  0  0  0  0
 19 15  2  0  0  0  0
 20 16  2  0  0  0  0
 20 19  1  0  0  0  0
 22 21  2  0  0  0  0
 23 20  1  0  0  0  0
 24 23  1  0  0  0  0
 25 24  1  0  0  0  0
M  END
>  <MODEL>
7

>  <REMARK>
 VINA RESULT:      -6.9      3.711      6.583
  Name = 
  5 active torsions:
  status: ('A' for Active; 'I' for Inactive)
    1  A    between atoms: C_1  and  O_21
    2  A    between atoms: C_4  and  C_19
    3  A    between atoms: C_9  and  C_16
    4  A    between atoms: C_13  and  C_20
    5  A    between atoms: O_21  and  C_24
                            x       y       z     vdW  Elec       q    Type
                         _______ _______ _______ _____ _____    ______ ____

>  <TORSDO>
F 5

$$$$
=
 OpenBabel11042417473D

 25 27  0  0  1  0  0  0  0  0999 V2000
  187.0780  178.0190  144.8090 C   0  0  0  0  0  3  0  0  0  0  0  0
  185.1870  177.6550  146.8720 N   0  0  0  0  0  0  0  0  0  0  0  0
  183.6740  179.0350  145.7640 O   0  0  0  0  0  0  0  0  0  0  0  0
  184.7930  178.4550  145.7530 C   0  0  0  0  0  0  0  0  0  0  0  0
  185.7250  178.6410  144.5770 C   0  0  2  0  0  3  0  0  0  0  0  0
  187.3770  177.2990  145.8970 C   0  0  0  0  0  0  0  0  0  0  0  0
  186.3650  177.1160  146.9560 C   0  0  0  0  0  3  0  0  0  0  0  0
  186.1490  177.6670  141.0360 C   0  0  0  0  0  3  0  0  0  0  0  0
  183.1950  178.2910  141.7050 C   0  0  0  0  0  3  0  0  0  0  0  0
  185.1740  177.9910  140.1850 C   0  0  0  0  0  3  0  0  0  0  0  0
  185.1500  178.1620  143.2740 C   0  0  0  0  0  0  0  0  0  0  0  0
  185.9020  177.1770  142.4230 C   0  0  0  0  0  2  0  0  0  0  0  0
  183.9230  178.5840  142.9530 C   0  0  0  0  0  3  0  0  0  0  0  0
  183.7360  178.0320  140.5080 C   0  0  0  0  0  3  0  0  0  0  0  0
  190.7980  176.4740  147.2830 C   0  0  0  0  0  0  0  0  0  0  0  0
  189.2250  175.8790  145.0900 N   0  0  0  0  0  0  0  0  0  0  0  0
  189.5180  177.0270  147.1590 C   0  0  0  0  0  3  0  0  0  0  0  0
  188.7290  176.7180  146.0430 C   0  0  0  0  0  0  0  0  0  0  0  0
  191.2730  175.6210  146.2870 C   0  0  0  0  0  3  0  0  0  0  0  0
  190.4700  175.3300  145.1830 C   0  0  0  0  0  0  0  0  0  0  0  0
  191.5660  177.8830  149.1390 C   0  0  0  0  0  2  0  0  0  0  0  0
  191.6530  176.7540  148.4450 C   0  0  0  0  0  3  0  0  0  0  0  0
  190.9580  174.4760  144.1890 O   0  0  0  0  0  0  0  0  0  0  0  0
  190.1830  173.4270  143.6230 C   0  0  0  0  0  2  0  0  0  0  0  0
  189.9820  172.3180  144.6380 C   0  0  0  0  0  1  0  0  0  0  0  0
  1  6  2  0  0  0  0
  2  7  2  0  0  0  0
  4  3  2  0  0  0  0
  4  2  1  0  0  0  0
  5 11  1  6  0  0  0
  5  1  1  0  0  0  0
  5  4  1  0  0  0  0
  6 18  1  0  0  0  0
  6  7  1  0  0  0  0
  8 12  1  0  0  0  0
  9 13  1  0  0  0  0
 10 14  1  0  0  0  0
 10  8  2  0  0  0  0
 12 11  1  0  0  0  0
 13 11  2  0  0  0  0
 14  9  2  0  0  0  0
 15 22  1  0  0  0  0
 16 20  2  0  0  0  0
 16 18  1  0  0  0  0
 17 15  1  0  0  0  0
 18 17  2  0  0  0  0
 19 15  2  0  0  0  0
 20 19  1  0  0  0  0
 22 21  2  0  0  0  0
 23 20  1  0  0  0  0
 24 23  1  0  0  0  0
 24 25  1  0  0  0  0
M  END
>  <MODEL>
8

>  <REMARK>
 VINA RESULT:      -6.9      2.511      7.416
  Name = 
  5 active torsions:
  status: ('A' for Active; 'I' for Inactive)
    1  A    between atoms: C_1  and  O_21
    2  A    between atoms: C_4  and  C_19
    3  A    between atoms: C_9  and  C_16
    4  A    between atoms: C_13  and  C_20
    5  A    between atoms: O_21  and  C_24
                            x       y       z     vdW  Elec       q    Type
                         _______ _______ _______ _____ _____    ______ ____

>  <TORSDO>
F 5

$$$$
=
 OpenBabel11042417473D

 25 27  0  0  1  0  0  0  0  0999 V2000
  186.5650  175.9140  143.1070 C   0  0  0  0  0  3  0  0  0  0  0  0
  187.1170  178.3260  141.7500 N   0  0  0  0  0  0  0  0  0  0  0  0
  185.4460  179.4150  142.9520 O   0  0  0  0  0  0  0  0  0  0  0  0
  186.1070  178.3580  142.7640 C   0  0  0  0  0  0  0  0  0  0  0  0
  185.8020  177.1240  143.5810 C   0  0  2  0  0  3  0  0  0  0  0  0
  187.4830  175.9620  142.1330 C   0  0  0  0  0  0  0  0  0  0  0  0
  187.7600  177.2400  141.4470 C   0  0  0  0  0  3  0  0  0  0  0  0
  184.8060  178.6690  146.7890 C   0  0  0  0  0  3  0  0  0  0  0  0
  187.6880  177.5530  146.9020 C   0  0  0  0  0  3  0  0  0  0  0  0
  185.7770  179.0090  147.6380 C   0  0  0  0  0  3  0  0  0  0  0  0
  186.0020  177.3170  145.0570 C   0  0  0  0  0  0  0  0  0  0  0  0
  184.8210  177.4130  145.9830 C   0  0  0  0  0  2  0  0  0  0  0  0
  187.2600  177.3190  145.5110 C   0  0  0  0  0  3  0  0  0  0  0  0
  187.0450  178.2820  147.8230 C   0  0  0  0  0  3  0  0  0  0  0  0
  189.5200  172.7790  142.2960 C   0  0  0  0  0  0  0  0  0  0  0  0
  188.2180  174.3420  140.4250 N   0  0  0  0  0  0  0  0  0  0  0  0
  188.8490  173.9440  142.6900 C   0  0  0  0  0  3  0  0  0  0  0  0
  188.1920  174.7270  141.7320 C   0  0  0  0  0  0  0  0  0  0  0  0
  189.5280  172.4170  140.9490 C   0  0  0  0  0  3  0  0  0  0  0  0
  188.8680  173.2150  140.0130 C   0  0  0  0  0  0  0  0  0  0  0  0
  190.0650  172.0640  144.5790 C   0  0  0  0  0  2  0  0  0  0  0  0
  190.2060  171.9160  143.2670 C   0  0  0  0  0  3  0  0  0  0  0  0
  188.8850  172.8440  138.6660 O   0  0  0  0  0  0  0  0  0  0  0  0
  189.0520  173.7790  137.6070 C   0  0  0  0  0  2  0  0  0  0  0  0
  190.4980  173.7990  137.1500 C   0  0  0  0  0  1  0  0  0  0  0  0
  1  5  1  0  0  0  0
  2  4  1  0  0  0  0
  4  3  2  0  0  0  0
  4  5  1  0  0  0  0
  5 11  1  1  0  0  0
  6  1  2  0  0  0  0
  7  2  2  0  0  0  0
  7  6  1  0  0  0  0
  8 10  2  0  0  0  0
  9 14  2  0  0  0  0
 10 14  1  0  0  0  0
 11 13  2  0  0  0  0
 11 12  1  0  0  0  0
 12  8  1  0  0  0  0
 13  9  1  0  0  0  0
 15 17  1  0  0  0  0
 15 22  1  0  0  0  0
 16 18  1  0  0  0  0
 18  6  1  0  0  0  0
 18 17  2  0  0  0  0
 19 15  2  0  0  0  0
 20 16  2  0  0  0  0
 20 19  1  0  0  0  0
 22 21  2  0  0  0  0
 23 20  1  0  0  0  0
 24 23  1  0  0  0  0
 25 24  1  0  0  0  0
M  END
>  <MODEL>
9

>  <REMARK>
 VINA RESULT:      -6.9      3.793      6.266
  Name = 
  5 active torsions:
  status: ('A' for Active; 'I' for Inactive)
    1  A    between atoms: C_1  and  O_21
    2  A    between atoms: C_4  and  C_19
    3  A    between atoms: C_9  and  C_16
    4  A    between atoms: C_13  and  C_20
    5  A    between atoms: O_21  and  C_24
                            x       y       z     vdW  Elec       q    Type
                         _______ _______ _______ _____ _____    ______ ____

>  <TORSDO>
F 5

$$$$
