=
 OpenBabel11042415123D

 45 47  0  0  1  0  0  0  0  0999 V2000
  191.6330  176.0630  143.0970 C   0  0  0  0  0  2  0  0  0  0  0  0
  194.9160  177.9860  146.0840 O   0  0  0  0  0  0  0  0  0  0  0  0
  193.2850  177.1900  144.5830 C   0  0  0  0  0  2  0  0  0  0  0  0
  192.9220  173.5650  143.5670 N   0  0  0  0  0  2  0  0  0  0  0  0
  195.0540  173.2870  145.4170 C   0  0  0  0  0  1  0  0  0  0  0  0
  192.4370  175.9320  144.3860 C   0  0  2  0  0  3  0  0  0  0  0  0
  194.5810  175.6600  146.2660 C   0  0  0  0  0  2  0  0  0  0  0  0
  191.9490  173.6840  142.4820 C   0  0  2  0  0  3  0  0  0  0  0  0
  194.3110  177.0120  145.6680 C   0  0  0  0  0  0  0  0  0  0  0  0
  194.2770  174.5540  145.2960 C   0  0  0  0  0  0  0  0  0  0  0  0
  193.2810  174.6740  144.4030 C   0  0  0  0  0  0  0  0  0  0  0  0
  190.9060  174.7580  142.7880 C   0  0  2  0  0  3  0  0  0  0  0  0
  190.0580  174.9290  141.6560 O   0  0  0  0  0  0  0  0  0  0  0  0
  188.0350  174.1800  142.4900 O   0  0  0  0  0  0  0  0  0  0  0  0
  188.6670  174.9870  141.7570 C   0  0  0  0  0  0  0  0  0  0  0  0
  187.9280  176.0150  140.9750 C   0  0  0  0  0  2  0  0  0  0  0  0
  185.6220  177.5450  140.3090 O   0  0  0  0  0  0  0  0  0  0  0  0
  186.0810  177.6660  141.4750 C   0  0  0  0  0  0  0  0  0  0  0  0
  187.2160  176.8980  141.8860 N   0  0  0  0  0  2  0  0  0  0  0  0
  185.4450  178.5650  142.3890 N   0  0  0  0  0  2  0  0  0  0  0  0
  185.9210  178.8520  143.7400 C   0  0  1  0  0  3  0  0  0  0  0  0
  185.4100  180.2000  144.2190 C   0  0  0  0  0  1  0  0  0  0  0  0
  185.5120  177.7540  144.7120 C   0  0  0  0  0  2  0  0  0  0  0  0
  186.5150  177.6200  145.7700 N   0  0  0  0  0  0  0  0  0  0  0  0
  185.9090  177.3960  147.0900 C   0  0  0  0  0  2  0  0  0  0  0  0
  184.7940  178.3810  147.4320 C   0  0  0  0  0  1  0  0  0  0  0  0
  187.5400  176.6140  145.4520 C   0  0  0  0  0  2  0  0  0  0  0  0
  188.9300  177.2000  145.1890 C   0  0  0  0  0  2  0  0  0  0  0  0
  189.6790  177.3820  146.4950 C   0  0  0  0  0  1  0  0  0  0  0  0
  191.3000  172.3280  142.1560 C   0  0  1  0  0  3  0  0  0  0  0  0
  192.2590  172.5650  139.9090 N   0  0  0  0  0  2  0  0  0  0  0  0
  191.2610  170.7870  138.6570 C   0  0  0  0  0  2  0  0  0  0  0  0
  192.0040  171.6210  140.9910 C   0  0  2  0  0  3  0  0  0  0  0  0
  190.9850  170.2440  140.3560 S   0  0  0  0  0  0  0  0  0  0  0  0
  192.4020  171.7780  138.7010 C   0  0  1  0  0  3  0  0  0  0  0  0
  192.3720  172.6930  137.4890 C   0  0  0  0  0  2  0  0  0  0  0  0
  191.2820  173.7430  137.6390 C   0  0  0  0  0  2  0  0  0  0  0  0
  190.2210  173.5050  136.6730 N   0  0  0  0  0  0  0  0  0  0  0  0
  189.6670  171.6620  135.2010 C   0  0  0  0  0  2  0  0  0  0  0  0
  190.4820  172.6530  135.5480 C   0  0  0  0  0  3  0  0  0  0  0  0
  188.9820  174.2630  136.8100 C   0  0  0  0  0  2  0  0  0  0  0  0
  188.2420  173.8390  138.0700 C   0  0  0  0  0  1  0  0  0  0  0  0
  192.0890  170.4970  143.5760 C   0  0  0  0  0  2  0  0  0  0  0  0
  191.1890  171.4460  143.3680 C   0  0  0  0  0  0  0  0  0  0  0  0
  190.1380  171.6020  144.2640 O   0  0  0  0  0  1  0  0  0  0  0  0
  3  9  1  0  0  0  0
  4 11  1  0  0  0  0
  6  1  1  6  0  0  0
  6 11  1  0  0  0  0
  6  3  1  0  0  0  0
  8 30  1  1  0  0  0
  8 12  1  0  0  0  0
  8  4  1  0  0  0  0
  9  2  2  0  0  0  0
  9  7  1  0  0  0  0
 10  5  1  0  0  0  0
 10  7  1  0  0  0  0
 11 10  2  0  0  0  0
 12 13  1  6  0  0  0
 12  1  1  0  0  0  0
 13 15  1  0  0  0  0
 15 14  2  0  0  0  0
 16 15  1  0  0  0  0
 16 19  1  0  0  0  0
 17 18  2  0  0  0  0
 18 19  1  0  0  0  0
 18 20  1  0  0  0  0
 20 21  1  0  0  0  0
 21 22  1  1  0  0  0
 21 23  1  0  0  0  0
 23 24  1  0  0  0  0
 24 25  1  0  0  0  0
 25 26  1  0  0  0  0
 27 24  1  0  0  0  0
 28 27  1  0  0  0  0
 28 29  1  0  0  0  0
 30 44  1  1  0  0  0
 31 33  1  0  0  0  0
 32 35  1  0  0  0  0
 32 34  1  0  0  0  0
 33 30  1  1  0  0  0
 34 33  1  0  0  0  0
 35 36  1  6  0  0  0
 35 31  1  0  0  0  0
 36 37  1  0  0  0  0
 38 41  1  0  0  0  0
 38 37  1  0  0  0  0
 39 40  2  0  0  0  0
 40 38  1  0  0  0  0
 41 42  1  0  0  0  0
 44 43  2  0  0  0  0
 44 45  1  0  0  0  0
M  END
>  <MODEL>
1

>  <REMARK>
 VINA RESULT:      -6.0      0.000      0.000
  Name = 
  18 active torsions:
  status: ('A' for Active; 'I' for Inactive)
    1  A    between atoms: C_1  and  C_11
    2  A    between atoms: C_1  and  N_14
    3  A    between atoms: C_3  and  C_27
    4  A    between atoms: C_3  and  C_30
    5  A    between atoms: C_3  and  C_33
    6  A    between atoms: C_7  and  C_12
    7  A    between atoms: C_7  and  N_14
    8  A    between atoms: N_10  and  C_18
    9  A    between atoms: C_12  and  N_23
   10  A    between atoms: N_14  and  C_17
   11  A    between atoms: C_15  and  C_24
   12  A    between atoms: C_15  and  C_42
   13  A    between atoms: N_16  and  C_24
   14  A    between atoms: N_16  and  C_26
   15  A    between atoms: N_16  and  C_43
   16  A    between atoms: C_18  and  C_45
   17  A    between atoms: C_38  and  O_41
   18  A    between atoms: O_41  and  C_45
                            x       y       z     vdW  Elec       q    Type
                         _______ _______ _______ _____ _____    ______ ____

>  <TORSDO>
F 18

$$$$
=
 OpenBabel11042415123D

 45 47  0  0  1  0  0  0  0  0999 V2000
  188.2140  175.9430  141.8640 C   0  0  0  0  0  2  0  0  0  0  0  0
  184.4230  178.5770  140.4200 O   0  0  0  0  0  0  0  0  0  0  0  0
  186.2900  177.2540  140.9790 C   0  0  0  0  0  2  0  0  0  0  0  0
  188.0810  177.4050  144.3060 N   0  0  0  0  0  2  0  0  0  0  0  0
  186.0240  179.2850  144.8350 C   0  0  0  0  0  1  0  0  0  0  0  0
  186.8720  176.5740  142.2190 C   0  0  2  0  0  3  0  0  0  0  0  0
  184.7820  178.4610  142.7470 C   0  0  0  0  0  2  0  0  0  0  0  0
  189.2540  176.5810  144.0200 C   0  0  2  0  0  3  0  0  0  0  0  0
  185.1200  178.1370  141.3190 C   0  0  0  0  0  0  0  0  0  0  0  0
  185.9960  178.4050  143.6300 C   0  0  0  0  0  0  0  0  0  0  0  0
  186.9880  177.5330  143.3860 C   0  0  0  0  0  0  0  0  0  0  0  0
  188.8960  175.4020  143.1170 C   0  0  2  0  0  3  0  0  0  0  0  0
  190.0840  174.7020  142.7610 O   0  0  0  0  0  0  0  0  0  0  0  0
  189.3610  172.6580  143.5670 O   0  0  0  0  0  0  0  0  0  0  0  0
  190.2470  173.3320  142.9750 C   0  0  0  0  0  0  0  0  0  0  0  0
  191.4910  172.6680  142.5010 C   0  0  0  0  0  2  0  0  0  0  0  0
  190.6380  170.0320  141.8460 O   0  0  0  0  0  0  0  0  0  0  0  0
  190.8900  170.8140  140.8910 C   0  0  0  0  0  0  0  0  0  0  0  0
  191.2880  172.1630  141.1510 N   0  0  0  0  0  2  0  0  0  0  0  0
  190.7570  170.3440  139.5460 N   0  0  0  0  0  2  0  0  0  0  0  0
  191.0900  171.1230  138.3560 C   0  0  1  0  0  3  0  0  0  0  0  0
  191.7920  170.2600  137.3220 C   0  0  0  0  0  1  0  0  0  0  0  0
  189.8480  171.7670  137.7550 C   0  0  0  0  0  2  0  0  0  0  0  0
  189.9550  173.2250  137.8210 N   0  0  0  0  0  0  0  0  0  0  0  0
  189.1050  173.8010  138.8710 C   0  0  0  0  0  2  0  0  0  0  0  0
  188.0940  172.8170  139.4540 C   0  0  0  0  0  1  0  0  0  0  0  0
  191.3490  173.6850  137.9210 C   0  0  0  0  0  2  0  0  0  0  0  0
  191.9310  174.2080  136.6050 C   0  0  0  0  0  2  0  0  0  0  0  0
  190.8620  174.9310  135.8080 C   0  0  0  0  0  1  0  0  0  0  0  0
  189.9510  176.1250  145.3130 C   0  0  1  0  0  3  0  0  0  0  0  0
  192.1650  176.5280  144.3320 N   0  0  0  0  0  2  0  0  0  0  0  0
  193.6930  175.9410  146.0770 C   0  0  0  0  0  2  0  0  0  0  0  0
  191.3200  176.7920  145.4920 C   0  0  2  0  0  3  0  0  0  0  0  0
  192.1550  176.1690  146.9930 S   0  0  0  0  0  0  0  0  0  0  0  0
  193.5350  176.6930  144.7750 C   0  0  1  0  0  3  0  0  0  0  0  0
  194.4810  176.1500  143.7170 C   0  0  0  0  0  2  0  0  0  0  0  0
  193.7250  175.8370  142.4340 C   0  0  0  0  0  2  0  0  0  0  0  0
  194.4180  174.8010  141.6850 N   0  0  0  0  0  0  0  0  0  0  0  0
  194.5330  175.1880  139.2960 C   0  0  0  0  0  2  0  0  0  0  0  0
  194.0180  174.5330  140.3330 C   0  0  0  0  0  3  0  0  0  0  0  0
  195.3930  173.9760  142.3910 C   0  0  0  0  0  2  0  0  0  0  0  0
  195.1860  172.5080  142.0480 C   0  0  0  0  0  1  0  0  0  0  0  0
  188.5060  175.2400  147.0790 C   0  0  0  0  0  2  0  0  0  0  0  0
  189.0750  176.2990  146.5220 C   0  0  0  0  0  0  0  0  0  0  0  0
  188.8390  177.5620  147.0510 O   0  0  0  0  0  1  0  0  0  0  0  0
  1  6  1  0  0  0  0
  1 12  1  0  0  0  0
  2  9  2  0  0  0  0
  3  9  1  0  0  0  0
  6  3  1  6  0  0  0
  6 11  1  0  0  0  0
  7 10  1  0  0  0  0
  8  4  1  0  0  0  0
  8 30  1  1  0  0  0
  9  7  1  0  0  0  0
 10  5  1  0  0  0  0
 11 10  2  0  0  0  0
 11  4  1  0  0  0  0
 12 13  1  6  0  0  0
 12  8  1  0  0  0  0
 13 15  1  0  0  0  0
 15 14  2  0  0  0  0
 16 15  1  0  0  0  0
 18 19  1  0  0  0  0
 18 17  2  0  0  0  0
 19 16  1  0  0  0  0
 20 18  1  0  0  0  0
 21 22  1  6  0  0  0
 21 20  1  0  0  0  0
 23 24  1  0  0  0  0
 23 21  1  0  0  0  0
 24 27  1  0  0  0  0
 24 25  1  0  0  0  0
 25 26  1  0  0  0  0
 28 27  1  0  0  0  0
 29 28  1  0  0  0  0
 30 44  1  1  0  0  0
 31 35  1  0  0  0  0
 31 33  1  0  0  0  0
 32 34  1  0  0  0  0
 33 30  1  6  0  0  0
 33 34  1  0  0  0  0
 35 36  1  6  0  0  0
 35 32  1  0  0  0  0
 37 36  1  0  0  0  0
 38 41  1  0  0  0  0
 38 37  1  0  0  0  0
 39 40  2  0  0  0  0
 40 38  1  0  0  0  0
 42 41  1  0  0  0  0
 44 45  1  0  0  0  0
 44 43  2  0  0  0  0
M  END
>  <MODEL>
2

>  <REMARK>
 VINA RESULT:      -5.9      2.430      8.094
  Name = 
  18 active torsions:
  status: ('A' for Active; 'I' for Inactive)
    1  A    between atoms: C_1  and  C_11
    2  A    between atoms: C_1  and  N_14
    3  A    between atoms: C_3  and  C_27
    4  A    between atoms: C_3  and  C_30
    5  A    between atoms: C_3  and  C_33
    6  A    between atoms: C_7  and  C_12
    7  A    between atoms: C_7  and  N_14
    8  A    between atoms: N_10  and  C_18
    9  A    between atoms: C_12  and  N_23
   10  A    between atoms: N_14  and  C_17
   11  A    between atoms: C_15  and  C_24
   12  A    between atoms: C_15  and  C_42
   13  A    between atoms: N_16  and  C_24
   14  A    between atoms: N_16  and  C_26
   15  A    between atoms: N_16  and  C_43
   16  A    between atoms: C_18  and  C_45
   17  A    between atoms: C_38  and  O_41
   18  A    between atoms: O_41  and  C_45
                            x       y       z     vdW  Elec       q    Type
                         _______ _______ _______ _____ _____    ______ ____

>  <TORSDO>
F 18

$$$$
=
 OpenBabel11042415123D

 45 47  0  0  1  0  0  0  0  0999 V2000
  187.9560  176.4530  146.7520 C   0  0  0  0  0  2  0  0  0  0  0  0
  183.8930  178.9410  145.9160 O   0  0  0  0  0  0  0  0  0  0  0  0
  185.8130  177.6880  146.4570 C   0  0  0  0  0  2  0  0  0  0  0  0
  188.4940  176.7300  143.9670 N   0  0  0  0  0  2  0  0  0  0  0  0
  186.8300  178.2550  142.2490 C   0  0  0  0  0  1  0  0  0  0  0  0
  187.2800  177.6130  146.0300 C   0  0  2  0  0  3  0  0  0  0  0  0
  185.6000  179.1670  144.3060 C   0  0  0  0  0  2  0  0  0  0  0  0
  189.2850  175.7960  144.7670 C   0  0  2  0  0  3  0  0  0  0  0  0
  185.0180  178.6150  145.5780 C   0  0  0  0  0  0  0  0  0  0  0  0
  186.6390  178.2490  143.7280 C   0  0  0  0  0  0  0  0  0  0  0  0
  187.4250  177.5070  144.5260 C   0  0  0  0  0  0  0  0  0  0  0  0
  189.3730  176.2490  146.2240 C   0  0  2  0  0  3  0  0  0  0  0  0
  190.0400  175.2510  146.9900 O   0  0  0  0  0  0  0  0  0  0  0  0
  191.3650  174.9780  148.8660 O   0  0  0  0  0  0  0  0  0  0  0  0
  191.1870  175.5150  147.7390 C   0  0  0  0  0  0  0  0  0  0  0  0
  192.2060  176.4530  147.1960 C   0  0  0  0  0  2  0  0  0  0  0  0
  194.6390  177.5630  146.2180 O   0  0  0  0  0  0  0  0  0  0  0  0
  194.4720  176.3220  146.0840 C   0  0  0  0  0  0  0  0  0  0  0  0
  193.2880  175.6960  146.5850 N   0  0  0  0  0  2  0  0  0  0  0  0
  195.4870  175.5440  145.4410 N   0  0  0  0  0  2  0  0  0  0  0  0
  195.3830  174.1150  145.1560 C   0  0  1  0  0  3  0  0  0  0  0  0
  194.4480  173.8620  143.9860 C   0  0  0  0  0  1  0  0  0  0  0  0
  196.7520  173.5090  144.8790 C   0  0  0  0  0  2  0  0  0  0  0  0
  196.6360  172.0590  144.7170 N   0  0  0  0  0  0  0  0  0  0  0  0
  197.4780  171.5490  143.6250 C   0  0  0  0  0  2  0  0  0  0  0  0
  196.6950  170.8490  142.5180 C   0  0  0  0  0  1  0  0  0  0  0  0
  196.8570  171.3290  145.9750 C   0  0  0  0  0  2  0  0  0  0  0  0
  195.9270  170.1300  146.1750 C   0  0  0  0  0  2  0  0  0  0  0  0
  194.5290  170.4640  145.6910 C   0  0  0  0  0  1  0  0  0  0  0  0
  190.6750  175.5640  144.1510 C   0  0  1  0  0  3  0  0  0  0  0  0
  189.9800  174.9410  141.8820 N   0  0  0  0  0  2  0  0  0  0  0  0
  188.8450  172.8550  142.1690 C   0  0  0  0  0  2  0  0  0  0  0  0
  190.6530  174.4640  143.0840 C   0  0  2  0  0  3  0  0  0  0  0  0
  189.7910  172.9760  143.7010 S   0  0  0  0  0  0  0  0  0  0  0  0
  189.5230  173.7640  141.1700 C   0  0  1  0  0  3  0  0  0  0  0  0
  188.5610  174.1750  140.0700 C   0  0  0  0  0  2  0  0  0  0  0  0
  188.2010  172.9800  139.2000 C   0  0  0  0  0  2  0  0  0  0  0  0
  189.3150  172.6400  138.3300 N   0  0  0  0  0  0  0  0  0  0  0  0
  190.7010  170.8670  137.4330 C   0  0  0  0  0  2  0  0  0  0  0  0
  189.8040  171.2910  138.3180 C   0  0  0  0  0  3  0  0  0  0  0  0
  189.9860  173.7210  137.6150 C   0  0  0  0  0  2  0  0  0  0  0  0
  189.1480  174.1660  136.4260 C   0  0  0  0  0  1  0  0  0  0  0  0
  192.3400  176.7830  142.8350 C   0  0  0  0  0  2  0  0  0  0  0  0
  191.2890  176.8370  143.6390 C   0  0  0  0  0  0  0  0  0  0  0  0
  190.7760  178.0730  144.0170 O   0  0  0  0  0  1  0  0  0  0  0  0
  4 11  1  0  0  0  0
  4  8  1  0  0  0  0
  5 10  1  0  0  0  0
  6  3  1  6  0  0  0
  6  1  1  0  0  0  0
  7  9  1  0  0  0  0
  8 30  1  6  0  0  0
  8 12  1  0  0  0  0
  9  2  2  0  0  0  0
  9  3  1  0  0  0  0
 10  7  1  0  0  0  0
 10 11  2  0  0  0  0
 11  6  1  0  0  0  0
 12  1  1  0  0  0  0
 12 13  1  1  0  0  0
 13 15  1  0  0  0  0
 15 14  2  0  0  0  0
 16 15  1  0  0  0  0
 18 17  2  0  0  0  0
 18 19  1  0  0  0  0
 19 16  1  0  0  0  0
 20 18  1  0  0  0  0
 21 22  1  6  0  0  0
 21 20  1  0  0  0  0
 23 21  1  0  0  0  0
 24 23  1  0  0  0  0
 24 27  1  0  0  0  0
 25 24  1  0  0  0  0
 26 25  1  0  0  0  0
 27 28  1  0  0  0  0
 29 28  1  0  0  0  0
 30 44  1  6  0  0  0
 31 33  1  0  0  0  0
 32 34  1  0  0  0  0
 33 34  1  0  0  0  0
 33 30  1  1  0  0  0
 35 36  1  6  0  0  0
 35 31  1  0  0  0  0
 35 32  1  0  0  0  0
 37 36  1  0  0  0  0
 38 37  1  0  0  0  0
 39 40  2  0  0  0  0
 40 38  1  0  0  0  0
 41 38  1  0  0  0  0
 42 41  1  0  0  0  0
 43 44  2  0  0  0  0
 44 45  1  0  0  0  0
M  END
>  <MODEL>
3

>  <REMARK>
 VINA RESULT:      -5.9      2.602      7.834
  Name = 
  18 active torsions:
  status: ('A' for Active; 'I' for Inactive)
    1  A    between atoms: C_1  and  C_11
    2  A    between atoms: C_1  and  N_14
    3  A    between atoms: C_3  and  C_27
    4  A    between atoms: C_3  and  C_30
    5  A    between atoms: C_3  and  C_33
    6  A    between atoms: C_7  and  C_12
    7  A    between atoms: C_7  and  N_14
    8  A    between atoms: N_10  and  C_18
    9  A    between atoms: C_12  and  N_23
   10  A    between atoms: N_14  and  C_17
   11  A    between atoms: C_15  and  C_24
   12  A    between atoms: C_15  and  C_42
   13  A    between atoms: N_16  and  C_24
   14  A    between atoms: N_16  and  C_26
   15  A    between atoms: N_16  and  C_43
   16  A    between atoms: C_18  and  C_45
   17  A    between atoms: C_38  and  O_41
   18  A    between atoms: O_41  and  C_45
                            x       y       z     vdW  Elec       q    Type
                         _______ _______ _______ _____ _____    ______ ____

>  <TORSDO>
F 18

$$$$
=
 OpenBabel11042415123D

 45 47  0  0  1  0  0  0  0  0999 V2000
  187.4040  176.4620  142.5110 C   0  0  0  0  0  2  0  0  0  0  0  0
  183.5430  179.0020  143.9380 O   0  0  0  0  0  0  0  0  0  0  0  0
  185.3830  177.7930  143.1000 C   0  0  0  0  0  2  0  0  0  0  0  0
  188.3450  176.7150  145.1890 N   0  0  0  0  0  2  0  0  0  0  0  0
  186.7980  177.9370  147.2280 C   0  0  0  0  0  1  0  0  0  0  0  0
  186.3580  176.7210  143.5890 C   0  0  2  0  0  3  0  0  0  0  0  0
  184.7810  177.9460  145.6440 C   0  0  0  0  0  2  0  0  0  0  0  0
  189.2510  176.2340  144.1470 C   0  0  2  0  0  3  0  0  0  0  0  0
  184.5060  178.3040  144.2110 C   0  0  0  0  0  0  0  0  0  0  0  0
  186.2380  177.6590  145.8740 C   0  0  0  0  0  0  0  0  0  0  0  0
  186.9900  177.0950  144.9140 C   0  0  0  0  0  0  0  0  0  0  0  0
  188.4850  175.5200  143.0330 C   0  0  2  0  0  3  0  0  0  0  0  0
  189.3850  175.1820  141.9820 O   0  0  0  0  0  0  0  0  0  0  0  0
  188.4230  173.4830  140.7430 O   0  0  0  0  0  0  0  0  0  0  0  0
  189.4140  173.9190  141.3890 C   0  0  0  0  0  0  0  0  0  0  0  0
  190.6320  173.0790  141.5340 C   0  0  0  0  0  2  0  0  0  0  0  0
  192.8280  171.5720  140.5280 O   0  0  0  0  0  0  0  0  0  0  0  0
  192.7830  172.7970  140.2380 C   0  0  0  0  0  0  0  0  0  0  0  0
  191.6890  173.6030  140.6810 N   0  0  0  0  0  2  0  0  0  0  0  0
  193.8300  173.3680  139.4460 N   0  0  0  0  0  2  0  0  0  0  0  0
  193.9360  174.7840  139.1050 C   0  0  1  0  0  3  0  0  0  0  0  0
  195.1000  175.4320  139.8360 C   0  0  0  0  0  1  0  0  0  0  0  0
  194.0800  174.9790  137.6020 C   0  0  0  0  0  2  0  0  0  0  0  0
  192.7840  175.3190  137.0130 N   0  0  0  0  0  0  0  0  0  0  0  0
  192.8840  176.4120  136.0360 C   0  0  0  0  0  2  0  0  0  0  0  0
  194.2800  176.5830  135.4430 C   0  0  0  0  0  1  0  0  0  0  0  0
  192.0870  174.1450  136.4640 C   0  0  0  0  0  2  0  0  0  0  0  0
  190.7870  173.7930  137.1900 C   0  0  0  0  0  2  0  0  0  0  0  0
  189.5940  174.3330  136.4250 C   0  0  0  0  0  1  0  0  0  0  0  0
  190.3680  175.3530  144.7320 C   0  0  1  0  0  3  0  0  0  0  0  0
  192.5430  176.4860  144.6470 N   0  0  0  0  0  2  0  0  0  0  0  0
  193.7040  175.6670  146.5710 C   0  0  0  0  0  2  0  0  0  0  0  0
  191.4040  176.1790  145.5040 C   0  0  2  0  0  3  0  0  0  0  0  0
  191.9910  175.2710  146.9760 S   0  0  0  0  0  0  0  0  0  0  0  0
  193.6600  176.7610  145.5290 C   0  0  1  0  0  3  0  0  0  0  0  0
  194.9470  176.7970  144.7240 C   0  0  0  0  0  2  0  0  0  0  0  0
  194.8500  175.8770  143.5170 C   0  0  0  0  0  2  0  0  0  0  0  0
  195.5660  174.6370  143.7730 N   0  0  0  0  0  0  0  0  0  0  0  0
  193.6830  173.1140  143.8350 C   0  0  0  0  0  2  0  0  0  0  0  0
  194.9300  173.3880  143.4650 C   0  0  0  0  0  3  0  0  0  0  0  0
  196.8450  174.7120  144.4720 C   0  0  0  0  0  2  0  0  0  0  0  0
  196.8370  173.7930  145.6840 C   0  0  0  0  0  1  0  0  0  0  0  0
  189.9410  172.9730  145.1150 C   0  0  0  0  0  2  0  0  0  0  0  0
  189.8230  174.2180  145.5540 C   0  0  0  0  0  0  0  0  0  0  0  0
  189.1790  174.4620  146.7610 O   0  0  0  0  0  1  0  0  0  0  0  0
  1 12  1  0  0  0  0
  2  9  2  0  0  0  0
  3  6  1  0  0  0  0
  3  9  1  0  0  0  0
  6  1  1  6  0  0  0
  6 11  1  0  0  0  0
  7 10  1  0  0  0  0
  8 30  1  1  0  0  0
  8  4  1  0  0  0  0
  9  7  1  0  0  0  0
 10  5  1  0  0  0  0
 11  4  1  0  0  0  0
 11 10  2  0  0  0  0
 12 13  1  6  0  0  0
 12  8  1  0  0  0  0
 14 15  2  0  0  0  0
 15 16  1  0  0  0  0
 15 13  1  0  0  0  0
 18 17  2  0  0  0  0
 18 19  1  0  0  0  0
 19 16  1  0  0  0  0
 20 18  1  0  0  0  0
 21 20  1  0  0  0  0
 21 22  1  1  0  0  0
 23 21  1  0  0  0  0
 24 23  1  0  0  0  0
 25 24  1  0  0  0  0
 26 25  1  0  0  0  0
 27 24  1  0  0  0  0
 27 28  1  0  0  0  0
 29 28  1  0  0  0  0
 30 44  1  1  0  0  0
 31 33  1  0  0  0  0
 31 35  1  0  0  0  0
 32 34  1  0  0  0  0
 33 30  1  6  0  0  0
 33 34  1  0  0  0  0
 35 36  1  6  0  0  0
 35 32  1  0  0  0  0
 37 38  1  0  0  0  0
 37 36  1  0  0  0  0
 38 41  1  0  0  0  0
 40 38  1  0  0  0  0
 40 39  2  0  0  0  0
 41 42  1  0  0  0  0
 43 44  2  0  0  0  0
 44 45  1  0  0  0  0
M  END
>  <MODEL>
4

>  <REMARK>
 VINA RESULT:      -5.9      2.667      8.504
  Name = 
  18 active torsions:
  status: ('A' for Active; 'I' for Inactive)
    1  A    between atoms: C_1  and  C_11
    2  A    between atoms: C_1  and  N_14
    3  A    between atoms: C_3  and  C_27
    4  A    between atoms: C_3  and  C_30
    5  A    between atoms: C_3  and  C_33
    6  A    between atoms: C_7  and  C_12
    7  A    between atoms: C_7  and  N_14
    8  A    between atoms: N_10  and  C_18
    9  A    between atoms: C_12  and  N_23
   10  A    between atoms: N_14  and  C_17
   11  A    between atoms: C_15  and  C_24
   12  A    between atoms: C_15  and  C_42
   13  A    between atoms: N_16  and  C_24
   14  A    between atoms: N_16  and  C_26
   15  A    between atoms: N_16  and  C_43
   16  A    between atoms: C_18  and  C_45
   17  A    between atoms: C_38  and  O_41
   18  A    between atoms: O_41  and  C_45
                            x       y       z     vdW  Elec       q    Type
                         _______ _______ _______ _____ _____    ______ ____

>  <TORSDO>
F 18

$$$$
=
 OpenBabel11042415123D

 45 47  0  0  1  0  0  0  0  0999 V2000
  188.2190  176.0920  141.9430 C   0  0  0  0  0  2  0  0  0  0  0  0
  184.3670  178.6640  140.5530 O   0  0  0  0  0  0  0  0  0  0  0  0
  186.2660  177.3780  141.0840 C   0  0  0  0  0  2  0  0  0  0  0  0
  188.0180  177.4610  144.4350 N   0  0  0  0  0  2  0  0  0  0  0  0
  185.9010  179.2600  145.0070 C   0  0  0  0  0  1  0  0  0  0  0  0
  186.8560  176.6710  142.3060 C   0  0  2  0  0  3  0  0  0  0  0  0
  184.7050  178.4750  142.8780 C   0  0  0  0  0  2  0  0  0  0  0  0
  189.2180  176.6830  144.1330 C   0  0  2  0  0  3  0  0  0  0  0  0
  185.0670  178.2130  141.4430 C   0  0  0  0  0  0  0  0  0  0  0  0
  185.9120  178.4240  143.7720 C   0  0  0  0  0  0  0  0  0  0  0  0
  186.9310  177.5900  143.5080 C   0  0  0  0  0  0  0  0  0  0  0  0
  188.9040  175.5260  143.1840 C   0  0  2  0  0  3  0  0  0  0  0  0
  190.1160  174.8750  142.8160 O   0  0  0  0  0  0  0  0  0  0  0  0
  191.4040  173.1090  143.5740 O   0  0  0  0  0  0  0  0  0  0  0  0
  190.3390  173.5140  143.0350 C   0  0  0  0  0  0  0  0  0  0  0  0
  189.3010  172.5350  142.6150 C   0  0  0  0  0  2  0  0  0  0  0  0
  188.6280  173.3590  139.9740 O   0  0  0  0  0  0  0  0  0  0  0  0
  189.3250  172.3170  140.0970 C   0  0  0  0  0  0  0  0  0  0  0  0
  189.7280  171.8680  141.3940 N   0  0  0  0  0  2  0  0  0  0  0  0
  189.7230  171.5980  138.9250 N   0  0  0  0  0  2  0  0  0  0  0  0
  190.4640  170.3400  138.9340 C   0  0  1  0  0  3  0  0  0  0  0  0
  190.0270  169.4450  137.7860 C   0  0  0  0  0  1  0  0  0  0  0  0
  191.9650  170.5850  138.8720 C   0  0  0  0  0  2  0  0  0  0  0  0
  192.2330  171.9550  138.4290 N   0  0  0  0  0  0  0  0  0  0  0  0
  193.1240  172.6750  139.3490 C   0  0  0  0  0  2  0  0  0  0  0  0
  192.4850  173.9030  139.9920 C   0  0  0  0  0  1  0  0  0  0  0  0
  192.7040  172.0170  137.0370 C   0  0  0  0  0  2  0  0  0  0  0  0
  191.6410  172.4760  136.0360 C   0  0  0  0  0  2  0  0  0  0  0  0
  191.0210  173.7830  136.4910 C   0  0  0  0  0  1  0  0  0  0  0  0
  189.9160  176.2010  145.4160 C   0  0  1  0  0  3  0  0  0  0  0  0
  192.1760  176.5840  144.5400 N   0  0  0  0  0  2  0  0  0  0  0  0
  193.6090  176.1220  146.3990 C   0  0  0  0  0  2  0  0  0  0  0  0
  191.2630  176.8990  145.6330 C   0  0  2  0  0  3  0  0  0  0  0  0
  192.0190  176.3770  147.2120 S   0  0  0  0  0  0  0  0  0  0  0  0
  193.5170  176.7950  145.0480 C   0  0  1  0  0  3  0  0  0  0  0  0
  194.5280  176.2090  144.0790 C   0  0  0  0  0  2  0  0  0  0  0  0
  195.6710  175.5470  144.8350 C   0  0  0  0  0  2  0  0  0  0  0  0
  196.7210  175.1520  143.9100 N   0  0  0  0  0  0  0  0  0  0  0  0
  197.5990  173.0110  144.6280 C   0  0  0  0  0  2  0  0  0  0  0  0
  197.7800  174.3040  144.3780 C   0  0  0  0  0  3  0  0  0  0  0  0
  196.7320  175.7570  142.5820 C   0  0  0  0  0  2  0  0  0  0  0  0
  197.9410  175.2740  141.7940 C   0  0  0  0  0  1  0  0  0  0  0  0
  188.5170  175.2100  147.1630 C   0  0  0  0  0  2  0  0  0  0  0  0
  189.0230  176.3070  146.6210 C   0  0  0  0  0  0  0  0  0  0  0  0
  188.7070  177.5480  147.1620 O   0  0  0  0  0  1  0  0  0  0  0  0
  1  6  1  0  0  0  0
  1 12  1  0  0  0  0
  2  9  2  0  0  0  0
  3  9  1  0  0  0  0
  6  3  1  6  0  0  0
  6 11  1  0  0  0  0
  7 10  1  0  0  0  0
  8  4  1  0  0  0  0
  8 30  1  1  0  0  0
  9  7  1  0  0  0  0
 10  5  1  0  0  0  0
 11 10  2  0  0  0  0
 11  4  1  0  0  0  0
 12 13  1  6  0  0  0
 12  8  1  0  0  0  0
 13 15  1  0  0  0  0
 15 14  2  0  0  0  0
 16 15  1  0  0  0  0
 17 18  2  0  0  0  0
 18 19  1  0  0  0  0
 19 16  1  0  0  0  0
 20 21  1  0  0  0  0
 20 18  1  0  0  0  0
 21 22  1  6  0  0  0
 23 21  1  0  0  0  0
 24 23  1  0  0  0  0
 24 25  1  0  0  0  0
 25 26  1  0  0  0  0
 27 24  1  0  0  0  0
 28 29  1  0  0  0  0
 28 27  1  0  0  0  0
 30 44  1  1  0  0  0
 31 35  1  0  0  0  0
 31 33  1  0  0  0  0
 32 34  1  0  0  0  0
 33 30  1  6  0  0  0
 33 34  1  0  0  0  0
 35 36  1  6  0  0  0
 35 32  1  0  0  0  0
 36 37  1  0  0  0  0
 38 40  1  0  0  0  0
 38 37  1  0  0  0  0
 40 39  2  0  0  0  0
 41 38  1  0  0  0  0
 42 41  1  0  0  0  0
 44 45  1  0  0  0  0
 44 43  2  0  0  0  0
M  END
>  <MODEL>
5

>  <REMARK>
 VINA RESULT:      -5.8      2.630      8.676
  Name = 
  18 active torsions:
  status: ('A' for Active; 'I' for Inactive)
    1  A    between atoms: C_1  and  C_11
    2  A    between atoms: C_1  and  N_14
    3  A    between atoms: C_3  and  C_27
    4  A    between atoms: C_3  and  C_30
    5  A    between atoms: C_3  and  C_33
    6  A    between atoms: C_7  and  C_12
    7  A    between atoms: C_7  and  N_14
    8  A    between atoms: N_10  and  C_18
    9  A    between atoms: C_12  and  N_23
   10  A    between atoms: N_14  and  C_17
   11  A    between atoms: C_15  and  C_24
   12  A    between atoms: C_15  and  C_42
   13  A    between atoms: N_16  and  C_24
   14  A    between atoms: N_16  and  C_26
   15  A    between atoms: N_16  and  C_43
   16  A    between atoms: C_18  and  C_45
   17  A    between atoms: C_38  and  O_41
   18  A    between atoms: O_41  and  C_45
                            x       y       z     vdW  Elec       q    Type
                         _______ _______ _______ _____ _____    ______ ____

>  <TORSDO>
F 18

$$$$
=
 OpenBabel11042415123D

 45 47  0  0  1  0  0  0  0  0999 V2000
  188.3380  175.8120  141.8850 C   0  0  0  0  0  2  0  0  0  0  0  0
  184.6450  178.4740  140.2520 O   0  0  0  0  0  0  0  0  0  0  0  0
  186.4700  177.1360  140.9040 C   0  0  0  0  0  2  0  0  0  0  0  0
  188.1090  177.2940  144.3090 N   0  0  0  0  0  2  0  0  0  0  0  0
  186.0510  179.2000  144.7290 C   0  0  0  0  0  1  0  0  0  0  0  0
  186.9880  176.4600  142.1740 C   0  0  2  0  0  3  0  0  0  0  0  0
  184.8970  178.3720  142.5930 C   0  0  0  0  0  2  0  0  0  0  0  0
  189.2850  176.4560  144.0820 C   0  0  2  0  0  3  0  0  0  0  0  0
  185.2960  178.0340  141.1840 C   0  0  0  0  0  0  0  0  0  0  0  0
  186.0690  178.3110  143.5310 C   0  0  0  0  0  0  0  0  0  0  0  0
  187.0610  177.4260  143.3390 C   0  0  0  0  0  0  0  0  0  0  0  0
  188.9560  175.2730  143.1720 C   0  0  2  0  0  3  0  0  0  0  0  0
  190.1520  174.5580  142.8750 O   0  0  0  0  0  0  0  0  0  0  0  0
  191.0480  172.9300  144.2530 O   0  0  0  0  0  0  0  0  0  0  0  0
  190.3480  173.2270  143.2470 C   0  0  0  0  0  0  0  0  0  0  0  0
  189.7250  172.1490  142.4330 C   0  0  0  0  0  2  0  0  0  0  0  0
  188.0780  172.7890  140.2010 O   0  0  0  0  0  0  0  0  0  0  0  0
  189.2930  172.5470  139.9750 C   0  0  0  0  0  0  0  0  0  0  0  0
  190.1820  172.2540  141.0560 N   0  0  0  0  0  2  0  0  0  0  0  0
  189.7760  172.5850  138.6280 N   0  0  0  0  0  2  0  0  0  0  0  0
  191.1390  172.2520  138.2250 C   0  0  1  0  0  3  0  0  0  0  0  0
  191.1540  171.5930  136.8560 C   0  0  0  0  0  1  0  0  0  0  0  0
  192.0310  173.4850  138.2270 C   0  0  0  0  0  2  0  0  0  0  0  0
  193.1270  173.3120  139.1820 N   0  0  0  0  0  0  0  0  0  0  0  0
  194.4370  173.2290  138.5210 C   0  0  0  0  0  2  0  0  0  0  0  0
  194.8560  171.8070  138.1590 C   0  0  0  0  0  1  0  0  0  0  0  0
  193.1090  174.3200  140.2540 C   0  0  0  0  0  2  0  0  0  0  0  0
  194.4800  174.5970  140.8750 C   0  0  0  0  0  2  0  0  0  0  0  0
  194.8240  176.0700  140.7550 C   0  0  0  0  0  1  0  0  0  0  0  0
  189.9190  176.0020  145.4080 C   0  0  1  0  0  3  0  0  0  0  0  0
  192.2090  176.5180  144.6920 N   0  0  0  0  0  2  0  0  0  0  0  0
  193.5350  176.1180  146.6420 C   0  0  0  0  0  2  0  0  0  0  0  0
  191.2070  176.7720  145.7210 C   0  0  2  0  0  3  0  0  0  0  0  0
  191.8810  176.2770  147.3460 S   0  0  0  0  0  0  0  0  0  0  0  0
  193.4970  176.7990  145.2930 C   0  0  1  0  0  3  0  0  0  0  0  0
  194.6040  176.2790  144.3920 C   0  0  0  0  0  2  0  0  0  0  0  0
  195.0670  174.9050  144.8530 C   0  0  0  0  0  2  0  0  0  0  0  0
  196.5060  174.7800  144.6870 N   0  0  0  0  0  0  0  0  0  0  0  0
  197.8790  174.6760  142.6940 C   0  0  0  0  0  2  0  0  0  0  0  0
  197.1300  175.3760  143.5400 C   0  0  0  0  0  3  0  0  0  0  0  0
  197.2350  173.9250  145.6180 C   0  0  0  0  0  2  0  0  0  0  0  0
  196.5170  172.5940  145.7840 C   0  0  0  0  0  1  0  0  0  0  0  0
  188.4410  177.2120  146.9390 C   0  0  0  0  0  2  0  0  0  0  0  0
  188.9410  176.0490  146.5490 C   0  0  0  0  0  0  0  0  0  0  0  0
  188.5690  174.8860  147.2130 O   0  0  0  0  0  1  0  0  0  0  0  0
  1  6  1  0  0  0  0
  1 12  1  0  0  0  0
  2  9  2  0  0  0  0
  3  9  1  0  0  0  0
  6  3  1  6  0  0  0
  6 11  1  0  0  0  0
  7 10  1  0  0  0  0
  8  4  1  0  0  0  0
  8 30  1  1  0  0  0
  9  7  1  0  0  0  0
 10  5  1  0  0  0  0
 11 10  2  0  0  0  0
 11  4  1  0  0  0  0
 12 13  1  6  0  0  0
 12  8  1  0  0  0  0
 13 15  1  0  0  0  0
 15 14  2  0  0  0  0
 16 15  1  0  0  0  0
 18 17  2  0  0  0  0
 18 19  1  0  0  0  0
 19 16  1  0  0  0  0
 20 18  1  0  0  0  0
 21 22  1  6  0  0  0
 21 23  1  0  0  0  0
 21 20  1  0  0  0  0
 23 24  1  0  0  0  0
 24 27  1  0  0  0  0
 25 24  1  0  0  0  0
 26 25  1  0  0  0  0
 27 28  1  0  0  0  0
 29 28  1  0  0  0  0
 30 44  1  1  0  0  0
 31 35  1  0  0  0  0
 31 33  1  0  0  0  0
 32 34  1  0  0  0  0
 33 30  1  6  0  0  0
 33 34  1  0  0  0  0
 35 36  1  6  0  0  0
 35 32  1  0  0  0  0
 36 37  1  0  0  0  0
 38 37  1  0  0  0  0
 38 41  1  0  0  0  0
 39 40  2  0  0  0  0
 40 38  1  0  0  0  0
 41 42  1  0  0  0  0
 44 43  2  0  0  0  0
 44 45  1  0  0  0  0
M  END
>  <MODEL>
6

>  <REMARK>
 VINA RESULT:      -5.7      2.563      8.545
  Name = 
  18 active torsions:
  status: ('A' for Active; 'I' for Inactive)
    1  A    between atoms: C_1  and  C_11
    2  A    between atoms: C_1  and  N_14
    3  A    between atoms: C_3  and  C_27
    4  A    between atoms: C_3  and  C_30
    5  A    between atoms: C_3  and  C_33
    6  A    between atoms: C_7  and  C_12
    7  A    between atoms: C_7  and  N_14
    8  A    between atoms: N_10  and  C_18
    9  A    between atoms: C_12  and  N_23
   10  A    between atoms: N_14  and  C_17
   11  A    between atoms: C_15  and  C_24
   12  A    between atoms: C_15  and  C_42
   13  A    between atoms: N_16  and  C_24
   14  A    between atoms: N_16  and  C_26
   15  A    between atoms: N_16  and  C_43
   16  A    between atoms: C_18  and  C_45
   17  A    between atoms: C_38  and  O_41
   18  A    between atoms: O_41  and  C_45
                            x       y       z     vdW  Elec       q    Type
                         _______ _______ _______ _____ _____    ______ ____

>  <TORSDO>
F 18

$$$$
=
 OpenBabel11042415123D

 45 47  0  0  1  0  0  0  0  0999 V2000
  191.9780  174.7300  143.3400 C   0  0  0  0  0  2  0  0  0  0  0  0
  194.5680  177.3660  146.4600 O   0  0  0  0  0  0  0  0  0  0  0  0
  193.2110  176.2000  144.9280 C   0  0  0  0  0  2  0  0  0  0  0  0
  194.2530  173.0240  143.1580 N   0  0  0  0  0  2  0  0  0  0  0  0
  196.5640  173.4090  144.7570 C   0  0  0  0  0  1  0  0  0  0  0  0
  192.9520  174.7510  144.5120 C   0  0  2  0  0  3  0  0  0  0  0  0
  195.2750  175.1410  146.1420 C   0  0  0  0  0  2  0  0  0  0  0  0
  193.1650  172.8830  142.1920 C   0  0  2  0  0  3  0  0  0  0  0  0
  194.3720  176.3120  145.8780 C   0  0  0  0  0  0  0  0  0  0  0  0
  195.3180  174.1990  144.9720 C   0  0  0  0  0  0  0  0  0  0  0  0
  194.2380  174.0160  144.1940 C   0  0  0  0  0  0  0  0  0  0  0  0
  191.8280  173.3120  142.7960 C   0  0  2  0  0  3  0  0  0  0  0  0
  190.8230  173.2800  141.7880 O   0  0  0  0  0  0  0  0  0  0  0  0
  189.3170  171.6600  142.4660 O   0  0  0  0  0  0  0  0  0  0  0  0
  189.5260  172.8240  142.0300 C   0  0  0  0  0  0  0  0  0  0  0  0
  188.3780  173.7300  141.7560 C   0  0  0  0  0  2  0  0  0  0  0  0
  187.6220  176.3560  140.9580 O   0  0  0  0  0  0  0  0  0  0  0  0
  188.1250  176.2210  142.1040 C   0  0  0  0  0  0  0  0  0  0  0  0
  188.4930  174.9240  142.5810 N   0  0  0  0  0  2  0  0  0  0  0  0
  188.3080  177.3760  142.9300 N   0  0  0  0  0  2  0  0  0  0  0  0
  188.9470  177.3650  144.2430 C   0  0  1  0  0  3  0  0  0  0  0  0
  190.2070  178.2140  144.2400 C   0  0  0  0  0  1  0  0  0  0  0  0
  187.9880  177.8450  145.3250 C   0  0  0  0  0  2  0  0  0  0  0  0
  188.0130  176.9240  146.4630 N   0  0  0  0  0  0  0  0  0  0  0  0
  186.7040  176.8150  147.1220 C   0  0  0  0  0  2  0  0  0  0  0  0
  185.5260  176.7940  146.1530 C   0  0  0  0  0  1  0  0  0  0  0  0
  188.5700  175.6080  146.1130 C   0  0  0  0  0  2  0  0  0  0  0  0
  189.3140  174.9190  147.2590 C   0  0  0  0  0  2  0  0  0  0  0  0
  190.6210  175.6350  147.5420 C   0  0  0  0  0  1  0  0  0  0  0  0
  193.1050  171.4580  141.6150 C   0  0  1  0  0  3  0  0  0  0  0  0
  194.1800  172.6970  139.7900 N   0  0  0  0  0  2  0  0  0  0  0  0
  192.9920  172.0030  137.8330 C   0  0  0  0  0  2  0  0  0  0  0  0
  193.7480  171.3750  140.2260 C   0  0  2  0  0  3  0  0  0  0  0  0
  192.5700  170.6970  139.0050 S   0  0  0  0  0  0  0  0  0  0  0  0
  194.2600  172.6490  138.3440 C   0  0  1  0  0  3  0  0  0  0  0  0
  194.4110  174.0560  137.7940 C   0  0  0  0  0  2  0  0  0  0  0  0
  195.2290  174.9170  138.7450 C   0  0  0  0  0  2  0  0  0  0  0  0
  196.5520  175.1580  138.1920 N   0  0  0  0  0  0  0  0  0  0  0  0
  197.6940  175.6490  140.2720 C   0  0  0  0  0  2  0  0  0  0  0  0
  197.6920  175.0980  139.0620 C   0  0  0  0  0  3  0  0  0  0  0  0
  196.6490  175.5980  136.8050 C   0  0  0  0  0  2  0  0  0  0  0  0
  197.9030  175.0290  136.1590 C   0  0  0  0  0  1  0  0  0  0  0  0
  192.9130  169.9510  143.5350 C   0  0  0  0  0  2  0  0  0  0  0  0
  193.6700  170.4380  142.5630 C   0  0  0  0  0  0  0  0  0  0  0  0
  194.9880  170.0130  142.4430 O   0  0  0  0  0  1  0  0  0  0  0  0
  3  9  1  0  0  0  0
  4 11  1  0  0  0  0
  5 10  1  0  0  0  0
  6  1  1  6  0  0  0
  6  3  1  0  0  0  0
  8 30  1  1  0  0  0
  8 12  1  0  0  0  0
  8  4  1  0  0  0  0
  9  7  1  0  0  0  0
  9  2  2  0  0  0  0
 10  7  1  0  0  0  0
 11  6  1  0  0  0  0
 11 10  2  0  0  0  0
 12 13  1  6  0  0  0
 12  1  1  0  0  0  0
 13 15  1  0  0  0  0
 15 14  2  0  0  0  0
 16 15  1  0  0  0  0
 16 19  1  0  0  0  0
 17 18  2  0  0  0  0
 18 19  1  0  0  0  0
 18 20  1  0  0  0  0
 20 21  1  0  0  0  0
 21 22  1  6  0  0  0
 21 23  1  0  0  0  0
 23 24  1  0  0  0  0
 24 25  1  0  0  0  0
 26 25  1  0  0  0  0
 27 24  1  0  0  0  0
 27 28  1  0  0  0  0
 28 29  1  0  0  0  0
 30 44  1  1  0  0  0
 31 33  1  0  0  0  0
 32 35  1  0  0  0  0
 32 34  1  0  0  0  0
 33 30  1  1  0  0  0
 34 33  1  0  0  0  0
 35 36  1  6  0  0  0
 35 31  1  0  0  0  0
 36 37  1  0  0  0  0
 38 37  1  0  0  0  0
 38 40  1  0  0  0  0
 40 39  2  0  0  0  0
 41 38  1  0  0  0  0
 42 41  1  0  0  0  0
 44 43  2  0  0  0  0
 45 44  1  0  0  0  0
M  END
>  <MODEL>
7

>  <REMARK>
 VINA RESULT:      -5.6      2.620      3.684
  Name = 
  18 active torsions:
  status: ('A' for Active; 'I' for Inactive)
    1  A    between atoms: C_1  and  C_11
    2  A    between atoms: C_1  and  N_14
    3  A    between atoms: C_3  and  C_27
    4  A    between atoms: C_3  and  C_30
    5  A    between atoms: C_3  and  C_33
    6  A    between atoms: C_7  and  C_12
    7  A    between atoms: C_7  and  N_14
    8  A    between atoms: N_10  and  C_18
    9  A    between atoms: C_12  and  N_23
   10  A    between atoms: N_14  and  C_17
   11  A    between atoms: C_15  and  C_24
   12  A    between atoms: C_15  and  C_42
   13  A    between atoms: N_16  and  C_24
   14  A    between atoms: N_16  and  C_26
   15  A    between atoms: N_16  and  C_43
   16  A    between atoms: C_18  and  C_45
   17  A    between atoms: C_38  and  O_41
   18  A    between atoms: O_41  and  C_45
                            x       y       z     vdW  Elec       q    Type
                         _______ _______ _______ _____ _____    ______ ____

>  <TORSDO>
F 18

$$$$
=
 OpenBabel11042415123D

 45 47  0  0  1  0  0  0  0  0999 V2000
  194.1040  175.8800  142.3780 C   0  0  0  0  0  2  0  0  0  0  0  0
  197.6410  175.9260  139.0810 O   0  0  0  0  0  0  0  0  0  0  0  0
  195.8700  176.0350  140.6290 C   0  0  0  0  0  2  0  0  0  0  0  0
  194.7310  173.1260  142.7610 N   0  0  0  0  0  2  0  0  0  0  0  0
  196.9070  171.8730  141.4430 C   0  0  0  0  0  1  0  0  0  0  0  0
  195.5070  175.4300  141.9860 C   0  0  2  0  0  3  0  0  0  0  0  0
  197.7150  174.1770  140.6600 C   0  0  0  0  0  2  0  0  0  0  0  0
  193.5000  173.6730  143.3300 C   0  0  2  0  0  3  0  0  0  0  0  0
  197.1090  175.4100  140.0490 C   0  0  0  0  0  0  0  0  0  0  0  0
  196.6840  173.3460  141.3690 C   0  0  0  0  0  0  0  0  0  0  0  0
  195.6380  173.9210  141.9850 C   0  0  0  0  0  0  0  0  0  0  0  0
  193.6490  175.1610  143.6460 C   0  0  2  0  0  3  0  0  0  0  0  0
  192.3940  175.6800  144.0760 O   0  0  0  0  0  0  0  0  0  0  0  0
  191.5900  177.6380  143.1430 O   0  0  0  0  0  0  0  0  0  0  0  0
  191.5360  176.3810  143.2280 C   0  0  0  0  0  0  0  0  0  0  0  0
  190.5400  175.6260  142.4210 C   0  0  0  0  0  2  0  0  0  0  0  0
  188.2250  174.9790  140.8950 O   0  0  0  0  0  0  0  0  0  0  0  0
  188.1040  175.8590  141.7870 C   0  0  0  0  0  0  0  0  0  0  0  0
  189.2190  176.2060  142.6130 N   0  0  0  0  0  2  0  0  0  0  0  0
  186.8360  176.4960  141.9760 N   0  0  0  0  0  2  0  0  0  0  0  0
  186.5830  177.5810  142.9200 C   0  0  1  0  0  3  0  0  0  0  0  0
  185.7140  178.6560  142.2900 C   0  0  0  0  0  1  0  0  0  0  0  0
  185.9390  177.0600  144.1970 C   0  0  0  0  0  2  0  0  0  0  0  0
  186.5300  177.7200  145.3630 N   0  0  0  0  0  0  0  0  0  0  0  0
  185.6540  178.7600  145.9200 C   0  0  0  0  0  2  0  0  0  0  0  0
  184.8100  178.2890  147.1010 C   0  0  0  0  0  1  0  0  0  0  0  0
  186.9750  176.7630  146.3880 C   0  0  0  0  0  2  0  0  0  0  0  0
  188.4930  176.7200  146.5860 C   0  0  0  0  0  2  0  0  0  0  0  0
  188.9430  175.3040  146.8920 C   0  0  0  0  0  1  0  0  0  0  0  0
  193.0400  172.8680  144.5570 C   0  0  1  0  0  3  0  0  0  0  0  0
  192.0080  171.5070  142.7960 N   0  0  0  0  0  2  0  0  0  0  0  0
  189.6780  172.0300  142.9420 C   0  0  0  0  0  2  0  0  0  0  0  0
  191.9300  171.8710  144.2060 C   0  0  2  0  0  3  0  0  0  0  0  0
  190.2840  172.5840  144.5490 S   0  0  0  0  0  0  0  0  0  0  0  0
  190.6900  171.0360  142.4180 C   0  0  1  0  0  3  0  0  0  0  0  0
  190.6040  170.9200  140.9070 C   0  0  0  0  0  2  0  0  0  0  0  0
  190.0690  172.2080  140.3010 C   0  0  0  0  0  2  0  0  0  0  0  0
  191.0080  172.7280  139.3200 N   0  0  0  0  0  0  0  0  0  0  0  0
  189.7530  172.1550  137.3280 C   0  0  0  0  0  2  0  0  0  0  0  0
  190.9170  172.2780  137.9600 C   0  0  0  0  0  3  0  0  0  0  0  0
  192.1000  173.5740  139.7910 C   0  0  0  0  0  2  0  0  0  0  0  0
  193.4290  173.0680  139.2510 C   0  0  0  0  0  1  0  0  0  0  0  0
  194.1950  170.8940  145.4300 C   0  0  0  0  0  2  0  0  0  0  0  0
  194.1900  172.2090  145.2670 C   0  0  0  0  0  0  0  0  0  0  0  0
  195.2400  172.9660  145.7720 O   0  0  0  0  0  1  0  0  0  0  0  0
  1 12  1  0  0  0  0
  2  9  2  0  0  0  0
  4  8  1  0  0  0  0
  6  3  1  6  0  0  0
  6  1  1  0  0  0  0
  7 10  1  0  0  0  0
  8 12  1  0  0  0  0
  8 30  1  1  0  0  0
  9  3  1  0  0  0  0
  9  7  1  0  0  0  0
 10  5  1  0  0  0  0
 10 11  2  0  0  0  0
 11  6  1  0  0  0  0
 11  4  1  0  0  0  0
 12 13  1  6  0  0  0
 14 15  2  0  0  0  0
 15 13  1  0  0  0  0
 16 19  1  0  0  0  0
 16 15  1  0  0  0  0
 17 18  2  0  0  0  0
 18 20  1  0  0  0  0
 18 19  1  0  0  0  0
 20 21  1  0  0  0  0
 21 22  1  6  0  0  0
 21 23  1  0  0  0  0
 23 24  1  0  0  0  0
 24 25  1  0  0  0  0
 24 27  1  0  0  0  0
 25 26  1  0  0  0  0
 27 28  1  0  0  0  0
 28 29  1  0  0  0  0
 30 44  1  6  0  0  0
 31 33  1  0  0  0  0
 32 34  1  0  0  0  0
 33 34  1  0  0  0  0
 33 30  1  6  0  0  0
 35 36  1  6  0  0  0
 35 31  1  0  0  0  0
 35 32  1  0  0  0  0
 37 36  1  0  0  0  0
 38 41  1  0  0  0  0
 38 37  1  0  0  0  0
 39 40  2  0  0  0  0
 40 38  1  0  0  0  0
 42 41  1  0  0  0  0
 44 43  2  0  0  0  0
 44 45  1  0  0  0  0
M  END
>  <MODEL>
8

>  <REMARK>
 VINA RESULT:      -5.6      2.868      3.700
  Name = 
  18 active torsions:
  status: ('A' for Active; 'I' for Inactive)
    1  A    between atoms: C_1  and  C_11
    2  A    between atoms: C_1  and  N_14
    3  A    between atoms: C_3  and  C_27
    4  A    between atoms: C_3  and  C_30
    5  A    between atoms: C_3  and  C_33
    6  A    between atoms: C_7  and  C_12
    7  A    between atoms: C_7  and  N_14
    8  A    between atoms: N_10  and  C_18
    9  A    between atoms: C_12  and  N_23
   10  A    between atoms: N_14  and  C_17
   11  A    between atoms: C_15  and  C_24
   12  A    between atoms: C_15  and  C_42
   13  A    between atoms: N_16  and  C_24
   14  A    between atoms: N_16  and  C_26
   15  A    between atoms: N_16  and  C_43
   16  A    between atoms: C_18  and  C_45
   17  A    between atoms: C_38  and  O_41
   18  A    between atoms: O_41  and  C_45
                            x       y       z     vdW  Elec       q    Type
                         _______ _______ _______ _____ _____    ______ ____

>  <TORSDO>
F 18

$$$$
=
 OpenBabel11042415123D

 45 47  0  0  1  0  0  0  0  0999 V2000
  190.3450  173.8440  144.9480 C   0  0  0  0  0  2  0  0  0  0  0  0
  189.7200  177.6810  147.8250 O   0  0  0  0  0  0  0  0  0  0  0  0
  189.8750  175.8130  146.3990 C   0  0  0  0  0  2  0  0  0  0  0  0
  193.1190  174.5000  144.9660 N   0  0  0  0  0  2  0  0  0  0  0  0
  194.1660  176.6080  146.5490 C   0  0  0  0  0  1  0  0  0  0  0  0
  190.8530  174.6700  146.1260 C   0  0  2  0  0  3  0  0  0  0  0  0
  191.9010  176.7920  147.7390 C   0  0  0  0  0  2  0  0  0  0  0  0
  192.6130  173.5210  144.0050 C   0  0  2  0  0  3  0  0  0  0  0  0
  190.4500  176.8290  147.3490 C   0  0  0  0  0  0  0  0  0  0  0  0
  192.7470  176.1630  146.6680 C   0  0  0  0  0  0  0  0  0  0  0  0
  192.2630  175.1740  145.8980 C   0  0  0  0  0  0  0  0  0  0  0  0
  191.3800  172.7980  144.5460 C   0  0  2  0  0  3  0  0  0  0  0  0
  190.8480  171.9500  143.5330 O   0  0  0  0  0  0  0  0  0  0  0  0
  188.5930  171.9130  143.0160 O   0  0  0  0  0  0  0  0  0  0  0  0
  189.7570  172.3130  142.7410 C   0  0  0  0  0  0  0  0  0  0  0  0
  189.9820  173.1770  141.5520 C   0  0  0  0  0  2  0  0  0  0  0  0
  188.4880  174.2360  139.3710 O   0  0  0  0  0  0  0  0  0  0  0  0
  188.4080  174.8360  140.4760 C   0  0  0  0  0  0  0  0  0  0  0  0
  189.1040  174.3360  141.6200 N   0  0  0  0  0  2  0  0  0  0  0  0
  187.5990  176.0130  140.5760 N   0  0  0  0  0  2  0  0  0  0  0  0
  187.4820  176.8410  141.7730 C   0  0  1  0  0  3  0  0  0  0  0  0
  188.3900  178.0560  141.6840 C   0  0  0  0  0  1  0  0  0  0  0  0
  186.0400  177.2740  142.0040 C   0  0  0  0  0  2  0  0  0  0  0  0
  185.8940  177.8430  143.3450 N   0  0  0  0  0  0  0  0  0  0  0  0
  184.8420  178.8660  143.4060 C   0  0  0  0  0  2  0  0  0  0  0  0
  185.2150  180.0850  144.2460 C   0  0  0  0  0  1  0  0  0  0  0  0
  185.7270  176.8120  144.3810 C   0  0  0  0  0  2  0  0  0  0  0  0
  186.6370  176.9950  145.5980 C   0  0  0  0  0  2  0  0  0  0  0  0
  185.8060  177.1300  146.8600 C   0  0  0  0  0  1  0  0  0  0  0  0
  193.7130  172.5370  143.5710 C   0  0  1  0  0  3  0  0  0  0  0  0
  194.4780  173.9620  141.7250 N   0  0  0  0  0  2  0  0  0  0  0  0
  196.3880  172.8150  140.8540 C   0  0  0  0  0  2  0  0  0  0  0  0
  194.9040  173.2560  142.9270 C   0  0  2  0  0  3  0  0  0  0  0  0
  196.2200  172.0670  142.4870 S   0  0  0  0  0  0  0  0  0  0  0  0
  195.6620  174.1410  140.9090 C   0  0  1  0  0  3  0  0  0  0  0  0
  195.2590  174.5970  139.5180 C   0  0  0  0  0  2  0  0  0  0  0  0
  193.7770  174.3490  139.2820 C   0  0  0  0  0  2  0  0  0  0  0  0
  193.5680  173.7820  137.9590 N   0  0  0  0  0  0  0  0  0  0  0  0
  193.1680  175.7750  136.6400 C   0  0  0  0  0  2  0  0  0  0  0  0
  193.7840  174.6080  136.8050 C   0  0  0  0  0  3  0  0  0  0  0  0
  193.0040  172.4400  137.8650 C   0  0  0  0  0  2  0  0  0  0  0  0
  192.8490  171.8360  139.2530 C   0  0  0  0  0  1  0  0  0  0  0  0
  193.8190  170.3450  144.6550 C   0  0  0  0  0  2  0  0  0  0  0  0
  194.1380  171.6310  144.6920 C   0  0  0  0  0  0  0  0  0  0  0  0
  194.8470  172.1300  145.7780 O   0  0  0  0  0  1  0  0  0  0  0  0
  3  9  1  0  0  0  0
  4 11  1  0  0  0  0
  5 10  1  0  0  0  0
  6  1  1  6  0  0  0
  6  3  1  0  0  0  0
  8 30  1  1  0  0  0
  8 12  1  0  0  0  0
  8  4  1  0  0  0  0
  9  7  1  0  0  0  0
  9  2  2  0  0  0  0
 10  7  1  0  0  0  0
 11  6  1  0  0  0  0
 11 10  2  0  0  0  0
 12 13  1  6  0  0  0
 12  1  1  0  0  0  0
 15 14  2  0  0  0  0
 15 13  1  0  0  0  0
 16 19  1  0  0  0  0
 16 15  1  0  0  0  0
 17 18  2  0  0  0  0
 18 20  1  0  0  0  0
 18 19  1  0  0  0  0
 20 21  1  0  0  0  0
 21 22  1  6  0  0  0
 21 23  1  0  0  0  0
 23 24  1  0  0  0  0
 24 25  1  0  0  0  0
 24 27  1  0  0  0  0
 25 26  1  0  0  0  0
 27 28  1  0  0  0  0
 28 29  1  0  0  0  0
 30 44  1  1  0  0  0
 31 33  1  0  0  0  0
 32 35  1  0  0  0  0
 32 34  1  0  0  0  0
 33 30  1  6  0  0  0
 34 33  1  0  0  0  0
 35 36  1  6  0  0  0
 35 31  1  0  0  0  0
 37 36  1  0  0  0  0
 38 37  1  0  0  0  0
 39 40  2  0  0  0  0
 40 38  1  0  0  0  0
 41 38  1  0  0  0  0
 41 42  1  0  0  0  0
 43 44  2  0  0  0  0
 44 45  1  0  0  0  0
M  END
>  <MODEL>
9

>  <REMARK>
 VINA RESULT:      -5.6      2.517      3.727
  Name = 
  18 active torsions:
  status: ('A' for Active; 'I' for Inactive)
    1  A    between atoms: C_1  and  C_11
    2  A    between atoms: C_1  and  N_14
    3  A    between atoms: C_3  and  C_27
    4  A    between atoms: C_3  and  C_30
    5  A    between atoms: C_3  and  C_33
    6  A    between atoms: C_7  and  C_12
    7  A    between atoms: C_7  and  N_14
    8  A    between atoms: N_10  and  C_18
    9  A    between atoms: C_12  and  N_23
   10  A    between atoms: N_14  and  C_17
   11  A    between atoms: C_15  and  C_24
   12  A    between atoms: C_15  and  C_42
   13  A    between atoms: N_16  and  C_24
   14  A    between atoms: N_16  and  C_26
   15  A    between atoms: N_16  and  C_43
   16  A    between atoms: C_18  and  C_45
   17  A    between atoms: C_38  and  O_41
   18  A    between atoms: O_41  and  C_45
                            x       y       z     vdW  Elec       q    Type
                         _______ _______ _______ _____ _____    ______ ____

>  <TORSDO>
F 18

$$$$
