=
 OpenBabel11042416153D

 33 37  0  0  1  0  0  0  0  0999 V2000
  193.6640  176.0890  146.7320 C   0  0  0  0  0  3  0  0  0  0  0  0
  194.3440  176.2620  144.3890 C   0  0  0  0  0  0  0  0  0  0  0  0
  194.6610  176.0300  145.7440 C   0  0  0  0  0  3  0  0  0  0  0  0
  191.1190  176.5240  147.1600 C   0  0  2  0  0  3  0  0  0  0  0  0
  192.6860  176.8050  142.6880 O   0  0  0  0  0  1  0  0  0  0  0  0
  190.1040  176.8620  146.1560 N   0  0  0  0  0  0  0  0  0  0  0  0
  189.9110  177.2130  143.7770 N   0  0  0  0  0  2  0  0  0  0  0  0
  193.0200  176.5620  144.0160 C   0  0  0  0  0  0  0  0  0  0  0  0
  192.0510  176.6110  145.0200 C   0  0  0  0  0  0  0  0  0  0  0  0
  192.3580  176.3750  146.3340 C   0  0  0  0  0  0  0  0  0  0  0  0
  190.6370  176.9060  144.9750 C   0  0  0  0  0  0  0  0  0  0  0  0
  195.2500  173.1280  140.9840 C   0  0  0  0  0  3  0  0  0  0  0  0
  195.3740  176.1960  143.4080 N   0  0  0  0  0  0  0  0  0  0  0  0
  196.0580  175.5420  142.2600 C   0  0  1  0  0  0  0  0  0  0  0  0
  197.8520  173.4520  140.3170 Cl  0  0  0  0  0  0  0  0  0  0  0  0
  195.2150  175.6030  140.9870 C   0  0  0  0  0  2  0  0  0  0  0  0
  194.5890  174.2630  140.7120 C   0  0  0  0  0  3  0  0  0  0  0  0
  196.6310  173.1600  141.5850 C   0  0  1  0  0  3  0  0  0  0  0  0
  196.6010  176.7170  142.7270 C   0  0  0  0  0  2  0  0  0  0  0  0
  196.7340  174.2310  142.6790 C   0  0  0  0  0  2  0  0  0  0  0  0
  187.6000  177.1290  144.6690 C   0  0  0  0  0  3  0  0  0  0  0  0
  185.7660  178.1050  143.3970 C   0  0  0  0  0  0  0  0  0  0  0  0
  186.2380  177.4200  144.5460 C   0  0  0  0  0  0  0  0  0  0  0  0
  188.0460  178.1760  142.5430 C   0  0  0  0  0  3  0  0  0  0  0  0
  188.5110  177.5020  143.6730 C   0  0  0  0  0  0  0  0  0  0  0  0
  185.3430  176.9840  145.6560 C   0  0  0  0  0  1  0  0  0  0  0  0
  186.6880  178.4730  142.4080 C   0  0  0  0  0  3  0  0  0  0  0  0
  184.3410  178.4560  143.1800 C   0  0  0  0  0  0  0  0  0  0  0  0
  183.6930  178.0290  142.0250 O   0  0  0  0  0  0  0  0  0  0  0  0
  183.6960  179.1370  144.0190 O   0  0  0  0  0  1  0  0  0  0  0  0
  190.7480  175.2050  147.8290 C   0  0  0  0  0  2  0  0  0  0  0  0
  189.4470  173.8730  146.5510 O   0  0  0  0  0  1  0  0  0  0  0  0
  189.3800  174.8360  147.5010 N   0  0  0  0  0  2  0  0  0  0  0  0
  2  3  1  0  0  0  0
  3  1  2  0  0  0  0
  4 31  1  6  0  0  0
  5  8  1  0  0  0  0
  6  4  1  0  0  0  0
  7 11  1  0  0  0  0
  8  2  2  0  0  0  0
  8  9  1  0  0  0  0
  9 10  2  0  0  0  0
 10  1  1  0  0  0  0
 10  4  1  0  0  0  0
 11  9  1  0  0  0  0
 11  6  2  0  0  0  0
 12 18  1  0  0  0  0
 13  2  1  0  0  0  0
 14 16  1  6  0  0  0
 14 20  1  0  0  0  0
 14 19  1  0  0  0  0
 14 13  1  0  0  0  0
 17 12  2  0  0  0  0
 17 16  1  0  0  0  0
 18 15  1  6  0  0  0
 18 20  1  0  0  0  0
 19 13  1  0  0  0  0
 22 23  2  0  0  0  0
 23 21  1  0  0  0  0
 23 26  1  0  0  0  0
 24 25  1  0  0  0  0
 25  7  1  0  0  0  0
 25 21  2  0  0  0  0
 27 24  2  0  0  0  0
 27 22  1  0  0  0  0
 28 22  1  0  0  0  0
 28 30  1  0  0  0  0
 29 28  2  0  0  0  0
 32 33  1  0  0  0  0
 33 31  1  0  0  0  0
M  END
>  <MODEL>
1

>  <REMARK>
 VINA RESULT:      -8.2      0.000      0.000
  Name = 
  5 active torsions:
  status: ('A' for Active; 'I' for Inactive)
    1  A    between atoms: C_1  and  C_8
    2  A    between atoms: N_3  and  C_11
    3  A    between atoms: N_13  and  C_18
    4  A    between atoms: C_18  and  C_19
    5  A    between atoms: C_22  and  N_25
                            x       y       z     vdW  Elec       q    Type
                         _______ _______ _______ _____ _____    ______ ____

>  <TORSDO>
F 5

$$$$
=
 OpenBabel11042416153D

 33 37  0  0  1  0  0  0  0  0999 V2000
  189.1860  177.4330  146.9260 C   0  0  0  0  0  3  0  0  0  0  0  0
  188.8340  177.1360  144.5240 C   0  0  0  0  0  0  0  0  0  0  0  0
  188.4690  177.7230  145.7530 C   0  0  0  0  0  3  0  0  0  0  0  0
  191.1820  176.0560  147.9110 C   0  0  2  0  0  3  0  0  0  0  0  0
  190.2950  175.6470  143.2650 O   0  0  0  0  0  1  0  0  0  0  0  0
  192.0680  175.1460  147.1770 N   0  0  0  0  0  0  0  0  0  0  0  0
  192.4140  174.3180  144.9370 N   0  0  0  0  0  2  0  0  0  0  0  0
  189.9230  176.2460  144.4630 C   0  0  0  0  0  0  0  0  0  0  0  0
  190.6170  175.9790  145.6450 C   0  0  0  0  0  0  0  0  0  0  0  0
  190.2680  176.5580  146.8360 C   0  0  0  0  0  0  0  0  0  0  0  0
  191.7420  175.1150  145.9220 C   0  0  0  0  0  0  0  0  0  0  0  0
  184.4800  178.8430  143.9190 C   0  0  0  0  0  3  0  0  0  0  0  0
  188.0900  177.4490  143.3500 N   0  0  0  0  0  0  0  0  0  0  0  0
  186.8660  177.9330  142.6590 C   0  0  1  0  0  0  0  0  0  0  0  0
  183.7570  178.2170  141.3870 Cl  0  0  0  0  0  0  0  0  0  0  0  0
  186.6460  179.4300  142.8750 C   0  0  0  0  0  2  0  0  0  0  0  0
  185.5460  179.6560  143.8760 C   0  0  0  0  0  3  0  0  0  0  0  0
  184.3580  177.6730  142.9760 C   0  0  1  0  0  3  0  0  0  0  0  0
  187.9230  177.5480  141.8660 C   0  0  0  0  0  2  0  0  0  0  0  0
  185.7010  176.9490  142.8170 C   0  0  0  0  0  2  0  0  0  0  0  0
  194.8100  173.9540  145.4570 C   0  0  0  0  0  3  0  0  0  0  0  0
  195.7040  171.6900  145.5640 C   0  0  0  0  0  0  0  0  0  0  0  0
  195.8920  173.0920  145.6630 C   0  0  0  0  0  0  0  0  0  0  0  0
  193.3530  172.0750  145.0560 C   0  0  0  0  0  3  0  0  0  0  0  0
  193.5370  173.4540  145.1530 C   0  0  0  0  0  0  0  0  0  0  0  0
  197.2090  173.7130  145.9820 C   0  0  0  0  0  1  0  0  0  0  0  0
  194.4250  171.2030  145.2590 C   0  0  0  0  0  3  0  0  0  0  0  0
  196.7900  170.7000  145.7650 C   0  0  0  0  0  0  0  0  0  0  0  0
  197.7870  170.5630  144.8030 O   0  0  0  0  0  0  0  0  0  0  0  0
  196.8360  169.9730  146.7910 O   0  0  0  0  0  1  0  0  0  0  0  0
  192.0040  177.1950  148.5020 C   0  0  0  0  0  2  0  0  0  0  0  0
  191.6480  177.9780  150.5900 O   0  0  0  0  0  1  0  0  0  0  0  0
  191.1670  178.0520  149.3270 N   0  0  0  0  0  2  0  0  0  0  0  0
  2  3  1  0  0  0  0
  3  1  2  0  0  0  0
  4 31  1  6  0  0  0
  5  8  1  0  0  0  0
  6  4  1  0  0  0  0
  7 25  1  0  0  0  0
  7 11  1  0  0  0  0
  8  2  2  0  0  0  0
  8  9  1  0  0  0  0
  9 11  1  0  0  0  0
  9 10  2  0  0  0  0
 10  1  1  0  0  0  0
 10  4  1  0  0  0  0
 11  6  2  0  0  0  0
 13  2  1  0  0  0  0
 14 19  1  6  0  0  0
 14 20  1  0  0  0  0
 14 16  1  0  0  0  0
 14 13  1  0  0  0  0
 16 17  1  0  0  0  0
 17 12  2  0  0  0  0
 18 15  1  6  0  0  0
 18 12  1  0  0  0  0
 19 13  1  0  0  0  0
 20 18  1  0  0  0  0
 21 23  1  0  0  0  0
 22 23  2  0  0  0  0
 22 28  1  0  0  0  0
 23 26  1  0  0  0  0
 24 25  1  0  0  0  0
 24 27  2  0  0  0  0
 25 21  2  0  0  0  0
 27 22  1  0  0  0  0
 28 30  1  0  0  0  0
 29 28  2  0  0  0  0
 31 33  1  0  0  0  0
 33 32  1  0  0  0  0
M  END
>  <MODEL>
2

>  <REMARK>
 VINA RESULT:      -8.2      4.194      9.183
  Name = 
  5 active torsions:
  status: ('A' for Active; 'I' for Inactive)
    1  A    between atoms: C_1  and  C_8
    2  A    between atoms: N_3  and  C_11
    3  A    between atoms: N_13  and  C_18
    4  A    between atoms: C_18  and  C_19
    5  A    between atoms: C_22  and  N_25
                            x       y       z     vdW  Elec       q    Type
                         _______ _______ _______ _____ _____    ______ ____

>  <TORSDO>
F 5

$$$$
=
 OpenBabel11042416153D

 33 37  0  0  1  0  0  0  0  0999 V2000
  193.3870  175.1290  141.9970 C   0  0  0  0  0  3  0  0  0  0  0  0
  191.7470  173.6990  140.8810 C   0  0  0  0  0  0  0  0  0  0  0  0
  193.0780  174.1260  141.0630 C   0  0  0  0  0  3  0  0  0  0  0  0
  192.3730  176.7650  143.7710 C   0  0  2  0  0  3  0  0  0  0  0  0
  189.3880  173.8820  141.4640 O   0  0  0  0  0  1  0  0  0  0  0  0
  190.9570  176.9020  144.1320 N   0  0  0  0  0  0  0  0  0  0  0  0
  188.8110  175.9540  143.5690 N   0  0  0  0  0  2  0  0  0  0  0  0
  190.7100  174.2810  141.6340 C   0  0  0  0  0  0  0  0  0  0  0  0
  191.0470  175.2730  142.5560 C   0  0  0  0  0  0  0  0  0  0  0  0
  192.3420  175.6800  142.7400 C   0  0  0  0  0  0  0  0  0  0  0  0
  190.2360  176.0670  143.4500 C   0  0  0  0  0  0  0  0  0  0  0  0
  190.4170  173.9000  136.3610 C   0  0  0  0  0  3  0  0  0  0  0  0
  191.4630  172.6790  139.9270 N   0  0  0  0  0  0  0  0  0  0  0  0
  191.0570  172.2230  138.5710 C   0  0  1  0  0  0  0  0  0  0  0  0
  189.3100  171.5000  135.7800 Cl  0  0  0  0  0  0  0  0  0  0  0  0
  192.1250  172.5360  137.5230 C   0  0  0  0  0  2  0  0  0  0  0  0
  191.7050  173.7150  136.6880 C   0  0  0  0  0  3  0  0  0  0  0  0
  189.3520  172.9420  136.8300 C   0  0  1  0  0  3  0  0  0  0  0  0
  191.3390  171.2490  139.5020 C   0  0  0  0  0  2  0  0  0  0  0  0
  189.5820  172.5310  138.2890 C   0  0  0  0  0  2  0  0  0  0  0  0
  187.1860  177.7780  143.9820 C   0  0  0  0  0  3  0  0  0  0  0  0
  186.3080  178.1450  146.2250 C   0  0  0  0  0  0  0  0  0  0  0  0
  186.3630  178.5000  144.8530 C   0  0  0  0  0  0  0  0  0  0  0  0
  187.9060  176.3570  145.7920 C   0  0  0  0  0  3  0  0  0  0  0  0
  187.9600  176.7060  144.4430 C   0  0  0  0  0  0  0  0  0  0  0  0
  185.5740  179.6240  144.2740 C   0  0  0  0  0  1  0  0  0  0  0  0
  187.0890  177.0700  146.6730 C   0  0  0  0  0  3  0  0  0  0  0  0
  185.4680  178.8510  147.2220 C   0  0  0  0  0  0  0  0  0  0  0  0
  186.0260  179.8500  148.0140 O   0  0  0  0  0  1  0  0  0  0  0  0
  184.2510  178.5680  147.3750 O   0  0  0  0  0  0  0  0  0  0  0  0
  193.1670  176.3290  144.9970 C   0  0  0  0  0  2  0  0  0  0  0  0
  194.6110  177.2090  146.4930 O   0  0  0  0  0  1  0  0  0  0  0  0
  194.3410  177.1700  145.1670 N   0  0  0  0  0  2  0  0  0  0  0  0
  1 10  1  0  0  0  0
  2  3  1  0  0  0  0
  2  8  2  0  0  0  0
  3  1  2  0  0  0  0
  4  6  1  0  0  0  0
  4 31  1  1  0  0  0
  5  8  1  0  0  0  0
  7 25  1  0  0  0  0
  8  9  1  0  0  0  0
  9 10  2  0  0  0  0
  9 11  1  0  0  0  0
 10  4  1  0  0  0  0
 11  7  1  0  0  0  0
 11  6  2  0  0  0  0
 12 17  2  0  0  0  0
 12 18  1  0  0  0  0
 13  2  1  0  0  0  0
 14 16  1  6  0  0  0
 14 19  1  0  0  0  0
 14 13  1  0  0  0  0
 17 16  1  0  0  0  0
 18 15  1  6  0  0  0
 18 20  1  0  0  0  0
 19 13  1  0  0  0  0
 20 14  1  0  0  0  0
 21 25  2  0  0  0  0
 21 23  1  0  0  0  0
 22 27  1  0  0  0  0
 22 28  1  0  0  0  0
 23 22  2  0  0  0  0
 24 27  2  0  0  0  0
 25 24  1  0  0  0  0
 26 23  1  0  0  0  0
 28 30  2  0  0  0  0
 28 29  1  0  0  0  0
 31 33  1  0  0  0  0
 33 32  1  0  0  0  0
M  END
>  <MODEL>
3

>  <REMARK>
 VINA RESULT:      -8.1      3.832      5.174
  Name = 
  5 active torsions:
  status: ('A' for Active; 'I' for Inactive)
    1  A    between atoms: C_1  and  C_8
    2  A    between atoms: N_3  and  C_11
    3  A    between atoms: N_13  and  C_18
    4  A    between atoms: C_18  and  C_19
    5  A    between atoms: C_22  and  N_25
                            x       y       z     vdW  Elec       q    Type
                         _______ _______ _______ _____ _____    ______ ____

>  <TORSDO>
F 5

$$$$
=
 OpenBabel11042416153D

 33 37  0  0  1  0  0  0  0  0999 V2000
  191.2140  173.3070  140.5100 C   0  0  0  0  0  3  0  0  0  0  0  0
  192.9500  174.3600  141.8740 C   0  0  0  0  0  0  0  0  0  0  0  0
  192.5700  173.4880  140.8330 C   0  0  0  0  0  3  0  0  0  0  0  0
  188.7700  174.0020  141.1350 C   0  0  2  0  0  3  0  0  0  0  0  0
  192.3180  175.9140  143.6430 O   0  0  0  0  0  1  0  0  0  0  0  0
  188.3640  174.9260  142.2000 N   0  0  0  0  0  0  0  0  0  0  0  0
  189.3490  176.3170  143.9080 N   0  0  0  0  0  2  0  0  0  0  0  0
  191.9680  175.0560  142.6050 C   0  0  0  0  0  0  0  0  0  0  0  0
  190.6300  174.8580  142.2600 C   0  0  0  0  0  0  0  0  0  0  0  0
  190.2630  174.0180  141.2410 C   0  0  0  0  0  0  0  0  0  0  0  0
  189.4070  175.3910  142.8140 C   0  0  0  0  0  0  0  0  0  0  0  0
  195.6740  172.4890  145.2370 C   0  0  0  0  0  3  0  0  0  0  0  0
  194.3310  174.5260  142.1800 N   0  0  0  0  0  0  0  0  0  0  0  0
  195.5410  174.2400  142.9960 C   0  0  1  0  0  0  0  0  0  0  0  0
  197.8280  174.1110  145.4690 Cl  0  0  0  0  0  0  0  0  0  0  0  0
  196.0270  172.8040  142.8080 C   0  0  0  0  0  2  0  0  0  0  0  0
  195.6560  171.9670  144.0010 C   0  0  0  0  0  3  0  0  0  0  0  0
  196.0530  173.9290  145.4650 C   0  0  1  0  0  3  0  0  0  0  0  0
  195.6880  175.1110  141.9400 C   0  0  0  0  0  2  0  0  0  0  0  0
  195.4280  174.8410  144.4020 C   0  0  0  0  0  2  0  0  0  0  0  0
  187.4560  177.9160  143.8640 C   0  0  0  0  0  3  0  0  0  0  0  0
  185.8500  177.9560  145.6960 C   0  0  0  0  0  0  0  0  0  0  0  0
  186.3070  178.4560  144.4500 C   0  0  0  0  0  0  0  0  0  0  0  0
  187.7190  176.3930  145.7150 C   0  0  0  0  0  3  0  0  0  0  0  0
  188.1680  176.8850  144.4890 C   0  0  0  0  0  0  0  0  0  0  0  0
  185.6130  179.5500  143.7130 C   0  0  0  0  0  1  0  0  0  0  0  0
  186.5730  176.9230  146.3110 C   0  0  0  0  0  3  0  0  0  0  0  0
  184.6450  178.4660  146.3930 C   0  0  0  0  0  0  0  0  0  0  0  0
  183.4910  178.7410  145.6660 O   0  0  0  0  0  0  0  0  0  0  0  0
  184.6370  178.6600  147.6370 O   0  0  0  0  0  1  0  0  0  0  0  0
  188.3140  174.5530  139.7880 C   0  0  0  0  0  2  0  0  0  0  0  0
  187.9230  172.3460  139.5060 O   0  0  0  0  0  1  0  0  0  0  0  0
  188.1940  173.4790  138.8140 N   0  0  0  0  0  2  0  0  0  0  0  0
  1  3  2  0  0  0  0
  1 10  1  0  0  0  0
  2 13  1  0  0  0  0
  2  8  2  0  0  0  0
  3  2  1  0  0  0  0
  4 31  1  6  0  0  0
  4 10  1  0  0  0  0
  4  6  1  0  0  0  0
  6 11  2  0  0  0  0
  7 25  1  0  0  0  0
  8  5  1  0  0  0  0
  9  8  1  0  0  0  0
  9 11  1  0  0  0  0
 10  9  2  0  0  0  0
 11  7  1  0  0  0  0
 12 18  1  0  0  0  0
 13 14  1  0  0  0  0
 14 19  1  6  0  0  0
 14 20  1  0  0  0  0
 16 14  1  0  0  0  0
 16 17  1  0  0  0  0
 17 12  2  0  0  0  0
 18 15  1  6  0  0  0
 19 13  1  0  0  0  0
 20 18  1  0  0  0  0
 21 23  2  0  0  0  0
 21 25  1  0  0  0  0
 22 27  2  0  0  0  0
 22 28  1  0  0  0  0
 23 22  1  0  0  0  0
 24 27  1  0  0  0  0
 25 24  2  0  0  0  0
 26 23  1  0  0  0  0
 28 30  1  0  0  0  0
 29 28  2  0  0  0  0
 33 32  1  0  0  0  0
 33 31  1  0  0  0  0
M  END
>  <MODEL>
4

>  <REMARK>
 VINA RESULT:      -7.8      3.039      4.389
  Name = 
  5 active torsions:
  status: ('A' for Active; 'I' for Inactive)
    1  A    between atoms: C_1  and  C_8
    2  A    between atoms: N_3  and  C_11
    3  A    between atoms: N_13  and  C_18
    4  A    between atoms: C_18  and  C_19
    5  A    between atoms: C_22  and  N_25
                            x       y       z     vdW  Elec       q    Type
                         _______ _______ _______ _____ _____    ______ ____

>  <TORSDO>
F 5

$$$$
=
 OpenBabel11042416153D

 33 37  0  0  1  0  0  0  0  0999 V2000
  191.5020  177.8470  143.5620 C   0  0  0  0  0  3  0  0  0  0  0  0
  189.7320  176.7480  144.8440 C   0  0  0  0  0  0  0  0  0  0  0  0
  190.2020  177.8470  144.0950 C   0  0  0  0  0  3  0  0  0  0  0  0
  193.7190  176.4710  143.3700 C   0  0  2  0  0  3  0  0  0  0  0  0
  190.1320  174.5480  145.8130 O   0  0  0  0  0  1  0  0  0  0  0  0
  193.9880  175.1510  143.9520 N   0  0  0  0  0  0  0  0  0  0  0  0
  192.8840  173.4600  145.2720 N   0  0  0  0  0  2  0  0  0  0  0  0
  190.5690  175.6380  145.0690 C   0  0  0  0  0  0  0  0  0  0  0  0
  191.8550  175.6670  144.5250 C   0  0  0  0  0  0  0  0  0  0  0  0
  192.3060  176.7300  143.7890 C   0  0  0  0  0  0  0  0  0  0  0  0
  192.9440  174.7190  144.5890 C   0  0  0  0  0  0  0  0  0  0  0  0
  185.7270  178.6250  143.2090 C   0  0  0  0  0  3  0  0  0  0  0  0
  188.4090  176.7740  145.3720 N   0  0  0  0  0  0  0  0  0  0  0  0
  186.9750  177.1620  145.3090 C   0  0  1  0  0  0  0  0  0  0  0  0
  184.0760  178.8820  145.3380 Cl  0  0  0  0  0  0  0  0  0  0  0  0
  186.2330  176.4140  144.2010 C   0  0  0  0  0  2  0  0  0  0  0  0
  185.9980  177.3240  143.0260 C   0  0  0  0  0  3  0  0  0  0  0  0
  185.6630  179.2170  144.5930 C   0  0  1  0  0  3  0  0  0  0  0  0
  187.3820  176.4400  146.4080 C   0  0  0  0  0  2  0  0  0  0  0  0
  186.7910  178.6740  145.4800 C   0  0  0  0  0  2  0  0  0  0  0  0
  193.7070  171.1330  145.0480 C   0  0  0  0  0  3  0  0  0  0  0  0
  196.0310  170.6060  145.5550 C   0  0  0  0  0  0  0  0  0  0  0  0
  194.7390  170.1940  145.1410 C   0  0  0  0  0  0  0  0  0  0  0  0
  195.1980  172.8860  145.7660 C   0  0  0  0  0  3  0  0  0  0  0  0
  193.9270  172.4800  145.3590 C   0  0  0  0  0  0  0  0  0  0  0  0
  194.4120  168.7820  144.7900 C   0  0  0  0  0  1  0  0  0  0  0  0
  196.2380  171.9590  145.8630 C   0  0  0  0  0  3  0  0  0  0  0  0
  197.1850  169.6840  145.6840 C   0  0  0  0  0  0  0  0  0  0  0  0
  197.9410  169.3620  144.5600 O   0  0  0  0  0  0  0  0  0  0  0  0
  197.5020  169.1780  146.7920 O   0  0  0  0  0  1  0  0  0  0  0  0
  193.8300  176.3850  141.8520 C   0  0  0  0  0  2  0  0  0  0  0  0
  195.9600  176.8520  141.2620 O   0  0  0  0  0  1  0  0  0  0  0  0
  195.1120  175.8160  141.4670 N   0  0  0  0  0  2  0  0  0  0  0  0
  1 10  2  0  0  0  0
  1  3  1  0  0  0  0
  2  8  1  0  0  0  0
  2 13  1  0  0  0  0
  3  2  2  0  0  0  0
  4 31  1  6  0  0  0
  4 10  1  0  0  0  0
  4  6  1  0  0  0  0
  6 11  2  0  0  0  0
  7 25  1  0  0  0  0
  8  5  1  0  0  0  0
  9 11  1  0  0  0  0
  9  8  2  0  0  0  0
 10  9  1  0  0  0  0
 11  7  1  0  0  0  0
 12 18  1  0  0  0  0
 13 19  1  0  0  0  0
 14 16  1  6  0  0  0
 14 13  1  0  0  0  0
 14 20  1  0  0  0  0
 14 19  1  0  0  0  0
 17 12  2  0  0  0  0
 17 16  1  0  0  0  0
 18 15  1  1  0  0  0
 18 20  1  0  0  0  0
 21 23  2  0  0  0  0
 21 25  1  0  0  0  0
 22 28  1  0  0  0  0
 22 27  2  0  0  0  0
 23 22  1  0  0  0  0
 24 27  1  0  0  0  0
 25 24  2  0  0  0  0
 26 23  1  0  0  0  0
 28 30  1  0  0  0  0
 29 28  2  0  0  0  0
 32 33  1  0  0  0  0
 33 31  1  0  0  0  0
M  END
>  <MODEL>
5

>  <REMARK>
 VINA RESULT:      -7.7      4.479      9.699
  Name = 
  5 active torsions:
  status: ('A' for Active; 'I' for Inactive)
    1  A    between atoms: C_1  and  C_8
    2  A    between atoms: N_3  and  C_11
    3  A    between atoms: N_13  and  C_18
    4  A    between atoms: C_18  and  C_19
    5  A    between atoms: C_22  and  N_25
                            x       y       z     vdW  Elec       q    Type
                         _______ _______ _______ _____ _____    ______ ____

>  <TORSDO>
F 5

$$$$
=
 OpenBabel11042416153D

 33 37  0  0  1  0  0  0  0  0999 V2000
  190.1360  177.1180  146.3280 C   0  0  0  0  0  3  0  0  0  0  0  0
  188.8970  176.2210  144.4200 C   0  0  0  0  0  0  0  0  0  0  0  0
  189.0590  177.1930  145.4290 C   0  0  0  0  0  3  0  0  0  0  0  0
  192.2440  175.7240  147.0070 C   0  0  2  0  0  3  0  0  0  0  0  0
  189.6690  174.1840  143.3280 O   0  0  0  0  0  1  0  0  0  0  0  0
  192.7230  174.4900  146.3730 N   0  0  0  0  0  0  0  0  0  0  0  0
  192.1500  173.0080  144.5580 N   0  0  0  0  0  2  0  0  0  0  0  0
  189.8150  175.1590  144.3080 C   0  0  0  0  0  0  0  0  0  0  0  0
  190.8750  175.1130  145.2150 C   0  0  0  0  0  0  0  0  0  0  0  0
  191.0380  176.0630  146.1880 C   0  0  0  0  0  0  0  0  0  0  0  0
  191.9540  174.1660  145.3810 C   0  0  0  0  0  0  0  0  0  0  0  0
  185.5270  179.4820  143.9230 C   0  0  0  0  0  3  0  0  0  0  0  0
  187.7960  176.3220  143.5210 N   0  0  0  0  0  0  0  0  0  0  0  0
  186.5920  177.0120  142.9880 C   0  0  1  0  0  0  0  0  0  0  0  0
  183.4980  178.2910  142.5860 Cl  0  0  0  0  0  0  0  0  0  0  0  0
  186.9530  178.3130  142.2720 C   0  0  0  0  0  2  0  0  0  0  0  0
  186.6140  179.4960  143.1370 C   0  0  0  0  0  3  0  0  0  0  0  0
  184.6210  178.2790  143.9720 C   0  0  1  0  0  3  0  0  0  0  0  0
  186.9520  175.8280  142.3870 C   0  0  0  0  0  2  0  0  0  0  0  0
  185.4310  176.9770  143.9890 C   0  0  0  0  0  2  0  0  0  0  0  0
  194.4760  172.3870  145.1460 C   0  0  0  0  0  3  0  0  0  0  0  0
  195.2340  170.0890  144.8650 C   0  0  0  0  0  0  0  0  0  0  0  0
  195.4910  171.4300  145.2470 C   0  0  0  0  0  0  0  0  0  0  0  0
  192.9520  170.7240  144.2950 C   0  0  0  0  0  3  0  0  0  0  0  0
  193.2050  172.0430  144.6710 C   0  0  0  0  0  0  0  0  0  0  0  0
  196.8130  171.8870  145.7640 C   0  0  0  0  0  1  0  0  0  0  0  0
  193.9560  169.7580  144.3910 C   0  0  0  0  0  3  0  0  0  0  0  0
  196.2460  169.0070  144.9370 C   0  0  0  0  0  0  0  0  0  0  0  0
  196.4700  168.3490  146.1420 O   0  0  0  0  0  1  0  0  0  0  0  0
  196.9150  168.6650  143.9270 O   0  0  0  0  0  0  0  0  0  0  0  0
  193.3110  176.8050  146.8790 C   0  0  0  0  0  2  0  0  0  0  0  0
  194.9310  176.9060  145.3090 O   0  0  0  0  0  1  0  0  0  0  0  0
  194.5660  176.2290  146.4230 N   0  0  0  0  0  2  0  0  0  0  0  0
  2  3  1  0  0  0  0
  3  1  2  0  0  0  0
  4 31  1  6  0  0  0
  5  8  1  0  0  0  0
  6  4  1  0  0  0  0
  7 25  1  0  0  0  0
  7 11  1  0  0  0  0
  8  2  2  0  0  0  0
  8  9  1  0  0  0  0
  9 11  1  0  0  0  0
  9 10  2  0  0  0  0
 10  1  1  0  0  0  0
 10  4  1  0  0  0  0
 11  6  2  0  0  0  0
 12 18  1  0  0  0  0
 13  2  1  0  0  0  0
 14 16  1  6  0  0  0
 14 13  1  0  0  0  0
 14 20  1  0  0  0  0
 16 17  1  0  0  0  0
 17 12  2  0  0  0  0
 18 15  1  6  0  0  0
 18 20  1  0  0  0  0
 19 14  1  0  0  0  0
 19 13  1  0  0  0  0
 21 23  1  0  0  0  0
 22 28  1  0  0  0  0
 22 23  2  0  0  0  0
 23 26  1  0  0  0  0
 24 27  2  0  0  0  0
 24 25  1  0  0  0  0
 25 21  2  0  0  0  0
 27 22  1  0  0  0  0
 28 29  1  0  0  0  0
 30 28  2  0  0  0  0
 32 33  1  0  0  0  0
 33 31  1  0  0  0  0
M  END
>  <MODEL>
6

>  <REMARK>
 VINA RESULT:      -7.6      4.502      9.397
  Name = 
  5 active torsions:
  status: ('A' for Active; 'I' for Inactive)
    1  A    between atoms: C_1  and  C_8
    2  A    between atoms: N_3  and  C_11
    3  A    between atoms: N_13  and  C_18
    4  A    between atoms: C_18  and  C_19
    5  A    between atoms: C_22  and  N_25
                            x       y       z     vdW  Elec       q    Type
                         _______ _______ _______ _____ _____    ______ ____

>  <TORSDO>
F 5

$$$$
=
 OpenBabel11042416153D

 33 37  0  0  1  0  0  0  0  0999 V2000
  191.0160  172.0370  141.2980 C   0  0  0  0  0  3  0  0  0  0  0  0
  192.7280  172.4360  142.9990 C   0  0  0  0  0  0  0  0  0  0  0  0
  192.2920  171.7820  141.8280 C   0  0  0  0  0  3  0  0  0  0  0  0
  188.8070  173.3980  141.6390 C   0  0  2  0  0  3  0  0  0  0  0  0
  192.2830  174.0000  144.8150 O   0  0  0  0  0  1  0  0  0  0  0  0
  188.5110  174.3350  142.7280 N   0  0  0  0  0  0  0  0  0  0  0  0
  189.5540  175.2620  144.6960 N   0  0  0  0  0  2  0  0  0  0  0  0
  191.8800  173.3510  143.6530 C   0  0  0  0  0  0  0  0  0  0  0  0
  190.6190  173.5850  143.1020 C   0  0  0  0  0  0  0  0  0  0  0  0
  190.2010  172.9570  141.9580 C   0  0  0  0  0  0  0  0  0  0  0  0
  189.5260  174.4280  143.5300 C   0  0  0  0  0  0  0  0  0  0  0  0
  194.4180  168.8070  145.4910 C   0  0  0  0  0  3  0  0  0  0  0  0
  194.0270  172.1600  143.5140 N   0  0  0  0  0  0  0  0  0  0  0  0
  194.9920  171.3110  144.2620 C   0  0  1  0  0  0  0  0  0  0  0  0
  196.6840  169.6840  146.6820 Cl  0  0  0  0  0  0  0  0  0  0  0  0
  195.3010  170.0120  143.5170 C   0  0  0  0  0  2  0  0  0  0  0  0
  194.5800  168.8590  144.1600 C   0  0  0  0  0  3  0  0  0  0  0  0
  194.9400  169.9070  146.3790 C   0  0  1  0  0  3  0  0  0  0  0  0
  195.4720  172.4850  143.7290 C   0  0  0  0  0  2  0  0  0  0  0  0
  194.6790  171.2870  145.7620 C   0  0  0  0  0  2  0  0  0  0  0  0
  187.9120  177.0820  144.3310 C   0  0  0  0  0  3  0  0  0  0  0  0
  186.4490  177.7870  146.1470 C   0  0  0  0  0  0  0  0  0  0  0  0
  186.8930  177.9130  144.8060 C   0  0  0  0  0  0  0  0  0  0  0  0
  188.0710  175.9990  146.4800 C   0  0  0  0  0  3  0  0  0  0  0  0
  188.5070  176.1230  145.1610 C   0  0  0  0  0  0  0  0  0  0  0  0
  186.3180  178.9030  143.8520 C   0  0  0  0  0  1  0  0  0  0  0  0
  187.0530  176.8220  146.9670 C   0  0  0  0  0  3  0  0  0  0  0  0
  185.3760  178.6220  146.7390 C   0  0  0  0  0  0  0  0  0  0  0  0
  184.0650  178.4780  146.2960 O   0  0  0  0  0  0  0  0  0  0  0  0
  185.6220  179.4690  147.6380 O   0  0  0  0  0  1  0  0  0  0  0  0
  188.7610  174.1380  140.3080 C   0  0  0  0  0  2  0  0  0  0  0  0
  188.1910  174.0090  138.1260 O   0  0  0  0  0  1  0  0  0  0  0  0
  188.1930  173.2890  139.2720 N   0  0  0  0  0  2  0  0  0  0  0  0
  1  3  2  0  0  0  0
  1 10  1  0  0  0  0
  2 13  1  0  0  0  0
  2  8  2  0  0  0  0
  3  2  1  0  0  0  0
  4 31  1  6  0  0  0
  4 10  1  0  0  0  0
  4  6  1  0  0  0  0
  6 11  2  0  0  0  0
  7 25  1  0  0  0  0
  8  5  1  0  0  0  0
  9 11  1  0  0  0  0
  9  8  1  0  0  0  0
 10  9  2  0  0  0  0
 11  7  1  0  0  0  0
 12 18  1  0  0  0  0
 13 19  1  0  0  0  0
 13 14  1  0  0  0  0
 14 16  1  6  0  0  0
 14 20  1  0  0  0  0
 16 17  1  0  0  0  0
 17 12  2  0  0  0  0
 18 15  1  6  0  0  0
 19 14  1  0  0  0  0
 20 18  1  0  0  0  0
 21 23  2  0  0  0  0
 21 25  1  0  0  0  0
 22 28  1  0  0  0  0
 22 27  2  0  0  0  0
 23 22  1  0  0  0  0
 24 27  1  0  0  0  0
 25 24  2  0  0  0  0
 26 23  1  0  0  0  0
 28 30  1  0  0  0  0
 29 28  2  0  0  0  0
 32 33  1  0  0  0  0
 33 31  1  0  0  0  0
M  END
>  <MODEL>
7

>  <REMARK>
 VINA RESULT:      -7.6      4.018      5.167
  Name = 
  5 active torsions:
  status: ('A' for Active; 'I' for Inactive)
    1  A    between atoms: C_1  and  C_8
    2  A    between atoms: N_3  and  C_11
    3  A    between atoms: N_13  and  C_18
    4  A    between atoms: C_18  and  C_19
    5  A    between atoms: C_22  and  N_25
                            x       y       z     vdW  Elec       q    Type
                         _______ _______ _______ _____ _____    ______ ____

>  <TORSDO>
F 5

$$$$
=
 OpenBabel11042416153D

 33 37  0  0  1  0  0  0  0  0999 V2000
  188.7770  174.4000  140.9380 C   0  0  0  0  0  3  0  0  0  0  0  0
  188.5250  175.9460  142.8160 C   0  0  0  0  0  0  0  0  0  0  0  0
  188.0990  175.4610  141.5630 C   0  0  0  0  0  3  0  0  0  0  0  0
  190.7830  172.7340  141.1630 C   0  0  2  0  0  3  0  0  0  0  0  0
  190.0860  175.8400  144.6850 O   0  0  0  0  0  1  0  0  0  0  0  0
  191.7420  172.6580  142.2700 N   0  0  0  0  0  0  0  0  0  0  0  0
  192.2040  173.7250  144.3840 N   0  0  0  0  0  2  0  0  0  0  0  0
  189.6410  175.3710  143.4530 C   0  0  0  0  0  0  0  0  0  0  0  0
  190.2930  174.3170  142.8090 C   0  0  0  0  0  0  0  0  0  0  0  0
  189.8720  173.8400  141.5960 C   0  0  0  0  0  0  0  0  0  0  0  0
  191.4550  173.5410  143.1750 C   0  0  0  0  0  0  0  0  0  0  0  0
  186.5280  176.3910  147.0650 C   0  0  0  0  0  3  0  0  0  0  0  0
  187.8190  177.0220  143.4270 N   0  0  0  0  0  0  0  0  0  0  0  0
  187.0770  177.6320  144.5620 C   0  0  1  0  0  0  0  0  0  0  0  0
  184.7410  178.4130  146.8640 Cl  0  0  0  0  0  0  0  0  0  0  0  0
  187.9890  177.9010  145.7580 C   0  0  0  0  0  2  0  0  0  0  0  0
  187.7570  176.8740  146.8320 C   0  0  0  0  0  3  0  0  0  0  0  0
  185.3460  176.8510  146.2510 C   0  0  1  0  0  3  0  0  0  0  0  0
  187.2490  178.4060  143.4370 C   0  0  0  0  0  2  0  0  0  0  0  0
  185.7100  176.9680  144.7650 C   0  0  0  0  0  2  0  0  0  0  0  0
  194.5310  173.6090  145.2290 C   0  0  0  0  0  3  0  0  0  0  0  0
  195.5860  171.4450  145.6070 C   0  0  0  0  0  0  0  0  0  0  0  0
  195.6430  172.8620  145.6310 C   0  0  0  0  0  0  0  0  0  0  0  0
  193.2990  171.5860  144.7780 C   0  0  0  0  0  3  0  0  0  0  0  0
  193.3560  172.9800  144.8020 C   0  0  0  0  0  0  0  0  0  0  0  0
  196.8510  173.6170  146.0710 C   0  0  0  0  0  1  0  0  0  0  0  0
  194.4020  170.8280  145.1770 C   0  0  0  0  0  3  0  0  0  0  0  0
  196.7130  170.5710  146.0130 C   0  0  0  0  0  0  0  0  0  0  0  0
  197.8390  170.4730  145.2010 O   0  0  0  0  0  0  0  0  0  0  0  0
  196.6790  169.9080  147.0830 O   0  0  0  0  0  1  0  0  0  0  0  0
  190.0260  171.4150  141.0570 C   0  0  0  0  0  2  0  0  0  0  0  0
  190.7830  169.2910  140.9310 O   0  0  0  0  0  1  0  0  0  0  0  0
  190.7420  170.3610  141.7590 N   0  0  0  0  0  2  0  0  0  0  0  0
  1  3  2  0  0  0  0
  1 10  1  0  0  0  0
  2 13  1  0  0  0  0
  2  8  2  0  0  0  0
  3  2  1  0  0  0  0
  4 31  1  1  0  0  0
  4 10  1  0  0  0  0
  4  6  1  0  0  0  0
  6 11  2  0  0  0  0
  7 25  1  0  0  0  0
  8  5  1  0  0  0  0
  9 11  1  0  0  0  0
  9  8  1  0  0  0  0
 10  9  2  0  0  0  0
 11  7  1  0  0  0  0
 13 19  1  0  0  0  0
 13 14  1  0  0  0  0
 14 19  1  6  0  0  0
 14 20  1  0  0  0  0
 14 16  1  0  0  0  0
 16 17  1  0  0  0  0
 17 12  2  0  0  0  0
 18 15  1  1  0  0  0
 18 12  1  0  0  0  0
 20 18  1  0  0  0  0
 21 23  1  0  0  0  0
 22 23  2  0  0  0  0
 22 28  1  0  0  0  0
 23 26  1  0  0  0  0
 24 25  1  0  0  0  0
 24 27  2  0  0  0  0
 25 21  2  0  0  0  0
 27 22  1  0  0  0  0
 28 30  1  0  0  0  0
 29 28  2  0  0  0  0
 31 33  1  0  0  0  0
 32 33  1  0  0  0  0
M  END
>  <MODEL>
8

>  <REMARK>
 VINA RESULT:      -7.6      4.940      9.614
  Name = 
  5 active torsions:
  status: ('A' for Active; 'I' for Inactive)
    1  A    between atoms: C_1  and  C_8
    2  A    between atoms: N_3  and  C_11
    3  A    between atoms: N_13  and  C_18
    4  A    between atoms: C_18  and  C_19
    5  A    between atoms: C_22  and  N_25
                            x       y       z     vdW  Elec       q    Type
                         _______ _______ _______ _____ _____    ______ ____

>  <TORSDO>
F 5

$$$$
=
 OpenBabel11042416153D

 33 37  0  0  1  0  0  0  0  0999 V2000
  184.8620  177.8370  139.8320 C   0  0  0  0  0  3  0  0  0  0  0  0
  183.3050  178.4060  141.6310 C   0  0  0  0  0  0  0  0  0  0  0  0
  183.5920  178.2630  140.2580 C   0  0  0  0  0  3  0  0  0  0  0  0
  187.2420  177.1140  140.6440 C   0  0  2  0  0  3  0  0  0  0  0  0
  184.0380  178.2710  143.9510 O   0  0  0  0  0  1  0  0  0  0  0  0
  187.7110  177.0350  142.0320 N   0  0  0  0  0  0  0  0  0  0  0  0
  186.8970  177.3910  144.2760 N   0  0  0  0  0  2  0  0  0  0  0  0
  184.2950  178.1270  142.5920 C   0  0  0  0  0  0  0  0  0  0  0  0
  185.5460  177.7030  142.1390 C   0  0  0  0  0  0  0  0  0  0  0  0
  185.8210  177.5540  140.8050 C   0  0  0  0  0  0  0  0  0  0  0  0
  186.7580  177.3640  142.8490 C   0  0  0  0  0  0  0  0  0  0  0  0
  179.2410  178.7940  139.2700 C   0  0  0  0  0  3  0  0  0  0  0  0
  182.0090  178.8390  142.0340 N   0  0  0  0  0  0  0  0  0  0  0  0
  180.5760  179.1310  141.7630 C   0  0  1  0  0  0  0  0  0  0  0  0
  177.6950  180.5090  140.6820 Cl  0  0  0  0  0  0  0  0  0  0  0  0
  179.7770  177.8560  141.4970 C   0  0  0  0  0  2  0  0  0  0  0  0
  179.4930  177.7150  140.0270 C   0  0  0  0  0  3  0  0  0  0  0  0
  179.2470  180.1780  139.8670 C   0  0  1  0  0  3  0  0  0  0  0  0
  181.0290  179.3490  143.0440 C   0  0  0  0  0  2  0  0  0  0  0  0
  180.4120  180.3520  140.8500 C   0  0  0  0  0  2  0  0  0  0  0  0
  188.0820  176.0000  145.9500 C   0  0  0  0  0  3  0  0  0  0  0  0
  190.4150  176.4560  146.4830 C   0  0  0  0  0  0  0  0  0  0  0  0
  189.2360  175.6920  146.6770 C   0  0  0  0  0  0  0  0  0  0  0  0
  189.2280  177.8080  144.8400 C   0  0  0  0  0  3  0  0  0  0  0  0
  188.0690  177.0560  145.0300 C   0  0  0  0  0  0  0  0  0  0  0  0
  189.1570  174.5510  147.6330 C   0  0  0  0  0  1  0  0  0  0  0  0
  190.3880  177.5100  145.5590 C   0  0  0  0  0  3  0  0  0  0  0  0
  191.6840  176.2040  147.2080 C   0  0  0  0  0  0  0  0  0  0  0  0
  192.5040  175.1490  146.8190 O   0  0  0  0  0  0  0  0  0  0  0  0
  192.0430  176.9250  148.1750 O   0  0  0  0  0  1  0  0  0  0  0  0
  187.3160  175.7310  140.0070 C   0  0  0  0  0  2  0  0  0  0  0  0
  188.5980  173.8820  139.8170 O   0  0  0  0  0  1  0  0  0  0  0  0
  188.3630  174.9380  140.6310 N   0  0  0  0  0  2  0  0  0  0  0  0
  1  3  2  0  0  0  0
  1 10  1  0  0  0  0
  2 13  1  0  0  0  0
  2  8  2  0  0  0  0
  3  2  1  0  0  0  0
  4 31  1  1  0  0  0
  4 10  1  0  0  0  0
  4  6  1  0  0  0  0
  6 11  2  0  0  0  0
  7 25  1  0  0  0  0
  8  5  1  0  0  0  0
  9  8  1  0  0  0  0
  9 11  1  0  0  0  0
 10  9  2  0  0  0  0
 11  7  1  0  0  0  0
 12 18  1  0  0  0  0
 12 17  2  0  0  0  0
 13 19  1  0  0  0  0
 14 20  1  6  0  0  0
 14 13  1  0  0  0  0
 14 19  1  0  0  0  0
 16 14  1  0  0  0  0
 17 16  1  0  0  0  0
 18 15  1  1  0  0  0
 18 20  1  0  0  0  0
 21 23  1  0  0  0  0
 22 23  2  0  0  0  0
 22 28  1  0  0  0  0
 23 26  1  0  0  0  0
 24 25  1  0  0  0  0
 24 27  2  0  0  0  0
 25 21  2  0  0  0  0
 27 22  1  0  0  0  0
 28 30  1  0  0  0  0
 29 28  2  0  0  0  0
 31 33  1  0  0  0  0
 32 33  1  0  0  0  0
M  END
>  <MODEL>
9

>  <REMARK>
 VINA RESULT:      -7.6      5.582     10.945
  Name = 
  5 active torsions:
  status: ('A' for Active; 'I' for Inactive)
    1  A    between atoms: C_1  and  C_8
    2  A    between atoms: N_3  and  C_11
    3  A    between atoms: N_13  and  C_18
    4  A    between atoms: C_18  and  C_19
    5  A    between atoms: C_22  and  N_25
                            x       y       z     vdW  Elec       q    Type
                         _______ _______ _______ _____ _____    ______ ____

>  <TORSDO>
F 5

$$$$
