=
 OpenBabel11042416273D

 38 42  0  0  1  0  0  0  0  0999 V2000
  189.0100  173.2290  141.9700 C   0  0  0  0  0  3  0  0  0  0  0  0
  189.4590  177.5960  146.4960 C   0  0  0  0  0  3  0  0  0  0  0  0
  191.0360  176.9600  148.2570 C   0  0  0  0  0  0  0  0  0  0  0  0
  189.7170  176.2970  145.8350 C   0  0  2  0  0  3  0  0  0  0  0  0
  190.6040  173.9780  144.5410 C   0  0  0  0  0  0  0  0  0  0  0  0
  189.3310  176.0240  144.5710 C   0  0  0  0  0  0  0  0  0  0  0  0
  191.3490  172.8380  143.9420 C   0  0  0  0  0  0  0  0  0  0  0  0
  190.0740  177.8970  147.6440 C   0  0  0  0  0  3  0  0  0  0  0  0
  191.0320  174.3070  145.8370 O   0  0  0  0  0  0  0  0  0  0  0  0
  189.0880  174.5200  142.6550 C   0  0  2  0  0  3  0  0  0  0  0  0
  189.7920  172.1740  142.0930 C   0  0  0  0  0  3  0  0  0  0  0  0
  188.5800  176.9840  143.8780 C   0  0  0  0  0  3  0  0  0  0  0  0
  190.9690  172.0630  142.9350 C   0  0  0  0  0  3  0  0  0  0  0  0
  191.8080  177.3780  149.3310 O   0  0  0  0  0  1  0  0  0  0  0  0
  188.0980  176.7400  142.6050 C   0  0  0  0  0  0  0  0  0  0  0  0
  189.6780  174.7830  143.9290 C   0  0  0  0  0  0  0  0  0  0  0  0
  191.1890  175.7230  147.7730 C   0  0  0  0  0  3  0  0  0  0  0  0
  188.3230  175.4990  142.0240 C   0  0  0  0  0  3  0  0  0  0  0  0
  190.3150  175.2020  146.6640 C   0  0  1  0  0  3  0  0  0  0  0  0
  192.6510  172.4390  144.5690 C   0  0  0  0  0  2  0  0  0  0  0  0
  194.6030  174.0590  144.5670 C   0  0  0  0  0  0  0  0  0  0  0  0
  193.7630  173.1110  143.9080 N   0  0  0  0  0  2  0  0  0  0  0  0
  194.3360  174.4490  145.7340 O   0  0  0  0  0  0  0  0  0  0  0  0
  195.8390  174.5640  143.8780 C   0  0  0  0  0  2  0  0  0  0  0  0
  195.6200  175.7660  143.0580 N   0  0  0  0  0  0  0  0  0  0  0  0
  196.6720  176.7440  143.3020 C   0  0  0  0  0  1  0  0  0  0  0  0
  195.6390  175.4210  141.6460 C   0  0  0  0  0  1  0  0  0  0  0  0
  187.3120  177.7360  141.9470 N   0  0  0  0  0  2  0  0  0  0  0  0
  186.2190  177.4070  141.0370 C   0  0  1  0  0  3  0  0  0  0  0  0
  184.8620  177.7160  141.5830 C   0  0  2  0  0  3  0  0  0  0  0  0
  185.5250  178.5800  140.6900 O   0  0  0  0  0  0  0  0  0  0  0  0
  185.8170  179.5590  143.3310 O   0  0  0  0  0  0  0  0  0  0  0  0
  184.7810  178.4740  143.2140 S   0  0  0  0  0  0  0  0  0  0  0  0
  183.4160  179.0540  143.4580 O   0  0  0  0  0  0  0  0  0  0  0  0
  185.0880  177.2280  144.4560 C   0  0  0  0  0  2  0  0  0  0  0  0
  186.0980  176.8200  146.6940 C   0  0  0  0  0  1  0  0  0  0  0  0
  184.2850  178.4760  146.4370 C   0  0  0  0  0  1  0  0  0  0  0  0
  185.4980  177.8640  145.7720 C   0  0  0  0  0  3  0  0  0  0  0  0
  1 11  2  0  0  0  0
  2  8  2  0  0  0  0
  3 14  1  0  0  0  0
  4  2  1  1  0  0  0
  4 19  1  0  0  0  0
  5  9  1  0  0  0  0
  6  4  1  0  0  0  0
  7  5  1  0  0  0  0
  7 20  1  0  0  0  0
  8  3  1  0  0  0  0
  9 19  1  0  0  0  0
 10  1  1  1  0  0  0
 10 16  1  0  0  0  0
 11 13  1  0  0  0  0
 12  6  2  0  0  0  0
 13  7  2  0  0  0  0
 15 12  1  0  0  0  0
 16  5  2  0  0  0  0
 16  6  1  0  0  0  0
 17  3  2  0  0  0  0
 18 15  2  0  0  0  0
 18 10  1  0  0  0  0
 19 17  1  1  0  0  0
 21 23  2  0  0  0  0
 22 21  1  0  0  0  0
 22 20  1  0  0  0  0
 24 21  1  0  0  0  0
 25 26  1  0  0  0  0
 25 24  1  0  0  0  0
 27 25  1  0  0  0  0
 28 15  1  0  0  0  0
 29 30  1  0  0  0  0
 29 28  1  1  0  0  0
 30 33  1  1  0  0  0
 31 29  1  0  0  0  0
 31 30  1  0  0  0  0
 33 32  2  0  0  0  0
 33 34  2  0  0  0  0
 33 35  1  0  0  0  0
 35 38  1  0  0  0  0
 38 37  1  0  0  0  0
 38 36  1  0  0  0  0
M  END
>  <MODEL>
1

>  <REMARK>
 VINA RESULT:      -7.5      0.000      0.000
  Name = 
  9 active torsions:
  status: ('A' for Active; 'I' for Inactive)
    1  A    between atoms: N_6  and  C_14
    2  A    between atoms: C_9  and  C_17
    3  A    between atoms: S_10  and  C_31
    4  A    between atoms: S_10  and  C_33
    5  A    between atoms: C_11  and  C_14
    6  A    between atoms: N_15  and  C_17
    7  A    between atoms: C_16  and  N_28
    8  A    between atoms: N_28  and  C_29
    9  A    between atoms: C_33  and  C_34
                            x       y       z     vdW  Elec       q    Type
                         _______ _______ _______ _____ _____    ______ ____

>  <TORSDO>
F 9

$$$$
=
 OpenBabel11042416273D

 38 42  0  0  1  0  0  0  0  0999 V2000
  187.0640  176.8630  139.9260 C   0  0  0  0  0  3  0  0  0  0  0  0
  188.0060  176.4560  146.1470 C   0  0  0  0  0  3  0  0  0  0  0  0
  186.3840  177.7680  147.4260 C   0  0  0  0  0  0  0  0  0  0  0  0
  187.3760  176.9460  144.9000 C   0  0  2  0  0  3  0  0  0  0  0  0
  185.8370  177.6660  142.6750 C   0  0  0  0  0  0  0  0  0  0  0  0
  187.6230  176.4060  143.6880 C   0  0  0  0  0  0  0  0  0  0  0  0
  184.7850  177.9860  141.6730 C   0  0  0  0  0  0  0  0  0  0  0  0
  187.5420  176.8580  147.3330 C   0  0  0  0  0  3  0  0  0  0  0  0
  185.5660  178.1770  143.9540 O   0  0  0  0  0  0  0  0  0  0  0  0
  187.3710  176.3320  141.2550 C   0  0  2  0  0  3  0  0  0  0  0  0
  186.0280  177.5790  139.5340 C   0  0  0  0  0  3  0  0  0  0  0  0
  188.5830  175.3880  143.5920 C   0  0  0  0  0  3  0  0  0  0  0  0
  184.8990  177.9830  140.3510 C   0  0  0  0  0  3  0  0  0  0  0  0
  185.7980  178.0060  148.6620 O   0  0  0  0  0  1  0  0  0  0  0  0
  188.9300  174.8380  142.3710 C   0  0  0  0  0  0  0  0  0  0  0  0
  186.9250  176.8480  142.5100 C   0  0  0  0  0  0  0  0  0  0  0  0
  185.8780  178.3450  146.3310 C   0  0  0  0  0  3  0  0  0  0  0  0
  188.3510  175.3420  141.2140 C   0  0  0  0  0  3  0  0  0  0  0  0
  186.5320  178.1800  144.9860 C   0  0  1  0  0  3  0  0  0  0  0  0
  183.4480  178.4430  142.1750 C   0  0  0  0  0  2  0  0  0  0  0  0
  181.0580  178.5540  141.3300 C   0  0  0  0  0  0  0  0  0  0  0  0
  182.3940  178.0570  141.2450 N   0  0  0  0  0  2  0  0  0  0  0  0
  180.7020  179.2660  142.3050 O   0  0  0  0  0  0  0  0  0  0  0  0
  180.0830  178.2580  140.2270 C   0  0  0  0  0  2  0  0  0  0  0  0
  178.6710  178.3880  140.6240 N   0  0  0  0  0  0  0  0  0  0  0  0
  177.9560  179.2390  139.6830 C   0  0  0  0  0  1  0  0  0  0  0  0
  178.0310  177.0820  140.6330 C   0  0  0  0  0  1  0  0  0  0  0  0
  189.9340  173.8220  142.3160 N   0  0  0  0  0  2  0  0  0  0  0  0
  191.2610  174.0520  141.7540 C   0  0  1  0  0  3  0  0  0  0  0  0
  192.3810  173.7120  142.6840 C   0  0  2  0  0  3  0  0  0  0  0  0
  191.9560  172.8320  141.6700 O   0  0  0  0  0  0  0  0  0  0  0  0
  190.8100  172.0570  144.1530 O   0  0  0  0  0  0  0  0  0  0  0  0
  191.9410  173.0390  144.2950 S   0  0  0  0  0  0  0  0  0  0  0  0
  193.1240  172.3570  144.9220 O   0  0  0  0  0  0  0  0  0  0  0  0
  191.4320  174.3730  145.3690 C   0  0  0  0  0  2  0  0  0  0  0  0
  193.1260  175.7710  146.5400 C   0  0  0  0  0  1  0  0  0  0  0  0
  191.5700  176.8030  144.9240 C   0  0  0  0  0  1  0  0  0  0  0  0
  192.3710  175.5590  145.2420 C   0  0  0  0  0  3  0  0  0  0  0  0
  2  8  2  0  0  0  0
  3 14  1  0  0  0  0
  4 19  1  0  0  0  0
  4  2  1  6  0  0  0
  5  9  1  0  0  0  0
  6  4  1  0  0  0  0
  7 20  1  0  0  0  0
  7  5  1  0  0  0  0
  8  3  1  0  0  0  0
  9 19  1  0  0  0  0
 10  1  1  6  0  0  0
 10 16  1  0  0  0  0
 11  1  2  0  0  0  0
 11 13  1  0  0  0  0
 12  6  2  0  0  0  0
 13  7  2  0  0  0  0
 15 12  1  0  0  0  0
 16  5  2  0  0  0  0
 16  6  1  0  0  0  0
 17  3  2  0  0  0  0
 18 10  1  0  0  0  0
 18 15  2  0  0  0  0
 19 17  1  1  0  0  0
 21 23  2  0  0  0  0
 22 21  1  0  0  0  0
 22 20  1  0  0  0  0
 24 25  1  0  0  0  0
 24 21  1  0  0  0  0
 25 27  1  0  0  0  0
 26 25  1  0  0  0  0
 28 15  1  0  0  0  0
 29 28  1  1  0  0  0
 29 30  1  0  0  0  0
 30 33  1  1  0  0  0
 31 29  1  0  0  0  0
 31 30  1  0  0  0  0
 32 33  2  0  0  0  0
 33 34  2  0  0  0  0
 33 35  1  0  0  0  0
 37 38  1  0  0  0  0
 38 35  1  0  0  0  0
 38 36  1  0  0  0  0
M  END
>  <MODEL>
2

>  <REMARK>
 VINA RESULT:      -7.4      3.542      9.166
  Name = 
  9 active torsions:
  status: ('A' for Active; 'I' for Inactive)
    1  A    between atoms: N_6  and  C_14
    2  A    between atoms: C_9  and  C_17
    3  A    between atoms: S_10  and  C_31
    4  A    between atoms: S_10  and  C_33
    5  A    between atoms: C_11  and  C_14
    6  A    between atoms: N_15  and  C_17
    7  A    between atoms: C_16  and  N_28
    8  A    between atoms: N_28  and  C_29
    9  A    between atoms: C_33  and  C_34
                            x       y       z     vdW  Elec       q    Type
                         _______ _______ _______ _____ _____    ______ ____

>  <TORSDO>
F 9

$$$$
=
 OpenBabel11042416273D

 38 42  0  0  1  0  0  0  0  0999 V2000
  188.0540  177.7040  145.5730 C   0  0  0  0  0  3  0  0  0  0  0  0
  190.9390  174.1140  141.2660 C   0  0  0  0  0  3  0  0  0  0  0  0
  189.4460  173.4630  139.4390 C   0  0  0  0  0  0  0  0  0  0  0  0
  189.8010  174.8110  141.9090 C   0  0  2  0  0  3  0  0  0  0  0  0
  187.6510  176.3770  142.7820 C   0  0  0  0  0  0  0  0  0  0  0  0
  189.9520  175.6750  142.9350 C   0  0  0  0  0  0  0  0  0  0  0  0
  186.4820  177.2810  142.9540 C   0  0  0  0  0  0  0  0  0  0  0  0
  190.7610  173.4700  140.1090 C   0  0  0  0  0  3  0  0  0  0  0  0
  187.5320  175.5080  141.6860 O   0  0  0  0  0  0  0  0  0  0  0  0
  189.0650  177.1660  144.6610 C   0  0  0  0  0  0  0  0  0  0  0  0
  186.7960  178.0160  145.3290 C   0  0  0  0  0  2  0  0  0  0  0  0
  191.2340  175.8610  143.4700 C   0  0  0  0  0  3  0  0  0  0  0  0
  186.1160  177.9300  144.0510 C   0  0  0  0  0  3  0  0  0  0  0  0
  189.3370  172.9650  138.1480 O   0  0  0  0  0  1  0  0  0  0  0  0
  191.4450  176.6830  144.5630 C   0  0  0  0  0  0  0  0  0  0  0  0
  188.8340  176.4020  143.4770 C   0  0  0  0  0  0  0  0  0  0  0  0
  188.3630  173.9540  140.0520 C   0  0  0  0  0  3  0  0  0  0  0  0
  190.3560  177.2930  145.1700 C   0  0  0  0  0  3  0  0  0  0  0  0
  188.4190  174.4270  141.4800 C   0  0  1  0  0  3  0  0  0  0  0  0
  185.5410  177.4430  141.7980 C   0  0  0  0  0  2  0  0  0  0  0  0
  183.1470  178.1720  141.3830 C   0  0  0  0  0  0  0  0  0  0  0  0
  184.2610  177.9720  142.2530 N   0  0  0  0  0  2  0  0  0  0  0  0
  183.2680  178.0100  140.1400 O   0  0  0  0  0  0  0  0  0  0  0  0
  181.8090  178.5390  141.9590 C   0  0  0  0  0  2  0  0  0  0  0  0
  180.7120  178.5370  140.9780 N   0  0  0  0  0  0  0  0  0  0  0  0
  179.5180  177.9330  141.5530 C   0  0  0  0  0  1  0  0  0  0  0  0
  180.3880  179.9000  140.5860 C   0  0  0  0  0  1  0  0  0  0  0  0
  192.7650  176.8210  145.0960 N   0  0  0  0  0  2  0  0  0  0  0  0
  193.1750  176.2160  146.3590 C   0  0  1  0  0  3  0  0  0  0  0  0
  194.4720  175.4750  146.2820 C   0  0  2  0  0  3  0  0  0  0  0  0
  194.3880  176.7890  146.7830 O   0  0  0  0  0  0  0  0  0  0  0  0
  194.5000  174.7960  143.6550 O   0  0  0  0  0  0  0  0  0  0  0  0
  195.3350  175.4810  144.7020 S   0  0  0  0  0  0  0  0  0  0  0  0
  195.6290  176.8900  144.2690 O   0  0  0  0  0  0  0  0  0  0  0  0
  196.8880  174.6170  144.8780 C   0  0  0  0  0  2  0  0  0  0  0  0
  196.8010  172.4330  146.0690 C   0  0  0  0  0  1  0  0  0  0  0  0
  197.7600  172.5680  143.7980 C   0  0  0  0  0  1  0  0  0  0  0  0
  196.6950  173.1190  144.7210 C   0  0  0  0  0  3  0  0  0  0  0  0
  3 17  2  0  0  0  0
  3  8  1  0  0  0  0
  4  2  1  1  0  0  0
  4  6  1  0  0  0  0
  5  7  1  0  0  0  0
  5 16  2  0  0  0  0
  6 12  2  0  0  0  0
  6 16  1  0  0  0  0
  7 13  2  0  0  0  0
  8  2  2  0  0  0  0
  9  5  1  0  0  0  0
 10 18  1  0  0  0  0
 10  1  2  0  0  0  0
 11  1  1  0  0  0  0
 12 15  1  0  0  0  0
 13 11  1  0  0  0  0
 14  3  1  0  0  0  0
 15 28  1  0  0  0  0
 15 18  2  0  0  0  0
 16 10  1  0  0  0  0
 19 17  1  6  0  0  0
 19  9  1  0  0  0  0
 19  4  1  0  0  0  0
 20 22  1  0  0  0  0
 20  7  1  0  0  0  0
 21 24  1  0  0  0  0
 21 22  1  0  0  0  0
 23 21  2  0  0  0  0
 25 26  1  0  0  0  0
 25 24  1  0  0  0  0
 27 25  1  0  0  0  0
 29 28  1  6  0  0  0
 29 31  1  0  0  0  0
 30 33  1  6  0  0  0
 30 29  1  0  0  0  0
 30 31  1  0  0  0  0
 32 33  2  0  0  0  0
 33 35  1  0  0  0  0
 34 33  2  0  0  0  0
 37 38  1  0  0  0  0
 38 35  1  0  0  0  0
 38 36  1  0  0  0  0
M  END
>  <MODEL>
3

>  <REMARK>
 VINA RESULT:      -7.4      3.386      9.857
  Name = 
  9 active torsions:
  status: ('A' for Active; 'I' for Inactive)
    1  A    between atoms: N_6  and  C_14
    2  A    between atoms: C_9  and  C_17
    3  A    between atoms: S_10  and  C_31
    4  A    between atoms: S_10  and  C_33
    5  A    between atoms: C_11  and  C_14
    6  A    between atoms: N_15  and  C_17
    7  A    between atoms: C_16  and  N_28
    8  A    between atoms: N_28  and  C_29
    9  A    between atoms: C_33  and  C_34
                            x       y       z     vdW  Elec       q    Type
                         _______ _______ _______ _____ _____    ______ ____

>  <TORSDO>
F 9

$$$$
=
 OpenBabel11042416273D

 38 42  0  0  1  0  0  0  0  0999 V2000
  192.1210  176.4640  146.9120 C   0  0  0  0  0  3  0  0  0  0  0  0
  188.5030  174.8150  142.0170 C   0  0  0  0  0  3  0  0  0  0  0  0
  189.7450  173.5730  140.3130 C   0  0  0  0  0  0  0  0  0  0  0  0
  189.7590  174.9550  142.7890 C   0  0  2  0  0  3  0  0  0  0  0  0
  192.1250  174.7980  144.2780 C   0  0  0  0  0  0  0  0  0  0  0  0
  189.7920  175.3670  144.0740 C   0  0  0  0  0  0  0  0  0  0  0  0
  193.3880  174.4290  144.9720 C   0  0  0  0  0  0  0  0  0  0  0  0
  188.5070  174.1740  140.8450 C   0  0  0  0  0  3  0  0  0  0  0  0
  192.0540  174.3300  142.9570 O   0  0  0  0  0  0  0  0  0  0  0  0
  190.9800  176.0080  146.1150 C   0  0  0  0  0  0  0  0  0  0  0  0
  193.3750  176.0560  146.8790 C   0  0  0  0  0  2  0  0  0  0  0  0
  188.5910  175.7580  144.6830 C   0  0  0  0  0  3  0  0  0  0  0  0
  193.9180  175.0000  146.0450 C   0  0  0  0  0  3  0  0  0  0  0  0
  189.6810  172.7430  139.2020 O   0  0  0  0  0  1  0  0  0  0  0  0
  188.5650  176.2510  145.9750 C   0  0  0  0  0  0  0  0  0  0  0  0
  191.0220  175.4060  144.8210 C   0  0  0  0  0  0  0  0  0  0  0  0
  190.9240  173.7990  140.9040 C   0  0  0  0  0  3  0  0  0  0  0  0
  189.7620  176.4080  146.6620 C   0  0  0  0  0  3  0  0  0  0  0  0
  191.0510  174.7570  142.0570 C   0  0  1  0  0  3  0  0  0  0  0  0
  194.2260  173.3370  144.3770 C   0  0  0  0  0  2  0  0  0  0  0  0
  194.4350  170.8170  144.5720 C   0  0  0  0  0  0  0  0  0  0  0  0
  193.9960  172.0790  145.0750 N   0  0  0  0  0  2  0  0  0  0  0  0
  194.9430  170.7270  143.4240 O   0  0  0  0  0  0  0  0  0  0  0  0
  194.3280  169.5930  145.4360 C   0  0  0  0  0  2  0  0  0  0  0  0
  195.0280  169.7050  146.7260 N   0  0  0  0  0  0  0  0  0  0  0  0
  194.6970  168.5740  147.5830 C   0  0  0  0  0  1  0  0  0  0  0  0
  196.4670  169.7100  146.5150 C   0  0  0  0  0  1  0  0  0  0  0  0
  187.3220  176.6660  146.5460 N   0  0  0  0  0  2  0  0  0  0  0  0
  187.2120  177.7920  147.4670 C   0  0  1  0  0  3  0  0  0  0  0  0
  186.1220  178.7550  147.1170 C   0  0  2  0  0  3  0  0  0  0  0  0
  185.9560  177.7610  148.1010 O   0  0  0  0  0  0  0  0  0  0  0  0
  184.9730  176.8750  145.5330 O   0  0  0  0  0  0  0  0  0  0  0  0
  185.1050  178.3660  145.6840 S   0  0  0  0  0  0  0  0  0  0  0  0
  183.7400  178.9800  145.8250 O   0  0  0  0  0  0  0  0  0  0  0  0
  185.8710  179.0420  144.2190 C   0  0  0  0  0  2  0  0  0  0  0  0
  187.2050  178.2720  142.2640 C   0  0  0  0  0  1  0  0  0  0  0  0
  184.7520  177.9890  142.2790 C   0  0  0  0  0  1  0  0  0  0  0  0
  185.9980  177.9850  143.1370 C   0  0  0  0  0  3  0  0  0  0  0  0
  3  8  1  0  0  0  0
  3 17  2  0  0  0  0
  4  2  1  6  0  0  0
  4  6  1  0  0  0  0
  5 16  2  0  0  0  0
  5  7  1  0  0  0  0
  6 12  2  0  0  0  0
  6 16  1  0  0  0  0
  7 13  2  0  0  0  0
  8  2  2  0  0  0  0
  9  5  1  0  0  0  0
 10 18  1  0  0  0  0
 10  1  2  0  0  0  0
 11  1  1  0  0  0  0
 12 15  1  0  0  0  0
 13 11  1  0  0  0  0
 14  3  1  0  0  0  0
 15 28  1  0  0  0  0
 15 18  2  0  0  0  0
 16 10  1  0  0  0  0
 19 17  1  6  0  0  0
 19  4  1  0  0  0  0
 19  9  1  0  0  0  0
 20  7  1  0  0  0  0
 20 22  1  0  0  0  0
 21 22  1  0  0  0  0
 21 24  1  0  0  0  0
 23 21  2  0  0  0  0
 24 25  1  0  0  0  0
 25 26  1  0  0  0  0
 27 25  1  0  0  0  0
 29 28  1  6  0  0  0
 29 31  1  0  0  0  0
 30 33  1  6  0  0  0
 30 29  1  0  0  0  0
 30 31  1  0  0  0  0
 32 33  2  0  0  0  0
 33 34  2  0  0  0  0
 35 33  1  0  0  0  0
 36 38  1  0  0  0  0
 37 38  1  0  0  0  0
 38 35  1  0  0  0  0
M  END
>  <MODEL>
4

>  <REMARK>
 VINA RESULT:      -7.2      2.813      5.319
  Name = 
  9 active torsions:
  status: ('A' for Active; 'I' for Inactive)
    1  A    between atoms: N_6  and  C_14
    2  A    between atoms: C_9  and  C_17
    3  A    between atoms: S_10  and  C_31
    4  A    between atoms: S_10  and  C_33
    5  A    between atoms: C_11  and  C_14
    6  A    between atoms: N_15  and  C_17
    7  A    between atoms: C_16  and  N_28
    8  A    between atoms: N_28  and  C_29
    9  A    between atoms: C_33  and  C_34
                            x       y       z     vdW  Elec       q    Type
                         _______ _______ _______ _____ _____    ______ ____

>  <TORSDO>
F 9

$$$$
=
 OpenBabel11042416273D

 38 42  0  0  1  0  0  0  0  0999 V2000
  188.1940  173.4330  140.7200 C   0  0  0  0  0  3  0  0  0  0  0  0
  191.0870  176.4360  145.4510 C   0  0  0  0  0  3  0  0  0  0  0  0
  193.3170  175.5360  145.9050 C   0  0  0  0  0  0  0  0  0  0  0  0
  190.9140  175.4020  144.4040 C   0  0  2  0  0  3  0  0  0  0  0  0
  190.9120  173.6400  142.2290 C   0  0  0  0  0  0  0  0  0  0  0  0
  189.9220  175.4390  143.4900 C   0  0  0  0  0  0  0  0  0  0  0  0
  191.1950  172.8000  141.0340 C   0  0  0  0  0  0  0  0  0  0  0  0
  192.2160  176.4840  146.1620 C   0  0  0  0  0  3  0  0  0  0  0  0
  191.9590  173.6540  143.1640 O   0  0  0  0  0  0  0  0  0  0  0  0
  188.6660  174.4910  141.6150 C   0  0  2  0  0  3  0  0  0  0  0  0
  188.8830  172.4830  140.1200 C   0  0  0  0  0  3  0  0  0  0  0  0
  188.9620  176.4560  143.5840 C   0  0  0  0  0  3  0  0  0  0  0  0
  190.3200  172.2870  140.1800 C   0  0  0  0  0  3  0  0  0  0  0  0
  194.5490  175.7350  146.5120 O   0  0  0  0  0  1  0  0  0  0  0  0
  187.8830  176.5110  142.7190 C   0  0  0  0  0  0  0  0  0  0  0  0
  189.8370  174.4670  142.4320 C   0  0  0  0  0  0  0  0  0  0  0  0
  193.1490  174.5020  145.0720 C   0  0  0  0  0  3  0  0  0  0  0  0
  187.7260  175.5080  141.7720 C   0  0  0  0  0  3  0  0  0  0  0  0
  191.8080  174.2020  144.4580 C   0  0  1  0  0  3  0  0  0  0  0  0
  192.6170  172.4010  140.7730 C   0  0  0  0  0  2  0  0  0  0  0  0
  194.5850  174.0020  140.7720 C   0  0  0  0  0  0  0  0  0  0  0  0
  193.3650  173.5180  140.2090 N   0  0  0  0  0  2  0  0  0  0  0  0
  195.0070  173.5510  141.8690 O   0  0  0  0  0  0  0  0  0  0  0  0
  195.3920  175.0270  140.0290 C   0  0  0  0  0  2  0  0  0  0  0  0
  196.5930  175.4820  140.7470 N   0  0  0  0  0  0  0  0  0  0  0  0
  197.7220  175.5880  139.8310 C   0  0  0  0  0  1  0  0  0  0  0  0
  196.3610  176.7900  141.3360 C   0  0  0  0  0  1  0  0  0  0  0  0
  186.9120  177.5480  142.8700 N   0  0  0  0  0  2  0  0  0  0  0  0
  185.5960  177.4970  142.2420 C   0  0  1  0  0  3  0  0  0  0  0  0
  184.4780  177.9140  143.1430 C   0  0  2  0  0  3  0  0  0  0  0  0
  185.0440  178.7900  142.1970 O   0  0  0  0  0  0  0  0  0  0  0  0
  185.9410  179.5470  144.7400 O   0  0  0  0  0  0  0  0  0  0  0  0
  184.9130  178.4510  144.8050 S   0  0  0  0  0  0  0  0  0  0  0  0
  183.6950  178.9450  145.5340 O   0  0  0  0  0  0  0  0  0  0  0  0
  185.5820  177.0670  145.7130 C   0  0  0  0  0  2  0  0  0  0  0  0
  187.6460  176.3280  146.8930 C   0  0  0  0  0  1  0  0  0  0  0  0
  186.1920  178.0510  147.9000 C   0  0  0  0  0  1  0  0  0  0  0  0
  186.7350  177.5050  146.5980 C   0  0  0  0  0  3  0  0  0  0  0  0
  2  8  2  0  0  0  0
  3  8  1  0  0  0  0
  3 14  1  0  0  0  0
  4 19  1  0  0  0  0
  4  2  1  1  0  0  0
  5 16  2  0  0  0  0
  5  9  1  0  0  0  0
  6 12  2  0  0  0  0
  6  4  1  0  0  0  0
  7  5  1  0  0  0  0
  9 19  1  0  0  0  0
 10  1  1  1  0  0  0
 10 18  1  0  0  0  0
 10 16  1  0  0  0  0
 11 13  1  0  0  0  0
 11  1  2  0  0  0  0
 13  7  2  0  0  0  0
 15 28  1  0  0  0  0
 15 12  1  0  0  0  0
 16  6  1  0  0  0  0
 17  3  2  0  0  0  0
 18 15  2  0  0  0  0
 19 17  1  6  0  0  0
 20  7  1  0  0  0  0
 21 23  2  0  0  0  0
 22 21  1  0  0  0  0
 22 20  1  0  0  0  0
 24 25  1  0  0  0  0
 24 21  1  0  0  0  0
 25 27  1  0  0  0  0
 26 25  1  0  0  0  0
 29 28  1  1  0  0  0
 29 30  1  0  0  0  0
 30 33  1  1  0  0  0
 31 29  1  0  0  0  0
 31 30  1  0  0  0  0
 32 33  2  0  0  0  0
 33 34  2  0  0  0  0
 33 35  1  0  0  0  0
 35 38  1  0  0  0  0
 38 36  1  0  0  0  0
 38 37  1  0  0  0  0
M  END
>  <MODEL>
5

>  <REMARK>
 VINA RESULT:      -7.2      1.908      2.520
  Name = 
  9 active torsions:
  status: ('A' for Active; 'I' for Inactive)
    1  A    between atoms: N_6  and  C_14
    2  A    between atoms: C_9  and  C_17
    3  A    between atoms: S_10  and  C_31
    4  A    between atoms: S_10  and  C_33
    5  A    between atoms: C_11  and  C_14
    6  A    between atoms: N_15  and  C_17
    7  A    between atoms: C_16  and  N_28
    8  A    between atoms: N_28  and  C_29
    9  A    between atoms: C_33  and  C_34
                            x       y       z     vdW  Elec       q    Type
                         _______ _______ _______ _____ _____    ______ ____

>  <TORSDO>
F 9

$$$$
=
 OpenBabel11042416273D

 38 42  0  0  1  0  0  0  0  0999 V2000
  191.1980  174.5610  142.1210 C   0  0  0  0  0  3  0  0  0  0  0  0
  189.5200  177.9800  147.1460 C   0  0  0  0  0  3  0  0  0  0  0  0
  191.1050  177.7630  148.9980 C   0  0  0  0  0  0  0  0  0  0  0  0
  190.3320  177.0130  146.3740 C   0  0  2  0  0  3  0  0  0  0  0  0
  192.1770  175.4750  144.9350 C   0  0  0  0  0  0  0  0  0  0  0  0
  190.1730  176.8090  145.0500 C   0  0  0  0  0  0  0  0  0  0  0  0
  193.3620  174.8370  144.3010 C   0  0  0  0  0  0  0  0  0  0  0  0
  189.8830  178.3190  148.3870 C   0  0  0  0  0  3  0  0  0  0  0  0
  192.3480  175.7420  146.3020 O   0  0  0  0  0  0  0  0  0  0  0  0
  190.6920  175.6520  142.9570 C   0  0  2  0  0  3  0  0  0  0  0  0
  192.3370  173.9020  142.2140 C   0  0  0  0  0  3  0  0  0  0  0  0
  189.1370  177.4830  144.3880 C   0  0  0  0  0  3  0  0  0  0  0  0
  193.3990  174.1420  143.1730 C   0  0  0  0  0  3  0  0  0  0  0  0
  191.5670  178.2820  150.1990 O   0  0  0  0  0  1  0  0  0  0  0  0
  188.8790  177.2690  143.0460 C   0  0  0  0  0  0  0  0  0  0  0  0
  191.0410  175.9270  144.3140 C   0  0  0  0  0  0  0  0  0  0  0  0
  191.7860  176.7820  148.3950 C   0  0  0  0  0  3  0  0  0  0  0  0
  189.6320  176.3280  142.3560 C   0  0  0  0  0  3  0  0  0  0  0  0
  191.2760  176.1340  147.1360 C   0  0  1  0  0  3  0  0  0  0  0  0
  194.6710  174.9000  145.0300 C   0  0  0  0  0  2  0  0  0  0  0  0
  196.5910  173.2850  145.4090 C   0  0  0  0  0  0  0  0  0  0  0  0
  195.5510  173.8240  144.5920 N   0  0  0  0  0  2  0  0  0  0  0  0
  196.8710  173.8130  146.5170 O   0  0  0  0  0  0  0  0  0  0  0  0
  197.3280  172.0560  144.9620 C   0  0  0  0  0  2  0  0  0  0  0  0
  197.0260  170.8530  145.7540 N   0  0  0  0  0  0  0  0  0  0  0  0
  195.5940  170.5860  145.7460 C   0  0  0  0  0  1  0  0  0  0  0  0
  197.7080  169.6980  145.1920 C   0  0  0  0  0  1  0  0  0  0  0  0
  187.7940  177.9560  142.4190 N   0  0  0  0  0  2  0  0  0  0  0  0
  186.9460  177.3360  141.4050 C   0  0  1  0  0  3  0  0  0  0  0  0
  185.4850  177.4070  141.7130 C   0  0  2  0  0  3  0  0  0  0  0  0
  186.1090  178.3100  140.8310 O   0  0  0  0  0  0  0  0  0  0  0  0
  185.8460  179.4940  143.4090 O   0  0  0  0  0  0  0  0  0  0  0  0
  184.9980  178.2660  143.2180 S   0  0  0  0  0  0  0  0  0  0  0  0
  183.5490  178.6600  143.1540 O   0  0  0  0  0  0  0  0  0  0  0  0
  185.2170  177.1740  144.6150 C   0  0  0  0  0  2  0  0  0  0  0  0
  186.1360  177.0580  146.9250 C   0  0  0  0  0  1  0  0  0  0  0  0
  184.2300  178.5450  146.4240 C   0  0  0  0  0  1  0  0  0  0  0  0
  185.5150  177.9620  145.8770 C   0  0  0  0  0  3  0  0  0  0  0  0
  1 11  2  0  0  0  0
  2  8  2  0  0  0  0
  3 14  1  0  0  0  0
  4 19  1  0  0  0  0
  4  2  1  1  0  0  0
  5  9  1  0  0  0  0
  6  4  1  0  0  0  0
  7  5  1  0  0  0  0
  7 20  1  0  0  0  0
  8  3  1  0  0  0  0
  9 19  1  0  0  0  0
 10  1  1  1  0  0  0
 10 16  1  0  0  0  0
 11 13  1  0  0  0  0
 12  6  2  0  0  0  0
 13  7  2  0  0  0  0
 15 12  1  0  0  0  0
 16  5  2  0  0  0  0
 16  6  1  0  0  0  0
 17  3  2  0  0  0  0
 18 10  1  0  0  0  0
 18 15  2  0  0  0  0
 19 17  1  1  0  0  0
 21 23  2  0  0  0  0
 22 20  1  0  0  0  0
 22 21  1  0  0  0  0
 24 21  1  0  0  0  0
 24 25  1  0  0  0  0
 26 25  1  0  0  0  0
 27 25  1  0  0  0  0
 28 15  1  0  0  0  0
 29 30  1  0  0  0  0
 29 28  1  1  0  0  0
 30 33  1  1  0  0  0
 31 29  1  0  0  0  0
 31 30  1  0  0  0  0
 33 32  2  0  0  0  0
 33 35  1  0  0  0  0
 34 33  2  0  0  0  0
 35 38  1  0  0  0  0
 38 37  1  0  0  0  0
 38 36  1  0  0  0  0
M  END
>  <MODEL>
6

>  <REMARK>
 VINA RESULT:      -7.1      1.869      2.479
  Name = 
  9 active torsions:
  status: ('A' for Active; 'I' for Inactive)
    1  A    between atoms: N_6  and  C_14
    2  A    between atoms: C_9  and  C_17
    3  A    between atoms: S_10  and  C_31
    4  A    between atoms: S_10  and  C_33
    5  A    between atoms: C_11  and  C_14
    6  A    between atoms: N_15  and  C_17
    7  A    between atoms: C_16  and  N_28
    8  A    between atoms: N_28  and  C_29
    9  A    between atoms: C_33  and  C_34
                            x       y       z     vdW  Elec       q    Type
                         _______ _______ _______ _____ _____    ______ ____

>  <TORSDO>
F 9

$$$$
=
 OpenBabel11042416273D

 38 42  0  0  1  0  0  0  0  0999 V2000
  192.1550  176.6980  146.5030 C   0  0  0  0  0  3  0  0  0  0  0  0
  188.6190  174.7720  141.6500 C   0  0  0  0  0  3  0  0  0  0  0  0
  189.6890  172.9860  140.3640 C   0  0  0  0  0  0  0  0  0  0  0  0
  189.8210  174.8310  142.5130 C   0  0  2  0  0  3  0  0  0  0  0  0
  191.9930  174.5450  144.2560 C   0  0  0  0  0  0  0  0  0  0  0  0
  189.8500  175.4900  143.6900 C   0  0  0  0  0  0  0  0  0  0  0  0
  193.1000  174.0960  145.1430 C   0  0  0  0  0  0  0  0  0  0  0  0
  188.5700  173.9090  140.6310 C   0  0  0  0  0  3  0  0  0  0  0  0
  191.9170  173.8310  143.0500 O   0  0  0  0  0  0  0  0  0  0  0  0
  191.0020  176.3100  145.6880 C   0  0  0  0  0  0  0  0  0  0  0  0
  193.2950  176.0610  146.6870 C   0  0  0  0  0  2  0  0  0  0  0  0
  188.7180  176.2220  144.0760 C   0  0  0  0  0  3  0  0  0  0  0  0
  193.6630  174.7700  146.1370 C   0  0  0  0  0  3  0  0  0  0  0  0
  189.5300  171.9680  139.4340 O   0  0  0  0  0  1  0  0  0  0  0  0
  188.7070  176.9720  145.2390 C   0  0  0  0  0  0  0  0  0  0  0  0
  191.0060  175.4520  144.5470 C   0  0  0  0  0  0  0  0  0  0  0  0
  190.8460  173.1030  141.0260 C   0  0  0  0  0  3  0  0  0  0  0  0
  189.8590  177.0400  146.0100 C   0  0  0  0  0  3  0  0  0  0  0  0
  191.0900  174.2410  141.9800 C   0  0  1  0  0  3  0  0  0  0  0  0
  193.7320  172.7650  144.8650 C   0  0  0  0  0  2  0  0  0  0  0  0
  195.8310  173.1780  143.5020 C   0  0  0  0  0  0  0  0  0  0  0  0
  195.1770  172.9020  144.7410 N   0  0  0  0  0  2  0  0  0  0  0  0
  195.1790  173.1930  142.4250 O   0  0  0  0  0  0  0  0  0  0  0  0
  197.2990  173.4910  143.4880 C   0  0  0  0  0  2  0  0  0  0  0  0
  197.6060  174.9270  143.3890 N   0  0  0  0  0  0  0  0  0  0  0  0
  197.8430  175.3010  142.0010 C   0  0  0  0  0  1  0  0  0  0  0  0
  196.4890  175.7130  143.8880 C   0  0  0  0  0  1  0  0  0  0  0  0
  187.5410  177.7260  145.5790 N   0  0  0  0  0  2  0  0  0  0  0  0
  186.5870  177.2930  146.5950 C   0  0  1  0  0  3  0  0  0  0  0  0
  185.1770  177.7030  146.3160 C   0  0  2  0  0  3  0  0  0  0  0  0
  185.6540  176.4110  146.0190 O   0  0  0  0  0  0  0  0  0  0  0  0
  183.4300  179.0500  144.7350 O   0  0  0  0  0  0  0  0  0  0  0  0
  184.8650  178.6010  144.7870 S   0  0  0  0  0  0  0  0  0  0  0  0
  185.7700  179.7960  144.6840 O   0  0  0  0  0  0  0  0  0  0  0  0
  185.1980  177.5290  143.3980 C   0  0  0  0  0  2  0  0  0  0  0  0
  184.1460  178.2850  141.2720 C   0  0  0  0  0  1  0  0  0  0  0  0
  186.5580  177.7590  141.3430 C   0  0  0  0  0  1  0  0  0  0  0  0
  185.3980  178.3340  142.1270 C   0  0  0  0  0  3  0  0  0  0  0  0
  1 11  1  0  0  0  0
  3  8  1  0  0  0  0
  3 17  2  0  0  0  0
  4  2  1  6  0  0  0
  4  6  1  0  0  0  0
  5 16  2  0  0  0  0
  5  7  1  0  0  0  0
  6 12  2  0  0  0  0
  6 16  1  0  0  0  0
  7 13  2  0  0  0  0
  8  2  2  0  0  0  0
  9  5  1  0  0  0  0
 10 18  1  0  0  0  0
 10  1  2  0  0  0  0
 12 15  1  0  0  0  0
 13 11  1  0  0  0  0
 14  3  1  0  0  0  0
 15 28  1  0  0  0  0
 15 18  2  0  0  0  0
 16 10  1  0  0  0  0
 19 17  1  6  0  0  0
 19  4  1  0  0  0  0
 19  9  1  0  0  0  0
 20  7  1  0  0  0  0
 21 22  1  0  0  0  0
 22 20  1  0  0  0  0
 23 21  2  0  0  0  0
 24 21  1  0  0  0  0
 25 24  1  0  0  0  0
 25 27  1  0  0  0  0
 26 25  1  0  0  0  0
 29 28  1  6  0  0  0
 30 33  1  6  0  0  0
 30 29  1  0  0  0  0
 31 30  1  0  0  0  0
 31 29  1  0  0  0  0
 32 33  2  0  0  0  0
 34 33  2  0  0  0  0
 35 33  1  0  0  0  0
 36 38  1  0  0  0  0
 37 38  1  0  0  0  0
 38 35  1  0  0  0  0
M  END
>  <MODEL>
7

>  <REMARK>
 VINA RESULT:      -7.0      2.131      4.651
  Name = 
  9 active torsions:
  status: ('A' for Active; 'I' for Inactive)
    1  A    between atoms: N_6  and  C_14
    2  A    between atoms: C_9  and  C_17
    3  A    between atoms: S_10  and  C_31
    4  A    between atoms: S_10  and  C_33
    5  A    between atoms: C_11  and  C_14
    6  A    between atoms: N_15  and  C_17
    7  A    between atoms: C_16  and  N_28
    8  A    between atoms: N_28  and  C_29
    9  A    between atoms: C_33  and  C_34
                            x       y       z     vdW  Elec       q    Type
                         _______ _______ _______ _____ _____    ______ ____

>  <TORSDO>
F 9

$$$$
=
 OpenBabel11042416273D

 38 42  0  0  1  0  0  0  0  0999 V2000
  190.8900  176.4820  146.0770 C   0  0  0  0  0  3  0  0  0  0  0  0
  191.2800  173.5420  140.5120 C   0  0  0  0  0  3  0  0  0  0  0  0
  189.2380  173.7790  139.1840 C   0  0  0  0  0  0  0  0  0  0  0  0
  190.6270  174.3050  141.6000 C   0  0  2  0  0  3  0  0  0  0  0  0
  189.3820  176.0700  143.3810 C   0  0  0  0  0  0  0  0  0  0  0  0
  191.3020  174.8070  142.6560 C   0  0  0  0  0  0  0  0  0  0  0  0
  188.6420  177.1580  144.0770 C   0  0  0  0  0  0  0  0  0  0  0  0
  190.6150  173.2870  139.3820 C   0  0  0  0  0  3  0  0  0  0  0  0
  188.7160  175.5750  142.2500 O   0  0  0  0  0  0  0  0  0  0  0  0
  191.4080  175.9680  144.8080 C   0  0  0  0  0  0  0  0  0  0  0  0
  189.7760  177.1470  146.3130 C   0  0  0  0  0  2  0  0  0  0  0  0
  192.6700  174.5250  142.7710 C   0  0  0  0  0  3  0  0  0  0  0  0
  188.7960  177.5680  145.3290 C   0  0  0  0  0  3  0  0  0  0  0  0
  188.6480  173.6780  137.9320 O   0  0  0  0  0  1  0  0  0  0  0  0
  193.4050  174.9540  143.8620 C   0  0  0  0  0  0  0  0  0  0  0  0
  190.6500  175.6210  143.6480 C   0  0  0  0  0  0  0  0  0  0  0  0
  188.5630  174.3450  140.1900 C   0  0  0  0  0  3  0  0  0  0  0  0
  192.7590  175.6350  144.8850 C   0  0  0  0  0  3  0  0  0  0  0  0
  189.1320  174.4000  141.5820 C   0  0  1  0  0  3  0  0  0  0  0  0
  187.5340  177.8430  143.3350 C   0  0  0  0  0  2  0  0  0  0  0  0
  185.2000  178.2270  144.2520 C   0  0  0  0  0  0  0  0  0  0  0  0
  186.6070  178.4700  144.2690 N   0  0  0  0  0  2  0  0  0  0  0  0
  184.6810  177.5410  143.3330 O   0  0  0  0  0  0  0  0  0  0  0  0
  184.3390  178.7590  145.3610 C   0  0  0  0  0  2  0  0  0  0  0  0
  184.6080  178.1530  146.6750 N   0  0  0  0  0  0  0  0  0  0  0  0
  185.1690  176.8180  146.5120 C   0  0  0  0  0  1  0  0  0  0  0  0
  185.5640  178.9620  147.4140 C   0  0  0  0  0  1  0  0  0  0  0  0
  194.7910  174.6180  143.9530 N   0  0  0  0  0  2  0  0  0  0  0  0
  195.6600  175.1280  145.0090 C   0  0  1  0  0  3  0  0  0  0  0  0
  196.3940  174.0610  145.7570 C   0  0  2  0  0  3  0  0  0  0  0  0
  196.9970  174.7990  144.7190 O   0  0  0  0  0  0  0  0  0  0  0  0
  196.3520  172.2460  143.7410 O   0  0  0  0  0  0  0  0  0  0  0  0
  196.1440  172.3600  145.2260 S   0  0  0  0  0  0  0  0  0  0  0  0
  197.0960  171.4400  145.9400 O   0  0  0  0  0  0  0  0  0  0  0  0
  194.4780  171.8570  145.6290 C   0  0  0  0  0  2  0  0  0  0  0  0
  192.4630  171.3420  144.2620 C   0  0  0  0  0  1  0  0  0  0  0  0
  193.9580  169.5210  145.0010 C   0  0  0  0  0  1  0  0  0  0  0  0
  193.9040  170.9630  144.5460 C   0  0  0  0  0  3  0  0  0  0  0  0
  1 11  1  0  0  0  0
  3  8  1  0  0  0  0
  3 17  2  0  0  0  0
  4  2  1  1  0  0  0
  4  6  1  0  0  0  0
  5 16  2  0  0  0  0
  5  7  1  0  0  0  0
  6 12  2  0  0  0  0
  6 16  1  0  0  0  0
  7 13  2  0  0  0  0
  8  2  2  0  0  0  0
  9  5  1  0  0  0  0
 10 18  1  0  0  0  0
 10  1  2  0  0  0  0
 12 15  1  0  0  0  0
 13 11  1  0  0  0  0
 14  3  1  0  0  0  0
 15 28  1  0  0  0  0
 15 18  2  0  0  0  0
 16 10  1  0  0  0  0
 19 17  1  6  0  0  0
 19  4  1  0  0  0  0
 19  9  1  0  0  0  0
 20  7  1  0  0  0  0
 20 22  1  0  0  0  0
 21 22  1  0  0  0  0
 21 24  1  0  0  0  0
 23 21  2  0  0  0  0
 24 25  1  0  0  0  0
 25 27  1  0  0  0  0
 26 25  1  0  0  0  0
 29 28  1  6  0  0  0
 29 30  1  0  0  0  0
 30 33  1  6  0  0  0
 31 29  1  0  0  0  0
 31 30  1  0  0  0  0
 32 33  2  0  0  0  0
 33 35  1  0  0  0  0
 33 34  2  0  0  0  0
 36 38  1  0  0  0  0
 38 37  1  0  0  0  0
 38 35  1  0  0  0  0
M  END
>  <MODEL>
8

>  <REMARK>
 VINA RESULT:      -6.9      3.284      9.322
  Name = 
  9 active torsions:
  status: ('A' for Active; 'I' for Inactive)
    1  A    between atoms: N_6  and  C_14
    2  A    between atoms: C_9  and  C_17
    3  A    between atoms: S_10  and  C_31
    4  A    between atoms: S_10  and  C_33
    5  A    between atoms: C_11  and  C_14
    6  A    between atoms: N_15  and  C_17
    7  A    between atoms: C_16  and  N_28
    8  A    between atoms: N_28  and  C_29
    9  A    between atoms: C_33  and  C_34
                            x       y       z     vdW  Elec       q    Type
                         _______ _______ _______ _____ _____    ______ ____

>  <TORSDO>
F 9

$$$$
=
 OpenBabel11042416273D

 38 42  0  0  1  0  0  0  0  0999 V2000
  190.6840  176.0820  147.0120 C   0  0  0  0  0  3  0  0  0  0  0  0
  190.6590  172.1860  142.0540 C   0  0  0  0  0  3  0  0  0  0  0  0
  188.8710  172.7040  140.4660 C   0  0  0  0  0  0  0  0  0  0  0  0
  190.1640  173.2770  142.9240 C   0  0  2  0  0  3  0  0  0  0  0  0
  189.3290  175.5980  144.2480 C   0  0  0  0  0  0  0  0  0  0  0  0
  190.8700  173.7670  143.9640 C   0  0  0  0  0  0  0  0  0  0  0  0
  188.8710  176.9480  144.6730 C   0  0  0  0  0  0  0  0  0  0  0  0
  190.0370  171.9130  140.9040 C   0  0  0  0  0  3  0  0  0  0  0  0
  188.6390  175.0980  143.1330 O   0  0  0  0  0  0  0  0  0  0  0  0
  191.1320  175.2290  145.9100 C   0  0  0  0  0  0  0  0  0  0  0  0
  189.7840  177.0460  147.0050 C   0  0  0  0  0  2  0  0  0  0  0  0
  192.0930  173.1630  144.2880 C   0  0  0  0  0  3  0  0  0  0  0  0
  189.0380  177.5240  145.8560 C   0  0  0  0  0  3  0  0  0  0  0  0
  188.3720  172.5360  139.1820 O   0  0  0  0  0  1  0  0  0  0  0  0
  192.8340  173.5750  145.3810 C   0  0  0  0  0  0  0  0  0  0  0  0
  190.3970  174.8890  144.7330 C   0  0  0  0  0  0  0  0  0  0  0  0
  188.3050  173.6000  141.2840 C   0  0  0  0  0  3  0  0  0  0  0  0
  192.3280  174.5750  146.2010 C   0  0  0  0  0  3  0  0  0  0  0  0
  188.7610  173.7550  142.7090 C   0  0  1  0  0  3  0  0  0  0  0  0
  188.0570  177.7540  143.7050 C   0  0  0  0  0  2  0  0  0  0  0  0
  185.5810  178.0550  144.1690 C   0  0  0  0  0  0  0  0  0  0  0  0
  186.9470  178.4050  144.3900 N   0  0  0  0  0  2  0  0  0  0  0  0
  185.2690  177.2350  143.2660 O   0  0  0  0  0  0  0  0  0  0  0  0
  184.5110  178.6370  145.0490 C   0  0  0  0  0  2  0  0  0  0  0  0
  184.4940  178.0900  146.4150 N   0  0  0  0  0  0  0  0  0  0  0  0
  185.1340  176.7820  146.4460 C   0  0  0  0  0  1  0  0  0  0  0  0
  185.2170  178.9730  147.3170 C   0  0  0  0  0  1  0  0  0  0  0  0
  194.0610  172.9110  145.6910 N   0  0  0  0  0  2  0  0  0  0  0  0
  194.7070  171.9770  144.7760 C   0  0  1  0  0  3  0  0  0  0  0  0
  195.9730  172.4970  144.1740 C   0  0  2  0  0  3  0  0  0  0  0  0
  195.9730  171.6240  145.2790 O   0  0  0  0  0  0  0  0  0  0  0  0
  196.4320  174.2570  146.1870 O   0  0  0  0  0  0  0  0  0  0  0  0
  196.5230  174.1310  144.6910 S   0  0  0  0  0  0  0  0  0  0  0  0
  197.9400  174.3730  144.2510 O   0  0  0  0  0  0  0  0  0  0  0  0
  195.4840  175.3690  143.9300 C   0  0  0  0  0  2  0  0  0  0  0  0
  195.9510  176.5410  141.7850 C   0  0  0  0  0  1  0  0  0  0  0  0
  194.1130  174.8980  141.9250 C   0  0  0  0  0  1  0  0  0  0  0  0
  195.5020  175.2380  142.4180 C   0  0  0  0  0  3  0  0  0  0  0  0
  3  8  1  0  0  0  0
  3 17  2  0  0  0  0
  4  2  1  1  0  0  0
  4  6  1  0  0  0  0
  5  7  1  0  0  0  0
  5 16  2  0  0  0  0
  6 12  2  0  0  0  0
  6 16  1  0  0  0  0
  7 13  2  0  0  0  0
  8  2  2  0  0  0  0
  9  5  1  0  0  0  0
 10 18  1  0  0  0  0
 10  1  2  0  0  0  0
 11  1  1  0  0  0  0
 12 15  1  0  0  0  0
 13 11  1  0  0  0  0
 14  3  1  0  0  0  0
 15 28  1  0  0  0  0
 15 18  2  0  0  0  0
 16 10  1  0  0  0  0
 19 17  1  6  0  0  0
 19  4  1  0  0  0  0
 19  9  1  0  0  0  0
 20 22  1  0  0  0  0
 20  7  1  0  0  0  0
 21 22  1  0  0  0  0
 21 24  1  0  0  0  0
 23 21  2  0  0  0  0
 24 25  1  0  0  0  0
 25 26  1  0  0  0  0
 25 27  1  0  0  0  0
 29 31  1  0  0  0  0
 29 28  1  1  0  0  0
 30 33  1  1  0  0  0
 30 29  1  0  0  0  0
 30 31  1  0  0  0  0
 33 32  2  0  0  0  0
 34 33  2  0  0  0  0
 35 33  1  0  0  0  0
 36 38  1  0  0  0  0
 37 38  1  0  0  0  0
 38 35  1  0  0  0  0
M  END
>  <MODEL>
9

>  <REMARK>
 VINA RESULT:      -6.9      2.977      9.174
  Name = 
  9 active torsions:
  status: ('A' for Active; 'I' for Inactive)
    1  A    between atoms: N_6  and  C_14
    2  A    between atoms: C_9  and  C_17
    3  A    between atoms: S_10  and  C_31
    4  A    between atoms: S_10  and  C_33
    5  A    between atoms: C_11  and  C_14
    6  A    between atoms: N_15  and  C_17
    7  A    between atoms: C_16  and  N_28
    8  A    between atoms: N_28  and  C_29
    9  A    between atoms: C_33  and  C_34
                            x       y       z     vdW  Elec       q    Type
                         _______ _______ _______ _____ _____    ______ ____

>  <TORSDO>
F 9

$$$$
