=
 OpenBabel11042415373D

 39 43  0  0  1  0  0  0  0  0999 V2000
  189.7470  173.5320  142.4630 N   0  0  0  0  0  0  0  0  0  0  0  0
  190.3010  172.5730  143.4340 C   0  0  2  0  0  3  0  0  0  0  0  0
  190.2470  174.3940  145.1860 C   0  0  2  0  0  3  0  0  0  0  0  0
  190.2640  174.8740  142.7210 C   0  0  0  0  0  2  0  0  0  0  0  0
  189.7900  175.3680  144.0860 C   0  0  2  0  0  3  0  0  0  0  0  0
  190.1300  173.1480  141.1110 C   0  0  0  0  0  1  0  0  0  0  0  0
  189.8460  172.9540  144.8440 C   0  0  0  0  0  2  0  0  0  0  0  0
  190.7450  175.1370  147.5150 C   0  0  0  0  0  1  0  0  0  0  0  0
  189.6480  174.7710  146.5340 C   0  0  0  0  0  2  0  0  0  0  0  0
  190.3660  176.7620  144.3070 C   0  0  0  0  0  2  0  0  0  0  0  0
  189.4230  177.8380  143.7940 C   0  0  0  0  0  2  0  0  0  0  0  0
  187.2220  178.2930  142.0530 O   0  0  0  0  0  0  0  0  0  0  0  0
  188.0440  177.4670  144.0760 N   0  0  0  0  0  2  0  0  0  0  0  0
  186.9840  177.7410  143.1620 C   0  0  0  0  0  0  0  0  0  0  0  0
  185.5830  177.3870  143.5470 C   0  0  2  0  0  3  0  0  0  0  0  0
  184.7450  177.4070  142.4310 O   0  0  0  0  0  1  0  0  0  0  0  0
  185.0390  178.2990  144.6500 C   0  0  0  0  0  0  0  0  0  0  0  0
  183.9240  179.2020  144.1670 C   0  0  0  0  0  2  0  0  0  0  0  0
  185.2970  179.7810  144.4660 C   0  0  0  0  0  2  0  0  0  0  0  0
  185.8370  177.7160  148.1940 O   0  0  0  0  0  1  0  0  0  0  0  0
  186.0840  177.6710  146.8230 C   0  0  1  0  0  3  0  0  0  0  0  0
  185.4330  176.5540  146.2740 O   0  0  0  0  0  0  0  0  0  0  0  0
  184.8050  177.8010  146.0820 C   0  0  2  0  0  3  0  0  0  0  0  0
  191.8300  172.4540  143.3660 C   0  0  0  0  0  2  0  0  0  0  0  0
  192.3110  171.3370  144.2820 C   0  0  0  0  0  2  0  0  0  0  0  0
  193.8350  171.2170  144.2820 C   0  0  1  0  0  3  0  0  0  0  0  0
  195.7100  171.3120  145.8610 N   0  0  0  0  0  2  0  0  0  0  0  0
  194.7730  173.3560  145.0550 N   0  0  2  0  0  0  0  0  0  0  0  0
  195.1010  176.3390  145.1330 C   0  0  0  0  0  2  0  0  0  0  0  0
  193.7660  175.5890  145.1120 C   0  0  0  0  0  2  0  0  0  0  0  0
  193.8640  174.2260  145.7890 C   0  0  0  0  0  2  0  0  0  0  0  0
  194.4770  171.9800  145.4480 C   0  0  1  0  0  3  0  0  0  0  0  0
  196.0980  173.6220  145.5770 C   0  0  1  0  0  3  0  0  0  0  0  0
  196.7710  172.2900  145.7160 C   0  0  0  0  0  2  0  0  0  0  0  0
  196.8910  174.5350  144.6450 C   0  0  0  0  0  2  0  0  0  0  0  0
  196.1240  175.7660  144.1420 C   0  0  1  0  0  3  0  0  0  0  0  0
  195.5380  175.5050  142.9010 O   0  0  0  0  0  1  0  0  0  0  0  0
  194.2100  169.8690  144.3160 O   0  0  0  0  0  0  0  0  0  0  0  0
  193.0090  169.1650  144.4260 C   0  0  0  0  0  1  0  0  0  0  0  0
  1  4  1  0  0  0  0
  1  2  1  0  0  0  0
  2 24  1  1  0  0  0
  2  7  1  0  0  0  0
  3  9  1  1  0  0  0
  4  5  1  0  0  0  0
  5 10  1  1  0  0  0
  5  3  1  0  0  0  0
  6  1  1  0  0  0  0
  7  3  1  0  0  0  0
  9  8  1  0  0  0  0
 11 13  1  0  0  0  0
 11 10  1  0  0  0  0
 12 14  2  0  0  0  0
 14 15  1  0  0  0  0
 14 13  1  0  0  0  0
 15 16  1  6  0  0  0
 15 17  1  0  0  0  0
 18 19  1  0  0  0  0
 18 17  1  0  0  0  0
 19 17  1  0  0  0  0
 21 20  1  1  0  0  0
 22 21  1  0  0  0  0
 23 17  1  6  0  0  0
 23 22  1  0  0  0  0
 23 21  1  0  0  0  0
 24 25  1  0  0  0  0
 26 25  1  1  0  0  0
 26 38  1  0  0  0  0
 28 32  1  0  0  0  0
 28 33  1  0  0  0  0
 28 31  1  1  0  0  0
 30 29  1  0  0  0  0
 30 31  1  0  0  0  0
 32 26  1  6  0  0  0
 32 27  1  0  0  0  0
 33 35  1  6  0  0  0
 33 34  1  0  0  0  0
 34 27  1  0  0  0  0
 36 37  1  6  0  0  0
 36 35  1  0  0  0  0
 36 29  1  0  0  0  0
 38 39  1  0  0  0  0
M  END
>  <MODEL>
1

>  <REMARK>
 VINA RESULT:      -7.1      0.000      0.000
  Name = 
  12 active torsions:
  status: ('A' for Active; 'I' for Inactive)
    1  A    between atoms: C_2  and  N_19
    2  A    between atoms: C_2  and  C_27
    3  A    between atoms: O_3  and  C_4
    4  A    between atoms: C_4  and  C_18
    5  A    between atoms: C_4  and  C_21
    6  A    between atoms: C_6  and  C_32
    7  A    between atoms: C_14  and  C_17
    8  A    between atoms: C_14  and  C_34
    9  A    between atoms: C_15  and  C_35
   10  A    between atoms: C_18  and  C_32
   11  A    between atoms: C_24  and  C_34
   12  A    between atoms: C_25  and  C_27
                            x       y       z     vdW  Elec       q    Type
                         _______ _______ _______ _____ _____    ______ ____

>  <TORSDO>
F 12

$$$$
=
 OpenBabel11042415373D

 39 43  0  0  1  0  0  0  0  0999 V2000
  191.0260  175.8300  147.3400 N   0  0  0  0  0  0  0  0  0  0  0  0
  189.5960  175.5200  147.1670 C   0  0  2  0  0  3  0  0  0  0  0  0
  190.1310  174.5700  144.8860 C   0  0  2  0  0  3  0  0  0  0  0  0
  191.6210  176.2140  146.0620 C   0  0  0  0  0  2  0  0  0  0  0  0
  191.5830  175.0390  145.0880 C   0  0  2  0  0  3  0  0  0  0  0  0
  191.1840  176.9400  148.2690 C   0  0  0  0  0  1  0  0  0  0  0  0
  189.4450  174.3160  146.2340 C   0  0  0  0  0  2  0  0  0  0  0  0
  189.6970  172.1130  144.9220 C   0  0  0  0  0  1  0  0  0  0  0  0
  190.0790  173.2970  144.0530 C   0  0  0  0  0  2  0  0  0  0  0  0
  192.2050  175.4970  143.7740 C   0  0  0  0  0  2  0  0  0  0  0  0
  193.2270  176.5990  144.0010 C   0  0  0  0  0  2  0  0  0  0  0  0
  195.0340  175.4640  145.8790 O   0  0  0  0  0  0  0  0  0  0  0  0
  194.5610  176.1120  143.6860 N   0  0  0  0  0  2  0  0  0  0  0  0
  195.4240  175.5680  144.6840 C   0  0  0  0  0  0  0  0  0  0  0  0
  196.8060  175.1450  144.2980 C   0  0  2  0  0  3  0  0  0  0  0  0
  197.2820  175.9220  143.2400 O   0  0  0  0  0  1  0  0  0  0  0  0
  196.8790  173.6550  143.9550 C   0  0  0  0  0  0  0  0  0  0  0  0
  197.3690  173.4030  142.5450 C   0  0  0  0  0  2  0  0  0  0  0  0
  195.9080  173.1760  142.8950 C   0  0  0  0  0  2  0  0  0  0  0  0
  196.6760  170.8370  146.3110 O   0  0  0  0  0  1  0  0  0  0  0  0
  196.3100  172.0810  145.8000 C   0  0  1  0  0  3  0  0  0  0  0  0
  197.2060  173.0550  146.2720 O   0  0  0  0  0  0  0  0  0  0  0  0
  197.4030  172.6110  144.9490 C   0  0  2  0  0  3  0  0  0  0  0  0
  188.7720  176.7110  146.6600 C   0  0  0  0  0  2  0  0  0  0  0  0
  187.2850  176.4180  146.8000 C   0  0  0  0  0  2  0  0  0  0  0  0
  186.4260  177.5950  146.3370 C   0  0  1  0  0  3  0  0  0  0  0  0
  184.4690  178.2130  144.9920 N   0  0  0  0  0  2  0  0  0  0  0  0
  186.3410  177.1980  143.9100 N   0  0  2  0  0  0  0  0  0  0  0  0
  187.4120  176.3960  141.2230 C   0  0  0  0  0  2  0  0  0  0  0  0
  187.6030  175.6170  142.5270 C   0  0  0  0  0  2  0  0  0  0  0  0
  186.4320  175.8080  143.4850 C   0  0  0  0  0  2  0  0  0  0  0  0
  185.5450  177.2330  145.1340 C   0  0  1  0  0  3  0  0  0  0  0  0
  185.5350  177.8750  142.9140 C   0  0  1  0  0  3  0  0  0  0  0  0
  184.6130  178.7860  143.6670 C   0  0  0  0  0  2  0  0  0  0  0  0
  186.4030  178.6690  141.9400 C   0  0  0  0  0  2  0  0  0  0  0  0
  187.6190  177.9070  141.3930 C   0  0  1  0  0  3  0  0  0  0  0  0
  188.7530  178.1810  142.1610 O   0  0  0  0  0  1  0  0  0  0  0  0
  185.6390  178.0620  147.3960 O   0  0  0  0  0  0  0  0  0  0  0  0
  186.3340  179.1620  147.9010 C   0  0  0  0  0  1  0  0  0  0  0  0
  1  6  1  0  0  0  0
  2 24  1  6  0  0  0
  2  1  1  0  0  0  0
  3  9  1  6  0  0  0
  3  5  1  0  0  0  0
  3  7  1  0  0  0  0
  4  1  1  0  0  0  0
  5 10  1  6  0  0  0
  5  4  1  0  0  0  0
  7  2  1  0  0  0  0
  9  8  1  0  0  0  0
 10 11  1  0  0  0  0
 13 11  1  0  0  0  0
 13 14  1  0  0  0  0
 14 12  2  0  0  0  0
 15 16  1  6  0  0  0
 15 14  1  0  0  0  0
 17 15  1  0  0  0  0
 18 19  1  0  0  0  0
 18 17  1  0  0  0  0
 19 17  1  0  0  0  0
 21 22  1  0  0  0  0
 21 20  1  1  0  0  0
 23 17  1  6  0  0  0
 23 21  1  0  0  0  0
 23 22  1  0  0  0  0
 24 25  1  0  0  0  0
 26 25  1  1  0  0  0
 26 38  1  0  0  0  0
 27 32  1  0  0  0  0
 28 31  1  6  0  0  0
 28 32  1  0  0  0  0
 29 36  1  0  0  0  0
 29 30  1  0  0  0  0
 30 31  1  0  0  0  0
 32 26  1  1  0  0  0
 33 35  1  6  0  0  0
 33 34  1  0  0  0  0
 33 28  1  0  0  0  0
 34 27  1  0  0  0  0
 36 35  1  0  0  0  0
 36 37  1  1  0  0  0
 38 39  1  0  0  0  0
M  END
>  <MODEL>
2

>  <REMARK>
 VINA RESULT:      -7.0      2.296      9.509
  Name = 
  12 active torsions:
  status: ('A' for Active; 'I' for Inactive)
    1  A    between atoms: C_2  and  N_19
    2  A    between atoms: C_2  and  C_27
    3  A    between atoms: O_3  and  C_4
    4  A    between atoms: C_4  and  C_18
    5  A    between atoms: C_4  and  C_21
    6  A    between atoms: C_6  and  C_32
    7  A    between atoms: C_14  and  C_17
    8  A    between atoms: C_14  and  C_34
    9  A    between atoms: C_15  and  C_35
   10  A    between atoms: C_18  and  C_32
   11  A    between atoms: C_24  and  C_34
   12  A    between atoms: C_25  and  C_27
                            x       y       z     vdW  Elec       q    Type
                         _______ _______ _______ _____ _____    ______ ____

>  <TORSDO>
F 12

$$$$
=
 OpenBabel11042415373D

 39 43  0  0  1  0  0  0  0  0999 V2000
  189.3490  173.6790  142.8760 N   0  0  0  0  0  0  0  0  0  0  0  0
  190.0570  172.7060  143.7280 C   0  0  2  0  0  3  0  0  0  0  0  0
  190.5930  174.5820  145.3360 C   0  0  2  0  0  3  0  0  0  0  0  0
  190.0180  174.9770  142.9230 C   0  0  0  0  0  2  0  0  0  0  0  0
  189.9470  175.5560  144.3340 C   0  0  2  0  0  3  0  0  0  0  0  0
  189.3430  173.2180  141.4950 C   0  0  0  0  0  1  0  0  0  0  0  0
  190.0060  173.1720  145.1840 C   0  0  0  0  0  2  0  0  0  0  0  0
  188.9620  174.7880  147.2130 C   0  0  0  0  0  1  0  0  0  0  0  0
  190.3880  175.0540  146.7680 C   0  0  0  0  0  2  0  0  0  0  0  0
  190.6660  176.8990  144.3270 C   0  0  0  0  0  2  0  0  0  0  0  0
  189.7480  178.0160  143.8600 C   0  0  0  0  0  2  0  0  0  0  0  0
  187.5620  177.9250  142.0450 O   0  0  0  0  0  0  0  0  0  0  0  0
  188.3720  177.7150  144.2240 N   0  0  0  0  0  2  0  0  0  0  0  0
  187.3190  177.7020  143.2620 C   0  0  0  0  0  0  0  0  0  0  0  0
  185.9180  177.4460  143.7210 C   0  0  2  0  0  3  0  0  0  0  0  0
  185.0590  177.3130  142.6280 O   0  0  0  0  0  1  0  0  0  0  0  0
  185.4160  178.5290  144.6780 C   0  0  0  0  0  0  0  0  0  0  0  0
  184.0740  179.0960  144.2690 C   0  0  0  0  0  2  0  0  0  0  0  0
  185.3340  179.9290  144.1030 C   0  0  0  0  0  2  0  0  0  0  0  0
  186.0310  176.8320  147.8840 O   0  0  0  0  0  1  0  0  0  0  0  0
  185.4240  176.9930  146.6400 C   0  0  1  0  0  3  0  0  0  0  0  0
  184.3620  177.9050  146.7600 O   0  0  0  0  0  0  0  0  0  0  0  0
  185.5560  178.4040  146.2010 C   0  0  2  0  0  3  0  0  0  0  0  0
  191.5030  172.4500  143.2840 C   0  0  0  0  0  2  0  0  0  0  0  0
  192.3240  171.9220  144.4530 C   0  0  0  0  0  2  0  0  0  0  0  0
  193.7340  172.5140  144.4720 C   0  0  1  0  0  3  0  0  0  0  0  0
  194.2060  174.4640  145.8840 N   0  0  0  0  0  2  0  0  0  0  0  0
  194.5590  174.6310  143.5270 N   0  0  2  0  0  0  0  0  0  0  0  0
  195.5830  176.4620  141.3800 C   0  0  0  0  0  2  0  0  0  0  0  0
  194.3920  175.5100  141.2460 C   0  0  0  0  0  2  0  0  0  0  0  0
  193.6780  175.2940  142.5760 C   0  0  0  0  0  2  0  0  0  0  0  0
  193.7200  174.0450  144.5700 C   0  0  1  0  0  3  0  0  0  0  0  0
  195.3070  175.6810  144.1880 C   0  0  1  0  0  3  0  0  0  0  0  0
  195.3560  175.3130  145.6400 C   0  0  0  0  0  2  0  0  0  0  0  0
  196.7160  175.8090  143.6140 C   0  0  0  0  0  2  0  0  0  0  0  0
  196.7880  175.8180  142.0800 C   0  0  1  0  0  3  0  0  0  0  0  0
  197.0280  174.5300  141.5950 O   0  0  0  0  0  1  0  0  0  0  0  0
  194.4710  171.9640  145.5260 O   0  0  0  0  0  0  0  0  0  0  0  0
  194.6980  170.6380  145.1520 C   0  0  0  0  0  1  0  0  0  0  0  0
  1  4  1  0  0  0  0
  1  2  1  0  0  0  0
  2 24  1  6  0  0  0
  2  7  1  0  0  0  0
  3  9  1  1  0  0  0
  4  5  1  0  0  0  0
  5 10  1  6  0  0  0
  5  3  1  0  0  0  0
  6  1  1  0  0  0  0
  7  3  1  0  0  0  0
  9  8  1  0  0  0  0
 11 13  1  0  0  0  0
 11 10  1  0  0  0  0
 12 14  2  0  0  0  0
 14 15  1  0  0  0  0
 14 13  1  0  0  0  0
 15 16  1  6  0  0  0
 15 17  1  0  0  0  0
 18 17  1  0  0  0  0
 19 18  1  0  0  0  0
 19 17  1  0  0  0  0
 21 22  1  0  0  0  0
 21 20  1  1  0  0  0
 23 17  1  6  0  0  0
 23 21  1  0  0  0  0
 23 22  1  0  0  0  0
 24 25  1  0  0  0  0
 26 25  1  1  0  0  0
 26 38  1  0  0  0  0
 28 31  1  6  0  0  0
 28 33  1  0  0  0  0
 28 32  1  0  0  0  0
 29 36  1  0  0  0  0
 30 29  1  0  0  0  0
 30 31  1  0  0  0  0
 32 26  1  1  0  0  0
 32 27  1  0  0  0  0
 33 35  1  6  0  0  0
 33 34  1  0  0  0  0
 34 27  1  0  0  0  0
 36 37  1  6  0  0  0
 36 35  1  0  0  0  0
 39 38  1  0  0  0  0
M  END
>  <MODEL>
3

>  <REMARK>
 VINA RESULT:      -6.8      1.315      1.757
  Name = 
  12 active torsions:
  status: ('A' for Active; 'I' for Inactive)
    1  A    between atoms: C_2  and  N_19
    2  A    between atoms: C_2  and  C_27
    3  A    between atoms: O_3  and  C_4
    4  A    between atoms: C_4  and  C_18
    5  A    between atoms: C_4  and  C_21
    6  A    between atoms: C_6  and  C_32
    7  A    between atoms: C_14  and  C_17
    8  A    between atoms: C_14  and  C_34
    9  A    between atoms: C_15  and  C_35
   10  A    between atoms: C_18  and  C_32
   11  A    between atoms: C_24  and  C_34
   12  A    between atoms: C_25  and  C_27
                            x       y       z     vdW  Elec       q    Type
                         _______ _______ _______ _____ _____    ______ ____

>  <TORSDO>
F 12

$$$$
=
 OpenBabel11042415373D

 39 43  0  0  1  0  0  0  0  0999 V2000
  191.2630  172.4080  140.3370 N   0  0  0  0  0  0  0  0  0  0  0  0
  192.1920  172.8560  141.3900 C   0  0  2  0  0  3  0  0  0  0  0  0
  190.2450  172.9370  143.0010 C   0  0  2  0  0  3  0  0  0  0  0  0
  189.9570  173.0410  140.5080 C   0  0  0  0  0  2  0  0  0  0  0  0
  189.3210  172.5890  141.8200 C   0  0  2  0  0  3  0  0  0  0  0  0
  191.7810  172.7780  139.0270 C   0  0  0  0  0  1  0  0  0  0  0  0
  191.6650  172.4120  142.7560 C   0  0  0  0  0  2  0  0  0  0  0  0
  189.7450  173.3950  145.4020 C   0  0  0  0  0  1  0  0  0  0  0  0
  189.7150  172.3510  144.3020 C   0  0  0  0  0  2  0  0  0  0  0  0
  187.9710  173.2850  141.9510 C   0  0  0  0  0  2  0  0  0  0  0  0
  188.1330  174.7940  142.0360 C   0  0  0  0  0  2  0  0  0  0  0  0
  187.1850  177.4320  141.5650 O   0  0  0  0  0  0  0  0  0  0  0  0
  186.9620  175.3860  142.6660 N   0  0  0  0  0  2  0  0  0  0  0  0
  186.5520  176.7240  142.3950 C   0  0  0  0  0  0  0  0  0  0  0  0
  185.3750  177.2870  143.1270 C   0  0  2  0  0  3  0  0  0  0  0  0
  184.4830  177.8900  142.2380 O   0  0  0  0  0  1  0  0  0  0  0  0
  185.7920  178.2660  144.2270 C   0  0  0  0  0  0  0  0  0  0  0  0
  184.6130  178.9800  144.8530 C   0  0  0  0  0  2  0  0  0  0  0  0
  185.5540  179.7330  143.9270 C   0  0  0  0  0  2  0  0  0  0  0  0
  187.6180  176.1860  146.6510 O   0  0  0  0  0  1  0  0  0  0  0  0
  186.4820  176.7790  146.1030 C   0  0  1  0  0  3  0  0  0  0  0  0
  186.3870  178.1040  146.5620 O   0  0  0  0  0  0  0  0  0  0  0  0
  186.8800  177.9280  145.2530 C   0  0  2  0  0  3  0  0  0  0  0  0
  192.4510  174.3690  141.3680 C   0  0  0  0  0  2  0  0  0  0  0  0
  193.9270  174.6520  141.6130 C   0  0  0  0  0  2  0  0  0  0  0  0
  194.1620  176.0920  142.0700 C   0  0  1  0  0  3  0  0  0  0  0  0
  193.1150  176.5820  144.2340 N   0  0  0  0  0  2  0  0  0  0  0  0
  194.8230  174.9140  144.1270 N   0  0  2  0  0  0  0  0  0  0  0  0
  196.2760  172.8630  145.7670 C   0  0  0  0  0  2  0  0  0  0  0  0
  196.8970  173.7270  144.6660 C   0  0  0  0  0  2  0  0  0  0  0  0
  196.2080  175.0820  144.5450 C   0  0  0  0  0  2  0  0  0  0  0  0
  194.3670  176.1940  143.5870 C   0  0  1  0  0  3  0  0  0  0  0  0
  194.0540  174.7210  145.3400 C   0  0  1  0  0  3  0  0  0  0  0  0
  192.8000  175.5260  145.1780 C   0  0  0  0  0  2  0  0  0  0  0  0
  193.7250  173.2460  145.5620 C   0  0  0  0  0  2  0  0  0  0  0  0
  194.9090  172.2870  145.3750 C   0  0  1  0  0  3  0  0  0  0  0  0
  194.9260  171.7800  144.0730 O   0  0  0  0  0  1  0  0  0  0  0  0
  195.2580  176.6380  141.3910 O   0  0  0  0  0  0  0  0  0  0  0  0
  195.8190  175.5650  140.6960 C   0  0  0  0  0  1  0  0  0  0  0  0
  1  4  1  0  0  0  0
  1  2  1  0  0  0  0
  2 24  1  1  0  0  0
  2  7  1  0  0  0  0
  3  9  1  1  0  0  0
  4  5  1  0  0  0  0
  5 10  1  1  0  0  0
  5  3  1  0  0  0  0
  6  1  1  0  0  0  0
  7  3  1  0  0  0  0
  9  8  1  0  0  0  0
 10 11  1  0  0  0  0
 11 13  1  0  0  0  0
 12 14  2  0  0  0  0
 14 13  1  0  0  0  0
 14 15  1  0  0  0  0
 15 16  1  6  0  0  0
 15 17  1  0  0  0  0
 17 18  1  0  0  0  0
 19 17  1  0  0  0  0
 19 18  1  0  0  0  0
 21 22  1  0  0  0  0
 21 20  1  1  0  0  0
 23 17  1  6  0  0  0
 23 21  1  0  0  0  0
 23 22  1  0  0  0  0
 24 25  1  0  0  0  0
 26 25  1  6  0  0  0
 27 34  1  0  0  0  0
 28 31  1  1  0  0  0
 28 33  1  0  0  0  0
 30 29  1  0  0  0  0
 31 30  1  0  0  0  0
 32 26  1  6  0  0  0
 32 28  1  0  0  0  0
 32 27  1  0  0  0  0
 33 34  1  6  0  0  0
 33 35  1  0  0  0  0
 36 37  1  6  0  0  0
 36 35  1  0  0  0  0
 36 29  1  0  0  0  0
 38 26  1  0  0  0  0
 39 38  1  0  0  0  0
M  END
>  <MODEL>
4

>  <REMARK>
 VINA RESULT:      -6.8      1.833      3.561
  Name = 
  12 active torsions:
  status: ('A' for Active; 'I' for Inactive)
    1  A    between atoms: C_2  and  N_19
    2  A    between atoms: C_2  and  C_27
    3  A    between atoms: O_3  and  C_4
    4  A    between atoms: C_4  and  C_18
    5  A    between atoms: C_4  and  C_21
    6  A    between atoms: C_6  and  C_32
    7  A    between atoms: C_14  and  C_17
    8  A    between atoms: C_14  and  C_34
    9  A    between atoms: C_15  and  C_35
   10  A    between atoms: C_18  and  C_32
   11  A    between atoms: C_24  and  C_34
   12  A    between atoms: C_25  and  C_27
                            x       y       z     vdW  Elec       q    Type
                         _______ _______ _______ _____ _____    ______ ____

>  <TORSDO>
F 12

$$$$
=
 OpenBabel11042415373D

 39 43  0  0  1  0  0  0  0  0999 V2000
  191.1270  171.2610  140.6680 N   0  0  0  0  0  0  0  0  0  0  0  0
  192.1630  171.6320  141.6470 C   0  0  2  0  0  3  0  0  0  0  0  0
  190.3390  172.4790  143.1790 C   0  0  2  0  0  3  0  0  0  0  0  0
  190.0280  172.2240  140.7000 C   0  0  0  0  0  2  0  0  0  0  0  0
  189.3290  172.1800  142.0570 C   0  0  2  0  0  3  0  0  0  0  0  0
  191.6910  171.2570  139.3250 C   0  0  0  0  0  1  0  0  0  0  0  0
  191.5740  171.5770  143.0580 C   0  0  0  0  0  2  0  0  0  0  0  0
  189.7580  173.5690  145.3470 C   0  0  0  0  0  1  0  0  0  0  0  0
  189.7090  172.2790  144.5490 C   0  0  0  0  0  2  0  0  0  0  0  0
  188.2040  173.2080  142.0370 C   0  0  0  0  0  2  0  0  0  0  0  0
  188.5530  174.3950  141.1540 C   0  0  0  0  0  2  0  0  0  0  0  0
  186.6590  176.4570  141.6440 O   0  0  0  0  0  0  0  0  0  0  0  0
  188.7940  175.5720  141.9750 N   0  0  0  0  0  2  0  0  0  0  0  0
  187.8020  176.5780  142.1650 C   0  0  0  0  0  0  0  0  0  0  0  0
  188.1420  177.7920  142.9710 C   0  0  2  0  0  3  0  0  0  0  0  0
  189.5240  177.9080  143.1290 O   0  0  0  0  0  1  0  0  0  0  0  0
  187.4370  177.8000  144.3290 C   0  0  0  0  0  0  0  0  0  0  0  0
  188.3950  177.6180  145.4870 C   0  0  0  0  0  2  0  0  0  0  0  0
  187.4590  176.4880  145.0890 C   0  0  0  0  0  2  0  0  0  0  0  0
  183.9650  178.8930  144.8640 O   0  0  0  0  0  1  0  0  0  0  0  0
  185.0010  178.2900  144.1530 C   0  0  1  0  0  3  0  0  0  0  0  0
  185.7300  179.2780  143.4730 O   0  0  0  0  0  0  0  0  0  0  0  0
  186.3060  178.7810  144.6590 C   0  0  2  0  0  3  0  0  0  0  0  0
  192.7970  173.0020  141.3710 C   0  0  0  0  0  2  0  0  0  0  0  0
  194.3150  172.9030  141.4460 C   0  0  0  0  0  2  0  0  0  0  0  0
  194.9730  174.2820  141.5130 C   0  0  1  0  0  3  0  0  0  0  0  0
  196.6530  175.6000  142.7200 N   0  0  0  0  0  2  0  0  0  0  0  0
  194.6880  174.8910  143.8800 N   0  0  2  0  0  0  0  0  0  0  0  0
  193.2450  175.1040  146.5030 C   0  0  0  0  0  2  0  0  0  0  0  0
  193.3070  173.8560  145.6190 C   0  0  0  0  0  2  0  0  0  0  0  0
  194.6050  173.7830  144.8210 C   0  0  0  0  0  2  0  0  0  0  0  0
  195.6680  174.5280  142.8580 C   0  0  1  0  0  3  0  0  0  0  0  0
  195.2870  175.9940  144.6040 C   0  0  1  0  0  3  0  0  0  0  0  0
  196.2690  176.6300  143.6660 C   0  0  0  0  0  2  0  0  0  0  0  0
  194.2340  177.0050  145.0520 C   0  0  0  0  0  2  0  0  0  0  0  0
  192.9880  176.3890  145.7050 C   0  0  1  0  0  3  0  0  0  0  0  0
  191.9790  176.2060  144.7570 O   0  0  0  0  0  1  0  0  0  0  0  0
  195.8810  174.4310  140.4590 O   0  0  0  0  0  0  0  0  0  0  0  0
  195.1960  175.1750  139.4970 C   0  0  0  0  0  1  0  0  0  0  0  0
  1  4  1  0  0  0  0
  1  2  1  0  0  0  0
  2 24  1  6  0  0  0
  2  7  1  0  0  0  0
  3  9  1  1  0  0  0
  4  5  1  0  0  0  0
  5 10  1  6  0  0  0
  5  3  1  0  0  0  0
  6  1  1  0  0  0  0
  7  3  1  0  0  0  0
  9  8  1  0  0  0  0
 11 13  1  0  0  0  0
 11 10  1  0  0  0  0
 12 14  2  0  0  0  0
 13 14  1  0  0  0  0
 14 15  1  0  0  0  0
 15 16  1  1  0  0  0
 15 17  1  0  0  0  0
 17 19  1  0  0  0  0
 17 18  1  0  0  0  0
 19 18  1  0  0  0  0
 21 23  1  0  0  0  0
 21 20  1  1  0  0  0
 22 21  1  0  0  0  0
 22 23  1  0  0  0  0
 23 17  1  6  0  0  0
 24 25  1  0  0  0  0
 26 25  1  1  0  0  0
 27 32  1  0  0  0  0
 27 34  1  0  0  0  0
 28 33  1  0  0  0  0
 28 31  1  1  0  0  0
 30 29  1  0  0  0  0
 31 30  1  0  0  0  0
 32 26  1  6  0  0  0
 32 28  1  0  0  0  0
 33 34  1  6  0  0  0
 33 35  1  0  0  0  0
 35 36  1  0  0  0  0
 36 37  1  6  0  0  0
 36 29  1  0  0  0  0
 38 26  1  0  0  0  0
 39 38  1  0  0  0  0
M  END
>  <MODEL>
5

>  <REMARK>
 VINA RESULT:      -6.7      2.300      3.724
  Name = 
  12 active torsions:
  status: ('A' for Active; 'I' for Inactive)
    1  A    between atoms: C_2  and  N_19
    2  A    between atoms: C_2  and  C_27
    3  A    between atoms: O_3  and  C_4
    4  A    between atoms: C_4  and  C_18
    5  A    between atoms: C_4  and  C_21
    6  A    between atoms: C_6  and  C_32
    7  A    between atoms: C_14  and  C_17
    8  A    between atoms: C_14  and  C_34
    9  A    between atoms: C_15  and  C_35
   10  A    between atoms: C_18  and  C_32
   11  A    between atoms: C_24  and  C_34
   12  A    between atoms: C_25  and  C_27
                            x       y       z     vdW  Elec       q    Type
                         _______ _______ _______ _____ _____    ______ ____

>  <TORSDO>
F 12

$$$$
=
 OpenBabel11042415373D

 39 43  0  0  1  0  0  0  0  0999 V2000
  190.0380  173.8420  142.7710 N   0  0  0  0  0  0  0  0  0  0  0  0
  190.7180  173.0240  143.7900 C   0  0  2  0  0  3  0  0  0  0  0  0
  190.6640  175.0130  145.3500 C   0  0  2  0  0  3  0  0  0  0  0  0
  190.4840  175.2310  142.8540 C   0  0  0  0  0  2  0  0  0  0  0  0
  190.0710  175.8370  144.1930 C   0  0  2  0  0  3  0  0  0  0  0  0
  190.3530  173.3410  141.4400 C   0  0  0  0  0  1  0  0  0  0  0  0
  190.3350  173.5240  145.1840 C   0  0  0  0  0  2  0  0  0  0  0  0
  189.0750  174.5400  147.2140 C   0  0  0  0  0  1  0  0  0  0  0  0
  190.1340  175.4940  146.6930 C   0  0  0  0  0  2  0  0  0  0  0  0
  190.5690  177.2780  144.2290 C   0  0  0  0  0  2  0  0  0  0  0  0
  189.5410  178.2330  143.6460 C   0  0  0  0  0  2  0  0  0  0  0  0
  187.3400  178.3080  141.8490 O   0  0  0  0  0  0  0  0  0  0  0  0
  188.1970  177.7650  143.9510 N   0  0  0  0  0  2  0  0  0  0  0  0
  187.1330  177.8480  143.0050 C   0  0  0  0  0  0  0  0  0  0  0  0
  185.7630  177.4060  143.4110 C   0  0  2  0  0  3  0  0  0  0  0  0
  184.8760  177.5020  142.3370 O   0  0  0  0  0  1  0  0  0  0  0  0
  185.2390  178.1850  144.6200 C   0  0  0  0  0  0  0  0  0  0  0  0
  184.0950  179.1120  144.2670 C   0  0  0  0  0  2  0  0  0  0  0  0
  185.4670  179.6840  144.5860 C   0  0  0  0  0  2  0  0  0  0  0  0
  185.9450  177.5570  148.1750 O   0  0  0  0  0  1  0  0  0  0  0  0
  186.2780  177.6840  146.8280 C   0  0  1  0  0  3  0  0  0  0  0  0
  185.9800  176.4830  146.1640 O   0  0  0  0  0  0  0  0  0  0  0  0
  185.0580  177.5350  145.9970 C   0  0  2  0  0  3  0  0  0  0  0  0
  192.2430  172.9870  143.6220 C   0  0  0  0  0  2  0  0  0  0  0  0
  192.8600  172.0330  144.6360 C   0  0  0  0  0  2  0  0  0  0  0  0
  193.4340  170.7840  143.9660 C   0  0  1  0  0  3  0  0  0  0  0  0
  194.9060  171.1910  142.0460 N   0  0  0  0  0  2  0  0  0  0  0  0
  195.4740  172.1460  144.1610 N   0  0  2  0  0  0  0  0  0  0  0  0
  197.4450  173.9540  145.5230 C   0  0  0  0  0  2  0  0  0  0  0  0
  196.8170  172.6990  146.1340 C   0  0  0  0  0  2  0  0  0  0  0  0
  196.4910  171.6490  145.0770 C   0  0  0  0  0  2  0  0  0  0  0  0
  194.8790  170.9900  143.4940 C   0  0  1  0  0  3  0  0  0  0  0  0
  196.1810  172.8620  143.1190 C   0  0  1  0  0  3  0  0  0  0  0  0
  195.5210  172.4870  141.8270 C   0  0  0  0  0  2  0  0  0  0  0  0
  196.1210  174.3720  143.3390 C   0  0  0  0  0  2  0  0  0  0  0  0
  196.4280  174.8260  144.7730 C   0  0  1  0  0  3  0  0  0  0  0  0
  195.2470  174.9720  145.5040 O   0  0  0  0  0  1  0  0  0  0  0  0
  193.3570  169.6930  144.8390 O   0  0  0  0  0  0  0  0  0  0  0  0
  193.0310  168.6050  144.0270 C   0  0  0  0  0  1  0  0  0  0  0  0
  1  4  1  0  0  0  0
  1  2  1  0  0  0  0
  2 24  1  6  0  0  0
  2  7  1  0  0  0  0
  3  9  1  1  0  0  0
  4  5  1  0  0  0  0
  5 10  1  6  0  0  0
  5  3  1  0  0  0  0
  6  1  1  0  0  0  0
  7  3  1  0  0  0  0
  9  8  1  0  0  0  0
 11 13  1  0  0  0  0
 11 10  1  0  0  0  0
 12 14  2  0  0  0  0
 14 15  1  0  0  0  0
 14 13  1  0  0  0  0
 15 16  1  6  0  0  0
 15 17  1  0  0  0  0
 18 19  1  0  0  0  0
 18 17  1  0  0  0  0
 19 17  1  0  0  0  0
 21 20  1  1  0  0  0
 22 21  1  0  0  0  0
 23 17  1  6  0  0  0
 23 22  1  0  0  0  0
 23 21  1  0  0  0  0
 24 25  1  0  0  0  0
 26 25  1  1  0  0  0
 26 38  1  0  0  0  0
 27 32  1  0  0  0  0
 28 31  1  1  0  0  0
 29 30  1  0  0  0  0
 31 30  1  0  0  0  0
 32 26  1  1  0  0  0
 32 28  1  0  0  0  0
 33 34  1  6  0  0  0
 33 35  1  0  0  0  0
 33 28  1  0  0  0  0
 34 27  1  0  0  0  0
 35 36  1  0  0  0  0
 36 37  1  1  0  0  0
 36 29  1  0  0  0  0
 39 38  1  0  0  0  0
M  END
>  <MODEL>
6

>  <REMARK>
 VINA RESULT:      -6.5      1.200      1.701
  Name = 
  12 active torsions:
  status: ('A' for Active; 'I' for Inactive)
    1  A    between atoms: C_2  and  N_19
    2  A    between atoms: C_2  and  C_27
    3  A    between atoms: O_3  and  C_4
    4  A    between atoms: C_4  and  C_18
    5  A    between atoms: C_4  and  C_21
    6  A    between atoms: C_6  and  C_32
    7  A    between atoms: C_14  and  C_17
    8  A    between atoms: C_14  and  C_34
    9  A    between atoms: C_15  and  C_35
   10  A    between atoms: C_18  and  C_32
   11  A    between atoms: C_24  and  C_34
   12  A    between atoms: C_25  and  C_27
                            x       y       z     vdW  Elec       q    Type
                         _______ _______ _______ _____ _____    ______ ____

>  <TORSDO>
F 12

$$$$
=
 OpenBabel11042415373D

 39 43  0  0  1  0  0  0  0  0999 V2000
  190.4760  172.9020  139.0040 N   0  0  0  0  0  0  0  0  0  0  0  0
  191.7690  172.7710  139.7000 C   0  0  2  0  0  3  0  0  0  0  0  0
  190.5130  172.5660  141.8840 C   0  0  2  0  0  3  0  0  0  0  0  0
  189.5220  173.6300  139.8360 C   0  0  0  0  0  2  0  0  0  0  0  0
  189.2140  172.8350  141.1030 C   0  0  2  0  0  3  0  0  0  0  0  0
  190.6540  173.6410  137.7610 C   0  0  0  0  0  1  0  0  0  0  0  0
  191.5800  171.9460  140.9740 C   0  0  0  0  0  2  0  0  0  0  0  0
  191.5740  171.2200  143.6970 C   0  0  0  0  0  1  0  0  0  0  0  0
  190.2610  171.6350  143.0610 C   0  0  0  0  0  2  0  0  0  0  0  0
  188.2260  173.6430  141.9360 C   0  0  0  0  0  2  0  0  0  0  0  0
  188.1780  175.0940  141.4840 C   0  0  0  0  0  2  0  0  0  0  0  0
  186.1950  176.2190  143.1820 O   0  0  0  0  0  0  0  0  0  0  0  0
  188.4460  175.9750  142.6100 N   0  0  0  0  0  2  0  0  0  0  0  0
  187.3990  176.5180  143.4120 C   0  0  0  0  0  0  0  0  0  0  0  0
  187.7460  177.4680  144.5150 C   0  0  2  0  0  3  0  0  0  0  0  0
  189.0650  177.9080  144.3900 O   0  0  0  0  0  1  0  0  0  0  0  0
  187.5050  176.8590  145.8980 C   0  0  0  0  0  0  0  0  0  0  0  0
  188.6180  177.1710  146.8760 C   0  0  0  0  0  2  0  0  0  0  0  0
  188.4720  175.7670  146.3140 C   0  0  0  0  0  2  0  0  0  0  0  0
  184.0690  178.0060  146.5380 O   0  0  0  0  0  1  0  0  0  0  0  0
  185.4450  178.1700  146.3890 C   0  0  1  0  0  3  0  0  0  0  0  0
  186.0830  177.8290  147.5920 O   0  0  0  0  0  0  0  0  0  0  0  0
  186.1250  176.8640  146.5660 C   0  0  2  0  0  3  0  0  0  0  0  0
  192.4280  174.1210  140.0150 C   0  0  0  0  0  2  0  0  0  0  0  0
  193.8680  173.9090  140.4640 C   0  0  0  0  0  2  0  0  0  0  0  0
  194.1960  174.7140  141.7220 C   0  0  1  0  0  3  0  0  0  0  0  0
  194.8250  172.9690  143.3270 N   0  0  0  0  0  2  0  0  0  0  0  0
  193.6740  174.9060  144.1190 N   0  0  2  0  0  0  0  0  0  0  0  0
  192.6840  176.2560  146.6110 C   0  0  0  0  0  2  0  0  0  0  0  0
  191.9690  176.2470  145.2580 C   0  0  0  0  0  2  0  0  0  0  0  0
  192.2610  174.9790  144.4630 C   0  0  0  0  0  2  0  0  0  0  0  0
  193.8090  173.9690  143.0060 C   0  0  1  0  0  3  0  0  0  0  0  0
  194.3310  174.2620  145.2380 C   0  0  1  0  0  3  0  0  0  0  0  0
  195.3190  173.3010  144.6500 C   0  0  0  0  0  2  0  0  0  0  0  0
  195.0340  175.2800  146.1340 C   0  0  0  0  0  2  0  0  0  0  0  0
  194.1920  176.5150  146.4880 C   0  0  1  0  0  3  0  0  0  0  0  0
  194.4570  177.5590  145.5990 O   0  0  0  0  0  1  0  0  0  0  0  0
  195.5560  175.0430  141.7400 O   0  0  0  0  0  0  0  0  0  0  0  0
  195.6000  176.4050  141.4360 C   0  0  0  0  0  1  0  0  0  0  0  0
  1  2  1  0  0  0  0
  1  4  1  0  0  0  0
  2 24  1  1  0  0  0
  2  7  1  0  0  0  0
  3  9  1  1  0  0  0
  4  5  1  0  0  0  0
  5  3  1  0  0  0  0
  5 10  1  1  0  0  0
  6  1  1  0  0  0  0
  7  3  1  0  0  0  0
  9  8  1  0  0  0  0
 11 10  1  0  0  0  0
 11 13  1  0  0  0  0
 12 14  2  0  0  0  0
 13 14  1  0  0  0  0
 14 15  1  0  0  0  0
 15 16  1  1  0  0  0
 15 17  1  0  0  0  0
 17 19  1  0  0  0  0
 17 18  1  0  0  0  0
 19 18  1  0  0  0  0
 21 20  1  1  0  0  0
 21 23  1  0  0  0  0
 21 22  1  0  0  0  0
 23 17  1  6  0  0  0
 23 22  1  0  0  0  0
 24 25  1  0  0  0  0
 26 25  1  6  0  0  0
 26 38  1  0  0  0  0
 27 34  1  0  0  0  0
 28 31  1  1  0  0  0
 28 33  1  0  0  0  0
 30 29  1  0  0  0  0
 31 30  1  0  0  0  0
 32 26  1  6  0  0  0
 32 27  1  0  0  0  0
 32 28  1  0  0  0  0
 33 34  1  6  0  0  0
 33 35  1  0  0  0  0
 35 36  1  0  0  0  0
 36 37  1  6  0  0  0
 36 29  1  0  0  0  0
 39 38  1  0  0  0  0
M  END
>  <MODEL>
7

>  <REMARK>
 VINA RESULT:      -6.5      2.146      3.766
  Name = 
  12 active torsions:
  status: ('A' for Active; 'I' for Inactive)
    1  A    between atoms: C_2  and  N_19
    2  A    between atoms: C_2  and  C_27
    3  A    between atoms: O_3  and  C_4
    4  A    between atoms: C_4  and  C_18
    5  A    between atoms: C_4  and  C_21
    6  A    between atoms: C_6  and  C_32
    7  A    between atoms: C_14  and  C_17
    8  A    between atoms: C_14  and  C_34
    9  A    between atoms: C_15  and  C_35
   10  A    between atoms: C_18  and  C_32
   11  A    between atoms: C_24  and  C_34
   12  A    between atoms: C_25  and  C_27
                            x       y       z     vdW  Elec       q    Type
                         _______ _______ _______ _____ _____    ______ ____

>  <TORSDO>
F 12

$$$$
=
 OpenBabel11042415373D

 39 43  0  0  1  0  0  0  0  0999 V2000
  190.8730  173.6100  143.0500 N   0  0  0  0  0  0  0  0  0  0  0  0
  191.8220  173.5000  144.1720 C   0  0  2  0  0  3  0  0  0  0  0  0
  190.9010  175.6660  145.0960 C   0  0  2  0  0  3  0  0  0  0  0  0
  190.6830  175.0110  142.6810 C   0  0  0  0  0  2  0  0  0  0  0  0
  190.0300  175.7750  143.8310 C   0  0  2  0  0  3  0  0  0  0  0  0
  191.3920  172.9000  141.8900 C   0  0  0  0  0  1  0  0  0  0  0  0
  191.2400  174.2010  145.4010 C   0  0  0  0  0  2  0  0  0  0  0  0
  189.2210  175.2790  146.8990 C   0  0  0  0  0  1  0  0  0  0  0  0
  190.1950  176.2740  146.2990 C   0  0  0  0  0  2  0  0  0  0  0  0
  189.8660  177.2270  143.3970 C   0  0  0  0  0  2  0  0  0  0  0  0
  188.9060  177.3480  142.2250 C   0  0  0  0  0  2  0  0  0  0  0  0
  186.6470  175.7080  142.7590 O   0  0  0  0  0  0  0  0  0  0  0  0
  187.6140  177.8320  142.6870 N   0  0  0  0  0  2  0  0  0  0  0  0
  186.5160  176.9520  142.9200 C   0  0  0  0  0  0  0  0  0  0  0  0
  185.1990  177.5270  143.3350 C   0  0  2  0  0  3  0  0  0  0  0  0
  184.5800  178.1680  142.2590 O   0  0  0  0  0  1  0  0  0  0  0  0
  185.3330  178.4770  144.5280 C   0  0  0  0  0  0  0  0  0  0  0  0
  184.0360  179.1820  144.8630 C   0  0  0  0  0  2  0  0  0  0  0  0
  185.1760  179.9520  144.2160 C   0  0  0  0  0  2  0  0  0  0  0  0
  186.1000  176.6500  147.6270 O   0  0  0  0  0  1  0  0  0  0  0  0
  185.2900  177.3930  146.7710 C   0  0  1  0  0  3  0  0  0  0  0  0
  185.5990  178.7560  146.9120 O   0  0  0  0  0  0  0  0  0  0  0  0
  186.1350  178.1070  145.7820 C   0  0  2  0  0  3  0  0  0  0  0  0
  193.2190  174.0420  143.8430 C   0  0  0  0  0  2  0  0  0  0  0  0
  194.2220  173.5790  144.8910 C   0  0  0  0  0  2  0  0  0  0  0  0
  194.9630  174.7540  145.5290 C   0  0  1  0  0  3  0  0  0  0  0  0
  197.1980  173.7420  145.5280 N   0  0  0  0  0  2  0  0  0  0  0  0
  196.4470  174.8860  143.5700 N   0  0  2  0  0  0  0  0  0  0  0  0
  197.2030  175.5470  140.7410 C   0  0  0  0  0  2  0  0  0  0  0  0
  196.4560  176.4740  141.7040 C   0  0  0  0  0  2  0  0  0  0  0  0
  196.8450  176.2240  143.1570 C   0  0  0  0  0  2  0  0  0  0  0  0
  196.4100  174.8680  145.0310 C   0  0  1  0  0  3  0  0  0  0  0  0
  197.5410  174.0070  143.2090 C   0  0  1  0  0  3  0  0  0  0  0  0
  197.7190  173.0620  144.3580 C   0  0  0  0  0  2  0  0  0  0  0  0
  197.2400  173.2430  141.9210 C   0  0  0  0  0  2  0  0  0  0  0  0
  196.6830  174.1030  140.7770 C   0  0  1  0  0  3  0  0  0  0  0  0
  195.2860  174.0660  140.7730 O   0  0  0  0  0  1  0  0  0  0  0  0
  194.2690  175.9460  145.2890 O   0  0  0  0  0  0  0  0  0  0  0  0
  194.3130  176.6370  146.5020 C   0  0  0  0  0  1  0  0  0  0  0  0
  1  2  1  0  0  0  0
  2 24  1  6  0  0  0
  2  7  1  0  0  0  0
  3  7  1  0  0  0  0
  3  9  1  1  0  0  0
  4  1  1  0  0  0  0
  4  5  1  0  0  0  0
  5 10  1  6  0  0  0
  5  3  1  0  0  0  0
  6  1  1  0  0  0  0
  9  8  1  0  0  0  0
 11 13  1  0  0  0  0
 11 10  1  0  0  0  0
 12 14  2  0  0  0  0
 13 14  1  0  0  0  0
 14 15  1  0  0  0  0
 15 16  1  6  0  0  0
 15 17  1  0  0  0  0
 17 18  1  0  0  0  0
 19 17  1  0  0  0  0
 19 18  1  0  0  0  0
 21 22  1  0  0  0  0
 21 20  1  1  0  0  0
 23 17  1  6  0  0  0
 23 21  1  0  0  0  0
 23 22  1  0  0  0  0
 24 25  1  0  0  0  0
 26 25  1  6  0  0  0
 28 31  1  1  0  0  0
 28 32  1  0  0  0  0
 29 36  1  0  0  0  0
 29 30  1  0  0  0  0
 30 31  1  0  0  0  0
 32 27  1  0  0  0  0
 32 26  1  6  0  0  0
 33 35  1  6  0  0  0
 33 28  1  0  0  0  0
 33 34  1  0  0  0  0
 34 27  1  0  0  0  0
 36 37  1  1  0  0  0
 36 35  1  0  0  0  0
 38 26  1  0  0  0  0
 38 39  1  0  0  0  0
M  END
>  <MODEL>
8

>  <REMARK>
 VINA RESULT:      -6.5      1.878      2.806
  Name = 
  12 active torsions:
  status: ('A' for Active; 'I' for Inactive)
    1  A    between atoms: C_2  and  N_19
    2  A    between atoms: C_2  and  C_27
    3  A    between atoms: O_3  and  C_4
    4  A    between atoms: C_4  and  C_18
    5  A    between atoms: C_4  and  C_21
    6  A    between atoms: C_6  and  C_32
    7  A    between atoms: C_14  and  C_17
    8  A    between atoms: C_14  and  C_34
    9  A    between atoms: C_15  and  C_35
   10  A    between atoms: C_18  and  C_32
   11  A    between atoms: C_24  and  C_34
   12  A    between atoms: C_25  and  C_27
                            x       y       z     vdW  Elec       q    Type
                         _______ _______ _______ _____ _____    ______ ____

>  <TORSDO>
F 12

$$$$
=
 OpenBabel11042415373D

 39 43  0  0  1  0  0  0  0  0999 V2000
  189.5060  172.1870  142.3370 N   0  0  0  0  0  0  0  0  0  0  0  0
  188.5460  173.0820  141.6670 C   0  0  2  0  0  3  0  0  0  0  0  0
  190.1840  173.3240  139.7560 C   0  0  2  0  0  3  0  0  0  0  0  0
  190.8760  172.6140  142.0640 C   0  0  0  0  0  2  0  0  0  0  0  0
  191.1820  172.4840  140.5730 C   0  0  2  0  0  3  0  0  0  0  0  0
  189.2960  172.2210  143.7770 C   0  0  0  0  0  1  0  0  0  0  0  0
  188.7390  172.9940  140.1520 C   0  0  0  0  0  2  0  0  0  0  0  0
  189.7050  171.7730  137.8620 C   0  0  0  0  0  1  0  0  0  0  0  0
  190.3580  173.0820  138.2640 C   0  0  0  0  0  2  0  0  0  0  0  0
  192.6140  172.9510  140.3450 C   0  0  0  0  0  2  0  0  0  0  0  0
  192.7540  174.4460  140.5880 C   0  0  0  0  0  2  0  0  0  0  0  0
  192.0670  175.7210  143.0330 O   0  0  0  0  0  0  0  0  0  0  0  0
  193.6720  174.6870  141.6900 N   0  0  0  0  0  2  0  0  0  0  0  0
  193.2630  175.3500  142.8850 C   0  0  0  0  0  0  0  0  0  0  0  0
  194.2780  175.6200  143.9500 C   0  0  2  0  0  3  0  0  0  0  0  0
  195.5720  175.4790  143.4460 O   0  0  0  0  0  1  0  0  0  0  0  0
  194.0750  174.7320  145.1800 C   0  0  0  0  0  0  0  0  0  0  0  0
  195.1960  173.7330  145.3730 C   0  0  0  0  0  2  0  0  0  0  0  0
  193.8320  173.2620  144.8980 C   0  0  0  0  0  2  0  0  0  0  0  0
  191.6390  175.2950  147.8790 O   0  0  0  0  0  1  0  0  0  0  0  0
  192.0700  175.2800  146.5540 C   0  0  1  0  0  3  0  0  0  0  0  0
  192.7960  176.4530  146.2920 O   0  0  0  0  0  0  0  0  0  0  0  0
  193.5530  175.2850  146.5120 C   0  0  2  0  0  3  0  0  0  0  0  0
  188.6370  174.5370  142.1470 C   0  0  0  0  0  2  0  0  0  0  0  0
  187.2890  174.9960  142.6880 C   0  0  0  0  0  2  0  0  0  0  0  0
  186.7920  176.2590  141.9830 C   0  0  1  0  0  3  0  0  0  0  0  0
  185.3020  177.7280  143.2620 N   0  0  0  0  0  2  0  0  0  0  0  0
  187.4480  177.1930  144.1630 N   0  0  2  0  0  0  0  0  0  0  0  0
  189.1940  177.5590  146.5770 C   0  0  0  0  0  2  0  0  0  0  0  0
  189.6760  177.5370  145.1240 C   0  0  0  0  0  2  0  0  0  0  0  0
  188.6160  178.0630  144.1610 C   0  0  0  0  0  2  0  0  0  0  0  0
  186.7010  177.4580  142.9350 C   0  0  1  0  0  3  0  0  0  0  0  0
  186.5940  177.6620  145.2350 C   0  0  1  0  0  3  0  0  0  0  0  0
  185.1930  177.6240  144.7040 C   0  0  0  0  0  2  0  0  0  0  0  0
  186.7270  176.7850  146.4780 C   0  0  0  0  0  2  0  0  0  0  0  0
  188.1710  176.4570  146.8840 C   0  0  1  0  0  3  0  0  0  0  0  0
  188.5650  175.2320  146.3410 O   0  0  0  0  0  1  0  0  0  0  0  0
  187.6230  176.5600  140.8970 O   0  0  0  0  0  0  0  0  0  0  0  0
  186.8330  177.3340  140.0450 C   0  0  0  0  0  1  0  0  0  0  0  0
  1  6  1  0  0  0  0
  2 24  1  1  0  0  0
  2  1  1  0  0  0  0
  3  9  1  6  0  0  0
  3  7  1  0  0  0  0
  3  5  1  0  0  0  0
  4  1  1  0  0  0  0
  5 10  1  1  0  0  0
  5  4  1  0  0  0  0
  7  2  1  0  0  0  0
  8  9  1  0  0  0  0
 10 11  1  0  0  0  0
 11 13  1  0  0  0  0
 13 14  1  0  0  0  0
 14 12  2  0  0  0  0
 14 15  1  0  0  0  0
 15 16  1  6  0  0  0
 15 17  1  0  0  0  0
 17 18  1  0  0  0  0
 19 17  1  0  0  0  0
 19 18  1  0  0  0  0
 21 20  1  1  0  0  0
 22 23  1  0  0  0  0
 22 21  1  0  0  0  0
 23 17  1  6  0  0  0
 23 21  1  0  0  0  0
 24 25  1  0  0  0  0
 26 25  1  1  0  0  0
 27 34  1  0  0  0  0
 28 31  1  6  0  0  0
 28 33  1  0  0  0  0
 29 36  1  0  0  0  0
 30 29  1  0  0  0  0
 31 30  1  0  0  0  0
 32 26  1  6  0  0  0
 32 27  1  0  0  0  0
 32 28  1  0  0  0  0
 33 34  1  6  0  0  0
 33 35  1  0  0  0  0
 35 36  1  0  0  0  0
 36 37  1  6  0  0  0
 38 26  1  0  0  0  0
 39 38  1  0  0  0  0
M  END
>  <MODEL>
9

>  <REMARK>
 VINA RESULT:      -6.5      2.398      8.095
  Name = 
  12 active torsions:
  status: ('A' for Active; 'I' for Inactive)
    1  A    between atoms: C_2  and  N_19
    2  A    between atoms: C_2  and  C_27
    3  A    between atoms: O_3  and  C_4
    4  A    between atoms: C_4  and  C_18
    5  A    between atoms: C_4  and  C_21
    6  A    between atoms: C_6  and  C_32
    7  A    between atoms: C_14  and  C_17
    8  A    between atoms: C_14  and  C_34
    9  A    between atoms: C_15  and  C_35
   10  A    between atoms: C_18  and  C_32
   11  A    between atoms: C_24  and  C_34
   12  A    between atoms: C_25  and  C_27
                            x       y       z     vdW  Elec       q    Type
                         _______ _______ _______ _____ _____    ______ ____

>  <TORSDO>
F 12

$$$$
