=
 OpenBabel11042419313D

 32 35  0  0  1  0  0  0  0  0999 V2000
  193.1720  172.9120  144.9790 C   0  0  1  0  0  3  0  0  0  0  0  0
  194.5190  171.2180  146.0040 O   0  0  0  0  0  0  0  0  0  0  0  0
  192.3570  172.2040  142.6920 C   0  0  0  0  0  0  0  0  0  0  0  0
  192.1410  172.9410  143.8720 C   0  0  0  0  0  0  0  0  0  0  0  0
  194.0780  170.9000  143.7700 O   0  0  0  0  0  0  0  0  0  0  0  0
  193.6220  171.4170  142.5190 C   0  0  0  0  0  2  0  0  0  0  0  0
  190.0530  173.7290  142.9260 C   0  0  0  0  0  3  0  0  0  0  0  0
  193.9660  171.6360  144.9530 C   0  0  0  0  0  0  0  0  0  0  0  0
  190.9680  173.7100  143.9870 C   0  0  0  0  0  0  0  0  0  0  0  0
  191.4510  172.2500  141.6790 N   0  0  0  0  0  0  0  0  0  0  0  0
  190.3130  172.9860  141.7740 C   0  0  0  0  0  3  0  0  0  0  0  0
  190.7040  174.5280  145.2190 C   0  0  2  0  0  3  0  0  0  0  0  0
  189.4330  174.0630  145.9370 C   0  0  0  0  0  2  0  0  0  0  0  0
  189.4350  176.6280  144.6020 C   0  0  0  0  0  0  0  0  0  0  0  0
  188.5840  176.1850  146.9260 C   0  0  0  0  0  3  0  0  0  0  0  0
  186.5460  178.0520  146.3500 N   0  0  0  0  0  0  0  0  0  0  0  0
  189.1840  176.9740  143.4160 O   0  0  0  0  0  0  0  0  0  0  0  0
  190.7720  176.0310  144.9170 C   0  0  0  0  0  2  0  0  0  0  0  0
  188.4610  176.8270  145.6420 N   0  0  0  0  0  0  0  0  0  0  0  0
  187.4250  177.7960  145.4350 C   0  0  0  0  0  3  0  0  0  0  0  0
  189.0560  174.9450  147.0880 C   0  0  0  0  0  3  0  0  0  0  0  0
  185.5020  179.0390  146.1290 C   0  0  0  0  0  2  0  0  0  0  0  0
  185.5720  180.1370  144.0140 O   0  0  0  0  0  0  0  0  0  0  0  0
  184.4590  178.0980  144.0310 N   0  0  0  0  0  1  0  0  0  0  0  0
  185.1780  179.1420  144.6770 C   0  0  0  0  0  0  0  0  0  0  0  0
  194.4240  176.1660  146.3640 C   0  0  0  0  0  3  0  0  0  0  0  0
  194.1750  174.8630  146.2420 C   0  0  0  0  0  3  0  0  0  0  0  0
  195.7380  175.5150  143.6900 C   0  0  0  0  0  3  0  0  0  0  0  0
  194.0560  174.1270  144.9650 C   0  0  0  0  0  0  0  0  0  0  0  0
  194.5350  177.0860  145.1950 C   0  0  0  0  0  2  0  0  0  0  0  0
  195.6640  176.6980  144.3000 C   0  0  0  0  0  3  0  0  0  0  0  0
  194.7860  174.4020  143.8690 C   0  0  0  0  0  3  0  0  0  0  0  0
  1 29  1  6  0  0  0
  3  4  1  0  0  0  0
  4  9  2  0  0  0  0
  4  1  1  0  0  0  0
  5  8  1  0  0  0  0
  6  3  1  0  0  0  0
  6  5  1  0  0  0  0
  7  9  1  0  0  0  0
  8  1  1  0  0  0  0
  8  2  2  0  0  0  0
 10 11  1  0  0  0  0
 10  3  2  0  0  0  0
 11  7  2  0  0  0  0
 12  9  1  6  0  0  0
 12 13  1  0  0  0  0
 13 21  1  0  0  0  0
 14 18  1  0  0  0  0
 14 19  1  0  0  0  0
 15 21  2  0  0  0  0
 17 14  2  0  0  0  0
 18 12  1  0  0  0  0
 19 15  1  0  0  0  0
 20 19  1  0  0  0  0
 20 16  2  0  0  0  0
 22 16  1  0  0  0  0
 23 25  2  0  0  0  0
 24 25  1  0  0  0  0
 25 22  1  0  0  0  0
 27 26  2  0  0  0  0
 28 32  1  0  0  0  0
 28 31  2  0  0  0  0
 29 27  1  0  0  0  0
 30 26  1  0  0  0  0
 31 30  1  0  0  0  0
 32 29  2  0  0  0  0
M  END
>  <MODEL>
1

>  <REMARK>
 VINA RESULT:      -7.5      0.000      0.000
  Name = 
  4 active torsions:
  status: ('A' for Active; 'I' for Inactive)
    1  A    between atoms: C_1  and  C_21
    2  A    between atoms: C_2  and  C_19
    3  A    between atoms: N_14  and  C_18
    4  A    between atoms: C_18  and  C_23
                            x       y       z     vdW  Elec       q    Type
                         _______ _______ _______ _____ _____    ______ ____

>  <TORSDO>
F 4

$$$$
=
 OpenBabel11042419313D

 32 35  0  0  1  0  0  0  0  0999 V2000
  192.8430  175.8640  144.0800 C   0  0  1  0  0  3  0  0  0  0  0  0
  195.0580  176.2910  143.2770 O   0  0  0  0  0  0  0  0  0  0  0  0
  192.6220  176.3900  146.5450 C   0  0  0  0  0  0  0  0  0  0  0  0
  192.0260  176.3160  145.2710 C   0  0  0  0  0  0  0  0  0  0  0  0
  194.8260  176.3040  145.5660 O   0  0  0  0  0  0  0  0  0  0  0  0
  194.0560  175.9900  146.7270 C   0  0  0  0  0  2  0  0  0  0  0  0
  189.9400  177.0370  146.2720 C   0  0  0  0  0  3  0  0  0  0  0  0
  194.3040  176.1580  144.2770 C   0  0  0  0  0  0  0  0  0  0  0  0
  190.6650  176.6490  145.1380 C   0  0  0  0  0  0  0  0  0  0  0  0
  191.8870  176.7640  147.6250 N   0  0  0  0  0  0  0  0  0  0  0  0
  190.5730  177.0900  147.5140 C   0  0  0  0  0  3  0  0  0  0  0  0
  189.9810  176.5660  143.8030 C   0  0  2  0  0  3  0  0  0  0  0  0
  189.7200  177.9600  143.2210 C   0  0  0  0  0  2  0  0  0  0  0  0
  187.4810  176.3720  144.1280 C   0  0  0  0  0  0  0  0  0  0  0  0
  187.6130  177.6070  141.9420 C   0  0  0  0  0  3  0  0  0  0  0  0
  184.8720  178.1790  142.2950 N   0  0  0  0  0  0  0  0  0  0  0  0
  186.9260  176.2390  145.2520 O   0  0  0  0  0  0  0  0  0  0  0  0
  188.7590  175.6410  143.8580 C   0  0  0  0  0  2  0  0  0  0  0  0
  186.8790  177.1930  143.1100 N   0  0  0  0  0  0  0  0  0  0  0  0
  185.4790  177.4830  143.2030 C   0  0  0  0  0  3  0  0  0  0  0  0
  188.9110  177.9250  141.9610 C   0  0  0  0  0  3  0  0  0  0  0  0
  183.4500  178.4650  142.3980 C   0  0  0  0  0  2  0  0  0  0  0  0
  183.4420  177.9560  140.0690 O   0  0  0  0  0  0  0  0  0  0  0  0
  181.3430  178.1220  141.0500 N   0  0  0  0  0  1  0  0  0  0  0  0
  182.7640  178.1800  141.1040 C   0  0  0  0  0  0  0  0  0  0  0  0
  191.4100  173.1120  141.9710 C   0  0  0  0  0  3  0  0  0  0  0  0
  192.1620  174.1440  142.3530 C   0  0  0  0  0  3  0  0  0  0  0  0
  192.7910  172.0060  144.4540 C   0  0  0  0  0  3  0  0  0  0  0  0
  192.5990  174.4210  143.7380 C   0  0  0  0  0  0  0  0  0  0  0  0
  190.8310  172.1280  142.9310 C   0  0  0  0  0  2  0  0  0  0  0  0
  191.8980  171.3980  143.6740 C   0  0  0  0  0  3  0  0  0  0  0  0
  192.9140  173.4660  144.6320 C   0  0  0  0  0  3  0  0  0  0  0  0
  1 29  1  1  0  0  0
  1  8  1  0  0  0  0
  1  4  1  0  0  0  0
  2  8  2  0  0  0  0
  3  6  1  0  0  0  0
  3 10  1  0  0  0  0
  4  3  2  0  0  0  0
  5  6  1  0  0  0  0
  7 11  1  0  0  0  0
  8  5  1  0  0  0  0
  9  4  1  0  0  0  0
  9  7  2  0  0  0  0
 11 10  2  0  0  0  0
 12 18  1  0  0  0  0
 12  9  1  1  0  0  0
 13 12  1  0  0  0  0
 14 17  2  0  0  0  0
 15 21  2  0  0  0  0
 15 19  1  0  0  0  0
 16 22  1  0  0  0  0
 16 20  2  0  0  0  0
 18 14  1  0  0  0  0
 19 20  1  0  0  0  0
 19 14  1  0  0  0  0
 21 13  1  0  0  0  0
 23 25  2  0  0  0  0
 24 25  1  0  0  0  0
 25 22  1  0  0  0  0
 26 27  2  0  0  0  0
 26 30  1  0  0  0  0
 27 29  1  0  0  0  0
 28 32  1  0  0  0  0
 29 32  2  0  0  0  0
 30 31  1  0  0  0  0
 31 28  2  0  0  0  0
M  END
>  <MODEL>
2

>  <REMARK>
 VINA RESULT:      -7.5      2.700      4.753
  Name = 
  4 active torsions:
  status: ('A' for Active; 'I' for Inactive)
    1  A    between atoms: C_1  and  C_21
    2  A    between atoms: C_2  and  C_19
    3  A    between atoms: N_14  and  C_18
    4  A    between atoms: C_18  and  C_23
                            x       y       z     vdW  Elec       q    Type
                         _______ _______ _______ _____ _____    ______ ____

>  <TORSDO>
F 4

$$$$
=
 OpenBabel11042419313D

 32 35  0  0  1  0  0  0  0  0999 V2000
  194.3930  175.7750  142.4410 C   0  0  1  0  0  3  0  0  0  0  0  0
  196.0810  176.4200  140.8700 O   0  0  0  0  0  0  0  0  0  0  0  0
  195.3080  175.6380  144.7950 C   0  0  0  0  0  0  0  0  0  0  0  0
  194.2180  175.8920  143.9390 C   0  0  0  0  0  0  0  0  0  0  0  0
  196.8550  175.8340  142.9540 O   0  0  0  0  0  0  0  0  0  0  0  0
  196.6300  175.2210  144.2240 C   0  0  0  0  0  2  0  0  0  0  0  0
  192.8530  176.3060  145.8980 C   0  0  0  0  0  3  0  0  0  0  0  0
  195.8190  176.0230  142.0350 C   0  0  0  0  0  0  0  0  0  0  0  0
  192.9750  176.2340  144.5050 C   0  0  0  0  0  0  0  0  0  0  0  0
  195.1510  175.7110  146.1440 N   0  0  0  0  0  0  0  0  0  0  0  0
  193.9590  176.0400  146.7060 C   0  0  0  0  0  3  0  0  0  0  0  0
  191.7810  176.4940  143.6320 C   0  0  2  0  0  3  0  0  0  0  0  0
  191.2020  177.8920  143.8790 C   0  0  0  0  0  2  0  0  0  0  0  0
  189.6970  175.5760  144.7320 C   0  0  0  0  0  0  0  0  0  0  0  0
  188.7740  177.5350  143.4550 C   0  0  0  0  0  3  0  0  0  0  0  0
  186.4380  177.2300  145.0100 N   0  0  0  0  0  0  0  0  0  0  0  0
  189.7030  174.8950  145.7930 O   0  0  0  0  0  0  0  0  0  0  0  0
  190.7690  175.3440  143.7130 C   0  0  0  0  0  2  0  0  0  0  0  0
  188.6580  176.5420  144.4920 N   0  0  0  0  0  0  0  0  0  0  0  0
  187.4260  176.4180  145.2140 C   0  0  0  0  0  3  0  0  0  0  0  0
  189.9250  178.1350  143.1340 C   0  0  0  0  0  3  0  0  0  0  0  0
  185.1920  177.0930  145.7460 C   0  0  0  0  0  2  0  0  0  0  0  0
  183.7030  178.9500  145.8860 O   0  0  0  0  0  0  0  0  0  0  0  0
  185.5300  179.0390  147.3180 N   0  0  0  0  0  1  0  0  0  0  0  0
  184.7630  178.4100  146.2980 C   0  0  0  0  0  0  0  0  0  0  0  0
  192.1070  173.6830  140.3250 C   0  0  0  0  0  3  0  0  0  0  0  0
  193.0660  174.5400  140.6730 C   0  0  0  0  0  3  0  0  0  0  0  0
  193.9100  171.9470  142.0660 C   0  0  0  0  0  3  0  0  0  0  0  0
  193.8750  174.4680  141.9090 C   0  0  0  0  0  0  0  0  0  0  0  0
  191.6630  172.5600  141.2000 C   0  0  0  0  0  2  0  0  0  0  0  0
  192.7740  171.6000  141.4620 C   0  0  0  0  0  3  0  0  0  0  0  0
  194.2730  173.3160  142.4790 C   0  0  0  0  0  3  0  0  0  0  0  0
  1 29  1  1  0  0  0
  1  4  1  0  0  0  0
  2  8  2  0  0  0  0
  3 10  1  0  0  0  0
  4  9  1  0  0  0  0
  4  3  2  0  0  0  0
  5  6  1  0  0  0  0
  6  3  1  0  0  0  0
  7 11  1  0  0  0  0
  8  1  1  0  0  0  0
  8  5  1  0  0  0  0
  9  7  2  0  0  0  0
 10 11  2  0  0  0  0
 12 18  1  0  0  0  0
 12 13  1  0  0  0  0
 12  9  1  1  0  0  0
 14 17  2  0  0  0  0
 15 19  1  0  0  0  0
 16 20  2  0  0  0  0
 16 22  1  0  0  0  0
 18 14  1  0  0  0  0
 19 14  1  0  0  0  0
 19 20  1  0  0  0  0
 21 15  2  0  0  0  0
 21 13  1  0  0  0  0
 22 25  1  0  0  0  0
 23 25  2  0  0  0  0
 25 24  1  0  0  0  0
 26 27  2  0  0  0  0
 26 30  1  0  0  0  0
 27 29  1  0  0  0  0
 28 32  1  0  0  0  0
 29 32  2  0  0  0  0
 30 31  1  0  0  0  0
 31 28  2  0  0  0  0
M  END
>  <MODEL>
3

>  <REMARK>
 VINA RESULT:      -7.2      2.613      4.485
  Name = 
  4 active torsions:
  status: ('A' for Active; 'I' for Inactive)
    1  A    between atoms: C_1  and  C_21
    2  A    between atoms: C_2  and  C_19
    3  A    between atoms: N_14  and  C_18
    4  A    between atoms: C_18  and  C_23
                            x       y       z     vdW  Elec       q    Type
                         _______ _______ _______ _____ _____    ______ ____

>  <TORSDO>
F 4

$$$$
=
 OpenBabel11042419313D

 32 35  0  0  1  0  0  0  0  0999 V2000
  188.7910  176.9160  143.1740 C   0  0  1  0  0  3  0  0  0  0  0  0
  188.7840  179.0310  142.0520 O   0  0  0  0  0  0  0  0  0  0  0  0
  188.1540  175.0270  141.6170 C   0  0  0  0  0  0  0  0  0  0  0  0
  188.8800  175.4700  142.7400 C   0  0  0  0  0  0  0  0  0  0  0  0
  187.8110  177.3020  140.8890 O   0  0  0  0  0  0  0  0  0  0  0  0
  187.2690  175.9810  140.8720 C   0  0  0  0  0  2  0  0  0  0  0  0
  189.6960  173.2060  143.0280 C   0  0  0  0  0  3  0  0  0  0  0  0
  188.4600  177.8150  142.0160 C   0  0  0  0  0  0  0  0  0  0  0  0
  189.6640  174.5410  143.4510 C   0  0  0  0  0  0  0  0  0  0  0  0
  188.2040  173.7220  141.2390 N   0  0  0  0  0  0  0  0  0  0  0  0
  188.9560  172.8140  141.9130 C   0  0  0  0  0  3  0  0  0  0  0  0
  190.4400  174.9630  144.6660 C   0  0  2  0  0  3  0  0  0  0  0  0
  191.4580  176.0560  144.3270 C   0  0  0  0  0  2  0  0  0  0  0  0
  192.4080  173.4120  145.0110 C   0  0  0  0  0  0  0  0  0  0  0  0
  193.2970  175.5740  145.9360 C   0  0  0  0  0  3  0  0  0  0  0  0
  195.8470  174.3670  145.8430 N   0  0  0  0  0  0  0  0  0  0  0  0
  192.6140  172.3740  144.3260 O   0  0  0  0  0  0  0  0  0  0  0  0
  191.0060  173.7500  145.4150 C   0  0  0  0  0  2  0  0  0  0  0  0
  193.5070  174.2460  145.4200 N   0  0  0  0  0  0  0  0  0  0  0  0
  194.8250  173.6810  145.4420 C   0  0  0  0  0  3  0  0  0  0  0  0
  192.3510  176.4010  145.4810 C   0  0  0  0  0  3  0  0  0  0  0  0
  197.1780  173.7830  145.8640 C   0  0  0  0  0  2  0  0  0  0  0  0
  197.9130  174.5740  143.7380 O   0  0  0  0  0  0  0  0  0  0  0  0
  197.9410  172.2660  143.9950 N   0  0  0  0  0  1  0  0  0  0  0  0
  197.6820  173.5810  144.4740 C   0  0  0  0  0  0  0  0  0  0  0  0
  187.9720  177.3790  146.8060 C   0  0  0  0  0  3  0  0  0  0  0  0
  188.4330  177.6200  145.5800 C   0  0  0  0  0  3  0  0  0  0  0  0
  185.4440  177.1340  145.1190 C   0  0  0  0  0  3  0  0  0  0  0  0
  187.8420  177.1070  144.3240 C   0  0  0  0  0  0  0  0  0  0  0  0
  186.8210  176.4710  147.0800 C   0  0  0  0  0  2  0  0  0  0  0  0
  185.5700  176.9670  146.4350 C   0  0  0  0  0  3  0  0  0  0  0  0
  186.5210  176.9430  144.1280 C   0  0  0  0  0  3  0  0  0  0  0  0
  1 29  1  1  0  0  0
  3  4  1  0  0  0  0
  4  1  1  0  0  0  0
  4  9  2  0  0  0  0
  5  8  1  0  0  0  0
  6  5  1  0  0  0  0
  6  3  1  0  0  0  0
  7  9  1  0  0  0  0
  8  2  2  0  0  0  0
  8  1  1  0  0  0  0
 10  3  2  0  0  0  0
 10 11  1  0  0  0  0
 11  7  2  0  0  0  0
 12  9  1  6  0  0  0
 12 18  1  0  0  0  0
 13 12  1  0  0  0  0
 13 21  1  0  0  0  0
 14 18  1  0  0  0  0
 14 19  1  0  0  0  0
 16 22  1  0  0  0  0
 17 14  2  0  0  0  0
 19 20  1  0  0  0  0
 19 15  1  0  0  0  0
 20 16  2  0  0  0  0
 21 15  2  0  0  0  0
 23 25  2  0  0  0  0
 24 25  1  0  0  0  0
 25 22  1  0  0  0  0
 26 30  1  0  0  0  0
 27 26  2  0  0  0  0
 28 31  2  0  0  0  0
 29 27  1  0  0  0  0
 31 30  1  0  0  0  0
 32 29  2  0  0  0  0
 32 28  1  0  0  0  0
M  END
>  <MODEL>
4

>  <REMARK>
 VINA RESULT:      -7.0      2.853      7.890
  Name = 
  4 active torsions:
  status: ('A' for Active; 'I' for Inactive)
    1  A    between atoms: C_1  and  C_21
    2  A    between atoms: C_2  and  C_19
    3  A    between atoms: N_14  and  C_18
    4  A    between atoms: C_18  and  C_23
                            x       y       z     vdW  Elec       q    Type
                         _______ _______ _______ _____ _____    ______ ____

>  <TORSDO>
F 4

$$$$
=
 OpenBabel11042419313D

 32 35  0  0  1  0  0  0  0  0999 V2000
  195.1010  173.6440  145.2780 C   0  0  1  0  0  3  0  0  0  0  0  0
  197.0740  173.2890  146.5870 O   0  0  0  0  0  0  0  0  0  0  0  0
  194.0780  171.4610  144.5130 C   0  0  0  0  0  0  0  0  0  0  0  0
  193.9020  172.8060  144.8920 C   0  0  0  0  0  0  0  0  0  0  0  0
  196.2940  171.4380  145.4680 O   0  0  0  0  0  0  0  0  0  0  0  0
  195.4550  170.8700  144.4610 C   0  0  0  0  0  2  0  0  0  0  0  0
  191.5250  172.5440  144.4940 C   0  0  0  0  0  3  0  0  0  0  0  0
  196.2160  172.7900  145.8120 C   0  0  0  0  0  0  0  0  0  0  0  0
  192.6030  173.3490  144.8840 C   0  0  0  0  0  0  0  0  0  0  0  0
  193.0100  170.7100  144.1340 N   0  0  0  0  0  0  0  0  0  0  0  0
  191.7500  171.2180  144.1220 C   0  0  0  0  0  3  0  0  0  0  0  0
  192.3690  174.7840  145.2610 C   0  0  2  0  0  3  0  0  0  0  0  0
  191.4230  174.8990  146.4610 C   0  0  0  0  0  2  0  0  0  0  0  0
  190.5010  175.7490  143.8560 C   0  0  0  0  0  0  0  0  0  0  0  0
  190.2460  177.0440  145.9960 C   0  0  0  0  0  3  0  0  0  0  0  0
  187.7190  177.8340  145.0170 N   0  0  0  0  0  0  0  0  0  0  0  0
  189.9500  175.1360  142.9020 O   0  0  0  0  0  0  0  0  0  0  0  0
  191.9820  175.6270  144.0390 C   0  0  0  0  0  2  0  0  0  0  0  0
  189.7210  176.5760  144.7390 N   0  0  0  0  0  0  0  0  0  0  0  0
  188.4470  177.0520  144.2860 C   0  0  0  0  0  3  0  0  0  0  0  0
  191.0490  176.3160  146.7770 C   0  0  0  0  0  3  0  0  0  0  0  0
  186.4300  178.3130  144.5460 C   0  0  0  0  0  2  0  0  0  0  0  0
  185.4090  176.7070  145.9830 O   0  0  0  0  0  0  0  0  0  0  0  0
  184.2310  178.6930  145.7280 N   0  0  0  0  0  1  0  0  0  0  0  0
  185.3370  177.8420  145.4460 C   0  0  0  0  0  0  0  0  0  0  0  0
  196.2100  174.2940  141.7530 C   0  0  0  0  0  3  0  0  0  0  0  0
  195.4370  173.9740  142.7910 C   0  0  0  0  0  3  0  0  0  0  0  0
  196.3390  176.8270  143.4440 C   0  0  0  0  0  3  0  0  0  0  0  0
  195.5590  174.5320  144.1550 C   0  0  0  0  0  0  0  0  0  0  0  0
  197.3760  175.2170  141.8600 C   0  0  0  0  0  2  0  0  0  0  0  0
  196.9540  176.5820  142.2880 C   0  0  0  0  0  3  0  0  0  0  0  0
  195.9140  175.8030  144.4180 C   0  0  0  0  0  3  0  0  0  0  0  0
  1 29  1  6  0  0  0
  1  8  1  0  0  0  0
  3  4  1  0  0  0  0
  4  1  1  0  0  0  0
  5  8  1  0  0  0  0
  6  3  1  0  0  0  0
  6  5  1  0  0  0  0
  7  9  1  0  0  0  0
  8  2  2  0  0  0  0
  9  4  2  0  0  0  0
 10  3  2  0  0  0  0
 11 10  1  0  0  0  0
 11  7  2  0  0  0  0
 12  9  1  6  0  0  0
 12 13  1  0  0  0  0
 13 21  1  0  0  0  0
 14 18  1  0  0  0  0
 14 19  1  0  0  0  0
 15 21  2  0  0  0  0
 17 14  2  0  0  0  0
 18 12  1  0  0  0  0
 19 15  1  0  0  0  0
 20 19  1  0  0  0  0
 20 16  2  0  0  0  0
 22 16  1  0  0  0  0
 22 25  1  0  0  0  0
 25 24  1  0  0  0  0
 25 23  2  0  0  0  0
 26 30  1  0  0  0  0
 26 27  2  0  0  0  0
 27 29  1  0  0  0  0
 28 32  1  0  0  0  0
 29 32  2  0  0  0  0
 30 31  1  0  0  0  0
 31 28  2  0  0  0  0
M  END
>  <MODEL>
5

>  <REMARK>
 VINA RESULT:      -6.9      1.933      2.626
  Name = 
  4 active torsions:
  status: ('A' for Active; 'I' for Inactive)
    1  A    between atoms: C_1  and  C_21
    2  A    between atoms: C_2  and  C_19
    3  A    between atoms: N_14  and  C_18
    4  A    between atoms: C_18  and  C_23
                            x       y       z     vdW  Elec       q    Type
                         _______ _______ _______ _____ _____    ______ ____

>  <TORSDO>
F 4

$$$$
=
 OpenBabel11042419313D

 32 35  0  0  1  0  0  0  0  0999 V2000
  186.8110  176.8090  146.0340 C   0  0  1  0  0  3  0  0  0  0  0  0
  184.5270  176.4130  146.6350 O   0  0  0  0  0  0  0  0  0  0  0  0
  187.9910  178.2580  147.7390 C   0  0  0  0  0  0  0  0  0  0  0  0
  188.0600  177.2320  146.7760 C   0  0  0  0  0  0  0  0  0  0  0  0
  185.5900  178.0550  147.8460 O   0  0  0  0  0  0  0  0  0  0  0  0
  186.6890  178.9520  148.0040 C   0  0  0  0  0  2  0  0  0  0  0  0
  190.4400  177.0730  147.2040 C   0  0  0  0  0  3  0  0  0  0  0  0
  185.5750  177.0790  146.8450 C   0  0  0  0  0  0  0  0  0  0  0  0
  189.3050  176.6310  146.5120 C   0  0  0  0  0  0  0  0  0  0  0  0
  189.1140  178.6660  148.3870 N   0  0  0  0  0  0  0  0  0  0  0  0
  190.3240  178.0970  148.1450 C   0  0  0  0  0  3  0  0  0  0  0  0
  189.4310  175.5470  145.4800 C   0  0  2  0  0  3  0  0  0  0  0  0
  189.5590  174.1670  146.1330 C   0  0  0  0  0  2  0  0  0  0  0  0
  191.8490  175.3010  144.7810 C   0  0  0  0  0  0  0  0  0  0  0  0
  191.0000  172.9500  144.5060 C   0  0  0  0  0  3  0  0  0  0  0  0
  193.7090  172.1750  144.3380 N   0  0  0  0  0  0  0  0  0  0  0  0
  192.7730  176.0700  145.1620 O   0  0  0  0  0  0  0  0  0  0  0  0
  190.5110  175.8840  144.4450 C   0  0  0  0  0  2  0  0  0  0  0  0
  192.0850  173.8880  144.6450 N   0  0  0  0  0  0  0  0  0  0  0  0
  193.4360  173.4290  144.5070 C   0  0  0  0  0  3  0  0  0  0  0  0
  189.8320  173.0750  145.1430 C   0  0  0  0  0  3  0  0  0  0  0  0
  195.0830  171.7210  144.1960 C   0  0  0  0  0  2  0  0  0  0  0  0
  195.0320  170.3440  146.1420 O   0  0  0  0  0  0  0  0  0  0  0  0
  196.8170  171.8260  146.0280 N   0  0  0  0  0  1  0  0  0  0  0  0
  195.6190  171.2590  145.5090 C   0  0  0  0  0  0  0  0  0  0  0  0
  185.6840  179.4160  143.5830 C   0  0  0  0  0  3  0  0  0  0  0  0
  186.3160  178.8370  144.6030 C   0  0  0  0  0  3  0  0  0  0  0  0
  187.2040  177.1670  142.1940 C   0  0  0  0  0  3  0  0  0  0  0  0
  186.7310  177.4190  144.6630 C   0  0  0  0  0  0  0  0  0  0  0  0
  185.2300  178.6650  142.3760 C   0  0  0  0  0  2  0  0  0  0  0  0
  186.3800  178.0590  141.6460 C   0  0  0  0  0  3  0  0  0  0  0  0
  187.1610  176.7170  143.5990 C   0  0  0  0  0  3  0  0  0  0  0  0
  1 29  1  6  0  0  0
  1  4  1  0  0  0  0
  1  8  1  0  0  0  0
  2  8  2  0  0  0  0
  3  6  1  0  0  0  0
  3 10  1  0  0  0  0
  4  3  2  0  0  0  0
  5  6  1  0  0  0  0
  7 11  1  0  0  0  0
  8  5  1  0  0  0  0
  9  4  1  0  0  0  0
  9  7  2  0  0  0  0
 11 10  2  0  0  0  0
 12 13  1  0  0  0  0
 12  9  1  1  0  0  0
 14 17  2  0  0  0  0
 15 19  1  0  0  0  0
 15 21  2  0  0  0  0
 16 20  2  0  0  0  0
 18 14  1  0  0  0  0
 18 12  1  0  0  0  0
 19 14  1  0  0  0  0
 20 19  1  0  0  0  0
 21 13  1  0  0  0  0
 22 16  1  0  0  0  0
 22 25  1  0  0  0  0
 25 24  1  0  0  0  0
 25 23  2  0  0  0  0
 26 27  2  0  0  0  0
 27 29  1  0  0  0  0
 28 32  1  0  0  0  0
 30 26  1  0  0  0  0
 31 28  2  0  0  0  0
 31 30  1  0  0  0  0
 32 29  2  0  0  0  0
M  END
>  <MODEL>
6

>  <REMARK>
 VINA RESULT:      -6.9      2.634      8.658
  Name = 
  4 active torsions:
  status: ('A' for Active; 'I' for Inactive)
    1  A    between atoms: C_1  and  C_21
    2  A    between atoms: C_2  and  C_19
    3  A    between atoms: N_14  and  C_18
    4  A    between atoms: C_18  and  C_23
                            x       y       z     vdW  Elec       q    Type
                         _______ _______ _______ _____ _____    ______ ____

>  <TORSDO>
F 4

$$$$
=
 OpenBabel11042419313D

 32 35  0  0  1  0  0  0  0  0999 V2000
  186.7570  176.4690  145.8200 C   0  0  1  0  0  3  0  0  0  0  0  0
  184.4850  176.1730  146.5130 O   0  0  0  0  0  0  0  0  0  0  0  0
  188.0400  177.9490  147.4210 C   0  0  0  0  0  0  0  0  0  0  0  0
  188.0440  176.8820  146.5020 C   0  0  0  0  0  0  0  0  0  0  0  0
  185.6380  177.8280  147.6160 O   0  0  0  0  0  0  0  0  0  0  0  0
  186.7690  178.6960  147.6990 C   0  0  0  0  0  2  0  0  0  0  0  0
  190.4310  176.6640  146.8570 C   0  0  0  0  0  3  0  0  0  0  0  0
  185.5590  176.8130  146.6590 C   0  0  0  0  0  0  0  0  0  0  0  0
  189.2600  176.2310  146.2220 C   0  0  0  0  0  0  0  0  0  0  0  0
  189.1970  178.3470  148.0140 N   0  0  0  0  0  0  0  0  0  0  0  0
  190.3790  177.7300  147.7560 C   0  0  0  0  0  3  0  0  0  0  0  0
  189.3160  175.1010  145.2340 C   0  0  2  0  0  3  0  0  0  0  0  0
  189.6910  173.7810  145.9170 C   0  0  0  0  0  2  0  0  0  0  0  0
  191.5930  175.0330  144.1340 C   0  0  0  0  0  0  0  0  0  0  0  0
  190.9500  172.6020  144.1190 C   0  0  0  0  0  3  0  0  0  0  0  0
  193.6540  172.0670  143.5140 N   0  0  0  0  0  0  0  0  0  0  0  0
  192.4860  175.9040  144.3120 O   0  0  0  0  0  0  0  0  0  0  0  0
  190.1660  175.4700  144.0120 C   0  0  0  0  0  2  0  0  0  0  0  0
  191.9430  173.6420  144.0230 N   0  0  0  0  0  0  0  0  0  0  0  0
  193.2890  173.2990  143.6710 C   0  0  0  0  0  3  0  0  0  0  0  0
  189.9000  172.6590  144.9440 C   0  0  0  0  0  3  0  0  0  0  0  0
  195.0220  171.7320  143.1540 C   0  0  0  0  0  2  0  0  0  0  0  0
  195.8790  171.3700  145.3500 O   0  0  0  0  0  0  0  0  0  0  0  0
  196.9390  173.0460  144.1410 N   0  0  0  0  0  1  0  0  0  0  0  0
  195.9490  172.0340  144.2830 C   0  0  0  0  0  0  0  0  0  0  0  0
  186.9940  176.2240  142.0840 C   0  0  0  0  0  3  0  0  0  0  0  0
  186.5750  176.0300  143.3340 C   0  0  0  0  0  3  0  0  0  0  0  0
  186.3150  179.0610  142.9720 C   0  0  0  0  0  3  0  0  0  0  0  0
  186.6490  177.0230  144.4280 C   0  0  0  0  0  0  0  0  0  0  0  0
  187.6840  177.4700  141.6410 C   0  0  0  0  0  2  0  0  0  0  0  0
  186.8060  178.6650  141.7980 C   0  0  0  0  0  3  0  0  0  0  0  0
  186.4870  178.3470  144.2520 C   0  0  0  0  0  3  0  0  0  0  0  0
  1 29  1  6  0  0  0
  1  4  1  0  0  0  0
  1  8  1  0  0  0  0
  2  8  2  0  0  0  0
  3  6  1  0  0  0  0
  3 10  1  0  0  0  0
  4  3  2  0  0  0  0
  5  6  1  0  0  0  0
  7 11  1  0  0  0  0
  8  5  1  0  0  0  0
  9  4  1  0  0  0  0
  9  7  2  0  0  0  0
 11 10  2  0  0  0  0
 12 13  1  0  0  0  0
 12  9  1  1  0  0  0
 14 17  2  0  0  0  0
 15 21  2  0  0  0  0
 16 20  2  0  0  0  0
 18 14  1  0  0  0  0
 18 12  1  0  0  0  0
 19 15  1  0  0  0  0
 19 14  1  0  0  0  0
 20 19  1  0  0  0  0
 21 13  1  0  0  0  0
 22 16  1  0  0  0  0
 22 25  1  0  0  0  0
 24 25  1  0  0  0  0
 25 23  2  0  0  0  0
 26 27  2  0  0  0  0
 27 29  1  0  0  0  0
 28 32  1  0  0  0  0
 30 31  1  0  0  0  0
 30 26  1  0  0  0  0
 31 28  2  0  0  0  0
 32 29  2  0  0  0  0
M  END
>  <MODEL>
7

>  <REMARK>
 VINA RESULT:      -6.8      2.617      8.472
  Name = 
  4 active torsions:
  status: ('A' for Active; 'I' for Inactive)
    1  A    between atoms: C_1  and  C_21
    2  A    between atoms: C_2  and  C_19
    3  A    between atoms: N_14  and  C_18
    4  A    between atoms: C_18  and  C_23
                            x       y       z     vdW  Elec       q    Type
                         _______ _______ _______ _____ _____    ______ ____

>  <TORSDO>
F 4

$$$$
=
 OpenBabel11042419313D

 32 35  0  0  1  0  0  0  0  0999 V2000
  186.7750  176.5140  145.7930 C   0  0  1  0  0  3  0  0  0  0  0  0
  184.5120  176.2100  146.5140 O   0  0  0  0  0  0  0  0  0  0  0  0
  188.0970  177.9240  147.4250 C   0  0  0  0  0  0  0  0  0  0  0  0
  188.0760  176.8910  146.4670 C   0  0  0  0  0  0  0  0  0  0  0  0
  185.6980  177.8150  147.6570 O   0  0  0  0  0  0  0  0  0  0  0  0
  186.8380  178.6700  147.7520 C   0  0  0  0  0  2  0  0  0  0  0  0
  190.4680  176.6420  146.7730 C   0  0  0  0  0  3  0  0  0  0  0  0
  185.5940  176.8360  146.6650 C   0  0  0  0  0  0  0  0  0  0  0  0
  189.2820  176.2410  146.1430 C   0  0  0  0  0  0  0  0  0  0  0  0
  189.2670  178.2910  148.0120 N   0  0  0  0  0  0  0  0  0  0  0  0
  190.4390  177.6740  147.7110 C   0  0  0  0  0  3  0  0  0  0  0  0
  189.3120  175.1480  145.1130 C   0  0  2  0  0  3  0  0  0  0  0  0
  189.6910  173.8020  145.7390 C   0  0  0  0  0  2  0  0  0  0  0  0
  191.5660  175.1080  143.9670 C   0  0  0  0  0  0  0  0  0  0  0  0
  190.9070  172.6830  143.8750 C   0  0  0  0  0  3  0  0  0  0  0  0
  193.5960  172.1550  143.1980 N   0  0  0  0  0  0  0  0  0  0  0  0
  192.4680  175.9670  144.1600 O   0  0  0  0  0  0  0  0  0  0  0  0
  190.1400  175.5570  143.8890 C   0  0  0  0  0  2  0  0  0  0  0  0
  191.9050  173.7200  143.7980 N   0  0  0  0  0  0  0  0  0  0  0  0
  193.2420  173.3830  143.4080 C   0  0  0  0  0  3  0  0  0  0  0  0
  189.8740  172.7160  144.7220 C   0  0  0  0  0  3  0  0  0  0  0  0
  194.9550  171.8250  142.8000 C   0  0  0  0  0  2  0  0  0  0  0  0
  196.2430  173.4080  141.5670 O   0  0  0  0  0  0  0  0  0  0  0  0
  194.6630  172.2410  140.3270 N   0  0  0  0  0  1  0  0  0  0  0  0
  195.3230  172.5490  141.5490 C   0  0  0  0  0  0  0  0  0  0  0  0
  185.9390  179.2980  143.4210 C   0  0  0  0  0  3  0  0  0  0  0  0
  186.5590  178.5960  144.3690 C   0  0  0  0  0  3  0  0  0  0  0  0
  186.7100  176.7560  141.9250 C   0  0  0  0  0  3  0  0  0  0  0  0
  186.6480  177.1200  144.4240 C   0  0  0  0  0  0  0  0  0  0  0  0
  185.1680  178.6660  142.3120 C   0  0  0  0  0  2  0  0  0  0  0  0
  186.0410  177.8100  141.4580 C   0  0  0  0  0  3  0  0  0  0  0  0
  186.7590  176.3340  143.3380 C   0  0  0  0  0  3  0  0  0  0  0  0
  1 29  1  6  0  0  0
  1  4  1  0  0  0  0
  1  8  1  0  0  0  0
  2  8  2  0  0  0  0
  3  6  1  0  0  0  0
  3 10  1  0  0  0  0
  4  3  2  0  0  0  0
  5  6  1  0  0  0  0
  7 11  1  0  0  0  0
  8  5  1  0  0  0  0
  9  4  1  0  0  0  0
  9  7  2  0  0  0  0
 11 10  2  0  0  0  0
 12 13  1  0  0  0  0
 12  9  1  1  0  0  0
 14 17  2  0  0  0  0
 15 21  2  0  0  0  0
 16 20  2  0  0  0  0
 18 14  1  0  0  0  0
 18 12  1  0  0  0  0
 19 15  1  0  0  0  0
 19 14  1  0  0  0  0
 20 19  1  0  0  0  0
 21 13  1  0  0  0  0
 22 16  1  0  0  0  0
 24 25  1  0  0  0  0
 25 23  2  0  0  0  0
 25 22  1  0  0  0  0
 26 27  2  0  0  0  0
 27 29  1  0  0  0  0
 28 32  1  0  0  0  0
 30 26  1  0  0  0  0
 31 28  2  0  0  0  0
 31 30  1  0  0  0  0
 32 29  2  0  0  0  0
M  END
>  <MODEL>
8

>  <REMARK>
 VINA RESULT:      -6.6      2.830      8.435
  Name = 
  4 active torsions:
  status: ('A' for Active; 'I' for Inactive)
    1  A    between atoms: C_1  and  C_21
    2  A    between atoms: C_2  and  C_19
    3  A    between atoms: N_14  and  C_18
    4  A    between atoms: C_18  and  C_23
                            x       y       z     vdW  Elec       q    Type
                         _______ _______ _______ _____ _____    ______ ____

>  <TORSDO>
F 4

$$$$
=
 OpenBabel11042419313D

 32 35  0  0  1  0  0  0  0  0999 V2000
  193.9540  174.4850  142.7280 C   0  0  1  0  0  3  0  0  0  0  0  0
  195.3590  174.1570  140.8170 O   0  0  0  0  0  0  0  0  0  0  0  0
  195.2170  175.5390  144.6500 C   0  0  0  0  0  0  0  0  0  0  0  0
  194.0020  175.3630  143.9590 C   0  0  0  0  0  0  0  0  0  0  0  0
  196.4610  174.6940  142.7640 O   0  0  0  0  0  0  0  0  0  0  0  0
  196.4540  174.8310  144.1850 C   0  0  0  0  0  2  0  0  0  0  0  0
  192.9300  176.7840  145.6050 C   0  0  0  0  0  3  0  0  0  0  0  0
  195.2910  174.4280  142.0450 C   0  0  0  0  0  0  0  0  0  0  0  0
  192.8450  176.0010  144.4460 C   0  0  0  0  0  0  0  0  0  0  0  0
  195.2610  176.3020  145.7740 N   0  0  0  0  0  0  0  0  0  0  0  0
  194.1550  176.9240  146.2580 C   0  0  0  0  0  3  0  0  0  0  0  0
  191.5230  175.8260  143.7550 C   0  0  2  0  0  3  0  0  0  0  0  0
  190.8430  177.1760  143.5000 C   0  0  0  0  0  2  0  0  0  0  0  0
  189.7120  175.3780  145.4620 C   0  0  0  0  0  0  0  0  0  0  0  0
  188.4300  176.5850  143.6670 C   0  0  0  0  0  3  0  0  0  0  0  0
  186.3680  176.8740  145.5740 N   0  0  0  0  0  0  0  0  0  0  0  0
  189.9310  175.2060  146.6910 O   0  0  0  0  0  0  0  0  0  0  0  0
  190.6550  174.7800  144.4650 C   0  0  0  0  0  2  0  0  0  0  0  0
  188.5560  176.1150  145.0230 N   0  0  0  0  0  0  0  0  0  0  0  0
  187.4520  176.2600  145.9250 C   0  0  0  0  0  3  0  0  0  0  0  0
  189.4590  177.0370  142.9440 C   0  0  0  0  0  3  0  0  0  0  0  0
  185.2530  177.0130  146.4960 C   0  0  0  0  0  2  0  0  0  0  0  0
  183.7150  178.7870  146.0840 O   0  0  0  0  0  0  0  0  0  0  0  0
  185.6290  179.3910  147.2550 N   0  0  0  0  0  1  0  0  0  0  0  0
  184.8170  178.4370  146.5800 C   0  0  0  0  0  0  0  0  0  0  0  0
  193.8440  171.2740  144.6660 C   0  0  0  0  0  3  0  0  0  0  0  0
  193.7320  172.5670  144.3660 C   0  0  0  0  0  3  0  0  0  0  0  0
  191.9190  171.2130  142.3020 C   0  0  0  0  0  3  0  0  0  0  0  0
  193.4160  173.1150  143.0290 C   0  0  0  0  0  0  0  0  0  0  0  0
  193.7420  170.1900  143.6460 C   0  0  0  0  0  2  0  0  0  0  0  0
  192.4010  170.1800  142.9920 C   0  0  0  0  0  3  0  0  0  0  0  0
  192.5800  172.5250  142.1550 C   0  0  0  0  0  3  0  0  0  0  0  0
  1 29  1  1  0  0  0
  1  4  1  0  0  0  0
  2  8  2  0  0  0  0
  3 10  1  0  0  0  0
  4  9  1  0  0  0  0
  4  3  2  0  0  0  0
  5  6  1  0  0  0  0
  6  3  1  0  0  0  0
  7 11  1  0  0  0  0
  8  1  1  0  0  0  0
  8  5  1  0  0  0  0
  9  7  2  0  0  0  0
 10 11  2  0  0  0  0
 12  9  1  1  0  0  0
 12 18  1  0  0  0  0
 13 12  1  0  0  0  0
 14 17  2  0  0  0  0
 15 19  1  0  0  0  0
 16 20  2  0  0  0  0
 16 22  1  0  0  0  0
 18 14  1  0  0  0  0
 19 14  1  0  0  0  0
 19 20  1  0  0  0  0
 21 13  1  0  0  0  0
 21 15  2  0  0  0  0
 22 25  1  0  0  0  0
 23 25  2  0  0  0  0
 25 24  1  0  0  0  0
 27 26  2  0  0  0  0
 28 31  2  0  0  0  0
 29 27  1  0  0  0  0
 30 26  1  0  0  0  0
 31 30  1  0  0  0  0
 32 28  1  0  0  0  0
 32 29  2  0  0  0  0
M  END
>  <MODEL>
9

>  <REMARK>
 VINA RESULT:      -6.6      2.288      4.234
  Name = 
  4 active torsions:
  status: ('A' for Active; 'I' for Inactive)
    1  A    between atoms: C_1  and  C_21
    2  A    between atoms: C_2  and  C_19
    3  A    between atoms: N_14  and  C_18
    4  A    between atoms: C_18  and  C_23
                            x       y       z     vdW  Elec       q    Type
                         _______ _______ _______ _____ _____    ______ ____

>  <TORSDO>
F 4

$$$$
