=
 OpenBabel11042419443D

 40 42  0  0  1  0  0  0  0  0999 V2000
  188.8660  175.4920  143.3280 C   0  0  0  0  0  2  0  0  0  0  0  0
  186.3580  176.6120  143.8740 N   0  0  0  0  0  2  0  0  0  0  0  0
  187.2690  176.3240  141.5630 N   0  0  0  0  0  0  0  0  0  0  0  0
  184.2600  178.3350  142.3790 C   0  0  0  0  0  3  0  0  0  0  0  0
  184.6460  178.2200  144.8240 C   0  0  0  0  0  0  0  0  0  0  0  0
  186.7840  177.5530  146.0600 C   0  0  0  0  0  0  0  0  0  0  0  0
  184.0870  178.6040  146.1660 C   0  0  0  0  0  2  0  0  0  0  0  0
  185.9780  177.4280  147.2810 C   0  0  0  0  0  3  0  0  0  0  0  0
  189.4770  176.8730  143.5210 C   0  0  0  0  0  2  0  0  0  0  0  0
  190.1070  176.9550  144.8370 N   0  0  0  0  0  0  0  0  0  0  0  0
  186.1230  177.7810  144.7370 C   0  0  1  0  0  3  0  0  0  0  0  0
  185.2440  177.5340  142.1370 C   0  0  0  0  0  3  0  0  0  0  0  0
  183.9270  178.5450  143.7680 N   0  0  0  0  0  0  0  0  0  0  0  0
  186.2080  176.7370  142.4630 C   0  0  2  0  0  3  0  0  0  0  0  0
  188.0680  177.3020  146.0820 C   0  0  0  0  0  0  0  0  0  0  0  0
  184.7180  177.8620  147.3150 C   0  0  0  0  0  3  0  0  0  0  0  0
  187.3910  176.7970  140.2140 C   0  0  0  0  0  3  0  0  0  0  0  0
  188.2290  175.2810  141.9460 C   0  0  2  0  0  3  0  0  0  0  0  0
  189.3550  177.0610  146.0610 C   0  0  0  0  0  3  0  0  0  0  0  0
  186.6220  177.6750  139.7370 O   0  0  0  0  0  0  0  0  0  0  0  0
  191.5660  176.9450  144.8930 C   0  0  2  0  0  3  0  0  0  0  0  0
  192.7010  175.9020  143.0710 O   0  0  0  0  0  1  0  0  0  0  0  0
  192.1470  177.1140  143.4980 C   0  0  0  0  0  2  0  0  0  0  0  0
  192.0210  175.7510  145.4570 O   0  0  0  0  0  0  0  0  0  0  0  0
  194.2770  175.8080  146.2300 C   0  0  0  0  0  1  0  0  0  0  0  0
  192.8230  176.1430  146.5320 C   0  0  0  0  0  2  0  0  0  0  0  0
  187.5600  173.9160  141.8830 C   0  0  0  0  0  2  0  0  0  0  0  0
  188.0880  173.0920  140.7200 C   0  0  0  0  0  2  0  0  0  0  0  0
  189.4920  173.5350  140.3740 C   0  0  0  0  0  2  0  0  0  0  0  0
  190.4230  172.3380  140.3760 C   0  0  0  0  0  2  0  0  0  0  0  0
  191.3870  172.4510  141.5130 C   0  0  0  0  0  0  0  0  0  0  0  0
  192.6500  172.3200  141.2670 N   0  0  0  0  0  0  0  0  0  0  0  0
  190.9380  172.7290  142.8440 N   0  0  0  0  0  0  0  0  0  0  0  0
  190.2380  171.8860  143.5270 C   0  0  0  0  0  3  0  0  0  0  0  0
  189.8020  172.2290  144.9030 C   0  0  0  0  0  1  0  0  0  0  0  0
  193.6170  172.4530  142.2750 N   0  0  0  0  0  2  0  0  0  0  0  0
  194.0170  171.2950  144.4620 C   0  0  0  0  0  0  0  0  0  0  0  0
  194.4850  170.2850  145.0460 O   0  0  0  0  0  0  0  0  0  0  0  0
  194.0660  171.3590  143.0320 N   0  0  0  0  0  2  0  0  0  0  0  0
  193.4880  172.3360  145.2180 O   0  0  0  0  0  1  0  0  0  0  0  0
  1  9  1  0  0  0  0
  3 18  1  0  0  0  0
  3 14  1  0  0  0  0
  4 13  1  0  0  0  0
  5  7  1  0  0  0  0
  6 15  2  0  0  0  0
  6  8  1  0  0  0  0
  7 16  1  0  0  0  0
  8 16  2  0  0  0  0
  9 10  1  0  0  0  0
 10 21  1  0  0  0  0
 10 19  1  0  0  0  0
 11  2  1  6  0  0  0
 11  5  1  0  0  0  0
 11  6  1  0  0  0  0
 12  4  2  0  0  0  0
 13  5  2  0  0  0  0
 14 12  1  1  0  0  0
 14  2  1  0  0  0  0
 17  3  1  0  0  0  0
 18 27  1  1  0  0  0
 18  1  1  0  0  0  0
 19 15  2  0  0  0  0
 20 17  2  0  0  0  0
 21 23  1  6  0  0  0
 21 24  1  0  0  0  0
 22 23  1  0  0  0  0
 24 26  1  0  0  0  0
 25 26  1  0  0  0  0
 28 27  1  0  0  0  0
 29 30  1  0  0  0  0
 29 28  1  0  0  0  0
 30 31  1  0  0  0  0
 31 33  1  0  0  0  0
 32 31  2  0  0  0  0
 32 36  1  0  0  0  0
 33 34  2  0  0  0  0
 34 35  1  0  0  0  0
 36 39  1  0  0  0  0
 37 38  2  0  0  0  0
 37 40  1  0  0  0  0
 39 37  1  0  0  0  0
M  END
>  <MODEL>
1

>  <REMARK>
 VINA RESULT:      -7.0      0.000      0.000
  Name = 
  12 active torsions:
  status: ('A' for Active; 'I' for Inactive)
    1  A    between atoms: C_4  and  N_20
    2  A    between atoms: C_4  and  C_36
    3  A    between atoms: C_4  and  O_37
    4  A    between atoms: C_6  and  N_11
    5  A    between atoms: C_6  and  C_26
    6  A    between atoms: N_8  and  N_18
    7  A    between atoms: N_8  and  N_22
    8  A    between atoms: C_13  and  C_25
    9  A    between atoms: C_13  and  C_33
   10  A    between atoms: C_25  and  C_26
   11  A    between atoms: C_33  and  C_34
   12  A    between atoms: O_37  and  C_40
                            x       y       z     vdW  Elec       q    Type
                         _______ _______ _______ _____ _____    ______ ____

>  <TORSDO>
F 12

$$$$
=
 OpenBabel11042419443D

 40 42  0  0  1  0  0  0  0  0999 V2000
  189.9980  175.8490  143.4010 C   0  0  0  0  0  2  0  0  0  0  0  0
  187.8050  177.0870  144.6260 N   0  0  0  0  0  2  0  0  0  0  0  0
  189.4050  175.5960  145.8390 N   0  0  0  0  0  0  0  0  0  0  0  0
  186.1730  176.7580  147.2400 C   0  0  0  0  0  3  0  0  0  0  0  0
  185.3890  177.6950  145.0840 C   0  0  2  0  0  3  0  0  0  0  0  0
  186.3040  177.2510  142.7380 C   0  0  0  0  0  0  0  0  0  0  0  0
  184.2730  178.4520  144.4170 C   0  0  0  0  0  2  0  0  0  0  0  0
  185.5420  178.4170  142.2740 C   0  0  0  0  0  3  0  0  0  0  0  0
  189.0720  174.7130  142.9890 C   0  0  0  0  0  2  0  0  0  0  0  0
  188.7140  174.8540  141.5790 N   0  0  0  0  0  0  0  0  0  0  0  0
  186.4040  176.9430  144.1980 C   0  0  1  0  0  3  0  0  0  0  0  0
  187.3330  176.4740  146.7500 C   0  0  0  0  0  3  0  0  0  0  0  0
  185.2720  177.4900  146.3810 N   0  0  0  0  0  0  0  0  0  0  0  0
  188.2410  176.4630  145.8300 C   0  0  0  0  0  0  0  0  0  0  0  0
  187.0400  176.5630  141.9020 C   0  0  0  0  0  0  0  0  0  0  0  0
  184.6460  179.0050  143.0670 C   0  0  0  0  0  3  0  0  0  0  0  0
  189.6530  174.6140  146.8550 C   0  0  0  0  0  3  0  0  0  0  0  0
  190.4840  175.7590  144.8550 C   0  0  2  0  0  3  0  0  0  0  0  0
  187.7890  175.8490  141.1000 C   0  0  0  0  0  3  0  0  0  0  0  0
  188.8270  174.3790  147.7790 O   0  0  0  0  0  0  0  0  0  0  0  0
  189.3180  173.9230  140.6300 C   0  0  2  0  0  3  0  0  0  0  0  0
  188.5190  172.5220  138.8710 O   0  0  0  0  0  1  0  0  0  0  0  0
  188.3050  172.8690  140.2090 C   0  0  0  0  0  2  0  0  0  0  0  0
  190.4350  173.3080  141.2000 O   0  0  0  0  0  0  0  0  0  0  0  0
  192.5560  174.3970  141.1200 C   0  0  0  0  0  1  0  0  0  0  0  0
  191.4950  173.6270  140.3470 C   0  0  0  0  0  2  0  0  0  0  0  0
  191.3160  176.9840  145.2040 C   0  0  0  0  0  2  0  0  0  0  0  0
  192.7870  176.7640  144.8870 C   0  0  0  0  0  2  0  0  0  0  0  0
  193.2250  175.4110  145.4030 C   0  0  0  0  0  2  0  0  0  0  0  0
  194.5140  175.5540  146.1870 C   0  0  0  0  0  2  0  0  0  0  0  0
  195.6660  175.0930  145.3520 C   0  0  0  0  0  0  0  0  0  0  0  0
  196.0030  175.7980  144.3210 N   0  0  0  0  0  0  0  0  0  0  0  0
  196.4090  173.9170  145.6930 N   0  0  0  0  0  0  0  0  0  0  0  0
  195.9000  172.7320  145.6160 C   0  0  0  0  0  3  0  0  0  0  0  0
  196.7180  171.5510  145.9820 C   0  0  0  0  0  1  0  0  0  0  0  0
  197.0970  175.4520  143.5140 N   0  0  0  0  0  2  0  0  0  0  0  0
  196.4860  175.7190  141.0960 C   0  0  0  0  0  0  0  0  0  0  0  0
  196.3380  175.1560  139.9820 O   0  0  0  0  0  0  0  0  0  0  0  0
  196.9390  174.9450  142.2140 N   0  0  0  0  0  2  0  0  0  0  0  0
  196.1820  177.0700  141.2250 O   0  0  0  0  0  1  0  0  0  0  0  0
  1 18  1  0  0  0  0
  2 14  1  0  0  0  0
  3 17  1  0  0  0  0
  5  7  1  6  0  0  0
  5 13  1  0  0  0  0
  8  6  1  0  0  0  0
  8 16  2  0  0  0  0
  9  1  1  0  0  0  0
 10  9  1  0  0  0  0
 11  6  1  6  0  0  0
 11  2  1  0  0  0  0
 11  5  1  0  0  0  0
 12  4  1  0  0  0  0
 13  4  2  0  0  0  0
 14  3  1  0  0  0  0
 14 12  2  0  0  0  0
 15  6  2  0  0  0  0
 16  7  1  0  0  0  0
 17 20  2  0  0  0  0
 18 27  1  1  0  0  0
 18  3  1  0  0  0  0
 19 10  1  0  0  0  0
 19 15  2  0  0  0  0
 21 23  1  1  0  0  0
 21 24  1  0  0  0  0
 21 10  1  0  0  0  0
 22 23  1  0  0  0  0
 26 25  1  0  0  0  0
 26 24  1  0  0  0  0
 28 27  1  0  0  0  0
 28 29  1  0  0  0  0
 29 30  1  0  0  0  0
 31 33  1  0  0  0  0
 31 30  1  0  0  0  0
 32 31  2  0  0  0  0
 34 33  2  0  0  0  0
 34 35  1  0  0  0  0
 36 32  1  0  0  0  0
 37 40  1  0  0  0  0
 37 39  1  0  0  0  0
 38 37  2  0  0  0  0
 39 36  1  0  0  0  0
M  END
>  <MODEL>
2

>  <REMARK>
 VINA RESULT:      -7.0      2.658      5.444
  Name = 
  12 active torsions:
  status: ('A' for Active; 'I' for Inactive)
    1  A    between atoms: C_4  and  N_20
    2  A    between atoms: C_4  and  C_36
    3  A    between atoms: C_4  and  O_37
    4  A    between atoms: C_6  and  N_11
    5  A    between atoms: C_6  and  C_26
    6  A    between atoms: N_8  and  N_18
    7  A    between atoms: N_8  and  N_22
    8  A    between atoms: C_13  and  C_25
    9  A    between atoms: C_13  and  C_33
   10  A    between atoms: C_25  and  C_26
   11  A    between atoms: C_33  and  C_34
   12  A    between atoms: O_37  and  C_40
                            x       y       z     vdW  Elec       q    Type
                         _______ _______ _______ _____ _____    ______ ____

>  <TORSDO>
F 12

$$$$
=
 OpenBabel11042419443D

 40 42  0  0  1  0  0  0  0  0999 V2000
  189.1800  175.5450  143.0500 C   0  0  0  0  0  2  0  0  0  0  0  0
  186.7150  176.5740  143.8920 N   0  0  0  0  0  2  0  0  0  0  0  0
  187.3540  176.3100  141.4880 N   0  0  0  0  0  0  0  0  0  0  0  0
  184.3920  178.2120  142.6580 C   0  0  0  0  0  3  0  0  0  0  0  0
  185.0710  178.1210  145.0400 C   0  0  0  0  0  0  0  0  0  0  0  0
  187.3640  177.5390  146.0110 C   0  0  0  0  0  0  0  0  0  0  0  0
  184.6620  178.4900  146.4390 C   0  0  0  0  0  2  0  0  0  0  0  0
  186.7150  177.3890  147.3200 C   0  0  0  0  0  3  0  0  0  0  0  0
  189.7580  176.9470  143.1690 C   0  0  0  0  0  2  0  0  0  0  0  0
  190.5370  177.0580  144.4010 N   0  0  0  0  0  0  0  0  0  0  0  0
  186.5420  177.7370  144.7770 C   0  0  1  0  0  3  0  0  0  0  0  0
  185.3690  177.4470  142.3010 C   0  0  0  0  0  3  0  0  0  0  0  0
  184.2190  178.4160  144.0770 N   0  0  0  0  0  0  0  0  0  0  0  0
  186.3930  176.6880  142.5090 C   0  0  2  0  0  3  0  0  0  0  0  0
  188.6500  177.3360  145.8810 C   0  0  0  0  0  0  0  0  0  0  0  0
  185.4530  177.7770  147.5040 C   0  0  0  0  0  3  0  0  0  0  0  0
  187.2970  176.7810  140.1340 C   0  0  0  0  0  3  0  0  0  0  0  0
  188.3910  175.3040  141.7540 C   0  0  2  0  0  3  0  0  0  0  0  0
  189.9330  177.1420  145.7060 C   0  0  0  0  0  3  0  0  0  0  0  0
  186.4440  177.6290  139.7530 O   0  0  0  0  0  0  0  0  0  0  0  0
  191.9910  177.1030  144.2820 C   0  0  2  0  0  3  0  0  0  0  0  0
  192.9860  176.7670  142.1390 O   0  0  0  0  0  1  0  0  0  0  0  0
  192.4670  176.0930  143.2490 C   0  0  0  0  0  2  0  0  0  0  0  0
  192.5860  176.8350  145.5170 O   0  0  0  0  0  0  0  0  0  0  0  0
  194.6020  175.8330  146.3080 C   0  0  0  0  0  1  0  0  0  0  0  0
  193.9490  176.6970  145.2380 C   0  0  0  0  0  2  0  0  0  0  0  0
  187.7700  173.9160  141.7710 C   0  0  0  0  0  2  0  0  0  0  0  0
  188.1540  173.1210  140.5330 C   0  0  0  0  0  2  0  0  0  0  0  0
  189.5240  173.5490  140.0540 C   0  0  0  0  0  2  0  0  0  0  0  0
  190.4270  172.3380  139.9350 C   0  0  0  0  0  2  0  0  0  0  0  0
  190.8590  171.8950  141.2960 C   0  0  0  0  0  0  0  0  0  0  0  0
  191.4420  172.7530  142.0700 N   0  0  0  0  0  0  0  0  0  0  0  0
  190.6100  170.5620  141.7590 N   0  0  0  0  0  0  0  0  0  0  0  0
  191.0810  169.5220  141.1550 C   0  0  0  0  0  3  0  0  0  0  0  0
  190.7910  168.1660  141.6810 C   0  0  0  0  0  1  0  0  0  0  0  0
  191.8380  172.4230  143.3740 N   0  0  0  0  0  2  0  0  0  0  0  0
  189.9820  172.8340  145.0100 C   0  0  0  0  0  0  0  0  0  0  0  0
  189.5860  173.4900  146.0050 O   0  0  0  0  0  1  0  0  0  0  0  0
  191.3030  173.0620  144.5050 N   0  0  0  0  0  2  0  0  0  0  0  0
  189.1230  171.9210  144.4070 O   0  0  0  0  0  0  0  0  0  0  0  0
  1  9  1  0  0  0  0
  3 18  1  0  0  0  0
  3 14  1  0  0  0  0
  4 13  1  0  0  0  0
  5  7  1  0  0  0  0
  6  8  1  0  0  0  0
  7 16  1  0  0  0  0
  8 16  2  0  0  0  0
  9 10  1  0  0  0  0
 10 19  1  0  0  0  0
 11  2  1  1  0  0  0
 11  5  1  0  0  0  0
 11  6  1  0  0  0  0
 12  4  2  0  0  0  0
 13  5  2  0  0  0  0
 14 12  1  6  0  0  0
 14  2  1  0  0  0  0
 15  6  2  0  0  0  0
 17  3  1  0  0  0  0
 18 27  1  1  0  0  0
 18  1  1  0  0  0  0
 19 15  2  0  0  0  0
 20 17  2  0  0  0  0
 21 23  1  6  0  0  0
 21 10  1  0  0  0  0
 21 24  1  0  0  0  0
 22 23  1  0  0  0  0
 26 24  1  0  0  0  0
 26 25  1  0  0  0  0
 28 27  1  0  0  0  0
 29 28  1  0  0  0  0
 30 29  1  0  0  0  0
 30 31  1  0  0  0  0
 31 33  1  0  0  0  0
 31 32  2  0  0  0  0
 32 36  1  0  0  0  0
 34 35  1  0  0  0  0
 34 33  2  0  0  0  0
 36 39  1  0  0  0  0
 37 38  1  0  0  0  0
 39 37  1  0  0  0  0
 40 37  2  0  0  0  0
M  END
>  <MODEL>
3

>  <REMARK>
 VINA RESULT:      -7.0      1.570      1.957
  Name = 
  12 active torsions:
  status: ('A' for Active; 'I' for Inactive)
    1  A    between atoms: C_4  and  N_20
    2  A    between atoms: C_4  and  C_36
    3  A    between atoms: C_4  and  O_37
    4  A    between atoms: C_6  and  N_11
    5  A    between atoms: C_6  and  C_26
    6  A    between atoms: N_8  and  N_18
    7  A    between atoms: N_8  and  N_22
    8  A    between atoms: C_13  and  C_25
    9  A    between atoms: C_13  and  C_33
   10  A    between atoms: C_25  and  C_26
   11  A    between atoms: C_33  and  C_34
   12  A    between atoms: O_37  and  C_40
                            x       y       z     vdW  Elec       q    Type
                         _______ _______ _______ _____ _____    ______ ____

>  <TORSDO>
F 12

$$$$
=
 OpenBabel11042419443D

 40 42  0  0  1  0  0  0  0  0999 V2000
  190.1360  175.5560  143.6780 C   0  0  0  0  0  2  0  0  0  0  0  0
  187.9270  176.9570  144.6810 N   0  0  0  0  0  2  0  0  0  0  0  0
  189.3390  175.4270  146.0670 N   0  0  0  0  0  0  0  0  0  0  0  0
  186.0780  176.8150  147.1630 C   0  0  0  0  0  3  0  0  0  0  0  0
  185.5220  177.7120  144.9210 C   0  0  2  0  0  3  0  0  0  0  0  0
  186.5930  177.1310  142.6730 C   0  0  0  0  0  0  0  0  0  0  0  0
  184.5070  178.5030  144.1410 C   0  0  0  0  0  2  0  0  0  0  0  0
  185.9380  178.3190  142.1110 C   0  0  0  0  0  3  0  0  0  0  0  0
  189.1820  174.4580  143.2310 C   0  0  0  0  0  2  0  0  0  0  0  0
  188.9450  174.5650  141.7920 N   0  0  0  0  0  0  0  0  0  0  0  0
  186.5590  176.8730  144.1460 C   0  0  1  0  0  3  0  0  0  0  0  0
  187.2550  176.4500  146.7780 C   0  0  0  0  0  3  0  0  0  0  0  0
  185.2910  177.5630  146.2110 N   0  0  0  0  0  0  0  0  0  0  0  0
  188.2310  176.3550  145.9360 C   0  0  0  0  0  0  0  0  0  0  0  0
  187.3520  176.3730  141.9220 C   0  0  0  0  0  0  0  0  0  0  0  0
  185.0170  178.9840  142.8080 C   0  0  0  0  0  3  0  0  0  0  0  0
  189.4490  174.4720  147.1320 C   0  0  0  0  0  3  0  0  0  0  0  0
  190.5000  175.4950  145.1700 C   0  0  2  0  0  3  0  0  0  0  0  0
  188.1190  175.5900  141.2070 C   0  0  0  0  0  3  0  0  0  0  0  0
  188.5410  174.3170  147.9930 O   0  0  0  0  0  0  0  0  0  0  0  0
  189.5680  173.5670  140.9260 C   0  0  2  0  0  3  0  0  0  0  0  0
  187.9570  172.5600  139.4820 O   0  0  0  0  0  1  0  0  0  0  0  0
  188.9130  173.5790  139.5540 C   0  0  0  0  0  2  0  0  0  0  0  0
  189.4570  172.2970  141.4960 O   0  0  0  0  0  0  0  0  0  0  0  0
  191.3490  171.4680  142.6890 C   0  0  0  0  0  1  0  0  0  0  0  0
  190.7170  171.7160  141.3270 C   0  0  0  0  0  2  0  0  0  0  0  0
  191.3710  176.6840  145.5440 C   0  0  0  0  0  2  0  0  0  0  0  0
  192.2210  176.3860  146.7680 C   0  0  0  0  0  2  0  0  0  0  0  0
  193.6660  176.7360  146.4860 C   0  0  0  0  0  2  0  0  0  0  0  0
  193.9310  176.6610  144.9950 C   0  0  0  0  0  2  0  0  0  0  0  0
  195.2210  175.9480  144.7480 C   0  0  0  0  0  0  0  0  0  0  0  0
  195.6040  175.0500  145.5970 N   0  0  0  0  0  0  0  0  0  0  0  0
  196.0090  176.2190  143.5830 N   0  0  0  0  0  0  0  0  0  0  0  0
  195.5100  176.2000  142.3920 C   0  0  0  0  0  3  0  0  0  0  0  0
  196.3750  176.4900  141.2230 C   0  0  0  0  0  1  0  0  0  0  0  0
  196.7820  174.3110  145.4120 N   0  0  0  0  0  2  0  0  0  0  0  0
  196.5340  171.8290  145.6650 C   0  0  0  0  0  0  0  0  0  0  0  0
  196.7740  170.8150  146.3690 O   0  0  0  0  0  1  0  0  0  0  0  0
  197.0250  173.1060  146.0900 N   0  0  0  0  0  2  0  0  0  0  0  0
  195.7780  171.6910  144.5060 O   0  0  0  0  0  0  0  0  0  0  0  0
  1 18  1  0  0  0  0
  2 14  1  0  0  0  0
  3 17  1  0  0  0  0
  5  7  1  6  0  0  0
  5 13  1  0  0  0  0
  8  6  1  0  0  0  0
  8 16  2  0  0  0  0
  9  1  1  0  0  0  0
 10  9  1  0  0  0  0
 11  6  1  6  0  0  0
 11  2  1  0  0  0  0
 11  5  1  0  0  0  0
 12  4  1  0  0  0  0
 13  4  2  0  0  0  0
 14  3  1  0  0  0  0
 14 12  2  0  0  0  0
 15  6  2  0  0  0  0
 16  7  1  0  0  0  0
 17 20  2  0  0  0  0
 18 27  1  1  0  0  0
 18  3  1  0  0  0  0
 19 10  1  0  0  0  0
 19 15  2  0  0  0  0
 21 23  1  6  0  0  0
 21 24  1  0  0  0  0
 21 10  1  0  0  0  0
 22 23  1  0  0  0  0
 26 24  1  0  0  0  0
 26 25  1  0  0  0  0
 27 28  1  0  0  0  0
 29 28  1  0  0  0  0
 30 29  1  0  0  0  0
 31 30  1  0  0  0  0
 31 32  2  0  0  0  0
 33 31  1  0  0  0  0
 34 33  2  0  0  0  0
 35 34  1  0  0  0  0
 36 32  1  0  0  0  0
 36 39  1  0  0  0  0
 37 39  1  0  0  0  0
 37 38  1  0  0  0  0
 40 37  2  0  0  0  0
M  END
>  <MODEL>
4

>  <REMARK>
 VINA RESULT:      -6.9      2.621      5.388
  Name = 
  12 active torsions:
  status: ('A' for Active; 'I' for Inactive)
    1  A    between atoms: C_4  and  N_20
    2  A    between atoms: C_4  and  C_36
    3  A    between atoms: C_4  and  O_37
    4  A    between atoms: C_6  and  N_11
    5  A    between atoms: C_6  and  C_26
    6  A    between atoms: N_8  and  N_18
    7  A    between atoms: N_8  and  N_22
    8  A    between atoms: C_13  and  C_25
    9  A    between atoms: C_13  and  C_33
   10  A    between atoms: C_25  and  C_26
   11  A    between atoms: C_33  and  C_34
   12  A    between atoms: O_37  and  C_40
                            x       y       z     vdW  Elec       q    Type
                         _______ _______ _______ _____ _____    ______ ____

>  <TORSDO>
F 12

$$$$
=
 OpenBabel11042419443D

 40 42  0  0  1  0  0  0  0  0999 V2000
  190.0240  175.5650  143.6330 C   0  0  0  0  0  2  0  0  0  0  0  0
  187.8150  176.9520  144.6520 N   0  0  0  0  0  2  0  0  0  0  0  0
  189.2840  175.4810  146.0420 N   0  0  0  0  0  0  0  0  0  0  0  0
  186.0250  176.8400  147.1790 C   0  0  0  0  0  3  0  0  0  0  0  0
  185.4030  177.6730  144.9300 C   0  0  2  0  0  3  0  0  0  0  0  0
  186.4330  177.0550  142.6720 C   0  0  0  0  0  0  0  0  0  0  0  0
  184.3580  178.4270  144.1550 C   0  0  0  0  0  2  0  0  0  0  0  0
  185.7450  178.2180  142.0970 C   0  0  0  0  0  3  0  0  0  0  0  0
  189.0800  174.4400  143.2340 C   0  0  0  0  0  2  0  0  0  0  0  0
  188.8090  174.5080  141.7990 N   0  0  0  0  0  0  0  0  0  0  0  0
  186.4360  176.8330  144.1510 C   0  0  1  0  0  3  0  0  0  0  0  0
  187.2000  176.4860  146.7760 C   0  0  0  0  0  3  0  0  0  0  0  0
  185.2040  177.5510  146.2280 N   0  0  0  0  0  0  0  0  0  0  0  0
  188.1570  176.3870  145.9140 C   0  0  0  0  0  0  0  0  0  0  0  0
  187.1880  176.2930  141.9230 C   0  0  0  0  0  0  0  0  0  0  0  0
  184.8280  178.8840  142.7990 C   0  0  0  0  0  3  0  0  0  0  0  0
  189.4350  174.5540  147.1270 C   0  0  0  0  0  3  0  0  0  0  0  0
  190.4230  175.5460  145.1160 C   0  0  2  0  0  3  0  0  0  0  0  0
  187.9520  175.5050  141.2090 C   0  0  0  0  0  3  0  0  0  0  0  0
  188.5490  174.4050  148.0120 O   0  0  0  0  0  0  0  0  0  0  0  0
  189.4290  173.5010  140.9430 C   0  0  2  0  0  3  0  0  0  0  0  0
  188.0110  172.6650  139.2150 O   0  0  0  0  0  1  0  0  0  0  0  0
  188.9490  173.6600  139.5090 C   0  0  0  0  0  2  0  0  0  0  0  0
  189.1240  172.2190  141.4070 O   0  0  0  0  0  0  0  0  0  0  0  0
  190.8540  171.2710  142.7480 C   0  0  0  0  0  1  0  0  0  0  0  0
  190.3300  171.5160  141.3400 C   0  0  0  0  0  2  0  0  0  0  0  0
  191.2820  176.7590  145.4420 C   0  0  0  0  0  2  0  0  0  0  0  0
  192.5540  176.3580  146.1690 C   0  0  0  0  0  2  0  0  0  0  0  0
  192.7550  174.8630  146.0660 C   0  0  0  0  0  2  0  0  0  0  0  0
  194.1360  174.5660  145.5180 C   0  0  0  0  0  2  0  0  0  0  0  0
  194.1200  174.6710  144.0260 C   0  0  0  0  0  0  0  0  0  0  0  0
  193.1920  174.0480  143.3730 N   0  0  0  0  0  0  0  0  0  0  0  0
  195.0830  175.4650  143.3260 N   0  0  0  0  0  0  0  0  0  0  0  0
  196.0350  176.0920  143.9340 C   0  0  0  0  0  3  0  0  0  0  0  0
  197.0050  176.8990  143.1550 C   0  0  0  0  0  1  0  0  0  0  0  0
  193.0880  174.1320  141.9770 N   0  0  0  0  0  0  0  0  0  0  0  0
  193.3030  173.0570  139.7210 C   0  0  0  0  0  0  0  0  0  0  0  0
  193.7510  172.0880  139.0580 O   0  0  0  0  0  0  0  0  0  0  0  0
  193.5720  173.1240  141.1270 N   0  0  0  0  0  0  0  0  0  0  0  0
  192.5370  174.0260  139.0820 O   0  0  0  0  0  1  0  0  0  0  0  0
  1 18  1  0  0  0  0
  2 14  1  0  0  0  0
  3 17  1  0  0  0  0
  5  7  1  6  0  0  0
  5 13  1  0  0  0  0
  8  6  1  0  0  0  0
  8 16  2  0  0  0  0
  9  1  1  0  0  0  0
 10  9  1  0  0  0  0
 11  6  1  6  0  0  0
 11  2  1  0  0  0  0
 11  5  1  0  0  0  0
 12  4  1  0  0  0  0
 13  4  2  0  0  0  0
 14  3  1  0  0  0  0
 14 12  2  0  0  0  0
 15  6  2  0  0  0  0
 16  7  1  0  0  0  0
 17 20  2  0  0  0  0
 18 27  1  1  0  0  0
 18  3  1  0  0  0  0
 19 10  1  0  0  0  0
 19 15  2  0  0  0  0
 21 23  1  6  0  0  0
 21 24  1  0  0  0  0
 21 10  1  0  0  0  0
 22 23  1  0  0  0  0
 26 24  1  0  0  0  0
 26 25  1  0  0  0  0
 27 28  1  0  0  0  0
 29 28  1  0  0  0  0
 30 29  1  0  0  0  0
 31 30  1  0  0  0  0
 32 31  2  0  0  0  0
 33 34  2  0  0  0  0
 33 31  1  0  0  0  0
 35 34  1  0  0  0  0
 36 32  1  0  0  0  0
 37 39  1  0  0  0  0
 38 37  2  0  0  0  0
 39 36  2  0  0  0  0
 40 37  1  0  0  0  0
M  END
>  <MODEL>
5

>  <REMARK>
 VINA RESULT:      -6.7      2.456      5.329
  Name = 
  12 active torsions:
  status: ('A' for Active; 'I' for Inactive)
    1  A    between atoms: C_4  and  N_20
    2  A    between atoms: C_4  and  C_36
    3  A    between atoms: C_4  and  O_37
    4  A    between atoms: C_6  and  N_11
    5  A    between atoms: C_6  and  C_26
    6  A    between atoms: N_8  and  N_18
    7  A    between atoms: N_8  and  N_22
    8  A    between atoms: C_13  and  C_25
    9  A    between atoms: C_13  and  C_33
   10  A    between atoms: C_25  and  C_26
   11  A    between atoms: C_33  and  C_34
   12  A    between atoms: O_37  and  C_40
                            x       y       z     vdW  Elec       q    Type
                         _______ _______ _______ _____ _____    ______ ____

>  <TORSDO>
F 12

$$$$
=
 OpenBabel11042419443D

 40 42  0  0  1  0  0  0  0  0999 V2000
  188.9300  175.6160  143.4000 C   0  0  0  0  0  2  0  0  0  0  0  0
  186.3930  176.6910  143.9040 N   0  0  0  0  0  2  0  0  0  0  0  0
  187.3230  176.3630  141.6050 N   0  0  0  0  0  0  0  0  0  0  0  0
  184.2640  178.3240  142.3530 C   0  0  0  0  0  3  0  0  0  0  0  0
  184.6400  178.2820  144.8020 C   0  0  2  0  0  3  0  0  0  0  0  0
  186.7850  177.6990  146.0660 C   0  0  0  0  0  0  0  0  0  0  0  0
  184.0640  178.6880  146.1310 C   0  0  0  0  0  2  0  0  0  0  0  0
  185.9760  177.5870  147.2860 C   0  0  0  0  0  3  0  0  0  0  0  0
  189.5070  177.0150  143.5590 C   0  0  0  0  0  2  0  0  0  0  0  0
  190.1280  177.1470  144.8760 N   0  0  0  0  0  0  0  0  0  0  0  0
  186.1260  177.8760  144.7340 C   0  0  1  0  0  3  0  0  0  0  0  0
  185.2680  177.5400  142.1380 C   0  0  0  0  0  3  0  0  0  0  0  0
  183.9190  178.5630  143.7340 N   0  0  0  0  0  0  0  0  0  0  0  0
  186.2480  176.7750  142.4890 C   0  0  0  0  0  0  0  0  0  0  0  0
  188.0750  177.4800  146.1010 C   0  0  0  0  0  0  0  0  0  0  0  0
  184.7060  177.9920  147.3020 C   0  0  0  0  0  3  0  0  0  0  0  0
  187.4420  176.8030  140.2450 C   0  0  0  0  0  3  0  0  0  0  0  0
  188.3060  175.3530  142.0210 C   0  0  2  0  0  3  0  0  0  0  0  0
  189.3670  177.2680  146.0930 C   0  0  0  0  0  3  0  0  0  0  0  0
  186.6550  177.6500  139.7410 O   0  0  0  0  0  0  0  0  0  0  0  0
  191.5860  177.1740  144.9390 C   0  0  2  0  0  3  0  0  0  0  0  0
  192.8950  176.2940  143.1470 O   0  0  0  0  0  1  0  0  0  0  0  0
  192.1690  177.4180  143.5550 C   0  0  0  0  0  2  0  0  0  0  0  0
  192.0700  175.9680  145.4520 O   0  0  0  0  0  0  0  0  0  0  0  0
  194.1890  176.3110  146.4930 C   0  0  0  0  0  1  0  0  0  0  0  0
  192.6770  176.3110  146.6640 C   0  0  0  0  0  2  0  0  0  0  0  0
  187.6690  173.9720  141.9910 C   0  0  0  0  0  2  0  0  0  0  0  0
  188.6260  172.9080  142.5020 C   0  0  0  0  0  2  0  0  0  0  0  0
  189.1640  172.1020  141.3400 C   0  0  0  0  0  2  0  0  0  0  0  0
  190.4600  171.4260  141.7410 C   0  0  0  0  0  2  0  0  0  0  0  0
  191.5770  172.4180  141.7110 C   0  0  0  0  0  0  0  0  0  0  0  0
  191.6490  173.2390  140.7140 N   0  0  0  0  0  0  0  0  0  0  0  0
  192.5350  172.4920  142.7730 N   0  0  0  0  0  0  0  0  0  0  0  0
  192.1900  172.6950  144.0010 C   0  0  0  0  0  3  0  0  0  0  0  0
  193.2270  172.7600  145.0600 C   0  0  0  0  0  1  0  0  0  0  0  0
  192.6440  174.2240  140.6360 N   0  0  0  0  0  0  0  0  0  0  0  0
  194.6260  175.1900  139.4410 C   0  0  0  0  0  0  0  0  0  0  0  0
  195.2260  175.3320  138.3460 O   0  0  0  0  0  0  0  0  0  0  0  0
  193.4230  174.4140  139.4830 N   0  0  0  0  0  0  0  0  0  0  0  0
  195.1300  175.8090  140.5810 O   0  0  0  0  0  1  0  0  0  0  0  0
  1  9  1  0  0  0  0
  3 18  1  0  0  0  0
  3 14  1  0  0  0  0
  4 13  2  0  0  0  0
  5  7  1  1  0  0  0
  6 15  2  0  0  0  0
  6  8  1  0  0  0  0
  7 16  1  0  0  0  0
  8 16  2  0  0  0  0
  9 10  1  0  0  0  0
 10 21  1  0  0  0  0
 10 19  1  0  0  0  0
 11  2  1  1  0  0  0
 11  5  1  0  0  0  0
 11  6  1  0  0  0  0
 12  4  1  0  0  0  0
 12 14  2  0  0  0  0
 13  5  1  0  0  0  0
 14  2  1  0  0  0  0
 17  3  1  0  0  0  0
 18 27  1  1  0  0  0
 18  1  1  0  0  0  0
 19 15  2  0  0  0  0
 20 17  2  0  0  0  0
 21 23  1  6  0  0  0
 21 24  1  0  0  0  0
 22 23  1  0  0  0  0
 24 26  1  0  0  0  0
 25 26  1  0  0  0  0
 27 28  1  0  0  0  0
 29 30  1  0  0  0  0
 29 28  1  0  0  0  0
 31 30  1  0  0  0  0
 31 33  1  0  0  0  0
 32 31  2  0  0  0  0
 33 34  2  0  0  0  0
 34 35  1  0  0  0  0
 36 32  1  0  0  0  0
 37 39  1  0  0  0  0
 37 40  1  0  0  0  0
 38 37  2  0  0  0  0
 39 36  2  0  0  0  0
M  END
>  <MODEL>
6

>  <REMARK>
 VINA RESULT:      -6.7      1.543      2.286
  Name = 
  12 active torsions:
  status: ('A' for Active; 'I' for Inactive)
    1  A    between atoms: C_4  and  N_20
    2  A    between atoms: C_4  and  C_36
    3  A    between atoms: C_4  and  O_37
    4  A    between atoms: C_6  and  N_11
    5  A    between atoms: C_6  and  C_26
    6  A    between atoms: N_8  and  N_18
    7  A    between atoms: N_8  and  N_22
    8  A    between atoms: C_13  and  C_25
    9  A    between atoms: C_13  and  C_33
   10  A    between atoms: C_25  and  C_26
   11  A    between atoms: C_33  and  C_34
   12  A    between atoms: O_37  and  C_40
                            x       y       z     vdW  Elec       q    Type
                         _______ _______ _______ _____ _____    ______ ____

>  <TORSDO>
F 12

$$$$
=
 OpenBabel11042419443D

 40 42  0  0  1  0  0  0  0  0999 V2000
  188.9280  175.4110  143.3940 C   0  0  0  0  0  2  0  0  0  0  0  0
  186.4460  176.5950  143.9220 N   0  0  0  0  0  2  0  0  0  0  0  0
  187.3300  176.2120  141.6150 N   0  0  0  0  0  0  0  0  0  0  0  0
  184.3660  178.3040  142.3870 C   0  0  0  0  0  3  0  0  0  0  0  0
  184.7730  178.2650  144.8320 C   0  0  2  0  0  3  0  0  0  0  0  0
  186.9090  177.6010  146.0710 C   0  0  0  0  0  0  0  0  0  0  0  0
  184.2330  178.7050  146.1650 C   0  0  0  0  0  2  0  0  0  0  0  0
  186.1120  177.5320  147.3030 C   0  0  0  0  0  3  0  0  0  0  0  0
  189.5660  176.7860  143.5340 C   0  0  0  0  0  2  0  0  0  0  0  0
  190.2090  176.9010  144.8420 N   0  0  0  0  0  0  0  0  0  0  0  0
  186.2400  177.7960  144.7470 C   0  0  1  0  0  3  0  0  0  0  0  0
  185.3340  177.4780  142.1650 C   0  0  0  0  0  3  0  0  0  0  0  0
  184.0500  178.5680  143.7710 N   0  0  0  0  0  0  0  0  0  0  0  0
  186.2850  176.6750  142.5090 C   0  0  0  0  0  0  0  0  0  0  0  0
  188.1880  177.3280  146.0910 C   0  0  0  0  0  0  0  0  0  0  0  0
  184.8610  177.9910  147.3320 C   0  0  0  0  0  3  0  0  0  0  0  0
  187.4490  176.6360  140.2490 C   0  0  0  0  0  3  0  0  0  0  0  0
  188.2750  175.1650  142.0250 C   0  0  2  0  0  3  0  0  0  0  0  0
  189.4700  177.0620  146.0680 C   0  0  0  0  0  3  0  0  0  0  0  0
  186.6910  177.5120  139.7490 O   0  0  0  0  0  0  0  0  0  0  0  0
  191.6680  176.8660  144.8850 C   0  0  2  0  0  3  0  0  0  0  0  0
  192.9860  175.6980  143.2740 O   0  0  0  0  0  1  0  0  0  0  0  0
  192.2370  176.8630  143.4750 C   0  0  0  0  0  2  0  0  0  0  0  0
  192.1050  175.7340  145.5770 O   0  0  0  0  0  0  0  0  0  0  0  0
  194.1800  176.4470  146.5120 C   0  0  0  0  0  1  0  0  0  0  0  0
  192.6920  176.2300  146.7440 C   0  0  0  0  0  2  0  0  0  0  0  0
  187.5800  173.8110  142.0140 C   0  0  0  0  0  2  0  0  0  0  0  0
  188.5850  172.6710  142.0550 C   0  0  0  0  0  2  0  0  0  0  0  0
  189.4570  172.7130  140.8200 C   0  0  0  0  0  2  0  0  0  0  0  0
  188.6160  172.4470  139.5880 C   0  0  0  0  0  2  0  0  0  0  0  0
  189.0380  173.3610  138.4820 C   0  0  0  0  0  0  0  0  0  0  0  0
  188.1300  174.0460  137.8660 N   0  0  0  0  0  0  0  0  0  0  0  0
  190.4170  173.5090  138.1250 N   0  0  0  0  0  0  0  0  0  0  0  0
  190.9630  172.8220  137.1780 C   0  0  0  0  0  3  0  0  0  0  0  0
  192.3970  173.0190  136.8520 C   0  0  0  0  0  1  0  0  0  0  0  0
  188.4530  174.9540  136.8460 N   0  0  0  0  0  0  0  0  0  0  0  0
  187.7500  176.5620  135.0560 C   0  0  0  0  0  0  0  0  0  0  0  0
  186.7990  177.1810  134.5140 O   0  0  0  0  0  0  0  0  0  0  0  0
  187.4710  175.6640  136.1360 N   0  0  0  0  0  0  0  0  0  0  0  0
  189.0490  176.7830  134.6120 O   0  0  0  0  0  1  0  0  0  0  0  0
  1  9  1  0  0  0  0
  3 18  1  0  0  0  0
  3 14  1  0  0  0  0
  4 13  2  0  0  0  0
  5  7  1  1  0  0  0
  6 15  2  0  0  0  0
  6  8  1  0  0  0  0
  7 16  1  0  0  0  0
  8 16  2  0  0  0  0
  9 10  1  0  0  0  0
 10 21  1  0  0  0  0
 10 19  1  0  0  0  0
 11  2  1  1  0  0  0
 11  5  1  0  0  0  0
 11  6  1  0  0  0  0
 12  4  1  0  0  0  0
 12 14  2  0  0  0  0
 13  5  1  0  0  0  0
 14  2  1  0  0  0  0
 17  3  1  0  0  0  0
 18 27  1  1  0  0  0
 18  1  1  0  0  0  0
 19 15  2  0  0  0  0
 20 17  2  0  0  0  0
 21 23  1  6  0  0  0
 21 24  1  0  0  0  0
 22 23  1  0  0  0  0
 24 26  1  0  0  0  0
 25 26  1  0  0  0  0
 27 28  1  0  0  0  0
 29 28  1  0  0  0  0
 30 29  1  0  0  0  0
 31 30  1  0  0  0  0
 32 31  2  0  0  0  0
 33 31  1  0  0  0  0
 34 33  2  0  0  0  0
 35 34  1  0  0  0  0
 36 32  1  0  0  0  0
 37 39  1  0  0  0  0
 38 37  2  0  0  0  0
 39 36  2  0  0  0  0
 40 37  1  0  0  0  0
M  END
>  <MODEL>
7

>  <REMARK>
 VINA RESULT:      -6.7      2.325      4.724
  Name = 
  12 active torsions:
  status: ('A' for Active; 'I' for Inactive)
    1  A    between atoms: C_4  and  N_20
    2  A    between atoms: C_4  and  C_36
    3  A    between atoms: C_4  and  O_37
    4  A    between atoms: C_6  and  N_11
    5  A    between atoms: C_6  and  C_26
    6  A    between atoms: N_8  and  N_18
    7  A    between atoms: N_8  and  N_22
    8  A    between atoms: C_13  and  C_25
    9  A    between atoms: C_13  and  C_33
   10  A    between atoms: C_25  and  C_26
   11  A    between atoms: C_33  and  C_34
   12  A    between atoms: O_37  and  C_40
                            x       y       z     vdW  Elec       q    Type
                         _______ _______ _______ _____ _____    ______ ____

>  <TORSDO>
F 12

$$$$
=
 OpenBabel11042419443D

 40 42  0  0  1  0  0  0  0  0999 V2000
  192.2140  174.4730  144.5200 C   0  0  0  0  0  2  0  0  0  0  0  0
  194.5380  173.2620  145.5090 N   0  0  0  0  0  2  0  0  0  0  0  0
  194.4480  175.6290  144.7060 N   0  0  0  0  0  0  0  0  0  0  0  0
  197.5890  173.7980  145.4400 C   0  0  0  0  0  3  0  0  0  0  0  0
  196.4500  171.6100  145.6760 C   0  0  2  0  0  3  0  0  0  0  0  0
  194.0960  170.9600  144.9170 C   0  0  0  0  0  0  0  0  0  0  0  0
  196.6570  170.1570  146.0080 C   0  0  0  0  0  2  0  0  0  0  0  0
  194.2100  169.7620  145.7590 C   0  0  0  0  0  3  0  0  0  0  0  0
  192.5490  173.9000  143.1510 C   0  0  0  0  0  2  0  0  0  0  0  0
  191.7180  172.7270  142.8890 N   0  0  0  0  0  0  0  0  0  0  0  0
  195.1410  172.0290  144.9770 C   0  0  1  0  0  3  0  0  0  0  0  0
  196.4660  174.4220  145.3070 C   0  0  0  0  0  3  0  0  0  0  0  0
  197.5110  172.3900  145.7510 N   0  0  0  0  0  0  0  0  0  0  0  0
  195.1780  174.5140  145.2810 C   0  0  0  0  0  0  0  0  0  0  0  0
  193.0050  171.1880  144.2310 C   0  0  0  0  0  0  0  0  0  0  0  0
  195.3770  169.4220  146.3070 C   0  0  0  0  0  3  0  0  0  0  0  0
  195.0820  176.7390  144.0560 C   0  0  0  0  0  3  0  0  0  0  0  0
  192.9930  175.7510  144.8680 C   0  0  2  0  0  3  0  0  0  0  0  0
  191.9330  171.4550  143.5300 C   0  0  0  0  0  3  0  0  0  0  0  0
  196.3280  176.7850  143.8660 O   0  0  0  0  0  0  0  0  0  0  0  0
  190.6360  172.8650  141.9180 C   0  0  2  0  0  3  0  0  0  0  0  0
  190.1930  170.9360  140.5840 O   0  0  0  0  0  1  0  0  0  0  0  0
  190.9690  172.0980  140.6470 C   0  0  0  0  0  2  0  0  0  0  0  0
  190.4250  174.2130  141.6180 O   0  0  0  0  0  0  0  0  0  0  0  0
  188.1340  173.8520  142.1790 C   0  0  0  0  0  1  0  0  0  0  0  0
  189.1270  174.2670  141.1020 C   0  0  0  0  0  2  0  0  0  0  0  0
  192.6680  176.1900  146.2880 C   0  0  0  0  0  2  0  0  0  0  0  0
  191.8960  175.1170  147.0380 C   0  0  0  0  0  2  0  0  0  0  0  0
  190.6560  175.7180  147.6600 C   0  0  0  0  0  2  0  0  0  0  0  0
  189.4190  175.0680  147.0700 C   0  0  0  0  0  2  0  0  0  0  0  0
  188.5240  176.1180  146.4940 C   0  0  0  0  0  0  0  0  0  0  0  0
  187.3010  176.1830  146.9100 N   0  0  0  0  0  0  0  0  0  0  0  0
  189.0060  177.0570  145.5260 N   0  0  0  0  0  0  0  0  0  0  0  0
  189.3050  176.7120  144.3180 C   0  0  0  0  0  3  0  0  0  0  0  0
  189.7990  177.7300  143.3590 C   0  0  0  0  0  1  0  0  0  0  0  0
  186.4130  177.1660  146.4470 N   0  0  0  0  0  2  0  0  0  0  0  0
  185.5560  177.7940  144.1750 C   0  0  0  0  0  0  0  0  0  0  0  0
  184.7370  177.5430  143.2550 O   0  0  0  0  0  0  0  0  0  0  0  0
  185.5770  176.9580  145.3380 N   0  0  0  0  0  2  0  0  0  0  0  0
  186.4040  178.8900  144.0540 O   0  0  0  0  0  1  0  0  0  0  0  0
  1 18  1  0  0  0  0
  3 18  1  0  0  0  0
  3 14  1  0  0  0  0
  4 13  2  0  0  0  0
  5 13  1  0  0  0  0
  5  7  1  6  0  0  0
  6  8  1  0  0  0  0
  7 16  1  0  0  0  0
  8 16  2  0  0  0  0
  9  1  1  0  0  0  0
 10  9  1  0  0  0  0
 10 19  1  0  0  0  0
 11  6  1  1  0  0  0
 11  2  1  0  0  0  0
 11  5  1  0  0  0  0
 12  4  1  0  0  0  0
 14 12  2  0  0  0  0
 14  2  1  0  0  0  0
 15  6  2  0  0  0  0
 17  3  1  0  0  0  0
 18 27  1  1  0  0  0
 19 15  2  0  0  0  0
 20 17  2  0  0  0  0
 21 23  1  6  0  0  0
 21 10  1  0  0  0  0
 22 23  1  0  0  0  0
 24 21  1  0  0  0  0
 26 24  1  0  0  0  0
 26 25  1  0  0  0  0
 27 28  1  0  0  0  0
 28 29  1  0  0  0  0
 30 29  1  0  0  0  0
 31 32  2  0  0  0  0
 31 30  1  0  0  0  0
 33 31  1  0  0  0  0
 34 33  2  0  0  0  0
 35 34  1  0  0  0  0
 36 32  1  0  0  0  0
 37 39  1  0  0  0  0
 38 37  2  0  0  0  0
 39 36  1  0  0  0  0
 40 37  1  0  0  0  0
M  END
>  <MODEL>
8

>  <REMARK>
 VINA RESULT:      -6.6      2.602      9.155
  Name = 
  12 active torsions:
  status: ('A' for Active; 'I' for Inactive)
    1  A    between atoms: C_4  and  N_20
    2  A    between atoms: C_4  and  C_36
    3  A    between atoms: C_4  and  O_37
    4  A    between atoms: C_6  and  N_11
    5  A    between atoms: C_6  and  C_26
    6  A    between atoms: N_8  and  N_18
    7  A    between atoms: N_8  and  N_22
    8  A    between atoms: C_13  and  C_25
    9  A    between atoms: C_13  and  C_33
   10  A    between atoms: C_25  and  C_26
   11  A    between atoms: C_33  and  C_34
   12  A    between atoms: O_37  and  C_40
                            x       y       z     vdW  Elec       q    Type
                         _______ _______ _______ _____ _____    ______ ____

>  <TORSDO>
F 12

$$$$
=
 OpenBabel11042419443D

 40 42  0  0  1  0  0  0  0  0999 V2000
  188.9950  175.5550  143.3730 C   0  0  0  0  0  2  0  0  0  0  0  0
  186.5220  176.6580  144.0890 N   0  0  0  0  0  2  0  0  0  0  0  0
  187.2600  176.3400  141.7200 N   0  0  0  0  0  0  0  0  0  0  0  0
  184.2980  178.3340  142.7290 C   0  0  0  0  0  3  0  0  0  0  0  0
  184.8690  178.2640  145.1390 C   0  0  0  0  0  0  0  0  0  0  0  0
  187.1010  177.6410  146.2210 C   0  0  0  0  0  0  0  0  0  0  0  0
  184.4080  178.6660  146.5130 C   0  0  0  0  0  2  0  0  0  0  0  0
  186.3910  177.5280  147.5010 C   0  0  0  0  0  3  0  0  0  0  0  0
  189.6020  176.9450  143.4970 C   0  0  0  0  0  2  0  0  0  0  0  0
  190.3290  177.0560  144.7610 N   0  0  0  0  0  0  0  0  0  0  0  0
  186.3400  177.8390  144.9480 C   0  0  1  0  0  3  0  0  0  0  0  0
  185.2700  177.5390  142.4270 C   0  0  0  0  0  3  0  0  0  0  0  0
  184.0680  178.5640  144.1350 N   0  0  0  0  0  0  0  0  0  0  0  0
  186.2650  176.7580  142.6910 C   0  0  2  0  0  3  0  0  0  0  0  0
  188.3860  177.4040  146.1500 C   0  0  0  0  0  0  0  0  0  0  0  0
  185.1330  177.9500  147.6230 C   0  0  0  0  0  3  0  0  0  0  0  0
  187.2740  176.7910  140.3580 C   0  0  0  0  0  3  0  0  0  0  0  0
  188.2580  175.3140  142.0470 C   0  0  2  0  0  3  0  0  0  0  0  0
  189.6700  177.1750  146.0360 C   0  0  0  0  0  3  0  0  0  0  0  0
  186.4610  177.6530  139.9270 O   0  0  0  0  0  0  0  0  0  0  0  0
  191.7880  177.0630  144.7060 C   0  0  2  0  0  3  0  0  0  0  0  0
  192.9900  176.0200  142.9270 O   0  0  0  0  0  1  0  0  0  0  0  0
  192.2610  177.1650  143.2640 C   0  0  0  0  0  2  0  0  0  0  0  0
  192.2990  175.9030  145.2930 O   0  0  0  0  0  0  0  0  0  0  0  0
  194.5300  175.8860  146.1390 C   0  0  0  0  0  1  0  0  0  0  0  0
  193.0970  176.3550  146.3480 C   0  0  0  0  0  2  0  0  0  0  0  0
  187.6010  173.9410  142.0570 C   0  0  0  0  0  2  0  0  0  0  0  0
  188.1810  173.0410  140.9780 C   0  0  0  0  0  2  0  0  0  0  0  0
  189.4040  172.3260  141.5100 C   0  0  0  0  0  2  0  0  0  0  0  0
  190.5640  172.5120  140.5530 C   0  0  0  0  0  2  0  0  0  0  0  0
  190.2930  171.7740  139.2820 C   0  0  0  0  0  0  0  0  0  0  0  0
  190.3380  170.4810  139.2970 N   0  0  0  0  0  0  0  0  0  0  0  0
  189.9580  172.4680  138.0750 N   0  0  0  0  0  0  0  0  0  0  0  0
  190.5850  173.5310  137.6930 C   0  0  0  0  0  3  0  0  0  0  0  0
  190.1950  174.2080  136.4330 C   0  0  0  0  0  1  0  0  0  0  0  0
  190.0550  169.7180  138.1540 N   0  0  0  0  0  2  0  0  0  0  0  0
  191.2590  169.6310  135.9560 C   0  0  0  0  0  0  0  0  0  0  0  0
  192.1700  169.0930  135.2780 O   0  0  0  0  0  0  0  0  0  0  0  0
  191.0660  169.2220  137.3150 N   0  0  0  0  0  2  0  0  0  0  0  0
  190.4450  170.5920  135.3650 O   0  0  0  0  0  1  0  0  0  0  0  0
  1  9  1  0  0  0  0
  3 18  1  0  0  0  0
  3 14  1  0  0  0  0
  4 13  1  0  0  0  0
  5  7  1  0  0  0  0
  6  8  1  0  0  0  0
  7 16  1  0  0  0  0
  8 16  2  0  0  0  0
  9 10  1  0  0  0  0
 10 19  1  0  0  0  0
 11  2  1  1  0  0  0
 11  5  1  0  0  0  0
 11  6  1  0  0  0  0
 12  4  2  0  0  0  0
 13  5  2  0  0  0  0
 14 12  1  6  0  0  0
 14  2  1  0  0  0  0
 15  6  2  0  0  0  0
 17  3  1  0  0  0  0
 18 27  1  1  0  0  0
 18  1  1  0  0  0  0
 19 15  2  0  0  0  0
 20 17  2  0  0  0  0
 21 23  1  6  0  0  0
 21 10  1  0  0  0  0
 21 24  1  0  0  0  0
 22 23  1  0  0  0  0
 24 26  1  0  0  0  0
 25 26  1  0  0  0  0
 28 29  1  0  0  0  0
 28 27  1  0  0  0  0
 30 29  1  0  0  0  0
 31 32  2  0  0  0  0
 31 30  1  0  0  0  0
 33 31  1  0  0  0  0
 34 33  2  0  0  0  0
 35 34  1  0  0  0  0
 36 32  1  0  0  0  0
 37 39  1  0  0  0  0
 38 37  2  0  0  0  0
 39 36  1  0  0  0  0
 40 37  1  0  0  0  0
M  END
>  <MODEL>
9

>  <REMARK>
 VINA RESULT:      -6.5      2.856      3.671
  Name = 
  12 active torsions:
  status: ('A' for Active; 'I' for Inactive)
    1  A    between atoms: C_4  and  N_20
    2  A    between atoms: C_4  and  C_36
    3  A    between atoms: C_4  and  O_37
    4  A    between atoms: C_6  and  N_11
    5  A    between atoms: C_6  and  C_26
    6  A    between atoms: N_8  and  N_18
    7  A    between atoms: N_8  and  N_22
    8  A    between atoms: C_13  and  C_25
    9  A    between atoms: C_13  and  C_33
   10  A    between atoms: C_25  and  C_26
   11  A    between atoms: C_33  and  C_34
   12  A    between atoms: O_37  and  C_40
                            x       y       z     vdW  Elec       q    Type
                         _______ _______ _______ _____ _____    ______ ____

>  <TORSDO>
F 12

$$$$
