=
 OpenBabel11042413463D

 30 34  0  0  1  0  0  0  0  0999 V2000
  191.3880  173.5510  143.1370 C   0  0  0  0  0  0  0  0  0  0  0  0
  189.5140  173.0530  141.7340 C   0  0  0  0  0  0  0  0  0  0  0  0
  193.0930  175.1970  143.7790 C   0  0  0  0  0  3  0  0  0  0  0  0
  190.1600  172.0470  141.0930 N   0  0  0  0  0  0  0  0  0  0  0  0
  188.0640  174.4590  142.6290 N   0  0  0  0  0  0  0  0  0  0  0  0
  191.4600  171.7780  141.4540 C   0  0  0  0  0  3  0  0  0  0  0  0
  189.2430  174.6170  143.2250 N   0  0  0  0  0  0  0  0  0  0  0  0
  188.1970  173.4870  141.6760 C   0  0  0  0  0  3  0  0  0  0  0  0
  191.9290  174.3940  144.2660 C   0  0  0  0  0  0  0  0  0  0  0  0
  190.8740  175.2940  144.9260 C   0  0  0  0  0  0  0  0  0  0  0  0
  191.1860  175.9530  146.0490 C   0  0  0  0  0  3  0  0  0  0  0  0
  189.5290  175.3930  144.3640 N   0  0  0  0  0  0  0  0  0  0  0  0
  193.6940  175.9790  146.0420 C   0  0  0  0  0  3  0  0  0  0  0  0
  192.5180  176.0050  146.6800 C   0  0  0  0  0  3  0  0  0  0  0  0
  190.1080  173.7730  142.7000 C   0  0  0  0  0  0  0  0  0  0  0  0
  193.9030  175.8940  144.5780 C   0  0  1  0  0  3  0  0  0  0  0  0
  192.0970  172.5200  142.4880 C   0  0  0  0  0  3  0  0  0  0  0  0
  186.4990  177.9260  145.9500 C   0  0  0  0  0  0  0  0  0  0  0  0
  186.9140  176.7910  146.6600 C   0  0  0  0  0  3  0  0  0  0  0  0
  187.0940  178.2160  144.7140 C   0  0  0  0  0  3  0  0  0  0  0  0
  188.5140  176.2560  144.9130 C   0  0  0  0  0  0  0  0  0  0  0  0
  188.0920  177.3850  144.1990 C   0  0  0  0  0  3  0  0  0  0  0  0
  187.9110  175.9610  146.1450 C   0  0  0  0  0  3  0  0  0  0  0  0
  184.2030  178.9470  145.8120 N   0  0  0  0  0  1  0  0  0  0  0  0
  185.6360  179.4350  147.5670 O   0  0  0  0  0  0  0  0  0  0  0  0
  185.4460  178.8030  146.4930 C   0  0  0  0  0  0  0  0  0  0  0  0
  196.3320  175.9270  143.7520 C   0  0  0  0  0  0  0  0  0  0  0  0
  196.5900  174.7540  144.1310 O   0  0  0  0  0  0  0  0  0  0  0  0
  195.0440  176.5150  143.9690 N   0  0  0  0  0  2  0  0  0  0  0  0
  197.3890  176.7190  143.0710 C   0  0  0  0  0  1  0  0  0  0  0  0
  1  9  1  0  0  0  0
  2 15  1  0  0  0  0
  3  9  2  0  0  0  0
  3 16  1  0  0  0  0
  4  6  1  0  0  0  0
  4  2  2  0  0  0  0
  5  7  1  0  0  0  0
  6 17  2  0  0  0  0
  7 12  1  0  0  0  0
  8  2  1  0  0  0  0
  8  5  2  0  0  0  0
  9 10  1  0  0  0  0
 10 11  2  0  0  0  0
 11 14  1  0  0  0  0
 12 21  1  0  0  0  0
 12 10  1  0  0  0  0
 13 14  2  0  0  0  0
 15  1  2  0  0  0  0
 15  7  1  0  0  0  0
 16 29  1  1  0  0  0
 16 13  1  0  0  0  0
 17  1  1  0  0  0  0
 18 26  1  0  0  0  0
 18 19  1  0  0  0  0
 20 18  2  0  0  0  0
 21 23  1  0  0  0  0
 22 20  1  0  0  0  0
 22 21  2  0  0  0  0
 23 19  2  0  0  0  0
 24 26  1  0  0  0  0
 26 25  2  0  0  0  0
 27 29  1  0  0  0  0
 27 28  2  0  0  0  0
 30 27  1  0  0  0  0
M  END
>  <MODEL>
1

>  <REMARK>
 VINA RESULT:      -7.9      0.000      0.000
  Name = 
  3 active torsions:
  status: ('A' for Active; 'I' for Inactive)
    1  A    between atoms: C_5  and  C_22
    2  A    between atoms: N_16  and  C_27
    3  A    between atoms: N_20  and  C_21
                            x       y       z     vdW  Elec       q    Type
                         _______ _______ _______ _____ _____    ______ ____

>  <TORSDO>
F 3

$$$$
=
 OpenBabel11042413463D

 30 34  0  0  1  0  0  0  0  0999 V2000
  192.0700  172.8600  144.3480 C   0  0  0  0  0  0  0  0  0  0  0  0
  190.4060  171.9110  142.9130 C   0  0  0  0  0  0  0  0  0  0  0  0
  193.7490  174.6250  144.6610 C   0  0  0  0  0  3  0  0  0  0  0  0
  191.0840  170.7450  142.7660 N   0  0  0  0  0  0  0  0  0  0  0  0
  188.9190  173.5410  143.0300 N   0  0  0  0  0  0  0  0  0  0  0  0
  192.2960  170.6170  143.4020 C   0  0  0  0  0  3  0  0  0  0  0  0
  190.0000  173.8930  143.7190 N   0  0  0  0  0  0  0  0  0  0  0  0
  189.1400  172.3000  142.4980 C   0  0  0  0  0  3  0  0  0  0  0  0
  192.4800  174.0400  145.1960 C   0  0  0  0  0  0  0  0  0  0  0  0
  191.3900  175.1120  145.3300 C   0  0  0  0  0  0  0  0  0  0  0  0
  191.5640  176.1180  146.1980 C   0  0  0  0  0  3  0  0  0  0  0  0
  190.1540  175.0130  144.5580 N   0  0  0  0  0  0  0  0  0  0  0  0
  194.0420  176.1370  146.5900 C   0  0  0  0  0  3  0  0  0  0  0  0
  192.7850  176.3820  146.9810 C   0  0  0  0  0  3  0  0  0  0  0  0
  190.8860  172.9190  143.6590 C   0  0  0  0  0  0  0  0  0  0  0  0
  194.4660  175.5540  145.2960 C   0  0  1  0  0  3  0  0  0  0  0  0
  192.8100  171.6680  144.2120 C   0  0  0  0  0  3  0  0  0  0  0  0
  187.0710  177.9460  144.6690 C   0  0  0  0  0  0  0  0  0  0  0  0
  187.1610  176.9780  145.6780 C   0  0  0  0  0  3  0  0  0  0  0  0
  188.0070  177.9360  143.6260 C   0  0  0  0  0  3  0  0  0  0  0  0
  189.1180  176.0140  144.6090 C   0  0  0  0  0  0  0  0  0  0  0  0
  189.0210  176.9760  143.5950 C   0  0  0  0  0  3  0  0  0  0  0  0
  188.1750  176.0170  145.6470 C   0  0  0  0  0  3  0  0  0  0  0  0
  185.1780  179.1030  145.8550 N   0  0  0  0  0  1  0  0  0  0  0  0
  185.8050  179.7100  143.7080 O   0  0  0  0  0  0  0  0  0  0  0  0
  186.0020  178.9600  144.7010 C   0  0  0  0  0  0  0  0  0  0  0  0
  195.9470  176.3290  143.3500 C   0  0  0  0  0  0  0  0  0  0  0  0
  195.0110  176.3600  142.5080 O   0  0  0  0  0  0  0  0  0  0  0  0
  195.7190  175.9260  144.7060 N   0  0  0  0  0  2  0  0  0  0  0  0
  197.3190  176.7120  142.9260 C   0  0  0  0  0  1  0  0  0  0  0  0
  1  9  1  0  0  0  0
  2 15  1  0  0  0  0
  3  9  2  0  0  0  0
  3 16  1  0  0  0  0
  4  2  2  0  0  0  0
  4  6  1  0  0  0  0
  5  7  1  0  0  0  0
  6 17  2  0  0  0  0
  7 12  1  0  0  0  0
  8  2  1  0  0  0  0
  8  5  2  0  0  0  0
  9 10  1  0  0  0  0
 10 11  2  0  0  0  0
 11 14  1  0  0  0  0
 12 21  1  0  0  0  0
 12 10  1  0  0  0  0
 13 14  2  0  0  0  0
 15  7  1  0  0  0  0
 15  1  2  0  0  0  0
 16 29  1  1  0  0  0
 16 13  1  0  0  0  0
 17  1  1  0  0  0  0
 18 26  1  0  0  0  0
 18 19  1  0  0  0  0
 20 18  2  0  0  0  0
 21 23  1  0  0  0  0
 22 20  1  0  0  0  0
 22 21  2  0  0  0  0
 23 19  2  0  0  0  0
 25 26  2  0  0  0  0
 26 24  1  0  0  0  0
 27 29  1  0  0  0  0
 28 27  2  0  0  0  0
 30 27  1  0  0  0  0
M  END
>  <MODEL>
2

>  <REMARK>
 VINA RESULT:      -7.7      1.433      1.547
  Name = 
  3 active torsions:
  status: ('A' for Active; 'I' for Inactive)
    1  A    between atoms: C_5  and  C_22
    2  A    between atoms: N_16  and  C_27
    3  A    between atoms: N_20  and  C_21
                            x       y       z     vdW  Elec       q    Type
                         _______ _______ _______ _____ _____    ______ ____

>  <TORSDO>
F 3

$$$$
=
 OpenBabel11042413463D

 30 34  0  0  1  0  0  0  0  0999 V2000
  192.2540  174.7340  144.3580 C   0  0  0  0  0  0  0  0  0  0  0  0
  192.8770  175.7970  146.4110 C   0  0  0  0  0  0  0  0  0  0  0  0
  190.9480  172.9560  143.2800 C   0  0  0  0  0  3  0  0  0  0  0  0
  194.1840  175.4580  146.2810 N   0  0  0  0  0  0  0  0  0  0  0  0
  190.9210  176.6970  146.9080 N   0  0  0  0  0  0  0  0  0  0  0  0
  194.5570  174.7240  145.1800 C   0  0  0  0  0  3  0  0  0  0  0  0
  190.7930  175.9710  145.8010 N   0  0  0  0  0  0  0  0  0  0  0  0
  192.2200  176.6050  147.3280 C   0  0  0  0  0  3  0  0  0  0  0  0
  191.1450  174.4350  143.3790 C   0  0  1  0  0  3  0  0  0  0  0  0
  189.8250  175.1490  143.7040 C   0  0  0  0  0  0  0  0  0  0  0  0
  188.8230  175.1090  142.8160 C   0  0  0  0  0  3  0  0  0  0  0  0
  189.6780  175.9040  144.9450 N   0  0  0  0  0  0  0  0  0  0  0  0
  189.3930  173.1390  141.3710 C   0  0  0  0  0  3  0  0  0  0  0  0
  188.8060  174.3250  141.5660 C   0  0  0  0  0  3  0  0  0  0  0  0
  191.9600  175.4400  145.4960 C   0  0  0  0  0  0  0  0  0  0  0  0
  190.1770  172.3670  142.3630 C   0  0  0  0  0  0  0  0  0  0  0  0
  193.6010  174.3530  144.1930 C   0  0  0  0  0  3  0  0  0  0  0  0
  186.0240  177.8050  146.0210 C   0  0  0  0  0  0  0  0  0  0  0  0
  186.4950  176.7100  146.7600 C   0  0  0  0  0  3  0  0  0  0  0  0
  186.7710  178.2650  144.9280 C   0  0  0  0  0  3  0  0  0  0  0  0
  188.4480  176.5540  145.3240 C   0  0  0  0  0  0  0  0  0  0  0  0
  187.9720  177.6420  144.5800 C   0  0  0  0  0  3  0  0  0  0  0  0
  187.6960  176.0880  146.4120 C   0  0  0  0  0  3  0  0  0  0  0  0
  183.8990  178.9890  145.3790 N   0  0  0  0  0  1  0  0  0  0  0  0
  184.4200  178.5650  147.5980 O   0  0  0  0  0  0  0  0  0  0  0  0
  184.7570  178.4620  146.3880 C   0  0  0  0  0  0  0  0  0  0  0  0
  190.9710  170.0980  141.4670 C   0  0  0  0  0  0  0  0  0  0  0  0
  191.7390  170.5890  140.5980 O   0  0  0  0  0  0  0  0  0  0  0  0
  190.1870  170.9330  142.3270 N   0  0  0  0  0  2  0  0  0  0  0  0
  190.8700  168.6210  141.5980 C   0  0  0  0  0  1  0  0  0  0  0  0
  1 15  1  0  0  0  0
  2  8  1  0  0  0  0
  4  2  1  0  0  0  0
  5  8  2  0  0  0  0
  6  4  2  0  0  0  0
  7  5  1  0  0  0  0
  9  3  1  1  0  0  0
  9 10  1  0  0  0  0
  9  1  1  0  0  0  0
 10 12  1  0  0  0  0
 11 10  2  0  0  0  0
 12 21  1  0  0  0  0
 12  7  1  0  0  0  0
 13 14  2  0  0  0  0
 13 16  1  0  0  0  0
 14 11  1  0  0  0  0
 15  7  1  0  0  0  0
 15  2  2  0  0  0  0
 16  3  2  0  0  0  0
 17  1  2  0  0  0  0
 17  6  1  0  0  0  0
 18 26  1  0  0  0  0
 18 19  1  0  0  0  0
 20 18  2  0  0  0  0
 21 23  1  0  0  0  0
 22 20  1  0  0  0  0
 22 21  2  0  0  0  0
 23 19  2  0  0  0  0
 24 26  1  0  0  0  0
 26 25  2  0  0  0  0
 27 30  1  0  0  0  0
 27 29  1  0  0  0  0
 28 27  2  0  0  0  0
 29 16  1  0  0  0  0
M  END
>  <MODEL>
3

>  <REMARK>
 VINA RESULT:      -7.6      2.017      4.834
  Name = 
  3 active torsions:
  status: ('A' for Active; 'I' for Inactive)
    1  A    between atoms: C_5  and  C_22
    2  A    between atoms: N_16  and  C_27
    3  A    between atoms: N_20  and  C_21
                            x       y       z     vdW  Elec       q    Type
                         _______ _______ _______ _____ _____    ______ ____

>  <TORSDO>
F 3

$$$$
=
 OpenBabel11042413463D

 30 34  0  0  1  0  0  0  0  0999 V2000
  189.4560  174.5440  141.3910 C   0  0  0  0  0  0  0  0  0  0  0  0
  189.9280  172.3520  140.5510 C   0  0  0  0  0  0  0  0  0  0  0  0
  188.6890  175.8940  143.2940 C   0  0  0  0  0  3  0  0  0  0  0  0
  188.9570  172.4180  139.6070 N   0  0  0  0  0  0  0  0  0  0  0  0
  191.6990  171.9110  141.7960 N   0  0  0  0  0  0  0  0  0  0  0  0
  188.1910  173.5590  139.5440 C   0  0  0  0  0  3  0  0  0  0  0  0
  191.2050  173.0940  142.1520 N   0  0  0  0  0  0  0  0  0  0  0  0
  190.9160  171.4080  140.7950 C   0  0  0  0  0  3  0  0  0  0  0  0
  189.8350  175.6290  142.3690 C   0  0  0  0  0  0  0  0  0  0  0  0
  191.1210  175.3310  143.1530 C   0  0  0  0  0  0  0  0  0  0  0  0
  191.6590  176.2900  143.9180 C   0  0  0  0  0  3  0  0  0  0  0  0
  191.7790  174.0330  143.0300 N   0  0  0  0  0  0  0  0  0  0  0  0
  189.7570  177.8840  144.2900 C   0  0  0  0  0  3  0  0  0  0  0  0
  191.0640  177.6110  144.1930 C   0  0  0  0  0  3  0  0  0  0  0  0
  190.1540  173.3640  141.4060 C   0  0  0  0  0  0  0  0  0  0  0  0
  188.6410  176.9200  144.1450 C   0  0  1  0  0  3  0  0  0  0  0  0
  188.4290  174.6470  140.4290 C   0  0  0  0  0  3  0  0  0  0  0  0
  195.2600  172.9470  145.2260 C   0  0  0  0  0  0  0  0  0  0  0  0
  195.3800  173.5900  143.9870 C   0  0  0  0  0  3  0  0  0  0  0  0
  193.9830  172.6670  145.7320 C   0  0  0  0  0  3  0  0  0  0  0  0
  192.9610  173.6810  143.7770 C   0  0  0  0  0  0  0  0  0  0  0  0
  192.8430  173.0290  145.0120 C   0  0  0  0  0  3  0  0  0  0  0  0
  194.2390  173.9520  143.2660 C   0  0  0  0  0  3  0  0  0  0  0  0
  196.8170  171.1920  146.1380 N   0  0  0  0  0  1  0  0  0  0  0  0
  197.1910  173.4490  146.5130 O   0  0  0  0  0  0  0  0  0  0  0  0
  196.4630  172.5640  145.9870 C   0  0  0  0  0  0  0  0  0  0  0  0
  187.1510  176.6740  146.2180 C   0  0  0  0  0  0  0  0  0  0  0  0
  188.0040  176.0350  146.8880 O   0  0  0  0  0  0  0  0  0  0  0  0
  187.4220  177.1030  144.8780 N   0  0  0  0  0  2  0  0  0  0  0  0
  185.8310  176.9830  146.8270 C   0  0  0  0  0  1  0  0  0  0  0  0
  1 15  2  0  0  0  0
  1  9  1  0  0  0  0
  2  8  1  0  0  0  0
  2 15  1  0  0  0  0
  3 16  1  0  0  0  0
  4  2  2  0  0  0  0
  5  7  1  0  0  0  0
  6  4  1  0  0  0  0
  6 17  2  0  0  0  0
  7 12  1  0  0  0  0
  8  5  2  0  0  0  0
  9 10  1  0  0  0  0
  9  3  2  0  0  0  0
 10 11  2  0  0  0  0
 11 14  1  0  0  0  0
 12 10  1  0  0  0  0
 12 21  1  0  0  0  0
 14 13  2  0  0  0  0
 15  7  1  0  0  0  0
 16 13  1  0  0  0  0
 16 29  1  6  0  0  0
 17  1  1  0  0  0  0
 18 20  1  0  0  0  0
 18 26  1  0  0  0  0
 19 18  2  0  0  0  0
 21 22  1  0  0  0  0
 22 20  2  0  0  0  0
 23 21  2  0  0  0  0
 23 19  1  0  0  0  0
 26 24  1  0  0  0  0
 26 25  2  0  0  0  0
 27 30  1  0  0  0  0
 27 28  2  0  0  0  0
 29 27  1  0  0  0  0
M  END
>  <MODEL>
4

>  <REMARK>
 VINA RESULT:      -7.2      2.404      7.136
  Name = 
  3 active torsions:
  status: ('A' for Active; 'I' for Inactive)
    1  A    between atoms: C_5  and  C_22
    2  A    between atoms: N_16  and  C_27
    3  A    between atoms: N_20  and  C_21
                            x       y       z     vdW  Elec       q    Type
                         _______ _______ _______ _____ _____    ______ ____

>  <TORSDO>
F 3

$$$$
=
 OpenBabel11042413463D

 30 34  0  0  1  0  0  0  0  0999 V2000
  190.6840  172.8350  140.9280 C   0  0  0  0  0  0  0  0  0  0  0  0
  189.4710  173.2210  138.9010 C   0  0  0  0  0  0  0  0  0  0  0  0
  192.3070  173.7110  142.5500 C   0  0  0  0  0  3  0  0  0  0  0  0
  190.0800  172.1990  138.2490 N   0  0  0  0  0  0  0  0  0  0  0  0
  188.1350  174.8220  139.6310 N   0  0  0  0  0  0  0  0  0  0  0  0
  191.0310  171.4730  138.9270 C   0  0  0  0  0  3  0  0  0  0  0  0
  188.9790  174.4870  140.6030 N   0  0  0  0  0  0  0  0  0  0  0  0
  188.4200  174.0520  138.5380 C   0  0  0  0  0  3  0  0  0  0  0  0
  190.8990  173.2410  142.3660 C   0  0  0  0  0  0  0  0  0  0  0  0
  189.8960  174.2890  142.8690 C   0  0  0  0  0  0  0  0  0  0  0  0
  189.8680  174.5970  144.1720 C   0  0  0  0  0  3  0  0  0  0  0  0
  188.9490  174.9090  141.9460 N   0  0  0  0  0  0  0  0  0  0  0  0
  192.1060  173.8310  145.0080 C   0  0  0  0  0  3  0  0  0  0  0  0
  190.8110  174.1080  145.1960 C   0  0  0  0  0  3  0  0  0  0  0  0
  189.7710  173.5260  140.1750 C   0  0  0  0  0  0  0  0  0  0  0  0
  192.8610  173.9570  143.7390 C   0  0  1  0  0  3  0  0  0  0  0  0
  191.3470  171.7710  140.2820 C   0  0  0  0  0  3  0  0  0  0  0  0
  186.1910  177.9410  143.0960 C   0  0  0  0  0  0  0  0  0  0  0  0
  185.8450  176.5880  143.2200 C   0  0  0  0  0  3  0  0  0  0  0  0
  187.4530  178.2810  142.5910 C   0  0  0  0  0  3  0  0  0  0  0  0
  188.0170  175.9310  142.3520 C   0  0  0  0  0  0  0  0  0  0  0  0
  188.3580  177.2840  142.2190 C   0  0  0  0  0  3  0  0  0  0  0  0
  186.7500  175.5910  142.8490 C   0  0  0  0  0  3  0  0  0  0  0  0
  183.8330  178.7610  143.4100 N   0  0  0  0  0  1  0  0  0  0  0  0
  185.6540  180.1100  143.8980 O   0  0  0  0  0  0  0  0  0  0  0  0
  185.2370  178.9930  143.4890 C   0  0  0  0  0  0  0  0  0  0  0  0
  194.8370  175.5640  144.0460 C   0  0  0  0  0  0  0  0  0  0  0  0
  194.1200  176.5670  144.3020 O   0  0  0  0  0  0  0  0  0  0  0  0
  194.2570  174.2870  143.7520 N   0  0  0  0  0  2  0  0  0  0  0  0
  196.3160  175.7090  144.0430 C   0  0  0  0  0  1  0  0  0  0  0  0
  1  9  1  0  0  0  0
  2 15  1  0  0  0  0
  3 16  1  0  0  0  0
  4  2  2  0  0  0  0
  4  6  1  0  0  0  0
  5  7  1  0  0  0  0
  6 17  2  0  0  0  0
  7 12  1  0  0  0  0
  8  2  1  0  0  0  0
  8  5  2  0  0  0  0
  9  3  2  0  0  0  0
  9 10  1  0  0  0  0
 10 11  2  0  0  0  0
 11 14  1  0  0  0  0
 12 21  1  0  0  0  0
 12 10  1  0  0  0  0
 13 14  2  0  0  0  0
 15  7  1  0  0  0  0
 15  1  2  0  0  0  0
 16 29  1  1  0  0  0
 16 13  1  0  0  0  0
 17  1  1  0  0  0  0
 18 19  1  0  0  0  0
 18 26  1  0  0  0  0
 20 18  2  0  0  0  0
 21 23  1  0  0  0  0
 22 21  2  0  0  0  0
 22 20  1  0  0  0  0
 23 19  2  0  0  0  0
 24 26  1  0  0  0  0
 26 25  2  0  0  0  0
 27 28  2  0  0  0  0
 29 27  1  0  0  0  0
 30 27  1  0  0  0  0
M  END
>  <MODEL>
5

>  <REMARK>
 VINA RESULT:      -7.1      2.171      2.701
  Name = 
  3 active torsions:
  status: ('A' for Active; 'I' for Inactive)
    1  A    between atoms: C_5  and  C_22
    2  A    between atoms: N_16  and  C_27
    3  A    between atoms: N_20  and  C_21
                            x       y       z     vdW  Elec       q    Type
                         _______ _______ _______ _____ _____    ______ ____

>  <TORSDO>
F 3

$$$$
=
 OpenBabel11042413463D

 30 34  0  0  1  0  0  0  0  0999 V2000
  191.4610  173.3550  141.6050 C   0  0  0  0  0  0  0  0  0  0  0  0
  189.9650  172.8270  139.8130 C   0  0  0  0  0  0  0  0  0  0  0  0
  193.0030  175.0020  142.5760 C   0  0  0  0  0  3  0  0  0  0  0  0
  190.7210  171.7860  139.3830 N   0  0  0  0  0  0  0  0  0  0  0  0
  188.3770  174.2890  140.2840 N   0  0  0  0  0  0  0  0  0  0  0  0
  191.8900  171.5140  140.0540 C   0  0  0  0  0  3  0  0  0  0  0  0
  189.3830  174.4540  141.1380 N   0  0  0  0  0  0  0  0  0  0  0  0
  188.7100  173.2770  139.4270 C   0  0  0  0  0  3  0  0  0  0  0  0
  191.7380  174.2370  142.7990 C   0  0  0  0  0  0  0  0  0  0  0  0
  190.5770  175.1770  143.1540 C   0  0  0  0  0  0  0  0  0  0  0  0
  190.6270  175.8780  144.2950 C   0  0  0  0  0  3  0  0  0  0  0  0
  189.4080  175.2730  142.2830 N   0  0  0  0  0  0  0  0  0  0  0  0
  193.0650  175.8670  144.8870 C   0  0  0  0  0  3  0  0  0  0  0  0
  191.7720  175.9370  145.2240 C   0  0  0  0  0  3  0  0  0  0  0  0
  190.3280  173.5780  140.8660 C   0  0  0  0  0  0  0  0  0  0  0  0
  193.6160  175.7200  143.5190 C   0  0  1  0  0  3  0  0  0  0  0  0
  192.2800  172.2890  141.1830 C   0  0  0  0  0  3  0  0  0  0  0  0
  186.1860  177.9330  143.0960 C   0  0  0  0  0  0  0  0  0  0  0  0
  187.2580  178.3470  142.2920 C   0  0  0  0  0  3  0  0  0  0  0  0
  186.1890  176.6350  143.6260 C   0  0  0  0  0  3  0  0  0  0  0  0
  188.3120  176.1720  142.5420 C   0  0  0  0  0  0  0  0  0  0  0  0
  187.2450  175.7630  143.3540 C   0  0  0  0  0  3  0  0  0  0  0  0
  188.3140  177.4740  142.0200 C   0  0  0  0  0  3  0  0  0  0  0  0
  185.3060  180.0790  144.0710 N   0  0  0  0  0  1  0  0  0  0  0  0
  183.8980  178.5630  143.0240 O   0  0  0  0  0  0  0  0  0  0  0  0
  185.0710  178.8530  143.3840 C   0  0  0  0  0  0  0  0  0  0  0  0
  196.1780  175.8200  143.5580 C   0  0  0  0  0  0  0  0  0  0  0  0
  196.3140  174.8060  144.2930 O   0  0  0  0  0  0  0  0  0  0  0  0
  194.8830  176.2990  143.1780 N   0  0  0  0  0  2  0  0  0  0  0  0
  197.3880  176.5390  143.0800 C   0  0  0  0  0  1  0  0  0  0  0  0
  1  9  1  0  0  0  0
  2 15  1  0  0  0  0
  3  9  2  0  0  0  0
  3 16  1  0  0  0  0
  4  2  2  0  0  0  0
  4  6  1  0  0  0  0
  5  7  1  0  0  0  0
  6 17  2  0  0  0  0
  7 12  1  0  0  0  0
  8  2  1  0  0  0  0
  8  5  2  0  0  0  0
  9 10  1  0  0  0  0
 10 11  2  0  0  0  0
 11 14  1  0  0  0  0
 12 21  1  0  0  0  0
 12 10  1  0  0  0  0
 13 14  2  0  0  0  0
 15  7  1  0  0  0  0
 15  1  2  0  0  0  0
 16 29  1  1  0  0  0
 16 13  1  0  0  0  0
 17  1  1  0  0  0  0
 18 26  1  0  0  0  0
 18 20  1  0  0  0  0
 19 18  2  0  0  0  0
 21 22  1  0  0  0  0
 22 20  2  0  0  0  0
 23 19  1  0  0  0  0
 23 21  2  0  0  0  0
 25 26  2  0  0  0  0
 26 24  1  0  0  0  0
 27 28  2  0  0  0  0
 29 27  1  0  0  0  0
 30 27  1  0  0  0  0
M  END
>  <MODEL>
6

>  <REMARK>
 VINA RESULT:      -7.1      1.932      2.288
  Name = 
  3 active torsions:
  status: ('A' for Active; 'I' for Inactive)
    1  A    between atoms: C_5  and  C_22
    2  A    between atoms: N_16  and  C_27
    3  A    between atoms: N_20  and  C_21
                            x       y       z     vdW  Elec       q    Type
                         _______ _______ _______ _____ _____    ______ ____

>  <TORSDO>
F 3

$$$$
=
 OpenBabel11042413463D

 30 34  0  0  1  0  0  0  0  0999 V2000
  187.3520  177.1150  146.0050 C   0  0  0  0  0  0  0  0  0  0  0  0
  188.2840  178.2910  147.8700 C   0  0  0  0  0  0  0  0  0  0  0  0
  187.1490  176.9700  143.5620 C   0  0  0  0  0  3  0  0  0  0  0  0
  187.0680  178.6630  148.3440 N   0  0  0  0  0  0  0  0  0  0  0  0
  190.4040  177.7550  147.5560 N   0  0  0  0  0  0  0  0  0  0  0  0
  185.9530  178.2790  147.6380 C   0  0  0  0  0  3  0  0  0  0  0  0
  189.6790  177.2520  146.5600 N   0  0  0  0  0  0  0  0  0  0  0  0
  189.5600  178.4250  148.3980 C   0  0  0  0  0  3  0  0  0  0  0  0
  187.6210  176.2600  144.7900 C   0  0  1  0  0  3  0  0  0  0  0  0
  189.0880  175.8300  144.6510 C   0  0  0  0  0  0  0  0  0  0  0  0
  189.4210  174.9260  143.7210 C   0  0  0  0  0  3  0  0  0  0  0  0
  190.1050  176.3630  145.5550 N   0  0  0  0  0  0  0  0  0  0  0  0
  187.5000  175.0050  142.1090 C   0  0  0  0  0  3  0  0  0  0  0  0
  188.5170  174.3660  142.6980 C   0  0  0  0  0  3  0  0  0  0  0  0
  188.4130  177.5620  146.7490 C   0  0  0  0  0  0  0  0  0  0  0  0
  187.0730  176.4020  142.3560 C   0  0  0  0  0  0  0  0  0  0  0  0
  186.0710  177.4920  146.4580 C   0  0  0  0  0  3  0  0  0  0  0  0
  194.2460  175.4260  145.2450 C   0  0  0  0  0  0  0  0  0  0  0  0
  193.4140  174.6780  146.0910 C   0  0  0  0  0  3  0  0  0  0  0  0
  193.6980  176.4820  144.5050 C   0  0  0  0  0  3  0  0  0  0  0  0
  191.5030  176.0310  145.4420 C   0  0  0  0  0  0  0  0  0  0  0  0
  192.3370  176.7840  144.6050 C   0  0  0  0  0  3  0  0  0  0  0  0
  192.0540  174.9800  146.1910 C   0  0  0  0  0  3  0  0  0  0  0  0
  196.2790  174.1660  146.0260 N   0  0  0  0  0  1  0  0  0  0  0  0
  196.3940  175.6660  144.2630 O   0  0  0  0  0  0  0  0  0  0  0  0
  195.6810  175.1070  145.1390 C   0  0  0  0  0  0  0  0  0  0  0  0
  185.2220  177.8520  141.3290 C   0  0  0  0  0  0  0  0  0  0  0  0
  184.4610  177.7780  142.3300 O   0  0  0  0  0  0  0  0  0  0  0  0
  186.4880  177.1820  141.3040 N   0  0  0  0  0  2  0  0  0  0  0  0
  184.7950  178.6450  140.1470 C   0  0  0  0  0  1  0  0  0  0  0  0
  1 17  2  0  0  0  0
  1 15  1  0  0  0  0
  2  4  1  0  0  0  0
  2  8  1  0  0  0  0
  5  8  2  0  0  0  0
  6  4  2  0  0  0  0
  7 15  1  0  0  0  0
  7  5  1  0  0  0  0
  9  3  1  6  0  0  0
  9  1  1  0  0  0  0
 10  9  1  0  0  0  0
 10 12  1  0  0  0  0
 11 10  2  0  0  0  0
 12  7  1  0  0  0  0
 13 16  1  0  0  0  0
 13 14  2  0  0  0  0
 14 11  1  0  0  0  0
 15  2  2  0  0  0  0
 16  3  2  0  0  0  0
 17  6  1  0  0  0  0
 18 19  1  0  0  0  0
 19 23  2  0  0  0  0
 20 22  1  0  0  0  0
 20 18  2  0  0  0  0
 21 12  1  0  0  0  0
 21 23  1  0  0  0  0
 22 21  2  0  0  0  0
 25 26  2  0  0  0  0
 26 18  1  0  0  0  0
 26 24  1  0  0  0  0
 27 28  2  0  0  0  0
 29 27  1  0  0  0  0
 29 16  1  0  0  0  0
 30 27  1  0  0  0  0
M  END
>  <MODEL>
7

>  <REMARK>
 VINA RESULT:      -7.0      2.585      8.082
  Name = 
  3 active torsions:
  status: ('A' for Active; 'I' for Inactive)
    1  A    between atoms: C_5  and  C_22
    2  A    between atoms: N_16  and  C_27
    3  A    between atoms: N_20  and  C_21
                            x       y       z     vdW  Elec       q    Type
                         _______ _______ _______ _____ _____    ______ ____

>  <TORSDO>
F 3

$$$$
=
 OpenBabel11042413463D

 30 34  0  0  1  0  0  0  0  0999 V2000
  188.0530  175.6200  142.8250 C   0  0  0  0  0  0  0  0  0  0  0  0
  188.3830  177.4570  144.3240 C   0  0  0  0  0  0  0  0  0  0  0  0
  188.5660  174.6410  140.6320 C   0  0  0  0  0  3  0  0  0  0  0  0
  187.0750  177.8160  144.2980 N   0  0  0  0  0  0  0  0  0  0  0  0
  190.5150  177.1090  144.7880 N   0  0  0  0  0  0  0  0  0  0  0  0
  186.2190  177.0850  143.5090 C   0  0  0  0  0  3  0  0  0  0  0  0
  190.1190  176.2170  143.8840 N   0  0  0  0  0  0  0  0  0  0  0  0
  189.4500  177.9140  145.0840 C   0  0  0  0  0  3  0  0  0  0  0  0
  188.6790  174.4470  142.1100 C   0  0  1  0  0  3  0  0  0  0  0  0
  190.1330  174.1770  142.5230 C   0  0  0  0  0  0  0  0  0  0  0  0
  190.7390  173.0610  142.0970 C   0  0  0  0  0  3  0  0  0  0  0  0
  190.8350  175.1010  143.4100 N   0  0  0  0  0  0  0  0  0  0  0  0
  189.3630  172.3610  140.1200 C   0  0  0  0  0  3  0  0  0  0  0  0
  190.1800  172.0850  141.1430 C   0  0  0  0  0  3  0  0  0  0  0  0
  188.8450  176.4160  143.6110 C   0  0  0  0  0  0  0  0  0  0  0  0
  188.8520  173.6970  139.7330 C   0  0  0  0  0  0  0  0  0  0  0  0
  186.6880  175.9680  142.7620 C   0  0  0  0  0  3  0  0  0  0  0  0
  194.9080  174.6250  144.5520 C   0  0  0  0  0  0  0  0  0  0  0  0
  193.8860  174.0720  145.3360 C   0  0  0  0  0  3  0  0  0  0  0  0
  194.5720  175.3340  143.3910 C   0  0  0  0  0  3  0  0  0  0  0  0
  192.2130  174.9230  143.7930 C   0  0  0  0  0  0  0  0  0  0  0  0
  193.2350  175.4850  143.0160 C   0  0  0  0  0  3  0  0  0  0  0  0
  192.5480  174.2220  144.9610 C   0  0  0  0  0  3  0  0  0  0  0  0
  196.6610  173.7620  146.1380 N   0  0  0  0  0  1  0  0  0  0  0  0
  197.2380  174.9550  144.2360 O   0  0  0  0  0  0  0  0  0  0  0  0
  196.3190  174.4670  144.9470 C   0  0  0  0  0  0  0  0  0  0  0  0
  189.5370  174.1660  137.3060 C   0  0  0  0  0  0  0  0  0  0  0  0
  190.7740  174.0800  137.5250 O   0  0  0  0  0  0  0  0  0  0  0  0
  188.5790  174.0020  138.3580 N   0  0  0  0  0  2  0  0  0  0  0  0
  189.0610  174.4490  135.9270 C   0  0  0  0  0  1  0  0  0  0  0  0
  1 15  1  0  0  0  0
  2  8  1  0  0  0  0
  4  2  1  0  0  0  0
  5  8  2  0  0  0  0
  6  4  2  0  0  0  0
  7  5  1  0  0  0  0
  9  3  1  6  0  0  0
  9 10  1  0  0  0  0
  9  1  1  0  0  0  0
 10 12  1  0  0  0  0
 11 10  2  0  0  0  0
 12 21  1  0  0  0  0
 12  7  1  0  0  0  0
 13 14  2  0  0  0  0
 14 11  1  0  0  0  0
 15  7  1  0  0  0  0
 15  2  2  0  0  0  0
 16 13  1  0  0  0  0
 16  3  2  0  0  0  0
 17  1  2  0  0  0  0
 17  6  1  0  0  0  0
 18 26  1  0  0  0  0
 18 19  1  0  0  0  0
 20 18  2  0  0  0  0
 21 23  1  0  0  0  0
 22 20  1  0  0  0  0
 22 21  2  0  0  0  0
 23 19  2  0  0  0  0
 25 26  2  0  0  0  0
 26 24  1  0  0  0  0
 27 28  2  0  0  0  0
 27 29  1  0  0  0  0
 29 16  1  0  0  0  0
 30 27  1  0  0  0  0
M  END
>  <MODEL>
8

>  <REMARK>
 VINA RESULT:      -6.9      3.120      7.430
  Name = 
  3 active torsions:
  status: ('A' for Active; 'I' for Inactive)
    1  A    between atoms: C_5  and  C_22
    2  A    between atoms: N_16  and  C_27
    3  A    between atoms: N_20  and  C_21
                            x       y       z     vdW  Elec       q    Type
                         _______ _______ _______ _____ _____    ______ ____

>  <TORSDO>
F 3

$$$$
=
 OpenBabel11042413463D

 30 34  0  0  1  0  0  0  0  0999 V2000
  190.2110  174.7850  145.2300 C   0  0  0  0  0  0  0  0  0  0  0  0
  191.9420  175.4840  146.7280 C   0  0  0  0  0  0  0  0  0  0  0  0
  188.7340  175.3990  143.3670 C   0  0  0  0  0  3  0  0  0  0  0  0
  191.1560  175.3510  147.8250 N   0  0  0  0  0  0  0  0  0  0  0  0
  193.5830  175.6530  145.2580 N   0  0  0  0  0  0  0  0  0  0  0  0
  189.8550  174.9420  147.6440 C   0  0  0  0  0  3  0  0  0  0  0  0
  192.4620  175.3340  144.6180 N   0  0  0  0  0  0  0  0  0  0  0  0
  193.2940  175.7660  146.5900 C   0  0  0  0  0  3  0  0  0  0  0  0
  189.8260  174.4760  143.8030 C   0  0  1  0  0  3  0  0  0  0  0  0
  191.0070  174.5130  142.8230 C   0  0  0  0  0  0  0  0  0  0  0  0
  190.8300  174.0830  141.5670 C   0  0  0  0  0  3  0  0  0  0  0  0
  192.3230  174.9660  143.2660 N   0  0  0  0  0  0  0  0  0  0  0  0
  188.3420  174.1820  141.2550 C   0  0  0  0  0  3  0  0  0  0  0  0
  189.5460  173.6740  140.9670 C   0  0  0  0  0  3  0  0  0  0  0  0
  191.4830  175.2230  145.4920 C   0  0  0  0  0  0  0  0  0  0  0  0
  188.0490  175.2580  142.2300 C   0  0  0  0  0  0  0  0  0  0  0  0
  189.3580  174.6440  146.3440 C   0  0  0  0  0  3  0  0  0  0  0  0
  195.6390  175.2370  140.6120 C   0  0  0  0  0  0  0  0  0  0  0  0
  194.9010  176.3830  140.9380 C   0  0  0  0  0  3  0  0  0  0  0  0
  195.2730  174.0050  141.1700 C   0  0  0  0  0  3  0  0  0  0  0  0
  193.4550  175.0670  142.3790 C   0  0  0  0  0  0  0  0  0  0  0  0
  194.1880  173.9200  142.0450 C   0  0  0  0  0  3  0  0  0  0  0  0
  193.8150  176.2980  141.8130 C   0  0  0  0  0  3  0  0  0  0  0  0
  196.6000  175.1440  138.2880 N   0  0  0  0  0  1  0  0  0  0  0  0
  197.9410  175.5640  140.1310 O   0  0  0  0  0  0  0  0  0  0  0  0
  196.7850  175.3260  139.6890 C   0  0  0  0  0  0  0  0  0  0  0  0
  187.0270  177.5020  141.5200 C   0  0  0  0  0  0  0  0  0  0  0  0
  188.1330  178.0420  141.2520 O   0  0  0  0  0  0  0  0  0  0  0  0
  186.9530  176.1590  142.0130 N   0  0  0  0  0  2  0  0  0  0  0  0
  185.7730  178.2760  141.3280 C   0  0  0  0  0  1  0  0  0  0  0  0
  1 15  1  0  0  0  0
  1 17  2  0  0  0  0
  2  4  1  0  0  0  0
  5  8  2  0  0  0  0
  6  4  2  0  0  0  0
  7  5  1  0  0  0  0
  7 15  1  0  0  0  0
  8  2  1  0  0  0  0
  9  3  1  6  0  0  0
  9  1  1  0  0  0  0
 10 12  1  0  0  0  0
 10  9  1  0  0  0  0
 11 10  2  0  0  0  0
 12  7  1  0  0  0  0
 13 16  1  0  0  0  0
 14 13  2  0  0  0  0
 14 11  1  0  0  0  0
 15  2  2  0  0  0  0
 16  3  2  0  0  0  0
 17  6  1  0  0  0  0
 18 19  2  0  0  0  0
 18 20  1  0  0  0  0
 19 23  1  0  0  0  0
 20 22  2  0  0  0  0
 21 12  1  0  0  0  0
 22 21  1  0  0  0  0
 23 21  2  0  0  0  0
 24 26  1  0  0  0  0
 26 25  2  0  0  0  0
 26 18  1  0  0  0  0
 27 29  1  0  0  0  0
 28 27  2  0  0  0  0
 29 16  1  0  0  0  0
 30 27  1  0  0  0  0
M  END
>  <MODEL>
9

>  <REMARK>
 VINA RESULT:      -6.9      2.984      8.129
  Name = 
  3 active torsions:
  status: ('A' for Active; 'I' for Inactive)
    1  A    between atoms: C_5  and  C_22
    2  A    between atoms: N_16  and  C_27
    3  A    between atoms: N_20  and  C_21
                            x       y       z     vdW  Elec       q    Type
                         _______ _______ _______ _____ _____    ______ ____

>  <TORSDO>
F 3

$$$$
