=
 OpenBabel11042416053D

 34 35  0  0  1  0  0  0  0  0999 V2000
  186.8770  177.6030  141.8260 N   0  0  0  0  0  0  0  0  0  0  0  0
  185.6720  177.9320  144.5810 C   0  0  1  0  0  3  0  0  0  0  0  0
  186.6430  176.9360  144.1330 N   0  0  0  0  0  2  0  0  0  0  0  0
  187.2130  176.8160  142.8130 C   0  0  0  0  0  0  0  0  0  0  0  0
  184.4840  177.9450  143.6660 C   0  0  0  0  0  3  0  0  0  0  0  0
  184.6120  178.3160  142.3930 C   0  0  0  0  0  0  0  0  0  0  0  0
  185.9600  178.7380  141.8870 C   0  0  0  0  0  2  0  0  0  0  0  0
  189.5010  175.9350  142.7800 N   0  0  0  0  0  0  0  0  0  0  0  0
  190.4180  174.9520  142.5720 C   0  0  0  0  0  0  0  0  0  0  0  0
  187.7490  174.4670  142.1270 C   0  0  0  0  0  3  0  0  0  0  0  0
  188.1740  175.7260  142.5700 C   0  0  1  0  0  3  0  0  0  0  0  0
  188.6650  173.4850  141.9190 N   0  0  0  0  0  0  0  0  0  0  0  0
  189.9900  173.7000  142.1330 C   0  0  0  0  0  2  0  0  0  0  0  0
  191.8070  175.1910  142.8080 N   0  0  0  0  0  2  0  0  0  0  0  0
  192.2730  176.4330  143.2690 N   0  0  0  0  0  2  0  0  0  0  0  0
  193.4470  176.1790  144.0880 C   0  0  0  0  0  2  0  0  0  0  0  0
  193.1320  175.0830  145.1050 C   0  0  0  0  0  2  0  0  0  0  0  0
  193.1160  175.5600  146.4940 N   0  0  0  0  0  0  0  0  0  0  0  0
  193.9460  176.7500  146.6090 C   0  0  0  0  0  1  0  0  0  0  0  0
  191.7600  175.9140  146.8890 C   0  0  0  0  0  2  0  0  0  0  0  0
  190.7770  174.9050  146.3280 C   0  0  0  0  0  2  0  0  0  0  0  0
  189.6420  174.7850  147.2240 N   0  0  0  0  0  2  0  0  0  0  0  0
  188.6480  175.7380  146.7670 C   0  0  0  0  0  1  0  0  0  0  0  0
  185.3150  176.2910  146.2860 F   0  0  0  0  0  0  0  0  0  0  0  0
  186.1050  178.3150  146.8870 F   0  0  0  0  0  0  0  0  0  0  0  0
  183.9640  178.0980  146.2340 F   0  0  0  0  0  0  0  0  0  0  0  0
  185.2560  177.6490  146.0220 C   0  0  0  0  0  0  0  0  0  0  0  0
  182.1330  178.4420  142.0190 N   0  0  0  0  0  2  0  0  0  0  0  0
  183.4530  178.3020  141.4860 C   0  0  0  0  0  0  0  0  0  0  0  0
  183.6210  178.1690  140.2420 O   0  0  0  0  0  0  0  0  0  0  0  0
  180.2630  180.1500  140.5850 C   0  0  0  0  0  1  0  0  0  0  0  0
  180.9740  177.6670  139.7390 O   0  0  0  0  0  0  0  0  0  0  0  0
  179.4170  177.7230  141.8410 O   0  0  0  0  0  1  0  0  0  0  0  0
  180.7000  178.4410  141.0070 P   0  0  1  0  0  0  0  0  0  0  0  0
  1  7  1  0  0  0  0
  1  4  2  0  0  0  0
  2 27  1  1  0  0  0
  3  2  1  0  0  0  0
  4  3  1  0  0  0  0
  5  2  1  0  0  0  0
  6  5  2  0  0  0  0
  7  6  1  0  0  0  0
  9  8  2  0  0  0  0
  9 14  1  0  0  0  0
 10 11  1  0  0  0  0
 11  8  1  0  0  0  0
 11  4  1  1  0  0  0
 12 10  2  0  0  0  0
 12 13  1  0  0  0  0
 13  9  1  0  0  0  0
 14 15  1  0  0  0  0
 15 16  1  0  0  0  0
 16 17  1  0  0  0  0
 17 18  1  0  0  0  0
 18 19  1  0  0  0  0
 18 20  1  0  0  0  0
 21 20  1  0  0  0  0
 21 22  1  0  0  0  0
 23 22  1  0  0  0  0
 27 26  1  0  0  0  0
 27 24  1  0  0  0  0
 27 25  1  0  0  0  0
 29 28  1  0  0  0  0
 29  6  1  0  0  0  0
 30 29  2  0  0  0  0
 32 34  2  0  0  0  0
 34 31  1  6  0  0  0
 34 33  1  0  0  0  0
 34 28  1  0  0  0  0
M  END
>  <MODEL>
1

>  <REMARK>
 VINA RESULT:      -6.5      0.000      0.000
  Name = 
  12 active torsions:
  status: ('A' for Active; 'I' for Inactive)
    1  A    between atoms: N_3  and  C_26
    2  A    between atoms: N_4  and  P_28
    3  A    between atoms: N_5  and  C_19
    4  A    between atoms: N_5  and  C_25
    5  A    between atoms: C_6  and  N_22
    6  A    between atoms: C_8  and  C_31
    7  A    between atoms: C_9  and  C_33
    8  A    between atoms: C_19  and  C_26
    9  A    between atoms: C_21  and  C_23
   10  A    between atoms: N_22  and  N_30
   11  A    between atoms: C_25  and  C_27
   12  A    between atoms: C_27  and  N_30
                            x       y       z     vdW  Elec       q    Type
                         _______ _______ _______ _____ _____    ______ ____

>  <TORSDO>
F 12

$$$$
=
 OpenBabel11042416053D

 34 35  0  0  1  0  0  0  0  0999 V2000
  191.7580  173.8480  143.3490 N   0  0  0  0  0  0  0  0  0  0  0  0
  191.1860  174.6650  146.2050 C   0  0  1  0  0  3  0  0  0  0  0  0
  190.3700  174.9050  145.0160 N   0  0  0  0  0  2  0  0  0  0  0  0
  190.6640  174.4860  143.6670 C   0  0  0  0  0  0  0  0  0  0  0  0
  192.5910  175.1330  145.9730 C   0  0  0  0  0  3  0  0  0  0  0  0
  193.3590  174.5480  145.0550 C   0  0  0  0  0  0  0  0  0  0  0  0
  192.8050  173.4000  144.2640 C   0  0  0  0  0  2  0  0  0  0  0  0
  189.0770  176.0500  142.6430 N   0  0  0  0  0  0  0  0  0  0  0  0
  188.1910  176.4200  141.6790 C   0  0  0  0  0  0  0  0  0  0  0  0
  189.4270  173.9670  141.5500 C   0  0  0  0  0  3  0  0  0  0  0  0
  189.7060  174.8440  142.6070 C   0  0  1  0  0  3  0  0  0  0  0  0
  188.5410  174.3360  140.5880 N   0  0  0  0  0  0  0  0  0  0  0  0
  187.9180  175.5430  140.6290 C   0  0  0  0  0  2  0  0  0  0  0  0
  187.5470  177.6950  141.7320 N   0  0  0  0  0  2  0  0  0  0  0  0
  186.3610  177.9500  141.0270 N   0  0  0  0  0  2  0  0  0  0  0  0
  185.3680  178.3930  141.9930 C   0  0  0  0  0  2  0  0  0  0  0  0
  186.0700  179.0680  143.1720 C   0  0  0  0  0  2  0  0  0  0  0  0
  185.2550  179.1120  144.3920 N   0  0  0  0  0  0  0  0  0  0  0  0
  183.8460  179.0040  144.0400 C   0  0  0  0  0  1  0  0  0  0  0  0
  185.5910  177.9940  145.2630 C   0  0  0  0  0  2  0  0  0  0  0  0
  187.0960  177.8170  145.3210 C   0  0  0  0  0  2  0  0  0  0  0  0
  187.4900  177.4640  146.6720 N   0  0  0  0  0  2  0  0  0  0  0  0
  186.3240  176.8780  147.3060 C   0  0  0  0  0  1  0  0  0  0  0  0
  190.4850  176.7220  147.2050 F   0  0  0  0  0  0  0  0  0  0  0  0
  189.2940  174.8570  147.6330 F   0  0  0  0  0  0  0  0  0  0  0  0
  191.3350  175.1130  148.5400 F   0  0  0  0  0  0  0  0  0  0  0  0
  190.5650  175.3570  147.4160 C   0  0  0  0  0  0  0  0  0  0  0  0
  195.1860  175.1980  143.4610 N   0  0  0  0  0  2  0  0  0  0  0  0
  194.7290  175.0260  144.8060 C   0  0  0  0  0  0  0  0  0  0  0  0
  195.4970  175.2850  145.7730 O   0  0  0  0  0  0  0  0  0  0  0  0
  197.0880  175.6030  141.2970 C   0  0  0  0  0  1  0  0  0  0  0  0
  196.9340  177.2190  143.4770 O   0  0  0  0  0  0  0  0  0  0  0  0
  197.9410  174.8450  143.9190 O   0  0  0  0  0  1  0  0  0  0  0  0
  196.8010  175.7680  143.0790 P   0  0  1  0  0  0  0  0  0  0  0  0
  1  4  2  0  0  0  0
  1  7  1  0  0  0  0
  2 27  1  1  0  0  0
  3  2  1  0  0  0  0
  4  3  1  0  0  0  0
  5  2  1  0  0  0  0
  6  5  2  0  0  0  0
  7  6  1  0  0  0  0
  9 14  1  0  0  0  0
  9  8  2  0  0  0  0
 10 11  1  0  0  0  0
 11  8  1  0  0  0  0
 11  4  1  6  0  0  0
 12 13  1  0  0  0  0
 12 10  2  0  0  0  0
 13  9  1  0  0  0  0
 15 14  1  0  0  0  0
 15 16  1  0  0  0  0
 16 17  1  0  0  0  0
 17 18  1  0  0  0  0
 18 20  1  0  0  0  0
 19 18  1  0  0  0  0
 20 21  1  0  0  0  0
 21 22  1  0  0  0  0
 22 23  1  0  0  0  0
 24 27  1  0  0  0  0
 27 25  1  0  0  0  0
 27 26  1  0  0  0  0
 28 29  1  0  0  0  0
 29  6  1  0  0  0  0
 29 30  2  0  0  0  0
 34 31  1  6  0  0  0
 34 28  1  0  0  0  0
 34 32  2  0  0  0  0
 34 33  1  0  0  0  0
M  END
>  <MODEL>
2

>  <REMARK>
 VINA RESULT:      -6.4      5.876      9.015
  Name = 
  12 active torsions:
  status: ('A' for Active; 'I' for Inactive)
    1  A    between atoms: N_3  and  C_26
    2  A    between atoms: N_4  and  P_28
    3  A    between atoms: N_5  and  C_19
    4  A    between atoms: N_5  and  C_25
    5  A    between atoms: C_6  and  N_22
    6  A    between atoms: C_8  and  C_31
    7  A    between atoms: C_9  and  C_33
    8  A    between atoms: C_19  and  C_26
    9  A    between atoms: C_21  and  C_23
   10  A    between atoms: N_22  and  N_30
   11  A    between atoms: C_25  and  C_27
   12  A    between atoms: C_27  and  N_30
                            x       y       z     vdW  Elec       q    Type
                         _______ _______ _______ _____ _____    ______ ____

>  <TORSDO>
F 12

$$$$
=
 OpenBabel11042416053D

 34 35  0  0  1  0  0  0  0  0999 V2000
  188.3830  175.8860  142.9970 N   0  0  0  0  0  0  0  0  0  0  0  0
  187.7330  176.6930  145.8380 C   0  0  1  0  0  3  0  0  0  0  0  0
  187.0260  177.0560  144.6120 N   0  0  0  0  0  2  0  0  0  0  0  0
  187.3510  176.6390  143.2700 C   0  0  0  0  0  0  0  0  0  0  0  0
  189.1940  177.0000  145.7040 C   0  0  0  0  0  3  0  0  0  0  0  0
  189.9450  176.3530  144.8140 C   0  0  0  0  0  0  0  0  0  0  0  0
  189.3130  175.2960  143.9560 C   0  0  0  0  0  2  0  0  0  0  0  0
  185.2250  177.5120  142.4160 N   0  0  0  0  0  0  0  0  0  0  0  0
  184.4170  177.9780  141.4260 C   0  0  0  0  0  0  0  0  0  0  0  0
  187.0000  177.2230  140.8590 C   0  0  0  0  0  3  0  0  0  0  0  0
  186.5080  177.1320  142.1680 C   0  0  1  0  0  3  0  0  0  0  0  0
  186.1920  177.6880  139.8700 N   0  0  0  0  0  0  0  0  0  0  0  0
  184.9120  178.0690  140.1250 C   0  0  0  0  0  2  0  0  0  0  0  0
  183.0760  178.3810  141.7100 N   0  0  0  0  0  2  0  0  0  0  0  0
  181.9870  177.8820  140.9770 N   0  0  0  0  0  2  0  0  0  0  0  0
  181.0710  178.9890  140.7530 C   0  0  0  0  0  2  0  0  0  0  0  0
  179.8010  178.4700  140.0790 C   0  0  0  0  0  2  0  0  0  0  0  0
  178.6240  178.4800  140.9580 N   0  0  0  0  0  0  0  0  0  0  0  0
  178.1660  177.1150  141.1730 C   0  0  0  0  0  1  0  0  0  0  0  0
  178.9690  179.0510  142.2530 C   0  0  0  0  0  2  0  0  0  0  0  0
  177.9130  178.6820  143.2780 C   0  0  0  0  0  2  0  0  0  0  0  0
  178.5290  178.5740  144.5880 N   0  0  0  0  0  2  0  0  0  0  0  0
  178.0480  179.6990  145.3680 C   0  0  0  0  0  1  0  0  0  0  0  0
  188.1040  178.0900  147.7450 F   0  0  0  0  0  0  0  0  0  0  0  0
  186.1860  178.3370  146.5860 F   0  0  0  0  0  0  0  0  0  0  0  0
  186.4930  176.5130  147.8650 F   0  0  0  0  0  0  0  0  0  0  0  0
  187.1230  177.4220  147.0320 C   0  0  0  0  0  0  0  0  0  0  0  0
  192.3580  175.8440  145.2820 N   0  0  0  0  0  2  0  0  0  0  0  0
  191.3740  176.6740  144.6600 C   0  0  0  0  0  0  0  0  0  0  0  0
  191.7300  177.6760  143.9800 O   0  0  0  0  0  0  0  0  0  0  0  0
  194.9980  174.7850  145.9000 C   0  0  0  0  0  1  0  0  0  0  0  0
  194.4580  176.2670  143.6850 O   0  0  0  0  0  0  0  0  0  0  0  0
  194.4620  177.5950  145.9410 O   0  0  0  0  0  1  0  0  0  0  0  0
  194.0790  176.1530  145.1430 P   0  0  1  0  0  0  0  0  0  0  0  0
  1  4  2  0  0  0  0
  1  7  1  0  0  0  0
  2 27  1  1  0  0  0
  3  2  1  0  0  0  0
  4  3  1  0  0  0  0
  5  2  1  0  0  0  0
  6  5  2  0  0  0  0
  7  6  1  0  0  0  0
  9 14  1  0  0  0  0
  9  8  2  0  0  0  0
 10 11  1  0  0  0  0
 11  8  1  0  0  0  0
 11  4  1  1  0  0  0
 12 13  1  0  0  0  0
 12 10  2  0  0  0  0
 13  9  1  0  0  0  0
 15 14  1  0  0  0  0
 16 15  1  0  0  0  0
 17 16  1  0  0  0  0
 17 18  1  0  0  0  0
 18 19  1  0  0  0  0
 18 20  1  0  0  0  0
 20 21  1  0  0  0  0
 21 22  1  0  0  0  0
 22 23  1  0  0  0  0
 25 27  1  0  0  0  0
 27 24  1  0  0  0  0
 27 26  1  0  0  0  0
 29  6  1  0  0  0  0
 29 28  1  0  0  0  0
 30 29  2  0  0  0  0
 32 34  2  0  0  0  0
 34 28  1  0  0  0  0
 34 31  1  1  0  0  0
 34 33  1  0  0  0  0
M  END
>  <MODEL>
3

>  <REMARK>
 VINA RESULT:      -6.4      4.620      9.800
  Name = 
  12 active torsions:
  status: ('A' for Active; 'I' for Inactive)
    1  A    between atoms: N_3  and  C_26
    2  A    between atoms: N_4  and  P_28
    3  A    between atoms: N_5  and  C_19
    4  A    between atoms: N_5  and  C_25
    5  A    between atoms: C_6  and  N_22
    6  A    between atoms: C_8  and  C_31
    7  A    between atoms: C_9  and  C_33
    8  A    between atoms: C_19  and  C_26
    9  A    between atoms: C_21  and  C_23
   10  A    between atoms: N_22  and  N_30
   11  A    between atoms: C_25  and  C_27
   12  A    between atoms: C_27  and  N_30
                            x       y       z     vdW  Elec       q    Type
                         _______ _______ _______ _____ _____    ______ ____

>  <TORSDO>
F 12

$$$$
=
 OpenBabel11042416053D

 34 35  0  0  1  0  0  0  0  0999 V2000
  191.4830  177.0910  143.2380 N   0  0  0  0  0  0  0  0  0  0  0  0
  191.1110  176.5230  146.1850 C   0  0  1  0  0  3  0  0  0  0  0  0
  191.8090  175.7120  145.1900 N   0  0  0  0  0  2  0  0  0  0  0  0
  191.9850  176.0200  143.7920 C   0  0  0  0  0  0  0  0  0  0  0  0
  189.7290  176.8540  145.7070 C   0  0  0  0  0  3  0  0  0  0  0  0
  189.5480  177.6170  144.6300 C   0  0  0  0  0  0  0  0  0  0  0  0
  190.7470  178.1590  143.9090 C   0  0  0  0  0  2  0  0  0  0  0  0
  193.4740  175.4960  141.9160 N   0  0  0  0  0  0  0  0  0  0  0  0
  194.1700  174.6350  141.1250 C   0  0  0  0  0  0  0  0  0  0  0  0
  192.6560  173.6760  143.2110 C   0  0  0  0  0  3  0  0  0  0  0  0
  192.7170  175.0530  142.9560 C   0  0  1  0  0  3  0  0  0  0  0  0
  193.3510  172.8160  142.4210 N   0  0  0  0  0  0  0  0  0  0  0  0
  194.1070  173.2660  141.3840 C   0  0  0  0  0  2  0  0  0  0  0  0
  194.9660  175.1220  140.0430 N   0  0  0  0  0  2  0  0  0  0  0  0
  196.3420  174.8560  139.9630 N   0  0  0  0  0  2  0  0  0  0  0  0
  197.0310  175.9130  140.6840 C   0  0  0  0  0  2  0  0  0  0  0  0
  197.9410  175.2960  141.7460 C   0  0  0  0  0  2  0  0  0  0  0  0
  197.5610  175.6490  143.1200 N   0  0  0  0  0  0  0  0  0  0  0  0
  196.7290  176.8440  143.1030 C   0  0  0  0  0  1  0  0  0  0  0  0
  196.7910  174.5700  143.7230 C   0  0  0  0  0  2  0  0  0  0  0  0
  195.8940  175.1210  144.8140 C   0  0  0  0  0  2  0  0  0  0  0  0
  195.6920  174.1070  145.8330 N   0  0  0  0  0  2  0  0  0  0  0  0
  196.9940  173.5290  146.1090 C   0  0  0  0  0  1  0  0  0  0  0  0
  191.1780  176.6920  148.5710 F   0  0  0  0  0  0  0  0  0  0  0  0
  189.8780  175.1020  147.6400 F   0  0  0  0  0  0  0  0  0  0  0  0
  192.1160  174.8860  147.5950 F   0  0  0  0  0  0  0  0  0  0  0  0
  191.0720  175.7920  147.5250 C   0  0  0  0  0  0  0  0  0  0  0  0
  187.1470  178.1980  145.0780 N   0  0  0  0  0  2  0  0  0  0  0  0
  188.1920  177.9190  144.1420 C   0  0  0  0  0  0  0  0  0  0  0  0
  187.9520  177.9330  142.9030 O   0  0  0  0  0  0  0  0  0  0  0  0
  184.4320  178.6200  146.0380 C   0  0  0  0  0  1  0  0  0  0  0  0
  185.4810  179.9180  143.8910 O   0  0  0  0  0  1  0  0  0  0  0  0
  184.9540  177.3820  143.5120 O   0  0  0  0  0  0  0  0  0  0  0  0
  185.5080  178.5730  144.5790 P   0  0  1  0  0  0  0  0  0  0  0  0
  1  4  2  0  0  0  0
  1  7  1  0  0  0  0
  2 27  1  1  0  0  0
  3  2  1  0  0  0  0
  4  3  1  0  0  0  0
  5  2  1  0  0  0  0
  6  5  2  0  0  0  0
  7  6  1  0  0  0  0
  8 11  1  0  0  0  0
  9 13  1  0  0  0  0
  9  8  2  0  0  0  0
 11 10  1  0  0  0  0
 11  4  1  1  0  0  0
 12 10  2  0  0  0  0
 13 12  1  0  0  0  0
 14  9  1  0  0  0  0
 15 14  1  0  0  0  0
 15 16  1  0  0  0  0
 16 17  1  0  0  0  0
 17 18  1  0  0  0  0
 18 20  1  0  0  0  0
 19 18  1  0  0  0  0
 20 21  1  0  0  0  0
 21 22  1  0  0  0  0
 22 23  1  0  0  0  0
 27 26  1  0  0  0  0
 27 25  1  0  0  0  0
 27 24  1  0  0  0  0
 29  6  1  0  0  0  0
 29 28  1  0  0  0  0
 30 29  2  0  0  0  0
 32 34  1  0  0  0  0
 33 34  2  0  0  0  0
 34 28  1  0  0  0  0
 34 31  1  1  0  0  0
M  END
>  <MODEL>
4

>  <REMARK>
 VINA RESULT:      -6.4      3.738      5.672
  Name = 
  12 active torsions:
  status: ('A' for Active; 'I' for Inactive)
    1  A    between atoms: N_3  and  C_26
    2  A    between atoms: N_4  and  P_28
    3  A    between atoms: N_5  and  C_19
    4  A    between atoms: N_5  and  C_25
    5  A    between atoms: C_6  and  N_22
    6  A    between atoms: C_8  and  C_31
    7  A    between atoms: C_9  and  C_33
    8  A    between atoms: C_19  and  C_26
    9  A    between atoms: C_21  and  C_23
   10  A    between atoms: N_22  and  N_30
   11  A    between atoms: C_25  and  C_27
   12  A    between atoms: C_27  and  N_30
                            x       y       z     vdW  Elec       q    Type
                         _______ _______ _______ _____ _____    ______ ____

>  <TORSDO>
F 12

$$$$
=
 OpenBabel11042416053D

 34 35  0  0  1  0  0  0  0  0999 V2000
  191.7530  177.2490  143.2950 N   0  0  0  0  0  0  0  0  0  0  0  0
  191.2230  176.5490  146.1900 C   0  0  1  0  0  3  0  0  0  0  0  0
  192.0270  175.8140  145.2150 N   0  0  0  0  0  2  0  0  0  0  0  0
  192.2750  176.1850  143.8430 C   0  0  0  0  0  0  0  0  0  0  0  0
  189.8590  176.8250  145.6330 C   0  0  0  0  0  3  0  0  0  0  0  0
  189.7060  177.6200  144.5750 C   0  0  0  0  0  0  0  0  0  0  0  0
  190.9180  178.2510  143.9540 C   0  0  0  0  0  2  0  0  0  0  0  0
  193.0200  173.9430  143.1860 N   0  0  0  0  0  0  0  0  0  0  0  0
  193.7710  173.0850  142.4440 C   0  0  0  0  0  0  0  0  0  0  0  0
  194.0050  175.7990  142.0720 C   0  0  0  0  0  3  0  0  0  0  0  0
  193.1120  175.2910  143.0240 C   0  0  1  0  0  3  0  0  0  0  0  0
  194.7560  174.9420  141.3320 N   0  0  0  0  0  0  0  0  0  0  0  0
  194.6580  173.5960  141.4970 C   0  0  0  0  0  2  0  0  0  0  0  0
  193.6520  171.6720  142.6240 N   0  0  0  0  0  2  0  0  0  0  0  0
  192.7880  170.9000  141.8310 N   0  0  0  0  0  2  0  0  0  0  0  0
  191.6200  170.5880  142.6390 C   0  0  0  0  0  2  0  0  0  0  0  0
  190.3870  171.2570  142.0320 C   0  0  0  0  0  2  0  0  0  0  0  0
  189.4120  171.7080  143.0330 N   0  0  0  0  0  0  0  0  0  0  0  0
  190.1130  172.1330  144.2370 C   0  0  0  0  0  1  0  0  0  0  0  0
  188.6560  172.8440  142.5240 C   0  0  0  0  0  2  0  0  0  0  0  0
  189.3330  174.1390  142.9300 C   0  0  0  0  0  2  0  0  0  0  0  0
  189.5710  174.9510  141.7500 N   0  0  0  0  0  2  0  0  0  0  0  0
  188.4760  174.6880  140.8360 C   0  0  0  0  0  1  0  0  0  0  0  0
  189.9280  175.0980  147.5840 F   0  0  0  0  0  0  0  0  0  0  0  0
  192.1680  174.8440  147.5520 F   0  0  0  0  0  0  0  0  0  0  0  0
  191.2590  176.6300  148.5700 F   0  0  0  0  0  0  0  0  0  0  0  0
  191.1380  175.7650  147.4970 C   0  0  0  0  0  0  0  0  0  0  0  0
  187.2470  178.0190  144.8810 N   0  0  0  0  0  2  0  0  0  0  0  0
  188.3700  177.8690  144.0090 C   0  0  0  0  0  0  0  0  0  0  0  0
  188.2160  177.9530  142.7590 O   0  0  0  0  0  0  0  0  0  0  0  0
  184.4640  178.3100  145.6810 C   0  0  0  0  0  1  0  0  0  0  0  0
  185.5770  179.6720  143.6090 O   0  0  0  0  0  1  0  0  0  0  0  0
  185.1890  177.1200  143.1830 O   0  0  0  0  0  0  0  0  0  0  0  0
  185.6240  178.3240  144.2880 P   0  0  1  0  0  0  0  0  0  0  0  0
  1  4  2  0  0  0  0
  1  7  1  0  0  0  0
  2 27  1  1  0  0  0
  3  2  1  0  0  0  0
  4  3  1  0  0  0  0
  5  2  1  0  0  0  0
  6  5  2  0  0  0  0
  7  6  1  0  0  0  0
  9 14  1  0  0  0  0
  9  8  2  0  0  0  0
 10 11  1  0  0  0  0
 11  8  1  0  0  0  0
 11  4  1  6  0  0  0
 12 13  1  0  0  0  0
 12 10  2  0  0  0  0
 13  9  1  0  0  0  0
 15 14  1  0  0  0  0
 15 16  1  0  0  0  0
 17 16  1  0  0  0  0
 17 18  1  0  0  0  0
 18 19  1  0  0  0  0
 20 21  1  0  0  0  0
 20 18  1  0  0  0  0
 22 21  1  0  0  0  0
 23 22  1  0  0  0  0
 27 25  1  0  0  0  0
 27 24  1  0  0  0  0
 27 26  1  0  0  0  0
 29  6  1  0  0  0  0
 29 28  1  0  0  0  0
 30 29  2  0  0  0  0
 32 34  1  0  0  0  0
 33 34  2  0  0  0  0
 34 28  1  0  0  0  0
 34 31  1  1  0  0  0
M  END
>  <MODEL>
5

>  <REMARK>
 VINA RESULT:      -6.3      3.458      5.729
  Name = 
  12 active torsions:
  status: ('A' for Active; 'I' for Inactive)
    1  A    between atoms: N_3  and  C_26
    2  A    between atoms: N_4  and  P_28
    3  A    between atoms: N_5  and  C_19
    4  A    between atoms: N_5  and  C_25
    5  A    between atoms: C_6  and  N_22
    6  A    between atoms: C_8  and  C_31
    7  A    between atoms: C_9  and  C_33
    8  A    between atoms: C_19  and  C_26
    9  A    between atoms: C_21  and  C_23
   10  A    between atoms: N_22  and  N_30
   11  A    between atoms: C_25  and  C_27
   12  A    between atoms: C_27  and  N_30
                            x       y       z     vdW  Elec       q    Type
                         _______ _______ _______ _____ _____    ______ ____

>  <TORSDO>
F 12

$$$$
=
 OpenBabel11042416053D

 34 35  0  0  1  0  0  0  0  0999 V2000
  188.0840  175.9170  144.3490 N   0  0  0  0  0  0  0  0  0  0  0  0
  186.9540  177.5630  146.6210 C   0  0  1  0  0  3  0  0  0  0  0  0
  186.7250  177.7250  145.1870 N   0  0  0  0  0  2  0  0  0  0  0  0
  187.2660  176.9110  144.1270 C   0  0  0  0  0  0  0  0  0  0  0  0
  188.4240  177.5170  146.9090 C   0  0  0  0  0  3  0  0  0  0  0  0
  189.1760  176.5180  146.4500 C   0  0  0  0  0  0  0  0  0  0  0  0
  188.5270  175.4250  145.6510 C   0  0  0  0  0  2  0  0  0  0  0  0
  185.6240  177.5510  142.4220 N   0  0  0  0  0  0  0  0  0  0  0  0
  185.2610  177.8800  141.1530 C   0  0  0  0  0  0  0  0  0  0  0  0
  187.8850  177.2940  141.7290 C   0  0  0  0  0  3  0  0  0  0  0  0
  186.9140  177.2570  142.7390 C   0  0  1  0  0  3  0  0  0  0  0  0
  187.5220  177.6230  140.4620 N   0  0  0  0  0  0  0  0  0  0  0  0
  186.2320  177.9180  140.1520 C   0  0  0  0  0  2  0  0  0  0  0  0
  183.9020  178.1940  140.8440 N   0  0  0  0  0  2  0  0  0  0  0  0
  182.9230  178.2930  141.8450 N   0  0  0  0  0  2  0  0  0  0  0  0
  181.6410  177.9870  141.2310 C   0  0  0  0  0  2  0  0  0  0  0  0
  180.9080  179.2890  140.9070 C   0  0  0  0  0  2  0  0  0  0  0  0
  179.5030  179.0920  140.5270 N   0  0  0  0  0  0  0  0  0  0  0  0
  178.8470  178.2440  141.5110 C   0  0  0  0  0  1  0  0  0  0  0  0
  178.8060  180.3700  140.4940 C   0  0  0  0  0  2  0  0  0  0  0  0
  178.8080  180.9250  139.0830 C   0  0  0  0  0  2  0  0  0  0  0  0
  179.5620  182.1650  139.0520 N   0  0  0  0  0  2  0  0  0  0  0  0
  179.3590  182.7430  137.7370 C   0  0  0  0  0  1  0  0  0  0  0  0
  187.0970  179.1460  148.4100 F   0  0  0  0  0  0  0  0  0  0  0  0
  185.9990  179.7390  146.5330 F   0  0  0  0  0  0  0  0  0  0  0  0
  185.0850  178.2380  147.9360 F   0  0  0  0  0  0  0  0  0  0  0  0
  186.2750  178.6920  147.3930 C   0  0  0  0  0  0  0  0  0  0  0  0
  191.5390  176.4360  145.6070 N   0  0  0  0  0  2  0  0  0  0  0  0
  190.6250  176.4860  146.7060 C   0  0  0  0  0  0  0  0  0  0  0  0
  191.0600  176.5060  147.8910 O   0  0  0  0  0  0  0  0  0  0  0  0
  193.8260  174.6840  146.0170 C   0  0  0  0  0  1  0  0  0  0  0  0
  193.9550  177.0140  144.6230 O   0  0  0  0  0  0  0  0  0  0  0  0
  193.6920  177.2790  147.2130 O   0  0  0  0  0  1  0  0  0  0  0  0
  193.2790  176.4020  145.8270 P   0  0  1  0  0  0  0  0  0  0  0  0
  1  7  1  0  0  0  0
  2  5  1  0  0  0  0
  2 27  1  1  0  0  0
  3  2  1  0  0  0  0
  4  1  2  0  0  0  0
  4  3  1  0  0  0  0
  6 29  1  0  0  0  0
  6  5  2  0  0  0  0
  7  6  1  0  0  0  0
  8 11  1  0  0  0  0
  9  8  2  0  0  0  0
 10 11  1  0  0  0  0
 11  4  1  1  0  0  0
 12 10  2  0  0  0  0
 13 12  1  0  0  0  0
 13  9  1  0  0  0  0
 14  9  1  0  0  0  0
 14 15  1  0  0  0  0
 16 15  1  0  0  0  0
 17 16  1  0  0  0  0
 18 17  1  0  0  0  0
 18 19  1  0  0  0  0
 20 18  1  0  0  0  0
 21 20  1  0  0  0  0
 22 21  1  0  0  0  0
 23 22  1  0  0  0  0
 25 27  1  0  0  0  0
 27 26  1  0  0  0  0
 27 24  1  0  0  0  0
 28 34  1  0  0  0  0
 28 29  1  0  0  0  0
 29 30  2  0  0  0  0
 32 34  2  0  0  0  0
 34 31  1  1  0  0  0
 34 33  1  0  0  0  0
M  END
>  <MODEL>
6

>  <REMARK>
 VINA RESULT:      -6.3      4.819      9.882
  Name = 
  12 active torsions:
  status: ('A' for Active; 'I' for Inactive)
    1  A    between atoms: N_3  and  C_26
    2  A    between atoms: N_4  and  P_28
    3  A    between atoms: N_5  and  C_19
    4  A    between atoms: N_5  and  C_25
    5  A    between atoms: C_6  and  N_22
    6  A    between atoms: C_8  and  C_31
    7  A    between atoms: C_9  and  C_33
    8  A    between atoms: C_19  and  C_26
    9  A    between atoms: C_21  and  C_23
   10  A    between atoms: N_22  and  N_30
   11  A    between atoms: C_25  and  C_27
   12  A    between atoms: C_27  and  N_30
                            x       y       z     vdW  Elec       q    Type
                         _______ _______ _______ _____ _____    ______ ____

>  <TORSDO>
F 12

$$$$
=
 OpenBabel11042416053D

 34 35  0  0  1  0  0  0  0  0999 V2000
  186.5900  177.1720  140.9810 N   0  0  0  0  0  0  0  0  0  0  0  0
  185.9520  177.8060  143.8690 C   0  0  1  0  0  3  0  0  0  0  0  0
  186.7160  176.6790  143.3390 N   0  0  0  0  0  2  0  0  0  0  0  0
  187.0190  176.4130  141.9540 C   0  0  0  0  0  0  0  0  0  0  0  0
  184.6240  177.9020  143.1790 C   0  0  0  0  0  3  0  0  0  0  0  0
  184.5530  178.1760  141.8780 C   0  0  0  0  0  0  0  0  0  0  0  0
  185.8220  178.4070  141.1100 C   0  0  0  0  0  2  0  0  0  0  0  0
  188.1220  174.3280  142.6230 N   0  0  0  0  0  0  0  0  0  0  0  0
  188.8370  173.2000  142.3670 C   0  0  0  0  0  0  0  0  0  0  0  0
  188.2220  174.9360  140.3260 C   0  0  0  0  0  3  0  0  0  0  0  0
  187.8010  175.2060  141.6350 C   0  0  1  0  0  3  0  0  0  0  0  0
  188.9370  173.8090  140.0710 N   0  0  0  0  0  0  0  0  0  0  0  0
  189.2530  172.9340  141.0620 C   0  0  0  0  0  2  0  0  0  0  0  0
  189.1570  172.2860  143.4190 N   0  0  0  0  0  2  0  0  0  0  0  0
  189.6000  172.7340  144.6730 N   0  0  0  0  0  2  0  0  0  0  0  0
  191.0320  172.9690  144.5690 C   0  0  0  0  0  2  0  0  0  0  0  0
  191.2960  174.4720  144.4800 C   0  0  0  0  0  2  0  0  0  0  0  0
  191.8510  175.0430  145.7140 N   0  0  0  0  0  0  0  0  0  0  0  0
  193.2060  174.5490  145.9120 C   0  0  0  0  0  1  0  0  0  0  0  0
  191.9090  176.4960  145.6140 C   0  0  0  0  0  2  0  0  0  0  0  0
  191.9830  176.9110  144.1570 C   0  0  0  0  0  2  0  0  0  0  0  0
  191.1580  178.0870  143.9480 N   0  0  0  0  0  2  0  0  0  0  0  0
  189.9030  177.8430  144.6340 C   0  0  0  0  0  1  0  0  0  0  0  0
  184.4400  177.5580  145.7070 F   0  0  0  0  0  0  0  0  0  0  0  0
  186.4430  176.5280  145.8130 F   0  0  0  0  0  0  0  0  0  0  0  0
  186.3230  178.7630  146.0190 F   0  0  0  0  0  0  0  0  0  0  0  0
  185.7810  177.6620  145.3790 C   0  0  0  0  0  0  0  0  0  0  0  0
  182.0940  178.6790  141.9100 N   0  0  0  0  0  2  0  0  0  0  0  0
  183.2520  178.2410  141.1930 C   0  0  0  0  0  0  0  0  0  0  0  0
  183.1570  177.9150  139.9770 O   0  0  0  0  0  0  0  0  0  0  0  0
  179.2350  178.5210  142.4270 C   0  0  0  0  0  1  0  0  0  0  0  0
  180.3300  180.1600  140.5560 O   0  0  0  0  0  1  0  0  0  0  0  0
  180.3640  177.6120  139.9620 O   0  0  0  0  0  0  0  0  0  0  0  0
  180.5090  178.7900  141.1660 P   0  0  1  0  0  0  0  0  0  0  0  0
  1  7  1  0  0  0  0
  1  4  2  0  0  0  0
  2 27  1  1  0  0  0
  3  2  1  0  0  0  0
  4  3  1  0  0  0  0
  5  2  1  0  0  0  0
  6  5  2  0  0  0  0
  7  6  1  0  0  0  0
  9  8  2  0  0  0  0
  9 14  1  0  0  0  0
 10 11  1  0  0  0  0
 11  4  1  6  0  0  0
 11  8  1  0  0  0  0
 12 10  2  0  0  0  0
 12 13  1  0  0  0  0
 13  9  1  0  0  0  0
 14 15  1  0  0  0  0
 16 15  1  0  0  0  0
 17 16  1  0  0  0  0
 17 18  1  0  0  0  0
 18 19  1  0  0  0  0
 20 18  1  0  0  0  0
 21 20  1  0  0  0  0
 22 21  1  0  0  0  0
 22 23  1  0  0  0  0
 27 24  1  0  0  0  0
 27 25  1  0  0  0  0
 27 26  1  0  0  0  0
 29  6  1  0  0  0  0
 29 28  1  0  0  0  0
 30 29  2  0  0  0  0
 32 34  1  0  0  0  0
 33 34  2  0  0  0  0
 34 28  1  0  0  0  0
 34 31  1  1  0  0  0
M  END
>  <MODEL>
7

>  <REMARK>
 VINA RESULT:      -6.2      1.576      2.257
  Name = 
  12 active torsions:
  status: ('A' for Active; 'I' for Inactive)
    1  A    between atoms: N_3  and  C_26
    2  A    between atoms: N_4  and  P_28
    3  A    between atoms: N_5  and  C_19
    4  A    between atoms: N_5  and  C_25
    5  A    between atoms: C_6  and  N_22
    6  A    between atoms: C_8  and  C_31
    7  A    between atoms: C_9  and  C_33
    8  A    between atoms: C_19  and  C_26
    9  A    between atoms: C_21  and  C_23
   10  A    between atoms: N_22  and  N_30
   11  A    between atoms: C_25  and  C_27
   12  A    between atoms: C_27  and  N_30
                            x       y       z     vdW  Elec       q    Type
                         _______ _______ _______ _____ _____    ______ ____

>  <TORSDO>
F 12

$$$$
=
 OpenBabel11042416053D

 34 35  0  0  1  0  0  0  0  0999 V2000
  187.8540  174.5180  142.1750 N   0  0  0  0  0  0  0  0  0  0  0  0
  190.4940  175.7170  143.0340 C   0  0  1  0  0  3  0  0  0  0  0  0
  189.2790  176.4130  142.6160 N   0  0  0  0  0  2  0  0  0  0  0  0
  188.0280  175.8110  142.2280 C   0  0  0  0  0  0  0  0  0  0  0  0
  190.8820  174.6930  142.0110 C   0  0  0  0  0  3  0  0  0  0  0  0
  190.0970  173.6440  141.7690 C   0  0  0  0  0  0  0  0  0  0  0  0
  188.8230  173.4910  142.5460 C   0  0  0  0  0  2  0  0  0  0  0  0
  186.0230  177.1210  142.7580 N   0  0  0  0  0  0  0  0  0  0  0  0
  184.9950  177.9480  142.4300 C   0  0  0  0  0  0  0  0  0  0  0  0
  186.7820  177.1360  140.5040 C   0  0  0  0  0  3  0  0  0  0  0  0
  186.9240  176.7020  141.8290 C   0  0  0  0  0  0  0  0  0  0  0  0
  185.7540  177.9630  140.1760 N   0  0  0  0  0  0  0  0  0  0  0  0
  184.8580  178.3790  141.1100 C   0  0  0  0  0  3  0  0  0  0  0  0
  184.0640  178.3830  143.4240 N   0  0  0  0  0  2  0  0  0  0  0  0
  184.3920  179.3840  144.3510 N   0  0  0  0  0  2  0  0  0  0  0  0
  184.1410  178.8460  145.6780 C   0  0  0  0  0  2  0  0  0  0  0  0
  185.3760  179.0530  146.5540 C   0  0  0  0  0  2  0  0  0  0  0  0
  186.1000  177.8100  146.8490 N   0  0  0  0  0  0  0  0  0  0  0  0
  185.2630  176.6680  146.5120 C   0  0  0  0  0  1  0  0  0  0  0  0
  187.3150  177.7320  146.0490 C   0  0  0  0  0  2  0  0  0  0  0  0
  187.7400  176.2850  145.8930 C   0  0  0  0  0  2  0  0  0  0  0  0
  188.8190  175.9950  146.8190 N   0  0  0  0  0  2  0  0  0  0  0  0
  189.6770  177.1650  146.8380 C   0  0  0  0  0  1  0  0  0  0  0  0
  191.9490  176.7780  144.6100 F   0  0  0  0  0  0  0  0  0  0  0  0
  192.7370  176.3370  142.5450 F   0  0  0  0  0  0  0  0  0  0  0  0
  191.2260  177.9760  142.8390 F   0  0  0  0  0  0  0  0  0  0  0  0
  191.6210  176.7210  143.2670 C   0  0  0  0  0  0  0  0  0  0  0  0
  191.3490  171.5810  141.0780 N   0  0  0  0  0  2  0  0  0  0  0  0
  190.4620  172.6520  140.7440 C   0  0  0  0  0  0  0  0  0  0  0  0
  189.9940  172.7450  139.5760 O   0  0  0  0  0  0  0  0  0  0  0  0
  192.7870  171.1310  138.5880 C   0  0  0  0  0  1  0  0  0  0  0  0
  192.6770  169.3110  140.6030 O   0  0  0  0  0  1  0  0  0  0  0  0
  190.4510  169.6240  139.2630 O   0  0  0  0  0  0  0  0  0  0  0  0
  191.8290  170.3560  139.9170 P   0  0  1  0  0  0  0  0  0  0  0  0
  1  4  2  0  0  0  0
  1  7  1  0  0  0  0
  2 27  1  6  0  0  0
  3  2  1  0  0  0  0
  4  3  1  0  0  0  0
  5  2  1  0  0  0  0
  6  5  2  0  0  0  0
  6  7  1  0  0  0  0
  9  8  2  0  0  0  0
  9 14  1  0  0  0  0
 10 11  2  0  0  0  0
 11  4  1  0  0  0  0
 11  8  1  0  0  0  0
 12 10  1  0  0  0  0
 12 13  2  0  0  0  0
 13  9  1  0  0  0  0
 14 15  1  0  0  0  0
 15 16  1  0  0  0  0
 16 17  1  0  0  0  0
 17 18  1  0  0  0  0
 19 18  1  0  0  0  0
 20 18  1  0  0  0  0
 21 20  1  0  0  0  0
 21 22  1  0  0  0  0
 22 23  1  0  0  0  0
 25 27  1  0  0  0  0
 26 27  1  0  0  0  0
 27 24  1  0  0  0  0
 29 28  1  0  0  0  0
 29  6  1  0  0  0  0
 30 29  2  0  0  0  0
 33 34  2  0  0  0  0
 34 31  1  6  0  0  0
 34 32  1  0  0  0  0
 34 28  1  0  0  0  0
M  END
>  <MODEL>
8

>  <REMARK>
 VINA RESULT:      -6.2      4.857      7.999
  Name = 
  12 active torsions:
  status: ('A' for Active; 'I' for Inactive)
    1  A    between atoms: N_3  and  C_26
    2  A    between atoms: N_4  and  P_28
    3  A    between atoms: N_5  and  C_19
    4  A    between atoms: N_5  and  C_25
    5  A    between atoms: C_6  and  N_22
    6  A    between atoms: C_8  and  C_31
    7  A    between atoms: C_9  and  C_33
    8  A    between atoms: C_19  and  C_26
    9  A    between atoms: C_21  and  C_23
   10  A    between atoms: N_22  and  N_30
   11  A    between atoms: C_25  and  C_27
   12  A    between atoms: C_27  and  N_30
                            x       y       z     vdW  Elec       q    Type
                         _______ _______ _______ _____ _____    ______ ____

>  <TORSDO>
F 12

$$$$
=
 OpenBabel11042416053D

 34 35  0  0  1  0  0  0  0  0999 V2000
  186.8020  177.5040  142.0240 N   0  0  0  0  0  0  0  0  0  0  0  0
  185.5880  178.3340  144.6670 C   0  0  1  0  0  3  0  0  0  0  0  0
  186.5180  177.2370  144.4050 N   0  0  0  0  0  2  0  0  0  0  0  0
  187.0940  176.8770  143.1320 C   0  0  0  0  0  0  0  0  0  0  0  0
  184.4110  178.2470  143.7440 C   0  0  0  0  0  3  0  0  0  0  0  0
  184.5660  178.3970  142.4290 C   0  0  0  0  0  0  0  0  0  0  0  0
  185.9360  178.6710  141.8830 C   0  0  0  0  0  2  0  0  0  0  0  0
  188.9320  175.5530  144.0690 N   0  0  0  0  0  0  0  0  0  0  0  0
  189.7880  174.4960  144.0650 C   0  0  0  0  0  0  0  0  0  0  0  0
  187.9410  174.7820  142.0490 C   0  0  0  0  0  3  0  0  0  0  0  0
  188.0060  175.7220  143.0870 C   0  0  0  0  0  0  0  0  0  0  0  0
  188.7970  173.7260  142.0450 N   0  0  0  0  0  0  0  0  0  0  0  0
  189.7180  173.5620  143.0310 C   0  0  0  0  0  3  0  0  0  0  0  0
  190.7480  174.3330  145.1120 N   0  0  0  0  0  2  0  0  0  0  0  0
  191.9230  175.1000  145.1590 N   0  0  0  0  0  2  0  0  0  0  0  0
  193.0330  174.1820  145.3630 C   0  0  0  0  0  2  0  0  0  0  0  0
  194.2920  174.9760  145.7130 C   0  0  0  0  0  2  0  0  0  0  0  0
  194.4090  176.2420  144.9790 N   0  0  0  0  0  0  0  0  0  0  0  0
  194.5490  177.3410  145.9240 C   0  0  0  0  0  1  0  0  0  0  0  0
  195.5920  176.2230  144.1290 C   0  0  0  0  0  2  0  0  0  0  0  0
  195.1880  175.9990  142.6840 C   0  0  0  0  0  2  0  0  0  0  0  0
  196.0490  176.7800  141.8150 N   0  0  0  0  0  2  0  0  0  0  0  0
  196.5400  175.8740  140.7930 C   0  0  0  0  0  1  0  0  0  0  0  0
  185.5700  177.1450  146.7440 F   0  0  0  0  0  0  0  0  0  0  0  0
  185.6910  179.3950  146.7930 F   0  0  0  0  0  0  0  0  0  0  0  0
  183.7680  178.3910  146.2030 F   0  0  0  0  0  0  0  0  0  0  0  0
  185.1470  178.3100  146.1290 C   0  0  0  0  0  0  0  0  0  0  0  0
  182.0910  178.4930  142.0180 N   0  0  0  0  0  2  0  0  0  0  0  0
  183.4150  178.2830  141.5180 C   0  0  0  0  0  0  0  0  0  0  0  0
  183.5950  178.0020  140.3010 O   0  0  0  0  0  0  0  0  0  0  0  0
  180.1460  180.0490  140.5130 C   0  0  0  0  0  1  0  0  0  0  0  0
  180.9920  177.5780  139.7610 O   0  0  0  0  0  0  0  0  0  0  0  0
  179.4180  177.6280  141.8510 O   0  0  0  0  0  1  0  0  0  0  0  0
  180.6690  178.3820  140.9980 P   0  0  1  0  0  0  0  0  0  0  0  0
  1  4  2  0  0  0  0
  2 27  1  1  0  0  0
  3  2  1  0  0  0  0
  4  3  1  0  0  0  0
  5  2  1  0  0  0  0
  6  5  2  0  0  0  0
  7  1  1  0  0  0  0
  7  6  1  0  0  0  0
  9  8  2  0  0  0  0
  9 14  1  0  0  0  0
 10 11  2  0  0  0  0
 11  4  1  0  0  0  0
 11  8  1  0  0  0  0
 12 10  1  0  0  0  0
 12 13  2  0  0  0  0
 13  9  1  0  0  0  0
 14 15  1  0  0  0  0
 15 16  1  0  0  0  0
 16 17  1  0  0  0  0
 18 17  1  0  0  0  0
 18 19  1  0  0  0  0
 20 18  1  0  0  0  0
 21 20  1  0  0  0  0
 22 21  1  0  0  0  0
 23 22  1  0  0  0  0
 27 26  1  0  0  0  0
 27 24  1  0  0  0  0
 27 25  1  0  0  0  0
 29 28  1  0  0  0  0
 29  6  1  0  0  0  0
 30 29  2  0  0  0  0
 32 34  2  0  0  0  0
 34 31  1  6  0  0  0
 34 33  1  0  0  0  0
 34 28  1  0  0  0  0
M  END
>  <MODEL>
9

>  <REMARK>
 VINA RESULT:      -6.2      1.478      2.789
  Name = 
  12 active torsions:
  status: ('A' for Active; 'I' for Inactive)
    1  A    between atoms: N_3  and  C_26
    2  A    between atoms: N_4  and  P_28
    3  A    between atoms: N_5  and  C_19
    4  A    between atoms: N_5  and  C_25
    5  A    between atoms: C_6  and  N_22
    6  A    between atoms: C_8  and  C_31
    7  A    between atoms: C_9  and  C_33
    8  A    between atoms: C_19  and  C_26
    9  A    between atoms: C_21  and  C_23
   10  A    between atoms: N_22  and  N_30
   11  A    between atoms: C_25  and  C_27
   12  A    between atoms: C_27  and  N_30
                            x       y       z     vdW  Elec       q    Type
                         _______ _______ _______ _____ _____    ______ ____

>  <TORSDO>
F 12

$$$$
