=
 OpenBabel11042417473D

 25 29  0  0  1  0  0  0  0  0999 V2000
  183.3570  178.2280  140.6930 O   0  0  0  0  0  0  0  0  0  0  0  0
  192.0180  174.8450  146.0480 C   0  0  0  0  0  0  0  0  0  0  0  0
  190.1230  175.5920  146.8530 C   0  0  0  0  0  3  0  0  0  0  0  0
  184.3510  178.1200  141.4570 C   0  0  0  0  0  0  0  0  0  0  0  0
  188.2130  177.8210  143.5380 C   0  0  0  0  0  0  0  0  0  0  0  0
  192.2160  176.3710  144.1490 N   0  0  0  0  0  2  0  0  0  0  0  0
  188.0600  177.4380  145.7420 C   0  0  0  0  0  2  0  0  0  0  0  0
  189.5270  177.5530  145.4040 C   0  0  2  0  0  3  0  0  0  0  0  0
  184.2500  177.9010  142.7560 O   0  0  0  0  0  0  0  0  0  0  0  0
  187.7220  178.0370  142.2360 C   0  0  0  0  0  3  0  0  0  0  0  0
  189.4770  177.7400  143.9240 C   0  0  2  0  0  3  0  0  0  0  0  0
  193.2120  174.0870  145.8780 N   0  0  0  0  0  1  0  0  0  0  0  0
  186.3280  178.0380  142.1120 C   0  0  0  0  0  0  0  0  0  0  0  0
  190.3000  176.3260  145.7530 C   0  0  0  0  0  0  0  0  0  0  0  0
  191.1850  174.6430  147.0130 N   0  0  0  0  0  2  0  0  0  0  0  0
  185.4870  177.8440  143.1820 C   0  0  0  0  0  0  0  0  0  0  0  0
  185.9640  177.6280  144.4800 C   0  0  0  0  0  0  0  0  0  0  0  0
  191.5670  175.9060  145.1760 C   0  0  0  0  0  0  0  0  0  0  0  0
  185.6030  178.2050  141.0380 O   0  0  0  0  0  0  0  0  0  0  0  0
  190.6380  177.9530  143.0570 C   0  0  0  0  0  3  0  0  0  0  0  0
  191.8360  177.3770  143.1920 C   0  0  0  0  0  3  0  0  0  0  0  0
  187.3670  177.6240  144.6260 C   0  0  0  0  0  0  0  0  0  0  0  0
  185.0310  177.4670  145.6370 C   0  0  0  0  0  2  0  0  0  0  0  0
  184.6340  178.7760  146.1350 N   0  0  0  0  0  2  0  0  0  0  0  0
  185.1270  178.8530  147.4980 C   0  0  0  0  0  1  0  0  0  0  0  0
  1  4  2  0  0  0  0
  2 15  1  0  0  0  0
  3 15  1  0  0  0  0
  4  9  1  0  0  0  0
  5 11  1  0  0  0  0
  5 22  1  0  0  0  0
  6 18  1  0  0  0  0
  8  7  1  6  0  0  0
  8 14  1  0  0  0  0
  9 16  1  0  0  0  0
 10  5  2  0  0  0  0
 11 20  1  1  0  0  0
 11  8  1  0  0  0  0
 12  2  1  0  0  0  0
 13 10  1  0  0  0  0
 13 16  2  0  0  0  0
 14  3  2  0  0  0  0
 16 17  1  0  0  0  0
 17 22  2  0  0  0  0
 17 23  1  0  0  0  0
 18 14  1  0  0  0  0
 18  2  2  0  0  0  0
 19  4  1  0  0  0  0
 19 13  1  0  0  0  0
 20 21  2  0  0  0  0
 21  6  1  0  0  0  0
 22  7  1  0  0  0  0
 23 24  1  0  0  0  0
 24 25  1  0  0  0  0
M  END
>  <MODEL>
1

>  <REMARK>
 VINA RESULT:      -8.0      0.000      0.000
  Name = 
  2 active torsions:
  status: ('A' for Active; 'I' for Inactive)
    1  A    between atoms: N_3  and  C_17
    2  A    between atoms: C_17  and  C_19
                            x       y       z     vdW  Elec       q    Type
                         _______ _______ _______ _____ _____    ______ ____

>  <TORSDO>
F 2

$$$$
=
 OpenBabel11042417473D

 25 29  0  0  1  0  0  0  0  0999 V2000
  191.3200  174.9260  147.7480 O   0  0  0  0  0  0  0  0  0  0  0  0
  183.4820  178.1160  141.1510 C   0  0  0  0  0  0  0  0  0  0  0  0
  185.6450  178.1460  140.8130 C   0  0  0  0  0  3  0  0  0  0  0  0
  190.5670  175.5740  146.9760 C   0  0  0  0  0  0  0  0  0  0  0  0
  187.4880  177.8640  144.8290 C   0  0  0  0  0  0  0  0  0  0  0  0
  183.4900  178.7500  143.5120 N   0  0  0  0  0  0  0  0  0  0  0  0
  187.9670  178.2880  142.6800 C   0  0  0  0  0  2  0  0  0  0  0  0
  186.6350  178.9310  142.9810 C   0  0  2  0  0  3  0  0  0  0  0  0
  190.8610  175.8250  145.7130 O   0  0  0  0  0  0  0  0  0  0  0  0
  187.7170  177.3390  146.1150 C   0  0  0  0  0  3  0  0  0  0  0  0
  186.4210  178.5190  144.4000 C   0  0  2  0  0  3  0  0  0  0  0  0
  182.0790  177.9890  140.9380 N   0  0  0  0  0  1  0  0  0  0  0  0
  188.9260  176.6540  146.2780 C   0  0  0  0  0  0  0  0  0  0  0  0
  185.5340  178.4200  142.1130 C   0  0  0  0  0  0  0  0  0  0  0  0
  184.3580  177.9230  140.2230 N   0  0  0  0  0  0  0  0  0  0  0  0
  189.8370  176.5020  145.2580 C   0  0  0  0  0  0  0  0  0  0  0  0
  189.6200  177.0200  143.9770 C   0  0  0  0  0  0  0  0  0  0  0  0
  184.1120  178.4500  142.4090 C   0  0  0  0  0  0  0  0  0  0  0  0
  189.3960  176.0650  147.3460 O   0  0  0  0  0  0  0  0  0  0  0  0
  185.2800  178.9090  145.2320 C   0  0  0  0  0  3  0  0  0  0  0  0
  184.0150  179.0410  144.8210 C   0  0  0  0  0  3  0  0  0  0  0  0
  188.4050  177.7130  143.7930 C   0  0  0  0  0  0  0  0  0  0  0  0
  190.6440  176.8840  142.8970 C   0  0  0  0  0  2  0  0  0  0  0  0
  190.6310  175.5260  142.3740 N   0  0  0  0  0  2  0  0  0  0  0  0
  192.0100  175.0720  142.4020 C   0  0  0  0  0  1  0  0  0  0  0  0
  2 18  1  0  0  0  0
  3 14  2  0  0  0  0
  4 19  1  0  0  0  0
  4  1  2  0  0  0  0
  5 10  1  0  0  0  0
  6 21  1  0  0  0  0
  7 22  1  0  0  0  0
  8  7  1  6  0  0  0
  8 11  1  0  0  0  0
  9  4  1  0  0  0  0
 10 13  2  0  0  0  0
 11  5  1  0  0  0  0
 11 20  1  1  0  0  0
 12  2  1  0  0  0  0
 13 19  1  0  0  0  0
 14 18  1  0  0  0  0
 14  8  1  0  0  0  0
 15  3  1  0  0  0  0
 15  2  2  0  0  0  0
 16  9  1  0  0  0  0
 16 13  1  0  0  0  0
 17 16  2  0  0  0  0
 18  6  2  0  0  0  0
 21 20  2  0  0  0  0
 22 17  1  0  0  0  0
 22  5  2  0  0  0  0
 23 17  1  0  0  0  0
 24 25  1  0  0  0  0
 24 23  1  0  0  0  0
M  END
>  <MODEL>
2

>  <REMARK>
 VINA RESULT:      -7.8      3.459      7.361
  Name = 
  2 active torsions:
  status: ('A' for Active; 'I' for Inactive)
    1  A    between atoms: N_3  and  C_17
    2  A    between atoms: C_17  and  C_19
                            x       y       z     vdW  Elec       q    Type
                         _______ _______ _______ _____ _____    ______ ____

>  <TORSDO>
F 2

$$$$
=
 OpenBabel11042417473D

 25 29  0  0  1  0  0  0  0  0999 V2000
  183.5060  178.8470  145.7430 O   0  0  0  0  0  0  0  0  0  0  0  0
  193.7690  175.8600  144.8010 C   0  0  0  0  0  0  0  0  0  0  0  0
  192.1230  175.5460  143.3920 C   0  0  0  0  0  3  0  0  0  0  0  0
  184.5790  178.2080  145.5890 C   0  0  0  0  0  0  0  0  0  0  0  0
  188.4130  176.0600  145.7520 C   0  0  0  0  0  0  0  0  0  0  0  0
  192.5270  175.4960  146.8740 N   0  0  0  0  0  0  0  0  0  0  0  0
  189.1700  175.3480  143.7660 C   0  0  0  0  0  2  0  0  0  0  0  0
  190.1600  174.8980  144.8150 C   0  0  2  0  0  3  0  0  0  0  0  0
  185.0140  177.7860  144.4150 O   0  0  0  0  0  0  0  0  0  0  0  0
  187.5130  176.6960  146.6300 C   0  0  0  0  0  3  0  0  0  0  0  0
  189.5680  175.4880  146.0520 C   0  0  2  0  0  3  0  0  0  0  0  0
  195.0630  176.1220  145.3350 N   0  0  0  0  0  1  0  0  0  0  0  0
  186.3780  177.2510  146.0290 C   0  0  0  0  0  0  0  0  0  0  0  0
  191.5330  175.4320  144.5830 C   0  0  0  0  0  0  0  0  0  0  0  0
  193.5160  175.8470  143.5360 N   0  0  0  0  0  0  0  0  0  0  0  0
  186.1470  177.1840  144.6740 C   0  0  0  0  0  0  0  0  0  0  0  0
  187.0340  176.5550  143.7940 C   0  0  0  0  0  0  0  0  0  0  0  0
  192.5790  175.5980  145.5780 C   0  0  0  0  0  0  0  0  0  0  0  0
  185.3900  177.8990  146.5870 O   0  0  0  0  0  0  0  0  0  0  0  0
  190.1030  175.3260  147.4060 C   0  0  0  0  0  3  0  0  0  0  0  0
  191.3960  175.2940  147.7430 C   0  0  0  0  0  3  0  0  0  0  0  0
  188.1850  175.9890  144.3810 C   0  0  0  0  0  0  0  0  0  0  0  0
  186.7400  176.4520  142.3320 C   0  0  0  0  0  2  0  0  0  0  0  0
  186.9830  177.7340  141.6890 N   0  0  0  0  0  2  0  0  0  0  0  0
  185.8440  177.9700  140.8200 C   0  0  0  0  0  1  0  0  0  0  0  0
  2 12  1  0  0  0  0
  2 18  1  0  0  0  0
  3 15  1  0  0  0  0
  3 14  2  0  0  0  0
  4  1  2  0  0  0  0
  4 19  1  0  0  0  0
  5 11  1  0  0  0  0
  5 10  1  0  0  0  0
  6 21  1  0  0  0  0
  7 22  1  0  0  0  0
  8  7  1  6  0  0  0
  8 11  1  0  0  0  0
  9 16  1  0  0  0  0
  9  4  1  0  0  0  0
 11 20  1  1  0  0  0
 13 19  1  0  0  0  0
 13 10  2  0  0  0  0
 14  8  1  0  0  0  0
 14 18  1  0  0  0  0
 15  2  2  0  0  0  0
 16 13  1  0  0  0  0
 17 22  1  0  0  0  0
 17 16  2  0  0  0  0
 18  6  2  0  0  0  0
 20 21  2  0  0  0  0
 22  5  2  0  0  0  0
 23 17  1  0  0  0  0
 24 23  1  0  0  0  0
 25 24  1  0  0  0  0
M  END
>  <MODEL>
3

>  <REMARK>
 VINA RESULT:      -7.7      2.128      3.789
  Name = 
  2 active torsions:
  status: ('A' for Active; 'I' for Inactive)
    1  A    between atoms: N_3  and  C_17
    2  A    between atoms: C_17  and  C_19
                            x       y       z     vdW  Elec       q    Type
                         _______ _______ _______ _____ _____    ______ ____

>  <TORSDO>
F 2

$$$$
=
 OpenBabel11042417473D

 25 29  0  0  1  0  0  0  0  0999 V2000
  195.3200  176.8650  144.7570 O   0  0  0  0  0  0  0  0  0  0  0  0
  184.7470  178.3840  145.7790 C   0  0  0  0  0  0  0  0  0  0  0  0
  186.1770  177.6880  147.2860 C   0  0  0  0  0  3  0  0  0  0  0  0
  194.0870  176.7380  144.9730 C   0  0  0  0  0  0  0  0  0  0  0  0
  189.7130  176.2860  145.0200 C   0  0  0  0  0  0  0  0  0  0  0  0
  185.6800  177.2130  143.8470 N   0  0  0  0  0  2  0  0  0  0  0  0
  188.7970  176.2780  147.0660 C   0  0  0  0  0  2  0  0  0  0  0  0
  187.6780  176.0870  146.0690 C   0  0  2  0  0  3  0  0  0  0  0  0
  193.5560  176.7270  146.1830 O   0  0  0  0  0  0  0  0  0  0  0  0
  190.7630  176.3560  144.0850 C   0  0  0  0  0  3  0  0  0  0  0  0
  188.4170  176.1750  144.7750 C   0  0  2  0  0  3  0  0  0  0  0  0
  183.6470  179.0410  145.1580 N   0  0  0  0  0  1  0  0  0  0  0  0
  192.0430  176.5110  144.6290 C   0  0  0  0  0  0  0  0  0  0  0  0
  186.6370  177.1510  146.1540 C   0  0  0  0  0  0  0  0  0  0  0  0
  185.0120  178.4860  147.0380 N   0  0  0  0  0  2  0  0  0  0  0  0
  192.2700  176.5880  145.9840 C   0  0  0  0  0  0  0  0  0  0  0  0
  191.2340  176.5200  146.9210 C   0  0  0  0  0  0  0  0  0  0  0  0
  185.7120  177.5450  145.1050 C   0  0  0  0  0  0  0  0  0  0  0  0
  193.1900  176.6100  144.0090 O   0  0  0  0  0  0  0  0  0  0  0  0
  187.8210  176.0120  143.4470 C   0  0  0  0  0  3  0  0  0  0  0  0
  186.6110  176.4370  143.0700 C   0  0  0  0  0  3  0  0  0  0  0  0
  189.9360  176.3640  146.3920 C   0  0  0  0  0  0  0  0  0  0  0  0
  191.5080  176.5570  148.3900 C   0  0  0  0  0  2  0  0  0  0  0  0
  191.5220  177.9370  148.8530 N   0  0  0  0  0  2  0  0  0  0  0  0
  191.5670  177.8740  150.3020 C   0  0  0  0  0  1  0  0  0  0  0  0
  1  4  2  0  0  0  0
  2 15  1  0  0  0  0
  4  9  1  0  0  0  0
  5 22  1  0  0  0  0
  6 18  1  0  0  0  0
  8 14  1  0  0  0  0
  8  7  1  1  0  0  0
 10 13  1  0  0  0  0
 10  5  2  0  0  0  0
 11 20  1  6  0  0  0
 11  5  1  0  0  0  0
 11  8  1  0  0  0  0
 12  2  1  0  0  0  0
 13 16  2  0  0  0  0
 14  3  2  0  0  0  0
 15  3  1  0  0  0  0
 16  9  1  0  0  0  0
 16 17  1  0  0  0  0
 17 23  1  0  0  0  0
 18  2  2  0  0  0  0
 18 14  1  0  0  0  0
 19 13  1  0  0  0  0
 19  4  1  0  0  0  0
 21 20  2  0  0  0  0
 21  6  1  0  0  0  0
 22 17  2  0  0  0  0
 22  7  1  0  0  0  0
 23 24  1  0  0  0  0
 24 25  1  0  0  0  0
M  END
>  <MODEL>
4

>  <REMARK>
 VINA RESULT:      -7.2      3.901      6.825
  Name = 
  2 active torsions:
  status: ('A' for Active; 'I' for Inactive)
    1  A    between atoms: N_3  and  C_17
    2  A    between atoms: C_17  and  C_19
                            x       y       z     vdW  Elec       q    Type
                         _______ _______ _______ _____ _____    ______ ____

>  <TORSDO>
F 2

$$$$
=
 OpenBabel11042417473D

 25 29  0  0  1  0  0  0  0  0999 V2000
  185.5130  178.5230  146.9780 O   0  0  0  0  0  0  0  0  0  0  0  0
  195.2750  176.3890  143.0690 C   0  0  0  0  0  0  0  0  0  0  0  0
  193.3270  175.7630  142.2880 C   0  0  0  0  0  3  0  0  0  0  0  0
  186.5570  177.9700  146.5440 C   0  0  0  0  0  0  0  0  0  0  0  0
  190.4890  176.2130  145.6570 C   0  0  0  0  0  0  0  0  0  0  0  0
  194.7850  176.1610  145.4520 N   0  0  0  0  0  0  0  0  0  0  0  0
  190.6810  175.3440  143.5990 C   0  0  0  0  0  2  0  0  0  0  0  0
  191.9920  175.1130  144.3110 C   0  0  2  0  0  3  0  0  0  0  0  0
  186.6580  177.4540  145.3330 O   0  0  0  0  0  0  0  0  0  0  0  0
  189.8320  176.8630  146.7180 C   0  0  0  0  0  3  0  0  0  0  0  0
  191.7420  175.7870  145.6190 C   0  0  2  0  0  3  0  0  0  0  0  0
  196.6280  176.8290  143.1390 N   0  0  0  0  0  1  0  0  0  0  0  0
  188.5080  177.2390  146.4660 C   0  0  0  0  0  0  0  0  0  0  0  0
  193.1510  175.7380  143.6100 C   0  0  0  0  0  0  0  0  0  0  0  0
  194.6490  176.2050  141.9550 N   0  0  0  0  0  0  0  0  0  0  0  0
  187.8810  176.9920  145.2670 C   0  0  0  0  0  0  0  0  0  0  0  0
  188.5250  176.3470  144.2050 C   0  0  0  0  0  0  0  0  0  0  0  0
  194.4230  176.1140  144.2040 C   0  0  0  0  0  0  0  0  0  0  0  0
  187.6670  177.8550  147.2550 O   0  0  0  0  0  0  0  0  0  0  0  0
  192.6820  175.8350  146.7410 C   0  0  0  0  0  3  0  0  0  0  0  0
  194.0100  175.9610  146.6490 C   0  0  0  0  0  3  0  0  0  0  0  0
  189.8610  175.9610  144.4400 C   0  0  0  0  0  0  0  0  0  0  0  0
  187.8110  176.0460  142.9270 C   0  0  0  0  0  2  0  0  0  0  0  0
  188.0070  177.1370  141.9850 N   0  0  0  0  0  2  0  0  0  0  0  0
  187.0040  176.9600  140.9500 C   0  0  0  0  0  1  0  0  0  0  0  0
  2 12  1  0  0  0  0
  2 18  1  0  0  0  0
  3 14  2  0  0  0  0
  4  1  2  0  0  0  0
  4 19  1  0  0  0  0
  5 10  1  0  0  0  0
  6 21  1  0  0  0  0
  7 22  1  0  0  0  0
  8  7  1  6  0  0  0
  8 11  1  0  0  0  0
  9  4  1  0  0  0  0
 11  5  1  0  0  0  0
 11 20  1  1  0  0  0
 13 10  2  0  0  0  0
 13 19  1  0  0  0  0
 14 18  1  0  0  0  0
 14  8  1  0  0  0  0
 15  3  1  0  0  0  0
 15  2  2  0  0  0  0
 16  9  1  0  0  0  0
 16 13  1  0  0  0  0
 17 22  1  0  0  0  0
 17 16  2  0  0  0  0
 18  6  2  0  0  0  0
 21 20  2  0  0  0  0
 22  5  2  0  0  0  0
 23 17  1  0  0  0  0
 24 23  1  0  0  0  0
 25 24  1  0  0  0  0
M  END
>  <MODEL>
5

>  <REMARK>
 VINA RESULT:      -6.8      2.746      4.698
  Name = 
  2 active torsions:
  status: ('A' for Active; 'I' for Inactive)
    1  A    between atoms: N_3  and  C_17
    2  A    between atoms: C_17  and  C_19
                            x       y       z     vdW  Elec       q    Type
                         _______ _______ _______ _____ _____    ______ ____

>  <TORSDO>
F 2

$$$$
=
 OpenBabel11042417473D

 25 29  0  0  1  0  0  0  0  0999 V2000
  191.9540  170.4500  143.4450 O   0  0  0  0  0  0  0  0  0  0  0  0
  184.7710  178.2320  145.1740 C   0  0  0  0  0  0  0  0  0  0  0  0
  185.7370  177.6610  143.2930 C   0  0  0  0  0  3  0  0  0  0  0  0
  191.3370  171.5450  143.5140 C   0  0  0  0  0  0  0  0  0  0  0  0
  189.3280  175.3430  144.4480 C   0  0  0  0  0  0  0  0  0  0  0  0
  186.6880  177.9220  146.6570 N   0  0  0  0  0  0  0  0  0  0  0  0
  188.3410  176.3330  142.6960 C   0  0  0  0  0  2  0  0  0  0  0  0
  188.1340  177.2270  143.8960 C   0  0  2  0  0  3  0  0  0  0  0  0
  190.7650  172.1250  142.4740 O   0  0  0  0  0  0  0  0  0  0  0  0
  190.0660  174.3420  145.1080 C   0  0  0  0  0  3  0  0  0  0  0  0
  188.7770  176.4240  144.9770 C   0  0  2  0  0  3  0  0  0  0  0  0
  183.7980  178.6660  146.1190 N   0  0  0  0  0  1  0  0  0  0  0  0
  190.5000  173.2840  144.3010 C   0  0  0  0  0  0  0  0  0  0  0  0
  186.6940  177.4630  144.2010 C   0  0  0  0  0  0  0  0  0  0  0  0
  184.5250  178.1100  143.9120 N   0  0  0  0  0  0  0  0  0  0  0  0
  190.2310  173.2200  142.9530 C   0  0  0  0  0  0  0  0  0  0  0  0
  189.4980  174.2080  142.2880 C   0  0  0  0  0  0  0  0  0  0  0  0
  186.1320  177.8560  145.4830 C   0  0  0  0  0  0  0  0  0  0  0  0
  191.1900  172.2270  144.6380 O   0  0  0  0  0  0  0  0  0  0  0  0
  188.9100  176.8390  146.3760 C   0  0  0  0  0  3  0  0  0  0  0  0
  188.0060  177.5250  147.0820 C   0  0  0  0  0  3  0  0  0  0  0  0
  189.0520  175.2830  143.0850 C   0  0  0  0  0  0  0  0  0  0  0  0
  189.2580  174.1430  140.8140 C   0  0  0  0  0  2  0  0  0  0  0  0
  188.1910  173.1940  140.5310 N   0  0  0  0  0  2  0  0  0  0  0  0
  188.4650  172.6660  139.2070 C   0  0  0  0  0  1  0  0  0  0  0  0
  1  4  2  0  0  0  0
  2 18  1  0  0  0  0
  2 12  1  0  0  0  0
  3 15  1  0  0  0  0
  3 14  2  0  0  0  0
  4 19  1  0  0  0  0
  5 11  1  0  0  0  0
  5 10  1  0  0  0  0
  6 21  1  0  0  0  0
  7 22  1  0  0  0  0
  8  7  1  6  0  0  0
  8 14  1  0  0  0  0
  8 11  1  0  0  0  0
  9 16  1  0  0  0  0
  9  4  1  0  0  0  0
 11 20  1  6  0  0  0
 13 19  1  0  0  0  0
 13 10  2  0  0  0  0
 14 18  1  0  0  0  0
 15  2  2  0  0  0  0
 16 13  1  0  0  0  0
 17 16  2  0  0  0  0
 17 22  1  0  0  0  0
 18  6  2  0  0  0  0
 20 21  2  0  0  0  0
 22  5  2  0  0  0  0
 23 17  1  0  0  0  0
 24 23  1  0  0  0  0
 25 24  1  0  0  0  0
M  END
>  <MODEL>
6

>  <REMARK>
 VINA RESULT:      -6.8      4.204      7.023
  Name = 
  2 active torsions:
  status: ('A' for Active; 'I' for Inactive)
    1  A    between atoms: N_3  and  C_17
    2  A    between atoms: C_17  and  C_19
                            x       y       z     vdW  Elec       q    Type
                         _______ _______ _______ _____ _____    ______ ____

>  <TORSDO>
F 2

$$$$
=
 OpenBabel11042417473D

 25 29  0  0  1  0  0  0  0  0999 V2000
  183.8420  178.5840  146.1080 O   0  0  0  0  0  0  0  0  0  0  0  0
  190.4430  171.2830  141.8340 C   0  0  0  0  0  0  0  0  0  0  0  0
  190.7780  172.5730  143.5720 C   0  0  0  0  0  3  0  0  0  0  0  0
  184.8170  177.9760  145.5950 C   0  0  0  0  0  0  0  0  0  0  0  0
  187.8430  175.8670  143.2010 C   0  0  0  0  0  0  0  0  0  0  0  0
  189.2510  172.8920  140.4320 N   0  0  0  0  0  0  0  0  0  0  0  0
  189.6610  175.2290  144.3460 C   0  0  0  0  0  2  0  0  0  0  0  0
  189.8640  174.8140  142.9080 C   0  0  2  0  0  3  0  0  0  0  0  0
  185.8880  177.6100  146.2760 O   0  0  0  0  0  0  0  0  0  0  0  0
  186.5780  176.4620  143.0290 C   0  0  0  0  0  3  0  0  0  0  0  0
  188.5720  175.2390  142.2920 C   0  0  2  0  0  3  0  0  0  0  0  0
  190.4500  170.1580  140.9610 N   0  0  0  0  0  1  0  0  0  0  0  0
  186.0180  177.0260  144.1800 C   0  0  0  0  0  0  0  0  0  0  0  0
  190.0630  173.3440  142.7510 C   0  0  0  0  0  0  0  0  0  0  0  0
  190.9830  171.2720  143.0060 N   0  0  0  0  0  2  0  0  0  0  0  0
  186.6530  177.0090  145.4010 C   0  0  0  0  0  0  0  0  0  0  0  0
  187.9090  176.4200  145.5820 C   0  0  0  0  0  0  0  0  0  0  0  0
  189.8280  172.5610  141.5500 C   0  0  0  0  0  0  0  0  0  0  0  0
  184.8680  177.6320  144.3190 O   0  0  0  0  0  0  0  0  0  0  0  0
  188.2300  175.1170  140.8730 C   0  0  0  0  0  2  0  0  0  0  0  0
  188.5660  174.1050  140.0670 C   0  0  0  0  0  3  0  0  0  0  0  0
  188.4900  175.8450  144.4330 C   0  0  0  0  0  0  0  0  0  0  0  0
  188.6020  176.4540  146.9060 C   0  0  0  0  0  2  0  0  0  0  0  0
  189.6450  177.4690  146.8900 N   0  0  0  0  0  2  0  0  0  0  0  0
  190.8000  176.8670  147.5310 C   0  0  0  0  0  1  0  0  0  0  0  0
  2 15  1  0  0  0  0
  4  1  2  0  0  0  0
  4  9  1  0  0  0  0
  5 22  1  0  0  0  0
  6 18  1  0  0  0  0
  7 22  1  0  0  0  0
  8  7  1  1  0  0  0
 10  5  2  0  0  0  0
 10 13  1  0  0  0  0
 11 20  1  6  0  0  0
 11  8  1  0  0  0  0
 11  5  1  0  0  0  0
 12  2  1  0  0  0  0
 13 19  1  0  0  0  0
 13 16  2  0  0  0  0
 14  8  1  0  0  0  0
 14  3  2  0  0  0  0
 15  3  1  0  0  0  0
 16 17  1  0  0  0  0
 16  9  1  0  0  0  0
 17 23  1  0  0  0  0
 18  2  2  0  0  0  0
 18 14  1  0  0  0  0
 19  4  1  0  0  0  0
 21  6  2  0  0  0  0
 21 20  1  0  0  0  0
 22 17  2  0  0  0  0
 24 23  1  0  0  0  0
 24 25  1  0  0  0  0
M  END
>  <MODEL>
7

>  <REMARK>
 VINA RESULT:      -6.7      3.487      4.360
  Name = 
  2 active torsions:
  status: ('A' for Active; 'I' for Inactive)
    1  A    between atoms: N_3  and  C_17
    2  A    between atoms: C_17  and  C_19
                            x       y       z     vdW  Elec       q    Type
                         _______ _______ _______ _____ _____    ______ ____

>  <TORSDO>
F 2

$$$$
=
 OpenBabel11042417473D

 25 29  0  0  1  0  0  0  0  0999 V2000
  184.7460  179.3950  143.4960 O   0  0  0  0  0  0  0  0  0  0  0  0
  194.2410  174.6720  145.1360 C   0  0  0  0  0  0  0  0  0  0  0  0
  192.5350  173.9380  143.9740 C   0  0  0  0  0  3  0  0  0  0  0  0
  185.6760  178.6010  143.7930 C   0  0  0  0  0  0  0  0  0  0  0  0
  189.0390  176.2580  145.3870 C   0  0  0  0  0  0  0  0  0  0  0  0
  192.9960  175.6920  146.9750 N   0  0  0  0  0  0  0  0  0  0  0  0
  189.6070  174.4780  144.1490 C   0  0  0  0  0  2  0  0  0  0  0  0
  190.5160  174.4980  145.3550 C   0  0  2  0  0  3  0  0  0  0  0  0
  185.9990  177.5500  143.0610 O   0  0  0  0  0  0  0  0  0  0  0  0
  188.2940  177.4070  145.7170 C   0  0  0  0  0  3  0  0  0  0  0  0
  190.0720  175.7480  146.0390 C   0  0  2  0  0  3  0  0  0  0  0  0
  195.5720  174.9540  145.5560 N   0  0  0  0  0  1  0  0  0  0  0  0
  187.2720  177.7380  144.8210 C   0  0  0  0  0  0  0  0  0  0  0  0
  191.9600  174.5820  144.9910 C   0  0  0  0  0  0  0  0  0  0  0  0
  193.9630  174.0270  144.0530 N   0  0  0  0  0  0  0  0  0  0  0  0
  187.0030  176.9980  143.6930 C   0  0  0  0  0  0  0  0  0  0  0  0
  187.7370  175.8550  143.3560 C   0  0  0  0  0  0  0  0  0  0  0  0
  193.0390  175.0740  145.8310 C   0  0  0  0  0  0  0  0  0  0  0  0
  186.4350  178.7410  144.8680 O   0  0  0  0  0  0  0  0  0  0  0  0
  190.5950  176.2480  147.3130 C   0  0  0  0  0  3  0  0  0  0  0  0
  191.8660  176.1820  147.7210 C   0  0  0  0  0  3  0  0  0  0  0  0
  188.7730  175.5050  144.2470 C   0  0  0  0  0  0  0  0  0  0  0  0
  187.3980  175.0370  142.1520 C   0  0  0  0  0  2  0  0  0  0  0  0
  188.1410  175.5270  141.0000 N   0  0  0  0  0  2  0  0  0  0  0  0
  188.5880  174.3480  140.2800 C   0  0  0  0  0  1  0  0  0  0  0  0
  1  4  2  0  0  0  0
  2 12  1  0  0  0  0
  2 18  1  0  0  0  0
  3 15  1  0  0  0  0
  3 14  2  0  0  0  0
  4 19  1  0  0  0  0
  5 10  1  0  0  0  0
  5 11  1  0  0  0  0
  6 21  1  0  0  0  0
  7 22  1  0  0  0  0
  8  7  1  6  0  0  0
  8 11  1  0  0  0  0
  9 16  1  0  0  0  0
  9  4  1  0  0  0  0
 11 20  1  1  0  0  0
 13 19  1  0  0  0  0
 13 10  2  0  0  0  0
 14  8  1  0  0  0  0
 14 18  1  0  0  0  0
 15  2  2  0  0  0  0
 16 13  1  0  0  0  0
 17 16  2  0  0  0  0
 17 22  1  0  0  0  0
 18  6  2  0  0  0  0
 20 21  2  0  0  0  0
 22  5  2  0  0  0  0
 23 17  1  0  0  0  0
 24 23  1  0  0  0  0
 25 24  1  0  0  0  0
M  END
>  <MODEL>
8

>  <REMARK>
 VINA RESULT:      -6.6      2.488      3.900
  Name = 
  2 active torsions:
  status: ('A' for Active; 'I' for Inactive)
    1  A    between atoms: N_3  and  C_17
    2  A    between atoms: C_17  and  C_19
                            x       y       z     vdW  Elec       q    Type
                         _______ _______ _______ _____ _____    ______ ____

>  <TORSDO>
F 2

$$$$
=
 OpenBabel11042417473D

 25 29  0  0  1  0  0  0  0  0999 V2000
  190.9990  172.7660  144.8670 O   0  0  0  0  0  0  0  0  0  0  0  0
  182.4930  178.4800  141.6830 C   0  0  0  0  0  0  0  0  0  0  0  0
  184.1490  177.7100  140.4740 C   0  0  0  0  0  3  0  0  0  0  0  0
  190.2280  173.6300  144.3760 C   0  0  0  0  0  0  0  0  0  0  0  0
  187.4180  176.8480  143.3320 C   0  0  0  0  0  0  0  0  0  0  0  0
  183.7750  179.1100  143.6660 N   0  0  0  0  0  0  0  0  0  0  0  0
  186.9750  177.0270  141.1420 C   0  0  0  0  0  2  0  0  0  0  0  0
  186.2070  178.1190  141.8490 C   0  0  2  0  0  3  0  0  0  0  0  0
  189.9780  173.7330  143.0830 O   0  0  0  0  0  0  0  0  0  0  0  0
  188.0260  176.2990  144.4780 C   0  0  0  0  0  3  0  0  0  0  0  0
  186.5440  177.8400  143.2770 C   0  0  2  0  0  3  0  0  0  0  0  0
  181.1890  178.8700  142.1010 N   0  0  0  0  0  1  0  0  0  0  0  0
  188.8890  175.2230  144.2430 C   0  0  0  0  0  0  0  0  0  0  0  0
  184.7350  178.0290  141.6280 C   0  0  0  0  0  0  0  0  0  0  0  0
  182.7390  177.9630  140.5260 N   0  0  0  0  0  0  0  0  0  0  0  0
  189.1350  174.7290  142.9830 C   0  0  0  0  0  0  0  0  0  0  0  0
  188.5360  175.2670  141.8380 C   0  0  0  0  0  0  0  0  0  0  0  0
  183.6950  178.5830  142.4790 C   0  0  0  0  0  0  0  0  0  0  0  0
  189.5770  174.5220  145.1050 O   0  0  0  0  0  0  0  0  0  0  0  0
  186.0960  178.6350  144.4230 C   0  0  0  0  0  3  0  0  0  0  0  0
  184.8990  179.2130  144.5600 C   0  0  0  0  0  3  0  0  0  0  0  0
  187.6620  176.3530  142.0550 C   0  0  0  0  0  0  0  0  0  0  0  0
  188.8540  174.7460  140.4740 C   0  0  0  0  0  2  0  0  0  0  0  0
  188.2280  173.4460  140.2840 N   0  0  0  0  0  2  0  0  0  0  0  0
  188.2780  173.1800  138.8580 C   0  0  0  0  0  1  0  0  0  0  0  0
  2 12  1  0  0  0  0
  2 18  1  0  0  0  0
  3 15  1  0  0  0  0
  3 14  2  0  0  0  0
  4  1  2  0  0  0  0
  4 19  1  0  0  0  0
  5 10  1  0  0  0  0
  6 21  1  0  0  0  0
  7 22  1  0  0  0  0
  8  7  1  6  0  0  0
  8 11  1  0  0  0  0
  9  4  1  0  0  0  0
 11  5  1  0  0  0  0
 11 20  1  6  0  0  0
 13 10  2  0  0  0  0
 13 19  1  0  0  0  0
 14  8  1  0  0  0  0
 14 18  1  0  0  0  0
 15  2  2  0  0  0  0
 16  9  1  0  0  0  0
 16 13  1  0  0  0  0
 17 22  1  0  0  0  0
 17 16  2  0  0  0  0
 18  6  2  0  0  0  0
 20 21  2  0  0  0  0
 22  5  2  0  0  0  0
 23 17  1  0  0  0  0
 24 23  1  0  0  0  0
 25 24  1  0  0  0  0
M  END
>  <MODEL>
9

>  <REMARK>
 VINA RESULT:      -6.6      4.026      7.572
  Name = 
  2 active torsions:
  status: ('A' for Active; 'I' for Inactive)
    1  A    between atoms: N_3  and  C_17
    2  A    between atoms: C_17  and  C_19
                            x       y       z     vdW  Elec       q    Type
                         _______ _______ _______ _____ _____    ______ ____

>  <TORSDO>
F 2

$$$$
