=
 OpenBabel11042419353D

 32 37  0  0  1  0  0  0  0  0999 V2000
  192.7380  174.9000  146.8360 C   0  0  1  0  0  3  0  0  0  0  0  0
  188.5720  176.5490  144.4520 C   0  0  0  0  0  0  0  0  0  0  0  0
  185.9920  178.5930  147.9800 C   0  0  0  0  0  3  0  0  0  0  0  0
  185.0110  179.0020  147.0800 C   0  0  0  0  0  3  0  0  0  0  0  0
  187.7600  176.6240  142.0890 C   0  0  0  0  0  0  0  0  0  0  0  0
  186.7610  177.0460  141.2090 C   0  0  0  0  0  0  0  0  0  0  0  0
  190.5860  175.4870  144.9880 C   0  0  0  0  0  0  0  0  0  0  0  0
  189.3150  176.4970  146.7230 N   0  0  0  0  0  0  0  0  0  0  0  0
  184.9000  177.9930  140.5340 C   0  0  0  0  0  0  0  0  0  0  0  0
  191.3890  175.3460  147.4000 C   0  0  0  0  0  2  0  0  0  0  0  0
  187.0780  177.9030  147.5390 N   0  0  0  0  0  0  0  0  0  0  0  0
  188.3810  176.8810  145.8130 C   0  0  0  0  0  0  0  0  0  0  0  0
  187.2500  177.5910  146.2230 C   0  0  0  0  0  0  0  0  0  0  0  0
  186.4510  177.6660  143.9120 C   0  0  0  0  0  0  0  0  0  0  0  0
  185.5710  177.4360  139.4540 C   0  0  0  0  0  3  0  0  0  0  0  0
  192.5340  174.0140  145.6030 C   0  0  0  0  0  2  0  0  0  0  0  0
  190.4250  175.8150  146.3450 C   0  0  0  0  0  0  0  0  0  0  0  0
  186.7200  176.8520  139.8760 N   0  0  0  0  0  0  0  0  0  0  0  0
  191.8060  174.7670  144.4900 C   0  0  0  0  0  2  0  0  0  0  0  0
  185.1580  178.6970  145.7280 C   0  0  0  0  0  3  0  0  0  0  0  0
  186.2810  177.9850  145.2750 C   0  0  0  0  0  0  0  0  0  0  0  0
  185.4760  178.0650  142.9730 C   0  0  0  0  0  3  0  0  0  0  0  0
  189.6650  175.8700  144.1100 O   0  0  0  0  0  0  0  0  0  0  0  0
  188.9240  175.8710  141.5260 C   0  0  0  0  0  1  0  0  0  0  0  0
  183.6040  178.7220  140.4870 C   0  0  0  0  0  1  0  0  0  0  0  0
  187.6120  176.9340  143.4800 C   0  0  0  0  0  0  0  0  0  0  0  0
  185.6690  177.7370  141.6410 C   0  0  0  0  0  0  0  0  0  0  0  0
  193.6250  176.1030  146.5400 C   0  0  0  0  0  2  0  0  0  0  0  0
  195.4370  175.8230  144.8230 C   0  0  0  0  0  0  0  0  0  0  0  0
  194.9540  175.6580  146.1540 N   0  0  0  0  0  2  0  0  0  0  0  0
  196.5940  175.4280  144.5260 O   0  0  0  0  0  1  0  0  0  0  0  0
  194.6420  176.4170  143.8500 O   0  0  0  0  0  0  0  0  0  0  0  0
  1 28  1  6  0  0  0
  1 10  1  0  0  0  0
  2 12  1  0  0  0  0
  4  3  2  0  0  0  0
  5 26  1  0  0  0  0
  6 27  1  0  0  0  0
  6  5  2  0  0  0  0
  7 17  2  0  0  0  0
  9 27  2  0  0  0  0
 11  3  1  0  0  0  0
 12 13  1  0  0  0  0
 12  8  2  0  0  0  0
 13 11  2  0  0  0  0
 14 21  1  0  0  0  0
 15 18  2  0  0  0  0
 15  9  1  0  0  0  0
 16  1  1  0  0  0  0
 17  8  1  0  0  0  0
 17 10  1  0  0  0  0
 18  6  1  0  0  0  0
 19  7  1  0  0  0  0
 19 16  1  0  0  0  0
 20  4  1  0  0  0  0
 21 20  2  0  0  0  0
 21 13  1  0  0  0  0
 22 14  2  0  0  0  0
 23  2  1  0  0  0  0
 23  7  1  0  0  0  0
 24  5  1  0  0  0  0
 25  9  1  0  0  0  0
 26 14  1  0  0  0  0
 26  2  2  0  0  0  0
 27 22  1  0  0  0  0
 29 30  1  0  0  0  0
 30 28  1  0  0  0  0
 31 29  1  0  0  0  0
 32 29  2  0  0  0  0
M  END
>  <MODEL>
1

>  <REMARK>
 VINA RESULT:      -9.0      0.000      0.000
  Name = 
  2 active torsions:
  status: ('A' for Active; 'I' for Inactive)
    1  A    between atoms: C_2  and  C_24
    2  A    between atoms: N_10  and  C_24
                            x       y       z     vdW  Elec       q    Type
                         _______ _______ _______ _____ _____    ______ ____

>  <TORSDO>
F 2

$$$$
=
 OpenBabel11042419353D

 32 37  0  0  1  0  0  0  0  0999 V2000
  185.2170  179.1770  143.3500 C   0  0  1  0  0  3  0  0  0  0  0  0
  188.7230  175.5390  143.8230 C   0  0  0  0  0  0  0  0  0  0  0  0
  191.1920  176.8590  147.7520 C   0  0  0  0  0  3  0  0  0  0  0  0
  191.9800  175.7120  147.6910 C   0  0  0  0  0  3  0  0  0  0  0  0
  189.2640  173.3970  142.6510 C   0  0  0  0  0  0  0  0  0  0  0  0
  190.0690  172.2560  142.6150 C   0  0  0  0  0  0  0  0  0  0  0  0
  187.0180  176.9320  143.0330 C   0  0  0  0  0  0  0  0  0  0  0  0
  188.2330  177.5780  144.9680 N   0  0  0  0  0  0  0  0  0  0  0  0
  191.6320  170.8390  143.2160 C   0  0  0  0  0  0  0  0  0  0  0  0
  186.5030  179.1470  144.1770 C   0  0  0  0  0  2  0  0  0  0  0  0
  190.2230  177.0710  146.8210 N   0  0  0  0  0  0  0  0  0  0  0  0
  188.9790  176.4450  144.8770 C   0  0  0  0  0  0  0  0  0  0  0  0
  189.9860  176.1870  145.8110 C   0  0  0  0  0  0  0  0  0  0  0  0
  190.5200  174.0920  144.6670 C   0  0  0  0  0  0  0  0  0  0  0  0
  190.9790  170.3760  142.0830 C   0  0  0  0  0  3  0  0  0  0  0  0
  185.4650  178.5970  141.9550 C   0  0  0  0  0  2  0  0  0  0  0  0
  187.2460  177.8430  144.0770 C   0  0  0  0  0  0  0  0  0  0  0  0
  190.0140  171.2540  141.7140 N   0  0  0  0  0  0  0  0  0  0  0  0
  185.9180  177.1390  142.0300 C   0  0  0  0  0  2  0  0  0  0  0  0
  191.7610  174.7890  146.6690 C   0  0  0  0  0  3  0  0  0  0  0  0
  190.7600  175.0110  145.7100 C   0  0  0  0  0  0  0  0  0  0  0  0
  191.2990  172.9190  144.5760 C   0  0  0  0  0  3  0  0  0  0  0  0
  187.7540  175.8280  142.9550 O   0  0  0  0  0  0  0  0  0  0  0  0
  188.2190  173.5590  141.5930 C   0  0  0  0  0  1  0  0  0  0  0  0
  192.7510  170.1640  143.9290 C   0  0  0  0  0  1  0  0  0  0  0  0
  189.4870  174.3490  143.7000 C   0  0  0  0  0  0  0  0  0  0  0  0
  191.0420  172.0340  143.5410 C   0  0  0  0  0  0  0  0  0  0  0  0
  184.0870  178.4600  144.0790 C   0  0  0  0  0  2  0  0  0  0  0  0
  184.4290  178.0280  146.5290 C   0  0  0  0  0  0  0  0  0  0  0  0
  184.0360  178.8920  145.4660 N   0  0  0  0  0  2  0  0  0  0  0  0
  184.3730  178.4360  147.7180 O   0  0  0  0  0  1  0  0  0  0  0  0
  184.8740  176.7380  146.2650 O   0  0  0  0  0  0  0  0  0  0  0  0
  1 28  1  1  0  0  0
  1 10  1  0  0  0  0
  2 12  1  0  0  0  0
  4  3  1  0  0  0  0
  5 26  1  0  0  0  0
  6  5  2  0  0  0  0
  6 27  1  0  0  0  0
  7 17  2  0  0  0  0
  9 27  2  0  0  0  0
  9 25  1  0  0  0  0
 11  3  2  0  0  0  0
 12  8  2  0  0  0  0
 12 13  1  0  0  0  0
 13 11  1  0  0  0  0
 14 21  1  0  0  0  0
 15  9  1  0  0  0  0
 16 19  1  0  0  0  0
 16  1  1  0  0  0  0
 17 10  1  0  0  0  0
 17  8  1  0  0  0  0
 18 15  2  0  0  0  0
 18  6  1  0  0  0  0
 19  7  1  0  0  0  0
 20  4  2  0  0  0  0
 21 13  2  0  0  0  0
 21 20  1  0  0  0  0
 22 14  2  0  0  0  0
 23  7  1  0  0  0  0
 23  2  1  0  0  0  0
 24  5  1  0  0  0  0
 26  2  2  0  0  0  0
 26 14  1  0  0  0  0
 27 22  1  0  0  0  0
 28 30  1  0  0  0  0
 29 31  1  0  0  0  0
 30 29  1  0  0  0  0
 32 29  2  0  0  0  0
M  END
>  <MODEL>
2

>  <REMARK>
 VINA RESULT:      -8.8      2.911      7.449
  Name = 
  2 active torsions:
  status: ('A' for Active; 'I' for Inactive)
    1  A    between atoms: C_2  and  C_24
    2  A    between atoms: N_10  and  C_24
                            x       y       z     vdW  Elec       q    Type
                         _______ _______ _______ _____ _____    ______ ____

>  <TORSDO>
F 2

$$$$
=
 OpenBabel11042419353D

 32 37  0  0  1  0  0  0  0  0999 V2000
  192.6890  175.4640  144.9660 C   0  0  1  0  0  3  0  0  0  0  0  0
  187.9170  176.8650  143.9520 C   0  0  0  0  0  0  0  0  0  0  0  0
  186.1550  178.0700  148.2780 C   0  0  0  0  0  3  0  0  0  0  0  0
  184.9420  178.4660  147.7180 C   0  0  0  0  0  3  0  0  0  0  0  0
  186.5230  177.1500  141.8960 C   0  0  0  0  0  0  0  0  0  0  0  0
  185.2970  177.5540  141.3620 C   0  0  0  0  0  0  0  0  0  0  0  0
  190.0900  176.0100  143.8100 C   0  0  0  0  0  0  0  0  0  0  0  0
  189.2210  176.6070  145.9380 N   0  0  0  0  0  0  0  0  0  0  0  0
  183.2470  178.3340  141.3160 C   0  0  0  0  0  0  0  0  0  0  0  0
  191.4950  175.6530  145.9030 C   0  0  0  0  0  2  0  0  0  0  0  0
  187.1490  177.5920  147.4830 N   0  0  0  0  0  0  0  0  0  0  0  0
  188.0530  176.9860  145.3540 C   0  0  0  0  0  0  0  0  0  0  0  0
  187.0050  177.4820  146.1320 C   0  0  0  0  0  0  0  0  0  0  0  0
  185.6360  177.7610  144.1240 C   0  0  0  0  0  0  0  0  0  0  0  0
  183.6660  178.0170  140.0310 C   0  0  0  0  0  3  0  0  0  0  0  0
  192.2570  174.7320  143.6920 C   0  0  0  0  0  2  0  0  0  0  0  0
  190.2540  176.1300  145.2000 C   0  0  0  0  0  0  0  0  0  0  0  0
  184.9340  177.5350  140.0640 N   0  0  0  0  0  0  0  0  0  0  0  0
  191.2020  175.5260  142.9230 C   0  0  0  0  0  2  0  0  0  0  0  0
  184.7640  178.3660  146.3390 C   0  0  0  0  0  3  0  0  0  0  0  0
  185.7930  177.8710  145.5210 C   0  0  0  0  0  0  0  0  0  0  0  0
  184.4210  178.1540  143.5230 C   0  0  0  0  0  3  0  0  0  0  0  0
  188.9440  176.3850  143.2510 O   0  0  0  0  0  0  0  0  0  0  0  0
  187.5680  176.6350  140.9570 C   0  0  0  0  0  1  0  0  0  0  0  0
  181.9210  178.8890  141.6990 C   0  0  0  0  0  1  0  0  0  0  0  0
  186.7090  177.2500  143.3140 C   0  0  0  0  0  0  0  0  0  0  0  0
  184.2940  178.0340  142.1490 C   0  0  0  0  0  0  0  0  0  0  0  0
  193.3560  176.8000  144.6640 C   0  0  0  0  0  2  0  0  0  0  0  0
  195.5990  176.4340  143.5940 C   0  0  0  0  0  0  0  0  0  0  0  0
  194.8010  176.6660  144.7520 N   0  0  0  0  0  2  0  0  0  0  0  0
  196.8470  176.3250  143.7080 O   0  0  0  0  0  1  0  0  0  0  0  0
  195.0100  176.3260  142.3390 O   0  0  0  0  0  0  0  0  0  0  0  0
  1 28  1  6  0  0  0
  1 10  1  0  0  0  0
  2 12  1  0  0  0  0
  4  3  1  0  0  0  0
  5 26  1  0  0  0  0
  6  5  2  0  0  0  0
  6 27  1  0  0  0  0
  7 17  2  0  0  0  0
  9 25  1  0  0  0  0
  9 27  2  0  0  0  0
 11  3  2  0  0  0  0
 12  8  2  0  0  0  0
 12 13  1  0  0  0  0
 13 11  1  0  0  0  0
 14 21  1  0  0  0  0
 15 18  2  0  0  0  0
 15  9  1  0  0  0  0
 16  1  1  0  0  0  0
 17 10  1  0  0  0  0
 17  8  1  0  0  0  0
 18  6  1  0  0  0  0
 19 16  1  0  0  0  0
 19  7  1  0  0  0  0
 20  4  2  0  0  0  0
 21 13  2  0  0  0  0
 21 20  1  0  0  0  0
 22 14  2  0  0  0  0
 23  7  1  0  0  0  0
 23  2  1  0  0  0  0
 24  5  1  0  0  0  0
 26  2  2  0  0  0  0
 26 14  1  0  0  0  0
 27 22  1  0  0  0  0
 28 30  1  0  0  0  0
 29 31  1  0  0  0  0
 29 30  1  0  0  0  0
 32 29  2  0  0  0  0
M  END
>  <MODEL>
3

>  <REMARK>
 VINA RESULT:      -8.7      1.188      1.411
  Name = 
  2 active torsions:
  status: ('A' for Active; 'I' for Inactive)
    1  A    between atoms: C_2  and  C_24
    2  A    between atoms: N_10  and  C_24
                            x       y       z     vdW  Elec       q    Type
                         _______ _______ _______ _____ _____    ______ ____

>  <TORSDO>
F 2

$$$$
=
 OpenBabel11042419353D

 32 37  0  0  1  0  0  0  0  0999 V2000
  190.7270  172.4910  139.5110 C   0  0  1  0  0  3  0  0  0  0  0  0
  188.8970  175.2740  143.3400 C   0  0  0  0  0  0  0  0  0  0  0  0
  192.3160  174.9170  146.7250 C   0  0  0  0  0  3  0  0  0  0  0  0
  191.6280  175.7870  147.5680 C   0  0  0  0  0  3  0  0  0  0  0  0
  186.8930  176.7220  143.7170 C   0  0  0  0  0  0  0  0  0  0  0  0
  186.2260  177.5910  144.5830 C   0  0  0  0  0  0  0  0  0  0  0  0
  189.1420  174.0720  141.3480 C   0  0  0  0  0  0  0  0  0  0  0  0
  190.8250  173.9010  143.0150 N   0  0  0  0  0  0  0  0  0  0  0  0
  185.8370  178.7780  146.3860 C   0  0  0  0  0  0  0  0  0  0  0  0
  191.1440  172.5430  140.9820 C   0  0  0  0  0  2  0  0  0  0  0  0
  191.8020  174.5990  145.5070 N   0  0  0  0  0  0  0  0  0  0  0  0
  190.1250  174.7550  143.8080 C   0  0  0  0  0  0  0  0  0  0  0  0
  190.6160  175.1090  145.0680 C   0  0  0  0  0  0  0  0  0  0  0  0
  188.6570  176.5250  145.4410 C   0  0  0  0  0  0  0  0  0  0  0  0
  184.8040  178.9450  145.4730 C   0  0  0  0  0  3  0  0  0  0  0  0
  189.2000  172.4910  139.3890 C   0  0  0  0  0  2  0  0  0  0  0  0
  190.3710  173.5510  141.7870 C   0  0  0  0  0  0  0  0  0  0  0  0
  185.0480  178.2090  144.3600 N   0  0  0  0  0  0  0  0  0  0  0  0
  188.5930  173.7610  139.9850 C   0  0  0  0  0  2  0  0  0  0  0  0
  190.4130  176.3240  147.1470 C   0  0  0  0  0  3  0  0  0  0  0  0
  189.8840  175.9940  145.8890 C   0  0  0  0  0  0  0  0  0  0  0  0
  187.9340  177.4100  146.2700 C   0  0  0  0  0  3  0  0  0  0  0  0
  188.4690  174.9070  142.1330 O   0  0  0  0  0  0  0  0  0  0  0  0
  186.2640  176.4210  142.3930 C   0  0  0  0  0  1  0  0  0  0  0  0
  185.9410  179.4150  147.7270 C   0  0  0  0  0  1  0  0  0  0  0  0
  188.1430  176.1660  144.1460 C   0  0  0  0  0  0  0  0  0  0  0  0
  186.7310  177.9160  145.8050 C   0  0  0  0  0  0  0  0  0  0  0  0
  191.3670  173.6290  138.7270 C   0  0  0  0  0  2  0  0  0  0  0  0
  190.8300  173.6680  136.2740 C   0  0  0  0  0  0  0  0  0  0  0  0
  191.6290  173.2080  137.3610 N   0  0  0  0  0  2  0  0  0  0  0  0
  191.0870  173.2830  135.1030 O   0  0  0  0  0  0  0  0  0  0  0  0
  189.7690  174.5390  136.4940 O   0  0  0  0  0  1  0  0  0  0  0  0
  1 28  1  6  0  0  0
  1 10  1  0  0  0  0
  2 12  1  0  0  0  0
  2 26  2  0  0  0  0
  3  4  1  0  0  0  0
  5 26  1  0  0  0  0
  5  6  2  0  0  0  0
  6 27  1  0  0  0  0
  7 17  2  0  0  0  0
  7 23  1  0  0  0  0
  8 12  2  0  0  0  0
  9 25  1  0  0  0  0
 10 17  1  0  0  0  0
 11  3  2  0  0  0  0
 12 13  1  0  0  0  0
 13 11  1  0  0  0  0
 13 21  2  0  0  0  0
 14 21  1  0  0  0  0
 14 22  2  0  0  0  0
 15  9  1  0  0  0  0
 16  1  1  0  0  0  0
 16 19  1  0  0  0  0
 17  8  1  0  0  0  0
 18  6  1  0  0  0  0
 18 15  2  0  0  0  0
 19  7  1  0  0  0  0
 20  4  2  0  0  0  0
 21 20  1  0  0  0  0
 23  2  1  0  0  0  0
 24  5  1  0  0  0  0
 26 14  1  0  0  0  0
 27 22  1  0  0  0  0
 27  9  2  0  0  0  0
 29 32  1  0  0  0  0
 29 30  1  0  0  0  0
 30 28  1  0  0  0  0
 31 29  2  0  0  0  0
M  END
>  <MODEL>
4

>  <REMARK>
 VINA RESULT:      -8.4      3.472      6.121
  Name = 
  2 active torsions:
  status: ('A' for Active; 'I' for Inactive)
    1  A    between atoms: C_2  and  C_24
    2  A    between atoms: N_10  and  C_24
                            x       y       z     vdW  Elec       q    Type
                         _______ _______ _______ _____ _____    ______ ____

>  <TORSDO>
F 2

$$$$
=
 OpenBabel11042419353D

 32 37  0  0  1  0  0  0  0  0999 V2000
  195.0010  174.3690  145.0000 C   0  0  1  0  0  3  0  0  0  0  0  0
  190.2690  176.2040  144.9520 C   0  0  0  0  0  0  0  0  0  0  0  0
  188.5840  174.8580  140.6370 C   0  0  0  0  0  3  0  0  0  0  0  0
  187.3270  175.3900  140.9170 C   0  0  0  0  0  3  0  0  0  0  0  0
  188.7840  177.3950  146.5730 C   0  0  0  0  0  0  0  0  0  0  0  0
  187.5140  177.9190  146.8270 C   0  0  0  0  0  0  0  0  0  0  0  0
  192.4930  175.7290  145.5010 C   0  0  0  0  0  0  0  0  0  0  0  0
  191.6600  175.0650  143.3780 N   0  0  0  0  0  0  0  0  0  0  0  0
  185.4140  178.4450  146.4750 C   0  0  0  0  0  0  0  0  0  0  0  0
  194.0340  174.5770  143.8330 C   0  0  0  0  0  2  0  0  0  0  0  0
  189.5800  174.9400  141.5590 N   0  0  0  0  0  0  0  0  0  0  0  0
  190.4470  175.5920  143.6910 C   0  0  0  0  0  0  0  0  0  0  0  0
  189.3950  175.5320  142.7730 C   0  0  0  0  0  0  0  0  0  0  0  0
  187.9380  176.6970  144.3540 C   0  0  0  0  0  0  0  0  0  0  0  0
  185.8070  178.8690  147.7360 C   0  0  0  0  0  3  0  0  0  0  0  0
  194.9680  175.5770  145.9420 C   0  0  0  0  0  2  0  0  0  0  0  0
  192.6910  175.1060  144.2570 C   0  0  0  0  0  0  0  0  0  0  0  0
  187.1050  178.5430  147.9500 N   0  0  0  0  0  0  0  0  0  0  0  0
  193.5760  175.7790  146.5400 C   0  0  0  0  0  2  0  0  0  0  0  0
  187.1070  176.0010  142.1500 C   0  0  0  0  0  3  0  0  0  0  0  0
  188.1380  176.0840  143.1010 C   0  0  0  0  0  0  0  0  0  0  0  0
  186.6770  177.2460  144.6720 C   0  0  0  0  0  3  0  0  0  0  0  0
  191.3010  176.2400  145.7940 O   0  0  0  0  0  0  0  0  0  0  0  0
  189.8270  177.5220  147.6380 C   0  0  0  0  0  1  0  0  0  0  0  0
  184.0660  178.6150  145.8660 C   0  0  0  0  0  1  0  0  0  0  0  0
  189.0150  176.7660  145.3060 C   0  0  0  0  0  0  0  0  0  0  0  0
  186.5090  177.8430  145.9110 C   0  0  0  0  0  0  0  0  0  0  0  0
  194.7010  173.0650  145.7260 C   0  0  0  0  0  2  0  0  0  0  0  0
  195.8050  170.8210  145.9650 C   0  0  0  0  0  0  0  0  0  0  0  0
  195.8900  172.2300  145.7630 N   0  0  0  0  0  2  0  0  0  0  0  0
  196.8560  170.1300  145.9890 O   0  0  0  0  0  0  0  0  0  0  0  0
  194.5710  170.2040  146.1360 O   0  0  0  0  0  1  0  0  0  0  0  0
  1 28  1  1  0  0  0
  1 16  1  0  0  0  0
  2 26  2  0  0  0  0
  2 23  1  0  0  0  0
  3  4  2  0  0  0  0
  3 11  1  0  0  0  0
  4 20  1  0  0  0  0
  5  6  2  0  0  0  0
  5 24  1  0  0  0  0
  6 18  1  0  0  0  0
  7 23  1  0  0  0  0
  7 19  1  0  0  0  0
  8 12  2  0  0  0  0
  8 17  1  0  0  0  0
  9 15  1  0  0  0  0
 10 17  1  0  0  0  0
 10  1  1  0  0  0  0
 11 13  2  0  0  0  0
 12  2  1  0  0  0  0
 13 21  1  0  0  0  0
 13 12  1  0  0  0  0
 14 22  2  0  0  0  0
 14 26  1  0  0  0  0
 15 18  2  0  0  0  0
 16 19  1  0  0  0  0
 17  7  2  0  0  0  0
 20 21  2  0  0  0  0
 21 14  1  0  0  0  0
 22 27  1  0  0  0  0
 25  9  1  0  0  0  0
 26  5  1  0  0  0  0
 27  9  2  0  0  0  0
 27  6  1  0  0  0  0
 28 30  1  0  0  0  0
 29 31  2  0  0  0  0
 29 32  1  0  0  0  0
 30 29  1  0  0  0  0
M  END
>  <MODEL>
5

>  <REMARK>
 VINA RESULT:      -8.3      2.354      4.977
  Name = 
  2 active torsions:
  status: ('A' for Active; 'I' for Inactive)
    1  A    between atoms: C_2  and  C_24
    2  A    between atoms: N_10  and  C_24
                            x       y       z     vdW  Elec       q    Type
                         _______ _______ _______ _____ _____    ______ ____

>  <TORSDO>
F 2

$$$$
=
 OpenBabel11042419353D

 32 37  0  0  1  0  0  0  0  0999 V2000
  185.8800  177.2680  143.9290 C   0  0  1  0  0  3  0  0  0  0  0  0
  190.5220  175.5690  142.7760 C   0  0  0  0  0  0  0  0  0  0  0  0
  189.7070  172.3690  139.2580 C   0  0  0  0  0  3  0  0  0  0  0  0
  191.0720  172.1430  139.0940 C   0  0  0  0  0  3  0  0  0  0  0  0
  192.8600  176.0990  143.4840 C   0  0  0  0  0  0  0  0  0  0  0  0
  194.2220  175.8520  143.2970 C   0  0  0  0  0  0  0  0  0  0  0  0
  188.6990  176.6120  143.8060 C   0  0  0  0  0  0  0  0  0  0  0  0
  188.3010  175.0390  142.0720 N   0  0  0  0  0  0  0  0  0  0  0  0
  196.0390  174.9670  142.4440 C   0  0  0  0  0  0  0  0  0  0  0  0
  186.3110  176.0310  143.1390 C   0  0  0  0  0  2  0  0  0  0  0  0
  189.2710  173.2550  140.1930 N   0  0  0  0  0  0  0  0  0  0  0  0
  189.6400  174.8470  141.9400 C   0  0  0  0  0  0  0  0  0  0  0  0
  190.1330  173.9460  140.9920 C   0  0  0  0  0  0  0  0  0  0  0  0
  192.4220  174.4600  141.6830 C   0  0  0  0  0  0  0  0  0  0  0  0
  196.3730  175.8720  143.4430 C   0  0  0  0  0  3  0  0  0  0  0  0
  186.7530  177.4350  145.1770 C   0  0  0  0  0  2  0  0  0  0  0  0
  187.8020  175.9140  142.9790 C   0  0  0  0  0  0  0  0  0  0  0  0
  195.2470  176.4160  143.9680 N   0  0  0  0  0  0  0  0  0  0  0  0
  188.2240  177.6260  144.8080 C   0  0  0  0  0  2  0  0  0  0  0  0
  191.9780  172.8350  139.8960 C   0  0  0  0  0  3  0  0  0  0  0  0
  191.5240  173.7490  140.8600 C   0  0  0  0  0  0  0  0  0  0  0  0
  193.8120  174.2550  141.5430 C   0  0  0  0  0  3  0  0  0  0  0  0
  190.0060  176.4160  143.6650 O   0  0  0  0  0  0  0  0  0  0  0  0
  192.4590  177.0880  144.5330 C   0  0  0  0  0  1  0  0  0  0  0  0
  196.9900  174.1630  141.6290 C   0  0  0  0  0  1  0  0  0  0  0  0
  191.9250  175.3890  142.6620 C   0  0  0  0  0  0  0  0  0  0  0  0
  194.6700  174.9670  142.3640 C   0  0  0  0  0  0  0  0  0  0  0  0
  185.8980  178.5080  143.0450 C   0  0  0  0  0  2  0  0  0  0  0  0
  184.6720  178.3010  140.8620 C   0  0  0  0  0  0  0  0  0  0  0  0
  184.6760  178.5780  142.2610 N   0  0  0  0  0  2  0  0  0  0  0  0
  183.5950  178.3690  140.2160 O   0  0  0  0  0  1  0  0  0  0  0  0
  185.8480  177.9550  140.2060 O   0  0  0  0  0  0  0  0  0  0  0  0
  1 28  1  6  0  0  0
  1 16  1  0  0  0  0
  2 23  1  0  0  0  0
  3 11  1  0  0  0  0
  4  3  2  0  0  0  0
  4 20  1  0  0  0  0
  5 24  1  0  0  0  0
  6  5  2  0  0  0  0
  6 18  1  0  0  0  0
  7 19  1  0  0  0  0
  8 17  1  0  0  0  0
  9 15  1  0  0  0  0
 10  1  1  0  0  0  0
 11 13  2  0  0  0  0
 12  8  2  0  0  0  0
 12  2  1  0  0  0  0
 13 12  1  0  0  0  0
 14 26  1  0  0  0  0
 15 18  2  0  0  0  0
 17 10  1  0  0  0  0
 17  7  2  0  0  0  0
 19 16  1  0  0  0  0
 20 21  2  0  0  0  0
 21 13  1  0  0  0  0
 21 14  1  0  0  0  0
 22 14  2  0  0  0  0
 22 27  1  0  0  0  0
 23  7  1  0  0  0  0
 25  9  1  0  0  0  0
 26  2  2  0  0  0  0
 26  5  1  0  0  0  0
 27  9  2  0  0  0  0
 27  6  1  0  0  0  0
 29 30  1  0  0  0  0
 30 28  1  0  0  0  0
 31 29  1  0  0  0  0
 32 29  2  0  0  0  0
M  END
>  <MODEL>
6

>  <REMARK>
 VINA RESULT:      -8.0      3.095      8.647
  Name = 
  2 active torsions:
  status: ('A' for Active; 'I' for Inactive)
    1  A    between atoms: C_2  and  C_24
    2  A    between atoms: N_10  and  C_24
                            x       y       z     vdW  Elec       q    Type
                         _______ _______ _______ _____ _____    ______ ____

>  <TORSDO>
F 2

$$$$
=
 OpenBabel11042419353D

 32 37  0  0  1  0  0  0  0  0999 V2000
  186.5890  177.6930  143.5090 C   0  0  1  0  0  3  0  0  0  0  0  0
  190.4490  174.4120  143.8030 C   0  0  0  0  0  0  0  0  0  0  0  0
  193.7260  176.7640  146.4480 C   0  0  0  0  0  3  0  0  0  0  0  0
  194.5830  175.6660  146.4360 C   0  0  0  0  0  3  0  0  0  0  0  0
  190.8760  172.0630  143.0590 C   0  0  0  0  0  0  0  0  0  0  0  0
  191.7550  170.9780  143.0640 C   0  0  0  0  0  0  0  0  0  0  0  0
  188.4610  175.5020  143.2260 C   0  0  0  0  0  0  0  0  0  0  0  0
  190.0750  176.6560  144.5310 N   0  0  0  0  0  0  0  0  0  0  0  0
  193.5590  169.8120  143.5100 C   0  0  0  0  0  0  0  0  0  0  0  0
  188.0450  177.9160  143.9210 C   0  0  0  0  0  2  0  0  0  0  0  0
  192.5290  176.7010  145.8080 N   0  0  0  0  0  0  0  0  0  0  0  0
  190.8820  175.5630  144.4990 C   0  0  0  0  0  0  0  0  0  0  0  0
  192.1220  175.5830  145.1420 C   0  0  0  0  0  0  0  0  0  0  0  0
  192.5450  173.2860  144.4160 C   0  0  0  0  0  0  0  0  0  0  0  0
  192.6780  169.0550  142.7490 C   0  0  0  0  0  3  0  0  0  0  0  0
  186.5150  176.7870  142.2760 C   0  0  0  0  0  2  0  0  0  0  0  0
  188.8650  176.6550  143.9210 C   0  0  0  0  0  0  0  0  0  0  0  0
  191.5650  169.7790  142.4750 N   0  0  0  0  0  0  0  0  0  0  0  0
  187.1190  175.4120  142.5580 C   0  0  0  0  0  2  0  0  0  0  0  0
  194.1960  174.5080  145.7630 C   0  0  0  0  0  3  0  0  0  0  0  0
  192.9580  174.4460  145.1030 C   0  0  0  0  0  0  0  0  0  0  0  0
  193.3880  172.1550  144.3840 C   0  0  0  0  0  3  0  0  0  0  0  0
  189.2600  174.4400  143.2030 O   0  0  0  0  0  0  0  0  0  0  0  0
  189.5750  171.9170  142.3340 C   0  0  0  0  0  1  0  0  0  0  0  0
  194.8900  169.3760  144.0130 C   0  0  0  0  0  1  0  0  0  0  0  0
  191.2710  173.2550  143.7490 C   0  0  0  0  0  0  0  0  0  0  0  0
  192.9570  171.0290  143.7010 C   0  0  0  0  0  0  0  0  0  0  0  0
  185.7740  177.1460  144.6740 C   0  0  0  0  0  2  0  0  0  0  0  0
  185.3140  178.7310  146.5680 C   0  0  0  0  0  0  0  0  0  0  0  0
  186.1710  177.8010  145.9100 N   0  0  0  0  0  2  0  0  0  0  0  0
  185.6910  179.2770  147.6380 O   0  0  0  0  0  1  0  0  0  0  0  0
  184.0660  179.0400  146.0400 O   0  0  0  0  0  0  0  0  0  0  0  0
  1 10  1  0  0  0  0
  1 28  1  1  0  0  0
  2 12  1  0  0  0  0
  4  3  1  0  0  0  0
  5  6  2  0  0  0  0
  5 26  1  0  0  0  0
  6 27  1  0  0  0  0
  7 17  2  0  0  0  0
  9 27  2  0  0  0  0
  9 25  1  0  0  0  0
 11  3  2  0  0  0  0
 12  8  2  0  0  0  0
 12 13  1  0  0  0  0
 13 11  1  0  0  0  0
 14 21  1  0  0  0  0
 15  9  1  0  0  0  0
 16 19  1  0  0  0  0
 16  1  1  0  0  0  0
 17 10  1  0  0  0  0
 17  8  1  0  0  0  0
 18 15  2  0  0  0  0
 18  6  1  0  0  0  0
 19  7  1  0  0  0  0
 20  4  2  0  0  0  0
 21 13  2  0  0  0  0
 21 20  1  0  0  0  0
 22 14  2  0  0  0  0
 23  7  1  0  0  0  0
 23  2  1  0  0  0  0
 24  5  1  0  0  0  0
 26  2  2  0  0  0  0
 26 14  1  0  0  0  0
 27 22  1  0  0  0  0
 28 30  1  0  0  0  0
 29 31  1  0  0  0  0
 30 29  1  0  0  0  0
 32 29  2  0  0  0  0
M  END
>  <MODEL>
7

>  <REMARK>
 VINA RESULT:      -7.9      3.233      8.133
  Name = 
  2 active torsions:
  status: ('A' for Active; 'I' for Inactive)
    1  A    between atoms: C_2  and  C_24
    2  A    between atoms: N_10  and  C_24
                            x       y       z     vdW  Elec       q    Type
                         _______ _______ _______ _____ _____    ______ ____

>  <TORSDO>
F 2

$$$$
=
 OpenBabel11042419353D

 32 37  0  0  1  0  0  0  0  0999 V2000
  194.0170  171.9440  143.0740 C   0  0  1  0  0  3  0  0  0  0  0  0
  190.2990  175.2550  144.0570 C   0  0  0  0  0  0  0  0  0  0  0  0
  191.4890  177.0310  148.3820 C   0  0  0  0  0  3  0  0  0  0  0  0
  190.4110  177.9130  148.3610 C   0  0  0  0  0  3  0  0  0  0  0  0
  188.3040  176.1370  142.8360 C   0  0  0  0  0  0  0  0  0  0  0  0
  187.2310  177.0320  142.8420 C   0  0  0  0  0  0  0  0  0  0  0  0
  191.6140  173.5600  143.1250 C   0  0  0  0  0  0  0  0  0  0  0  0
  192.1990  174.4380  145.2530 N   0  0  0  0  0  0  0  0  0  0  0  0
  185.8920  178.6100  143.5680 C   0  0  0  0  0  0  0  0  0  0  0  0
  193.6090  172.6080  144.3890 C   0  0  0  0  0  2  0  0  0  0  0  0
  191.7000  176.1870  147.3370 N   0  0  0  0  0  0  0  0  0  0  0  0
  191.1380  175.2860  145.1940 C   0  0  0  0  0  0  0  0  0  0  0  0
  190.8830  176.1700  146.2460 C   0  0  0  0  0  0  0  0  0  0  0  0
  188.9290  177.0340  145.0550 C   0  0  0  0  0  0  0  0  0  0  0  0
  185.4720  178.1640  142.3220 C   0  0  0  0  0  3  0  0  0  0  0  0
  192.7770  171.4840  142.3010 C   0  0  0  0  0  2  0  0  0  0  0  0
  192.4690  173.5780  144.2400 C   0  0  0  0  0  0  0  0  0  0  0  0
  186.3020  177.1890  141.8770 N   0  0  0  0  0  0  0  0  0  0  0  0
  191.8710  172.6630  141.9480 C   0  0  0  0  0  2  0  0  0  0  0  0
  189.5580  177.9180  147.2590 C   0  0  0  0  0  3  0  0  0  0  0  0
  189.7790  177.0460  146.1810 C   0  0  0  0  0  0  0  0  0  0  0  0
  187.8280  177.9150  145.0000 C   0  0  0  0  0  3  0  0  0  0  0  0
  190.5810  174.3950  143.0800 O   0  0  0  0  0  0  0  0  0  0  0  0
  188.4700  175.2410  141.6490 C   0  0  0  0  0  1  0  0  0  0  0  0
  185.2470  179.6710  144.3890 C   0  0  0  0  0  1  0  0  0  0  0  0
  189.1820  176.1270  143.9670 C   0  0  0  0  0  0  0  0  0  0  0  0
  187.0100  177.8810  143.8830 C   0  0  0  0  0  0  0  0  0  0  0  0
  194.8980  172.8730  142.2480 C   0  0  0  0  0  2  0  0  0  0  0  0
  195.8290  175.0070  143.1910 C   0  0  0  0  0  0  0  0  0  0  0  0
  195.8230  173.5840  143.1150 N   0  0  0  0  0  2  0  0  0  0  0  0
  196.6430  175.5880  143.9540 O   0  0  0  0  0  1  0  0  0  0  0  0
  194.9430  175.7600  142.4290 O   0  0  0  0  0  0  0  0  0  0  0  0
  1 28  1  6  0  0  0
  1 10  1  0  0  0  0
  2 12  1  0  0  0  0
  4  3  1  0  0  0  0
  5  6  2  0  0  0  0
  5 26  1  0  0  0  0
  6 27  1  0  0  0  0
  7 17  2  0  0  0  0
  9 27  2  0  0  0  0
  9 25  1  0  0  0  0
 11  3  2  0  0  0  0
 12  8  2  0  0  0  0
 12 13  1  0  0  0  0
 13 11  1  0  0  0  0
 14 21  1  0  0  0  0
 15  9  1  0  0  0  0
 16  1  1  0  0  0  0
 17 10  1  0  0  0  0
 17  8  1  0  0  0  0
 18 15  2  0  0  0  0
 18  6  1  0  0  0  0
 19 16  1  0  0  0  0
 19  7  1  0  0  0  0
 20  4  2  0  0  0  0
 21 13  2  0  0  0  0
 21 20  1  0  0  0  0
 22 14  2  0  0  0  0
 23  7  1  0  0  0  0
 23  2  1  0  0  0  0
 24  5  1  0  0  0  0
 26  2  2  0  0  0  0
 26 14  1  0  0  0  0
 27 22  1  0  0  0  0
 28 30  1  0  0  0  0
 29 31  1  0  0  0  0
 30 29  1  0  0  0  0
 32 29  2  0  0  0  0
M  END
>  <MODEL>
8

>  <REMARK>
 VINA RESULT:      -7.7      2.103      3.521
  Name = 
  2 active torsions:
  status: ('A' for Active; 'I' for Inactive)
    1  A    between atoms: C_2  and  C_24
    2  A    between atoms: N_10  and  C_24
                            x       y       z     vdW  Elec       q    Type
                         _______ _______ _______ _____ _____    ______ ____

>  <TORSDO>
F 2

$$$$
=
 OpenBabel11042419353D

 32 37  0  0  1  0  0  0  0  0999 V2000
  192.1150  172.2710  141.2370 C   0  0  1  0  0  3  0  0  0  0  0  0
  188.6640  175.4150  143.2280 C   0  0  0  0  0  0  0  0  0  0  0  0
  186.3830  177.1760  139.3580 C   0  0  0  0  0  3  0  0  0  0  0  0
  185.4970  177.8950  140.1580 C   0  0  0  0  0  3  0  0  0  0  0  0
  187.9160  176.0440  145.5290 C   0  0  0  0  0  0  0  0  0  0  0  0
  187.0150  176.7750  146.3060 C   0  0  0  0  0  0  0  0  0  0  0  0
  190.4760  173.9700  142.9160 C   0  0  0  0  0  0  0  0  0  0  0  0
  189.3490  174.8360  141.0130 N   0  0  0  0  0  0  0  0  0  0  0  0
  185.3430  178.1160  146.7770 C   0  0  0  0  0  0  0  0  0  0  0  0
  191.2880  173.3750  140.5780 C   0  0  0  0  0  2  0  0  0  0  0  0
  187.3510  176.4120  139.9300 N   0  0  0  0  0  0  0  0  0  0  0  0
  188.5030  175.5200  141.8270 C   0  0  0  0  0  0  0  0  0  0  0  0
  187.4930  176.3180  141.2830 C   0  0  0  0  0  0  0  0  0  0  0  0
  186.7600  176.9370  143.5320 C   0  0  0  0  0  0  0  0  0  0  0  0
  185.9340  177.6610  147.9470 C   0  0  0  0  0  3  0  0  0  0  0  0
  192.6520  172.7430  142.5920 C   0  0  0  0  0  2  0  0  0  0  0  0
  190.3310  174.0500  141.5210 C   0  0  0  0  0  0  0  0  0  0  0  0
  186.9670  176.8330  147.6520 N   0  0  0  0  0  0  0  0  0  0  0  0
  191.5150  173.0910  143.5520 C   0  0  0  0  0  2  0  0  0  0  0  0
  185.6170  177.8200  141.5450 C   0  0  0  0  0  3  0  0  0  0  0  0
  186.6190  177.0300  142.1320 C   0  0  0  0  0  0  0  0  0  0  0  0
  185.8790  177.6520  144.3730 C   0  0  0  0  0  3  0  0  0  0  0  0
  189.6410  174.6440  143.7000 O   0  0  0  0  0  0  0  0  0  0  0  0
  188.9530  175.2260  146.2320 C   0  0  0  0  0  1  0  0  0  0  0  0
  184.1820  179.0410  146.6760 C   0  0  0  0  0  1  0  0  0  0  0  0
  187.7960  176.1200  144.1030 C   0  0  0  0  0  0  0  0  0  0  0  0
  186.0410  177.5440  145.7440 C   0  0  0  0  0  0  0  0  0  0  0  0
  191.3050  170.9860  141.3560 C   0  0  0  0  0  2  0  0  0  0  0  0
  190.7750  169.9490  139.1310 C   0  0  0  0  0  0  0  0  0  0  0  0
  190.4410  170.8340  140.1970 N   0  0  0  0  0  2  0  0  0  0  0  0
  190.0010  169.8410  138.1440 O   0  0  0  0  0  0  0  0  0  0  0  0
  191.9470  169.2030  139.1710 O   0  0  0  0  0  1  0  0  0  0  0  0
  1 28  1  1  0  0  0
  1 16  1  0  0  0  0
  2 23  1  0  0  0  0
  2 26  2  0  0  0  0
  3 11  2  0  0  0  0
  3  4  1  0  0  0  0
  4 20  2  0  0  0  0
  5 24  1  0  0  0  0
  5  6  2  0  0  0  0
  6 18  1  0  0  0  0
  7 19  1  0  0  0  0
  7 23  1  0  0  0  0
  8 17  1  0  0  0  0
  8 12  2  0  0  0  0
  9 15  1  0  0  0  0
 10  1  1  0  0  0  0
 10 17  1  0  0  0  0
 11 13  1  0  0  0  0
 12  2  1  0  0  0  0
 13 12  1  0  0  0  0
 13 21  2  0  0  0  0
 14 26  1  0  0  0  0
 14 22  2  0  0  0  0
 16 19  1  0  0  0  0
 17  7  2  0  0  0  0
 18 15  2  0  0  0  0
 20 21  1  0  0  0  0
 21 14  1  0  0  0  0
 22 27  1  0  0  0  0
 25  9  1  0  0  0  0
 26  5  1  0  0  0  0
 27  6  1  0  0  0  0
 27  9  2  0  0  0  0
 29 32  1  0  0  0  0
 29 30  1  0  0  0  0
 30 28  1  0  0  0  0
 31 29  2  0  0  0  0
M  END
>  <MODEL>
9

>  <REMARK>
 VINA RESULT:      -7.7      3.299      5.998
  Name = 
  2 active torsions:
  status: ('A' for Active; 'I' for Inactive)
    1  A    between atoms: C_2  and  C_24
    2  A    between atoms: N_10  and  C_24
                            x       y       z     vdW  Elec       q    Type
                         _______ _______ _______ _____ _____    ______ ____

>  <TORSDO>
F 2

$$$$
