=
 OpenBabel11042413433D

 30 34  0  0  1  0  0  0  0  0999 V2000
  192.1590  174.5020  144.3600 N   0  0  0  0  0  0  0  0  0  0  0  0
  195.7030  174.0750  145.7720 C   0  0  0  0  0  0  0  0  0  0  0  0
  193.4760  174.5160  144.9270 C   0  0  0  0  0  0  0  0  0  0  0  0
  190.6050  175.8780  143.0180 C   0  0  1  0  0  3  0  0  0  0  0  0
  191.5670  173.2460  143.9010 C   0  0  0  0  0  2  0  0  0  0  0  0
  196.9610  173.5590  146.1910 N   0  0  0  0  0  1  0  0  0  0  0  0
  194.4850  173.1680  145.0580 S   0  0  0  0  0  0  0  0  0  0  0  0
  190.1950  173.5030  143.2900 C   0  0  0  0  0  2  0  0  0  0  0  0
  191.3620  175.7260  144.3490 C   0  0  0  0  0  2  0  0  0  0  0  0
  190.2920  174.6070  142.3210 N   0  0  1  0  0  0  0  0  0  0  0  0
  188.4750  176.0680  142.3150 N   0  0  0  0  0  0  0  0  0  0  0  0
  189.0110  174.8950  141.6570 C   0  0  2  0  0  3  0  0  0  0  0  0
  189.3750  176.6350  143.2210 N   0  0  0  0  0  2  0  0  0  0  0  0
  195.3100  175.3980  145.8930 C   0  0  0  0  0  3  0  0  0  0  0  0
  194.0580  175.6360  145.4170 N   0  0  0  0  0  0  0  0  0  0  0  0
  186.3350  177.2450  142.7750 C   0  0  0  0  0  0  0  0  0  0  0  0
  187.2990  176.7720  141.8720 C   0  0  0  0  0  0  0  0  0  0  0  0
  185.0170  177.7870  144.6170 N   0  0  0  0  0  0  0  0  0  0  0  0
  186.2720  177.1120  144.2750 C   0  0  0  0  0  2  0  0  0  0  0  0
  185.9260  177.7080  140.0800 C   0  0  0  0  0  3  0  0  0  0  0  0
  187.0780  177.0170  140.5010 C   0  0  0  0  0  3  0  0  0  0  0  0
  185.2260  177.9140  142.3070 C   0  0  0  0  0  0  0  0  0  0  0  0
  184.4880  177.9290  145.9620 C   0  0  0  0  0  1  0  0  0  0  0  0
  185.0110  178.1470  140.9890 N   0  0  0  0  0  0  0  0  0  0  0  0
  183.3010  178.8760  143.3850 O   0  0  0  0  0  0  0  0  0  0  0  0
  184.3980  178.2600  143.4290 C   0  0  0  0  0  0  0  0  0  0  0  0
  188.0000  173.7390  141.6420 C   0  0  0  0  0  2  0  0  0  0  0  0
  188.2030  172.9220  140.4600 N   0  0  0  0  0  2  0  0  0  0  0  0
  188.2610  173.5220  139.1970 C   0  0  0  0  0  0  0  0  0  0  0  0
  188.3090  174.0180  138.1520 N   0  0  0  0  0  0  0  0  0  0  0  0
  1  3  1  0  0  0  0
  2 14  2  0  0  0  0
  2  6  1  0  0  0  0
  3  7  1  0  0  0  0
  3 15  2  0  0  0  0
  4 13  1  0  0  0  0
  4  9  1  1  0  0  0
  5  1  1  0  0  0  0
  7  2  1  0  0  0  0
  8  5  1  0  0  0  0
  9  1  1  0  0  0  0
 10  4  1  0  0  0  0
 10  8  1  1  0  0  0
 11 13  1  0  0  0  0
 12 27  1  1  0  0  0
 12 11  1  0  0  0  0
 12 10  1  0  0  0  0
 15 14  1  0  0  0  0
 16 19  1  0  0  0  0
 17 11  1  0  0  0  0
 17 16  2  0  0  0  0
 18 23  1  0  0  0  0
 19 18  1  0  0  0  0
 20 21  2  0  0  0  0
 20 24  1  0  0  0  0
 21 17  1  0  0  0  0
 22 16  1  0  0  0  0
 22 26  1  0  0  0  0
 24 22  2  0  0  0  0
 25 26  2  0  0  0  0
 26 18  1  0  0  0  0
 28 27  1  0  0  0  0
 29 28  1  0  0  0  0
 30 29  3  0  0  0  0
M  END
>  <MODEL>
1

>  <REMARK>
 VINA RESULT:      -7.3      0.000      0.000
  Name = 
  4 active torsions:
  status: ('A' for Active; 'I' for Inactive)
    1  A    between atoms: C_6  and  N_8
    2  A    between atoms: N_8  and  C_24
    3  A    between atoms: C_11  and  N_18
    4  A    between atoms: C_20  and  C_24
                            x       y       z     vdW  Elec       q    Type
                         _______ _______ _______ _____ _____    ______ ____

>  <TORSDO>
F 4

$$$$
=
 OpenBabel11042413433D

 30 34  0  0  1  0  0  0  0  0999 V2000
  187.0650  177.0820  143.2910 N   0  0  0  0  0  0  0  0  0  0  0  0
  184.0140  178.2810  141.2930 C   0  0  0  0  0  0  0  0  0  0  0  0
  186.0280  177.5140  142.4000 C   0  0  0  0  0  0  0  0  0  0  0  0
  189.5060  177.2240  143.6480 C   0  0  1  0  0  3  0  0  0  0  0  0
  186.7890  176.9100  144.7170 C   0  0  0  0  0  2  0  0  0  0  0  0
  182.7260  178.7300  140.8940 N   0  0  0  0  0  1  0  0  0  0  0  0
  184.4610  177.9300  142.8720 S   0  0  0  0  0  0  0  0  0  0  0  0
  188.0580  176.5040  145.4550 C   0  0  0  0  0  2  0  0  0  0  0  0
  188.3690  176.7000  142.7550 C   0  0  0  0  0  2  0  0  0  0  0  0
  189.1530  177.4110  145.0760 N   0  0  1  0  0  0  0  0  0  0  0  0
  191.2320  176.3870  144.8260 N   0  0  0  0  0  0  0  0  0  0  0  0
  190.4110  177.1070  145.7760 C   0  0  2  0  0  3  0  0  0  0  0  0
  190.6710  176.3510  143.5470 N   0  0  0  0  0  2  0  0  0  0  0  0
  185.0810  178.0720  140.4340 C   0  0  0  0  0  3  0  0  0  0  0  0
  186.2070  177.6420  141.0640 N   0  0  0  0  0  0  0  0  0  0  0  0
  193.0500  174.6990  144.9890 C   0  0  0  0  0  0  0  0  0  0  0  0
  192.6080  176.0280  145.0600 C   0  0  0  0  0  0  0  0  0  0  0  0
  193.2910  172.3900  144.8060 N   0  0  0  0  0  0  0  0  0  0  0  0
  192.2710  173.4370  144.7180 C   0  0  0  0  0  2  0  0  0  0  0  0
  194.9100  176.6530  145.5940 C   0  0  0  0  0  3  0  0  0  0  0  0
  193.5680  177.0140  145.3690 C   0  0  0  0  0  3  0  0  0  0  0  0
  194.3740  174.4020  145.2190 C   0  0  0  0  0  0  0  0  0  0  0  0
  193.0430  170.9700  144.6250 C   0  0  0  0  0  1  0  0  0  0  0  0
  195.2980  175.3480  145.5190 N   0  0  0  0  0  0  0  0  0  0  0  0
  195.6230  172.3450  145.2590 O   0  0  0  0  0  0  0  0  0  0  0  0
  194.5460  172.9810  145.1100 C   0  0  0  0  0  0  0  0  0  0  0  0
  190.2630  176.3400  147.0980 C   0  0  0  0  0  2  0  0  0  0  0  0
  191.4340  176.5560  147.9270 N   0  0  0  0  0  2  0  0  0  0  0  0
  191.4150  177.5410  148.9200 C   0  0  0  0  0  0  0  0  0  0  0  0
  191.4010  178.3560  149.7420 N   0  0  0  0  0  0  0  0  0  0  0  0
  1  5  1  0  0  0  0
  2  7  1  0  0  0  0
  3  7  1  0  0  0  0
  3  1  1  0  0  0  0
  4  9  1  6  0  0  0
  4 10  1  0  0  0  0
  5  8  1  0  0  0  0
  6  2  1  0  0  0  0
  9  1  1  0  0  0  0
 10  8  1  1  0  0  0
 10 12  1  0  0  0  0
 11 17  1  0  0  0  0
 11 12  1  0  0  0  0
 12 27  1  1  0  0  0
 13  4  1  0  0  0  0
 13 11  1  0  0  0  0
 14 15  1  0  0  0  0
 14  2  2  0  0  0  0
 15  3  2  0  0  0  0
 16 17  2  0  0  0  0
 16 22  1  0  0  0  0
 17 21  1  0  0  0  0
 18 26  1  0  0  0  0
 19 18  1  0  0  0  0
 19 16  1  0  0  0  0
 21 20  2  0  0  0  0
 22 24  2  0  0  0  0
 23 18  1  0  0  0  0
 24 20  1  0  0  0  0
 26 22  1  0  0  0  0
 26 25  2  0  0  0  0
 27 28  1  0  0  0  0
 28 29  1  0  0  0  0
 29 30  3  0  0  0  0
M  END
>  <MODEL>
2

>  <REMARK>
 VINA RESULT:      -6.9      4.028      9.196
  Name = 
  4 active torsions:
  status: ('A' for Active; 'I' for Inactive)
    1  A    between atoms: C_6  and  N_8
    2  A    between atoms: N_8  and  C_24
    3  A    between atoms: C_11  and  N_18
    4  A    between atoms: C_20  and  C_24
                            x       y       z     vdW  Elec       q    Type
                         _______ _______ _______ _____ _____    ______ ____

>  <TORSDO>
F 4

$$$$
=
 OpenBabel11042413433D

 30 34  0  0  1  0  0  0  0  0999 V2000
  188.8470  177.1460  145.4020 N   0  0  0  0  0  0  0  0  0  0  0  0
  185.1560  178.0710  145.9100 C   0  0  0  0  0  0  0  0  0  0  0  0
  187.4720  177.3820  145.7330 C   0  0  0  0  0  0  0  0  0  0  0  0
  190.5620  175.3660  145.3740 C   0  0  1  0  0  3  0  0  0  0  0  0
  189.4800  177.8800  144.3070 C   0  0  0  0  0  2  0  0  0  0  0  0
  183.8530  178.6290  145.7970 N   0  0  0  0  0  1  0  0  0  0  0  0
  186.4440  178.4260  144.8940 S   0  0  0  0  0  0  0  0  0  0  0  0
  190.9170  177.4100  144.1180 C   0  0  0  0  0  2  0  0  0  0  0  0
  189.6500  176.2550  146.2370 C   0  0  0  0  0  2  0  0  0  0  0  0
  190.9460  175.9400  144.0610 N   0  0  1  0  0  0  0  0  0  0  0  0
  192.7620  174.9530  145.1380 N   0  0  0  0  0  0  0  0  0  0  0  0
  192.2990  175.4060  143.8440 C   0  0  2  0  0  3  0  0  0  0  0  0
  191.7650  175.0070  146.1160 N   0  0  0  0  0  2  0  0  0  0  0  0
  185.5440  177.1540  146.8740 C   0  0  0  0  0  3  0  0  0  0  0  0
  186.8450  176.7730  146.7660 N   0  0  0  0  0  0  0  0  0  0  0  0
  194.0780  172.8440  145.1230 C   0  0  0  0  0  0  0  0  0  0  0  0
  193.9890  174.2260  145.3450 C   0  0  0  0  0  0  0  0  0  0  0  0
  193.7270  170.5860  144.6720 N   0  0  0  0  0  0  0  0  0  0  0  0
  193.0130  171.8660  144.6960 C   0  0  0  0  0  2  0  0  0  0  0  0
  196.3490  174.1690  145.9780 C   0  0  0  0  0  3  0  0  0  0  0  0
  195.1560  174.8880  145.7800 C   0  0  0  0  0  3  0  0  0  0  0  0
  195.2710  172.1900  145.3330 C   0  0  0  0  0  0  0  0  0  0  0  0
  193.1310  169.3080  144.3220 C   0  0  0  0  0  1  0  0  0  0  0  0
  196.3920  172.8250  145.7540 N   0  0  0  0  0  0  0  0  0  0  0  0
  195.9480  169.8880  145.1460 O   0  0  0  0  0  0  0  0  0  0  0  0
  195.0770  170.7930  145.0600 C   0  0  0  0  0  0  0  0  0  0  0  0
  193.2950  176.3750  143.1900 C   0  0  0  0  0  2  0  0  0  0  0  0
  193.9540  175.7250  142.0720 N   0  0  0  0  0  2  0  0  0  0  0  0
  195.1520  176.2420  141.5710 C   0  0  0  0  0  0  0  0  0  0  0  0
  196.1450  176.6700  141.1560 N   0  0  0  0  0  0  0  0  0  0  0  0
  1  3  1  0  0  0  0
  1  9  1  0  0  0  0
  2 14  2  0  0  0  0
  3 15  2  0  0  0  0
  4 13  1  0  0  0  0
  4  9  1  1  0  0  0
  5  1  1  0  0  0  0
  6  2  1  0  0  0  0
  7  3  1  0  0  0  0
  7  2  1  0  0  0  0
  8  5  1  0  0  0  0
 10  8  1  1  0  0  0
 10  4  1  0  0  0  0
 11 17  1  0  0  0  0
 11 13  1  0  0  0  0
 12 27  1  1  0  0  0
 12 10  1  0  0  0  0
 12 11  1  0  0  0  0
 15 14  1  0  0  0  0
 16 22  2  0  0  0  0
 16 17  1  0  0  0  0
 17 21  2  0  0  0  0
 18 19  1  0  0  0  0
 18 26  1  0  0  0  0
 19 16  1  0  0  0  0
 21 20  1  0  0  0  0
 22 24  1  0  0  0  0
 23 18  1  0  0  0  0
 24 20  2  0  0  0  0
 26 25  2  0  0  0  0
 26 22  1  0  0  0  0
 28 27  1  0  0  0  0
 29 28  1  0  0  0  0
 30 29  3  0  0  0  0
M  END
>  <MODEL>
3

>  <REMARK>
 VINA RESULT:      -6.8      4.685      9.072
  Name = 
  4 active torsions:
  status: ('A' for Active; 'I' for Inactive)
    1  A    between atoms: C_6  and  N_8
    2  A    between atoms: N_8  and  C_24
    3  A    between atoms: C_11  and  N_18
    4  A    between atoms: C_20  and  C_24
                            x       y       z     vdW  Elec       q    Type
                         _______ _______ _______ _____ _____    ______ ____

>  <TORSDO>
F 4

$$$$
=
 OpenBabel11042413433D

 30 34  0  0  1  0  0  0  0  0999 V2000
  187.9980  176.3020  142.8340 N   0  0  0  0  0  0  0  0  0  0  0  0
  185.2920  178.0310  140.7310 C   0  0  0  0  0  0  0  0  0  0  0  0
  187.0750  176.8870  141.9060 C   0  0  0  0  0  0  0  0  0  0  0  0
  190.4030  175.8210  143.1430 C   0  0  1  0  0  3  0  0  0  0  0  0
  187.7510  176.3840  144.2730 C   0  0  0  0  0  2  0  0  0  0  0  0
  184.1530  178.7600  140.2920 N   0  0  0  0  0  1  0  0  0  0  0  0
  185.7000  177.7660  142.3370 S   0  0  0  0  0  0  0  0  0  0  0  0
  188.8980  175.7420  145.0430 C   0  0  0  0  0  2  0  0  0  0  0  0
  189.1280  175.5200  142.3370 C   0  0  0  0  0  2  0  0  0  0  0  0
  190.1770  176.2670  144.5390 N   0  0  1  0  0  0  0  0  0  0  0  0
  191.8940  174.6960  144.4000 N   0  0  0  0  0  0  0  0  0  0  0  0
  191.3390  175.7210  145.2590 C   0  0  2  0  0  3  0  0  0  0  0  0
  191.2860  174.6590  143.1420 N   0  0  0  0  0  2  0  0  0  0  0  0
  186.2250  177.4400  139.8950 C   0  0  0  0  0  3  0  0  0  0  0  0
  187.2220  176.8000  140.5630 N   0  0  0  0  0  0  0  0  0  0  0  0
  194.3780  174.5980  144.3930 C   0  0  0  0  0  0  0  0  0  0  0  0
  193.1340  174.0100  144.6630 C   0  0  0  0  0  0  0  0  0  0  0  0
  196.1630  175.9460  143.7450 N   0  0  0  0  0  0  0  0  0  0  0  0
  194.6990  175.9390  143.7850 C   0  0  0  0  0  2  0  0  0  0  0  0
  194.3530  172.0500  145.4660 C   0  0  0  0  0  3  0  0  0  0  0  0
  193.1360  172.7110  145.2110 C   0  0  0  0  0  3  0  0  0  0  0  0
  195.5370  173.9060  144.6610 C   0  0  0  0  0  0  0  0  0  0  0  0
  196.9770  177.0340  143.2310 C   0  0  0  0  0  1  0  0  0  0  0  0
  195.5410  172.6560  145.1860 N   0  0  0  0  0  0  0  0  0  0  0  0
  197.8710  174.4140  144.3650 O   0  0  0  0  0  0  0  0  0  0  0  0
  196.6530  174.7200  144.2700 C   0  0  0  0  0  0  0  0  0  0  0  0
  191.0510  175.1870  146.6690 C   0  0  0  0  0  2  0  0  0  0  0  0
  191.9900  175.7620  147.6140 N   0  0  0  0  0  2  0  0  0  0  0  0
  191.6200  176.8700  148.3830 C   0  0  0  0  0  0  0  0  0  0  0  0
  191.3120  177.7880  149.0180 N   0  0  0  0  0  0  0  0  0  0  0  0
  1  5  1  0  0  0  0
  2  7  1  0  0  0  0
  3  7  1  0  0  0  0
  3  1  1  0  0  0  0
  4  9  1  1  0  0  0
  4 10  1  0  0  0  0
  5  8  1  0  0  0  0
  6  2  1  0  0  0  0
  9  1  1  0  0  0  0
 10  8  1  1  0  0  0
 10 12  1  0  0  0  0
 11 17  1  0  0  0  0
 11 12  1  0  0  0  0
 12 27  1  1  0  0  0
 13  4  1  0  0  0  0
 13 11  1  0  0  0  0
 14 15  1  0  0  0  0
 14  2  2  0  0  0  0
 15  3  2  0  0  0  0
 16 22  2  0  0  0  0
 16 17  1  0  0  0  0
 17 21  2  0  0  0  0
 18 19  1  0  0  0  0
 18 26  1  0  0  0  0
 19 16  1  0  0  0  0
 21 20  1  0  0  0  0
 22 24  1  0  0  0  0
 23 18  1  0  0  0  0
 24 20  2  0  0  0  0
 26 25  2  0  0  0  0
 26 22  1  0  0  0  0
 27 28  1  0  0  0  0
 28 29  1  0  0  0  0
 29 30  3  0  0  0  0
M  END
>  <MODEL>
4

>  <REMARK>
 VINA RESULT:      -6.8      3.951      9.291
  Name = 
  4 active torsions:
  status: ('A' for Active; 'I' for Inactive)
    1  A    between atoms: C_6  and  N_8
    2  A    between atoms: N_8  and  C_24
    3  A    between atoms: C_11  and  N_18
    4  A    between atoms: C_20  and  C_24
                            x       y       z     vdW  Elec       q    Type
                         _______ _______ _______ _____ _____    ______ ____

>  <TORSDO>
F 4

$$$$
=
 OpenBabel11042413433D

 30 34  0  0  1  0  0  0  0  0999 V2000
  191.2250  172.5360  142.2480 N   0  0  0  0  0  0  0  0  0  0  0  0
  193.0460  169.1840  142.6820 C   0  0  0  0  0  0  0  0  0  0  0  0
  191.7570  171.2080  142.3450 C   0  0  0  0  0  0  0  0  0  0  0  0
  189.1240  173.8120  142.5050 C   0  0  1  0  0  3  0  0  0  0  0  0
  192.0580  173.6920  142.5790 C   0  0  0  0  0  2  0  0  0  0  0  0
  193.9970  168.1660  142.9650 N   0  0  0  0  0  1  0  0  0  0  0  0
  193.3070  170.8280  142.8990 S   0  0  0  0  0  0  0  0  0  0  0  0
  191.2510  174.9780  142.4530 C   0  0  0  0  0  2  0  0  0  0  0  0
  189.8850  172.7420  141.7040 C   0  0  0  0  0  2  0  0  0  0  0  0
  189.9770  174.8250  143.1740 N   0  0  1  0  0  0  0  0  0  0  0  0
  188.1360  175.7990  142.1270 N   0  0  0  0  0  0  0  0  0  0  0  0
  189.1500  176.0420  143.1300 C   0  0  2  0  0  3  0  0  0  0  0  0
  188.1520  174.4850  141.6510 N   0  0  0  0  0  2  0  0  0  0  0  0
  191.7700  168.9620  142.1900 C   0  0  0  0  0  3  0  0  0  0  0  0
  191.0540  170.1030  142.0030 N   0  0  0  0  0  0  0  0  0  0  0  0
  186.2000  177.1530  142.9020 C   0  0  0  0  0  0  0  0  0  0  0  0
  187.0280  176.6850  141.8710 C   0  0  0  0  0  0  0  0  0  0  0  0
  185.1010  177.6160  144.9020 N   0  0  0  0  0  0  0  0  0  0  0  0
  186.2330  176.8470  144.3780 C   0  0  0  0  0  2  0  0  0  0  0  0
  185.6540  177.9840  140.3230 C   0  0  0  0  0  3  0  0  0  0  0  0
  186.7380  177.1180  140.5610 C   0  0  0  0  0  3  0  0  0  0  0  0
  185.1530  177.9980  142.6120 C   0  0  0  0  0  0  0  0  0  0  0  0
  184.6960  177.6540  146.2970 C   0  0  0  0  0  1  0  0  0  0  0  0
  184.8720  178.4130  141.3530 N   0  0  0  0  0  0  0  0  0  0  0  0
  183.4500  179.0390  143.9570 O   0  0  0  0  0  0  0  0  0  0  0  0
  184.4610  178.2990  143.8340 C   0  0  0  0  0  0  0  0  0  0  0  0
  189.9110  177.3480  142.8670 C   0  0  0  0  0  2  0  0  0  0  0  0
  189.9000  178.1740  144.0600 N   0  0  0  0  0  2  0  0  0  0  0  0
  189.9020  177.5760  145.3240 C   0  0  0  0  0  0  0  0  0  0  0  0
  189.9030  177.0810  146.3710 N   0  0  0  0  0  0  0  0  0  0  0  0
  1  3  1  0  0  0  0
  1  5  1  0  0  0  0
  2  7  1  0  0  0  0
  2  6  1  0  0  0  0
  3  7  1  0  0  0  0
  4  9  1  6  0  0  0
  4 10  1  0  0  0  0
  8  5  1  0  0  0  0
  9  1  1  0  0  0  0
 10  8  1  6  0  0  0
 11 12  1  0  0  0  0
 12 27  1  6  0  0  0
 12 10  1  0  0  0  0
 13 11  1  0  0  0  0
 13  4  1  0  0  0  0
 14  2  2  0  0  0  0
 15 14  1  0  0  0  0
 15  3  2  0  0  0  0
 16 19  1  0  0  0  0
 17 11  1  0  0  0  0
 17 16  2  0  0  0  0
 18 23  1  0  0  0  0
 19 18  1  0  0  0  0
 20 21  2  0  0  0  0
 20 24  1  0  0  0  0
 21 17  1  0  0  0  0
 22 16  1  0  0  0  0
 22 26  1  0  0  0  0
 24 22  2  0  0  0  0
 26 25  2  0  0  0  0
 26 18  1  0  0  0  0
 27 28  1  0  0  0  0
 28 29  1  0  0  0  0
 29 30  3  0  0  0  0
M  END
>  <MODEL>
5

>  <REMARK>
 VINA RESULT:      -6.7      2.506      4.053
  Name = 
  4 active torsions:
  status: ('A' for Active; 'I' for Inactive)
    1  A    between atoms: C_6  and  N_8
    2  A    between atoms: N_8  and  C_24
    3  A    between atoms: C_11  and  N_18
    4  A    between atoms: C_20  and  C_24
                            x       y       z     vdW  Elec       q    Type
                         _______ _______ _______ _____ _____    ______ ____

>  <TORSDO>
F 4

$$$$
=
 OpenBabel11042413433D

 30 34  0  0  1  0  0  0  0  0999 V2000
  190.7200  172.5420  141.8030 N   0  0  0  0  0  0  0  0  0  0  0  0
  192.5740  169.1850  141.6110 C   0  0  0  0  0  0  0  0  0  0  0  0
  191.2510  171.2120  141.7260 C   0  0  0  0  0  0  0  0  0  0  0  0
  188.8550  173.8360  142.7790 C   0  0  1  0  0  3  0  0  0  0  0  0
  191.6170  173.6970  141.7880 C   0  0  0  0  0  2  0  0  0  0  0  0
  193.5630  168.1660  141.5500 N   0  0  0  0  0  1  0  0  0  0  0  0
  192.8960  170.8310  141.6880 S   0  0  0  0  0  0  0  0  0  0  0  0
  190.8190  174.9860  141.9390 C   0  0  0  0  0  2  0  0  0  0  0  0
  189.2740  172.7470  141.7780 C   0  0  0  0  0  2  0  0  0  0  0  0
  189.8920  174.8550  143.0750 N   0  0  1  0  0  0  0  0  0  0  0  0
  187.7970  175.8230  142.7480 N   0  0  0  0  0  0  0  0  0  0  0  0
  189.1060  176.0760  143.3120 C   0  0  2  0  0  3  0  0  0  0  0  0
  187.6390  174.5010  142.3230 N   0  0  0  0  0  2  0  0  0  0  0  0
  191.2060  168.9630  141.6190 C   0  0  0  0  0  3  0  0  0  0  0  0
  190.4720  170.1060  141.6830 N   0  0  0  0  0  0  0  0  0  0  0  0
  186.2340  177.1520  144.1520 C   0  0  0  0  0  0  0  0  0  0  0  0
  186.6720  176.7120  142.8940 C   0  0  0  0  0  0  0  0  0  0  0  0
  185.8610  177.5630  146.4140 N   0  0  0  0  0  0  0  0  0  0  0  0
  186.7510  176.8100  145.5260 C   0  0  0  0  0  2  0  0  0  0  0  0
  184.8710  178.0450  141.9190 C   0  0  0  0  0  3  0  0  0  0  0  0
  185.9680  177.1760  141.7640 C   0  0  0  0  0  3  0  0  0  0  0  0
  185.1550  178.0010  144.2450 C   0  0  0  0  0  0  0  0  0  0  0  0
  185.9400  177.5660  147.8640 C   0  0  0  0  0  1  0  0  0  0  0  0
  184.4760  178.4470  143.1600 N   0  0  0  0  0  0  0  0  0  0  0  0
  183.9980  179.0050  146.1020 O   0  0  0  0  0  0  0  0  0  0  0  0
  184.9070  178.2700  145.6340 C   0  0  0  0  0  0  0  0  0  0  0  0
  189.7200  177.3730  142.7660 C   0  0  0  0  0  2  0  0  0  0  0  0
  190.4450  178.0570  143.8210 N   0  0  0  0  0  2  0  0  0  0  0  0
  191.6640  177.5460  144.2770 C   0  0  0  0  0  0  0  0  0  0  0  0
  192.6740  177.1230  144.6540 N   0  0  0  0  0  0  0  0  0  0  0  0
  2 14  2  0  0  0  0
  2  7  1  0  0  0  0
  3  1  1  0  0  0  0
  4  9  1  6  0  0  0
  4 10  1  0  0  0  0
  5  1  1  0  0  0  0
  5  8  1  0  0  0  0
  6  2  1  0  0  0  0
  7  3  1  0  0  0  0
  9  1  1  0  0  0  0
 10  8  1  6  0  0  0
 10 12  1  0  0  0  0
 11 17  1  0  0  0  0
 11 12  1  0  0  0  0
 12 27  1  6  0  0  0
 13 11  1  0  0  0  0
 13  4  1  0  0  0  0
 14 15  1  0  0  0  0
 15  3  2  0  0  0  0
 16 22  1  0  0  0  0
 16 19  1  0  0  0  0
 17 16  2  0  0  0  0
 18 23  1  0  0  0  0
 19 18  1  0  0  0  0
 20 24  1  0  0  0  0
 21 20  2  0  0  0  0
 21 17  1  0  0  0  0
 22 26  1  0  0  0  0
 24 22  2  0  0  0  0
 26 25  2  0  0  0  0
 26 18  1  0  0  0  0
 27 28  1  0  0  0  0
 28 29  1  0  0  0  0
 29 30  3  0  0  0  0
M  END
>  <MODEL>
6

>  <REMARK>
 VINA RESULT:      -6.6      2.635      4.413
  Name = 
  4 active torsions:
  status: ('A' for Active; 'I' for Inactive)
    1  A    between atoms: C_6  and  N_8
    2  A    between atoms: N_8  and  C_24
    3  A    between atoms: C_11  and  N_18
    4  A    between atoms: C_20  and  C_24
                            x       y       z     vdW  Elec       q    Type
                         _______ _______ _______ _____ _____    ______ ____

>  <TORSDO>
F 4

$$$$
=
 OpenBabel11042413433D

 30 34  0  0  1  0  0  0  0  0999 V2000
  192.9300  172.7700  144.6580 N   0  0  0  0  0  0  0  0  0  0  0  0
  196.3480  171.2040  145.4340 C   0  0  0  0  0  0  0  0  0  0  0  0
  194.2550  172.3460  145.0070 C   0  0  0  0  0  0  0  0  0  0  0  0
  191.6830  174.6960  143.7420 C   0  0  1  0  0  3  0  0  0  0  0  0
  191.9520  171.8020  144.1620 C   0  0  0  0  0  2  0  0  0  0  0  0
  197.4470  170.3160  145.5880 N   0  0  0  0  0  1  0  0  0  0  0  0
  194.8450  170.7750  144.8250 S   0  0  0  0  0  0  0  0  0  0  0  0
  190.6470  172.5040  143.8080 C   0  0  0  0  0  2  0  0  0  0  0  0
  192.5200  174.1490  144.9100 C   0  0  0  0  0  2  0  0  0  0  0  0
  190.9370  173.6750  142.9660 N   0  0  1  0  0  0  0  0  0  0  0  0
  189.6260  175.5510  143.4100 N   0  0  0  0  0  0  0  0  0  0  0  0
  189.7210  174.3910  142.5500 C   0  0  2  0  0  3  0  0  0  0  0  0
  190.7540  175.7150  144.2200 N   0  0  0  0  0  2  0  0  0  0  0  0
  196.3660  172.5510  145.7630 C   0  0  0  0  0  3  0  0  0  0  0  0
  195.1870  173.1830  145.5200 N   0  0  0  0  0  0  0  0  0  0  0  0
  187.8190  177.0150  144.2890 C   0  0  0  0  0  0  0  0  0  0  0  0
  188.6560  176.6030  143.2410 C   0  0  0  0  0  0  0  0  0  0  0  0
  186.6440  177.3120  146.2780 N   0  0  0  0  0  0  0  0  0  0  0  0
  187.7080  176.4890  145.6980 C   0  0  0  0  0  2  0  0  0  0  0  0
  187.5650  178.2900  141.8490 C   0  0  0  0  0  3  0  0  0  0  0  0
  188.5150  177.2620  142.0030 C   0  0  0  0  0  3  0  0  0  0  0  0
  186.9070  178.0240  144.0830 C   0  0  0  0  0  0  0  0  0  0  0  0
  186.1480  177.1930  147.6380 C   0  0  0  0  0  1  0  0  0  0  0  0
  186.7690  178.6580  142.8930 N   0  0  0  0  0  0  0  0  0  0  0  0
  185.2510  179.0660  145.4850 O   0  0  0  0  0  0  0  0  0  0  0  0
  186.1700  178.2260  145.2990 C   0  0  0  0  0  0  0  0  0  0  0  0
  188.4290  173.5630  142.5660 C   0  0  0  0  0  2  0  0  0  0  0  0
  188.2600  172.8870  141.2930 N   0  0  0  0  0  2  0  0  0  0  0  0
  188.4630  173.5860  140.0980 C   0  0  0  0  0  0  0  0  0  0  0  0
  188.6300  174.1660  139.1100 N   0  0  0  0  0  0  0  0  0  0  0  0
  1  9  1  0  0  0  0
  1  3  1  0  0  0  0
  2  6  1  0  0  0  0
  2 14  2  0  0  0  0
  3 15  2  0  0  0  0
  4 13  1  0  0  0  0
  4  9  1  1  0  0  0
  5  1  1  0  0  0  0
  7  3  1  0  0  0  0
  7  2  1  0  0  0  0
  8  5  1  0  0  0  0
 10  4  1  0  0  0  0
 10  8  1  1  0  0  0
 11 13  1  0  0  0  0
 12 27  1  1  0  0  0
 12 10  1  0  0  0  0
 12 11  1  0  0  0  0
 15 14  1  0  0  0  0
 16 19  1  0  0  0  0
 17 11  1  0  0  0  0
 17 16  2  0  0  0  0
 18 23  1  0  0  0  0
 19 18  1  0  0  0  0
 20 21  2  0  0  0  0
 20 24  1  0  0  0  0
 21 17  1  0  0  0  0
 22 16  1  0  0  0  0
 22 26  1  0  0  0  0
 24 22  2  0  0  0  0
 26 25  2  0  0  0  0
 26 18  1  0  0  0  0
 28 27  1  0  0  0  0
 29 28  1  0  0  0  0
 30 29  3  0  0  0  0
M  END
>  <MODEL>
7

>  <REMARK>
 VINA RESULT:      -6.6      1.865      2.150
  Name = 
  4 active torsions:
  status: ('A' for Active; 'I' for Inactive)
    1  A    between atoms: C_6  and  N_8
    2  A    between atoms: N_8  and  C_24
    3  A    between atoms: C_11  and  N_18
    4  A    between atoms: C_20  and  C_24
                            x       y       z     vdW  Elec       q    Type
                         _______ _______ _______ _____ _____    ______ ____

>  <TORSDO>
F 4

$$$$
=
 OpenBabel11042413433D

 30 34  0  0  1  0  0  0  0  0999 V2000
  187.7630  176.6100  144.5570 N   0  0  0  0  0  0  0  0  0  0  0  0
  184.4690  178.2940  143.5330 C   0  0  0  0  0  0  0  0  0  0  0  0
  186.5500  177.1520  144.0190 C   0  0  0  0  0  0  0  0  0  0  0  0
  190.0550  175.9510  143.9060 C   0  0  1  0  0  3  0  0  0  0  0  0
  188.1560  176.9020  145.9350 C   0  0  0  0  0  2  0  0  0  0  0  0
  183.2730  179.0630  143.4990 N   0  0  0  0  0  1  0  0  0  0  0  0
  185.5160  178.2040  144.8420 S   0  0  0  0  0  0  0  0  0  0  0  0
  189.5030  176.2620  146.2470 C   0  0  0  0  0  2  0  0  0  0  0  0
  188.5490  175.6680  143.7640 C   0  0  0  0  0  2  0  0  0  0  0  0
  190.4590  176.5950  145.1790 N   0  0  1  0  0  0  0  0  0  0  0  0
  191.9070  174.8670  144.5860 N   0  0  0  0  0  0  0  0  0  0  0  0
  191.8000  176.0420  145.4250 C   0  0  2  0  0  3  0  0  0  0  0  0
  190.8190  174.7230  143.7200 N   0  0  0  0  0  2  0  0  0  0  0  0
  184.9390  177.5150  142.4880 C   0  0  0  0  0  3  0  0  0  0  0  0
  186.1070  176.8770  142.7700 N   0  0  0  0  0  0  0  0  0  0  0  0
  194.1710  174.5660  143.6040 C   0  0  0  0  0  0  0  0  0  0  0  0
  193.1200  174.1090  144.4120 C   0  0  0  0  0  0  0  0  0  0  0  0
  195.5920  175.7000  142.1490 N   0  0  0  0  0  0  0  0  0  0  0  0
  194.2700  175.8170  142.7680 C   0  0  0  0  0  2  0  0  0  0  0  0
  194.4840  172.1360  144.8850 C   0  0  0  0  0  3  0  0  0  0  0  0
  193.2940  172.8680  145.0600 C   0  0  0  0  0  3  0  0  0  0  0  0
  195.3120  173.8090  143.4680 C   0  0  0  0  0  0  0  0  0  0  0  0
  196.1700  176.6670  141.2320 C   0  0  0  0  0  1  0  0  0  0  0  0
  195.4800  172.6150  144.0880 N   0  0  0  0  0  0  0  0  0  0  0  0
  197.3450  174.0970  142.2120 O   0  0  0  0  0  0  0  0  0  0  0  0
  196.2050  174.4910  142.5740 C   0  0  0  0  0  0  0  0  0  0  0  0
  192.1260  175.7260  146.8910 C   0  0  0  0  0  2  0  0  0  0  0  0
  193.1560  176.6290  147.3720 N   0  0  0  0  0  2  0  0  0  0  0  0
  194.1250  177.1180  146.4900 C   0  0  0  0  0  0  0  0  0  0  0  0
  194.9270  177.5230  145.7590 N   0  0  0  0  0  0  0  0  0  0  0  0
  1  5  1  0  0  0  0
  2  7  1  0  0  0  0
  3  1  1  0  0  0  0
  3  7  1  0  0  0  0
  4  9  1  1  0  0  0
  4 10  1  0  0  0  0
  5  8  1  0  0  0  0
  6  2  1  0  0  0  0
  9  1  1  0  0  0  0
 10 12  1  0  0  0  0
 10  8  1  1  0  0  0
 11 12  1  0  0  0  0
 12 27  1  1  0  0  0
 13  4  1  0  0  0  0
 13 11  1  0  0  0  0
 14 15  1  0  0  0  0
 14  2  2  0  0  0  0
 15  3  2  0  0  0  0
 16 17  1  0  0  0  0
 17 11  1  0  0  0  0
 17 21  2  0  0  0  0
 18 26  1  0  0  0  0
 18 19  1  0  0  0  0
 19 16  1  0  0  0  0
 20 21  1  0  0  0  0
 22 16  2  0  0  0  0
 22 24  1  0  0  0  0
 23 18  1  0  0  0  0
 24 20  2  0  0  0  0
 25 26  2  0  0  0  0
 26 22  1  0  0  0  0
 27 28  1  0  0  0  0
 29 28  1  0  0  0  0
 30 29  3  0  0  0  0
M  END
>  <MODEL>
8

>  <REMARK>
 VINA RESULT:      -6.5      4.123      9.194
  Name = 
  4 active torsions:
  status: ('A' for Active; 'I' for Inactive)
    1  A    between atoms: C_6  and  N_8
    2  A    between atoms: N_8  and  C_24
    3  A    between atoms: C_11  and  N_18
    4  A    between atoms: C_20  and  C_24
                            x       y       z     vdW  Elec       q    Type
                         _______ _______ _______ _____ _____    ______ ____

>  <TORSDO>
F 4

$$$$
=
 OpenBabel11042413433D

 30 34  0  0  1  0  0  0  0  0999 V2000
  188.2330  176.4640  144.7360 N   0  0  0  0  0  0  0  0  0  0  0  0
  184.9950  178.1570  145.9150 C   0  0  0  0  0  0  0  0  0  0  0  0
  187.1020  177.1110  145.3360 C   0  0  0  0  0  0  0  0  0  0  0  0
  190.0340  174.8460  145.2300 C   0  0  1  0  0  3  0  0  0  0  0  0
  188.2280  176.1420  143.3090 C   0  0  0  0  0  2  0  0  0  0  0  0
  183.6940  178.7250  145.9950 N   0  0  0  0  0  1  0  0  0  0  0  0
  185.6690  177.4920  144.5290 S   0  0  0  0  0  0  0  0  0  0  0  0
  189.5100  175.4110  142.9300 C   0  0  0  0  0  2  0  0  0  0  0  0
  189.4390  176.2330  145.5270 C   0  0  0  0  0  2  0  0  0  0  0  0
  189.7410  174.3090  143.8780 N   0  0  1  0  0  0  0  0  0  0  0  0
  191.9710  173.9820  144.4740 N   0  0  0  0  0  0  0  0  0  0  0  0
  190.9460  173.5280  143.5580 C   0  0  2  0  0  3  0  0  0  0  0  0
  191.4770  174.8600  145.4430 N   0  0  0  0  0  2  0  0  0  0  0  0
  185.8870  178.0690  146.9720 C   0  0  0  0  0  3  0  0  0  0  0  0
  187.0670  177.4810  146.6370 N   0  0  0  0  0  0  0  0  0  0  0  0
  194.4510  174.0730  144.3210 C   0  0  0  0  0  0  0  0  0  0  0  0
  193.2690  173.3690  144.5980 C   0  0  0  0  0  0  0  0  0  0  0  0
  196.0930  175.6090  143.7150 N   0  0  0  0  0  0  0  0  0  0  0  0
  194.6380  175.4880  143.8350 C   0  0  0  0  0  2  0  0  0  0  0  0
  194.6710  171.4380  145.1290 C   0  0  0  0  0  3  0  0  0  0  0  0
  193.3970  172.0270  145.0100 C   0  0  0  0  0  3  0  0  0  0  0  0
  195.6690  173.4480  144.4530 C   0  0  0  0  0  0  0  0  0  0  0  0
  196.7950  176.8010  143.2700 C   0  0  0  0  0  1  0  0  0  0  0  0
  195.7940  172.1570  144.8460 N   0  0  0  0  0  0  0  0  0  0  0  0
  197.9390  174.1580  144.0810 O   0  0  0  0  0  0  0  0  0  0  0  0
  196.6990  174.3790  144.0850 C   0  0  0  0  0  0  0  0  0  0  0  0
  191.4140  173.6030  142.0980 C   0  0  0  0  0  2  0  0  0  0  0  0
  190.9170  172.4550  141.3620 N   0  0  0  0  0  2  0  0  0  0  0  0
  189.6680  172.5130  140.7350 C   0  0  0  0  0  0  0  0  0  0  0  0
  188.6350  172.5620  140.2160 N   0  0  0  0  0  0  0  0  0  0  0  0
  1  3  1  0  0  0  0
  1  9  1  0  0  0  0
  2  6  1  0  0  0  0
  2 14  2  0  0  0  0
  3 15  2  0  0  0  0
  4 13  1  0  0  0  0
  4  9  1  6  0  0  0
  5  1  1  0  0  0  0
  7  3  1  0  0  0  0
  7  2  1  0  0  0  0
  8  5  1  0  0  0  0
 10  8  1  6  0  0  0
 10  4  1  0  0  0  0
 11 17  1  0  0  0  0
 11 13  1  0  0  0  0
 12 27  1  6  0  0  0
 12 10  1  0  0  0  0
 12 11  1  0  0  0  0
 15 14  1  0  0  0  0
 16 22  2  0  0  0  0
 16 17  1  0  0  0  0
 17 21  2  0  0  0  0
 18 19  1  0  0  0  0
 18 26  1  0  0  0  0
 19 16  1  0  0  0  0
 21 20  1  0  0  0  0
 22 24  1  0  0  0  0
 23 18  1  0  0  0  0
 24 20  2  0  0  0  0
 25 26  2  0  0  0  0
 26 22  1  0  0  0  0
 28 27  1  0  0  0  0
 29 28  1  0  0  0  0
 30 29  3  0  0  0  0
M  END
>  <MODEL>
9

>  <REMARK>
 VINA RESULT:      -6.4      4.010      8.538
  Name = 
  4 active torsions:
  status: ('A' for Active; 'I' for Inactive)
    1  A    between atoms: C_6  and  N_8
    2  A    between atoms: N_8  and  C_24
    3  A    between atoms: C_11  and  N_18
    4  A    between atoms: C_20  and  C_24
                            x       y       z     vdW  Elec       q    Type
                         _______ _______ _______ _____ _____    ______ ____

>  <TORSDO>
F 4

$$$$
