=
 OpenBabel11042413403D

 42 49  0  0  1  0  0  0  0  0999 V2000
  195.0280  174.3570  144.3700 O   0  0  0  0  0  1  0  0  0  0  0  0
  189.6100  172.0620  140.1940 C   0  0  2  0  0  3  0  0  0  0  0  0
  191.5020  172.1460  142.0450 C   0  0  2  0  0  3  0  0  0  0  0  0
  192.0200  173.0770  139.6450 C   0  0  0  0  0  2  0  0  0  0  0  0
  193.2300  175.2390  145.8150 C   0  0  0  0  0  0  0  0  0  0  0  0
  190.9990  172.5700  140.6590 C   0  0  1  0  0  0  0  0  0  0  0  0
  191.5520  173.5350  144.5480 C   0  0  0  0  0  0  0  0  0  0  0  0
  190.8140  170.5330  138.5530 C   0  0  0  0  0  2  0  0  0  0  0  0
  190.8350  173.4940  141.8410 C   0  0  1  0  0  3  0  0  0  0  0  0
  191.8590  175.3400  146.2540 C   0  0  0  0  0  3  0  0  0  0  0  0
  189.4960  173.3500  142.5610 C   0  0  2  0  0  3  0  0  0  0  0  0
  193.2340  172.5110  142.5410 S   0  0  0  0  0  0  0  0  0  0  0  0
  191.0830  174.4640  145.5590 C   0  0  0  0  0  0  0  0  0  0  0  0
  187.2650  172.6380  142.0090 O   0  0  0  0  0  1  0  0  0  0  0  0
  191.8770  171.3190  137.9320 N   0  0  0  0  0  0  0  0  0  0  0  0
  188.3200  173.4430  141.5760 C   0  0  2  0  0  3  0  0  0  0  0  0
  189.6050  171.4290  138.8010 C   0  0  0  0  0  2  0  0  0  0  0  0
  190.1830  173.5900  144.8910 C   0  0  1  0  0  3  0  0  0  0  0  0
  189.3740  174.1870  143.7770 N   0  0  0  0  0  0  0  0  0  0  0  0
  193.6920  174.3170  144.7560 C   0  0  0  0  0  0  0  0  0  0  0  0
  188.6640  173.1210  140.2320 O   0  0  0  0  0  0  0  0  0  0  0  0
  192.8220  173.3810  144.0890 C   0  0  0  0  0  0  0  0  0  0  0  0
  192.7110  171.8910  138.9830 C   0  0  0  0  0  2  0  0  0  0  0  0
  194.2180  176.1480  146.4580 C   0  0  0  0  0  1  0  0  0  0  0  0
  192.7270  170.3940  137.1970 C   0  0  0  0  0  2  0  0  0  0  0  0
  192.0550  169.9440  135.9390 C   0  0  0  0  0  0  0  0  0  0  0  0
  191.6640  170.8330  135.0290 C   0  0  0  0  0  2  0  0  0  0  0  0
  191.9380  168.4880  135.6470 C   0  0  0  0  0  1  0  0  0  0  0  0
  189.6620  175.6020  143.4640 C   0  0  0  0  0  2  0  0  0  0  0  0
  186.5830  177.9080  145.8430 C   0  0  0  0  0  0  0  0  0  0  0  0
  184.3530  178.2410  146.5800 N   0  0  0  0  0  2  0  0  0  0  0  0
  185.8590  178.4290  144.7260 N   0  0  0  0  0  0  0  0  0  0  0  0
  187.9110  177.0800  142.4070 C   0  0  0  0  0  2  0  0  0  0  0  0
  188.7880  177.6080  144.7010 C   0  0  0  0  0  2  0  0  0  0  0  0
  186.3340  178.7600  143.3880 C   0  0  0  0  0  2  0  0  0  0  0  0
  187.8670  177.5410  145.8750 C   0  0  0  0  0  3  0  0  0  0  0  0
  184.5290  178.6120  145.2100 C   0  0  0  0  0  0  0  0  0  0  0  0
  186.4540  177.5000  142.5470 C   0  0  0  0  0  2  0  0  0  0  0  0
  185.9390  177.3820  148.1100 O   0  0  0  0  0  0  0  0  0  0  0  0
  185.6550  177.8090  146.9590 C   0  0  0  0  0  0  0  0  0  0  0  0
  188.4540  176.5020  143.7090 C   0  0  2  0  0  3  0  0  0  0  0  0
  183.5910  179.0560  144.4980 O   0  0  0  0  0  0  0  0  0  0  0  0
  1 20  1  0  0  0  0
  2 17  1  6  0  0  0
  2 21  1  0  0  0  0
  2  6  1  0  0  0  0
  3 12  1  6  0  0  0
  5 10  1  0  0  0  0
  5 24  1  0  0  0  0
  6  4  1  6  0  0  0
  6  9  1  0  0  0  0
  6  3  1  0  0  0  0
  7 18  1  0  0  0  0
  7 13  1  0  0  0  0
  8 17  1  0  0  0  0
  9  3  1  0  0  0  0
  9 11  1  0  0  0  0
 11 19  1  0  0  0  0
 12 22  1  0  0  0  0
 13 10  2  0  0  0  0
 15  8  1  0  0  0  0
 15 23  1  0  0  0  0
 16 14  1  0  0  0  0
 16 11  1  0  0  0  0
 18 13  1  0  0  0  0
 19 18  1  0  0  0  0
 20  5  2  0  0  0  0
 21 16  1  0  0  0  0
 22  7  2  0  0  0  0
 22 20  1  0  0  0  0
 23  4  1  0  0  0  0
 25 15  1  0  0  0  0
 26 25  1  0  0  0  0
 27 26  2  0  0  0  0
 28 26  1  0  0  0  0
 29 41  1  0  0  0  0
 29 19  1  0  0  0  0
 30 36  2  0  0  0  0
 30 40  1  0  0  0  0
 31 40  1  0  0  0  0
 32 37  1  0  0  0  0
 32 30  1  0  0  0  0
 33 38  1  0  0  0  0
 33 41  1  0  0  0  0
 34 36  1  0  0  0  0
 35 32  1  0  0  0  0
 37 31  1  0  0  0  0
 38 35  1  0  0  0  0
 40 39  2  0  0  0  0
 41 34  1  0  0  0  0
 42 37  2  0  0  0  0
M  END
>  <MODEL>
1

>  <REMARK>
 VINA RESULT:      -9.1      0.000      0.000
  Name = 
  4 active torsions:
  status: ('A' for Active; 'I' for Inactive)
    1  A    between atoms: C_18  and  C_22
    2  A    between atoms: N_21  and  C_22
    3  A    between atoms: C_29  and  N_34
    4  A    between atoms: C_29  and  C_39
                            x       y       z     vdW  Elec       q    Type
                         _______ _______ _______ _____ _____    ______ ____

>  <TORSDO>
F 4

$$$$
=
 OpenBabel11042413403D

 42 49  0  0  1  0  0  0  0  0999 V2000
  195.2650  175.0120  144.8580 O   0  0  0  0  0  1  0  0  0  0  0  0
  190.3080  171.6960  140.7960 C   0  0  2  0  0  3  0  0  0  0  0  0
  192.0700  172.2010  142.7080 C   0  0  2  0  0  3  0  0  0  0  0  0
  192.6630  172.8230  140.2270 C   0  0  0  0  0  2  0  0  0  0  0  0
  193.3180  175.9330  146.0660 C   0  0  0  0  0  0  0  0  0  0  0  0
  191.6230  172.3800  141.2510 C   0  0  1  0  0  0  0  0  0  0  0  0
  191.8580  173.9310  144.9800 C   0  0  0  0  0  0  0  0  0  0  0  0
  191.7260  170.0560  139.4600 C   0  0  0  0  0  2  0  0  0  0  0  0
  191.3150  173.4450  142.2760 C   0  0  1  0  0  3  0  0  0  0  0  0
  191.9190  175.9790  146.4160 C   0  0  0  0  0  3  0  0  0  0  0  0
  189.9490  173.2920  142.9400 C   0  0  2  0  0  3  0  0  0  0  0  0
  193.7340  172.7790  143.2320 S   0  0  0  0  0  0  0  0  0  0  0  0
  191.2570  174.9510  145.8190 C   0  0  0  0  0  0  0  0  0  0  0  0
  187.8180  172.3220  142.3880 O   0  0  0  0  0  1  0  0  0  0  0  0
  192.7610  170.8340  138.7850 N   0  0  0  0  0  0  0  0  0  0  0  0
  188.8320  173.1440  141.8950 C   0  0  2  0  0  3  0  0  0  0  0  0
  190.4380  170.8730  139.5130 C   0  0  0  0  0  2  0  0  0  0  0  0
  190.4690  173.9180  145.2420 C   0  0  1  0  0  3  0  0  0  0  0  0
  189.6880  174.2790  144.0130 N   0  0  0  0  0  0  0  0  0  0  0  0
  193.9140  174.9140  145.1780 C   0  0  0  0  0  0  0  0  0  0  0  0
  189.2830  172.6650  140.6320 O   0  0  0  0  0  0  0  0  0  0  0  0
  193.1610  173.8220  144.6130 C   0  0  0  0  0  0  0  0  0  0  0  0
  193.4830  171.6180  139.7810 C   0  0  0  0  0  2  0  0  0  0  0  0
  194.1910  177.0060  146.6180 C   0  0  0  0  0  1  0  0  0  0  0  0
  193.7240  169.8890  138.2370 C   0  0  0  0  0  2  0  0  0  0  0  0
  194.2380  170.3660  136.9160 C   0  0  0  0  0  0  0  0  0  0  0  0
  195.4020  169.9230  136.4470 C   0  0  0  0  0  2  0  0  0  0  0  0
  193.3830  171.2400  136.0650 C   0  0  0  0  0  1  0  0  0  0  0  0
  189.8850  175.6550  143.5110 C   0  0  0  0  0  2  0  0  0  0  0  0
  186.6580  177.8750  145.7730 C   0  0  0  0  0  0  0  0  0  0  0  0
  184.3930  178.1490  146.4240 N   0  0  0  0  0  2  0  0  0  0  0  0
  185.9650  178.3800  144.6300 N   0  0  0  0  0  0  0  0  0  0  0  0
  188.1390  177.0900  142.3900 C   0  0  0  0  0  2  0  0  0  0  0  0
  188.9120  177.6340  144.7170 C   0  0  0  0  0  2  0  0  0  0  0  0
  186.4820  178.7270  143.3120 C   0  0  0  0  0  2  0  0  0  0  0  0
  187.9490  177.5410  145.8540 C   0  0  0  0  0  3  0  0  0  0  0  0
  184.6120  178.5270  145.0630 C   0  0  0  0  0  0  0  0  0  0  0  0
  186.6670  177.4720  142.4740 C   0  0  0  0  0  2  0  0  0  0  0  0
  185.9410  177.3260  148.0130 O   0  0  0  0  0  0  0  0  0  0  0  0
  185.6900  177.7490  146.8520 C   0  0  0  0  0  0  0  0  0  0  0  0
  188.6460  176.5230  143.7110 C   0  0  2  0  0  3  0  0  0  0  0  0
  183.6910  178.9490  144.3160 O   0  0  0  0  0  0  0  0  0  0  0  0
  1 20  1  0  0  0  0
  2 17  1  6  0  0  0
  2  6  1  0  0  0  0
  3 12  1  6  0  0  0
  5 10  1  0  0  0  0
  5 24  1  0  0  0  0
  6  4  1  6  0  0  0
  6  9  1  0  0  0  0
  6  3  1  0  0  0  0
  7 18  1  0  0  0  0
  7 13  1  0  0  0  0
  8 17  1  0  0  0  0
  9  3  1  0  0  0  0
  9 11  1  0  0  0  0
 11 19  1  0  0  0  0
 12 22  1  0  0  0  0
 13 10  2  0  0  0  0
 15  8  1  0  0  0  0
 15 23  1  0  0  0  0
 16 14  1  0  0  0  0
 16 11  1  0  0  0  0
 18 13  1  0  0  0  0
 19 18  1  0  0  0  0
 20  5  2  0  0  0  0
 21  2  1  0  0  0  0
 21 16  1  0  0  0  0
 22  7  2  0  0  0  0
 22 20  1  0  0  0  0
 23  4  1  0  0  0  0
 25 15  1  0  0  0  0
 26 25  1  0  0  0  0
 27 26  2  0  0  0  0
 28 26  1  0  0  0  0
 29 41  1  0  0  0  0
 29 19  1  0  0  0  0
 30 36  2  0  0  0  0
 30 40  1  0  0  0  0
 31 40  1  0  0  0  0
 32 37  1  0  0  0  0
 32 30  1  0  0  0  0
 33 38  1  0  0  0  0
 33 41  1  0  0  0  0
 34 36  1  0  0  0  0
 35 32  1  0  0  0  0
 37 31  1  0  0  0  0
 38 35  1  0  0  0  0
 40 39  2  0  0  0  0
 41 34  1  0  0  0  0
 42 37  2  0  0  0  0
M  END
>  <MODEL>
2

>  <REMARK>
 VINA RESULT:      -8.7      0.944      1.127
  Name = 
  4 active torsions:
  status: ('A' for Active; 'I' for Inactive)
    1  A    between atoms: C_18  and  C_22
    2  A    between atoms: N_21  and  C_22
    3  A    between atoms: C_29  and  N_34
    4  A    between atoms: C_29  and  C_39
                            x       y       z     vdW  Elec       q    Type
                         _______ _______ _______ _____ _____    ______ ____

>  <TORSDO>
F 4

$$$$
=
 OpenBabel11042413403D

 42 49  0  0  1  0  0  0  0  0999 V2000
  195.3010  175.5110  144.8890 O   0  0  0  0  0  1  0  0  0  0  0  0
  191.2030  172.8650  139.5730 C   0  0  2  0  0  3  0  0  0  0  0  0
  192.6590  173.0490  141.7770 C   0  0  2  0  0  3  0  0  0  0  0  0
  193.5020  174.2250  139.5860 C   0  0  0  0  0  2  0  0  0  0  0  0
  193.1440  176.0340  145.9740 C   0  0  0  0  0  0  0  0  0  0  0  0
  192.3850  173.5110  140.3400 C   0  0  1  0  0  0  0  0  0  0  0  0
  192.0130  174.2310  144.3030 C   0  0  0  0  0  0  0  0  0  0  0  0
  192.9140  171.6400  138.1410 C   0  0  0  0  0  2  0  0  0  0  0  0
  191.8580  174.3100  141.5080 C   0  0  1  0  0  3  0  0  0  0  0  0
  191.7130  175.9210  146.1240 C   0  0  0  0  0  3  0  0  0  0  0  0
  190.4380  173.9360  141.9270 C   0  0  2  0  0  3  0  0  0  0  0  0
  194.1870  173.5970  142.6380 S   0  0  0  0  0  0  0  0  0  0  0  0
  191.2240  175.0090  145.2410 C   0  0  0  0  0  0  0  0  0  0  0  0
  188.4870  172.9860  140.8910 O   0  0  0  0  0  1  0  0  0  0  0  0
  193.9550  172.6040  137.7940 N   0  0  0  0  0  0  0  0  0  0  0  0
  189.4790  173.9530  140.7270 C   0  0  2  0  0  3  0  0  0  0  0  0
  191.5640  172.3480  138.1790 C   0  0  0  0  0  2  0  0  0  0  0  0
  190.6090  174.0800  144.3580 C   0  0  1  0  0  3  0  0  0  0  0  0
  189.9590  174.6520  143.1320 N   0  0  0  0  0  0  0  0  0  0  0  0
  193.9340  175.2670  144.9880 C   0  0  0  0  0  0  0  0  0  0  0  0
  190.1250  173.7850  139.4680 O   0  0  0  0  0  0  0  0  0  0  0  0
  193.3570  174.2810  144.1100 C   0  0  0  0  0  0  0  0  0  0  0  0
  194.4740  173.1950  139.0220 C   0  0  0  0  0  2  0  0  0  0  0  0
  193.8440  177.0120  146.8520 C   0  0  0  0  0  1  0  0  0  0  0  0
  195.0570  171.8580  137.2050 C   0  0  0  0  0  2  0  0  0  0  0  0
  195.3160  172.3160  135.8050 C   0  0  0  0  0  0  0  0  0  0  0  0
  194.6550  173.3560  135.3030 C   0  0  0  0  0  2  0  0  0  0  0  0
  196.4100  171.6850  135.0150 C   0  0  0  0  0  1  0  0  0  0  0  0
  190.0970  176.1130  142.9580 C   0  0  0  0  0  2  0  0  0  0  0  0
  186.7320  177.7390  145.5040 C   0  0  0  0  0  0  0  0  0  0  0  0
  184.4550  177.7560  146.1710 N   0  0  0  0  0  2  0  0  0  0  0  0
  186.0030  178.3640  144.4460 N   0  0  0  0  0  0  0  0  0  0  0  0
  188.2550  177.5810  142.0530 C   0  0  0  0  0  2  0  0  0  0  0  0
  188.9950  177.8150  144.4420 C   0  0  0  0  0  2  0  0  0  0  0  0
  186.4920  178.9420  143.2010 C   0  0  0  0  0  2  0  0  0  0  0  0
  188.0430  177.4840  145.5450 C   0  0  0  0  0  3  0  0  0  0  0  0
  184.6450  178.3520  144.8850 C   0  0  0  0  0  0  0  0  0  0  0  0
  186.7610  177.8450  142.1820 C   0  0  0  0  0  2  0  0  0  0  0  0
  186.0590  176.8080  147.6290 O   0  0  0  0  0  0  0  0  0  0  0  0
  185.7770  177.3850  146.5440 C   0  0  0  0  0  0  0  0  0  0  0  0
  188.8020  176.8550  143.2770 C   0  0  2  0  0  3  0  0  0  0  0  0
  183.6950  178.8200  144.2040 O   0  0  0  0  0  0  0  0  0  0  0  0
  1 20  1  0  0  0  0
  2 17  1  6  0  0  0
  2  6  1  0  0  0  0
  3 12  1  1  0  0  0
  5 10  1  0  0  0  0
  5 24  1  0  0  0  0
  6  4  1  6  0  0  0
  6  9  1  0  0  0  0
  6  3  1  0  0  0  0
  7 18  1  0  0  0  0
  7 13  1  0  0  0  0
  8 17  1  0  0  0  0
  9  3  1  0  0  0  0
  9 11  1  0  0  0  0
 11 19  1  0  0  0  0
 12 22  1  0  0  0  0
 13 10  2  0  0  0  0
 15  8  1  0  0  0  0
 15 23  1  0  0  0  0
 16 14  1  0  0  0  0
 16 11  1  0  0  0  0
 18 13  1  0  0  0  0
 19 18  1  0  0  0  0
 20  5  2  0  0  0  0
 21  2  1  0  0  0  0
 21 16  1  0  0  0  0
 22  7  2  0  0  0  0
 22 20  1  0  0  0  0
 23  4  1  0  0  0  0
 25 15  1  0  0  0  0
 26 25  1  0  0  0  0
 27 26  2  0  0  0  0
 28 26  1  0  0  0  0
 29 19  1  0  0  0  0
 29 41  1  0  0  0  0
 30 36  2  0  0  0  0
 30 40  1  0  0  0  0
 31 40  1  0  0  0  0
 32 37  1  0  0  0  0
 32 30  1  0  0  0  0
 33 38  1  0  0  0  0
 33 41  1  0  0  0  0
 34 36  1  0  0  0  0
 35 32  1  0  0  0  0
 37 31  1  0  0  0  0
 38 35  1  0  0  0  0
 40 39  2  0  0  0  0
 41 34  1  0  0  0  0
 42 37  2  0  0  0  0
M  END
>  <MODEL>
3

>  <REMARK>
 VINA RESULT:      -8.4      1.536      1.764
  Name = 
  4 active torsions:
  status: ('A' for Active; 'I' for Inactive)
    1  A    between atoms: C_18  and  C_22
    2  A    between atoms: N_21  and  C_22
    3  A    between atoms: C_29  and  N_34
    4  A    between atoms: C_29  and  C_39
                            x       y       z     vdW  Elec       q    Type
                         _______ _______ _______ _____ _____    ______ ____

>  <TORSDO>
F 4

$$$$
=
 OpenBabel11042413403D

 42 49  0  0  1  0  0  0  0  0999 V2000
  195.2710  175.6550  144.6130 O   0  0  0  0  0  1  0  0  0  0  0  0
  190.5560  172.5290  140.1340 C   0  0  2  0  0  3  0  0  0  0  0  0
  192.3820  172.8890  142.0190 C   0  0  2  0  0  3  0  0  0  0  0  0
  192.6380  174.1530  139.7310 C   0  0  0  0  0  2  0  0  0  0  0  0
  193.3210  175.9190  146.1040 C   0  0  0  0  0  0  0  0  0  0  0  0
  191.7810  173.3120  140.6720 C   0  0  1  0  0  0  0  0  0  0  0  0
  192.1050  173.9910  144.6460 C   0  0  0  0  0  0  0  0  0  0  0  0
  192.0880  171.5130  138.3730 C   0  0  0  0  0  2  0  0  0  0  0  0
  191.4020  174.0450  141.9360 C   0  0  1  0  0  3  0  0  0  0  0  0
  191.9700  175.6370  146.5260 C   0  0  0  0  0  3  0  0  0  0  0  0
  190.1440  173.5060  142.6140 C   0  0  2  0  0  3  0  0  0  0  0  0
  193.9730  173.6170  142.5790 S   0  0  0  0  0  0  0  0  0  0  0  0
  191.4290  174.6710  145.7350 C   0  0  0  0  0  0  0  0  0  0  0  0
  188.1530  172.3280  141.9550 O   0  0  0  0  0  1  0  0  0  0  0  0
  192.9200  172.5940  137.8510 N   0  0  0  0  0  0  0  0  0  0  0  0
  188.9750  173.4060  141.6230 C   0  0  2  0  0  3  0  0  0  0  0  0
  190.6970  172.0560  138.6860 C   0  0  0  0  0  2  0  0  0  0  0  0
  190.7670  173.6740  144.9680 C   0  0  1  0  0  3  0  0  0  0  0  0
  189.8280  174.1620  143.9040 N   0  0  0  0  0  0  0  0  0  0  0  0
  193.9880  175.2500  144.9690 C   0  0  0  0  0  0  0  0  0  0  0  0
  189.3780  173.3140  140.2590 O   0  0  0  0  0  0  0  0  0  0  0  0
  193.3710  174.2000  144.1980 C   0  0  0  0  0  0  0  0  0  0  0  0
  193.5960  173.2450  138.9690 C   0  0  0  0  0  2  0  0  0  0  0  0
  194.0590  176.9750  146.8520 C   0  0  0  0  0  1  0  0  0  0  0  0
  193.9670  171.9840  137.0450 C   0  0  0  0  0  2  0  0  0  0  0  0
  193.6870  172.1700  135.5880 C   0  0  0  0  0  0  0  0  0  0  0  0
  193.3730  171.1260  134.8230 C   0  0  0  0  0  2  0  0  0  0  0  0
  193.6330  173.5450  135.0180 C   0  0  0  0  0  1  0  0  0  0  0  0
  189.7580  175.6280  143.7370 C   0  0  0  0  0  2  0  0  0  0  0  0
  185.5680  177.2870  143.3480 C   0  0  0  0  0  0  0  0  0  0  0  0
  184.0170  179.0740  143.5280 N   0  0  0  0  0  2  0  0  0  0  0  0
  185.3290  177.4800  144.7430 N   0  0  0  0  0  0  0  0  0  0  0  0
  188.2930  176.1830  145.7160 C   0  0  0  0  0  2  0  0  0  0  0  0
  187.2570  175.4540  143.5470 C   0  0  0  0  0  2  0  0  0  0  0  0
  185.8560  176.7390  145.8830 C   0  0  0  0  0  2  0  0  0  0  0  0
  186.4000  176.4080  142.7820 C   0  0  0  0  0  3  0  0  0  0  0  0
  184.3980  178.5590  144.8060 C   0  0  0  0  0  0  0  0  0  0  0  0
  187.2690  177.2000  146.2010 C   0  0  0  0  0  2  0  0  0  0  0  0
  184.7170  178.3880  141.3740 O   0  0  0  0  0  0  0  0  0  0  0  0
  184.7580  178.2570  142.6270 C   0  0  0  0  0  0  0  0  0  0  0  0
  188.4170  176.1950  144.1960 C   0  0  2  0  0  3  0  0  0  0  0  0
  183.9500  179.0220  145.8880 O   0  0  0  0  0  0  0  0  0  0  0  0
  1 20  1  0  0  0  0
  2 17  1  6  0  0  0
  2 21  1  0  0  0  0
  2  6  1  0  0  0  0
  3 12  1  6  0  0  0
  5 10  1  0  0  0  0
  5 24  1  0  0  0  0
  6  4  1  6  0  0  0
  6  9  1  0  0  0  0
  6  3  1  0  0  0  0
  7 18  1  0  0  0  0
  7 13  1  0  0  0  0
  8 17  1  0  0  0  0
  9  3  1  0  0  0  0
  9 11  1  0  0  0  0
 11 19  1  0  0  0  0
 12 22  1  0  0  0  0
 13 10  2  0  0  0  0
 15  8  1  0  0  0  0
 15 23  1  0  0  0  0
 16 14  1  0  0  0  0
 16 11  1  0  0  0  0
 18 13  1  0  0  0  0
 19 18  1  0  0  0  0
 20  5  2  0  0  0  0
 21 16  1  0  0  0  0
 22  7  2  0  0  0  0
 22 20  1  0  0  0  0
 23  4  1  0  0  0  0
 25 15  1  0  0  0  0
 26 25  1  0  0  0  0
 27 26  2  0  0  0  0
 28 26  1  0  0  0  0
 29 19  1  0  0  0  0
 29 41  1  0  0  0  0
 30 32  1  0  0  0  0
 31 37  1  0  0  0  0
 32 37  1  0  0  0  0
 32 35  1  0  0  0  0
 33 38  1  0  0  0  0
 34 41  1  0  0  0  0
 35 38  1  0  0  0  0
 36 30  2  0  0  0  0
 36 34  1  0  0  0  0
 37 42  2  0  0  0  0
 39 40  2  0  0  0  0
 40 30  1  0  0  0  0
 40 31  1  0  0  0  0
 41 33  1  0  0  0  0
M  END
>  <MODEL>
4

>  <REMARK>
 VINA RESULT:      -8.1      1.393      2.273
  Name = 
  4 active torsions:
  status: ('A' for Active; 'I' for Inactive)
    1  A    between atoms: C_18  and  C_22
    2  A    between atoms: N_21  and  C_22
    3  A    between atoms: C_29  and  N_34
    4  A    between atoms: C_29  and  C_39
                            x       y       z     vdW  Elec       q    Type
                         _______ _______ _______ _____ _____    ______ ____

>  <TORSDO>
F 4

$$$$
=
 OpenBabel11042413403D

 42 49  0  0  1  0  0  0  0  0999 V2000
  190.9270  171.3690  140.1950 O   0  0  0  0  0  1  0  0  0  0  0  0
  194.9780  174.2740  145.4110 C   0  0  2  0  0  3  0  0  0  0  0  0
  193.9920  173.6730  143.0280 C   0  0  2  0  0  3  0  0  0  0  0  0
  194.3750  171.7510  144.7760 C   0  0  0  0  0  2  0  0  0  0  0  0
  189.4410  173.3010  140.5970 C   0  0  0  0  0  0  0  0  0  0  0  0
  194.3100  173.2430  144.4660 C   0  0  1  0  0  0  0  0  0  0  0  0
  191.5450  174.5060  141.7980 C   0  0  0  0  0  0  0  0  0  0  0  0
  197.1230  172.9130  145.2400 C   0  0  0  0  0  2  0  0  0  0  0  0
  192.9210  173.7100  144.1030 C   0  0  1  0  0  3  0  0  0  0  0  0
  189.1320  174.6010  141.1400 C   0  0  0  0  0  3  0  0  0  0  0  0
  192.6870  175.2010  144.3330 C   0  0  2  0  0  3  0  0  0  0  0  0
  193.4330  172.4230  141.8020 S   0  0  0  0  0  0  0  0  0  0  0  0
  190.2360  175.1290  141.7370 C   0  0  0  0  0  0  0  0  0  0  0  0
  193.5730  176.9270  145.7550 O   0  0  0  0  0  1  0  0  0  0  0  0
  196.7500  171.5060  145.3610 N   0  0  0  0  0  0  0  0  0  0  0  0
  193.0910  175.6170  145.7550 C   0  0  2  0  0  3  0  0  0  0  0  0
  196.2190  173.7510  146.1380 C   0  0  0  0  0  2  0  0  0  0  0  0
  191.3240  175.7700  142.3890 C   0  0  1  0  0  3  0  0  0  0  0  0
  191.3560  175.6760  143.8860 N   0  0  0  0  0  0  0  0  0  0  0  0
  190.7670  172.6560  140.6990 C   0  0  0  0  0  0  0  0  0  0  0  0
  194.0380  174.7450  146.3660 O   0  0  0  0  0  0  0  0  0  0  0  0
  191.9090  173.2920  141.3070 C   0  0  0  0  0  0  0  0  0  0  0  0
  195.7340  171.2030  144.3580 C   0  0  0  0  0  2  0  0  0  0  0  0
  188.3340  172.5650  139.9250 C   0  0  0  0  0  1  0  0  0  0  0  0
  197.9200  170.7160  145.0040 C   0  0  0  0  0  2  0  0  0  0  0  0
  197.7220  169.2820  145.3790 C   0  0  0  0  0  0  0  0  0  0  0  0
  197.9410  168.3170  144.4900 C   0  0  0  0  0  2  0  0  0  0  0  0
  197.4040  168.9270  146.7910 C   0  0  0  0  0  1  0  0  0  0  0  0
  190.2830  174.8660  144.4990 C   0  0  0  0  0  2  0  0  0  0  0  0
  186.6840  177.5980  144.2970 C   0  0  0  0  0  0  0  0  0  0  0  0
  185.6610  179.7120  144.6360 N   0  0  0  0  0  2  0  0  0  0  0  0
  186.4960  177.7380  145.7060 N   0  0  0  0  0  0  0  0  0  0  0  0
  189.0040  175.6320  146.5350 C   0  0  0  0  0  2  0  0  0  0  0  0
  187.8270  175.3740  144.3310 C   0  0  0  0  0  2  0  0  0  0  0  0
  186.8000  176.7980  146.7790 C   0  0  0  0  0  2  0  0  0  0  0  0
  187.2580  176.5780  143.6540 C   0  0  0  0  0  3  0  0  0  0  0  0
  185.8830  179.0170  145.8650 C   0  0  0  0  0  0  0  0  0  0  0  0
  188.2830  176.8430  147.1120 C   0  0  0  0  0  2  0  0  0  0  0  0
  186.1690  179.0360  142.4260 O   0  0  0  0  0  0  0  0  0  0  0  0
  186.1650  178.8020  143.6650 C   0  0  0  0  0  0  0  0  0  0  0  0
  189.1370  175.7300  145.0190 C   0  0  2  0  0  3  0  0  0  0  0  0
  185.5660  179.4960  146.9860 O   0  0  0  0  0  0  0  0  0  0  0  0
  1 20  1  0  0  0  0
  2 17  1  1  0  0  0
  2 21  1  0  0  0  0
  3 12  1  6  0  0  0
  3  9  1  0  0  0  0
  3  6  1  0  0  0  0
  5 20  2  0  0  0  0
  5 10  1  0  0  0  0
  6  4  1  1  0  0  0
  6  2  1  0  0  0  0
  7 18  1  0  0  0  0
  8 15  1  0  0  0  0
  8 17  1  0  0  0  0
  9 11  1  0  0  0  0
  9  6  1  0  0  0  0
 10 13  2  0  0  0  0
 11 16  1  0  0  0  0
 13  7  1  0  0  0  0
 13 18  1  0  0  0  0
 16 14  1  0  0  0  0
 16 21  1  0  0  0  0
 18 19  1  0  0  0  0
 19 11  1  0  0  0  0
 19 29  1  0  0  0  0
 20 22  1  0  0  0  0
 22  7  2  0  0  0  0
 22 12  1  0  0  0  0
 23  4  1  0  0  0  0
 23 15  1  0  0  0  0
 24  5  1  0  0  0  0
 25 15  1  0  0  0  0
 25 26  1  0  0  0  0
 26 28  1  0  0  0  0
 27 26  2  0  0  0  0
 29 41  1  0  0  0  0
 30 32  1  0  0  0  0
 31 37  1  0  0  0  0
 32 37  1  0  0  0  0
 32 35  1  0  0  0  0
 33 38  1  0  0  0  0
 34 41  1  0  0  0  0
 35 38  1  0  0  0  0
 36 30  2  0  0  0  0
 36 34  1  0  0  0  0
 37 42  2  0  0  0  0
 39 40  2  0  0  0  0
 40 30  1  0  0  0  0
 40 31  1  0  0  0  0
 41 33  1  0  0  0  0
M  END
>  <MODEL>
5

>  <REMARK>
 VINA RESULT:      -8.0      2.987      6.161
  Name = 
  4 active torsions:
  status: ('A' for Active; 'I' for Inactive)
    1  A    between atoms: C_18  and  C_22
    2  A    between atoms: N_21  and  C_22
    3  A    between atoms: C_29  and  N_34
    4  A    between atoms: C_29  and  C_39
                            x       y       z     vdW  Elec       q    Type
                         _______ _______ _______ _____ _____    ______ ____

>  <TORSDO>
F 4

$$$$
=
 OpenBabel11042413403D

 42 49  0  0  1  0  0  0  0  0999 V2000
  193.9870  176.6280  146.2330 O   0  0  0  0  0  1  0  0  0  0  0  0
  187.9040  175.8240  142.4360 C   0  0  2  0  0  3  0  0  0  0  0  0
  190.2750  176.6860  143.2410 C   0  0  2  0  0  3  0  0  0  0  0  0
  188.3790  176.3130  145.0190 C   0  0  0  0  0  2  0  0  0  0  0  0
  194.8570  174.8360  144.7730 C   0  0  0  0  0  0  0  0  0  0  0  0
  188.8890  176.1300  143.5930 C   0  0  1  0  0  0  0  0  0  0  0  0
  192.8360  175.4180  143.0700 C   0  0  0  0  0  0  0  0  0  0  0  0
  186.5440  177.8460  143.1750 C   0  0  0  0  0  2  0  0  0  0  0  0
  190.0790  175.2040  143.5080 C   0  0  1  0  0  3  0  0  0  0  0  0
  194.8140  173.9830  143.6100 C   0  0  0  0  0  3  0  0  0  0  0  0
  190.2660  174.5600  142.1360 C   0  0  2  0  0  3  0  0  0  0  0  0
  191.3830  177.2940  144.5750 S   0  0  0  0  0  0  0  0  0  0  0  0
  193.7650  174.3320  142.8160 C   0  0  0  0  0  0  0  0  0  0  0  0
  188.8820  173.9720  140.2590 O   0  0  0  0  0  1  0  0  0  0  0  0
  186.4580  177.7980  144.6320 N   0  0  0  0  0  0  0  0  0  0  0  0
  188.9700  173.8940  141.6500 C   0  0  2  0  0  3  0  0  0  0  0  0
  186.5090  176.4250  142.6220 C   0  0  0  0  0  2  0  0  0  0  0  0
  192.6970  174.6090  141.9190 C   0  0  1  0  0  3  0  0  0  0  0  0
  191.4880  173.7280  142.0250 N   0  0  0  0  0  0  0  0  0  0  0  0
  193.8840  175.9150  145.0430 C   0  0  0  0  0  0  0  0  0  0  0  0
  187.7900  174.4210  142.2480 O   0  0  0  0  0  0  0  0  0  0  0  0
  192.8180  176.2610  144.1350 C   0  0  0  0  0  0  0  0  0  0  0  0
  187.8080  177.7170  145.1790 C   0  0  0  0  0  2  0  0  0  0  0  0
  195.9360  174.5770  145.7650 C   0  0  0  0  0  1  0  0  0  0  0  0
  185.9160  179.0730  145.0770 C   0  0  0  0  0  2  0  0  0  0  0  0
  185.2430  178.9270  146.4050 C   0  0  0  0  0  0  0  0  0  0  0  0
  184.0800  178.2890  146.5040 C   0  0  0  0  0  2  0  0  0  0  0  0
  185.9420  179.3860  147.6380 C   0  0  0  0  0  1  0  0  0  0  0  0
  191.5260  172.7160  143.1010 C   0  0  0  0  0  2  0  0  0  0  0  0
  194.8590  169.7660  143.9080 C   0  0  0  0  0  0  0  0  0  0  0  0
  197.0760  168.9950  143.5670 N   0  0  0  0  0  2  0  0  0  0  0  0
  194.8910  169.1830  142.6040 N   0  0  0  0  0  0  0  0  0  0  0  0
  192.3030  171.0030  141.4190 C   0  0  0  0  0  2  0  0  0  0  0  0
  192.4750  170.5220  143.8780 C   0  0  0  0  0  2  0  0  0  0  0  0
  193.8110  169.0140  141.6390 C   0  0  0  0  0  2  0  0  0  0  0  0
  193.8210  170.3580  144.5050 C   0  0  0  0  0  3  0  0  0  0  0  0
  196.2360  168.7360  142.4390 C   0  0  0  0  0  0  0  0  0  0  0  0
  193.5600  170.3180  140.8990 C   0  0  0  0  0  2  0  0  0  0  0  0
  196.5410  170.0460  145.6180 O   0  0  0  0  0  0  0  0  0  0  0  0
  196.1910  169.6360  144.4780 C   0  0  0  0  0  0  0  0  0  0  0  0
  192.5240  171.6000  142.8040 C   0  0  2  0  0  3  0  0  0  0  0  0
  196.6510  168.1670  141.3960 O   0  0  0  0  0  0  0  0  0  0  0  0
  2 17  1  1  0  0  0
  2  6  1  0  0  0  0
  3  9  1  0  0  0  0
  3  6  1  0  0  0  0
  3 12  1  1  0  0  0
  4 23  1  0  0  0  0
  5 20  1  0  0  0  0
  5 24  1  0  0  0  0
  6  4  1  1  0  0  0
  7 22  1  0  0  0  0
  8 15  1  0  0  0  0
  9  6  1  0  0  0  0
 10  5  2  0  0  0  0
 11  9  1  0  0  0  0
 13  7  2  0  0  0  0
 13 10  1  0  0  0  0
 14 16  1  0  0  0  0
 15 25  1  0  0  0  0
 15 23  1  0  0  0  0
 16 11  1  0  0  0  0
 16 21  1  0  0  0  0
 17  8  1  0  0  0  0
 18 19  1  0  0  0  0
 18 13  1  0  0  0  0
 18  7  1  0  0  0  0
 19 11  1  0  0  0  0
 19 29  1  0  0  0  0
 20  1  1  0  0  0  0
 21  2  1  0  0  0  0
 22 12  1  0  0  0  0
 22 20  2  0  0  0  0
 25 26  1  0  0  0  0
 26 27  2  0  0  0  0
 26 28  1  0  0  0  0
 30 40  1  0  0  0  0
 30 36  2  0  0  0  0
 31 40  1  0  0  0  0
 32 30  1  0  0  0  0
 33 41  1  0  0  0  0
 34 36  1  0  0  0  0
 35 32  1  0  0  0  0
 37 32  1  0  0  0  0
 37 31  1  0  0  0  0
 38 33  1  0  0  0  0
 38 35  1  0  0  0  0
 40 39  2  0  0  0  0
 41 29  1  0  0  0  0
 41 34  1  0  0  0  0
 42 37  2  0  0  0  0
M  END
>  <MODEL>
6

>  <REMARK>
 VINA RESULT:      -7.8      3.065      9.228
  Name = 
  4 active torsions:
  status: ('A' for Active; 'I' for Inactive)
    1  A    between atoms: C_18  and  C_22
    2  A    between atoms: N_21  and  C_22
    3  A    between atoms: C_29  and  N_34
    4  A    between atoms: C_29  and  C_39
                            x       y       z     vdW  Elec       q    Type
                         _______ _______ _______ _____ _____    ______ ____

>  <TORSDO>
F 4

$$$$
=
 OpenBabel11042413403D

 42 49  0  0  1  0  0  0  0  0999 V2000
  194.2020  176.6250  147.2660 O   0  0  0  0  0  1  0  0  0  0  0  0
  192.6590  173.7390  140.8350 C   0  0  2  0  0  3  0  0  0  0  0  0
  193.2980  173.9970  143.3920 C   0  0  2  0  0  3  0  0  0  0  0  0
  194.4430  175.5640  141.6240 C   0  0  0  0  0  2  0  0  0  0  0  0
  191.7610  176.5350  147.6290 C   0  0  0  0  0  0  0  0  0  0  0  0
  193.3620  174.5420  141.9590 C   0  0  1  0  0  0  0  0  0  0  0  0
  191.6570  174.7220  145.6230 C   0  0  0  0  0  0  0  0  0  0  0  0
  194.9650  173.0870  139.9760 C   0  0  0  0  0  2  0  0  0  0  0  0
  192.3320  175.0720  142.9280 C   0  0  1  0  0  3  0  0  0  0  0  0
  190.4240  176.0930  147.3150 C   0  0  0  0  0  3  0  0  0  0  0  0
  190.9880  174.3500  142.8620 C   0  0  2  0  0  3  0  0  0  0  0  0
  194.3160  174.7710  144.7120 S   0  0  0  0  0  0  0  0  0  0  0  0
  190.4600  175.1980  146.2900 C   0  0  0  0  0  0  0  0  0  0  0  0
  189.7300  173.1110  141.2280 O   0  0  0  0  0  1  0  0  0  0  0  0
  195.7930  174.2900  140.0110 N   0  0  0  0  0  0  0  0  0  0  0  0
  190.4580  174.2860  141.4210 C   0  0  2  0  0  3  0  0  0  0  0  0
  193.5350  173.4720  139.6100 C   0  0  0  0  0  2  0  0  0  0  0  0
  190.3830  174.2590  145.2250 C   0  0  1  0  0  3  0  0  0  0  0  0
  190.0100  174.8050  143.8780 N   0  0  0  0  0  0  0  0  0  0  0  0
  192.9720  176.0750  146.9180 C   0  0  0  0  0  0  0  0  0  0  0  0
  191.4710  174.4040  140.4270 O   0  0  0  0  0  0  0  0  0  0  0  0
  192.9430  175.0880  145.8670 C   0  0  0  0  0  0  0  0  0  0  0  0
  195.7600  174.8430  141.3610 C   0  0  0  0  0  2  0  0  0  0  0  0
  191.9050  177.5410  148.7180 C   0  0  0  0  0  1  0  0  0  0  0  0
  197.1680  173.8760  139.7760 C   0  0  0  0  0  2  0  0  0  0  0  0
  197.5130  173.9890  138.3250 C   0  0  0  0  0  0  0  0  0  0  0  0
  197.8810  172.9130  137.6340 C   0  0  0  0  0  2  0  0  0  0  0  0
  197.3190  175.2880  137.6210 C   0  0  0  0  0  1  0  0  0  0  0  0
  189.8330  176.2700  143.8080 C   0  0  0  0  0  2  0  0  0  0  0  0
  185.7430  177.1660  142.0980 C   0  0  0  0  0  0  0  0  0  0  0  0
  184.0020  178.6880  141.5700 N   0  0  0  0  0  2  0  0  0  0  0  0
  185.1110  177.5060  143.3330 N   0  0  0  0  0  0  0  0  0  0  0  0
  187.8290  176.8460  145.2280 C   0  0  0  0  0  2  0  0  0  0  0  0
  187.5190  175.6720  143.0300 C   0  0  0  0  0  2  0  0  0  0  0  0
  185.3910  177.0210  144.6800 C   0  0  0  0  0  2  0  0  0  0  0  0
  186.7960  176.3630  141.9200 C   0  0  0  0  0  3  0  0  0  0  0  0
  184.0770  178.4210  142.9720 C   0  0  0  0  0  0  0  0  0  0  0  0
  186.5980  177.7430  145.2570 C   0  0  0  0  0  2  0  0  0  0  0  0
  185.3390  177.8370  139.8130 O   0  0  0  0  0  0  0  0  0  0  0  0
  185.0520  177.8860  141.0400 C   0  0  0  0  0  0  0  0  0  0  0  0
  188.3610  176.6710  143.8110 C   0  0  2  0  0  3  0  0  0  0  0  0
  183.2990  178.9490  143.8090 O   0  0  0  0  0  0  0  0  0  0  0  0
  2 17  1  6  0  0  0
  2  6  1  0  0  0  0
  3 12  1  1  0  0  0
  5 24  1  0  0  0  0
  6  4  1  6  0  0  0
  6  9  1  0  0  0  0
  6  3  1  0  0  0  0
  7 22  2  0  0  0  0
  7 13  1  0  0  0  0
  8 15  1  0  0  0  0
  9  3  1  0  0  0  0
 10  5  1  0  0  0  0
 11  9  1  0  0  0  0
 11 19  1  0  0  0  0
 12 22  1  0  0  0  0
 13 10  2  0  0  0  0
 14 16  1  0  0  0  0
 15 23  1  0  0  0  0
 16 11  1  0  0  0  0
 17  8  1  0  0  0  0
 18  7  1  0  0  0  0
 18 13  1  0  0  0  0
 19 18  1  0  0  0  0
 20  1  1  0  0  0  0
 20  5  2  0  0  0  0
 21  2  1  0  0  0  0
 21 16  1  0  0  0  0
 22 20  1  0  0  0  0
 23  4  1  0  0  0  0
 25 15  1  0  0  0  0
 26 25  1  0  0  0  0
 27 26  2  0  0  0  0
 28 26  1  0  0  0  0
 29 41  1  0  0  0  0
 29 19  1  0  0  0  0
 30 32  1  0  0  0  0
 31 37  1  0  0  0  0
 32 35  1  0  0  0  0
 33 38  1  0  0  0  0
 34 41  1  0  0  0  0
 35 38  1  0  0  0  0
 36 30  2  0  0  0  0
 36 34  1  0  0  0  0
 37 32  1  0  0  0  0
 37 42  2  0  0  0  0
 39 40  2  0  0  0  0
 40 31  1  0  0  0  0
 40 30  1  0  0  0  0
 41 33  1  0  0  0  0
M  END
>  <MODEL>
7

>  <REMARK>
 VINA RESULT:      -7.6      2.775      3.987
  Name = 
  4 active torsions:
  status: ('A' for Active; 'I' for Inactive)
    1  A    between atoms: C_18  and  C_22
    2  A    between atoms: N_21  and  C_22
    3  A    between atoms: C_29  and  N_34
    4  A    between atoms: C_29  and  C_39
                            x       y       z     vdW  Elec       q    Type
                         _______ _______ _______ _____ _____    ______ ____

>  <TORSDO>
F 4

$$$$
=
 OpenBabel11042413403D

 42 49  0  0  1  0  0  0  0  0999 V2000
  189.6400  174.1210  136.7890 O   0  0  0  0  0  1  0  0  0  0  0  0
  188.3930  175.3460  143.7900 C   0  0  2  0  0  3  0  0  0  0  0  0
  188.2810  174.3100  141.3550 C   0  0  2  0  0  3  0  0  0  0  0  0
  188.3300  176.9210  141.6330 C   0  0  0  0  0  2  0  0  0  0  0  0
  191.4290  172.6290  137.6100 C   0  0  0  0  0  0  0  0  0  0  0  0
  188.4850  175.5370  142.2540 C   0  0  1  0  0  0  0  0  0  0  0  0
  190.1530  172.6240  139.9970 C   0  0  0  0  0  0  0  0  0  0  0  0
  186.1760  176.5970  143.7250 C   0  0  0  0  0  2  0  0  0  0  0  0
  189.6770  174.7810  141.7180 C   0  0  1  0  0  3  0  0  0  0  0  0
  192.1090  171.8690  138.6300 C   0  0  0  0  0  3  0  0  0  0  0  0
  190.1970  173.6930  142.6550 C   0  0  2  0  0  3  0  0  0  0  0  0
  188.1340  174.5240  139.5360 S   0  0  0  0  0  0  0  0  0  0  0  0
  191.4120  171.9300  139.7980 C   0  0  0  0  0  0  0  0  0  0  0  0
  190.1910  173.2530  145.0200 O   0  0  0  0  0  1  0  0  0  0  0  0
  186.3580  177.7490  142.8460 N   0  0  0  0  0  0  0  0  0  0  0  0
  190.4400  174.2430  144.0690 C   0  0  2  0  0  3  0  0  0  0  0  0
  187.4690  176.3420  144.4940 C   0  0  0  0  0  2  0  0  0  0  0  0
  190.7670  171.9310  141.0650 C   0  0  1  0  0  3  0  0  0  0  0  0
  191.3040  172.8890  142.0870 N   0  0  0  0  0  0  0  0  0  0  0  0
  190.1670  173.3660  137.8320 C   0  0  0  0  0  0  0  0  0  0  0  0
  189.6880  175.4140  144.3710 O   0  0  0  0  0  0  0  0  0  0  0  0
  189.4560  173.3520  139.0860 C   0  0  0  0  0  0  0  0  0  0  0  0
  186.8510  177.2800  141.5550 C   0  0  0  0  0  2  0  0  0  0  0  0
  192.0690  172.6890  136.2670 C   0  0  0  0  0  1  0  0  0  0  0  0
  185.0400  178.3140  142.5960 C   0  0  0  0  0  2  0  0  0  0  0  0
  184.6170  179.1910  143.7310 C   0  0  0  0  0  0  0  0  0  0  0  0
  183.4180  179.0400  144.2880 C   0  0  0  0  0  2  0  0  0  0  0  0
  185.5920  180.1490  144.3240 C   0  0  0  0  0  1  0  0  0  0  0  0
  192.4000  173.7660  141.6290 C   0  0  0  0  0  2  0  0  0  0  0  0
  195.8260  172.0270  144.0150 C   0  0  0  0  0  0  0  0  0  0  0  0
  196.8210  171.4270  146.0840 N   0  0  0  0  0  2  0  0  0  0  0  0
  196.2380  173.2450  144.6380 N   0  0  0  0  0  0  0  0  0  0  0  0
  193.9690  175.1620  143.0290 C   0  0  0  0  0  2  0  0  0  0  0  0
  194.7780  173.0290  141.9780 C   0  0  0  0  0  2  0  0  0  0  0  0
  196.1430  174.6140  144.1450 C   0  0  0  0  0  2  0  0  0  0  0  0
  195.1890  171.8880  142.8490 C   0  0  0  0  0  3  0  0  0  0  0  0
  196.8260  172.8410  145.8740 C   0  0  0  0  0  0  0  0  0  0  0  0
  194.7340  175.1490  144.3450 C   0  0  0  0  0  2  0  0  0  0  0  0
  195.9820  169.7120  144.6860 O   0  0  0  0  0  0  0  0  0  0  0  0
  196.1950  170.9350  144.9040 C   0  0  0  0  0  0  0  0  0  0  0  0
  193.5870  173.7530  142.5890 C   0  0  2  0  0  3  0  0  0  0  0  0
  197.3050  173.6520  146.7080 O   0  0  0  0  0  0  0  0  0  0  0  0
  1 20  1  0  0  0  0
  2 21  1  0  0  0  0
  2 17  1  1  0  0  0
  3 12  1  6  0  0  0
  3  9  1  0  0  0  0
  3  6  1  0  0  0  0
  5 20  2  0  0  0  0
  5 10  1  0  0  0  0
  6  4  1  6  0  0  0
  6  2  1  0  0  0  0
  7 18  1  0  0  0  0
  8 17  1  0  0  0  0
  9  6  1  0  0  0  0
  9 11  1  0  0  0  0
 10 13  2  0  0  0  0
 11 16  1  0  0  0  0
 13  7  1  0  0  0  0
 13 18  1  0  0  0  0
 15  8  1  0  0  0  0
 16 21  1  0  0  0  0
 16 14  1  0  0  0  0
 18 19  1  0  0  0  0
 19 11  1  0  0  0  0
 20 22  1  0  0  0  0
 22 12  1  0  0  0  0
 22  7  2  0  0  0  0
 23  4  1  0  0  0  0
 23 15  1  0  0  0  0
 24  5  1  0  0  0  0
 25 15  1  0  0  0  0
 25 26  1  0  0  0  0
 26 27  2  0  0  0  0
 26 28  1  0  0  0  0
 29 19  1  0  0  0  0
 29 41  1  0  0  0  0
 30 32  1  0  0  0  0
 30 40  1  0  0  0  0
 32 37  1  0  0  0  0
 33 38  1  0  0  0  0
 34 41  1  0  0  0  0
 34 36  1  0  0  0  0
 35 38  1  0  0  0  0
 35 32  1  0  0  0  0
 36 30  2  0  0  0  0
 37 31  1  0  0  0  0
 37 42  2  0  0  0  0
 39 40  2  0  0  0  0
 40 31  1  0  0  0  0
 41 33  1  0  0  0  0
M  END
>  <MODEL>
8

>  <REMARK>
 VINA RESULT:      -7.5      2.994      9.137
  Name = 
  4 active torsions:
  status: ('A' for Active; 'I' for Inactive)
    1  A    between atoms: C_18  and  C_22
    2  A    between atoms: N_21  and  C_22
    3  A    between atoms: C_29  and  N_34
    4  A    between atoms: C_29  and  C_39
                            x       y       z     vdW  Elec       q    Type
                         _______ _______ _______ _____ _____    ______ ____

>  <TORSDO>
F 4

$$$$
=
 OpenBabel11042413403D

 42 49  0  0  1  0  0  0  0  0999 V2000
  190.0170  173.3930  140.9540 O   0  0  0  0  0  1  0  0  0  0  0  0
  195.5440  174.9280  145.3310 C   0  0  2  0  0  3  0  0  0  0  0  0
  193.9310  174.8850  143.2310 C   0  0  2  0  0  3  0  0  0  0  0  0
  194.5250  172.6270  144.4340 C   0  0  0  0  0  2  0  0  0  0  0  0
  188.9030  175.2860  142.0830 C   0  0  0  0  0  0  0  0  0  0  0  0
  194.5510  174.1520  144.4290 C   0  0  1  0  0  0  0  0  0  0  0  0
  191.3610  176.0950  142.8740 C   0  0  0  0  0  0  0  0  0  0  0  0
  197.4130  173.5060  144.3480 C   0  0  0  0  0  2  0  0  0  0  0  0
  193.1750  174.7650  144.5420 C   0  0  1  0  0  3  0  0  0  0  0  0
  188.8860  176.4640  142.9160 C   0  0  0  0  0  3  0  0  0  0  0  0
  193.1720  176.1890  145.0930 C   0  0  2  0  0  3  0  0  0  0  0  0
  192.9470  173.9470  141.9950 S   0  0  0  0  0  0  0  0  0  0  0  0
  190.1560  176.7940  143.2800 C   0  0  0  0  0  0  0  0  0  0  0  0
  194.5720  177.5320  146.5140 O   0  0  0  0  0  1  0  0  0  0  0  0
  196.9300  172.1290  144.3060 N   0  0  0  0  0  0  0  0  0  0  0  0
  193.9640  176.2810  146.4060 C   0  0  2  0  0  3  0  0  0  0  0  0
  196.8620  174.1950  145.5920 C   0  0  0  0  0  2  0  0  0  0  0  0
  191.4370  177.2230  143.7220 C   0  0  1  0  0  3  0  0  0  0  0  0
  191.8330  176.8230  145.1130 N   0  0  0  0  0  0  0  0  0  0  0  0
  190.1320  174.5580  141.7070 C   0  0  0  0  0  0  0  0  0  0  0  0
  194.9320  175.2490  146.5720 O   0  0  0  0  0  0  0  0  0  0  0  0
  191.4540  174.9880  142.0920 C   0  0  0  0  0  0  0  0  0  0  0  0
  195.6670  172.0970  143.5750 C   0  0  0  0  0  2  0  0  0  0  0  0
  187.5890  174.7700  141.6100 C   0  0  0  0  0  1  0  0  0  0  0  0
  197.8770  171.3610  143.5120 C   0  0  0  0  0  2  0  0  0  0  0  0
  197.7450  169.8990  143.8010 C   0  0  0  0  0  0  0  0  0  0  0  0
  197.9410  169.4350  145.0320 C   0  0  0  0  0  2  0  0  0  0  0  0
  197.2680  168.9780  142.7310 C   0  0  0  0  0  1  0  0  0  0  0  0
  190.8660  175.9700  145.8340 C   0  0  0  0  0  2  0  0  0  0  0  0
  186.6650  177.5180  146.4760 C   0  0  0  0  0  0  0  0  0  0  0  0
  185.0630  179.2670  146.4050 N   0  0  0  0  0  2  0  0  0  0  0  0
  186.9690  178.3920  147.5640 N   0  0  0  0  0  0  0  0  0  0  0  0
  190.2330  177.5350  147.7090 C   0  0  0  0  0  2  0  0  0  0  0  0
  188.5480  175.9060  146.8050 C   0  0  0  0  0  2  0  0  0  0  0  0
  188.0050  178.2760  148.5830 C   0  0  0  0  0  2  0  0  0  0  0  0
  187.3270  176.4160  146.1120 C   0  0  0  0  0  3  0  0  0  0  0  0
  185.9880  179.4260  147.4840 C   0  0  0  0  0  0  0  0  0  0  0  0
  189.3440  178.7300  148.0240 C   0  0  0  0  0  2  0  0  0  0  0  0
  184.9530  177.5570  144.7730 O   0  0  0  0  0  0  0  0  0  0  0  0
  185.5020  178.0610  145.7900 C   0  0  0  0  0  0  0  0  0  0  0  0
  189.7460  176.7850  146.4740 C   0  0  2  0  0  3  0  0  0  0  0  0
  185.9390  180.3940  148.2870 O   0  0  0  0  0  0  0  0  0  0  0  0
  1 20  1  0  0  0  0
  2 17  1  1  0  0  0
  2 21  1  0  0  0  0
  3 12  1  6  0  0  0
  3  6  1  0  0  0  0
  3  9  1  0  0  0  0
  5 10  1  0  0  0  0
  6  4  1  6  0  0  0
  6  9  1  0  0  0  0
  6  2  1  0  0  0  0
  7 13  1  0  0  0  0
  7 18  1  0  0  0  0
  8 17  1  0  0  0  0
  9 11  1  0  0  0  0
 10 13  2  0  0  0  0
 11 19  1  0  0  0  0
 11 16  1  0  0  0  0
 12 22  1  0  0  0  0
 13 18  1  0  0  0  0
 15  8  1  0  0  0  0
 16 14  1  0  0  0  0
 16 21  1  0  0  0  0
 18 19  1  0  0  0  0
 19 29  1  0  0  0  0
 20  5  2  0  0  0  0
 20 22  1  0  0  0  0
 22  7  2  0  0  0  0
 23 15  1  0  0  0  0
 23  4  1  0  0  0  0
 24  5  1  0  0  0  0
 25 26  1  0  0  0  0
 25 15  1  0  0  0  0
 26 27  2  0  0  0  0
 28 26  1  0  0  0  0
 29 41  1  0  0  0  0
 30 32  1  0  0  0  0
 31 37  1  0  0  0  0
 32 35  1  0  0  0  0
 33 38  1  0  0  0  0
 36 30  2  0  0  0  0
 36 34  1  0  0  0  0
 37 32  1  0  0  0  0
 37 42  2  0  0  0  0
 38 35  1  0  0  0  0
 39 40  2  0  0  0  0
 40 31  1  0  0  0  0
 40 30  1  0  0  0  0
 41 34  1  0  0  0  0
 41 33  1  0  0  0  0
M  END
>  <MODEL>
9

>  <REMARK>
 VINA RESULT:      -7.3      3.494      6.037
  Name = 
  4 active torsions:
  status: ('A' for Active; 'I' for Inactive)
    1  A    between atoms: C_18  and  C_22
    2  A    between atoms: N_21  and  C_22
    3  A    between atoms: C_29  and  N_34
    4  A    between atoms: C_29  and  C_39
                            x       y       z     vdW  Elec       q    Type
                         _______ _______ _______ _____ _____    ______ ____

>  <TORSDO>
F 4

$$$$
