=
 OpenBabel11042416123D

 60 68  0  0  1  0  0  0  0  0999 V2000
  190.0820  177.1000  147.6190 C   0  0  2  0  0  3  0  0  0  0  0  0
  190.2020  175.5090  144.7340 C   0  0  2  0  0  3  0  0  0  0  0  0
  193.7510  174.2420  145.6760 C   0  0  0  0  0  2  0  0  0  0  0  0
  189.2600  176.6180  145.2510 C   0  0  2  0  0  3  0  0  0  0  0  0
  191.4880  175.3200  145.5640 C   0  0  2  0  0  3  0  0  0  0  0  0
  191.9390  175.6860  142.8630 C   0  0  0  0  0  2  0  0  0  0  0  0
  191.3200  176.2050  147.7180 C   0  0  0  0  0  2  0  0  0  0  0  0
  194.8170  174.1340  144.6040 C   0  0  0  0  0  2  0  0  0  0  0  0
  192.7150  174.5110  143.4640 C   0  0  2  0  0  3  0  0  0  0  0  0
  190.4590  175.5470  143.2040 C   0  0  2  0  0  3  0  0  0  0  0  0
  192.4110  174.2570  144.9550 C   0  0  1  0  0  3  0  0  0  0  0  0
  189.9020  177.6360  146.2000 C   0  0  0  0  0  2  0  0  0  0  0  0
  191.1490  174.9890  146.9400 N   0  0  0  0  0  2  0  0  0  0  0  0
  194.2030  174.7690  143.3720 C   0  0  2  0  0  3  0  0  0  0  0  0
  189.6830  176.5820  142.5240 N   0  0  0  0  0  2  0  0  0  0  0  0
  188.4940  176.2680  141.7950 C   0  0  0  0  0  0  0  0  0  0  0  0
  188.1420  175.0610  141.6350 O   0  0  0  0  0  0  0  0  0  0  0  0
  185.5700  178.0230  141.9310 C   0  0  0  0  0  0  0  0  0  0  0  0
  187.6970  177.3730  141.1820 C   0  0  2  0  0  3  0  0  0  0  0  0
  187.7000  178.5440  142.0430 N   0  0  0  0  0  2  0  0  0  0  0  0
  186.2200  176.9800  141.0890 C   0  0  0  0  0  2  0  0  0  0  0  0
  186.4020  178.8620  142.4360 N   0  0  0  0  0  0  0  0  0  0  0  0
  184.2020  178.1010  142.1700 O   0  0  0  0  0  0  0  0  0  0  0  0
  183.3990  178.7620  141.3230 O   0  0  0  0  0  0  0  0  0  0  0  0
  180.0550  178.9370  140.8850 C   0  0  2  0  0  3  0  0  0  0  0  0
  180.4770  177.9740  139.8750 N   0  0  0  0  0  2  0  0  0  0  0  0
  182.2030  178.0400  141.3260 C   0  0  2  0  0  3  0  0  0  0  0  0
  181.1530  179.4610  142.9320 O   0  0  0  0  0  0  0  0  0  0  0  0
  181.8360  177.7560  139.9900 O   0  0  0  0  0  0  0  0  0  0  0  0
  181.1240  178.8690  141.8650 C   0  0  0  0  0  0  0  0  0  0  0  0
  178.6540  177.4080  142.2830 O   0  0  0  0  0  1  0  0  0  0  0  0
  177.6910  179.2240  141.2660 O   0  0  0  0  0  0  0  0  0  0  0  0
  178.7320  178.5420  141.4830 C   0  0  0  0  0  0  0  0  0  0  0  0
  190.2370  178.2800  148.5610 C   0  0  0  0  0  2  0  0  0  0  0  0
  191.4240  178.0720  149.4820 C   0  0  0  0  0  1  0  0  0  0  0  0
  188.1080  176.0620  145.8110 O   0  0  0  0  0  0  0  0  0  0  0  0
  187.0590  176.8340  145.3070 C   0  0  0  0  0  2  0  0  0  0  0  0
  186.0000  177.3820  146.6740 P   0  0  0  0  0  0  0  0  0  0  0  0
  186.3070  179.0100  147.0160 O   0  0  0  0  0  1  0  0  0  0  0  0
  184.5510  177.2200  146.2800 O   0  0  0  0  0  0  0  0  0  0  0  0
  186.3220  176.4510  148.0540 O   0  0  0  0  0  1  0  0  0  0  0  0
  194.8150  174.2420  142.0770 C   0  0  0  0  0  2  0  0  0  0  0  0
  195.7740  175.6560  140.1520 C   0  0  1  0  0  3  0  0  0  0  0  0
  195.9680  175.1110  141.5700 C   0  0  2  0  0  3  0  0  0  0  0  0
  196.6230  174.4210  140.3880 C   0  0  0  0  0  2  0  0  0  0  0  0
  194.2990  175.0470  138.1820 C   0  0  0  0  0  0  0  0  0  0  0  0
  194.4830  175.2760  139.5790 N   0  0  0  0  0  2  0  0  0  0  0  0
  195.2640  175.2010  137.3790 O   0  0  0  0  0  0  0  0  0  0  0  0
  192.8400  173.3970  135.6700 C   0  0  0  0  0  2  0  0  0  0  0  0
  191.6840  172.9500  138.9790 N   0  0  0  0  0  2  0  0  0  0  0  0
  190.9740  172.1960  136.7790 C   0  0  1  0  0  3  0  0  0  0  0  0
  189.4910  170.2920  136.7830 O   0  0  0  0  0  0  0  0  0  0  0  0
  192.4660  172.4060  136.7500 C   0  0  2  0  0  3  0  0  0  0  0  0
  190.6140  170.8460  136.1550 C   0  0  0  0  0  2  0  0  0  0  0  0
  192.8500  174.7270  136.2550 N   0  0  0  0  0  2  0  0  0  0  0  0
  189.9650  169.8460  138.0170 C   0  0  0  0  0  2  0  0  0  0  0  0
  192.7980  173.0970  138.0430 C   0  0  1  0  0  3  0  0  0  0  0  0
  192.9770  174.5590  137.6980 C   0  0  1  0  0  3  0  0  0  0  0  0
  190.1630  171.0240  138.9690 C   0  0  0  0  0  2  0  0  0  0  0  0
  190.5810  172.3250  138.2560 C   0  0  1  0  0  3  0  0  0  0  0  0
  1  7  1  0  0  0  0
  1 34  1  1  0  0  0
  2  4  1  0  0  0  0
  2  5  1  0  0  0  0
  4 36  1  0  0  0  0
  4 12  1  0  0  0  0
  5 13  1  0  0  0  0
  6 10  1  0  0  0  0
  6  9  1  0  0  0  0
  8  3  1  0  0  0  0
  9 11  1  0  0  0  0
 10  2  1  0  0  0  0
 11  5  1  0  0  0  0
 11  3  1  0  0  0  0
 12  1  1  0  0  0  0
 13  7  1  0  0  0  0
 14  9  1  0  0  0  0
 14  8  1  0  0  0  0
 15 10  1  0  0  0  0
 16 15  1  0  0  0  0
 17 16  2  0  0  0  0
 18 23  1  0  0  0  0
 18 22  2  0  0  0  0
 19 16  1  0  0  0  0
 19 20  1  0  0  0  0
 20 22  1  0  0  0  0
 21 19  1  0  0  0  0
 21 18  1  0  0  0  0
 24 27  1  0  0  0  0
 24 23  1  0  0  0  0
 25 33  1  0  0  0  0
 25 30  1  0  0  0  0
 26 29  1  0  0  0  0
 26 25  1  0  0  0  0
 27 30  1  0  0  0  0
 29 27  1  0  0  0  0
 30 28  2  0  0  0  0
 32 33  2  0  0  0  0
 33 31  1  0  0  0  0
 34 35  1  0  0  0  0
 37 36  1  0  0  0  0
 37 38  1  0  0  0  0
 38 39  1  0  0  0  0
 38 41  1  0  0  0  0
 40 38  2  0  0  0  0
 42 14  1  0  0  0  0
 43 45  1  0  0  0  0
 43 44  1  0  0  0  0
 44 42  1  0  0  0  0
 45 44  1  0  0  0  0
 46 47  1  0  0  0  0
 47 43  1  0  0  0  0
 48 46  2  0  0  0  0
 49 55  1  0  0  0  0
 49 53  1  0  0  0  0
 51 60  1  0  0  0  0
 52 56  1  0  0  0  0
 53 51  1  0  0  0  0
 53 57  1  0  0  0  0
 54 51  1  0  0  0  0
 54 52  1  0  0  0  0
 55 58  1  0  0  0  0
 56 59  1  0  0  0  0
 57 50  1  0  0  0  0
 58 57  1  0  0  0  0
 58 46  1  0  0  0  0
 60 59  1  0  0  0  0
 60 50  1  0  0  0  0
M  END
>  <MODEL>
1

>  <REMARK>
 VINA RESULT:      -8.0      0.000      0.000
  Name = 
  14 active torsions:
  status: ('A' for Active; 'I' for Inactive)
    1  A    between atoms: C_1  and  C_44
    2  A    between atoms: P_2  and  C_9
    3  A    between atoms: C_5  and  N_43
    4  A    between atoms: C_7  and  C_22
    5  A    between atoms: N_8  and  C_48
    6  A    between atoms: C_9  and  O_35
    7  A    between atoms: C_10  and  C_57
    8  A    between atoms: C_13  and  O_46
    9  A    between atoms: C_16  and  C_33
   10  A    between atoms: C_18  and  C_27
   11  A    between atoms: C_19  and  O_35
   12  A    between atoms: O_23  and  C_28
   13  A    between atoms: O_23  and  O_46
   14  A    between atoms: C_56  and  C_57
                            x       y       z     vdW  Elec       q    Type
                         _______ _______ _______ _____ _____    ______ ____

>  <TORSDO>
F 14

$$$$
=
 OpenBabel11042416123D

 60 68  0  0  1  0  0  0  0  0999 V2000
  189.9960  177.2750  147.6770 C   0  0  2  0  0  3  0  0  0  0  0  0
  189.9980  175.6910  144.7860 C   0  0  2  0  0  3  0  0  0  0  0  0
  193.3980  174.0880  145.7620 C   0  0  0  0  0  2  0  0  0  0  0  0
  189.1600  176.8830  145.2970 C   0  0  2  0  0  3  0  0  0  0  0  0
  191.2500  175.3780  145.6300 C   0  0  2  0  0  3  0  0  0  0  0  0
  191.7660  175.7090  142.9360 C   0  0  0  0  0  2  0  0  0  0  0  0
  191.1410  176.2660  147.7860 C   0  0  0  0  0  2  0  0  0  0  0  0
  194.4620  173.8830  144.7030 C   0  0  0  0  0  2  0  0  0  0  0  0
  192.4190  174.4630  143.5400 C   0  0  2  0  0  3  0  0  0  0  0  0
  190.2760  175.7110  143.2590 C   0  0  2  0  0  3  0  0  0  0  0  0
  192.0740  174.2340  145.0260 C   0  0  1  0  0  3  0  0  0  0  0  0
  189.8840  177.8320  146.2590 C   0  0  0  0  0  2  0  0  0  0  0  0
  190.8640  175.0750  147.0000 N   0  0  0  0  0  2  0  0  0  0  0  0
  193.9260  174.5780  143.4670 C   0  0  2  0  0  3  0  0  0  0  0  0
  189.6100  176.8170  142.5750 N   0  0  0  0  0  2  0  0  0  0  0  0
  188.4180  176.6160  141.8110 C   0  0  0  0  0  0  0  0  0  0  0  0
  187.9690  175.4470  141.6240 O   0  0  0  0  0  0  0  0  0  0  0  0
  185.4170  177.9380  140.8640 C   0  0  0  0  0  0  0  0  0  0  0  0
  187.7360  177.7940  141.1940 C   0  0  2  0  0  3  0  0  0  0  0  0
  187.0360  178.5670  142.2080 N   0  0  0  0  0  2  0  0  0  0  0  0
  186.6280  177.3340  140.2420 C   0  0  0  0  0  2  0  0  0  0  0  0
  185.6710  178.6040  141.9330 N   0  0  0  0  0  0  0  0  0  0  0  0
  184.1250  177.8030  140.3640 O   0  0  0  0  0  0  0  0  0  0  0  0
  183.1980  178.7370  140.6150 O   0  0  0  0  0  0  0  0  0  0  0  0
  179.8830  178.9510  141.2320 C   0  0  2  0  0  3  0  0  0  0  0  0
  179.9540  178.0720  140.0700 N   0  0  0  0  0  2  0  0  0  0  0  0
  182.0400  178.0180  140.9260 C   0  0  2  0  0  3  0  0  0  0  0  0
  181.5650  179.3050  142.8810 O   0  0  0  0  0  0  0  0  0  0  0  0
  181.2780  177.8450  139.7480 O   0  0  0  0  0  0  0  0  0  0  0  0
  181.1970  178.8010  141.8310 C   0  0  0  0  0  0  0  0  0  0  0  0
  178.8020  177.2100  142.6650 O   0  0  0  0  0  1  0  0  0  0  0  0
  177.8740  179.3020  142.5170 O   0  0  0  0  0  0  0  0  0  0  0  0
  178.7950  178.5090  142.1720 C   0  0  0  0  0  0  0  0  0  0  0  0
  190.2510  178.4320  148.6270 C   0  0  0  0  0  2  0  0  0  0  0  0
  191.3850  178.0990  149.5770 C   0  0  0  0  0  1  0  0  0  0  0  0
  187.9540  176.4370  145.8410 O   0  0  0  0  0  0  0  0  0  0  0  0
  186.9660  177.1190  145.1240 C   0  0  0  0  0  2  0  0  0  0  0  0
  185.7730  177.8460  146.2810 P   0  0  0  0  0  0  0  0  0  0  0  0
  185.0540  179.2060  145.5770 O   0  0  0  0  0  0  0  0  0  0  0  0
  184.7060  176.8280  146.6030 O   0  0  0  0  0  1  0  0  0  0  0  0
  186.5670  178.3090  147.7060 O   0  0  0  0  0  1  0  0  0  0  0  0
  194.5000  174.0000  142.1770 C   0  0  0  0  0  2  0  0  0  0  0  0
  195.5210  171.6770  141.7450 C   0  0  1  0  0  3  0  0  0  0  0  0
  195.6680  173.0430  142.4240 C   0  0  2  0  0  3  0  0  0  0  0  0
  195.1660  171.8460  143.2100 C   0  0  0  0  0  2  0  0  0  0  0  0
  193.6930  170.3310  140.6150 C   0  0  0  0  0  0  0  0  0  0  0  0
  194.3030  171.5810  140.9410 N   0  0  0  0  0  2  0  0  0  0  0  0
  194.2210  169.2470  140.9960 O   0  0  0  0  0  0  0  0  0  0  0  0
  190.4010  170.6980  141.0540 C   0  0  0  0  0  2  0  0  0  0  0  0
  191.9400  171.9490  138.1300 N   0  0  0  0  0  2  0  0  0  0  0  0
  189.6550  171.7600  138.9400 C   0  0  1  0  0  3  0  0  0  0  0  0
  188.0570  173.1870  137.8290 O   0  0  0  0  0  0  0  0  0  0  0  0
  190.5730  171.8830  140.1300 C   0  0  2  0  0  3  0  0  0  0  0  0
  188.4680  172.7160  139.0830 C   0  0  0  0  0  2  0  0  0  0  0  0
  191.3520  169.6720  140.6610 N   0  0  0  0  0  2  0  0  0  0  0  0
  189.0390  174.1070  137.4630 C   0  0  0  0  0  2  0  0  0  0  0  0
  191.9640  171.7480  139.5780 C   0  0  1  0  0  3  0  0  0  0  0  0
  192.3950  170.3300  139.8830 C   0  0  1  0  0  3  0  0  0  0  0  0
  190.3020  173.3830  136.9970 C   0  0  0  0  0  2  0  0  0  0  0  0
  190.5420  172.0440  137.7210 C   0  0  1  0  0  3  0  0  0  0  0  0
  1  7  1  0  0  0  0
  1 34  1  1  0  0  0
  2  4  1  0  0  0  0
  2  5  1  0  0  0  0
  4 36  1  0  0  0  0
  4 12  1  0  0  0  0
  5 13  1  0  0  0  0
  6 10  1  0  0  0  0
  6  9  1  0  0  0  0
  8  3  1  0  0  0  0
  9 11  1  0  0  0  0
 10  2  1  0  0  0  0
 11  5  1  0  0  0  0
 11  3  1  0  0  0  0
 12  1  1  0  0  0  0
 13  7  1  0  0  0  0
 14  9  1  0  0  0  0
 14  8  1  0  0  0  0
 15 10  1  0  0  0  0
 16 15  1  0  0  0  0
 17 16  2  0  0  0  0
 18 22  2  0  0  0  0
 19 16  1  0  0  0  0
 19 20  1  0  0  0  0
 21 18  1  0  0  0  0
 21 19  1  0  0  0  0
 22 20  1  0  0  0  0
 23 24  1  0  0  0  0
 23 18  1  0  0  0  0
 24 27  1  0  0  0  0
 25 30  1  0  0  0  0
 25 33  1  0  0  0  0
 26 25  1  0  0  0  0
 27 30  1  0  0  0  0
 29 26  1  0  0  0  0
 29 27  1  0  0  0  0
 30 28  2  0  0  0  0
 33 32  2  0  0  0  0
 33 31  1  0  0  0  0
 34 35  1  0  0  0  0
 37 36  1  0  0  0  0
 37 38  1  0  0  0  0
 38 40  1  0  0  0  0
 38 41  1  0  0  0  0
 39 38  2  0  0  0  0
 42 44  1  0  0  0  0
 42 14  1  0  0  0  0
 43 44  1  0  0  0  0
 43 45  1  0  0  0  0
 44 45  1  0  0  0  0
 46 47  1  0  0  0  0
 46 48  2  0  0  0  0
 47 43  1  0  0  0  0
 50 57  1  0  0  0  0
 51 54  1  0  0  0  0
 51 53  1  0  0  0  0
 52 54  1  0  0  0  0
 53 49  1  0  0  0  0
 55 49  1  0  0  0  0
 56 52  1  0  0  0  0
 57 58  1  0  0  0  0
 57 53  1  0  0  0  0
 58 46  1  0  0  0  0
 58 55  1  0  0  0  0
 59 56  1  0  0  0  0
 59 60  1  0  0  0  0
 60 50  1  0  0  0  0
 60 51  1  0  0  0  0
M  END
>  <MODEL>
2

>  <REMARK>
 VINA RESULT:      -7.9      1.745      2.427
  Name = 
  14 active torsions:
  status: ('A' for Active; 'I' for Inactive)
    1  A    between atoms: C_1  and  C_44
    2  A    between atoms: P_2  and  C_9
    3  A    between atoms: C_5  and  N_43
    4  A    between atoms: C_7  and  C_22
    5  A    between atoms: N_8  and  C_48
    6  A    between atoms: C_9  and  O_35
    7  A    between atoms: C_10  and  C_57
    8  A    between atoms: C_13  and  O_46
    9  A    between atoms: C_16  and  C_33
   10  A    between atoms: C_18  and  C_27
   11  A    between atoms: C_19  and  O_35
   12  A    between atoms: O_23  and  C_28
   13  A    between atoms: O_23  and  O_46
   14  A    between atoms: C_56  and  C_57
                            x       y       z     vdW  Elec       q    Type
                         _______ _______ _______ _____ _____    ______ ____

>  <TORSDO>
F 14

$$$$
=
 OpenBabel11042416123D

 60 68  0  0  1  0  0  0  0  0999 V2000
  193.5770  175.6290  145.6540 C   0  0  2  0  0  3  0  0  0  0  0  0
  192.8820  172.9540  143.8560 C   0  0  2  0  0  3  0  0  0  0  0  0
  196.6740  172.5810  143.0990 C   0  0  0  0  0  2  0  0  0  0  0  0
  191.9780  174.0800  144.4040 C   0  0  2  0  0  3  0  0  0  0  0  0
  194.3900  173.2750  143.8750 C   0  0  2  0  0  3  0  0  0  0  0  0
  193.4470  172.4630  141.4090 C   0  0  0  0  0  2  0  0  0  0  0  0
  194.9370  174.9930  145.3580 C   0  0  0  0  0  2  0  0  0  0  0  0
  197.1220  172.1190  141.7270 C   0  0  0  0  0  2  0  0  0  0  0  0
  194.7320  171.7510  141.8430 C   0  0  2  0  0  3  0  0  0  0  0  0
  192.4020  172.3430  142.5120 C   0  0  2  0  0  3  0  0  0  0  0  0
  195.2230  172.1480  143.2500 C   0  0  1  0  0  3  0  0  0  0  0  0
  192.6240  175.4690  144.4710 C   0  0  0  0  0  2  0  0  0  0  0  0
  194.8240  173.5490  145.2370 N   0  0  0  0  0  2  0  0  0  0  0  0
  195.8590  172.0870  140.8900 C   0  0  2  0  0  3  0  0  0  0  0  0
  191.1250  172.8940  142.0630 N   0  0  0  0  0  2  0  0  0  0  0  0
  189.9710  172.0670  141.8950 C   0  0  0  0  0  0  0  0  0  0  0  0
  190.0580  170.8110  142.0350 O   0  0  0  0  0  0  0  0  0  0  0  0
  188.3960  174.9870  141.0900 C   0  0  0  0  0  0  0  0  0  0  0  0
  188.6710  172.6940  141.5060 C   0  0  2  0  0  3  0  0  0  0  0  0
  188.6770  173.0490  140.0960 N   0  0  0  0  0  2  0  0  0  0  0  0
  188.4830  174.0300  142.2290 C   0  0  0  0  0  2  0  0  0  0  0  0
  188.5040  174.4230  139.9410 N   0  0  0  0  0  0  0  0  0  0  0  0
  188.2240  176.3610  141.2290 O   0  0  0  0  0  0  0  0  0  0  0  0
  187.0540  176.9350  140.9130 O   0  0  0  0  0  0  0  0  0  0  0  0
  185.7460  177.9550  143.8560 C   0  0  2  0  0  3  0  0  0  0  0  0
  187.1790  178.1440  144.0410 N   0  0  0  0  0  2  0  0  0  0  0  0
  186.9290  178.0050  141.8040 C   0  0  2  0  0  3  0  0  0  0  0  0
  184.5420  177.9470  141.8010 O   0  0  0  0  0  0  0  0  0  0  0  0
  187.8390  177.8220  142.8710 O   0  0  0  0  0  0  0  0  0  0  0  0
  185.5980  177.9920  142.4120 C   0  0  0  0  0  0  0  0  0  0  0  0
  185.2970  180.3830  144.2510 O   0  0  0  0  0  0  0  0  0  0  0  0
  184.0250  178.8010  145.3170 O   0  0  0  0  0  1  0  0  0  0  0  0
  184.9690  179.0590  144.5190 C   0  0  0  0  0  0  0  0  0  0  0  0
  193.7620  177.1110  145.9230 C   0  0  0  0  0  2  0  0  0  0  0  0
  195.1240  177.5730  145.4450 C   0  0  0  0  0  1  0  0  0  0  0  0
  191.4360  173.7160  145.6380 O   0  0  0  0  0  0  0  0  0  0  0  0
  190.0960  174.1080  145.5670 C   0  0  0  0  0  2  0  0  0  0  0  0
  189.7810  175.4110  146.7880 P   0  0  0  0  0  0  0  0  0  0  0  0
  188.2190  175.2400  147.4140 O   0  0  0  0  0  1  0  0  0  0  0  0
  190.7840  175.2960  147.9110 O   0  0  0  0  0  1  0  0  0  0  0  0
  189.9240  176.9310  146.0510 O   0  0  0  0  0  0  0  0  0  0  0  0
  195.9560  171.1080  139.7230 C   0  0  0  0  0  2  0  0  0  0  0  0
  197.5060  170.7450  137.7000 C   0  0  1  0  0  3  0  0  0  0  0  0
  197.3890  170.9310  139.2160 C   0  0  2  0  0  3  0  0  0  0  0  0
  197.5350  169.5430  138.6230 C   0  0  0  0  0  2  0  0  0  0  0  0
  195.9750  170.2590  135.7380 C   0  0  0  0  0  0  0  0  0  0  0  0
  196.2110  170.8300  137.0260 N   0  0  0  0  0  2  0  0  0  0  0  0
  196.9120  169.6790  135.1180 O   0  0  0  0  0  0  0  0  0  0  0  0
  192.9660  168.8300  135.9860 C   0  0  0  0  0  2  0  0  0  0  0  0
  193.2240  172.2950  135.3450 N   0  0  0  0  0  2  0  0  0  0  0  0
  191.4040  170.6880  135.4730 C   0  0  1  0  0  3  0  0  0  0  0  0
  189.2120  171.6510  135.7760 O   0  0  0  0  0  0  0  0  0  0  0  0
  192.5150  170.2200  136.3780 C   0  0  2  0  0  3  0  0  0  0  0  0
  190.0600  170.6210  136.2030 C   0  0  0  0  0  2  0  0  0  0  0  0
  194.0500  168.9550  135.0270 N   0  0  0  0  0  2  0  0  0  0  0  0
  189.7310  172.8000  136.3720 C   0  0  0  0  0  2  0  0  0  0  0  0
  193.6860  171.1100  136.0660 C   0  0  1  0  0  3  0  0  0  0  0  0
  194.5970  170.2980  135.1720 C   0  0  1  0  0  3  0  0  0  0  0  0
  190.9870  173.2620  135.6360 C   0  0  0  0  0  2  0  0  0  0  0  0
  191.8090  172.1030  135.0410 C   0  0  1  0  0  3  0  0  0  0  0  0
  1 34  1  6  0  0  0
  2  5  1  0  0  0  0
  2  4  1  0  0  0  0
  3 11  1  0  0  0  0
  4 12  1  0  0  0  0
  4 36  1  0  0  0  0
  5 13  1  0  0  0  0
  6  9  1  0  0  0  0
  6 10  1  0  0  0  0
  7  1  1  0  0  0  0
  8  3  1  0  0  0  0
  9 11  1  0  0  0  0
 10  2  1  0  0  0  0
 11  5  1  0  0  0  0
 12  1  1  0  0  0  0
 13  7  1  0  0  0  0
 14  8  1  0  0  0  0
 14  9  1  0  0  0  0
 15 10  1  0  0  0  0
 16 17  2  0  0  0  0
 16 15  1  0  0  0  0
 18 23  1  0  0  0  0
 18 21  1  0  0  0  0
 19 16  1  0  0  0  0
 19 21  1  0  0  0  0
 20 19  1  0  0  0  0
 22 20  1  0  0  0  0
 22 18  2  0  0  0  0
 24 23  1  0  0  0  0
 24 27  1  0  0  0  0
 25 26  1  0  0  0  0
 25 33  1  0  0  0  0
 27 30  1  0  0  0  0
 27 29  1  0  0  0  0
 28 30  2  0  0  0  0
 29 26  1  0  0  0  0
 30 25  1  0  0  0  0
 31 33  2  0  0  0  0
 33 32  1  0  0  0  0
 35 34  1  0  0  0  0
 37 36  1  0  0  0  0
 37 38  1  0  0  0  0
 38 39  1  0  0  0  0
 38 40  1  0  0  0  0
 41 38  2  0  0  0  0
 42 14  1  0  0  0  0
 43 45  1  0  0  0  0
 43 44  1  0  0  0  0
 44 42  1  0  0  0  0
 45 44  1  0  0  0  0
 46 47  1  0  0  0  0
 47 43  1  0  0  0  0
 48 46  2  0  0  0  0
 49 53  1  0  0  0  0
 50 57  1  0  0  0  0
 51 54  1  0  0  0  0
 51 53  1  0  0  0  0
 52 54  1  0  0  0  0
 52 56  1  0  0  0  0
 55 58  1  0  0  0  0
 55 49  1  0  0  0  0
 57 53  1  0  0  0  0
 58 46  1  0  0  0  0
 58 57  1  0  0  0  0
 59 56  1  0  0  0  0
 60 50  1  0  0  0  0
 60 51  1  0  0  0  0
 60 59  1  0  0  0  0
M  END
>  <MODEL>
3

>  <REMARK>
 VINA RESULT:      -7.0      3.316      4.759
  Name = 
  14 active torsions:
  status: ('A' for Active; 'I' for Inactive)
    1  A    between atoms: C_1  and  C_44
    2  A    between atoms: P_2  and  C_9
    3  A    between atoms: C_5  and  N_43
    4  A    between atoms: C_7  and  C_22
    5  A    between atoms: N_8  and  C_48
    6  A    between atoms: C_9  and  O_35
    7  A    between atoms: C_10  and  C_57
    8  A    between atoms: C_13  and  O_46
    9  A    between atoms: C_16  and  C_33
   10  A    between atoms: C_18  and  C_27
   11  A    between atoms: C_19  and  O_35
   12  A    between atoms: O_23  and  C_28
   13  A    between atoms: O_23  and  O_46
   14  A    between atoms: C_56  and  C_57
                            x       y       z     vdW  Elec       q    Type
                         _______ _______ _______ _____ _____    ______ ____

>  <TORSDO>
F 14

$$$$
=
 OpenBabel11042416123D

 60 68  0  0  1  0  0  0  0  0999 V2000
  186.2490  177.6930  145.6390 C   0  0  2  0  0  3  0  0  0  0  0  0
  188.4750  176.8610  143.3540 C   0  0  2  0  0  3  0  0  0  0  0  0
  186.0310  178.1540  140.6250 C   0  0  0  0  0  2  0  0  0  0  0  0
  188.3520  176.4830  144.8460 C   0  0  2  0  0  3  0  0  0  0  0  0
  187.1970  177.4680  142.7390 C   0  0  2  0  0  3  0  0  0  0  0  0
  188.2100  175.3190  141.3290 C   0  0  0  0  0  2  0  0  0  0  0  0
  185.7280  178.3150  144.3420 C   0  0  0  0  0  2  0  0  0  0  0  0
  185.9230  177.4170  139.3050 C   0  0  0  0  0  2  0  0  0  0  0  0
  187.8600  176.5230  140.4500 C   0  0  2  0  0  3  0  0  0  0  0  0
  189.1230  175.7660  142.4650 C   0  0  2  0  0  3  0  0  0  0  0  0
  187.3630  177.7510  141.2400 C   0  0  1  0  0  3  0  0  0  0  0  0
  186.9200  176.3460  145.3750 C   0  0  0  0  0  2  0  0  0  0  0  0
  186.8230  178.6770  143.4580 N   0  0  0  0  0  2  0  0  0  0  0  0
  186.7500  176.1600  139.4880 C   0  0  2  0  0  3  0  0  0  0  0  0
  189.5790  174.6090  143.2330 N   0  0  0  0  0  2  0  0  0  0  0  0
  190.6700  173.7990  142.7880 C   0  0  0  0  0  0  0  0  0  0  0  0
  191.2020  174.0070  141.6580 O   0  0  0  0  0  0  0  0  0  0  0  0
  193.3960  172.3140  144.2070 C   0  0  0  0  0  0  0  0  0  0  0  0
  191.1450  172.6740  143.6490 C   0  0  2  0  0  3  0  0  0  0  0  0
  191.5180  173.1600  144.9670 N   0  0  0  0  0  2  0  0  0  0  0  0
  192.4410  172.0800  143.0880 C   0  0  0  0  0  2  0  0  0  0  0  0
  192.8640  172.9030  145.2180 N   0  0  0  0  0  0  0  0  0  0  0  0
  194.7390  171.9480  144.1850 O   0  0  0  0  0  0  0  0  0  0  0  0
  195.4080  171.8870  143.0250 O   0  0  0  0  0  0  0  0  0  0  0  0
  195.9270  175.2240  143.1020 C   0  0  2  0  0  3  0  0  0  0  0  0
  196.4860  174.7670  144.3680 N   0  0  0  0  0  2  0  0  0  0  0  0
  196.3700  172.8960  143.1130 C   0  0  2  0  0  3  0  0  0  0  0  0
  195.6760  173.9660  141.0950 O   0  0  0  0  0  0  0  0  0  0  0  0
  196.3970  173.3900  144.4380 O   0  0  0  0  0  0  0  0  0  0  0  0
  195.9780  174.0300  142.2760 C   0  0  0  0  0  0  0  0  0  0  0  0
  196.2460  177.0960  141.4750 O   0  0  0  0  0  0  0  0  0  0  0  0
  197.9140  176.5810  142.9630 O   0  0  0  0  0  1  0  0  0  0  0  0
  196.7580  176.3340  142.5190 C   0  0  0  0  0  0  0  0  0  0  0  0
  185.0900  177.4710  146.5940 C   0  0  0  0  0  2  0  0  0  0  0  0
  184.9840  178.6200  147.5780 C   0  0  0  0  0  1  0  0  0  0  0  0
  189.1010  177.3570  145.6360 O   0  0  0  0  0  0  0  0  0  0  0  0
  190.4150  176.8940  145.5320 C   0  0  0  0  0  2  0  0  0  0  0  0
  190.9640  176.2630  147.1410 P   0  0  0  0  0  0  0  0  0  0  0  0
  190.8230  177.4800  148.3090 O   0  0  0  0  0  1  0  0  0  0  0  0
  190.1010  175.0890  147.5380 O   0  0  0  0  0  1  0  0  0  0  0  0
  192.5830  175.7710  147.0410 O   0  0  0  0  0  0  0  0  0  0  0  0
  187.2740  175.6080  138.1650 C   0  0  0  0  0  2  0  0  0  0  0  0
  187.2960  175.9510  135.6130 C   0  0  1  0  0  3  0  0  0  0  0  0
  186.6070  176.2540  136.9480 C   0  0  2  0  0  3  0  0  0  0  0  0
  187.5650  177.2580  136.3350 C   0  0  0  0  0  2  0  0  0  0  0  0
  189.7190  175.3290  135.2030 C   0  0  0  0  0  0  0  0  0  0  0  0
  188.4370  175.0500  135.7660 N   0  0  0  0  0  2  0  0  0  0  0  0
  189.8970  176.3740  134.5130 O   0  0  0  0  0  0  0  0  0  0  0  0
  192.6260  175.1440  136.8390 C   0  0  0  0  0  2  0  0  0  0  0  0
  190.5030  172.3230  136.6920 N   0  0  0  0  0  2  0  0  0  0  0  0
  192.7330  172.7700  137.5520 C   0  0  1  0  0  3  0  0  0  0  0  0
  193.5540  171.1560  139.1460 O   0  0  0  0  0  0  0  0  0  0  0  0
  191.9340  174.0460  137.6170 C   0  0  2  0  0  3  0  0  0  0  0  0
  193.4580  172.5270  138.8780 C   0  0  0  0  0  2  0  0  0  0  0  0
  192.1270  175.1200  135.4740 N   0  0  0  0  0  2  0  0  0  0  0  0
  192.2650  170.7820  139.5260 C   0  0  0  0  0  2  0  0  0  0  0  0
  190.6700  173.7670  136.8540 C   0  0  1  0  0  3  0  0  0  0  0  0
  190.8540  174.4090  135.4970 C   0  0  1  0  0  3  0  0  0  0  0  0
  191.3570  170.6800  138.3020 C   0  0  0  0  0  2  0  0  0  0  0  0
  191.7160  171.6810  137.1870 C   0  0  1  0  0  3  0  0  0  0  0  0
  1 34  1  1  0  0  0
  2  4  1  0  0  0  0
  3 11  1  0  0  0  0
  4 12  1  0  0  0  0
  4 36  1  0  0  0  0
  5  2  1  0  0  0  0
  5 13  1  0  0  0  0
  6 10  1  0  0  0  0
  7  1  1  0  0  0  0
  8 14  1  0  0  0  0
  8  3  1  0  0  0  0
  9 11  1  0  0  0  0
  9  6  1  0  0  0  0
 10 15  1  0  0  0  0
 10  2  1  0  0  0  0
 11  5  1  0  0  0  0
 12  1  1  0  0  0  0
 13  7  1  0  0  0  0
 14  9  1  0  0  0  0
 16 15  1  0  0  0  0
 16 19  1  0  0  0  0
 17 16  2  0  0  0  0
 18 22  2  0  0  0  0
 19 20  1  0  0  0  0
 20 22  1  0  0  0  0
 21 19  1  0  0  0  0
 21 18  1  0  0  0  0
 23 18  1  0  0  0  0
 24 27  1  0  0  0  0
 24 23  1  0  0  0  0
 25 26  1  0  0  0  0
 26 29  1  0  0  0  0
 27 29  1  0  0  0  0
 28 30  2  0  0  0  0
 30 25  1  0  0  0  0
 30 27  1  0  0  0  0
 31 33  2  0  0  0  0
 33 32  1  0  0  0  0
 33 25  1  0  0  0  0
 34 35  1  0  0  0  0
 37 36  1  0  0  0  0
 37 38  1  0  0  0  0
 38 40  1  0  0  0  0
 38 39  1  0  0  0  0
 41 38  2  0  0  0  0
 42 14  1  0  0  0  0
 43 47  1  0  0  0  0
 43 45  1  0  0  0  0
 43 44  1  0  0  0  0
 44 42  1  0  0  0  0
 45 44  1  0  0  0  0
 46 58  1  0  0  0  0
 46 47  1  0  0  0  0
 48 46  2  0  0  0  0
 49 53  1  0  0  0  0
 50 57  1  0  0  0  0
 50 60  1  0  0  0  0
 51 53  1  0  0  0  0
 51 54  1  0  0  0  0
 52 56  1  0  0  0  0
 54 52  1  0  0  0  0
 55 58  1  0  0  0  0
 55 49  1  0  0  0  0
 57 53  1  0  0  0  0
 58 57  1  0  0  0  0
 59 56  1  0  0  0  0
 60 51  1  0  0  0  0
 60 59  1  0  0  0  0
M  END
>  <MODEL>
4

>  <REMARK>
 VINA RESULT:      -6.9      4.087      8.827
  Name = 
  14 active torsions:
  status: ('A' for Active; 'I' for Inactive)
    1  A    between atoms: C_1  and  C_44
    2  A    between atoms: P_2  and  C_9
    3  A    between atoms: C_5  and  N_43
    4  A    between atoms: C_7  and  C_22
    5  A    between atoms: N_8  and  C_48
    6  A    between atoms: C_9  and  O_35
    7  A    between atoms: C_10  and  C_57
    8  A    between atoms: C_13  and  O_46
    9  A    between atoms: C_16  and  C_33
   10  A    between atoms: C_18  and  C_27
   11  A    between atoms: C_19  and  O_35
   12  A    between atoms: O_23  and  C_28
   13  A    between atoms: O_23  and  O_46
   14  A    between atoms: C_56  and  C_57
                            x       y       z     vdW  Elec       q    Type
                         _______ _______ _______ _____ _____    ______ ____

>  <TORSDO>
F 14

$$$$
=
 OpenBabel11042416123D

 60 68  0  0  1  0  0  0  0  0999 V2000
  194.6810  175.0320  145.7620 C   0  0  2  0  0  3  0  0  0  0  0  0
  194.2100  173.4940  142.8850 C   0  0  2  0  0  3  0  0  0  0  0  0
  197.4580  175.1610  141.5580 C   0  0  0  0  0  2  0  0  0  0  0  0
  193.2650  173.7320  144.0830 C   0  0  2  0  0  3  0  0  0  0  0  0
  195.4770  174.3730  142.8820 C   0  0  2  0  0  3  0  0  0  0  0  0
  194.0260  174.4880  140.5340 C   0  0  0  0  0  2  0  0  0  0  0  0
  195.9810  175.2510  144.9850 C   0  0  0  0  0  2  0  0  0  0  0  0
  197.5260  175.6290  140.1190 C   0  0  0  0  0  2  0  0  0  0  0  0
  195.5270  174.2780  140.3210 C   0  0  2  0  0  3  0  0  0  0  0  0
  193.4970  173.4400  141.5070 C   0  0  2  0  0  3  0  0  0  0  0  0
  196.3320  174.1400  141.6300 C   0  0  1  0  0  3  0  0  0  0  0  0
  193.4700  175.0540  144.8300 C   0  0  0  0  0  2  0  0  0  0  0  0
  196.2500  174.1370  144.0920 N   0  0  0  0  0  2  0  0  0  0  0  0
  196.1190  175.4590  139.5820 C   0  0  2  0  0  3  0  0  0  0  0  0
  192.0440  173.5370  141.6150 N   0  0  0  0  0  2  0  0  0  0  0  0
  191.1800  172.6220  140.9360 C   0  0  0  0  0  0  0  0  0  0  0  0
  191.6590  171.7640  140.1360 O   0  0  0  0  0  0  0  0  0  0  0  0
  188.6420  174.5360  142.1790 C   0  0  0  0  0  0  0  0  0  0  0  0
  189.7030  172.7180  141.1420 C   0  0  2  0  0  3  0  0  0  0  0  0
  189.1190  173.6760  140.2160 N   0  0  0  0  0  2  0  0  0  0  0  0
  189.3910  173.2960  142.5250 C   0  0  0  0  0  2  0  0  0  0  0  0
  188.5090  174.7160  140.9140 N   0  0  0  0  0  0  0  0  0  0  0  0
  188.1330  175.4340  143.1120 O   0  0  0  0  0  0  0  0  0  0  0  0
  187.8240  176.6880  142.7520 O   0  0  0  0  0  0  0  0  0  0  0  0
  185.5960  177.1890  145.2410 C   0  0  2  0  0  3  0  0  0  0  0  0
  186.7590  176.6500  145.9340 N   0  0  0  0  0  2  0  0  0  0  0  0
  187.5790  177.3560  143.9550 C   0  0  2  0  0  3  0  0  0  0  0  0
  185.5640  178.3720  143.1740 O   0  0  0  0  0  0  0  0  0  0  0  0
  187.7840  176.4580  145.0280 O   0  0  0  0  0  0  0  0  0  0  0  0
  186.1700  177.7450  144.0290 C   0  0  0  0  0  0  0  0  0  0  0  0
  185.5850  178.7840  147.1680 O   0  0  0  0  0  1  0  0  0  0  0  0
  183.7630  178.6590  145.7810 O   0  0  0  0  0  0  0  0  0  0  0  0
  184.9230  178.2500  146.0690 C   0  0  0  0  0  0  0  0  0  0  0  0
  194.5140  176.1380  146.7890 C   0  0  0  0  0  2  0  0  0  0  0  0
  193.0780  176.6240  146.8190 C   0  0  0  0  0  1  0  0  0  0  0  0
  193.3010  172.6460  144.9590 O   0  0  0  0  0  0  0  0  0  0  0  0
  193.0220  171.5340  144.1590 C   0  0  0  0  0  2  0  0  0  0  0  0
  194.2010  170.2080  144.5350 P   0  0  0  0  0  0  0  0  0  0  0  0
  194.1920  169.8910  146.1970 O   0  0  0  0  0  1  0  0  0  0  0  0
  193.8010  168.9570  143.7880 O   0  0  0  0  0  0  0  0  0  0  0  0
  195.7600  170.6780  144.0640 O   0  0  0  0  0  1  0  0  0  0  0  0
  196.0890  175.2810  138.0670 C   0  0  0  0  0  2  0  0  0  0  0  0
  197.5050  174.1940  136.2120 C   0  0  1  0  0  3  0  0  0  0  0  0
  197.4810  175.0730  137.4670 C   0  0  2  0  0  3  0  0  0  0  0  0
  197.8480  173.6040  137.5670 C   0  0  0  0  0  2  0  0  0  0  0  0
  195.9270  172.5370  135.1200 C   0  0  0  0  0  0  0  0  0  0  0  0
  196.1680  173.7680  135.8030 N   0  0  0  0  0  2  0  0  0  0  0  0
  196.8930  171.7790  134.8160 O   0  0  0  0  0  0  0  0  0  0  0  0
  193.4980  170.4900  136.1540 C   0  0  0  0  0  2  0  0  0  0  0  0
  192.6980  173.7280  134.9880 N   0  0  0  0  0  2  0  0  0  0  0  0
  191.4280  171.7800  135.6980 C   0  0  1  0  0  3  0  0  0  0  0  0
  189.1290  172.2190  136.2850 O   0  0  0  0  0  0  0  0  0  0  0  0
  192.7490  171.7770  136.4240 C   0  0  2  0  0  3  0  0  0  0  0  0
  190.2810  171.5260  136.6790 C   0  0  0  0  0  2  0  0  0  0  0  0
  194.3480  170.6920  134.9930 N   0  0  0  0  0  2  0  0  0  0  0  0
  189.3970  173.5510  136.5970 C   0  0  0  0  0  2  0  0  0  0  0  0
  193.5700  172.8500  135.7660 C   0  0  1  0  0  3  0  0  0  0  0  0
  194.5220  172.1320  134.8350 C   0  0  1  0  0  3  0  0  0  0  0  0
  190.3530  174.1580  135.5710 C   0  0  0  0  0  2  0  0  0  0  0  0
  191.3600  173.1430  134.9970 C   0  0  1  0  0  3  0  0  0  0  0  0
  1 34  1  1  0  0  0
  2  4  1  0  0  0  0
  3 11  1  0  0  0  0
  4 12  1  0  0  0  0
  4 36  1  0  0  0  0
  5  2  1  0  0  0  0
  5 13  1  0  0  0  0
  6 10  1  0  0  0  0
  7  1  1  0  0  0  0
  8  3  1  0  0  0  0
  9  6  1  0  0  0  0
  9 11  1  0  0  0  0
 10 15  1  0  0  0  0
 10  2  1  0  0  0  0
 11  5  1  0  0  0  0
 12  1  1  0  0  0  0
 13  7  1  0  0  0  0
 14  8  1  0  0  0  0
 14  9  1  0  0  0  0
 16 19  1  0  0  0  0
 16 15  1  0  0  0  0
 17 16  2  0  0  0  0
 18 21  1  0  0  0  0
 18 23  1  0  0  0  0
 19 21  1  0  0  0  0
 20 22  1  0  0  0  0
 20 19  1  0  0  0  0
 22 18  2  0  0  0  0
 24 23  1  0  0  0  0
 24 27  1  0  0  0  0
 25 26  1  0  0  0  0
 25 33  1  0  0  0  0
 27 30  1  0  0  0  0
 27 29  1  0  0  0  0
 28 30  2  0  0  0  0
 29 26  1  0  0  0  0
 30 25  1  0  0  0  0
 32 33  2  0  0  0  0
 33 31  1  0  0  0  0
 34 35  1  0  0  0  0
 37 38  1  0  0  0  0
 37 36  1  0  0  0  0
 38 39  1  0  0  0  0
 40 38  2  0  0  0  0
 41 38  1  0  0  0  0
 42 14  1  0  0  0  0
 43 44  1  0  0  0  0
 43 45  1  0  0  0  0
 44 45  1  0  0  0  0
 44 42  1  0  0  0  0
 46 47  1  0  0  0  0
 47 43  1  0  0  0  0
 48 46  2  0  0  0  0
 49 53  1  0  0  0  0
 50 60  1  0  0  0  0
 50 57  1  0  0  0  0
 51 53  1  0  0  0  0
 51 54  1  0  0  0  0
 52 56  1  0  0  0  0
 52 54  1  0  0  0  0
 55 49  1  0  0  0  0
 57 53  1  0  0  0  0
 58 55  1  0  0  0  0
 58 46  1  0  0  0  0
 58 57  1  0  0  0  0
 59 56  1  0  0  0  0
 60 59  1  0  0  0  0
 60 51  1  0  0  0  0
M  END
>  <MODEL>
5

>  <REMARK>
 VINA RESULT:      -6.7      3.627      5.792
  Name = 
  14 active torsions:
  status: ('A' for Active; 'I' for Inactive)
    1  A    between atoms: C_1  and  C_44
    2  A    between atoms: P_2  and  C_9
    3  A    between atoms: C_5  and  N_43
    4  A    between atoms: C_7  and  C_22
    5  A    between atoms: N_8  and  C_48
    6  A    between atoms: C_9  and  O_35
    7  A    between atoms: C_10  and  C_57
    8  A    between atoms: C_13  and  O_46
    9  A    between atoms: C_16  and  C_33
   10  A    between atoms: C_18  and  C_27
   11  A    between atoms: C_19  and  O_35
   12  A    between atoms: O_23  and  C_28
   13  A    between atoms: O_23  and  O_46
   14  A    between atoms: C_56  and  C_57
                            x       y       z     vdW  Elec       q    Type
                         _______ _______ _______ _____ _____    ______ ____

>  <TORSDO>
F 14

$$$$
=
 OpenBabel11042416123D

 60 68  0  0  1  0  0  0  0  0999 V2000
  195.0400  174.8230  145.3230 C   0  0  2  0  0  3  0  0  0  0  0  0
  194.5820  172.8220  142.7440 C   0  0  2  0  0  3  0  0  0  0  0  0
  197.4740  174.6580  140.9130 C   0  0  0  0  0  2  0  0  0  0  0  0
  193.6990  173.1190  143.9760 C   0  0  2  0  0  3  0  0  0  0  0  0
  195.7150  173.8410  142.5050 C   0  0  2  0  0  3  0  0  0  0  0  0
  194.1010  173.4200  140.3020 C   0  0  0  0  0  2  0  0  0  0  0  0
  196.2410  175.0810  144.4110 C   0  0  0  0  0  2  0  0  0  0  0  0
  197.3770  174.9080  139.4210 C   0  0  0  0  0  2  0  0  0  0  0  0
  195.5990  173.3670  139.9880 C   0  0  2  0  0  3  0  0  0  0  0  0
  193.7890  172.4730  141.4560 C   0  0  2  0  0  3  0  0  0  0  0  0
  196.5040  173.5280  141.2270 C   0  0  1  0  0  3  0  0  0  0  0  0
  193.7760  174.5550  144.5090 C   0  0  0  0  0  2  0  0  0  0  0  0
  196.5960  173.8870  143.6630 N   0  0  0  0  0  2  0  0  0  0  0  0
  195.9720  174.4860  139.0410 C   0  0  2  0  0  3  0  0  0  0  0  0
  192.3460  172.4050  141.6790 N   0  0  0  0  0  2  0  0  0  0  0  0
  191.5130  173.5590  141.5480 C   0  0  0  0  0  0  0  0  0  0  0  0
  192.0270  174.6970  141.3340 O   0  0  0  0  0  0  0  0  0  0  0  0
  188.6410  175.1190  142.5330 C   0  0  0  0  0  0  0  0  0  0  0  0
  190.0350  173.4180  141.7120 C   0  0  2  0  0  3  0  0  0  0  0  0
  189.3320  174.1640  140.6800 N   0  0  0  0  0  2  0  0  0  0  0  0
  189.5770  174.0680  143.0210 C   0  0  0  0  0  2  0  0  0  0  0  0
  188.5280  175.1470  141.2540 N   0  0  0  0  0  0  0  0  0  0  0  0
  187.9520  176.0030  143.3570 O   0  0  0  0  0  0  0  0  0  0  0  0
  188.4360  177.2310  143.5940 O   0  0  0  0  0  0  0  0  0  0  0  0
  185.6880  177.2690  145.5580 C   0  0  2  0  0  3  0  0  0  0  0  0
  186.6330  176.4610  146.3180 N   0  0  0  0  0  2  0  0  0  0  0  0
  187.9270  177.5800  144.8480 C   0  0  2  0  0  3  0  0  0  0  0  0
  186.1900  178.9490  143.9470 O   0  0  0  0  0  0  0  0  0  0  0  0
  187.8410  176.4180  145.6480 O   0  0  0  0  0  0  0  0  0  0  0  0
  186.5530  178.0660  144.7080 C   0  0  0  0  0  0  0  0  0  0  0  0
  183.7360  178.7760  145.9780 O   0  0  0  0  0  0  0  0  0  0  0  0
  185.1870  178.2870  147.6860 O   0  0  0  0  0  1  0  0  0  0  0  0
  184.8650  178.1340  146.4740 C   0  0  0  0  0  0  0  0  0  0  0  0
  194.7980  176.0410  146.1950 C   0  0  0  0  0  2  0  0  0  0  0  0
  193.3560  176.0820  146.6630 C   0  0  0  0  0  1  0  0  0  0  0  0
  193.9430  172.1910  144.9890 O   0  0  0  0  0  0  0  0  0  0  0  0
  193.1510  171.0880  144.6590 C   0  0  0  0  0  2  0  0  0  0  0  0
  194.1210  169.5670  144.8510 P   0  0  0  0  0  0  0  0  0  0  0  0
  195.3570  169.8180  145.9790 O   0  0  0  0  0  1  0  0  0  0  0  0
  193.2190  168.4580  145.3380 O   0  0  0  0  0  1  0  0  0  0  0  0
  194.8040  169.1320  143.3610 O   0  0  0  0  0  0  0  0  0  0  0  0
  195.8610  174.0800  137.5750 C   0  0  0  0  0  2  0  0  0  0  0  0
  194.9300  175.3050  135.5110 C   0  0  1  0  0  3  0  0  0  0  0  0
  195.9880  175.2680  136.6190 C   0  0  2  0  0  3  0  0  0  0  0  0
  196.3150  174.7530  135.2300 C   0  0  0  0  0  2  0  0  0  0  0  0
  192.6570  174.3920  136.1630 C   0  0  0  0  0  0  0  0  0  0  0  0
  193.9660  174.2110  135.6220 N   0  0  0  0  0  2  0  0  0  0  0  0
  192.3000  175.5230  136.6010 O   0  0  0  0  0  0  0  0  0  0  0  0
  192.3050  171.2550  135.0690 C   0  0  0  0  0  2  0  0  0  0  0  0
  190.9560  172.1930  138.1970 N   0  0  0  0  0  2  0  0  0  0  0  0
  190.9030  170.1910  136.8180 C   0  0  1  0  0  3  0  0  0  0  0  0
  190.2750  168.1690  137.9770 O   0  0  0  0  0  0  0  0  0  0  0  0
  192.1900  170.9250  136.5410 C   0  0  2  0  0  3  0  0  0  0  0  0
  191.1770  168.7030  137.0470 C   0  0  0  0  0  2  0  0  0  0  0  0
  191.7250  172.5690  134.8500 N   0  0  0  0  0  2  0  0  0  0  0  0
  190.7040  168.6660  139.2070 C   0  0  0  0  0  2  0  0  0  0  0  0
  192.0490  172.2540  137.2280 C   0  0  1  0  0  3  0  0  0  0  0  0
  191.7030  173.2480  136.1410 C   0  0  1  0  0  3  0  0  0  0  0  0
  190.3030  170.1320  139.3600 C   0  0  0  0  0  2  0  0  0  0  0  0
  190.2880  170.9060  138.0280 C   0  0  1  0  0  3  0  0  0  0  0  0
  1 34  1  1  0  0  0
  2  4  1  0  0  0  0
  3 11  1  0  0  0  0
  4 12  1  0  0  0  0
  4 36  1  0  0  0  0
  5  2  1  0  0  0  0
  5 13  1  0  0  0  0
  6 10  1  0  0  0  0
  7  1  1  0  0  0  0
  8  3  1  0  0  0  0
  9  6  1  0  0  0  0
  9 11  1  0  0  0  0
 10 15  1  0  0  0  0
 10  2  1  0  0  0  0
 11  5  1  0  0  0  0
 12  1  1  0  0  0  0
 13  7  1  0  0  0  0
 14  8  1  0  0  0  0
 14  9  1  0  0  0  0
 16 15  1  0  0  0  0
 16 19  1  0  0  0  0
 17 16  2  0  0  0  0
 18 21  1  0  0  0  0
 18 23  1  0  0  0  0
 19 21  1  0  0  0  0
 20 22  1  0  0  0  0
 20 19  1  0  0  0  0
 22 18  2  0  0  0  0
 23 24  1  0  0  0  0
 24 27  1  0  0  0  0
 25 26  1  0  0  0  0
 25 33  1  0  0  0  0
 27 29  1  0  0  0  0
 28 30  2  0  0  0  0
 29 26  1  0  0  0  0
 30 27  1  0  0  0  0
 30 25  1  0  0  0  0
 31 33  2  0  0  0  0
 33 32  1  0  0  0  0
 34 35  1  0  0  0  0
 37 38  1  0  0  0  0
 37 36  1  0  0  0  0
 38 40  1  0  0  0  0
 38 39  1  0  0  0  0
 41 38  2  0  0  0  0
 42 14  1  0  0  0  0
 43 47  1  0  0  0  0
 43 44  1  0  0  0  0
 44 42  1  0  0  0  0
 45 43  1  0  0  0  0
 45 44  1  0  0  0  0
 46 48  2  0  0  0  0
 47 46  1  0  0  0  0
 49 53  1  0  0  0  0
 51 54  1  0  0  0  0
 51 60  1  0  0  0  0
 52 56  1  0  0  0  0
 53 51  1  0  0  0  0
 53 57  1  0  0  0  0
 54 52  1  0  0  0  0
 55 49  1  0  0  0  0
 55 58  1  0  0  0  0
 56 59  1  0  0  0  0
 57 50  1  0  0  0  0
 58 46  1  0  0  0  0
 58 57  1  0  0  0  0
 60 50  1  0  0  0  0
 60 59  1  0  0  0  0
M  END
>  <MODEL>
6

>  <REMARK>
 VINA RESULT:      -6.7      3.696      5.913
  Name = 
  14 active torsions:
  status: ('A' for Active; 'I' for Inactive)
    1  A    between atoms: C_1  and  C_44
    2  A    between atoms: P_2  and  C_9
    3  A    between atoms: C_5  and  N_43
    4  A    between atoms: C_7  and  C_22
    5  A    between atoms: N_8  and  C_48
    6  A    between atoms: C_9  and  O_35
    7  A    between atoms: C_10  and  C_57
    8  A    between atoms: C_13  and  O_46
    9  A    between atoms: C_16  and  C_33
   10  A    between atoms: C_18  and  C_27
   11  A    between atoms: C_19  and  O_35
   12  A    between atoms: O_23  and  C_28
   13  A    between atoms: O_23  and  O_46
   14  A    between atoms: C_56  and  C_57
                            x       y       z     vdW  Elec       q    Type
                         _______ _______ _______ _____ _____    ______ ____

>  <TORSDO>
F 14

$$$$
=
 OpenBabel11042416123D

 60 68  0  0  1  0  0  0  0  0999 V2000
  193.7620  175.3230  145.6360 C   0  0  2  0  0  3  0  0  0  0  0  0
  193.0910  172.7460  143.6920 C   0  0  2  0  0  3  0  0  0  0  0  0
  196.8880  172.4320  142.9390 C   0  0  0  0  0  2  0  0  0  0  0  0
  192.1780  173.8360  144.2950 C   0  0  2  0  0  3  0  0  0  0  0  0
  194.5970  173.0730  143.7380 C   0  0  2  0  0  3  0  0  0  0  0  0
  193.6720  172.3900  141.2260 C   0  0  0  0  0  2  0  0  0  0  0  0
  195.1270  174.7100  145.3140 C   0  0  0  0  0  2  0  0  0  0  0  0
  197.3470  172.0460  141.5470 C   0  0  0  0  0  2  0  0  0  0  0  0
  194.9580  171.6620  141.6280 C   0  0  2  0  0  3  0  0  0  0  0  0
  192.6210  172.2060  142.3150 C   0  0  2  0  0  3  0  0  0  0  0  0
  195.4390  171.9850  143.0580 C   0  0  1  0  0  3  0  0  0  0  0  0
  192.8170  175.2230  144.4400 C   0  0  0  0  0  2  0  0  0  0  0  0
  195.0220  173.2740  145.1150 N   0  0  0  0  0  2  0  0  0  0  0  0
  196.0890  172.0540  140.7020 C   0  0  2  0  0  3  0  0  0  0  0  0
  191.3440  172.7740  141.8880 N   0  0  0  0  0  2  0  0  0  0  0  0
  190.1460  171.9940  141.8710 C   0  0  0  0  0  0  0  0  0  0  0  0
  190.1860  170.7550  142.1300 O   0  0  0  0  0  0  0  0  0  0  0  0
  188.5280  174.9680  141.4340 C   0  0  0  0  0  0  0  0  0  0  0  0
  188.8530  172.6450  141.4990 C   0  0  2  0  0  3  0  0  0  0  0  0
  188.9370  173.2220  140.1670 N   0  0  0  0  0  2  0  0  0  0  0  0
  188.5740  173.8430  142.4100 C   0  0  0  0  0  2  0  0  0  0  0  0
  188.7280  174.5990  140.2200 N   0  0  0  0  0  0  0  0  0  0  0  0
  188.3010  176.2980  141.7760 O   0  0  0  0  0  0  0  0  0  0  0  0
  187.0530  176.7490  141.9600 O   0  0  0  0  0  0  0  0  0  0  0  0
  185.4330  177.4900  144.8310 C   0  0  2  0  0  3  0  0  0  0  0  0
  186.6830  176.9000  145.2920 N   0  0  0  0  0  2  0  0  0  0  0  0
  187.1070  177.4760  143.1530 C   0  0  2  0  0  3  0  0  0  0  0  0
  185.0350  178.5960  142.7590 O   0  0  0  0  0  0  0  0  0  0  0  0
  187.4810  176.6060  144.2030 O   0  0  0  0  0  0  0  0  0  0  0  0
  185.7700  177.9610  143.4990 C   0  0  0  0  0  0  0  0  0  0  0  0
  183.6880  179.0440  145.7230 O   0  0  0  0  0  0  0  0  0  0  0  0
  185.8480  179.2000  146.4790 O   0  0  0  0  0  1  0  0  0  0  0  0
  185.0130  178.6240  145.7260 C   0  0  0  0  0  0  0  0  0  0  0  0
  193.9370  176.7890  145.9860 C   0  0  0  0  0  2  0  0  0  0  0  0
  193.2150  177.6660  144.9820 C   0  0  0  0  0  1  0  0  0  0  0  0
  191.6300  173.4040  145.5040 O   0  0  0  0  0  0  0  0  0  0  0  0
  190.3180  173.8830  145.4920 C   0  0  0  0  0  2  0  0  0  0  0  0
  190.0830  175.0400  146.8690 P   0  0  0  0  0  0  0  0  0  0  0  0
  189.9980  176.6220  146.2760 O   0  0  0  0  0  0  0  0  0  0  0  0
  188.7970  174.7070  147.5870 O   0  0  0  0  0  1  0  0  0  0  0  0
  191.3860  174.9170  147.9470 O   0  0  0  0  0  1  0  0  0  0  0  0
  196.1980  171.1400  139.4850 C   0  0  0  0  0  2  0  0  0  0  0  0
  197.7340  172.1720  137.6960 C   0  0  1  0  0  3  0  0  0  0  0  0
  197.5870  171.1680  138.8450 C   0  0  2  0  0  3  0  0  0  0  0  0
  197.4770  170.7060  137.4040 C   0  0  0  0  0  2  0  0  0  0  0  0
  196.5190  174.3750  137.3820 C   0  0  0  0  0  0  0  0  0  0  0  0
  196.5160  172.9500  137.4740 N   0  0  0  0  0  2  0  0  0  0  0  0
  197.5970  175.0190  137.5260 O   0  0  0  0  0  0  0  0  0  0  0  0
  194.6950  175.4720  134.8080 C   0  0  0  0  0  2  0  0  0  0  0  0
  193.0930  174.1450  137.6640 N   0  0  0  0  0  2  0  0  0  0  0  0
  192.3600  175.2150  135.6070 C   0  0  1  0  0  3  0  0  0  0  0  0
  190.0400  174.8640  135.0450 O   0  0  0  0  0  0  0  0  0  0  0  0
  193.6600  174.5020  135.3350 C   0  0  2  0  0  3  0  0  0  0  0  0
  191.3370  174.8910  134.5160 C   0  0  0  0  0  2  0  0  0  0  0  0
  195.4380  176.0050  135.9370 N   0  0  0  0  0  2  0  0  0  0  0  0
  189.9810  173.6710  135.7650 C   0  0  0  0  0  2  0  0  0  0  0  0
  194.1750  174.0800  136.6820 C   0  0  1  0  0  3  0  0  0  0  0  0
  195.2490  175.0790  137.0490 C   0  0  1  0  0  3  0  0  0  0  0  0
  190.7310  173.8090  137.0890 C   0  0  0  0  0  2  0  0  0  0  0  0
  191.9420  174.7600  137.0110 C   0  0  1  0  0  3  0  0  0  0  0  0
  1 34  1  6  0  0  0
  2  5  1  0  0  0  0
  2  4  1  0  0  0  0
  3 11  1  0  0  0  0
  4 12  1  0  0  0  0
  4 36  1  0  0  0  0
  5 13  1  0  0  0  0
  6  9  1  0  0  0  0
  6 10  1  0  0  0  0
  7  1  1  0  0  0  0
  8  3  1  0  0  0  0
  9 11  1  0  0  0  0
 10  2  1  0  0  0  0
 11  5  1  0  0  0  0
 12  1  1  0  0  0  0
 13  7  1  0  0  0  0
 14  8  1  0  0  0  0
 14  9  1  0  0  0  0
 15 10  1  0  0  0  0
 16 15  1  0  0  0  0
 16 17  2  0  0  0  0
 18 23  1  0  0  0  0
 18 21  1  0  0  0  0
 19 16  1  0  0  0  0
 19 21  1  0  0  0  0
 20 22  1  0  0  0  0
 20 19  1  0  0  0  0
 22 18  2  0  0  0  0
 23 24  1  0  0  0  0
 24 27  1  0  0  0  0
 25 26  1  0  0  0  0
 25 33  1  0  0  0  0
 27 30  1  0  0  0  0
 27 29  1  0  0  0  0
 28 30  2  0  0  0  0
 29 26  1  0  0  0  0
 30 25  1  0  0  0  0
 31 33  2  0  0  0  0
 33 32  1  0  0  0  0
 35 34  1  0  0  0  0
 37 36  1  0  0  0  0
 37 38  1  0  0  0  0
 38 40  1  0  0  0  0
 38 41  1  0  0  0  0
 39 38  2  0  0  0  0
 42 14  1  0  0  0  0
 43 44  1  0  0  0  0
 44 42  1  0  0  0  0
 45 43  1  0  0  0  0
 45 44  1  0  0  0  0
 46 47  1  0  0  0  0
 46 48  2  0  0  0  0
 47 43  1  0  0  0  0
 49 53  1  0  0  0  0
 49 55  1  0  0  0  0
 51 60  1  0  0  0  0
 52 56  1  0  0  0  0
 53 51  1  0  0  0  0
 53 57  1  0  0  0  0
 54 52  1  0  0  0  0
 54 51  1  0  0  0  0
 55 58  1  0  0  0  0
 56 59  1  0  0  0  0
 57 58  1  0  0  0  0
 57 50  1  0  0  0  0
 58 46  1  0  0  0  0
 60 59  1  0  0  0  0
 60 50  1  0  0  0  0
M  END
>  <MODEL>
7

>  <REMARK>
 VINA RESULT:      -6.7      3.417      4.727
  Name = 
  14 active torsions:
  status: ('A' for Active; 'I' for Inactive)
    1  A    between atoms: C_1  and  C_44
    2  A    between atoms: P_2  and  C_9
    3  A    between atoms: C_5  and  N_43
    4  A    between atoms: C_7  and  C_22
    5  A    between atoms: N_8  and  C_48
    6  A    between atoms: C_9  and  O_35
    7  A    between atoms: C_10  and  C_57
    8  A    between atoms: C_13  and  O_46
    9  A    between atoms: C_16  and  C_33
   10  A    between atoms: C_18  and  C_27
   11  A    between atoms: C_19  and  O_35
   12  A    between atoms: O_23  and  C_28
   13  A    between atoms: O_23  and  O_46
   14  A    between atoms: C_56  and  C_57
                            x       y       z     vdW  Elec       q    Type
                         _______ _______ _______ _____ _____    ______ ____

>  <TORSDO>
F 14

$$$$
=
 OpenBabel11042416123D

 60 68  0  0  1  0  0  0  0  0999 V2000
  190.7440  176.8720  147.4370 C   0  0  2  0  0  3  0  0  0  0  0  0
  189.6210  175.3320  144.7480 C   0  0  2  0  0  3  0  0  0  0  0  0
  192.6380  172.8960  144.9850 C   0  0  0  0  0  2  0  0  0  0  0  0
  189.2680  176.7040  145.3620 C   0  0  2  0  0  3  0  0  0  0  0  0
  190.9230  174.7040  145.2850 C   0  0  2  0  0  3  0  0  0  0  0  0
  190.8150  174.8780  142.5300 C   0  0  0  0  0  2  0  0  0  0  0  0
  191.5860  175.5980  147.3370 C   0  0  0  0  0  2  0  0  0  0  0  0
  193.3140  172.4160  143.7170 C   0  0  0  0  0  2  0  0  0  0  0  0
  191.2610  173.5070  143.0440 C   0  0  2  0  0  3  0  0  0  0  0  0
  189.5030  175.2720  143.2010 C   0  0  2  0  0  3  0  0  0  0  0  0
  191.2530  173.3820  144.5810 C   0  0  1  0  0  3  0  0  0  0  0  0
  190.4250  177.4330  146.0530 C   0  0  0  0  0  2  0  0  0  0  0  0
  190.8300  174.5180  146.7250 N   0  0  0  0  0  2  0  0  0  0  0  0
  192.6800  173.2220  142.6020 C   0  0  2  0  0  3  0  0  0  0  0  0
  188.9900  176.5110  142.6230 N   0  0  0  0  0  2  0  0  0  0  0  0
  187.7590  176.5450  141.8950 C   0  0  0  0  0  0  0  0  0  0  0  0
  187.1350  175.4710  141.6460 O   0  0  0  0  0  0  0  0  0  0  0  0
  184.9700  178.4380  141.3620 C   0  0  0  0  0  0  0  0  0  0  0  0
  187.2420  177.8520  141.3900 C   0  0  2  0  0  3  0  0  0  0  0  0
  186.8320  178.7010  142.4960 N   0  0  0  0  0  2  0  0  0  0  0  0
  185.9580  177.6440  140.5810 C   0  0  0  0  0  2  0  0  0  0  0  0
  185.4750  179.0030  142.3990 N   0  0  0  0  0  0  0  0  0  0  0  0
  183.6240  178.5650  141.0300 O   0  0  0  0  0  0  0  0  0  0  0  0
  182.6720  178.2840  141.9310 O   0  0  0  0  0  0  0  0  0  0  0  0
  179.3680  178.1430  141.2420 C   0  0  2  0  0  3  0  0  0  0  0  0
  179.4480  179.1370  142.3040 N   0  0  0  0  0  2  0  0  0  0  0  0
  181.5560  179.0120  141.5100 C   0  0  2  0  0  3  0  0  0  0  0  0
  181.0730  177.5430  139.6910 O   0  0  0  0  0  0  0  0  0  0  0  0
  180.7720  179.3430  142.6400 O   0  0  0  0  0  0  0  0  0  0  0  0
  180.7020  178.1720  140.6700 C   0  0  0  0  0  0  0  0  0  0  0  0
  177.6980  177.5320  139.4820 O   0  0  0  0  0  0  0  0  0  0  0  0
  178.0120  179.7340  140.0410 O   0  0  0  0  0  1  0  0  0  0  0  0
  178.3240  178.5250  140.2270 C   0  0  0  0  0  0  0  0  0  0  0  0
  191.5130  177.9250  148.2150 C   0  0  0  0  0  2  0  0  0  0  0  0
  191.5670  177.5640  149.6870 C   0  0  0  0  0  1  0  0  0  0  0  0
  188.1640  176.5920  146.2090 O   0  0  0  0  0  0  0  0  0  0  0  0
  187.2950  177.6060  145.7980 C   0  0  0  0  0  2  0  0  0  0  0  0
  186.2430  178.1020  147.1900 P   0  0  0  0  0  0  0  0  0  0  0  0
  185.6340  176.7260  147.9640 O   0  0  0  0  0  1  0  0  0  0  0  0
  187.0610  178.9060  148.1720 O   0  0  0  0  0  1  0  0  0  0  0  0
  184.9500  179.0420  146.6230 O   0  0  0  0  0  0  0  0  0  0  0  0
  192.7470  172.5090  141.2550 C   0  0  0  0  0  2  0  0  0  0  0  0
  191.6030  170.8060  139.7000 C   0  0  1  0  0  3  0  0  0  0  0  0
  191.6510  171.4540  141.0880 C   0  0  2  0  0  3  0  0  0  0  0  0
  190.6550  171.9370  140.0510 C   0  0  0  0  0  2  0  0  0  0  0  0
  192.5680  171.2310  137.3950 C   0  0  0  0  0  0  0  0  0  0  0  0
  192.6620  171.2940  138.8180 N   0  0  0  0  0  2  0  0  0  0  0  0
  191.5550  170.7090  136.8460 O   0  0  0  0  0  0  0  0  0  0  0  0
  193.3180  173.9650  135.6280 C   0  0  0  0  0  2  0  0  0  0  0  0
  195.8230  172.3500  137.5250 N   0  0  0  0  0  2  0  0  0  0  0  0
  195.7640  174.2100  135.9600 C   0  0  1  0  0  3  0  0  0  0  0  0
  197.6700  175.6870  136.0570 O   0  0  0  0  0  0  0  0  0  0  0  0
  194.4250  174.1240  136.6470 C   0  0  2  0  0  3  0  0  0  0  0  0
  196.2730  175.6540  135.9640 C   0  0  0  0  0  2  0  0  0  0  0  0
  193.0930  172.5450  135.4170 N   0  0  0  0  0  2  0  0  0  0  0  0
  197.9410  175.3530  137.3840 C   0  0  0  0  0  2  0  0  0  0  0  0
  194.4460  172.8260  137.4030 C   0  0  1  0  0  3  0  0  0  0  0  0
  193.6470  171.8480  136.5720 C   0  0  1  0  0  3  0  0  0  0  0  0
  197.7640  173.8510  137.6020 C   0  0  0  0  0  2  0  0  0  0  0  0
  196.6660  173.2280  136.7180 C   0  0  1  0  0  3  0  0  0  0  0  0
  1 34  1  1  0  0  0
  2  5  1  0  0  0  0
  2  4  1  0  0  0  0
  4 12  1  0  0  0  0
  4 36  1  0  0  0  0
  5 13  1  0  0  0  0
  6  9  1  0  0  0  0
  6 10  1  0  0  0  0
  7  1  1  0  0  0  0
  8  3  1  0  0  0  0
  9 11  1  0  0  0  0
 10  2  1  0  0  0  0
 11  3  1  0  0  0  0
 11  5  1  0  0  0  0
 12  1  1  0  0  0  0
 13  7  1  0  0  0  0
 14  9  1  0  0  0  0
 14  8  1  0  0  0  0
 15 10  1  0  0  0  0
 16 15  1  0  0  0  0
 17 16  2  0  0  0  0
 18 22  2  0  0  0  0
 19 16  1  0  0  0  0
 19 20  1  0  0  0  0
 21 18  1  0  0  0  0
 21 19  1  0  0  0  0
 22 20  1  0  0  0  0
 23 18  1  0  0  0  0
 23 24  1  0  0  0  0
 25 26  1  0  0  0  0
 26 29  1  0  0  0  0
 27 24  1  0  0  0  0
 27 29  1  0  0  0  0
 28 30  2  0  0  0  0
 30 25  1  0  0  0  0
 30 27  1  0  0  0  0
 31 33  2  0  0  0  0
 32 33  1  0  0  0  0
 33 25  1  0  0  0  0
 34 35  1  0  0  0  0
 37 36  1  0  0  0  0
 37 38  1  0  0  0  0
 38 39  1  0  0  0  0
 38 40  1  0  0  0  0
 41 38  2  0  0  0  0
 42 14  1  0  0  0  0
 43 45  1  0  0  0  0
 43 44  1  0  0  0  0
 44 42  1  0  0  0  0
 45 44  1  0  0  0  0
 46 47  1  0  0  0  0
 47 43  1  0  0  0  0
 48 46  2  0  0  0  0
 49 53  1  0  0  0  0
 51 54  1  0  0  0  0
 51 53  1  0  0  0  0
 51 60  1  0  0  0  0
 52 56  1  0  0  0  0
 53 57  1  0  0  0  0
 54 52  1  0  0  0  0
 55 49  1  0  0  0  0
 55 58  1  0  0  0  0
 56 59  1  0  0  0  0
 57 50  1  0  0  0  0
 58 46  1  0  0  0  0
 58 57  1  0  0  0  0
 60 50  1  0  0  0  0
 60 59  1  0  0  0  0
M  END
>  <MODEL>
8

>  <REMARK>
 VINA RESULT:      -6.6      1.726      3.516
  Name = 
  14 active torsions:
  status: ('A' for Active; 'I' for Inactive)
    1  A    between atoms: C_1  and  C_44
    2  A    between atoms: P_2  and  C_9
    3  A    between atoms: C_5  and  N_43
    4  A    between atoms: C_7  and  C_22
    5  A    between atoms: N_8  and  C_48
    6  A    between atoms: C_9  and  O_35
    7  A    between atoms: C_10  and  C_57
    8  A    between atoms: C_13  and  O_46
    9  A    between atoms: C_16  and  C_33
   10  A    between atoms: C_18  and  C_27
   11  A    between atoms: C_19  and  O_35
   12  A    between atoms: O_23  and  C_28
   13  A    between atoms: O_23  and  O_46
   14  A    between atoms: C_56  and  C_57
                            x       y       z     vdW  Elec       q    Type
                         _______ _______ _______ _____ _____    ______ ____

>  <TORSDO>
F 14

$$$$
=
 OpenBabel11042416123D

 60 68  0  0  1  0  0  0  0  0999 V2000
  189.2800  173.6470  136.8080 C   0  0  2  0  0  3  0  0  0  0  0  0
  191.1840  171.8740  138.8330 C   0  0  2  0  0  3  0  0  0  0  0  0
  188.7040  172.6620  141.7170 C   0  0  0  0  0  2  0  0  0  0  0  0
  191.4490  172.4530  137.4260 C   0  0  2  0  0  3  0  0  0  0  0  0
  189.9560  172.4710  139.5510 C   0  0  2  0  0  3  0  0  0  0  0  0
  192.2830  172.5710  141.0370 C   0  0  0  0  0  2  0  0  0  0  0  0
  188.4540  173.4950  138.0870 C   0  0  0  0  0  2  0  0  0  0  0  0
  189.2350  172.9150  143.1140 C   0  0  0  0  0  2  0  0  0  0  0  0
  191.0780  172.0340  141.8140 C   0  0  2  0  0  3  0  0  0  0  0  0
  192.4420  171.7870  139.7380 C   0  0  2  0  0  3  0  0  0  0  0  0
  189.7930  171.9080  140.9690 C   0  0  1  0  0  3  0  0  0  0  0  0
  190.7670  173.7920  137.1250 C   0  0  0  0  0  2  0  0  0  0  0  0
  188.7560  172.2420  138.7590 N   0  0  0  0  0  2  0  0  0  0  0  0
  190.7420  172.9640  142.9590 C   0  0  2  0  0  3  0  0  0  0  0  0
  193.6660  172.1890  139.0500 N   0  0  0  0  0  2  0  0  0  0  0  0
  194.7290  171.2630  138.8100 C   0  0  0  0  0  0  0  0  0  0  0  0
  194.6740  170.0900  139.2840 O   0  0  0  0  0  0  0  0  0  0  0  0
  197.3560  173.4400  138.7130 C   0  0  0  0  0  0  0  0  0  0  0  0
  195.9260  171.7070  138.0340 C   0  0  2  0  0  3  0  0  0  0  0  0
  197.1490  171.2540  138.6780 N   0  0  0  0  0  2  0  0  0  0  0  0
  196.0390  173.2350  138.0500 C   0  0  0  0  0  2  0  0  0  0  0  0
  197.9380  172.3430  139.0430 N   0  0  0  0  0  0  0  0  0  0  0  0
  197.9220  174.6850  138.9710 O   0  0  0  0  0  0  0  0  0  0  0  0
  197.2260  175.6260  139.6250 O   0  0  0  0  0  0  0  0  0  0  0  0
  196.0830  174.9990  142.7410 C   0  0  2  0  0  3  0  0  0  0  0  0
  197.0250  173.9120  142.5030 N   0  0  0  0  0  2  0  0  0  0  0  0
  197.5830  175.4670  140.9670 C   0  0  2  0  0  3  0  0  0  0  0  0
  196.0850  177.1590  141.7390 O   0  0  0  0  0  0  0  0  0  0  0  0
  197.6230  174.0860  141.2690 O   0  0  0  0  0  0  0  0  0  0  0  0
  196.5410  176.0300  141.8270 C   0  0  0  0  0  0  0  0  0  0  0  0
  195.3400  176.5110  144.5890 O   0  0  0  0  0  0  0  0  0  0  0  0
  196.9310  174.9100  144.9960 O   0  0  0  0  0  1  0  0  0  0  0  0
  196.1490  175.4610  144.1710 C   0  0  0  0  0  0  0  0  0  0  0  0
  188.8260  174.8870  136.0590 C   0  0  0  0  0  2  0  0  0  0  0  0
  190.0190  175.6240  135.4800 C   0  0  0  0  0  1  0  0  0  0  0  0
  191.1570  171.5050  136.4430 O   0  0  0  0  0  0  0  0  0  0  0  0
  192.3770  171.2670  135.8050 C   0  0  0  0  0  2  0  0  0  0  0  0
  192.7030  169.4830  135.7690 P   0  0  0  0  0  0  0  0  0  0  0  0
  194.2870  169.2030  135.2440 O   0  0  0  0  0  1  0  0  0  0  0  0
  192.5300  168.9160  137.1580 O   0  0  0  0  0  1  0  0  0  0  0  0
  191.6200  168.7250  134.7070 O   0  0  0  0  0  0  0  0  0  0  0  0
  191.4730  172.6010  144.2480 C   0  0  0  0  0  2  0  0  0  0  0  0
  192.2530  174.8440  145.2410 C   0  0  1  0  0  3  0  0  0  0  0  0
  192.6470  173.5360  144.5470 C   0  0  2  0  0  3  0  0  0  0  0  0
  192.4810  174.8110  143.7420 C   0  0  0  0  0  2  0  0  0  0  0  0
  190.0370  176.0750  145.2540 C   0  0  0  0  0  0  0  0  0  0  0  0
  190.8220  174.9140  145.5300 N   0  0  0  0  0  2  0  0  0  0  0  0
  190.5790  177.1090  144.7690 O   0  0  0  0  0  0  0  0  0  0  0  0
  187.6530  176.9950  147.4070 C   0  0  0  0  0  2  0  0  0  0  0  0
  187.0150  177.0700  143.9320 N   0  0  0  0  0  2  0  0  0  0  0  0
  185.7010  177.4460  145.9440 C   0  0  1  0  0  3  0  0  0  0  0  0
  183.6440  178.6620  145.6060 O   0  0  0  0  0  0  0  0  0  0  0  0
  187.1350  177.8050  146.2390 C   0  0  2  0  0  3  0  0  0  0  0  0
  184.7630  178.5480  146.4410 C   0  0  0  0  0  2  0  0  0  0  0  0
  188.2590  175.7800  146.8870 N   0  0  0  0  0  2  0  0  0  0  0  0
  184.1280  179.2850  144.4560 C   0  0  0  0  0  2  0  0  0  0  0  0
  187.9210  177.3210  145.0520 C   0  0  1  0  0  3  0  0  0  0  0  0
  188.5650  176.0220  145.4820 C   0  0  1  0  0  3  0  0  0  0  0  0
  184.9120  178.2910  143.6010 C   0  0  0  0  0  2  0  0  0  0  0  0
  185.6500  177.2200  144.4270 C   0  0  1  0  0  3  0  0  0  0  0  0
  1 34  1  1  0  0  0
  1 12  1  0  0  0  0
  1  7  1  0  0  0  0
  2  5  1  0  0  0  0
  2 10  1  0  0  0  0
  3  8  1  0  0  0  0
  4  2  1  0  0  0  0
  5 11  1  0  0  0  0
  6  9  1  0  0  0  0
  7 13  1  0  0  0  0
  9 14  1  0  0  0  0
 10  6  1  0  0  0  0
 11  3  1  0  0  0  0
 11  9  1  0  0  0  0
 12  4  1  0  0  0  0
 13  5  1  0  0  0  0
 14  8  1  0  0  0  0
 14 42  1  0  0  0  0
 15 10  1  0  0  0  0
 16 15  1  0  0  0  0
 16 17  2  0  0  0  0
 18 23  1  0  0  0  0
 18 22  2  0  0  0  0
 19 21  1  0  0  0  0
 19 20  1  0  0  0  0
 19 16  1  0  0  0  0
 20 22  1  0  0  0  0
 21 18  1  0  0  0  0
 23 24  1  0  0  0  0
 24 27  1  0  0  0  0
 25 33  1  0  0  0  0
 26 25  1  0  0  0  0
 27 29  1  0  0  0  0
 27 30  1  0  0  0  0
 28 30  2  0  0  0  0
 29 26  1  0  0  0  0
 30 25  1  0  0  0  0
 33 31  2  0  0  0  0
 33 32  1  0  0  0  0
 35 34  1  0  0  0  0
 36  4  1  0  0  0  0
 37 36  1  0  0  0  0
 38 37  1  0  0  0  0
 38 40  1  0  0  0  0
 39 38  1  0  0  0  0
 41 38  2  0  0  0  0
 42 44  1  0  0  0  0
 43 47  1  0  0  0  0
 44 43  1  0  0  0  0
 45 44  1  0  0  0  0
 45 43  1  0  0  0  0
 46 58  1  0  0  0  0
 46 47  1  0  0  0  0
 48 46  2  0  0  0  0
 50 60  1  0  0  0  0
 50 57  1  0  0  0  0
 51 53  1  0  0  0  0
 51 54  1  0  0  0  0
 52 54  1  0  0  0  0
 53 49  1  0  0  0  0
 55 49  1  0  0  0  0
 56 52  1  0  0  0  0
 57 58  1  0  0  0  0
 57 53  1  0  0  0  0
 58 55  1  0  0  0  0
 59 60  1  0  0  0  0
 59 56  1  0  0  0  0
 60 51  1  0  0  0  0
M  END
>  <MODEL>
9

>  <REMARK>
 VINA RESULT:      -6.5      3.722     11.696
  Name = 
  14 active torsions:
  status: ('A' for Active; 'I' for Inactive)
    1  A    between atoms: C_1  and  C_44
    2  A    between atoms: P_2  and  C_9
    3  A    between atoms: C_5  and  N_43
    4  A    between atoms: C_7  and  C_22
    5  A    between atoms: N_8  and  C_48
    6  A    between atoms: C_9  and  O_35
    7  A    between atoms: C_10  and  C_57
    8  A    between atoms: C_13  and  O_46
    9  A    between atoms: C_16  and  C_33
   10  A    between atoms: C_18  and  C_27
   11  A    between atoms: C_19  and  O_35
   12  A    between atoms: O_23  and  C_28
   13  A    between atoms: O_23  and  O_46
   14  A    between atoms: C_56  and  C_57
                            x       y       z     vdW  Elec       q    Type
                         _______ _______ _______ _____ _____    ______ ____

>  <TORSDO>
F 14

$$$$
