=
 OpenBabel11042416353D

 32 33  0  0  1  0  0  0  0  0999 V2000
  192.9840  176.0970  142.3090 O   0  0  0  0  0  1  0  0  0  0  0  0
  191.7780  175.6450  142.8610 C   0  0  1  0  0  3  0  0  0  0  0  0
  191.3360  174.4350  142.1640 N   0  0  0  0  0  2  0  0  0  0  0  0
  190.1380  174.7160  141.3780 C   0  0  0  0  0  2  0  0  0  0  0  0
  188.9690  173.8880  141.8900 C   0  0  1  0  0  3  0  0  0  0  0  0
  189.3910  171.6170  142.8260 C   0  0  0  0  0  1  0  0  0  0  0  0
  189.4020  173.1040  143.1190 C   0  0  0  0  0  2  0  0  0  0  0  0
  187.8050  174.8050  142.2430 C   0  0  0  0  0  2  0  0  0  0  0  0
  187.8710  176.0940  141.4410 C   0  0  0  0  0  2  0  0  0  0  0  0
  186.6230  176.9200  141.6800 C   0  0  0  0  0  2  0  0  0  0  0  0
  186.0150  176.5260  142.9380 N   0  0  0  0  0  2  0  0  0  0  0  0
  185.5100  179.7710  144.2100 C   0  0  0  0  0  2  0  0  0  0  0  0
  184.9010  177.5440  144.7200 O   0  0  0  0  0  0  0  0  0  0  0  0
  185.1180  177.5990  143.3340 C   0  0  1  0  0  3  0  0  0  0  0  0
  184.7080  178.8740  145.1220 C   0  0  1  0  0  3  0  0  0  0  0  0
  185.7420  178.9320  142.9910 C   0  0  0  0  0  2  0  0  0  0  0  0
  185.1850  179.0480  146.5500 C   0  0  0  0  0  1  0  0  0  0  0  0
  191.8880  175.4350  144.3890 C   0  0  2  0  0  3  0  0  0  0  0  0
  190.8190  176.2270  145.1810 C   0  0  2  0  0  3  0  0  0  0  0  0
  189.6760  175.1250  146.0870 S   0  0  0  0  0  0  0  0  0  0  0  0
  187.4660  176.4720  146.9770 C   0  0  0  0  0  1  0  0  0  0  0  0
  189.9670  177.1220  144.3010 C   0  0  0  0  0  2  0  0  0  0  0  0
  188.2390  176.1780  145.7100 C   0  0  1  0  0  3  0  0  0  0  0  0
  188.7370  177.4680  145.0990 C   0  0  0  0  0  2  0  0  0  0  0  0
  193.3380  175.7070  144.8680 C   0  0  2  0  0  3  0  0  0  0  0  0
  193.1740  173.2180  145.3170 C   0  0  0  0  0  1  0  0  0  0  0  0
  194.1170  174.4120  145.1500 C   0  0  1  0  0  3  0  0  0  0  0  0
  196.1730  173.3890  144.6700 N   0  0  0  0  0  1  0  0  0  0  0  0
  195.6820  175.3640  143.7780 O   0  0  0  0  0  1  0  0  0  0  0  0
  195.1410  174.1690  144.1230 N   0  0  0  0  0  0  0  0  0  0  0  0
  194.5710  177.2300  146.3680 C   0  0  0  0  0  2  0  0  0  0  0  0
  193.4160  176.6760  146.0160 C   0  0  0  0  0  3  0  0  0  0  0  0
  2  1  1  6  0  0  0
  3  2  1  0  0  0  0
  4  3  1  0  0  0  0
  5  4  1  1  0  0  0
  5  8  1  0  0  0  0
  5  7  1  0  0  0  0
  6  7  1  0  0  0  0
  9 10  1  0  0  0  0
  9  8  1  0  0  0  0
 10 11  1  0  0  0  0
 12 15  1  0  0  0  0
 13 15  1  0  0  0  0
 14 11  1  1  0  0  0
 14 13  1  0  0  0  0
 15 17  1  1  0  0  0
 16 14  1  0  0  0  0
 16 12  1  0  0  0  0
 18  2  1  6  0  0  0
 18 25  1  0  0  0  0
 19 18  1  6  0  0  0
 19 20  1  0  0  0  0
 22 24  1  0  0  0  0
 22 19  1  0  0  0  0
 23 20  1  0  0  0  0
 23 21  1  1  0  0  0
 24 23  1  0  0  0  0
 25 27  1  0  0  0  0
 25 32  1  1  0  0  0
 27 26  1  6  0  0  0
 29 30  1  0  0  0  0
 30 28  1  0  0  0  0
 30 27  1  0  0  0  0
 32 31  2  0  0  0  0
M  END
>  <MODEL>
1

>  <REMARK>
 VINA RESULT:      -5.7      0.000      0.000
  Name = 
  15 active torsions:
  status: ('A' for Active; 'I' for Inactive)
    1  A    between atoms: C_1  and  C_19
    2  A    between atoms: C_2  and  C_6
    3  A    between atoms: C_2  and  C_7
    4  A    between atoms: C_2  and  C_8
    5  A    between atoms: N_3  and  C_6
    6  A    between atoms: N_3  and  C_31
    7  A    between atoms: C_8  and  C_26
    8  A    between atoms: N_12  and  C_13
    9  A    between atoms: N_12  and  C_16
   10  A    between atoms: C_13  and  C_26
   11  A    between atoms: C_19  and  C_22
   12  A    between atoms: C_19  and  C_31
   13  A    between atoms: N_20  and  C_27
   14  A    between atoms: C_22  and  C_27
   15  A    between atoms: C_22  and  C_30
                            x       y       z     vdW  Elec       q    Type
                         _______ _______ _______ _____ _____    ______ ____

>  <TORSDO>
F 15

$$$$
=
 OpenBabel11042416353D

 32 33  0  0  1  0  0  0  0  0999 V2000
  186.7640  175.2770  142.7120 O   0  0  0  0  0  1  0  0  0  0  0  0
  187.8810  175.8830  143.3040 C   0  0  1  0  0  3  0  0  0  0  0  0
  188.6820  176.5550  142.2780 N   0  0  0  0  0  2  0  0  0  0  0  0
  190.1040  176.3860  142.5590 C   0  0  0  0  0  2  0  0  0  0  0  0
  190.4280  174.9130  142.7590 C   0  0  1  0  0  3  0  0  0  0  0  0
  189.4720  173.0560  141.3990 C   0  0  0  0  0  1  0  0  0  0  0  0
  190.4520  174.2120  141.4100 C   0  0  0  0  0  2  0  0  0  0  0  0
  191.7820  174.7730  143.4420 C   0  0  0  0  0  2  0  0  0  0  0  0
  191.8390  173.5010  144.2720 C   0  0  0  0  0  2  0  0  0  0  0  0
  193.2800  173.0890  144.4960 C   0  0  0  0  0  2  0  0  0  0  0  0
  193.6930  173.4800  145.8320 N   0  0  0  0  0  2  0  0  0  0  0  0
  194.9140  176.6880  145.0410 C   0  0  0  0  0  2  0  0  0  0  0  0
  195.2000  174.4500  144.3340 O   0  0  0  0  0  0  0  0  0  0  0  0
  194.8060  174.4040  145.6810 C   0  0  1  0  0  3  0  0  0  0  0  0
  195.6690  175.7560  144.1270 C   0  0  1  0  0  3  0  0  0  0  0  0
  194.3760  175.7870  146.1120 C   0  0  0  0  0  2  0  0  0  0  0  0
  195.4310  176.1580  142.6850 C   0  0  0  0  0  1  0  0  0  0  0  0
  187.4770  176.8370  144.4520 C   0  0  2  0  0  3  0  0  0  0  0  0
  188.2110  176.5220  145.7780 C   0  0  2  0  0  3  0  0  0  0  0  0
  189.6560  177.6100  146.0420 S   0  0  0  0  0  0  0  0  0  0  0  0
  191.2750  176.6760  148.0410 C   0  0  0  0  0  1  0  0  0  0  0  0
  188.7130  175.0920  145.8570 C   0  0  0  0  0  2  0  0  0  0  0  0
  190.6520  176.2500  146.7290 C   0  0  1  0  0  3  0  0  0  0  0  0
  189.7490  175.0580  146.9500 C   0  0  0  0  0  2  0  0  0  0  0  0
  185.9340  176.8840  144.5960 C   0  0  2  0  0  3  0  0  0  0  0  0
  186.3560  179.2020  143.6650 C   0  0  0  0  0  1  0  0  0  0  0  0
  185.3140  178.1050  143.8980 C   0  0  1  0  0  3  0  0  0  0  0  0
  185.3640  178.1860  141.5540 N   0  0  0  0  0  1  0  0  0  0  0  0
  183.4260  178.3490  142.6290 O   0  0  0  0  0  1  0  0  0  0  0  0
  184.6280  177.7200  142.6560 N   0  0  0  0  0  0  0  0  0  0  0  0
  184.6060  177.6140  146.5440 C   0  0  0  0  0  2  0  0  0  0  0  0
  185.4630  176.7450  146.0190 C   0  0  0  0  0  3  0  0  0  0  0  0
  2  1  1  6  0  0  0
  3  4  1  0  0  0  0
  3  2  1  0  0  0  0
  4  5  1  0  0  0  0
  5  7  1  6  0  0  0
  5  8  1  0  0  0  0
  6  7  1  0  0  0  0
  8  9  1  0  0  0  0
  9 10  1  0  0  0  0
 10 11  1  0  0  0  0
 12 16  1  0  0  0  0
 13 14  1  0  0  0  0
 14 11  1  6  0  0  0
 14 16  1  0  0  0  0
 15 17  1  6  0  0  0
 15 13  1  0  0  0  0
 15 12  1  0  0  0  0
 18  2  1  6  0  0  0
 18 25  1  0  0  0  0
 19 18  1  6  0  0  0
 19 22  1  0  0  0  0
 19 20  1  0  0  0  0
 20 23  1  0  0  0  0
 22 24  1  0  0  0  0
 23 24  1  0  0  0  0
 23 21  1  1  0  0  0
 25 32  1  1  0  0  0
 27 26  1  6  0  0  0
 27 25  1  0  0  0  0
 28 30  1  0  0  0  0
 29 30  1  0  0  0  0
 30 27  1  0  0  0  0
 32 31  2  0  0  0  0
M  END
>  <MODEL>
2

>  <REMARK>
 VINA RESULT:      -5.7      1.887      7.625
  Name = 
  15 active torsions:
  status: ('A' for Active; 'I' for Inactive)
    1  A    between atoms: C_1  and  C_19
    2  A    between atoms: C_2  and  C_6
    3  A    between atoms: C_2  and  C_7
    4  A    between atoms: C_2  and  C_8
    5  A    between atoms: N_3  and  C_6
    6  A    between atoms: N_3  and  C_31
    7  A    between atoms: C_8  and  C_26
    8  A    between atoms: N_12  and  C_13
    9  A    between atoms: N_12  and  C_16
   10  A    between atoms: C_13  and  C_26
   11  A    between atoms: C_19  and  C_22
   12  A    between atoms: C_19  and  C_31
   13  A    between atoms: N_20  and  C_27
   14  A    between atoms: C_22  and  C_27
   15  A    between atoms: C_22  and  C_30
                            x       y       z     vdW  Elec       q    Type
                         _______ _______ _______ _____ _____    ______ ____

>  <TORSDO>
F 15

$$$$
=
 OpenBabel11042416353D

 32 33  0  0  1  0  0  0  0  0999 V2000
  190.5800  172.7380  144.5070 O   0  0  0  0  0  1  0  0  0  0  0  0
  190.8010  173.9400  143.8220 C   0  0  1  0  0  3  0  0  0  0  0  0
  189.6300  174.8100  143.9580 N   0  0  0  0  0  2  0  0  0  0  0  0
  189.5890  175.7740  142.8620 C   0  0  0  0  0  2  0  0  0  0  0  0
  188.7220  176.9640  143.2430 C   0  0  1  0  0  3  0  0  0  0  0  0
  190.6590  178.2270  144.1730 C   0  0  0  0  0  1  0  0  0  0  0  0
  189.2970  177.6360  144.4790 C   0  0  0  0  0  2  0  0  0  0  0  0
  188.6740  177.9550  142.0880 C   0  0  0  0  0  2  0  0  0  0  0  0
  187.5020  177.6570  141.1670 C   0  0  0  0  0  2  0  0  0  0  0  0
  186.2630  177.3490  141.9830 C   0  0  0  0  0  2  0  0  0  0  0  0
  185.3540  178.4800  141.9280 N   0  0  0  0  0  2  0  0  0  0  0  0
  185.7570  179.2020  145.3510 C   0  0  0  0  0  2  0  0  0  0  0  0
  184.9530  177.4490  143.9840 O   0  0  0  0  0  0  0  0  0  0  0  0
  184.7890  178.6390  143.2570 C   0  0  1  0  0  3  0  0  0  0  0  0
  185.0990  177.8450  145.3220 C   0  0  1  0  0  3  0  0  0  0  0  0
  185.5050  179.7550  143.9810 C   0  0  0  0  0  2  0  0  0  0  0  0
  185.9700  176.8440  146.0560 C   0  0  0  0  0  1  0  0  0  0  0  0
  192.1040  174.6340  144.2830 C   0  0  2  0  0  3  0  0  0  0  0  0
  193.2240  174.5720  143.2160 C   0  0  2  0  0  3  0  0  0  0  0  0
  194.1350  176.1510  143.0810 S   0  0  0  0  0  0  0  0  0  0  0  0
  195.6810  176.2360  140.8230 C   0  0  0  0  0  1  0  0  0  0  0  0
  192.7090  174.2370  141.8290 C   0  0  0  0  0  2  0  0  0  0  0  0
  194.2520  176.0170  141.2680 C   0  0  1  0  0  3  0  0  0  0  0  0
  193.7900  174.6380  140.8590 C   0  0  0  0  0  2  0  0  0  0  0  0
  192.5410  174.0950  145.6700 C   0  0  2  0  0  3  0  0  0  0  0  0
  193.5540  176.2270  146.5910 C   0  0  0  0  0  1  0  0  0  0  0  0
  192.4640  175.1670  146.7680 C   0  0  1  0  0  3  0  0  0  0  0  0
  191.1450  176.8570  147.7220 N   0  0  0  0  0  1  0  0  0  0  0  0
  190.2820  174.8390  147.3760 O   0  0  0  0  0  1  0  0  0  0  0  0
  191.1210  175.7620  146.8430 N   0  0  0  0  0  0  0  0  0  0  0  0
  193.9600  172.0790  145.5590 C   0  0  0  0  0  2  0  0  0  0  0  0
  193.8760  173.4030  145.6470 C   0  0  0  0  0  3  0  0  0  0  0  0
  2  3  1  0  0  0  0
  2  1  1  1  0  0  0
  4  5  1  0  0  0  0
  4  3  1  0  0  0  0
  5  8  1  6  0  0  0
  5  7  1  0  0  0  0
  6  7  1  0  0  0  0
  9 10  1  0  0  0  0
  9  8  1  0  0  0  0
 11 10  1  0  0  0  0
 13 15  1  0  0  0  0
 14 11  1  6  0  0  0
 14 16  1  0  0  0  0
 14 13  1  0  0  0  0
 15 12  1  0  0  0  0
 15 17  1  1  0  0  0
 16 12  1  0  0  0  0
 18  2  1  6  0  0  0
 18 25  1  0  0  0  0
 19 18  1  1  0  0  0
 20 19  1  0  0  0  0
 22 19  1  0  0  0  0
 23 21  1  1  0  0  0
 23 20  1  0  0  0  0
 24 23  1  0  0  0  0
 24 22  1  0  0  0  0
 25 32  1  6  0  0  0
 25 27  1  0  0  0  0
 27 26  1  6  0  0  0
 27 30  1  0  0  0  0
 30 29  1  0  0  0  0
 30 28  1  0  0  0  0
 31 32  2  0  0  0  0
M  END
>  <MODEL>
3

>  <REMARK>
 VINA RESULT:      -5.6      2.724      4.333
  Name = 
  15 active torsions:
  status: ('A' for Active; 'I' for Inactive)
    1  A    between atoms: C_1  and  C_19
    2  A    between atoms: C_2  and  C_6
    3  A    between atoms: C_2  and  C_7
    4  A    between atoms: C_2  and  C_8
    5  A    between atoms: N_3  and  C_6
    6  A    between atoms: N_3  and  C_31
    7  A    between atoms: C_8  and  C_26
    8  A    between atoms: N_12  and  C_13
    9  A    between atoms: N_12  and  C_16
   10  A    between atoms: C_13  and  C_26
   11  A    between atoms: C_19  and  C_22
   12  A    between atoms: C_19  and  C_31
   13  A    between atoms: N_20  and  C_27
   14  A    between atoms: C_22  and  C_27
   15  A    between atoms: C_22  and  C_30
                            x       y       z     vdW  Elec       q    Type
                         _______ _______ _______ _____ _____    ______ ____

>  <TORSDO>
F 15

$$$$
=
 OpenBabel11042416353D

 32 33  0  0  1  0  0  0  0  0999 V2000
  191.9310  176.2050  146.8410 O   0  0  0  0  0  1  0  0  0  0  0  0
  191.8180  175.9230  145.4730 C   0  0  1  0  0  3  0  0  0  0  0  0
  191.6260  177.1670  144.7250 N   0  0  0  0  0  2  0  0  0  0  0  0
  190.3840  177.8160  145.1350 C   0  0  0  0  0  2  0  0  0  0  0  0
  189.1960  177.1420  144.4650 C   0  0  1  0  0  3  0  0  0  0  0  0
  187.6910  176.3500  146.2870 C   0  0  0  0  0  1  0  0  0  0  0  0
  187.9330  177.4370  145.2580 C   0  0  0  0  0  2  0  0  0  0  0  0
  189.0470  177.6610  143.0410 C   0  0  0  0  0  2  0  0  0  0  0  0
  188.1820  176.7260  142.2120 C   0  0  0  0  0  2  0  0  0  0  0  0
  186.8970  177.4210  141.8120 C   0  0  0  0  0  2  0  0  0  0  0  0
  185.7830  176.8290  142.5310 N   0  0  0  0  0  2  0  0  0  0  0  0
  185.3860  179.8830  144.2390 C   0  0  0  0  0  2  0  0  0  0  0  0
  184.5210  177.6830  144.3000 O   0  0  0  0  0  0  0  0  0  0  0  0
  184.9360  177.9210  142.9800 C   0  0  1  0  0  3  0  0  0  0  0  0
  184.3900  178.9520  144.8850 C   0  0  1  0  0  3  0  0  0  0  0  0
  185.7140  179.2150  142.9380 C   0  0  0  0  0  2  0  0  0  0  0  0
  184.6740  178.8580  146.3710 C   0  0  0  0  0  1  0  0  0  0  0  0
  193.0220  175.1040  144.9520 C   0  0  2  0  0  3  0  0  0  0  0  0
  194.0200  175.9600  144.1350 C   0  0  2  0  0  3  0  0  0  0  0  0
  194.1080  175.4340  142.3870 S   0  0  0  0  0  0  0  0  0  0  0  0
  196.2710  176.5240  141.1110 C   0  0  0  0  0  1  0  0  0  0  0  0
  195.4340  175.9140  144.6840 C   0  0  0  0  0  2  0  0  0  0  0  0
  195.9100  175.6900  142.3210 C   0  0  1  0  0  3  0  0  0  0  0  0
  196.3400  176.4010  143.5830 C   0  0  0  0  0  2  0  0  0  0  0  0
  192.5290  173.8420  144.1980 C   0  0  2  0  0  3  0  0  0  0  0  0
  190.6470  173.9180  142.5030 C   0  0  0  0  0  1  0  0  0  0  0  0
  191.0060  173.8380  143.9890 C   0  0  1  0  0  3  0  0  0  0  0  0
  189.5330  172.0300  143.7370 N   0  0  0  0  0  1  0  0  0  0  0  0
  189.5960  173.1500  145.6540 O   0  0  0  0  0  1  0  0  0  0  0  0
  190.3780  172.6840  144.6480 N   0  0  0  0  0  0  0  0  0  0  0  0
  194.3180  172.3280  144.9710 C   0  0  0  0  0  2  0  0  0  0  0  0
  193.0200  172.5550  144.8040 C   0  0  0  0  0  3  0  0  0  0  0  0
  2  1  1  1  0  0  0
  3  4  1  0  0  0  0
  3  2  1  0  0  0  0
  5  8  1  6  0  0  0
  5  4  1  0  0  0  0
  5  7  1  0  0  0  0
  7  6  1  0  0  0  0
  9  8  1  0  0  0  0
 10  9  1  0  0  0  0
 10 11  1  0  0  0  0
 12 15  1  0  0  0  0
 13 15  1  0  0  0  0
 14 11  1  1  0  0  0
 14 13  1  0  0  0  0
 15 17  1  1  0  0  0
 16 14  1  0  0  0  0
 16 12  1  0  0  0  0
 18 25  1  6  0  0  0
 18  2  1  0  0  0  0
 19 22  1  0  0  0  0
 19 18  1  1  0  0  0
 20 19  1  0  0  0  0
 23 21  1  6  0  0  0
 23 20  1  0  0  0  0
 23 24  1  0  0  0  0
 24 22  1  0  0  0  0
 25 32  1  1  0  0  0
 27 26  1  6  0  0  0
 27 25  1  0  0  0  0
 27 30  1  0  0  0  0
 28 30  1  0  0  0  0
 30 29  1  0  0  0  0
 32 31  2  0  0  0  0
M  END
>  <MODEL>
4

>  <REMARK>
 VINA RESULT:      -5.6      2.475      4.591
  Name = 
  15 active torsions:
  status: ('A' for Active; 'I' for Inactive)
    1  A    between atoms: C_1  and  C_19
    2  A    between atoms: C_2  and  C_6
    3  A    between atoms: C_2  and  C_7
    4  A    between atoms: C_2  and  C_8
    5  A    between atoms: N_3  and  C_6
    6  A    between atoms: N_3  and  C_31
    7  A    between atoms: C_8  and  C_26
    8  A    between atoms: N_12  and  C_13
    9  A    between atoms: N_12  and  C_16
   10  A    between atoms: C_13  and  C_26
   11  A    between atoms: C_19  and  C_22
   12  A    between atoms: C_19  and  C_31
   13  A    between atoms: N_20  and  C_27
   14  A    between atoms: C_22  and  C_27
   15  A    between atoms: C_22  and  C_30
                            x       y       z     vdW  Elec       q    Type
                         _______ _______ _______ _____ _____    ______ ____

>  <TORSDO>
F 15

$$$$
=
 OpenBabel11042416353D

 32 33  0  0  1  0  0  0  0  0999 V2000
  192.6840  175.1420  146.5760 O   0  0  0  0  0  1  0  0  0  0  0  0
  191.9670  175.2100  145.3740 C   0  0  1  0  0  3  0  0  0  0  0  0
  191.8290  176.6070  144.9570 N   0  0  0  0  0  2  0  0  0  0  0  0
  190.5510  177.1460  145.4150 C   0  0  0  0  0  2  0  0  0  0  0  0
  189.4170  176.6060  144.5570 C   0  0  1  0  0  3  0  0  0  0  0  0
  188.7010  176.1670  146.9040 C   0  0  0  0  0  1  0  0  0  0  0  0
  188.4050  175.8970  145.4420 C   0  0  0  0  0  2  0  0  0  0  0  0
  188.7450  177.7520  143.8130 C   0  0  0  0  0  2  0  0  0  0  0  0
  188.3190  177.3170  142.4210 C   0  0  0  0  0  2  0  0  0  0  0  0
  186.8130  177.1640  142.3610 C   0  0  0  0  0  2  0  0  0  0  0  0
  186.2100  178.4410  142.0230 N   0  0  0  0  0  2  0  0  0  0  0  0
  185.3690  179.3540  145.3190 C   0  0  0  0  0  2  0  0  0  0  0  0
  184.9890  177.5710  143.8140 O   0  0  0  0  0  0  0  0  0  0  0  0
  185.2060  178.7210  143.0370 C   0  0  1  0  0  3  0  0  0  0  0  0
  184.6600  178.0420  145.0930 C   0  0  1  0  0  3  0  0  0  0  0  0
  185.6910  179.8330  143.9360 C   0  0  0  0  0  2  0  0  0  0  0  0
  185.1090  177.0370  146.1360 C   0  0  0  0  0  1  0  0  0  0  0  0
  192.6030  174.3290  144.2730 C   0  0  2  0  0  3  0  0  0  0  0  0
  191.5830  173.3720  143.6080 C   0  0  2  0  0  3  0  0  0  0  0  0
  190.8450  174.0930  142.0990 S   0  0  0  0  0  0  0  0  0  0  0  0
  188.6440  172.6860  141.2790 C   0  0  0  0  0  1  0  0  0  0  0  0
  190.4360  172.9930  144.5260 C   0  0  0  0  0  2  0  0  0  0  0  0
  189.2010  173.4110  142.4850 C   0  0  1  0  0  3  0  0  0  0  0  0
  189.3400  172.4510  143.6450 C   0  0  0  0  0  2  0  0  0  0  0  0
  193.8610  173.6070  144.8210 C   0  0  2  0  0  3  0  0  0  0  0  0
  194.8050  174.5200  142.6540 C   0  0  0  0  0  1  0  0  0  0  0  0
  195.1360  173.9760  144.0460 C   0  0  1  0  0  3  0  0  0  0  0  0
  197.3080  174.8000  144.3710 N   0  0  0  0  0  1  0  0  0  0  0  0
  195.9610  174.5090  146.1130 O   0  0  0  0  0  1  0  0  0  0  0  0
  195.9800  174.9030  144.8150 N   0  0  0  0  0  0  0  0  0  0  0  0
  194.7360  171.3030  144.9520 C   0  0  0  0  0  2  0  0  0  0  0  0
  193.6860  172.1170  144.9470 C   0  0  0  0  0  3  0  0  0  0  0  0
  2  1  1  1  0  0  0
  3  2  1  0  0  0  0
  3  4  1  0  0  0  0
  5  8  1  1  0  0  0
  5  4  1  0  0  0  0
  5  7  1  0  0  0  0
  7  6  1  0  0  0  0
  9  8  1  0  0  0  0
 10  9  1  0  0  0  0
 11 10  1  0  0  0  0
 13 15  1  0  0  0  0
 14 11  1  6  0  0  0
 14 13  1  0  0  0  0
 14 16  1  0  0  0  0
 15 12  1  0  0  0  0
 15 17  1  1  0  0  0
 16 12  1  0  0  0  0
 18 25  1  1  0  0  0
 18  2  1  0  0  0  0
 19 18  1  1  0  0  0
 19 22  1  0  0  0  0
 20 23  1  0  0  0  0
 20 19  1  0  0  0  0
 23 21  1  6  0  0  0
 23 24  1  0  0  0  0
 24 22  1  0  0  0  0
 25 32  1  6  0  0  0
 27 26  1  6  0  0  0
 27 30  1  0  0  0  0
 27 25  1  0  0  0  0
 28 30  1  0  0  0  0
 30 29  1  0  0  0  0
 32 31  2  0  0  0  0
M  END
>  <MODEL>
5

>  <REMARK>
 VINA RESULT:      -5.4      1.892      3.492
  Name = 
  15 active torsions:
  status: ('A' for Active; 'I' for Inactive)
    1  A    between atoms: C_1  and  C_19
    2  A    between atoms: C_2  and  C_6
    3  A    between atoms: C_2  and  C_7
    4  A    between atoms: C_2  and  C_8
    5  A    between atoms: N_3  and  C_6
    6  A    between atoms: N_3  and  C_31
    7  A    between atoms: C_8  and  C_26
    8  A    between atoms: N_12  and  C_13
    9  A    between atoms: N_12  and  C_16
   10  A    between atoms: C_13  and  C_26
   11  A    between atoms: C_19  and  C_22
   12  A    between atoms: C_19  and  C_31
   13  A    between atoms: N_20  and  C_27
   14  A    between atoms: C_22  and  C_27
   15  A    between atoms: C_22  and  C_30
                            x       y       z     vdW  Elec       q    Type
                         _______ _______ _______ _____ _____    ______ ____

>  <TORSDO>
F 15

$$$$
=
 OpenBabel11042416353D

 32 33  0  0  1  0  0  0  0  0999 V2000
  191.0120  175.0760  147.3040 O   0  0  0  0  0  1  0  0  0  0  0  0
  190.4620  174.9670  146.0210 C   0  0  1  0  0  3  0  0  0  0  0  0
  189.7810  176.2140  145.6650 N   0  0  0  0  0  2  0  0  0  0  0  0
  188.8230  175.9760  144.5890 C   0  0  0  0  0  2  0  0  0  0  0  0
  189.2700  176.6900  143.3220 C   0  0  1  0  0  3  0  0  0  0  0  0
  188.0080  174.7190  142.4630 C   0  0  0  0  0  1  0  0  0  0  0  0
  189.0220  175.7930  142.1200 C   0  0  0  0  0  2  0  0  0  0  0  0
  188.4960  177.9920  143.1670 C   0  0  0  0  0  2  0  0  0  0  0  0
  187.7680  178.0330  141.8340 C   0  0  0  0  0  2  0  0  0  0  0  0
  186.3520  178.5360  142.0290 C   0  0  0  0  0  2  0  0  0  0  0  0
  185.4980  177.4340  142.4340 N   0  0  0  0  0  2  0  0  0  0  0  0
  185.5010  179.2980  145.4210 C   0  0  0  0  0  2  0  0  0  0  0  0
  185.3400  177.0430  144.7300 O   0  0  0  0  0  0  0  0  0  0  0  0
  184.8510  177.8280  143.6740 C   0  0  1  0  0  3  0  0  0  0  0  0
  185.2960  177.8700  145.8630 C   0  0  1  0  0  3  0  0  0  0  0  0
  185.1540  179.2790  143.9640 C   0  0  0  0  0  2  0  0  0  0  0  0
  186.3980  177.4740  146.8250 C   0  0  0  0  0  1  0  0  0  0  0  0
  191.5230  174.5580  144.9720 C   0  0  2  0  0  3  0  0  0  0  0  0
  191.3270  173.1120  144.4550 C   0  0  2  0  0  3  0  0  0  0  0  0
  191.5950  172.9830  142.6510 S   0  0  0  0  0  0  0  0  0  0  0  0
  190.6760  170.6030  141.6600 C   0  0  0  0  0  1  0  0  0  0  0  0
  189.9420  172.5600  144.7380 C   0  0  0  0  0  2  0  0  0  0  0  0
  190.2190  171.8070  142.4530 C   0  0  1  0  0  3  0  0  0  0  0  0
  189.7550  171.3750  143.8250 C   0  0  0  0  0  2  0  0  0  0  0  0
  192.9500  174.8320  145.5140 C   0  0  2  0  0  3  0  0  0  0  0  0
  192.9110  176.3220  143.4640 C   0  0  0  0  0  1  0  0  0  0  0  0
  193.6660  175.9530  144.7430 C   0  0  1  0  0  3  0  0  0  0  0  0
  195.2390  177.5420  145.4540 N   0  0  0  0  0  1  0  0  0  0  0  0
  193.7480  176.7370  146.8910 O   0  0  0  0  0  1  0  0  0  0  0  0
  193.9060  177.1230  145.6010 N   0  0  0  0  0  0  0  0  0  0  0  0
  195.0310  173.5600  145.1410 C   0  0  0  0  0  2  0  0  0  0  0  0
  193.7940  173.5920  145.6250 C   0  0  0  0  0  3  0  0  0  0  0  0
  2  1  1  1  0  0  0
  3  2  1  0  0  0  0
  4  3  1  0  0  0  0
  5  7  1  6  0  0  0
  5  4  1  0  0  0  0
  7  6  1  0  0  0  0
  8  5  1  0  0  0  0
  9 10  1  0  0  0  0
  9  8  1  0  0  0  0
 10 11  1  0  0  0  0
 12 15  1  0  0  0  0
 13 15  1  0  0  0  0
 14 11  1  6  0  0  0
 14 16  1  0  0  0  0
 14 13  1  0  0  0  0
 15 17  1  1  0  0  0
 16 12  1  0  0  0  0
 18 25  1  1  0  0  0
 18  2  1  0  0  0  0
 19 22  1  0  0  0  0
 19 18  1  6  0  0  0
 20 19  1  0  0  0  0
 23 21  1  6  0  0  0
 23 20  1  0  0  0  0
 23 24  1  0  0  0  0
 24 22  1  0  0  0  0
 25 32  1  6  0  0  0
 27 26  1  6  0  0  0
 27 25  1  0  0  0  0
 27 30  1  0  0  0  0
 28 30  1  0  0  0  0
 30 29  1  0  0  0  0
 31 32  2  0  0  0  0
M  END
>  <MODEL>
6

>  <REMARK>
 VINA RESULT:      -5.2      2.182      3.626
  Name = 
  15 active torsions:
  status: ('A' for Active; 'I' for Inactive)
    1  A    between atoms: C_1  and  C_19
    2  A    between atoms: C_2  and  C_6
    3  A    between atoms: C_2  and  C_7
    4  A    between atoms: C_2  and  C_8
    5  A    between atoms: N_3  and  C_6
    6  A    between atoms: N_3  and  C_31
    7  A    between atoms: C_8  and  C_26
    8  A    between atoms: N_12  and  C_13
    9  A    between atoms: N_12  and  C_16
   10  A    between atoms: C_13  and  C_26
   11  A    between atoms: C_19  and  C_22
   12  A    between atoms: C_19  and  C_31
   13  A    between atoms: N_20  and  C_27
   14  A    between atoms: C_22  and  C_27
   15  A    between atoms: C_22  and  C_30
                            x       y       z     vdW  Elec       q    Type
                         _______ _______ _______ _____ _____    ______ ____

>  <TORSDO>
F 15

$$$$
=
 OpenBabel11042416353D

 32 33  0  0  1  0  0  0  0  0999 V2000
  191.3000  177.2450  142.4620 O   0  0  0  0  0  1  0  0  0  0  0  0
  191.0680  176.7200  143.7410 C   0  0  1  0  0  3  0  0  0  0  0  0
  189.6450  176.8260  144.0700 N   0  0  0  0  0  2  0  0  0  0  0  0
  189.4770  177.1270  145.4890 C   0  0  0  0  0  2  0  0  0  0  0  0
  188.3700  176.2670  146.0790 C   0  0  1  0  0  3  0  0  0  0  0  0
  190.3730  175.6700  147.4370 C   0  0  0  0  0  1  0  0  0  0  0  0
  188.9720  175.2520  147.0370 C   0  0  0  0  0  2  0  0  0  0  0  0
  187.3730  177.1500  146.8190 C   0  0  0  0  0  2  0  0  0  0  0  0
  185.9460  176.7750  146.4570 C   0  0  0  0  0  2  0  0  0  0  0  0
  185.1130  178.0240  146.2530 C   0  0  0  0  0  2  0  0  0  0  0  0
  185.9690  179.1080  145.8030 N   0  0  0  0  0  2  0  0  0  0  0  0
  184.5730  177.9720  142.7760 C   0  0  0  0  0  2  0  0  0  0  0  0
  186.6780  178.6260  143.6310 O   0  0  0  0  0  0  0  0  0  0  0  0
  185.7040  179.2990  144.3860 C   0  0  1  0  0  3  0  0  0  0  0  0
  186.0260  178.2230  142.4560 C   0  0  1  0  0  3  0  0  0  0  0  0
  184.3450  178.7360  144.0450 C   0  0  0  0  0  2  0  0  0  0  0  0
  186.6570  176.9470  141.9360 C   0  0  0  0  0  1  0  0  0  0  0  0
  191.5960  175.2730  143.8730 C   0  0  2  0  0  3  0  0  0  0  0  0
  193.1280  175.2100  144.0840 C   0  0  2  0  0  3  0  0  0  0  0  0
  193.6130  173.8700  145.2280 S   0  0  0  0  0  0  0  0  0  0  0  0
  196.2070  174.1370  146.0590 C   0  0  0  0  0  1  0  0  0  0  0  0
  193.7070  176.4980  144.6400 C   0  0  0  0  0  2  0  0  0  0  0  0
  194.8990  174.8960  146.0080 C   0  0  1  0  0  3  0  0  0  0  0  0
  195.0660  176.1570  145.1930 C   0  0  0  0  0  2  0  0  0  0  0  0
  191.1000  174.4080  142.6850 C   0  0  2  0  0  3  0  0  0  0  0  0
  188.8570  173.2790  142.3430 C   0  0  0  0  0  1  0  0  0  0  0  0
  190.1680  173.2710  143.1340 C   0  0  1  0  0  3  0  0  0  0  0  0
  190.0250  171.0500  142.3920 N   0  0  0  0  0  1  0  0  0  0  0  0
  190.9940  171.5090  144.3370 O   0  0  0  0  0  1  0  0  0  0  0  0
  190.8450  171.9670  143.0690 N   0  0  0  0  0  0  0  0  0  0  0  0
  192.1870  174.1130  140.4890 C   0  0  0  0  0  2  0  0  0  0  0  0
  192.2130  173.9120  141.8020 C   0  0  0  0  0  3  0  0  0  0  0  0
  2  1  1  6  0  0  0
  2 18  1  0  0  0  0
  2  3  1  0  0  0  0
  3  4  1  0  0  0  0
  5  4  1  1  0  0  0
  5  8  1  0  0  0  0
  5  7  1  0  0  0  0
  7  6  1  0  0  0  0
  9  8  1  0  0  0  0
 10  9  1  0  0  0  0
 11 10  1  0  0  0  0
 12 16  1  0  0  0  0
 13 14  1  0  0  0  0
 14 11  1  1  0  0  0
 15 17  1  1  0  0  0
 15 12  1  0  0  0  0
 15 13  1  0  0  0  0
 16 14  1  0  0  0  0
 18 25  1  6  0  0  0
 19 18  1  1  0  0  0
 19 22  1  0  0  0  0
 19 20  1  0  0  0  0
 20 23  1  0  0  0  0
 22 24  1  0  0  0  0
 23 21  1  6  0  0  0
 24 23  1  0  0  0  0
 25 32  1  1  0  0  0
 25 27  1  0  0  0  0
 27 26  1  6  0  0  0
 28 30  1  0  0  0  0
 30 27  1  0  0  0  0
 30 29  1  0  0  0  0
 31 32  2  0  0  0  0
M  END
>  <MODEL>
7

>  <REMARK>
 VINA RESULT:      -5.2      2.294      4.787
  Name = 
  15 active torsions:
  status: ('A' for Active; 'I' for Inactive)
    1  A    between atoms: C_1  and  C_19
    2  A    between atoms: C_2  and  C_6
    3  A    between atoms: C_2  and  C_7
    4  A    between atoms: C_2  and  C_8
    5  A    between atoms: N_3  and  C_6
    6  A    between atoms: N_3  and  C_31
    7  A    between atoms: C_8  and  C_26
    8  A    between atoms: N_12  and  C_13
    9  A    between atoms: N_12  and  C_16
   10  A    between atoms: C_13  and  C_26
   11  A    between atoms: C_19  and  C_22
   12  A    between atoms: C_19  and  C_31
   13  A    between atoms: N_20  and  C_27
   14  A    between atoms: C_22  and  C_27
   15  A    between atoms: C_22  and  C_30
                            x       y       z     vdW  Elec       q    Type
                         _______ _______ _______ _____ _____    ______ ____

>  <TORSDO>
F 15

$$$$
=
 OpenBabel11042416353D

 32 33  0  0  1  0  0  0  0  0999 V2000
  190.2430  173.4580  144.6500 O   0  0  0  0  0  1  0  0  0  0  0  0
  191.3050  173.9620  143.8870 C   0  0  1  0  0  3  0  0  0  0  0  0
  190.9150  174.0300  142.4770 N   0  0  0  0  0  2  0  0  0  0  0  0
  189.4600  174.0450  142.3570 C   0  0  0  0  0  2  0  0  0  0  0  0
  189.0500  174.6510  141.0240 C   0  0  1  0  0  3  0  0  0  0  0  0
  189.4060  173.5370  138.8230 C   0  0  0  0  0  1  0  0  0  0  0  0
  188.5750  173.5500  140.0900 C   0  0  0  0  0  2  0  0  0  0  0  0
  187.9350  175.6650  141.2420 C   0  0  0  0  0  2  0  0  0  0  0  0
  187.1010  175.2990  142.4580 C   0  0  0  0  0  2  0  0  0  0  0  0
  186.5130  176.5480  143.0830 C   0  0  0  0  0  2  0  0  0  0  0  0
  185.5440  177.1330  142.1730 N   0  0  0  0  0  2  0  0  0  0  0  0
  185.8330  179.5940  144.6750 C   0  0  0  0  0  2  0  0  0  0  0  0
  184.1940  178.1380  143.7920 O   0  0  0  0  0  0  0  0  0  0  0  0
  185.1120  178.3910  142.7600 C   0  0  1  0  0  3  0  0  0  0  0  0
  184.3870  179.1680  144.7250 C   0  0  1  0  0  3  0  0  0  0  0  0
  186.3060  179.1160  143.3360 C   0  0  0  0  0  2  0  0  0  0  0  0
  184.0550  178.6640  146.1150 C   0  0  0  0  0  1  0  0  0  0  0  0
  191.8040  175.3240  144.4240 C   0  0  2  0  0  3  0  0  0  0  0  0
  193.3160  175.3180  144.7600 C   0  0  2  0  0  3  0  0  0  0  0  0
  194.3300  175.9640  143.3840 S   0  0  0  0  0  0  0  0  0  0  0  0
  196.9860  175.4000  143.7340 C   0  0  0  0  0  1  0  0  0  0  0  0
  193.8470  173.9350  145.0920 C   0  0  0  0  0  2  0  0  0  0  0  0
  195.6340  174.7240  143.6610 C   0  0  1  0  0  3  0  0  0  0  0  0
  195.3460  174.0070  144.9600 C   0  0  0  0  0  2  0  0  0  0  0  0
  190.9120  175.7990  145.6010 C   0  0  2  0  0  3  0  0  0  0  0  0
  190.3080  177.4750  143.7990 C   0  0  0  0  0  1  0  0  0  0  0  0
  190.1330  177.0810  145.2670 C   0  0  1  0  0  3  0  0  0  0  0  0
  188.5010  177.6070  146.8690 N   0  0  0  0  0  1  0  0  0  0  0  0
  188.4440  175.6440  145.8310 O   0  0  0  0  0  1  0  0  0  0  0  0
  188.7160  176.9590  145.6420 N   0  0  0  0  0  0  0  0  0  0  0  0
  191.1990  175.3160  148.0040 C   0  0  0  0  0  2  0  0  0  0  0  0
  191.6530  175.9090  146.9050 C   0  0  0  0  0  3  0  0  0  0  0  0
  2  1  1  1  0  0  0
  3  2  1  0  0  0  0
  4  3  1  0  0  0  0
  5  7  1  6  0  0  0
  5  8  1  0  0  0  0
  5  4  1  0  0  0  0
  6  7  1  0  0  0  0
  8  9  1  0  0  0  0
  9 10  1  0  0  0  0
 11 10  1  0  0  0  0
 12 15  1  0  0  0  0
 13 15  1  0  0  0  0
 14 11  1  1  0  0  0
 14 16  1  0  0  0  0
 14 13  1  0  0  0  0
 15 17  1  1  0  0  0
 16 12  1  0  0  0  0
 18  2  1  1  0  0  0
 18 25  1  0  0  0  0
 19 18  1  6  0  0  0
 19 22  1  0  0  0  0
 20 23  1  0  0  0  0
 20 19  1  0  0  0  0
 23 21  1  1  0  0  0
 23 24  1  0  0  0  0
 24 22  1  0  0  0  0
 25 32  1  1  0  0  0
 27 26  1  6  0  0  0
 27 25  1  0  0  0  0
 27 30  1  0  0  0  0
 30 29  1  0  0  0  0
 30 28  1  0  0  0  0
 32 31  2  0  0  0  0
M  END
>  <MODEL>
8

>  <REMARK>
 VINA RESULT:      -5.2      2.436      4.408
  Name = 
  15 active torsions:
  status: ('A' for Active; 'I' for Inactive)
    1  A    between atoms: C_1  and  C_19
    2  A    between atoms: C_2  and  C_6
    3  A    between atoms: C_2  and  C_7
    4  A    between atoms: C_2  and  C_8
    5  A    between atoms: N_3  and  C_6
    6  A    between atoms: N_3  and  C_31
    7  A    between atoms: C_8  and  C_26
    8  A    between atoms: N_12  and  C_13
    9  A    between atoms: N_12  and  C_16
   10  A    between atoms: C_13  and  C_26
   11  A    between atoms: C_19  and  C_22
   12  A    between atoms: C_19  and  C_31
   13  A    between atoms: N_20  and  C_27
   14  A    between atoms: C_22  and  C_27
   15  A    between atoms: C_22  and  C_30
                            x       y       z     vdW  Elec       q    Type
                         _______ _______ _______ _____ _____    ______ ____

>  <TORSDO>
F 15

$$$$
=
 OpenBabel11042416353D

 32 33  0  0  1  0  0  0  0  0999 V2000
  188.8870  173.3930  142.1710 O   0  0  0  0  0  1  0  0  0  0  0  0
  190.0540  174.1690  142.1430 C   0  0  1  0  0  3  0  0  0  0  0  0
  189.7160  175.5790  142.3470 N   0  0  0  0  0  2  0  0  0  0  0  0
  188.3910  175.6980  142.9490 C   0  0  0  0  0  2  0  0  0  0  0  0
  188.1820  177.1070  143.4830 C   0  0  1  0  0  3  0  0  0  0  0  0
  189.9850  177.9230  144.9990 C   0  0  0  0  0  1  0  0  0  0  0  0
  189.5210  177.8240  143.5600 C   0  0  0  0  0  2  0  0  0  0  0  0
  187.2360  177.8700  142.5650 C   0  0  0  0  0  2  0  0  0  0  0  0
  186.2600  178.7100  143.3710 C   0  0  0  0  0  2  0  0  0  0  0  0
  185.1820  177.8280  143.9680 C   0  0  0  0  0  2  0  0  0  0  0  0
  184.4230  178.5880  144.9450 N   0  0  0  0  0  2  0  0  0  0  0  0
  186.6540  178.2070  147.6430 C   0  0  0  0  0  2  0  0  0  0  0  0
  185.4810  176.8550  146.0980 O   0  0  0  0  0  0  0  0  0  0  0  0
  184.7370  178.0360  146.2530 C   0  0  1  0  0  3  0  0  0  0  0  0
  186.3270  176.7970  147.2160 C   0  0  1  0  0  3  0  0  0  0  0  0
  185.5590  179.0310  147.0380 C   0  0  0  0  0  2  0  0  0  0  0  0
  187.6050  176.0700  146.8490 C   0  0  0  0  0  1  0  0  0  0  0  0
  191.1050  173.6650  143.1590 C   0  0  2  0  0  3  0  0  0  0  0  0
  191.5180  174.7500  144.1830 C   0  0  2  0  0  3  0  0  0  0  0  0
  193.3110  175.1020  144.1290 S   0  0  0  0  0  0  0  0  0  0  0  0
  194.1230  176.5470  146.3070 C   0  0  0  0  0  1  0  0  0  0  0  0
  191.1810  174.3770  145.6150 C   0  0  0  0  0  2  0  0  0  0  0  0
  193.4110  175.2640  145.9400 C   0  0  1  0  0  3  0  0  0  0  0  0
  192.0070  175.2750  146.4990 C   0  0  0  0  0  2  0  0  0  0  0  0
  192.3080  173.0260  142.4170 C   0  0  2  0  0  3  0  0  0  0  0  0
  193.3230  174.1280  140.3720 C   0  0  0  0  0  1  0  0  0  0  0  0
  192.2190  173.2020  140.8920 C   0  0  1  0  0  3  0  0  0  0  0  0
  193.1600  171.9260  139.1620 N   0  0  0  0  0  1  0  0  0  0  0  0
  190.9970  171.7340  139.6330 O   0  0  0  0  0  1  0  0  0  0  0  0
  192.2160  171.9030  140.2030 N   0  0  0  0  0  0  0  0  0  0  0  0
  191.9980  171.0730  143.8930 C   0  0  0  0  0  2  0  0  0  0  0  0
  192.5590  171.5950  142.8080 C   0  0  0  0  0  3  0  0  0  0  0  0
  2  1  1  1  0  0  0
  2  3  1  0  0  0  0
  3  4  1  0  0  0  0
  4  5  1  0  0  0  0
  5  8  1  6  0  0  0
  5  7  1  0  0  0  0
  7  6  1  0  0  0  0
  8  9  1  0  0  0  0
  9 10  1  0  0  0  0
 10 11  1  0  0  0  0
 13 14  1  0  0  0  0
 13 15  1  0  0  0  0
 14 11  1  6  0  0  0
 14 16  1  0  0  0  0
 15 17  1  6  0  0  0
 15 12  1  0  0  0  0
 16 12  1  0  0  0  0
 18  2  1  6  0  0  0
 19 18  1  6  0  0  0
 19 22  1  0  0  0  0
 20 19  1  0  0  0  0
 20 23  1  0  0  0  0
 22 24  1  0  0  0  0
 23 21  1  6  0  0  0
 23 24  1  0  0  0  0
 25 32  1  6  0  0  0
 25 18  1  0  0  0  0
 27 26  1  6  0  0  0
 27 25  1  0  0  0  0
 28 30  1  0  0  0  0
 29 30  1  0  0  0  0
 30 27  1  0  0  0  0
 32 31  2  0  0  0  0
M  END
>  <MODEL>
9

>  <REMARK>
 VINA RESULT:      -5.1      2.638      4.446
  Name = 
  15 active torsions:
  status: ('A' for Active; 'I' for Inactive)
    1  A    between atoms: C_1  and  C_19
    2  A    between atoms: C_2  and  C_6
    3  A    between atoms: C_2  and  C_7
    4  A    between atoms: C_2  and  C_8
    5  A    between atoms: N_3  and  C_6
    6  A    between atoms: N_3  and  C_31
    7  A    between atoms: C_8  and  C_26
    8  A    between atoms: N_12  and  C_13
    9  A    between atoms: N_12  and  C_16
   10  A    between atoms: C_13  and  C_26
   11  A    between atoms: C_19  and  C_22
   12  A    between atoms: C_19  and  C_31
   13  A    between atoms: N_20  and  C_27
   14  A    between atoms: C_22  and  C_27
   15  A    between atoms: C_22  and  C_30
                            x       y       z     vdW  Elec       q    Type
                         _______ _______ _______ _____ _____    ______ ____

>  <TORSDO>
F 15

$$$$
