=
 OpenBabel11042416503D

 29 35  0  0  1  0  0  0  0  0999 V2000
  187.5200  177.4830  144.6380 C   0  0  1  0  0  3  0  0  0  0  0  0
  189.4090  176.5570  145.4690 C   0  0  1  0  0  3  0  0  0  0  0  0
  189.3840  173.4780  143.7480 O   0  0  0  0  0  0  0  0  0  0  0  0
  189.4800  175.2110  142.0530 C   0  0  2  0  0  3  0  0  0  0  0  0
  187.7860  178.3520  141.9460 C   0  0  0  0  0  2  0  0  0  0  0  0
  188.2490  176.1080  142.1550 C   0  0  2  0  0  0  0  0  0  0  0  0
  187.2070  176.2380  141.0600 C   0  0  0  0  0  2  0  0  0  0  0  0
  188.6830  177.3990  142.6140 N   0  0  2  0  0  0  0  0  0  0  0  0
  188.8380  175.6170  144.4130 C   0  0  1  0  0  3  0  0  0  0  0  0
  189.3970  174.0120  141.0990 C   0  0  0  0  0  2  0  0  0  0  0  0
  187.9250  176.4970  143.5700 C   0  0  1  0  0  0  0  0  0  0  0  0
  190.7480  173.7860  143.8190 C   0  0  1  0  0  3  0  0  0  0  0  0
  190.5300  172.9880  141.3340 C   0  0  1  0  0  3  0  0  0  0  0  0
  191.4610  173.3030  142.5310 C   0  0  0  0  0  2  0  0  0  0  0  0
  189.7390  174.8280  143.5030 C   0  0  1  0  0  0  0  0  0  0  0  0
  188.3580  177.5330  145.6140 N   0  0  0  0  0  2  0  0  0  0  0  0
  187.1390  177.6980  140.7440 C   0  0  0  0  0  2  0  0  0  0  0  0
  189.9710  171.7230  141.5120 O   0  0  0  0  0  1  0  0  0  0  0  0
  184.0460  178.8620  145.7670 C   0  0  0  0  0  1  0  0  0  0  0  0
  185.2010  177.5710  144.1050 O   0  0  0  0  0  0  0  0  0  0  0  0
  186.2790  178.3360  144.5960 C   0  0  1  0  0  3  0  0  0  0  0  0
  185.2610  176.6160  146.3250 C   0  0  0  0  0  1  0  0  0  0  0  0
  185.1640  177.8760  145.4750 C   0  0  0  0  0  0  0  0  0  0  0  0
  188.9190  174.8420  147.0660 O   0  0  0  0  0  0  0  0  0  0  0  0
  191.4220  175.2510  148.4170 C   0  0  0  0  0  1  0  0  0  0  0  0
  189.6450  175.8300  146.7580 C   0  0  0  0  0  0  0  0  0  0  0  0
  190.6990  176.2450  147.6370 N   0  0  0  0  0  0  0  0  0  0  0  0
  190.8350  177.6400  148.0190 C   0  0  0  0  0  2  0  0  0  0  0  0
  191.5890  177.7510  149.1720 F   0  0  0  0  0  0  0  0  0  0  0  0
  1 16  1  6  0  0  0
  2 16  1  0  0  0  0
  2 26  1  1  0  0  0
  3 12  1  0  0  0  0
  4 10  1  6  0  0  0
  4  6  1  0  0  0  0
  4 15  1  0  0  0  0
  6  7  1  6  0  0  0
  6  8  1  0  0  0  0
  6 11  1  0  0  0  0
  8  5  1  6  0  0  0
  8 11  1  0  0  0  0
  9  2  1  0  0  0  0
 10 13  1  0  0  0  0
 11  9  1  0  0  0  0
 11  1  1  0  0  0  0
 13 18  1  0  0  0  0
 13 14  1  0  0  0  0
 14 12  1  0  0  0  0
 15  3  1  0  0  0  0
 15 12  1  0  0  0  0
 15  9  1  0  0  0  0
 17  7  1  0  0  0  0
 17  5  1  0  0  0  0
 20 21  1  0  0  0  0
 20 23  1  0  0  0  0
 21  1  1  0  0  0  0
 21 23  1  0  0  0  0
 23 19  1  0  0  0  0
 23 22  1  0  0  0  0
 26 24  2  0  0  0  0
 26 27  1  0  0  0  0
 27 28  1  0  0  0  0
 27 25  1  0  0  0  0
 28 29  1  0  0  0  0
M  END
>  <MODEL>
1

>  <REMARK>
 VINA RESULT:      -7.5      0.000      0.000
  Name = 
  3 active torsions:
  status: ('A' for Active; 'I' for Inactive)
    1  A    between atoms: C_1  and  C_21
    2  A    between atoms: C_2  and  C_13
    3  A    between atoms: C_8  and  N_25
                            x       y       z     vdW  Elec       q    Type
                         _______ _______ _______ _____ _____    ______ ____

>  <TORSDO>
F 3

$$$$
=
 OpenBabel11042416503D

 29 35  0  0  1  0  0  0  0  0999 V2000
  186.4130  176.5650  143.0900 C   0  0  1  0  0  3  0  0  0  0  0  0
  187.8650  174.8300  143.1270 C   0  0  1  0  0  3  0  0  0  0  0  0
  190.5600  176.3300  144.8400 O   0  0  0  0  0  0  0  0  0  0  0  0
  188.6600  176.4050  146.3480 C   0  0  2  0  0  3  0  0  0  0  0  0
  185.2330  177.0940  145.6200 C   0  0  0  0  0  2  0  0  0  0  0  0
  187.5290  177.2150  145.7210 C   0  0  2  0  0  0  0  0  0  0  0  0
  186.9980  178.5120  146.3030 C   0  0  0  0  0  2  0  0  0  0  0  0
  186.4580  176.3080  145.4120 N   0  0  2  0  0  0  0  0  0  0  0  0
  188.4770  175.9860  143.9110 C   0  0  1  0  0  3  0  0  0  0  0  0
  189.6500  177.1590  147.2460 C   0  0  0  0  0  2  0  0  0  0  0  0
  187.2940  176.8700  144.2770 C   0  0  1  0  0  0  0  0  0  0  0  0
  190.5890  175.0090  145.3040 C   0  0  1  0  0  3  0  0  0  0  0  0
  190.9310  176.3440  147.5310 C   0  0  1  0  0  3  0  0  0  0  0  0
  191.0240  174.9860  146.7910 C   0  0  0  0  0  2  0  0  0  0  0  0
  189.3070  175.7390  145.1410 C   0  0  1  0  0  0  0  0  0  0  0  0
  186.7060  175.4450  142.5290 N   0  0  0  0  0  2  0  0  0  0  0  0
  185.5320  178.2940  146.4950 C   0  0  0  0  0  2  0  0  0  0  0  0
  192.0450  177.1180  147.2050 O   0  0  0  0  0  1  0  0  0  0  0  0
  184.2600  178.5570  140.5140 C   0  0  0  0  0  1  0  0  0  0  0  0
  185.8060  178.7420  142.3410 O   0  0  0  0  0  0  0  0  0  0  0  0
  185.3000  177.4500  142.5930 C   0  0  1  0  0  3  0  0  0  0  0  0
  186.7150  177.6710  140.3730 C   0  0  0  0  0  1  0  0  0  0  0  0
  185.4790  177.9770  141.2100 C   0  0  0  0  0  0  0  0  0  0  0  0
  188.8270  174.8860  140.9350 O   0  0  0  0  0  0  0  0  0  0  0  0
  191.0350  173.2420  141.7580 C   0  0  0  0  0  1  0  0  0  0  0  0
  188.8120  174.3400  142.0750 C   0  0  0  0  0  0  0  0  0  0  0  0
  189.7100  173.2590  142.3620 N   0  0  0  0  0  0  0  0  0  0  0  0
  189.2190  172.0290  142.9590 C   0  0  0  0  0  2  0  0  0  0  0  0
  189.3310  172.0850  144.3350 F   0  0  0  0  0  0  0  0  0  0  0  0
  1 16  1  1  0  0  0
  1 11  1  0  0  0  0
  2 26  1  6  0  0  0
  2  9  1  0  0  0  0
  3 15  1  0  0  0  0
  3 12  1  0  0  0  0
  4 10  1  6  0  0  0
  5 17  1  0  0  0  0
  6  7  1  1  0  0  0
  6  4  1  0  0  0  0
  7 17  1  0  0  0  0
  8  5  1  6  0  0  0
  8  6  1  0  0  0  0
  9 11  1  0  0  0  0
  9 15  1  0  0  0  0
 10 13  1  0  0  0  0
 11  8  1  0  0  0  0
 11  6  1  0  0  0  0
 12 14  1  0  0  0  0
 14 13  1  0  0  0  0
 15 12  1  0  0  0  0
 15  4  1  0  0  0  0
 16  2  1  0  0  0  0
 18 13  1  0  0  0  0
 19 23  1  0  0  0  0
 20 21  1  0  0  0  0
 21  1  1  0  0  0  0
 22 23  1  0  0  0  0
 23 20  1  0  0  0  0
 23 21  1  0  0  0  0
 24 26  2  0  0  0  0
 25 27  1  0  0  0  0
 26 27  1  0  0  0  0
 27 28  1  0  0  0  0
 28 29  1  0  0  0  0
M  END
>  <MODEL>
2

>  <REMARK>
 VINA RESULT:      -7.3      2.506      5.051
  Name = 
  3 active torsions:
  status: ('A' for Active; 'I' for Inactive)
    1  A    between atoms: C_1  and  C_21
    2  A    between atoms: C_2  and  C_13
    3  A    between atoms: C_8  and  N_25
                            x       y       z     vdW  Elec       q    Type
                         _______ _______ _______ _____ _____    ______ ____

>  <TORSDO>
F 3

$$$$
=
 OpenBabel11042416503D

 29 35  0  0  1  0  0  0  0  0999 V2000
  187.8830  177.7150  144.9750 C   0  0  1  0  0  3  0  0  0  0  0  0
  190.0420  177.0400  144.9850 C   0  0  1  0  0  3  0  0  0  0  0  0
  189.7250  173.9660  143.2830 O   0  0  0  0  0  0  0  0  0  0  0  0
  188.9570  175.6830  141.7490 C   0  0  2  0  0  3  0  0  0  0  0  0
  186.9910  178.5860  142.4210 C   0  0  0  0  0  2  0  0  0  0  0  0
  187.7620  176.4190  142.3480 C   0  0  2  0  0  0  0  0  0  0  0  0
  186.3720  176.4080  141.7400 C   0  0  0  0  0  2  0  0  0  0  0  0
  188.1820  177.7590  142.6580 N   0  0  2  0  0  0  0  0  0  0  0  0
  189.2250  176.0270  144.1900 C   0  0  1  0  0  3  0  0  0  0  0  0
  188.6580  174.4730  140.8520 C   0  0  0  0  0  2  0  0  0  0  0  0
  187.9620  176.7780  143.7950 C   0  0  1  0  0  0  0  0  0  0  0  0
  190.9650  174.4440  142.8400 C   0  0  1  0  0  3  0  0  0  0  0  0
  189.9080  173.6020  140.5970 C   0  0  1  0  0  3  0  0  0  0  0  0
  191.1830  174.0420  141.3600 C   0  0  0  0  0  2  0  0  0  0  0  0
  189.7960  175.3480  142.9740 C   0  0  1  0  0  0  0  0  0  0  0  0
  189.0180  177.8780  145.5580 N   0  0  0  0  0  2  0  0  0  0  0  0
  186.0150  177.8450  141.5320 C   0  0  0  0  0  2  0  0  0  0  0  0
  189.6150  172.2780  140.9250 O   0  0  0  0  0  1  0  0  0  0  0  0
  184.9380  178.6160  147.3740 C   0  0  0  0  0  1  0  0  0  0  0  0
  185.5340  177.5230  145.3220 O   0  0  0  0  0  0  0  0  0  0  0  0
  186.6280  178.4050  145.4430 C   0  0  1  0  0  3  0  0  0  0  0  0
  186.5070  176.5280  147.2990 C   0  0  0  0  0  1  0  0  0  0  0  0
  185.9700  177.7870  146.6300 C   0  0  0  0  0  0  0  0  0  0  0  0
  190.3210  176.1540  147.1910 O   0  0  0  0  0  0  0  0  0  0  0  0
  192.6880  174.7190  146.4190 C   0  0  0  0  0  1  0  0  0  0  0  0
  190.8380  176.3600  146.0560 C   0  0  0  0  0  0  0  0  0  0  0  0
  192.1820  175.9330  145.7940 N   0  0  0  0  0  0  0  0  0  0  0  0
  193.1440  176.8450  145.2000 C   0  0  0  0  0  2  0  0  0  0  0  0
  193.1390  176.7190  143.8240 F   0  0  0  0  0  0  0  0  0  0  0  0
  1 21  1  0  0  0  0
  1 16  1  6  0  0  0
  2 16  1  0  0  0  0
  2 26  1  1  0  0  0
  4 10  1  1  0  0  0
  4  6  1  0  0  0  0
  4 15  1  0  0  0  0
  6  7  1  6  0  0  0
  6  8  1  0  0  0  0
  6 11  1  0  0  0  0
  8  5  1  1  0  0  0
  8 11  1  0  0  0  0
  9  2  1  0  0  0  0
 11  9  1  0  0  0  0
 11  1  1  0  0  0  0
 12 15  1  0  0  0  0
 12  3  1  0  0  0  0
 13 10  1  0  0  0  0
 13 18  1  0  0  0  0
 13 14  1  0  0  0  0
 14 12  1  0  0  0  0
 15  3  1  0  0  0  0
 15  9  1  0  0  0  0
 17  7  1  0  0  0  0
 17  5  1  0  0  0  0
 20 21  1  0  0  0  0
 20 23  1  0  0  0  0
 21 23  1  0  0  0  0
 23 22  1  0  0  0  0
 23 19  1  0  0  0  0
 26 24  2  0  0  0  0
 27 26  1  0  0  0  0
 27 25  1  0  0  0  0
 28 27  1  0  0  0  0
 29 28  1  0  0  0  0
M  END
>  <MODEL>
3

>  <REMARK>
 VINA RESULT:      -7.3      1.740      1.750
  Name = 
  3 active torsions:
  status: ('A' for Active; 'I' for Inactive)
    1  A    between atoms: C_1  and  C_21
    2  A    between atoms: C_2  and  C_13
    3  A    between atoms: C_8  and  N_25
                            x       y       z     vdW  Elec       q    Type
                         _______ _______ _______ _____ _____    ______ ____

>  <TORSDO>
F 3

$$$$
=
 OpenBabel11042416503D

 29 35  0  0  1  0  0  0  0  0999 V2000
  190.1430  174.5730  143.8480 C   0  0  1  0  0  3  0  0  0  0  0  0
  189.1180  176.2360  142.7070 C   0  0  1  0  0  3  0  0  0  0  0  0
  186.1180  176.4750  144.5470 O   0  0  0  0  0  0  0  0  0  0  0  0
  187.9180  176.9490  146.1040 C   0  0  2  0  0  3  0  0  0  0  0  0
  191.1170  175.3900  146.3900 C   0  0  0  0  0  2  0  0  0  0  0  0
  188.8510  175.7460  146.2030 C   0  0  2  0  0  0  0  0  0  0  0  0
  189.0640  174.9460  147.4750 C   0  0  0  0  0  2  0  0  0  0  0  0
  190.1060  176.1130  145.6050 N   0  0  2  0  0  0  0  0  0  0  0  0
  188.2440  175.8620  143.9000 C   0  0  1  0  0  3  0  0  0  0  0  0
  186.7640  177.0270  147.1130 C   0  0  0  0  0  2  0  0  0  0  0  0
  189.1900  175.1570  144.8620 C   0  0  1  0  0  0  0  0  0  0  0  0
  186.3760  177.8050  144.1940 C   0  0  1  0  0  3  0  0  0  0  0  0
  185.6930  178.0650  146.7090 C   0  0  1  0  0  3  0  0  0  0  0  0
  185.9250  178.7480  145.3380 C   0  0  0  0  0  2  0  0  0  0  0  0
  187.4640  176.9060  144.6520 C   0  0  1  0  0  0  0  0  0  0  0  0
  190.1220  175.2020  142.7260 N   0  0  0  0  0  2  0  0  0  0  0  0
  190.5370  174.9780  147.7270 C   0  0  0  0  0  2  0  0  0  0  0  0
  184.4410  177.4500  146.7060 O   0  0  0  0  0  1  0  0  0  0  0  0
  191.5670  170.9680  143.3870 C   0  0  0  0  0  1  0  0  0  0  0  0
  190.3440  172.4230  144.8520 O   0  0  0  0  0  0  0  0  0  0  0  0
  191.0390  173.3870  144.0930 C   0  0  1  0  0  3  0  0  0  0  0  0
  189.2500  171.9890  142.7400 C   0  0  0  0  0  1  0  0  0  0  0  0
  190.5640  172.1020  143.5030 C   0  0  0  0  0  0  0  0  0  0  0  0
  188.3060  175.1350  140.7430 O   0  0  0  0  0  0  0  0  0  0  0  0
  186.3260  177.1700  140.3030 C   0  0  0  0  0  1  0  0  0  0  0  0
  188.3290  176.1920  141.4350 C   0  0  0  0  0  0  0  0  0  0  0  0
  187.5900  177.3440  141.0050 N   0  0  0  0  0  0  0  0  0  0  0  0
  188.2230  178.6510  140.9530 C   0  0  0  0  0  2  0  0  0  0  0  0
  188.7050  179.0010  142.2000 F   0  0  0  0  0  0  0  0  0  0  0  0
  1 16  1  1  0  0  0
  1 21  1  0  0  0  0
  1 11  1  0  0  0  0
  2 26  1  6  0  0  0
  2 16  1  0  0  0  0
  2  9  1  0  0  0  0
  3 15  1  0  0  0  0
  4  6  1  0  0  0  0
  4 10  1  1  0  0  0
  5 17  1  0  0  0  0
  6  7  1  1  0  0  0
  7 17  1  0  0  0  0
  8  6  1  0  0  0  0
  8  5  1  1  0  0  0
  9 15  1  0  0  0  0
  9 11  1  0  0  0  0
 11  8  1  0  0  0  0
 11  6  1  0  0  0  0
 12  3  1  0  0  0  0
 12 15  1  0  0  0  0
 12 14  1  0  0  0  0
 13 10  1  0  0  0  0
 14 13  1  0  0  0  0
 15  4  1  0  0  0  0
 18 13  1  0  0  0  0
 19 23  1  0  0  0  0
 21 20  1  0  0  0  0
 22 23  1  0  0  0  0
 23 21  1  0  0  0  0
 23 20  1  0  0  0  0
 24 26  2  0  0  0  0
 25 27  1  0  0  0  0
 27 26  1  0  0  0  0
 28 27  1  0  0  0  0
 28 29  1  0  0  0  0
M  END
>  <MODEL>
4

>  <REMARK>
 VINA RESULT:      -7.0      2.215      6.659
  Name = 
  3 active torsions:
  status: ('A' for Active; 'I' for Inactive)
    1  A    between atoms: C_1  and  C_21
    2  A    between atoms: C_2  and  C_13
    3  A    between atoms: C_8  and  N_25
                            x       y       z     vdW  Elec       q    Type
                         _______ _______ _______ _____ _____    ______ ____

>  <TORSDO>
F 3

$$$$
=
 OpenBabel11042416503D

 29 35  0  0  1  0  0  0  0  0999 V2000
  190.4030  175.0870  143.6720 C   0  0  1  0  0  3  0  0  0  0  0  0
  189.0330  176.3230  142.3630 C   0  0  1  0  0  3  0  0  0  0  0  0
  186.1590  176.4160  144.4070 O   0  0  0  0  0  0  0  0  0  0  0  0
  187.9440  177.4530  145.6830 C   0  0  2  0  0  3  0  0  0  0  0  0
  191.3770  176.5070  145.9320 C   0  0  0  0  0  2  0  0  0  0  0  0
  189.0770  176.4540  145.9000 C   0  0  2  0  0  0  0  0  0  0  0  0
  189.5060  175.9480  147.2650 C   0  0  0  0  0  2  0  0  0  0  0  0
  190.2080  176.9000  145.1330 N   0  0  2  0  0  0  0  0  0  0  0  0
  188.3150  176.0420  143.6790 C   0  0  1  0  0  3  0  0  0  0  0  0
  186.8600  177.5310  146.7670 C   0  0  0  0  0  2  0  0  0  0  0  0
  189.4280  175.6890  144.6540 C   0  0  1  0  0  0  0  0  0  0  0  0
  186.1590  177.6810  143.8070 C   0  0  1  0  0  3  0  0  0  0  0  0
  185.6010  178.2900  146.2920 C   0  0  1  0  0  3  0  0  0  0  0  0
  185.6230  178.7350  144.8080 C   0  0  0  0  0  2  0  0  0  0  0  0
  187.4140  177.0680  144.3090 C   0  0  1  0  0  0  0  0  0  0  0  0
  190.2010  175.4850  142.4650 N   0  0  0  0  0  2  0  0  0  0  0  0
  190.9640  176.2630  147.3680 C   0  0  0  0  0  2  0  0  0  0  0  0
  184.4780  177.4930  146.5130 O   0  0  0  0  0  1  0  0  0  0  0  0
  192.1390  171.6410  144.2630 C   0  0  0  0  0  1  0  0  0  0  0  0
  191.2760  173.6130  145.3250 O   0  0  0  0  0  0  0  0  0  0  0  0
  191.5050  174.1260  144.0320 C   0  0  1  0  0  3  0  0  0  0  0  0
  189.6090  172.2910  144.1760 C   0  0  0  0  0  1  0  0  0  0  0  0
  191.0690  172.7180  144.2630 C   0  0  0  0  0  0  0  0  0  0  0  0
  187.2920  176.7010  140.7640 O   0  0  0  0  0  0  0  0  0  0  0  0
  188.1910  174.5190  139.1250 C   0  0  0  0  0  1  0  0  0  0  0  0
  188.1850  175.9180  141.1960 C   0  0  0  0  0  0  0  0  0  0  0  0
  188.3920  174.6490  140.5610 N   0  0  0  0  0  0  0  0  0  0  0  0
  188.4650  173.4310  141.3500 C   0  0  0  0  0  2  0  0  0  0  0  0
  187.2720  173.2160  142.0130 F   0  0  0  0  0  0  0  0  0  0  0  0
  1 16  1  1  0  0  0
  1 21  1  0  0  0  0
  1 11  1  0  0  0  0
  2 26  1  6  0  0  0
  2 16  1  0  0  0  0
  2  9  1  0  0  0  0
  4  6  1  0  0  0  0
  4 10  1  1  0  0  0
  5 17  1  0  0  0  0
  6  7  1  1  0  0  0
  7 17  1  0  0  0  0
  8  6  1  0  0  0  0
  8  5  1  1  0  0  0
  9 15  1  0  0  0  0
  9 11  1  0  0  0  0
 11  8  1  0  0  0  0
 11  6  1  0  0  0  0
 12 15  1  0  0  0  0
 12  3  1  0  0  0  0
 12 14  1  0  0  0  0
 13 18  1  0  0  0  0
 13 10  1  0  0  0  0
 14 13  1  0  0  0  0
 15  3  1  0  0  0  0
 15  4  1  0  0  0  0
 21 23  1  0  0  0  0
 21 20  1  0  0  0  0
 22 23  1  0  0  0  0
 23 19  1  0  0  0  0
 23 20  1  0  0  0  0
 24 26  2  0  0  0  0
 25 27  1  0  0  0  0
 27 26  1  0  0  0  0
 27 28  1  0  0  0  0
 28 29  1  0  0  0  0
M  END
>  <MODEL>
5

>  <REMARK>
 VINA RESULT:      -6.9      2.514      6.688
  Name = 
  3 active torsions:
  status: ('A' for Active; 'I' for Inactive)
    1  A    between atoms: C_1  and  C_21
    2  A    between atoms: C_2  and  C_13
    3  A    between atoms: C_8  and  N_25
                            x       y       z     vdW  Elec       q    Type
                         _______ _______ _______ _____ _____    ______ ____

>  <TORSDO>
F 3

$$$$
=
 OpenBabel11042416503D

 29 35  0  0  1  0  0  0  0  0999 V2000
  187.6680  175.8610  143.1420 C   0  0  1  0  0  3  0  0  0  0  0  0
  188.9330  174.2330  142.2100 C   0  0  1  0  0  3  0  0  0  0  0  0
  192.1120  175.7490  142.4030 O   0  0  0  0  0  0  0  0  0  0  0  0
  191.3040  175.5560  144.6830 C   0  0  2  0  0  3  0  0  0  0  0  0
  188.0080  176.0750  145.9550 C   0  0  0  0  0  2  0  0  0  0  0  0
  190.0060  176.3420  144.8430 C   0  0  2  0  0  0  0  0  0  0  0  0
  189.8530  177.5410  145.7610 C   0  0  0  0  0  2  0  0  0  0  0  0
  188.9410  175.3960  145.0440 N   0  0  2  0  0  0  0  0  0  0  0  0
  189.8580  175.3510  142.6800 C   0  0  1  0  0  3  0  0  0  0  0  0
  192.6130  176.2910  145.0030 C   0  0  0  0  0  2  0  0  0  0  0  0
  189.0420  176.1150  143.7120 C   0  0  1  0  0  0  0  0  0  0  0  0
  192.3960  174.3970  142.6280 C   0  0  1  0  0  3  0  0  0  0  0  0
  193.8560  175.5420  144.4760 C   0  0  1  0  0  3  0  0  0  0  0  0
  193.5540  174.2670  143.6490 C   0  0  0  0  0  2  0  0  0  0  0  0
  191.2170  175.0500  143.2500 C   0  0  1  0  0  0  0  0  0  0  0  0
  187.6280  174.8190  142.3870 N   0  0  0  0  0  2  0  0  0  0  0  0
  188.7150  177.2070  146.6710 C   0  0  0  0  0  2  0  0  0  0  0  0
  194.6210  176.4160  143.7020 O   0  0  0  0  0  1  0  0  0  0  0  0
  184.7160  178.2910  142.3560 C   0  0  0  0  0  1  0  0  0  0  0  0
  186.8330  178.0680  143.4650 O   0  0  0  0  0  0  0  0  0  0  0  0
  186.4530  176.7110  143.4110 C   0  0  1  0  0  3  0  0  0  0  0  0
  186.9360  177.8200  141.0620 C   0  0  0  0  0  1  0  0  0  0  0  0
  186.1040  177.6770  142.3300 C   0  0  0  0  0  0  0  0  0  0  0  0
  188.5650  174.5390  139.8640 O   0  0  0  0  0  0  0  0  0  0  0  0
  190.9170  173.0270  139.2010 C   0  0  0  0  0  1  0  0  0  0  0  0
  189.1810  173.9070  140.7690 C   0  0  0  0  0  0  0  0  0  0  0  0
  190.1240  172.8860  140.4140 N   0  0  0  0  0  0  0  0  0  0  0  0
  190.0670  171.5770  141.0410 C   0  0  0  0  0  2  0  0  0  0  0  0
  190.8760  171.5450  142.1610 F   0  0  0  0  0  0  0  0  0  0  0  0
  1 16  1  1  0  0  0
  1 21  1  0  0  0  0
  1 11  1  0  0  0  0
  2 26  1  6  0  0  0
  2 16  1  0  0  0  0
  2  9  1  0  0  0  0
  3 12  1  0  0  0  0
  3 15  1  0  0  0  0
  4  6  1  0  0  0  0
  4 10  1  6  0  0  0
  5 17  1  0  0  0  0
  6  8  1  0  0  0  0
  6  7  1  1  0  0  0
  7 17  1  0  0  0  0
  8  5  1  1  0  0  0
  9 15  1  0  0  0  0
  9 11  1  0  0  0  0
 11  6  1  0  0  0  0
 11  8  1  0  0  0  0
 12 15  1  0  0  0  0
 12 14  1  0  0  0  0
 13 10  1  0  0  0  0
 14 13  1  0  0  0  0
 15  4  1  0  0  0  0
 18 13  1  0  0  0  0
 21 20  1  0  0  0  0
 22 23  1  0  0  0  0
 23 19  1  0  0  0  0
 23 21  1  0  0  0  0
 23 20  1  0  0  0  0
 24 26  2  0  0  0  0
 25 27  1  0  0  0  0
 27 26  1  0  0  0  0
 27 28  1  0  0  0  0
 28 29  1  0  0  0  0
M  END
>  <MODEL>
6

>  <REMARK>
 VINA RESULT:      -6.9      3.018      5.195
  Name = 
  3 active torsions:
  status: ('A' for Active; 'I' for Inactive)
    1  A    between atoms: C_1  and  C_21
    2  A    between atoms: C_2  and  C_13
    3  A    between atoms: C_8  and  N_25
                            x       y       z     vdW  Elec       q    Type
                         _______ _______ _______ _____ _____    ______ ____

>  <TORSDO>
F 3

$$$$
=
 OpenBabel11042416503D

 29 35  0  0  1  0  0  0  0  0999 V2000
  189.9580  174.8270  143.8970 C   0  0  1  0  0  3  0  0  0  0  0  0
  189.0110  175.6780  142.0270 C   0  0  1  0  0  3  0  0  0  0  0  0
  185.8850  176.6700  143.3260 O   0  0  0  0  0  0  0  0  0  0  0  0
  187.5660  177.9140  144.5560 C   0  0  2  0  0  3  0  0  0  0  0  0
  190.7420  176.8200  145.7650 C   0  0  0  0  0  2  0  0  0  0  0  0
  188.4940  176.9510  145.2900 C   0  0  2  0  0  0  0  0  0  0  0  0
  188.6180  176.8840  146.8000 C   0  0  0  0  0  2  0  0  0  0  0  0
  189.7870  177.0260  144.6660 N   0  0  2  0  0  0  0  0  0  0  0  0
  188.0550  175.9020  143.1940 C   0  0  1  0  0  3  0  0  0  0  0  0
  186.3410  178.4310  145.3240 C   0  0  0  0  0  2  0  0  0  0  0  0
  188.9320  175.7950  144.4330 C   0  0  1  0  0  0  0  0  0  0  0  0
  186.1620  177.6660  142.3820 C   0  0  1  0  0  3  0  0  0  0  0  0
  185.2990  179.0960  144.3990 C   0  0  1  0  0  3  0  0  0  0  0  0
  185.6260  179.0290  142.8860 C   0  0  0  0  0  2  0  0  0  0  0  0
  187.2180  177.1480  143.2880 C   0  0  1  0  0  0  0  0  0  0  0  0
  190.0150  174.8250  142.6120 N   0  0  0  0  0  2  0  0  0  0  0  0
  190.0680  177.0920  147.0930 C   0  0  0  0  0  2  0  0  0  0  0  0
  184.0520  178.5100  144.6220 O   0  0  0  0  0  1  0  0  0  0  0  0
  193.2410  173.5590  145.5870 C   0  0  0  0  0  1  0  0  0  0  0  0
  191.5840  173.0880  143.9140 O   0  0  0  0  0  0  0  0  0  0  0  0
  190.8380  173.9480  144.7460 C   0  0  1  0  0  3  0  0  0  0  0  0
  192.8690  175.0950  143.5050 C   0  0  0  0  0  1  0  0  0  0  0  0
  192.3040  174.1240  144.5330 C   0  0  0  0  0  0  0  0  0  0  0  0
  187.8100  175.6660  139.9560 O   0  0  0  0  0  0  0  0  0  0  0  0
  188.2790  172.8560  139.5880 C   0  0  0  0  0  1  0  0  0  0  0  0
  188.3160  174.9870  140.8940 C   0  0  0  0  0  0  0  0  0  0  0  0
  188.2340  173.5550  140.8650 N   0  0  0  0  0  0  0  0  0  0  0  0
  187.7740  172.8180  142.0290 C   0  0  0  0  0  2  0  0  0  0  0  0
  188.7540  171.9440  142.4610 F   0  0  0  0  0  0  0  0  0  0  0  0
  1 16  1  1  0  0  0
  1 11  1  0  0  0  0
  1 21  1  0  0  0  0
  2 26  1  6  0  0  0
  2 16  1  0  0  0  0
  2  9  1  0  0  0  0
  4  6  1  0  0  0  0
  4 10  1  1  0  0  0
  5 17  1  0  0  0  0
  6  7  1  1  0  0  0
  7 17  1  0  0  0  0
  8  6  1  0  0  0  0
  8  5  1  1  0  0  0
  9 15  1  0  0  0  0
  9 11  1  0  0  0  0
 11  8  1  0  0  0  0
 11  6  1  0  0  0  0
 12 14  1  0  0  0  0
 12 15  1  0  0  0  0
 12  3  1  0  0  0  0
 13 18  1  0  0  0  0
 13 10  1  0  0  0  0
 14 13  1  0  0  0  0
 15  3  1  0  0  0  0
 15  4  1  0  0  0  0
 20 23  1  0  0  0  0
 20 21  1  0  0  0  0
 22 23  1  0  0  0  0
 23 21  1  0  0  0  0
 23 19  1  0  0  0  0
 24 26  2  0  0  0  0
 25 27  1  0  0  0  0
 27 26  1  0  0  0  0
 27 28  1  0  0  0  0
 28 29  1  0  0  0  0
M  END
>  <MODEL>
7

>  <REMARK>
 VINA RESULT:      -6.9      2.609      6.669
  Name = 
  3 active torsions:
  status: ('A' for Active; 'I' for Inactive)
    1  A    between atoms: C_1  and  C_21
    2  A    between atoms: C_2  and  C_13
    3  A    between atoms: C_8  and  N_25
                            x       y       z     vdW  Elec       q    Type
                         _______ _______ _______ _____ _____    ______ ____

>  <TORSDO>
F 3

$$$$
=
 OpenBabel11042416503D

 29 35  0  0  1  0  0  0  0  0999 V2000
  189.8210  176.7210  144.7060 C   0  0  1  0  0  3  0  0  0  0  0  0
  191.9250  175.9190  144.4800 C   0  0  1  0  0  3  0  0  0  0  0  0
  191.2150  172.6800  143.2770 O   0  0  0  0  0  0  0  0  0  0  0  0
  190.2850  174.2320  141.6590 C   0  0  2  0  0  3  0  0  0  0  0  0
  188.5730  177.3140  142.2230 C   0  0  0  0  0  2  0  0  0  0  0  0
  189.2320  175.1120  142.3280 C   0  0  2  0  0  0  0  0  0  0  0  0
  187.7640  175.1100  141.9440 C   0  0  0  0  0  2  0  0  0  0  0  0
  189.7520  176.4510  142.3860 N   0  0  2  0  0  0  0  0  0  0  0  0
  190.9510  174.8660  143.9620 C   0  0  1  0  0  3  0  0  0  0  0  0
  189.7980  172.9400  140.9900 C   0  0  0  0  0  2  0  0  0  0  0  0
  189.6730  175.6380  143.6650 C   0  0  1  0  0  0  0  0  0  0  0  0
  192.3870  173.0190  142.5910 C   0  0  1  0  0  3  0  0  0  0  0  0
  190.9540  171.9670  140.6680 C   0  0  1  0  0  3  0  0  0  0  0  0
  192.3510  172.4210  141.1620 C   0  0  0  0  0  2  0  0  0  0  0  0
  191.2930  174.0050  142.7770 C   0  0  1  0  0  0  0  0  0  0  0  0
  191.0400  176.8860  145.0820 N   0  0  0  0  0  2  0  0  0  0  0  0
  187.4380  176.5280  141.6000 C   0  0  0  0  0  2  0  0  0  0  0  0
  190.6620  170.7160  141.2120 O   0  0  0  0  0  1  0  0  0  0  0  0
  187.1530  177.9070  147.2970 C   0  0  0  0  0  1  0  0  0  0  0  0
  187.4920  176.7940  145.1970 O   0  0  0  0  0  0  0  0  0  0  0  0
  188.6860  177.5410  145.2610 C   0  0  1  0  0  3  0  0  0  0  0  0
  188.4610  175.6530  147.0960 C   0  0  0  0  0  1  0  0  0  0  0  0
  188.0350  176.9790  146.4790 C   0  0  0  0  0  0  0  0  0  0  0  0
  192.4290  174.4550  146.3050 O   0  0  0  0  0  0  0  0  0  0  0  0
  195.2560  174.8030  145.9290 C   0  0  0  0  0  1  0  0  0  0  0  0
  192.8510  175.3330  145.5000 C   0  0  0  0  0  0  0  0  0  0  0  0
  194.2200  175.7570  145.5580 N   0  0  0  0  0  0  0  0  0  0  0  0
  194.5550  177.1700  145.5860 C   0  0  0  0  0  2  0  0  0  0  0  0
  194.5670  177.6360  146.8870 F   0  0  0  0  0  0  0  0  0  0  0  0
  1 16  1  6  0  0  0
  1 21  1  0  0  0  0
  2 16  1  0  0  0  0
  2 26  1  1  0  0  0
  4 10  1  1  0  0  0
  4  6  1  0  0  0  0
  4 15  1  0  0  0  0
  6  7  1  6  0  0  0
  6  8  1  0  0  0  0
  6 11  1  0  0  0  0
  8  5  1  1  0  0  0
  8 11  1  0  0  0  0
  9  2  1  0  0  0  0
 11  9  1  0  0  0  0
 11  1  1  0  0  0  0
 12 15  1  0  0  0  0
 12  3  1  0  0  0  0
 13 10  1  0  0  0  0
 13 14  1  0  0  0  0
 13 18  1  0  0  0  0
 14 12  1  0  0  0  0
 15  3  1  0  0  0  0
 15  9  1  0  0  0  0
 17  7  1  0  0  0  0
 17  5  1  0  0  0  0
 20 21  1  0  0  0  0
 20 23  1  0  0  0  0
 21 23  1  0  0  0  0
 23 22  1  0  0  0  0
 23 19  1  0  0  0  0
 26 27  1  0  0  0  0
 26 24  2  0  0  0  0
 27 28  1  0  0  0  0
 27 25  1  0  0  0  0
 28 29  1  0  0  0  0
M  END
>  <MODEL>
8

>  <REMARK>
 VINA RESULT:      -6.8      2.275      2.686
  Name = 
  3 active torsions:
  status: ('A' for Active; 'I' for Inactive)
    1  A    between atoms: C_1  and  C_21
    2  A    between atoms: C_2  and  C_13
    3  A    between atoms: C_8  and  N_25
                            x       y       z     vdW  Elec       q    Type
                         _______ _______ _______ _____ _____    ______ ____

>  <TORSDO>
F 3

$$$$
=
 OpenBabel11042416503D

 29 35  0  0  1  0  0  0  0  0999 V2000
  190.8820  173.7230  142.4180 C   0  0  1  0  0  3  0  0  0  0  0  0
  190.1420  174.3710  144.4550 C   0  0  1  0  0  3  0  0  0  0  0  0
  188.4450  177.3340  143.5690 O   0  0  0  0  0  0  0  0  0  0  0  0
  187.3600  175.5330  142.3580 C   0  0  2  0  0  3  0  0  0  0  0  0
  188.8230  172.7020  140.7480 C   0  0  0  0  0  2  0  0  0  0  0  0
  188.3630  174.8510  141.4320 C   0  0  2  0  0  0  0  0  0  0  0  0
  188.2430  174.8390  139.9200 C   0  0  0  0  0  2  0  0  0  0  0  0
  188.6030  173.5280  141.9440 N   0  0  2  0  0  0  0  0  0  0  0  0
  189.5950  175.3420  143.4140 C   0  0  1  0  0  3  0  0  0  0  0  0
  186.5350  176.6870  141.7700 C   0  0  0  0  0  2  0  0  0  0  0  0
  189.6840  174.5820  142.0980 C   0  0  1  0  0  0  0  0  0  0  0  0
  187.6520  176.8160  144.6000 C   0  0  1  0  0  3  0  0  0  0  0  0
  185.8300  177.5250  142.8590 C   0  0  1  0  0  3  0  0  0  0  0  0
  186.1600  177.1190  144.3170 C   0  0  0  0  0  2  0  0  0  0  0  0
  188.2190  175.9350  143.5480 C   0  0  1  0  0  0  0  0  0  0  0  0
  191.0700  173.5840  143.6840 N   0  0  0  0  0  2  0  0  0  0  0  0
  188.2560  173.3970  139.5280 C   0  0  0  0  0  2  0  0  0  0  0  0
  186.1500  178.8710  142.6770 O   0  0  0  0  0  1  0  0  0  0  0  0
  194.1220  173.1130  140.3280 C   0  0  0  0  0  1  0  0  0  0  0  0
  191.8570  173.9050  140.2540 O   0  0  0  0  0  0  0  0  0  0  0  0
  191.7790  173.0780  141.3930 C   0  0  1  0  0  3  0  0  0  0  0  0
  193.3210  175.2060  141.6730 C   0  0  0  0  0  1  0  0  0  0  0  0
  193.0100  173.8490  141.0540 C   0  0  0  0  0  0  0  0  0  0  0  0
  192.0920  175.3150  145.4730 O   0  0  0  0  0  0  0  0  0  0  0  0
  190.5080  176.8390  147.3230 C   0  0  0  0  0  1  0  0  0  0  0  0
  190.8480  175.1080  145.5520 C   0  0  0  0  0  0  0  0  0  0  0  0
  190.1130  175.5910  146.6850 N   0  0  0  0  0  0  0  0  0  0  0  0
  189.2120  174.7120  147.4100 C   0  0  0  0  0  2  0  0  0  0  0  0
  187.9580  175.2850  147.5090 F   0  0  0  0  0  0  0  0  0  0  0  0
  1 16  1  1  0  0  0
  2 26  1  1  0  0  0
  3 12  1  0  0  0  0
  4 10  1  6  0  0  0
  4 15  1  0  0  0  0
  6  7  1  6  0  0  0
  6  8  1  0  0  0  0
  6 11  1  0  0  0  0
  6  4  1  0  0  0  0
  8  5  1  6  0  0  0
  8 11  1  0  0  0  0
  9 15  1  0  0  0  0
  9  2  1  0  0  0  0
 10 13  1  0  0  0  0
 11  1  1  0  0  0  0
 11  9  1  0  0  0  0
 13 14  1  0  0  0  0
 14 12  1  0  0  0  0
 15  3  1  0  0  0  0
 15 12  1  0  0  0  0
 16  2  1  0  0  0  0
 17  7  1  0  0  0  0
 17  5  1  0  0  0  0
 18 13  1  0  0  0  0
 19 23  1  0  0  0  0
 20 23  1  0  0  0  0
 20 21  1  0  0  0  0
 21  1  1  0  0  0  0
 23 21  1  0  0  0  0
 23 22  1  0  0  0  0
 24 26  2  0  0  0  0
 26 27  1  0  0  0  0
 27 25  1  0  0  0  0
 27 28  1  0  0  0  0
 28 29  1  0  0  0  0
M  END
>  <MODEL>
9

>  <REMARK>
 VINA RESULT:      -6.8      2.304      5.619
  Name = 
  3 active torsions:
  status: ('A' for Active; 'I' for Inactive)
    1  A    between atoms: C_1  and  C_21
    2  A    between atoms: C_2  and  C_13
    3  A    between atoms: C_8  and  N_25
                            x       y       z     vdW  Elec       q    Type
                         _______ _______ _______ _____ _____    ______ ____

>  <TORSDO>
F 3

$$$$
