=
 OpenBabel11042417093D

 38 41  0  0  1  0  0  0  0  0999 V2000
  191.4440  174.9160  142.4530 C   0  0  0  0  0  0  0  0  0  0  0  0
  189.4990  172.3950  139.1490 C   0  0  0  0  0  0  0  0  0  0  0  0
  191.9630  173.9820  141.4920 N   0  0  0  0  0  0  0  0  0  0  0  0
  188.4170  173.9130  140.7310 C   0  0  0  0  0  3  0  0  0  0  0  0
  190.0050  175.0300  142.3730 N   0  0  0  0  0  0  0  0  0  0  0  0
  194.5500  174.9000  145.4260 S   0  0  0  0  0  0  0  0  0  0  0  0
  193.7200  175.6940  142.8720 C   0  0  0  0  0  0  0  0  0  0  0  0
  195.9690  175.6680  143.0390 C   0  0  0  0  0  0  0  0  0  0  0  0
  189.6720  174.1510  141.2990 C   0  0  0  0  0  0  0  0  0  0  0  0
  191.7070  175.7530  146.2930 C   0  0  0  0  0  2  0  0  0  0  0  0
  192.8880  176.4810  146.9350 C   0  0  0  0  0  2  0  0  0  0  0  0
  191.0020  176.5980  145.2400 C   0  0  0  0  0  2  0  0  0  0  0  0
  194.2720  176.0710  141.5330 C   0  0  0  0  0  3  0  0  0  0  0  0
  195.7480  175.9860  141.7740 C   0  0  0  0  0  3  0  0  0  0  0  0
  190.8000  173.5500  140.8040 C   0  0  0  0  0  0  0  0  0  0  0  0
  197.5650  175.4290  143.7360 Cl  0  0  0  0  0  0  0  0  0  0  0  0
  190.7530  172.6690  139.7250 C   0  0  0  0  0  3  0  0  0  0  0  0
  194.7110  175.4670  143.7290 C   0  0  2  0  0  3  0  0  0  0  0  0
  191.8100  176.7580  144.0350 N   0  0  0  0  0  2  0  0  0  0  0  0
  194.0990  176.5570  146.0140 C   0  0  0  0  0  2  0  0  0  0  0  0
  192.2760  175.6950  143.1870 C   0  0  1  0  0  3  0  0  0  0  0  0
  188.3390  173.0220  139.6530 C   0  0  0  0  0  3  0  0  0  0  0  0
  187.8470  175.8830  143.1030 C   0  0  2  0  0  3  0  0  0  0  0  0
  189.1190  175.5520  143.3730 C   0  0  0  0  0  2  0  0  0  0  0  0
  188.3010  176.8040  143.1350 C   0  0  0  0  0  1  0  0  0  0  0  0
  186.7550  176.4590  143.1700 C   0  0  0  0  0  2  0  0  0  0  0  0
  185.9940  177.2430  142.1170 C   0  0  0  0  0  2  0  0  0  0  0  0
  186.0040  178.6600  142.4490 N   0  0  0  0  0  2  0  0  0  0  0  0
  184.5000  178.3430  144.4030 N   0  0  0  0  0  2  0  0  0  0  0  0
  185.4070  179.1600  143.6450 C   0  0  0  0  0  0  0  0  0  0  0  0
  185.6550  180.3420  144.0060 O   0  0  0  0  0  0  0  0  0  0  0  0
  183.8470  178.7980  145.6270 C   0  0  0  0  0  2  0  0  0  0  0  0
  184.5100  178.1890  146.8560 C   0  0  2  0  0  3  0  0  0  0  0  0
  185.7770  179.3000  147.4450 Cl  0  0  0  0  0  0  0  0  0  0  0  0
  185.1250  176.8360  146.5150 C   0  0  0  0  0  2  0  0  0  0  0  0
  186.5720  176.7970  146.9640 C   0  0  0  0  0  1  0  0  0  0  0  0
  189.3770  171.4900  138.0470 N   0  0  0  0  0  2  0  0  0  0  0  0
  189.9160  171.7720  136.7250 C   0  0  0  0  0  1  0  0  0  0  0  0
  2 22  2  0  0  0  0
  2 17  1  0  0  0  0
  3  1  2  0  0  0  0
  4  9  2  0  0  0  0
  5  1  1  0  0  0  0
  5 24  1  0  0  0  0
  6 20  1  0  0  0  0
  7 21  1  0  0  0  0
  8 18  1  0  0  0  0
  8 16  1  0  0  0  0
  9  5  1  0  0  0  0
 10 11  1  0  0  0  0
 12 10  1  0  0  0  0
 13 14  1  0  0  0  0
 13  7  2  0  0  0  0
 14  8  2  0  0  0  0
 15  9  1  0  0  0  0
 15  3  1  0  0  0  0
 17 15  2  0  0  0  0
 18  7  1  6  0  0  0
 18  6  1  0  0  0  0
 19 12  1  0  0  0  0
 20 11  1  0  0  0  0
 21  1  1  6  0  0  0
 21 19  1  0  0  0  0
 22  4  1  0  0  0  0
 23 25  1  6  0  0  0
 23 26  1  0  0  0  0
 23 24  1  0  0  0  0
 27 28  1  0  0  0  0
 27 26  1  0  0  0  0
 28 30  1  0  0  0  0
 29 32  1  0  0  0  0
 30 31  2  0  0  0  0
 30 29  1  0  0  0  0
 32 33  1  0  0  0  0
 33 34  1  6  0  0  0
 35 33  1  0  0  0  0
 35 36  1  0  0  0  0
 37  2  1  0  0  0  0
 38 37  1  0  0  0  0
M  END
>  <MODEL>
1

>  <REMARK>
 VINA RESULT:      -8.2      0.000      0.000
  Name = 
  9 active torsions:
  status: ('A' for Active; 'I' for Inactive)
    1  A    between atoms: C_2  and  N_17
    2  A    between atoms: C_6  and  C_15
    3  A    between atoms: C_7  and  N_8
    4  A    between atoms: C_7  and  C_23
    5  A    between atoms: C_15  and  C_25
    6  A    between atoms: N_19  and  C_38
    7  A    between atoms: C_23  and  C_29
    8  A    between atoms: C_25  and  N_28
    9  A    between atoms: C_29  and  C_38
                            x       y       z     vdW  Elec       q    Type
                         _______ _______ _______ _____ _____    ______ ____

>  <TORSDO>
F 9

$$$$
=
 OpenBabel11042417093D

 38 41  0  0  1  0  0  0  0  0999 V2000
  190.2480  173.8430  141.9140 C   0  0  0  0  0  0  0  0  0  0  0  0
  191.8890  176.0970  145.5600 C   0  0  0  0  0  0  0  0  0  0  0  0
  191.3640  173.6180  142.7920 N   0  0  0  0  0  0  0  0  0  0  0  0
  189.9750  176.6800  144.1540 C   0  0  0  0  0  3  0  0  0  0  0  0
  189.5440  175.0640  142.2390 N   0  0  0  0  0  0  0  0  0  0  0  0
  191.4120  171.5760  138.4510 S   0  0  0  0  0  0  0  0  0  0  0  0
  190.4790  171.5560  141.0920 C   0  0  0  0  0  0  0  0  0  0  0  0
  191.4390  169.5920  140.5410 C   0  0  0  0  0  0  0  0  0  0  0  0
  190.2570  175.5550  143.3730 C   0  0  0  0  0  0  0  0  0  0  0  0
  189.3980  173.8910  138.0680 C   0  0  0  0  0  2  0  0  0  0  0  0
  189.2010  172.6360  137.2170 C   0  0  0  0  0  2  0  0  0  0  0  0
  188.3920  173.9860  139.2080 C   0  0  0  0  0  2  0  0  0  0  0  0
  190.4400  170.6830  142.3070 C   0  0  0  0  0  2  0  0  0  0  0  0
  191.1250  169.4440  141.8170 C   0  0  0  0  0  3  0  0  0  0  0  0
  191.3030  174.7220  143.6790 C   0  0  0  0  0  0  0  0  0  0  0  0
  192.2890  168.3860  139.5840 Cl  0  0  0  0  0  0  0  0  0  0  0  0
  192.1380  174.9580  144.7700 C   0  0  0  0  0  3  0  0  0  0  0  0
  191.0560  170.9110  140.0830 C   0  0  0  0  0  0  0  0  0  0  0  0
  188.6500  172.9990  140.2520 N   0  0  0  0  0  2  0  0  0  0  0  0
  189.6900  171.3730  137.9130 C   0  0  0  0  0  2  0  0  0  0  0  0
  189.8540  172.8950  141.0310 C   0  0  1  0  0  3  0  0  0  0  0  0
  190.8070  176.9480  145.2490 C   0  0  0  0  0  3  0  0  0  0  0  0
  187.9690  176.8720  141.8290 C   0  0  0  0  0  2  0  0  0  0  0  0
  188.6460  175.7980  141.3940 C   0  0  0  0  0  2  0  0  0  0  0  0
  187.2410  176.1470  141.8410 C   0  0  0  0  0  2  0  0  0  0  0  0
  186.5500  177.0920  140.7730 C   0  0  0  0  0  2  0  0  0  0  0  0
  186.0070  178.3500  141.4250 C   0  0  0  0  0  2  0  0  0  0  0  0
  184.5640  178.2460  141.5780 N   0  0  0  0  0  2  0  0  0  0  0  0
  184.6770  178.5240  144.0460 N   0  0  0  0  0  2  0  0  0  0  0  0
  183.9160  178.4860  142.8280 C   0  0  0  0  0  0  0  0  0  0  0  0
  182.6640  178.6260  142.8530 O   0  0  0  0  0  0  0  0  0  0  0  0
  184.0760  178.7530  145.3560 C   0  0  0  0  0  2  0  0  0  0  0  0
  184.6460  177.7930  146.3920 C   0  0  2  0  0  3  0  0  0  0  0  0
  185.5630  178.7260  147.6080 Cl  0  0  0  0  0  0  0  0  0  0  0  0
  185.5600  176.7710  145.7260 C   0  0  0  0  0  2  0  0  0  0  0  0
  186.9240  176.7870  146.3890 C   0  0  0  0  0  1  0  0  0  0  0  0
  192.7160  176.4050  146.6860 N   0  0  0  0  0  2  0  0  0  0  0  0
  194.1560  176.5860  146.5870 C   0  0  0  0  0  1  0  0  0  0  0  0
  1  5  1  0  0  0  0
  1  3  2  0  0  0  0
  2 37  1  0  0  0  0
  3 15  1  0  0  0  0
  4 22  2  0  0  0  0
  5  9  1  0  0  0  0
  6 18  1  0  0  0  0
  7 13  1  0  0  0  0
  8 14  2  0  0  0  0
  9 15  2  0  0  0  0
  9  4  1  0  0  0  0
 10 12  1  0  0  0  0
 11 20  1  0  0  0  0
 11 10  1  0  0  0  0
 12 19  1  0  0  0  0
 14 13  1  0  0  0  0
 15 17  1  0  0  0  0
 16  8  1  0  0  0  0
 17  2  2  0  0  0  0
 18  8  1  0  0  0  0
 18  7  2  0  0  0  0
 19 21  1  0  0  0  0
 20  6  1  0  0  0  0
 21  7  1  0  0  0  0
 21  1  1  1  0  0  0
 22  2  1  0  0  0  0
 23 25  1  0  0  0  0
 24 23  1  0  0  0  0
 24  5  1  0  0  0  0
 26 27  1  0  0  0  0
 26 25  1  0  0  0  0
 27 28  1  0  0  0  0
 28 30  1  0  0  0  0
 29 32  1  0  0  0  0
 30 31  2  0  0  0  0
 30 29  1  0  0  0  0
 32 33  1  0  0  0  0
 33 34  1  1  0  0  0
 35 36  1  0  0  0  0
 35 33  1  0  0  0  0
 38 37  1  0  0  0  0
M  END
>  <MODEL>
2

>  <REMARK>
 VINA RESULT:      -7.6      2.818      5.872
  Name = 
  9 active torsions:
  status: ('A' for Active; 'I' for Inactive)
    1  A    between atoms: C_2  and  N_17
    2  A    between atoms: C_6  and  C_15
    3  A    between atoms: C_7  and  N_8
    4  A    between atoms: C_7  and  C_23
    5  A    between atoms: C_15  and  C_25
    6  A    between atoms: N_19  and  C_38
    7  A    between atoms: C_23  and  C_29
    8  A    between atoms: C_25  and  N_28
    9  A    between atoms: C_29  and  C_38
                            x       y       z     vdW  Elec       q    Type
                         _______ _______ _______ _____ _____    ______ ____

>  <TORSDO>
F 9

$$$$
=
 OpenBabel11042417093D

 38 41  0  0  1  0  0  0  0  0999 V2000
  189.7640  174.4200  142.9340 C   0  0  0  0  0  0  0  0  0  0  0  0
  186.2720  177.2470  143.8730 C   0  0  0  0  0  0  0  0  0  0  0  0
  188.4230  174.5330  142.4270 N   0  0  0  0  0  0  0  0  0  0  0  0
  188.4930  177.1910  144.8940 C   0  0  0  0  0  3  0  0  0  0  0  0
  190.0240  175.3740  143.9890 N   0  0  0  0  0  0  0  0  0  0  0  0
  190.7310  170.3600  141.9000 S   0  0  0  0  0  0  0  0  0  0  0  0
  190.3230  172.9930  141.0340 C   0  0  0  0  0  0  0  0  0  0  0  0
  190.0680  171.5180  139.3470 C   0  0  0  0  0  0  0  0  0  0  0  0
  188.7960  176.0950  144.0800 C   0  0  0  0  0  0  0  0  0  0  0  0
  192.2790  171.6800  144.2300 C   0  0  0  0  0  2  0  0  0  0  0  0
  193.0520  170.7250  143.3210 C   0  0  0  0  0  2  0  0  0  0  0  0
  192.6100  173.1420  143.9590 C   0  0  0  0  0  2  0  0  0  0  0  0
  189.9380  173.7710  139.8150 C   0  0  0  0  0  3  0  0  0  0  0  0
  189.7740  172.6850  138.7970 C   0  0  0  0  0  3  0  0  0  0  0  0
  187.8820  175.6020  143.1860 C   0  0  0  0  0  0  0  0  0  0  0  0
  189.9710  169.9760  138.5090 Cl  0  0  0  0  0  0  0  0  0  0  0  0
  186.6100  176.1560  143.0500 C   0  0  0  0  0  3  0  0  0  0  0  0
  190.3950  171.6960  140.7460 C   0  0  2  0  0  3  0  0  0  0  0  0
  192.0650  173.6010  142.6860 N   0  0  0  0  0  2  0  0  0  0  0  0
  192.5130  170.7070  141.8970 C   0  0  0  0  0  2  0  0  0  0  0  0
  190.6730  173.6210  142.3250 C   0  0  1  0  0  3  0  0  0  0  0  0
  187.2170  177.7600  144.7870 C   0  0  0  0  0  3  0  0  0  0  0  0
  191.3720  176.3670  145.7530 C   0  0  0  0  0  2  0  0  0  0  0  0
  191.0760  175.3240  144.9630 C   0  0  0  0  0  2  0  0  0  0  0  0
  192.1260  176.4110  145.0570 C   0  0  0  0  0  2  0  0  0  0  0  0
  192.7770  176.4160  146.5010 C   0  0  0  0  0  2  0  0  0  0  0  0
  194.2780  176.6210  146.4250 C   0  0  0  0  0  2  0  0  0  0  0  0
  194.9270  175.3850  146.0160 N   0  0  0  0  0  2  0  0  0  0  0  0
  195.9000  176.4210  143.9760 N   0  0  0  0  0  2  0  0  0  0  0  0
  195.8360  175.3360  144.9150 C   0  0  0  0  0  0  0  0  0  0  0  0
  196.5520  174.3120  144.7570 O   0  0  0  0  0  0  0  0  0  0  0  0
  196.7970  176.4290  142.8250 C   0  0  0  0  0  2  0  0  0  0  0  0
  196.0260  176.6840  141.5360 C   0  0  2  0  0  3  0  0  0  0  0  0
  194.3110  176.2590  141.7910 Cl  0  0  0  0  0  0  0  0  0  0  0  0
  196.6020  175.8500  140.3970 C   0  0  0  0  0  2  0  0  0  0  0  0
  195.4800  175.1870  139.6210 C   0  0  0  0  0  1  0  0  0  0  0  0
  184.9800  177.8550  143.7940 N   0  0  0  0  0  2  0  0  0  0  0  0
  184.7650  179.2850  143.9480 C   0  0  0  0  0  1  0  0  0  0  0  0
  1  5  1  0  0  0  0
  2 22  1  0  0  0  0
  3  1  2  0  0  0  0
  3 15  1  0  0  0  0
  5  9  1  0  0  0  0
  5 24  1  0  0  0  0
  7 21  1  0  0  0  0
  9  4  1  0  0  0  0
 11 10  1  0  0  0  0
 12 10  1  0  0  0  0
 13  7  2  0  0  0  0
 14  8  2  0  0  0  0
 14 13  1  0  0  0  0
 15  9  2  0  0  0  0
 16  8  1  0  0  0  0
 17 15  1  0  0  0  0
 17  2  2  0  0  0  0
 18  8  1  1  0  0  0
 18  7  1  0  0  0  0
 18  6  1  0  0  0  0
 19 12  1  0  0  0  0
 20  6  1  0  0  0  0
 20 11  1  0  0  0  0
 21 19  1  0  0  0  0
 21  1  1  6  0  0  0
 22  4  2  0  0  0  0
 24 23  1  0  0  0  0
 25 23  1  0  0  0  0
 25 26  1  0  0  0  0
 27 26  1  0  0  0  0
 28 27  1  0  0  0  0
 29 30  1  0  0  0  0
 30 28  1  0  0  0  0
 31 30  2  0  0  0  0
 32 29  1  0  0  0  0
 33 34  1  1  0  0  0
 33 32  1  0  0  0  0
 35 33  1  0  0  0  0
 36 35  1  0  0  0  0
 37  2  1  0  0  0  0
 37 38  1  0  0  0  0
M  END
>  <MODEL>
3

>  <REMARK>
 VINA RESULT:      -7.3      3.490      8.023
  Name = 
  9 active torsions:
  status: ('A' for Active; 'I' for Inactive)
    1  A    between atoms: C_2  and  N_17
    2  A    between atoms: C_6  and  C_15
    3  A    between atoms: C_7  and  N_8
    4  A    between atoms: C_7  and  C_23
    5  A    between atoms: C_15  and  C_25
    6  A    between atoms: N_19  and  C_38
    7  A    between atoms: C_23  and  C_29
    8  A    between atoms: C_25  and  N_28
    9  A    between atoms: C_29  and  C_38
                            x       y       z     vdW  Elec       q    Type
                         _______ _______ _______ _____ _____    ______ ____

>  <TORSDO>
F 9

$$$$
=
 OpenBabel11042417093D

 38 41  0  0  1  0  0  0  0  0999 V2000
  189.8070  174.4060  142.9330 C   0  0  0  0  0  0  0  0  0  0  0  0
  186.3160  177.2590  143.7920 C   0  0  0  0  0  0  0  0  0  0  0  0
  188.4700  174.5130  142.4130 N   0  0  0  0  0  0  0  0  0  0  0  0
  188.5280  177.2150  144.8320 C   0  0  0  0  0  3  0  0  0  0  0  0
  190.0610  175.3780  143.9720 N   0  0  0  0  0  0  0  0  0  0  0  0
  190.7710  170.3260  141.9800 S   0  0  0  0  0  0  0  0  0  0  0  0
  190.3770  172.9430  141.0640 C   0  0  0  0  0  0  0  0  0  0  0  0
  190.1320  171.4390  139.4010 C   0  0  0  0  0  0  0  0  0  0  0  0
  188.8340  176.1040  144.0410 C   0  0  0  0  0  0  0  0  0  0  0  0
  192.3030  171.6830  144.2980 C   0  0  0  0  0  2  0  0  0  0  0  0
  193.0820  170.7100  143.4130 C   0  0  0  0  0  2  0  0  0  0  0  0
  192.6410  173.1390  144.0040 C   0  0  0  0  0  2  0  0  0  0  0  0
  190.0040  173.7000  139.8280 C   0  0  0  0  0  3  0  0  0  0  0  0
  189.8460  172.5960  138.8270 C   0  0  0  0  0  3  0  0  0  0  0  0
  187.9260  175.5970  143.1480 C   0  0  0  0  0  0  0  0  0  0  0  0
  190.0370  169.8820  138.5900 Cl  0  0  0  0  0  0  0  0  0  0  0  0
  186.6570  176.1520  142.9910 C   0  0  0  0  0  3  0  0  0  0  0  0
  190.4480  171.6420  140.7990 C   0  0  2  0  0  3  0  0  0  0  0  0
  192.1080  173.5760  142.7180 N   0  0  0  0  0  2  0  0  0  0  0  0
  192.5540  170.6680  141.9850 C   0  0  0  0  0  2  0  0  0  0  0  0
  190.7190  173.5940  142.3460 C   0  0  1  0  0  3  0  0  0  0  0  0
  187.2550  177.7850  144.7050 C   0  0  0  0  0  3  0  0  0  0  0  0
  191.4310  176.4150  145.6940 C   0  0  0  0  0  2  0  0  0  0  0  0
  191.1050  175.3430  144.9560 C   0  0  0  0  0  2  0  0  0  0  0  0
  192.1900  176.3970  145.0010 C   0  0  0  0  0  2  0  0  0  0  0  0
  192.9980  176.2890  146.3610 C   0  0  0  0  0  2  0  0  0  0  0  0
  194.4930  176.2430  146.1080 C   0  0  0  0  0  2  0  0  0  0  0  0
  194.7550  176.2540  144.6760 N   0  0  0  0  0  2  0  0  0  0  0  0
  196.7520  174.7910  144.9000 N   0  0  0  0  0  2  0  0  0  0  0  0
  195.7550  175.4250  144.0840 C   0  0  0  0  0  0  0  0  0  0  0  0
  195.7740  175.2880  142.8310 O   0  0  0  0  0  0  0  0  0  0  0  0
  197.8080  173.9410  144.3570 C   0  0  0  0  0  2  0  0  0  0  0  0
  197.4850  172.4680  144.5720 C   0  0  2  0  0  3  0  0  0  0  0  0
  196.4810  171.8890  143.2150 Cl  0  0  0  0  0  0  0  0  0  0  0  0
  196.7410  172.2720  145.8880 C   0  0  0  0  0  2  0  0  0  0  0  0
  196.2600  170.8380  146.0020 C   0  0  0  0  0  1  0  0  0  0  0  0
  185.0250  177.8680  143.6910 N   0  0  0  0  0  2  0  0  0  0  0  0
  184.3680  178.5230  144.8120 C   0  0  0  0  0  1  0  0  0  0  0  0
  1  5  1  0  0  0  0
  2 22  1  0  0  0  0
  3  1  2  0  0  0  0
  3 15  1  0  0  0  0
  5  9  1  0  0  0  0
  5 24  1  0  0  0  0
  6 20  1  0  0  0  0
  7 21  1  0  0  0  0
  9  4  1  0  0  0  0
 11 10  1  0  0  0  0
 12 10  1  0  0  0  0
 13  7  2  0  0  0  0
 14  8  2  0  0  0  0
 14 13  1  0  0  0  0
 15  9  2  0  0  0  0
 16  8  1  0  0  0  0
 17 15  1  0  0  0  0
 17  2  2  0  0  0  0
 18  8  1  1  0  0  0
 18  7  1  0  0  0  0
 18  6  1  0  0  0  0
 19 12  1  0  0  0  0
 20 11  1  0  0  0  0
 21 19  1  0  0  0  0
 21  1  1  6  0  0  0
 22  4  2  0  0  0  0
 24 23  1  0  0  0  0
 25 23  1  0  0  0  0
 25 26  1  0  0  0  0
 27 26  1  0  0  0  0
 28 27  1  0  0  0  0
 30 28  1  0  0  0  0
 30 29  1  0  0  0  0
 31 30  2  0  0  0  0
 32 33  1  0  0  0  0
 32 29  1  0  0  0  0
 33 34  1  6  0  0  0
 33 35  1  0  0  0  0
 35 36  1  0  0  0  0
 37  2  1  0  0  0  0
 37 38  1  0  0  0  0
M  END
>  <MODEL>
4

>  <REMARK>
 VINA RESULT:      -7.3      3.636      8.217
  Name = 
  9 active torsions:
  status: ('A' for Active; 'I' for Inactive)
    1  A    between atoms: C_2  and  N_17
    2  A    between atoms: C_6  and  C_15
    3  A    between atoms: C_7  and  N_8
    4  A    between atoms: C_7  and  C_23
    5  A    between atoms: C_15  and  C_25
    6  A    between atoms: N_19  and  C_38
    7  A    between atoms: C_23  and  C_29
    8  A    between atoms: C_25  and  N_28
    9  A    between atoms: C_29  and  C_38
                            x       y       z     vdW  Elec       q    Type
                         _______ _______ _______ _____ _____    ______ ____

>  <TORSDO>
F 9

$$$$
=
 OpenBabel11042417093D

 38 41  0  0  1  0  0  0  0  0999 V2000
  191.2150  175.3990  142.2850 C   0  0  0  0  0  0  0  0  0  0  0  0
  187.4570  177.8490  143.2540 C   0  0  0  0  0  0  0  0  0  0  0  0
  191.0080  176.7390  142.7630 N   0  0  0  0  0  0  0  0  0  0  0  0
  187.5960  175.5640  142.3950 C   0  0  0  0  0  3  0  0  0  0  0  0
  189.9650  174.7230  142.0160 N   0  0  0  0  0  0  0  0  0  0  0  0
  195.1860  175.6740  140.6600 S   0  0  0  0  0  0  0  0  0  0  0  0
  193.5610  175.5670  142.9380 C   0  0  0  0  0  0  0  0  0  0  0  0
  195.5700  176.4830  143.3980 C   0  0  0  0  0  0  0  0  0  0  0  0
  188.9880  175.6960  142.3830 C   0  0  0  0  0  0  0  0  0  0  0  0
  193.3230  173.4510  139.5880 C   0  0  0  0  0  2  0  0  0  0  0  0
  194.8070  173.1170  139.7350 C   0  0  0  0  0  2  0  0  0  0  0  0
  192.4720  172.8210  140.6830 C   0  0  0  0  0  2  0  0  0  0  0  0
  193.5520  175.9620  144.3820 C   0  0  0  0  0  2  0  0  0  0  0  0
  194.9110  176.5730  144.5410 C   0  0  0  0  0  3  0  0  0  0  0  0
  189.5950  176.8510  142.8040 C   0  0  0  0  0  0  0  0  0  0  0  0
  197.1920  177.1100  143.1380 Cl  0  0  0  0  0  0  0  0  0  0  0  0
  188.8610  177.9480  143.2520 C   0  0  0  0  0  3  0  0  0  0  0  0
  194.7320  175.8720  142.3870 C   0  0  0  0  0  0  0  0  0  0  0  0
  192.6870  173.4580  141.9790 N   0  0  0  0  0  2  0  0  0  0  0  0
  195.4730  173.8930  140.8630 C   0  0  0  0  0  2  0  0  0  0  0  0
  192.4500  174.8430  142.2850 C   0  0  1  0  0  3  0  0  0  0  0  0
  186.8330  176.6560  142.8290 C   0  0  0  0  0  3  0  0  0  0  0  0
  188.5520  173.0300  140.9910 C   0  0  0  0  0  2  0  0  0  0  0  0
  189.7670  173.5570  141.2030 C   0  0  0  0  0  2  0  0  0  0  0  0
  188.9430  172.3820  141.6860 C   0  0  0  0  0  2  0  0  0  0  0  0
  189.7830  171.5140  142.7120 C   0  0  0  0  0  2  0  0  0  0  0  0
  189.5610  171.9810  144.1380 C   0  0  0  0  0  2  0  0  0  0  0  0
  190.7100  172.7500  144.5930 N   0  0  0  0  0  2  0  0  0  0  0  0
  189.3170  174.2220  146.0320 N   0  0  0  0  0  2  0  0  0  0  0  0
  190.6030  173.7290  145.6260 C   0  0  0  0  0  0  0  0  0  0  0  0
  191.6550  174.1840  146.1510 O   0  0  0  0  0  0  0  0  0  0  0  0
  189.1390  175.2310  147.0720 C   0  0  0  0  0  2  0  0  0  0  0  0
  188.5380  176.5070  146.4970 C   0  0  2  0  0  3  0  0  0  0  0  0
  189.3240  177.9160  147.2630 Cl  0  0  0  0  0  0  0  0  0  0  0  0
  187.0360  176.5500  146.7500 C   0  0  0  0  0  2  0  0  0  0  0  0
  186.6230  177.9450  147.1800 C   0  0  0  0  0  1  0  0  0  0  0  0
  186.6440  178.9420  143.6890 N   0  0  0  0  0  2  0  0  0  0  0  0
  185.1940  178.8630  143.7900 C   0  0  0  0  0  1  0  0  0  0  0  0
  1  3  2  0  0  0  0
  2 37  1  0  0  0  0
  3 15  1  0  0  0  0
  4 22  1  0  0  0  0
  5  1  1  0  0  0  0
  5  9  1  0  0  0  0
  6 20  1  0  0  0  0
  6 18  1  0  0  0  0
  7 13  1  0  0  0  0
  8 14  2  0  0  0  0
  9  4  2  0  0  0  0
  9 15  1  0  0  0  0
 10 11  1  0  0  0  0
 10 12  1  0  0  0  0
 11 20  1  0  0  0  0
 12 19  1  0  0  0  0
 13 14  1  0  0  0  0
 15 17  2  0  0  0  0
 16  8  1  0  0  0  0
 17  2  1  0  0  0  0
 18  7  2  0  0  0  0
 18  8  1  0  0  0  0
 19 21  1  0  0  0  0
 21  1  1  1  0  0  0
 21  7  1  0  0  0  0
 22  2  2  0  0  0  0
 23 24  1  0  0  0  0
 23 25  1  0  0  0  0
 24  5  1  0  0  0  0
 25 26  1  0  0  0  0
 26 27  1  0  0  0  0
 27 28  1  0  0  0  0
 28 30  1  0  0  0  0
 29 32  1  0  0  0  0
 30 29  1  0  0  0  0
 30 31  2  0  0  0  0
 33 35  1  0  0  0  0
 33 32  1  0  0  0  0
 33 34  1  1  0  0  0
 35 36  1  0  0  0  0
 37 38  1  0  0  0  0
M  END
>  <MODEL>
5

>  <REMARK>
 VINA RESULT:      -6.8      2.523      5.330
  Name = 
  9 active torsions:
  status: ('A' for Active; 'I' for Inactive)
    1  A    between atoms: C_2  and  N_17
    2  A    between atoms: C_6  and  C_15
    3  A    between atoms: C_7  and  N_8
    4  A    between atoms: C_7  and  C_23
    5  A    between atoms: C_15  and  C_25
    6  A    between atoms: N_19  and  C_38
    7  A    between atoms: C_23  and  C_29
    8  A    between atoms: C_25  and  N_28
    9  A    between atoms: C_29  and  C_38
                            x       y       z     vdW  Elec       q    Type
                         _______ _______ _______ _____ _____    ______ ____

>  <TORSDO>
F 9

$$$$
=
 OpenBabel11042417093D

 38 41  0  0  1  0  0  0  0  0999 V2000
  191.5990  172.4490  142.5750 C   0  0  0  0  0  0  0  0  0  0  0  0
  195.4110  172.4850  145.1290 C   0  0  0  0  0  0  0  0  0  0  0  0
  192.8680  171.7840  142.4610 N   0  0  0  0  0  0  0  0  0  0  0  0
  193.3440  173.7440  145.4750 C   0  0  0  0  0  3  0  0  0  0  0  0
  191.5590  173.3450  143.7090 N   0  0  0  0  0  0  0  0  0  0  0  0
  190.1610  172.2510  138.5270 S   0  0  0  0  0  0  0  0  0  0  0  0
  190.6790  170.9010  140.9270 C   0  0  0  0  0  0  0  0  0  0  0  0
  190.5880  169.4770  139.1800 C   0  0  0  0  0  0  0  0  0  0  0  0
  192.8460  173.1720  144.3010 C   0  0  0  0  0  0  0  0  0  0  0  0
  189.0460  174.4760  140.3630 C   0  0  0  0  0  2  0  0  0  0  0  0
  188.0820  173.8380  139.3620 C   0  0  0  0  0  2  0  0  0  0  0  0
  188.8090  173.9940  141.7890 C   0  0  0  0  0  2  0  0  0  0  0  0
  190.9690  169.5300  141.4520 C   0  0  0  0  0  2  0  0  0  0  0  0
  190.9070  168.7030  140.2040 C   0  0  0  0  0  3  0  0  0  0  0  0
  193.5920  172.2800  143.5750 C   0  0  0  0  0  0  0  0  0  0  0  0
  190.4430  168.9140  137.5210 Cl  0  0  0  0  0  0  0  0  0  0  0  0
  194.8780  171.9070  143.9610 C   0  0  0  0  0  3  0  0  0  0  0  0
  190.4590  170.8520  139.6160 C   0  0  0  0  0  0  0  0  0  0  0  0
  189.2230  172.6070  141.9750 N   0  0  0  0  0  2  0  0  0  0  0  0
  188.4300  172.3870  139.0560 C   0  0  0  0  0  2  0  0  0  0  0  0
  190.5530  172.0950  141.7890 C   0  0  1  0  0  3  0  0  0  0  0  0
  194.6390  173.3970  145.8800 C   0  0  0  0  0  3  0  0  0  0  0  0
  190.5680  175.0770  145.0990 C   0  0  0  0  0  2  0  0  0  0  0  0
  190.6410  174.4260  143.9290 C   0  0  0  0  0  2  0  0  0  0  0  0
  189.7410  174.4690  145.1460 C   0  0  0  0  0  2  0  0  0  0  0  0
  188.7230  175.6770  145.0280 C   0  0  0  0  0  2  0  0  0  0  0  0
  188.5590  176.3890  146.3570 C   0  0  0  0  0  2  0  0  0  0  0  0
  187.1620  176.3620  146.7650 N   0  0  0  0  0  2  0  0  0  0  0  0
  186.5910  178.3570  145.3960 N   0  0  0  0  0  2  0  0  0  0  0  0
  186.1860  177.2210  146.1760 C   0  0  0  0  0  0  0  0  0  0  0  0
  184.9640  176.9910  146.3810 O   0  0  0  0  0  0  0  0  0  0  0  0
  185.6450  179.2800  144.7770 C   0  0  0  0  0  2  0  0  0  0  0  0
  185.5910  179.0740  143.2690 C   0  0  2  0  0  3  0  0  0  0  0  0
  184.1260  178.1380  142.8620 Cl  0  0  0  0  0  0  0  0  0  0  0  0
  186.8320  178.3290  142.7880 C   0  0  0  0  0  2  0  0  0  0  0  0
  186.4240  177.1120  141.9790 C   0  0  0  0  0  1  0  0  0  0  0  0
  196.7300  172.1580  145.5750 N   0  0  0  0  0  2  0  0  0  0  0  0
  197.2440  170.7960  145.6020 C   0  0  0  0  0  1  0  0  0  0  0  0
  1  5  1  0  0  0  0
  2 37  1  0  0  0  0
  2 22  1  0  0  0  0
  3  1  2  0  0  0  0
  3 15  1  0  0  0  0
  4 22  2  0  0  0  0
  5 24  1  0  0  0  0
  5  9  1  0  0  0  0
  6 20  1  0  0  0  0
  6 18  1  0  0  0  0
  7 13  1  0  0  0  0
  7 21  1  0  0  0  0
  8 18  1  0  0  0  0
  8 14  2  0  0  0  0
  9  4  1  0  0  0  0
 10 12  1  0  0  0  0
 11 10  1  0  0  0  0
 12 19  1  0  0  0  0
 14 13  1  0  0  0  0
 15 17  1  0  0  0  0
 15  9  2  0  0  0  0
 16  8  1  0  0  0  0
 17  2  2  0  0  0  0
 18  7  2  0  0  0  0
 20 11  1  0  0  0  0
 21 19  1  0  0  0  0
 21  1  1  1  0  0  0
 23 25  1  0  0  0  0
 24 23  1  0  0  0  0
 26 25  1  0  0  0  0
 26 27  1  0  0  0  0
 27 28  1  0  0  0  0
 29 30  1  0  0  0  0
 30 31  2  0  0  0  0
 30 28  1  0  0  0  0
 32 29  1  0  0  0  0
 33 34  1  1  0  0  0
 33 32  1  0  0  0  0
 35 33  1  0  0  0  0
 36 35  1  0  0  0  0
 37 38  1  0  0  0  0
M  END
>  <MODEL>
6

>  <REMARK>
 VINA RESULT:      -6.7      3.641      6.391
  Name = 
  9 active torsions:
  status: ('A' for Active; 'I' for Inactive)
    1  A    between atoms: C_2  and  N_17
    2  A    between atoms: C_6  and  C_15
    3  A    between atoms: C_7  and  N_8
    4  A    between atoms: C_7  and  C_23
    5  A    between atoms: C_15  and  C_25
    6  A    between atoms: N_19  and  C_38
    7  A    between atoms: C_23  and  C_29
    8  A    between atoms: C_25  and  N_28
    9  A    between atoms: C_29  and  C_38
                            x       y       z     vdW  Elec       q    Type
                         _______ _______ _______ _____ _____    ______ ____

>  <TORSDO>
F 9

$$$$
=
 OpenBabel11042417093D

 38 41  0  0  1  0  0  0  0  0999 V2000
  190.4680  174.0530  141.5020 C   0  0  0  0  0  0  0  0  0  0  0  0
  187.4030  177.4620  141.7180 C   0  0  0  0  0  0  0  0  0  0  0  0
  189.1750  174.2560  140.9050 N   0  0  0  0  0  0  0  0  0  0  0  0
  189.5570  177.2870  142.8620 C   0  0  0  0  0  3  0  0  0  0  0  0
  190.8310  175.1390  142.3840 N   0  0  0  0  0  0  0  0  0  0  0  0
  190.8580  169.7780  141.2630 S   0  0  0  0  0  0  0  0  0  0  0  0
  190.8710  172.2370  139.9210 C   0  0  0  0  0  0  0  0  0  0  0  0
  190.4560  170.5270  138.5100 C   0  0  0  0  0  0  0  0  0  0  0  0
  189.7210  176.0290  142.2740 C   0  0  0  0  0  0  0  0  0  0  0  0
  192.5070  171.2750  143.4080 C   0  0  0  0  0  2  0  0  0  0  0  0
  193.1610  170.0710  142.7290 C   0  0  0  0  0  2  0  0  0  0  0  0
  193.0600  172.6010  142.9020 C   0  0  0  0  0  2  0  0  0  0  0  0
  190.6450  172.8230  138.5630 C   0  0  0  0  0  3  0  0  0  0  0  0
  190.3560  171.6020  137.7450 C   0  0  0  0  0  3  0  0  0  0  0  0
  188.7730  175.5110  141.4290 C   0  0  0  0  0  0  0  0  0  0  0  0
  190.1590  168.8860  137.9550 Cl  0  0  0  0  0  0  0  0  0  0  0  0
  187.6030  176.2020  141.1230 C   0  0  0  0  0  3  0  0  0  0  0  0
  190.7610  170.9120  139.8720 C   0  0  2  0  0  3  0  0  0  0  0  0
  192.6300  172.8900  141.5380 N   0  0  0  0  0  2  0  0  0  0  0  0
  192.6720  169.8670  141.3020 C   0  0  0  0  0  2  0  0  0  0  0  0
  191.2680  173.0370  141.0980 C   0  0  1  0  0  3  0  0  0  0  0  0
  188.3830  177.9980  142.5810 C   0  0  0  0  0  3  0  0  0  0  0  0
  191.6000  174.6140  144.6310 C   0  0  1  0  0  3  0  0  0  0  0  0
  191.8320  175.1230  143.4120 C   0  0  0  0  0  2  0  0  0  0  0  0
  191.5430  175.6240  144.8110 C   0  0  0  0  0  1  0  0  0  0  0  0
  190.9600  174.4490  145.7000 C   0  0  0  0  0  2  0  0  0  0  0  0
  189.6670  174.8640  146.3780 C   0  0  0  0  0  2  0  0  0  0  0  0
  189.6430  176.3070  146.5590 N   0  0  0  0  0  2  0  0  0  0  0  0
  187.2020  176.3370  147.0240 N   0  0  0  0  0  2  0  0  0  0  0  0
  188.4800  176.9920  147.0240 C   0  0  0  0  0  0  0  0  0  0  0  0
  188.5830  178.1920  147.3970 O   0  0  0  0  0  0  0  0  0  0  0  0
  185.9730  176.9840  147.4750 C   0  0  0  0  0  2  0  0  0  0  0  0
  185.1630  177.4980  146.2920 C   0  0  2  0  0  3  0  0  0  0  0  0
  185.7950  176.7640  144.7920 Cl  0  0  0  0  0  0  0  0  0  0  0  0
  185.2540  179.0170  146.2030 C   0  0  0  0  0  2  0  0  0  0  0  0
  185.7050  179.4290  144.8150 C   0  0  0  0  0  1  0  0  0  0  0  0
  186.2170  178.2190  141.4570 N   0  0  0  0  0  2  0  0  0  0  0  0
  185.3510  177.9690  140.3150 C   0  0  0  0  0  1  0  0  0  0  0  0
  1  5  1  0  0  0  0
  2 22  1  0  0  0  0
  3 15  1  0  0  0  0
  3  1  2  0  0  0  0
  5 24  1  0  0  0  0
  6 20  1  0  0  0  0
  7 21  1  0  0  0  0
  9  5  1  0  0  0  0
  9  4  1  0  0  0  0
 11 10  1  0  0  0  0
 12 10  1  0  0  0  0
 13  7  2  0  0  0  0
 14  8  2  0  0  0  0
 14 13  1  0  0  0  0
 15  9  2  0  0  0  0
 16  8  1  0  0  0  0
 17 15  1  0  0  0  0
 17  2  2  0  0  0  0
 18  8  1  1  0  0  0
 18  7  1  0  0  0  0
 18  6  1  0  0  0  0
 19 12  1  0  0  0  0
 20 11  1  0  0  0  0
 21  1  1  6  0  0  0
 21 19  1  0  0  0  0
 22  4  2  0  0  0  0
 23 25  1  1  0  0  0
 23 26  1  0  0  0  0
 24 23  1  0  0  0  0
 26 27  1  0  0  0  0
 27 28  1  0  0  0  0
 28 30  1  0  0  0  0
 29 30  1  0  0  0  0
 29 32  1  0  0  0  0
 30 31  2  0  0  0  0
 33 34  1  6  0  0  0
 33 32  1  0  0  0  0
 35 33  1  0  0  0  0
 36 35  1  0  0  0  0
 37  2  1  0  0  0  0
 38 37  1  0  0  0  0
M  END
>  <MODEL>
7

>  <REMARK>
 VINA RESULT:      -6.7      3.154      5.590
  Name = 
  9 active torsions:
  status: ('A' for Active; 'I' for Inactive)
    1  A    between atoms: C_2  and  N_17
    2  A    between atoms: C_6  and  C_15
    3  A    between atoms: C_7  and  N_8
    4  A    between atoms: C_7  and  C_23
    5  A    between atoms: C_15  and  C_25
    6  A    between atoms: N_19  and  C_38
    7  A    between atoms: C_23  and  C_29
    8  A    between atoms: C_25  and  N_28
    9  A    between atoms: C_29  and  C_38
                            x       y       z     vdW  Elec       q    Type
                         _______ _______ _______ _____ _____    ______ ____

>  <TORSDO>
F 9

$$$$
=
 OpenBabel11042417093D

 38 41  0  0  1  0  0  0  0  0999 V2000
  192.4990  173.9920  142.8870 C   0  0  0  0  0  0  0  0  0  0  0  0
  190.6380  176.0080  146.5660 C   0  0  0  0  0  0  0  0  0  0  0  0
  192.8300  175.1730  143.6380 N   0  0  0  0  0  0  0  0  0  0  0  0
  189.8850  173.9960  145.3980 C   0  0  0  0  0  3  0  0  0  0  0  0
  191.3010  173.3540  143.3870 N   0  0  0  0  0  0  0  0  0  0  0  0
  194.4480  174.7840  139.1380 S   0  0  0  0  0  0  0  0  0  0  0  0
  194.7010  174.0850  141.8380 C   0  0  0  0  0  0  0  0  0  0  0  0
  196.6230  174.9370  141.0220 C   0  0  0  0  0  0  0  0  0  0  0  0
  190.9360  174.1770  144.4930 C   0  0  0  0  0  0  0  0  0  0  0  0
  192.0670  172.8110  139.1550 C   0  0  0  0  0  2  0  0  0  0  0  0
  193.2300  172.5050  138.2110 C   0  0  0  0  0  2  0  0  0  0  0  0
  192.0610  171.9110  140.3840 C   0  0  0  0  0  2  0  0  0  0  0  0
  195.6850  174.1270  142.9650 C   0  0  0  0  0  2  0  0  0  0  0  0
  196.8850  174.7310  142.3010 C   0  0  0  0  0  3  0  0  0  0  0  0
  191.8140  175.2210  144.6260 C   0  0  0  0  0  0  0  0  0  0  0  0
  197.7490  175.6660  139.8850 Cl  0  0  0  0  0  0  0  0  0  0  0  0
  191.7010  176.1550  145.6540 C   0  0  0  0  0  3  0  0  0  0  0  0
  195.2590  174.5530  140.7250 C   0  0  0  0  0  0  0  0  0  0  0  0
  193.1480  172.2320  141.3030 N   0  0  0  0  0  2  0  0  0  0  0  0
  194.5630  173.0170  138.7390 C   0  0  0  0  0  2  0  0  0  0  0  0
  193.3510  173.4960  141.9580 C   0  0  1  0  0  3  0  0  0  0  0  0
  189.7390  174.9280  146.4340 C   0  0  0  0  0  3  0  0  0  0  0  0
  189.4850  172.7850  141.8730 C   0  0  1  0  0  3  0  0  0  0  0  0
  190.4720  172.4070  142.6980 C   0  0  0  0  0  2  0  0  0  0  0  0
  188.9620  172.5130  142.7140 C   0  0  0  0  0  1  0  0  0  0  0  0
  188.4840  173.6230  141.6890 C   0  0  0  0  0  2  0  0  0  0  0  0
  187.6860  174.7080  142.3880 C   0  0  0  0  0  2  0  0  0  0  0  0
  187.6310  175.8990  141.5530 N   0  0  0  0  0  2  0  0  0  0  0  0
  185.6680  176.8180  142.7720 N   0  0  0  0  0  2  0  0  0  0  0  0
  186.7520  176.9860  141.8440 C   0  0  0  0  0  0  0  0  0  0  0  0
  186.9160  178.0830  141.2460 O   0  0  0  0  0  0  0  0  0  0  0  0
  184.7280  177.8840  143.1040 C   0  0  0  0  0  2  0  0  0  0  0  0
  184.8170  178.2480  144.5810 C   0  0  2  0  0  3  0  0  0  0  0  0
  185.6920  179.7950  144.7470 Cl  0  0  0  0  0  0  0  0  0  0  0  0
  185.5450  177.1560  145.3560 C   0  0  0  0  0  2  0  0  0  0  0  0
  186.7450  177.7420  146.0750 C   0  0  0  0  0  1  0  0  0  0  0  0
  190.4550  176.9380  147.6380 N   0  0  0  0  0  2  0  0  0  0  0  0
  191.4780  177.2090  148.6370 C   0  0  0  0  0  1  0  0  0  0  0  0
  1  5  1  0  0  0  0
  1  3  2  0  0  0  0
  2 37  1  0  0  0  0
  3 15  1  0  0  0  0
  4 22  2  0  0  0  0
  5  9  1  0  0  0  0
  6 18  1  0  0  0  0
  7 21  1  0  0  0  0
  7 13  1  0  0  0  0
  8 14  2  0  0  0  0
  9 15  2  0  0  0  0
  9  4  1  0  0  0  0
 10 12  1  0  0  0  0
 11 20  1  0  0  0  0
 11 10  1  0  0  0  0
 12 19  1  0  0  0  0
 14 13  1  0  0  0  0
 15 17  1  0  0  0  0
 16  8  1  0  0  0  0
 17  2  2  0  0  0  0
 18  8  1  0  0  0  0
 18  7  2  0  0  0  0
 19 21  1  0  0  0  0
 20  6  1  0  0  0  0
 21  1  1  1  0  0  0
 22  2  1  0  0  0  0
 23 24  1  0  0  0  0
 23 25  1  1  0  0  0
 24  5  1  0  0  0  0
 26 23  1  0  0  0  0
 26 27  1  0  0  0  0
 28 30  1  0  0  0  0
 28 27  1  0  0  0  0
 29 32  1  0  0  0  0
 30 29  1  0  0  0  0
 31 30  2  0  0  0  0
 32 33  1  0  0  0  0
 33 34  1  6  0  0  0
 33 35  1  0  0  0  0
 35 36  1  0  0  0  0
 37 38  1  0  0  0  0
M  END
>  <MODEL>
8

>  <REMARK>
 VINA RESULT:      -6.6      2.386      5.268
  Name = 
  9 active torsions:
  status: ('A' for Active; 'I' for Inactive)
    1  A    between atoms: C_2  and  N_17
    2  A    between atoms: C_6  and  C_15
    3  A    between atoms: C_7  and  N_8
    4  A    between atoms: C_7  and  C_23
    5  A    between atoms: C_15  and  C_25
    6  A    between atoms: N_19  and  C_38
    7  A    between atoms: C_23  and  C_29
    8  A    between atoms: C_25  and  N_28
    9  A    between atoms: C_29  and  C_38
                            x       y       z     vdW  Elec       q    Type
                         _______ _______ _______ _____ _____    ______ ____

>  <TORSDO>
F 9

$$$$
=
 OpenBabel11042417093D

 38 41  0  0  1  0  0  0  0  0999 V2000
  192.7520  173.6930  142.3260 C   0  0  0  0  0  0  0  0  0  0  0  0
  192.0770  170.3700  139.2330 C   0  0  0  0  0  0  0  0  0  0  0  0
  193.6030  173.0660  141.3510 N   0  0  0  0  0  0  0  0  0  0  0  0
  190.4860  171.2770  140.8540 C   0  0  0  0  0  3  0  0  0  0  0  0
  191.4320  173.1040  142.3480 N   0  0  0  0  0  0  0  0  0  0  0  0
  195.6410  175.3210  145.0630 S   0  0  0  0  0  0  0  0  0  0  0  0
  194.3970  175.4810  142.5580 C   0  0  0  0  0  0  0  0  0  0  0  0
  196.3910  176.5370  142.5610 C   0  0  0  0  0  0  0  0  0  0  0  0
  191.5030  172.1150  141.3230 C   0  0  0  0  0  0  0  0  0  0  0  0
  192.7860  174.7670  146.1150 C   0  0  0  0  0  2  0  0  0  0  0  0
  193.5070  176.0040  146.6510 C   0  0  0  0  0  2  0  0  0  0  0  0
  191.7080  175.1150  145.0960 C   0  0  0  0  0  2  0  0  0  0  0  0
  194.6300  176.0000  141.1740 C   0  0  0  0  0  3  0  0  0  0  0  0
  195.9780  176.6410  141.3080 C   0  0  0  0  0  3  0  0  0  0  0  0
  192.7540  172.0950  140.7610 C   0  0  0  0  0  0  0  0  0  0  0  0
  197.9410  177.1250  143.1450 Cl  0  0  0  0  0  0  0  0  0  0  0  0
  193.0770  171.2390  139.7100 C   0  0  0  0  0  3  0  0  0  0  0  0
  195.4210  175.8010  143.3450 C   0  0  2  0  0  3  0  0  0  0  0  0
  192.2760  175.5730  143.8320 N   0  0  0  0  0  2  0  0  0  0  0  0
  194.4840  176.5950  145.6430 C   0  0  0  0  0  2  0  0  0  0  0  0
  193.1480  174.8130  142.9780 C   0  0  1  0  0  3  0  0  0  0  0  0
  190.7870  170.3970  139.8060 C   0  0  0  0  0  3  0  0  0  0  0  0
  189.1900  172.7900  143.2380 C   0  0  0  0  0  2  0  0  0  0  0  0
  190.4580  173.1980  143.3980 C   0  0  0  0  0  2  0  0  0  0  0  0
  189.0930  173.8100  143.1640 C   0  0  0  0  0  2  0  0  0  0  0  0
  189.2200  175.0810  142.2270 C   0  0  0  0  0  2  0  0  0  0  0  0
  188.0260  175.1990  141.2980 C   0  0  0  0  0  2  0  0  0  0  0  0
  187.6950  176.6010  141.0920 N   0  0  0  0  0  2  0  0  0  0  0  0
  186.1950  176.6700  143.0730 N   0  0  0  0  0  2  0  0  0  0  0  0
  186.9330  177.3460  142.0420 C   0  0  0  0  0  0  0  0  0  0  0  0
  186.8840  178.6010  141.9410 O   0  0  0  0  0  0  0  0  0  0  0  0
  185.3880  177.3700  144.0680 C   0  0  0  0  0  2  0  0  0  0  0  0
  186.2440  177.8250  145.2430 C   0  0  2  0  0  3  0  0  0  0  0  0
  187.3640  176.5070  145.6890 Cl  0  0  0  0  0  0  0  0  0  0  0  0
  185.3660  178.1830  146.4360 C   0  0  0  0  0  2  0  0  0  0  0  0
  184.0360  178.7310  145.9540 C   0  0  0  0  0  1  0  0  0  0  0  0
  192.3450  169.4560  138.1660 N   0  0  0  0  0  2  0  0  0  0  0  0
  192.5250  169.8800  136.7850 C   0  0  0  0  0  1  0  0  0  0  0  0
  1  5  1  0  0  0  0
  2 17  2  0  0  0  0
  2 22  1  0  0  0  0
  3  1  2  0  0  0  0
  4  9  1  0  0  0  0
  5 24  1  0  0  0  0
  6 20  1  0  0  0  0
  7 21  1  0  0  0  0
  8 16  1  0  0  0  0
  8 18  1  0  0  0  0
  9  5  1  0  0  0  0
 10 11  1  0  0  0  0
 12 10  1  0  0  0  0
 13 14  1  0  0  0  0
 13  7  2  0  0  0  0
 14  8  2  0  0  0  0
 15  9  2  0  0  0  0
 15  3  1  0  0  0  0
 17 15  1  0  0  0  0
 18  7  1  6  0  0  0
 18  6  1  0  0  0  0
 19 12  1  0  0  0  0
 20 11  1  0  0  0  0
 21  1  1  6  0  0  0
 21 19  1  0  0  0  0
 22  4  2  0  0  0  0
 23 24  1  0  0  0  0
 25 23  1  0  0  0  0
 26 25  1  0  0  0  0
 27 26  1  0  0  0  0
 28 27  1  0  0  0  0
 28 30  1  0  0  0  0
 29 32  1  0  0  0  0
 30 29  1  0  0  0  0
 31 30  2  0  0  0  0
 32 33  1  0  0  0  0
 33 34  1  1  0  0  0
 33 35  1  0  0  0  0
 36 35  1  0  0  0  0
 37  2  1  0  0  0  0
 38 37  1  0  0  0  0
M  END
>  <MODEL>
9

>  <REMARK>
 VINA RESULT:      -6.5      1.928      2.448
  Name = 
  9 active torsions:
  status: ('A' for Active; 'I' for Inactive)
    1  A    between atoms: C_2  and  N_17
    2  A    between atoms: C_6  and  C_15
    3  A    between atoms: C_7  and  N_8
    4  A    between atoms: C_7  and  C_23
    5  A    between atoms: C_15  and  C_25
    6  A    between atoms: N_19  and  C_38
    7  A    between atoms: C_23  and  C_29
    8  A    between atoms: C_25  and  N_28
    9  A    between atoms: C_29  and  C_38
                            x       y       z     vdW  Elec       q    Type
                         _______ _______ _______ _____ _____    ______ ____

>  <TORSDO>
F 9

$$$$
