=
 OpenBabel11042415053D

 33 37  0  0  1  0  0  0  0  0999 V2000
  189.6670  172.2510  138.7100 N   0  0  0  0  0  2  0  0  0  0  0  0
  191.1740  174.1280  144.7530 C   0  0  0  0  0  2  0  0  0  0  0  0
  189.5020  173.2410  140.8920 C   0  0  0  0  0  0  0  0  0  0  0  0
  190.2520  175.3060  145.0370 C   0  0  1  0  0  3  0  0  0  0  0  0
  190.6650  171.9470  143.1380 S   0  0  0  0  0  0  0  0  0  0  0  0
  189.4910  175.5200  143.7890 N   0  0  1  0  0  0  0  0  0  0  0  0
  189.1660  174.4590  141.7560 C   0  0  1  0  0  3  0  0  0  0  0  0
  189.2550  173.2730  139.5040 C   0  0  0  0  0  0  0  0  0  0  0  0
  188.6530  174.2470  138.9800 O   0  0  0  0  0  0  0  0  0  0  0  0
  187.6880  174.8400  141.6350 C   0  0  0  0  0  2  0  0  0  0  0  0
  186.0190  175.9200  142.8840 O   0  0  0  0  0  0  0  0  0  0  0  0
  187.2040  175.6420  142.8190 C   0  0  0  0  0  0  0  0  0  0  0  0
  190.7890  173.7300  143.3510 C   0  0  1  0  0  3  0  0  0  0  0  0
  190.3340  171.1900  139.2200 C   0  0  0  0  0  3  0  0  0  0  0  0
  189.4580  174.2600  143.1710 N   0  0  1  0  0  0  0  0  0  0  0  0
  190.2210  172.1250  141.3970 C   0  0  0  0  0  0  0  0  0  0  0  0
  190.6080  171.1360  140.5460 N   0  0  0  0  0  0  0  0  0  0  0  0
  188.1150  176.0220  143.9740 C   0  0  2  0  0  3  0  0  0  0  0  0
  189.3670  174.9810  146.2510 C   0  0  0  0  0  2  0  0  0  0  0  0
  190.0340  175.3570  147.5680 C   0  0  0  0  0  2  0  0  0  0  0  0
  190.3850  176.7080  147.5740 O   0  0  0  0  0  0  0  0  0  0  0  0
  191.6020  177.7580  149.1960 O   0  0  0  0  0  1  0  0  0  0  0  0
  191.6230  176.7610  148.2180 C   0  0  0  0  0  2  0  0  0  0  0  0
  188.1340  177.5420  144.1200 C   0  0  0  0  0  2  0  0  0  0  0  0
  185.1980  178.3180  147.5120 C   0  0  0  0  0  3  0  0  0  0  0  0
  186.5270  178.3950  147.5230 C   0  0  0  0  0  0  0  0  0  0  0  0
  185.9030  179.3510  143.2290 C   0  0  0  0  0  1  0  0  0  0  0  0
  185.8520  178.6350  144.5360 C   0  0  0  0  0  0  0  0  0  0  0  0
  184.4180  177.7480  146.3750 C   0  0  0  0  0  2  0  0  0  0  0  0
  187.0980  178.0350  145.0850 C   0  0  0  0  0  0  0  0  0  0  0  0
  187.1340  178.8320  148.6550 F   0  0  0  0  0  0  0  0  0  0  0  0
  184.6570  178.5190  145.1180 C   0  0  0  0  0  3  0  0  0  0  0  0
  187.3820  177.9620  146.3980 C   0  0  0  0  0  3  0  0  0  0  0  0
  1 14  1  0  0  0  0
  1  8  1  0  0  0  0
  2  4  1  0  0  0  0
  3 16  2  0  0  0  0
  3  7  1  0  0  0  0
  4 19  1  1  0  0  0
  5 13  1  0  0  0  0
  6 18  1  0  0  0  0
  6  4  1  0  0  0  0
  7 15  1  0  0  0  0
  8  3  1  0  0  0  0
  9  8  2  0  0  0  0
 10  7  1  0  0  0  0
 10 12  1  0  0  0  0
 12 11  2  0  0  0  0
 12 18  1  0  0  0  0
 13  2  1  0  0  0  0
 14 17  2  0  0  0  0
 15 13  1  0  0  0  0
 15  6  1  0  0  0  0
 16  5  1  0  0  0  0
 17 16  1  0  0  0  0
 18 24  1  0  0  0  0
 19 20  1  0  0  0  0
 20 21  1  0  0  0  0
 21 23  1  0  0  0  0
 23 22  1  0  0  0  0
 24 30  1  0  0  0  0
 25 26  2  0  0  0  0
 26 31  1  0  0  0  0
 27 28  1  0  0  0  0
 28 30  1  0  0  0  0
 28 32  2  0  0  0  0
 29 25  1  0  0  0  0
 30 33  2  0  0  0  0
 32 29  1  0  0  0  0
 33 26  1  0  0  0  0
M  END
>  <MODEL>
1

>  <REMARK>
 VINA RESULT:      -8.1      0.000      0.000
  Name = 
  6 active torsions:
  status: ('A' for Active; 'I' for Inactive)
    1  A    between atoms: C_2  and  C_6
    2  A    between atoms: C_2  and  C_32
    3  A    between atoms: C_16  and  C_30
    4  A    between atoms: C_27  and  O_29
    5  A    between atoms: O_29  and  C_32
    6  A    between atoms: C_30  and  C_33
                            x       y       z     vdW  Elec       q    Type
                         _______ _______ _______ _____ _____    ______ ____

>  <TORSDO>
F 6

$$$$
=
 OpenBabel11042415053D

 33 37  0  0  1  0  0  0  0  0999 V2000
  184.4840  178.6570  146.5740 N   0  0  0  0  0  0  0  0  0  0  0  0
  189.6090  177.5930  142.7130 C   0  0  0  0  0  2  0  0  0  0  0  0
  186.5090  177.7150  145.6880 C   0  0  1  0  0  3  0  0  0  0  0  0
  190.6260  176.8880  143.5990 C   0  0  1  0  0  3  0  0  0  0  0  0
  186.8570  177.4630  142.8800 S   0  0  0  0  0  0  0  0  0  0  0  0
  190.0080  176.8310  144.9400 N   0  0  1  0  0  0  0  0  0  0  0  0
  187.9540  177.2660  145.9180 C   0  0  1  0  0  3  0  0  0  0  0  0
  185.7210  178.1350  146.7810 C   0  0  0  0  0  0  0  0  0  0  0  0
  186.1500  178.0340  147.9600 O   0  0  0  0  0  0  0  0  0  0  0  0
  188.0270  176.1060  146.9140 C   0  0  0  0  0  2  0  0  0  0  0  0
  189.4240  174.2940  147.4410 O   0  0  0  0  0  0  0  0  0  0  0  0
  189.2960  175.3020  146.7680 C   0  0  0  0  0  0  0  0  0  0  0  0
  188.4470  177.8160  143.6460 C   0  0  1  0  0  3  0  0  0  0  0  0
  183.9830  178.8040  145.3260 C   0  0  0  0  0  3  0  0  0  0  0  0
  188.6250  176.8410  144.6950 N   0  0  1  0  0  0  0  0  0  0  0  0
  185.9660  177.8990  144.3900 C   0  0  0  0  0  0  0  0  0  0  0  0
  184.7210  178.4320  144.2520 N   0  0  0  0  0  0  0  0  0  0  0  0
  190.3650  175.6450  145.7430 C   0  0  2  0  0  3  0  0  0  0  0  0
  190.9460  175.5060  143.0080 C   0  0  0  0  0  2  0  0  0  0  0  0
  189.8260  174.9850  142.1170 C   0  0  0  0  0  2  0  0  0  0  0  0
  189.0560  174.0390  142.7960 O   0  0  0  0  0  0  0  0  0  0  0  0
  189.5530  172.4370  144.3460 O   0  0  0  0  0  1  0  0  0  0  0  0
  189.9490  173.0210  143.1400 C   0  0  0  0  0  2  0  0  0  0  0  0
  191.6910  175.8870  146.4620 C   0  0  0  0  0  2  0  0  0  0  0  0
  194.8820  172.8750  145.2490 C   0  0  0  0  0  3  0  0  0  0  0  0
  193.5640  172.8100  145.0770 C   0  0  0  0  0  0  0  0  0  0  0  0
  193.9610  177.2350  145.0240 C   0  0  0  0  0  1  0  0  0  0  0  0
  194.0550  175.8170  145.4730 C   0  0  0  0  0  0  0  0  0  0  0  0
  195.5520  173.9160  146.0820 C   0  0  0  0  0  2  0  0  0  0  0  0
  192.8140  175.0950  145.8650 C   0  0  0  0  0  0  0  0  0  0  0  0
  193.0590  171.7580  144.3850 F   0  0  0  0  0  0  0  0  0  0  0  0
  195.2780  175.2870  145.5570 C   0  0  0  0  0  3  0  0  0  0  0  0
  192.6130  173.7810  145.6600 C   0  0  0  0  0  3  0  0  0  0  0  0
  1  8  1  0  0  0  0
  2  4  1  0  0  0  0
  2 13  1  0  0  0  0
  3 16  1  6  0  0  0
  3  7  1  0  0  0  0
  3  8  1  0  0  0  0
  4 19  1  6  0  0  0
  4  6  1  0  0  0  0
  5 13  1  0  0  0  0
  5 16  1  0  0  0  0
  6 18  1  0  0  0  0
  7 10  1  0  0  0  0
  8  9  2  0  0  0  0
 12 10  1  0  0  0  0
 12 11  2  0  0  0  0
 13 15  1  0  0  0  0
 14  1  2  0  0  0  0
 15  6  1  0  0  0  0
 15  7  1  0  0  0  0
 17 16  2  0  0  0  0
 17 14  1  0  0  0  0
 18 24  1  0  0  0  0
 18 12  1  0  0  0  0
 20 21  1  0  0  0  0
 20 19  1  0  0  0  0
 21 23  1  0  0  0  0
 23 22  1  0  0  0  0
 25 29  1  0  0  0  0
 26 25  2  0  0  0  0
 26 33  1  0  0  0  0
 27 28  1  0  0  0  0
 28 32  2  0  0  0  0
 28 30  1  0  0  0  0
 30 24  1  0  0  0  0
 31 26  1  0  0  0  0
 32 29  1  0  0  0  0
 33 30  2  0  0  0  0
M  END
>  <MODEL>
2

>  <REMARK>
 VINA RESULT:      -8.1      3.570      7.596
  Name = 
  6 active torsions:
  status: ('A' for Active; 'I' for Inactive)
    1  A    between atoms: C_2  and  C_6
    2  A    between atoms: C_2  and  C_32
    3  A    between atoms: C_16  and  C_30
    4  A    between atoms: C_27  and  O_29
    5  A    between atoms: O_29  and  C_32
    6  A    between atoms: C_30  and  C_33
                            x       y       z     vdW  Elec       q    Type
                         _______ _______ _______ _____ _____    ______ ____

>  <TORSDO>
F 6

$$$$
=
 OpenBabel11042415053D

 33 37  0  0  1  0  0  0  0  0999 V2000
  196.1810  174.4590  145.7560 N   0  0  0  0  0  0  0  0  0  0  0  0
  190.0280  172.9710  144.2630 C   0  0  0  0  0  2  0  0  0  0  0  0
  193.8950  174.6760  145.0520 C   0  0  1  0  0  3  0  0  0  0  0  0
  189.2690  174.2850  144.3800 C   0  0  1  0  0  3  0  0  0  0  0  0
  192.6670  172.6130  143.5350 S   0  0  0  0  0  0  0  0  0  0  0  0
  190.2640  175.2750  144.8420 N   0  0  1  0  0  0  0  0  0  0  0  0
  192.5540  175.4060  145.1630 C   0  0  1  0  0  3  0  0  0  0  0  0
  195.0220  175.1680  145.7420 C   0  0  0  0  0  0  0  0  0  0  0  0
  194.9730  176.2670  146.3550 O   0  0  0  0  0  0  0  0  0  0  0  0
  192.6730  176.8650  144.7170 C   0  0  0  0  0  2  0  0  0  0  0  0
  191.3270  178.5750  143.8350 O   0  0  0  0  0  0  0  0  0  0  0  0
  191.3440  177.4490  144.3020 C   0  0  0  0  0  0  0  0  0  0  0  0
  191.4390  173.3650  144.6150 C   0  0  1  0  0  3  0  0  0  0  0  0
  196.2820  173.2660  145.1280 C   0  0  0  0  0  3  0  0  0  0  0  0
  191.4950  174.7870  144.3740 N   0  0  1  0  0  0  0  0  0  0  0  0
  194.0240  173.4120  144.4190 C   0  0  0  0  0  0  0  0  0  0  0  0
  195.2120  172.7520  144.4740 N   0  0  0  0  0  0  0  0  0  0  0  0
  190.0520  176.6500  144.3500 C   0  0  2  0  0  3  0  0  0  0  0  0
  188.6380  174.6320  143.0220 C   0  0  0  0  0  2  0  0  0  0  0  0
  188.9570  173.5930  141.9550 C   0  0  0  0  0  2  0  0  0  0  0  0
  189.7790  174.1390  140.9670 O   0  0  0  0  0  0  0  0  0  0  0  0
  188.1580  172.8470  140.0090 O   0  0  0  0  0  1  0  0  0  0  0  0
  189.2630  173.6630  139.7590 C   0  0  0  0  0  2  0  0  0  0  0  0
  189.0480  177.3710  145.2470 C   0  0  0  0  0  2  0  0  0  0  0  0
  185.7230  179.0960  142.6600 C   0  0  0  0  0  3  0  0  0  0  0  0
  186.7910  178.3940  142.2890 C   0  0  0  0  0  0  0  0  0  0  0  0
  186.3420  176.6990  146.3720 C   0  0  0  0  0  1  0  0  0  0  0  0
  186.5040  177.6830  145.2640 C   0  0  0  0  0  0  0  0  0  0  0  0
  185.5280  179.6260  144.0410 C   0  0  0  0  0  2  0  0  0  0  0  0
  187.7900  177.7330  144.5180 C   0  0  0  0  0  0  0  0  0  0  0  0
  186.9120  178.0550  140.9810 F   0  0  0  0  0  0  0  0  0  0  0  0
  185.4870  178.5200  145.0430 C   0  0  0  0  0  3  0  0  0  0  0  0
  187.8880  178.0250  143.2080 C   0  0  0  0  0  3  0  0  0  0  0  0
  2  4  1  0  0  0  0
  2 13  1  0  0  0  0
  3 16  1  1  0  0  0
  3  7  1  0  0  0  0
  3  8  1  0  0  0  0
  4 19  1  6  0  0  0
  4  6  1  0  0  0  0
  5 16  1  0  0  0  0
  5 13  1  0  0  0  0
  8  1  1  0  0  0  0
  8  9  2  0  0  0  0
 10  7  1  0  0  0  0
 11 12  2  0  0  0  0
 12 18  1  0  0  0  0
 12 10  1  0  0  0  0
 14  1  2  0  0  0  0
 15 13  1  0  0  0  0
 15  6  1  0  0  0  0
 15  7  1  0  0  0  0
 16 17  2  0  0  0  0
 17 14  1  0  0  0  0
 18  6  1  0  0  0  0
 18 24  1  0  0  0  0
 20 19  1  0  0  0  0
 21 20  1  0  0  0  0
 23 22  1  0  0  0  0
 23 21  1  0  0  0  0
 25 29  1  0  0  0  0
 26 25  2  0  0  0  0
 26 33  1  0  0  0  0
 28 27  1  0  0  0  0
 29 32  1  0  0  0  0
 30 24  1  0  0  0  0
 30 28  1  0  0  0  0
 31 26  1  0  0  0  0
 32 28  2  0  0  0  0
 33 30  2  0  0  0  0
M  END
>  <MODEL>
3

>  <REMARK>
 VINA RESULT:      -7.8      3.047      5.650
  Name = 
  6 active torsions:
  status: ('A' for Active; 'I' for Inactive)
    1  A    between atoms: C_2  and  C_6
    2  A    between atoms: C_2  and  C_32
    3  A    between atoms: C_16  and  C_30
    4  A    between atoms: C_27  and  O_29
    5  A    between atoms: O_29  and  C_32
    6  A    between atoms: C_30  and  C_33
                            x       y       z     vdW  Elec       q    Type
                         _______ _______ _______ _____ _____    ______ ____

>  <TORSDO>
F 6

$$$$
=
 OpenBabel11042415053D

 33 37  0  0  1  0  0  0  0  0999 V2000
  185.6050  179.1260  143.1640 N   0  0  0  0  0  2  0  0  0  0  0  0
  188.9990  175.0020  146.8780 C   0  0  0  0  0  2  0  0  0  0  0  0
  187.4300  177.8460  144.0610 C   0  0  0  0  0  0  0  0  0  0  0  0
  190.2110  174.6270  146.0370 C   0  0  1  0  0  3  0  0  0  0  0  0
  187.6140  177.3900  146.8590 S   0  0  0  0  0  0  0  0  0  0  0  0
  190.0240  175.3180  144.7450 N   0  0  1  0  0  0  0  0  0  0  0  0
  188.6130  176.9060  143.8200 C   0  0  1  0  0  3  0  0  0  0  0  0
  186.7340  178.3960  142.9640 C   0  0  0  0  0  0  0  0  0  0  0  0
  187.1430  178.2180  141.7870 O   0  0  0  0  0  0  0  0  0  0  0  0
  189.6970  177.5760  142.9710 C   0  0  0  0  0  2  0  0  0  0  0  0
  192.0120  177.4410  142.6050 O   0  0  0  0  0  0  0  0  0  0  0  0
  191.0500  176.9330  143.1550 C   0  0  0  0  0  0  0  0  0  0  0  0
  188.2490  175.9530  145.9810 C   0  0  1  0  0  3  0  0  0  0  0  0
  185.1130  179.3320  144.4070 C   0  0  0  0  0  3  0  0  0  0  0  0
  189.2400  176.4430  145.0520 N   0  0  1  0  0  0  0  0  0  0  0  0
  186.8800  178.0620  145.3520 C   0  0  0  0  0  0  0  0  0  0  0  0
  185.7440  178.8010  145.4820 N   0  0  0  0  0  0  0  0  0  0  0  0
  191.2690  175.7450  144.0770 C   0  0  2  0  0  3  0  0  0  0  0  0
  191.4930  175.0410  146.7770 C   0  0  0  0  0  2  0  0  0  0  0  0
  191.1960  175.7630  148.0860 C   0  0  0  0  0  2  0  0  0  0  0  0
  191.8490  176.9970  148.1250 O   0  0  0  0  0  0  0  0  0  0  0  0
  191.5160  178.3570  149.9290 O   0  0  0  0  0  1  0  0  0  0  0  0
  190.9510  177.8650  148.7500 C   0  0  0  0  0  2  0  0  0  0  0  0
  191.8490  174.5840  143.2720 C   0  0  0  0  0  2  0  0  0  0  0  0
  188.3670  173.1780  140.6980 C   0  0  0  0  0  3  0  0  0  0  0  0
  189.4920  173.7810  140.3230 C   0  0  0  0  0  0  0  0  0  0  0  0
  191.0700  171.7600  143.9510 C   0  0  0  0  0  1  0  0  0  0  0  0
  190.2230  172.6110  143.0680 C   0  0  0  0  0  0  0  0  0  0  0  0
  187.9520  173.0250  142.1230 C   0  0  0  0  0  2  0  0  0  0  0  0
  190.7990  173.8550  142.4880 C   0  0  0  0  0  0  0  0  0  0  0  0
  189.7140  173.9580  138.9960 F   0  0  0  0  0  0  0  0  0  0  0  0
  188.9550  172.2320  142.8940 C   0  0  0  0  0  3  0  0  0  0  0  0
  190.4800  174.3360  141.2730 C   0  0  0  0  0  3  0  0  0  0  0  0
  1 14  1  0  0  0  0
  3 16  2  0  0  0  0
  4 19  1  1  0  0  0
  4  2  1  0  0  0  0
  6 15  1  0  0  0  0
  6  4  1  0  0  0  0
  7  3  1  0  0  0  0
  7 15  1  0  0  0  0
  8  1  1  0  0  0  0
  8  3  1  0  0  0  0
  9  8  2  0  0  0  0
 10 12  1  0  0  0  0
 10  7  1  0  0  0  0
 11 12  2  0  0  0  0
 12 18  1  0  0  0  0
 13  5  1  0  0  0  0
 13  2  1  0  0  0  0
 14 17  2  0  0  0  0
 15 13  1  0  0  0  0
 16 17  1  0  0  0  0
 16  5  1  0  0  0  0
 18  6  1  0  0  0  0
 19 20  1  0  0  0  0
 20 21  1  0  0  0  0
 21 23  1  0  0  0  0
 23 22  1  0  0  0  0
 24 18  1  0  0  0  0
 25 29  1  0  0  0  0
 26 25  2  0  0  0  0
 26 33  1  0  0  0  0
 28 27  1  0  0  0  0
 29 32  1  0  0  0  0
 30 28  1  0  0  0  0
 30 24  1  0  0  0  0
 31 26  1  0  0  0  0
 32 28  2  0  0  0  0
 33 30  2  0  0  0  0
M  END
>  <MODEL>
4

>  <REMARK>
 VINA RESULT:      -7.8      3.297      6.345
  Name = 
  6 active torsions:
  status: ('A' for Active; 'I' for Inactive)
    1  A    between atoms: C_2  and  C_6
    2  A    between atoms: C_2  and  C_32
    3  A    between atoms: C_16  and  C_30
    4  A    between atoms: C_27  and  O_29
    5  A    between atoms: O_29  and  C_32
    6  A    between atoms: C_30  and  C_33
                            x       y       z     vdW  Elec       q    Type
                         _______ _______ _______ _____ _____    ______ ____

>  <TORSDO>
F 6

$$$$
=
 OpenBabel11042415053D

 33 37  0  0  1  0  0  0  0  0999 V2000
  185.4050  179.1160  143.3700 N   0  0  0  0  0  2  0  0  0  0  0  0
  189.0250  175.1170  147.0040 C   0  0  0  0  0  2  0  0  0  0  0  0
  187.2980  177.9170  144.2370 C   0  0  0  0  0  0  0  0  0  0  0  0
  190.2490  174.8140  146.1500 C   0  0  1  0  0  3  0  0  0  0  0  0
  187.5230  177.4330  147.0270 S   0  0  0  0  0  0  0  0  0  0  0  0
  190.0190  175.5120  144.8690 N   0  0  1  0  0  0  0  0  0  0  0  0
  188.5240  177.0400  143.9750 C   0  0  1  0  0  3  0  0  0  0  0  0
  186.5670  178.4460  143.1530 C   0  0  0  0  0  0  0  0  0  0  0  0
  186.9770  178.3050  141.9710 O   0  0  0  0  0  0  0  0  0  0  0  0
  189.5670  177.7750  143.1290 C   0  0  0  0  0  2  0  0  0  0  0  0
  191.8830  177.7600  142.7470 O   0  0  0  0  0  0  0  0  0  0  0  0
  190.9520  177.1970  143.2950 C   0  0  0  0  0  0  0  0  0  0  0  0
  188.2230  176.0410  146.1250 C   0  0  1  0  0  3  0  0  0  0  0  0
  184.9120  179.2800  144.6180 C   0  0  0  0  0  3  0  0  0  0  0  0
  189.1820  176.5920  145.1980 N   0  0  1  0  0  0  0  0  0  0  0  0
  186.7460  178.0880  145.5340 C   0  0  0  0  0  0  0  0  0  0  0  0
  185.5760  178.7670  145.6820 N   0  0  0  0  0  0  0  0  0  0  0  0
  191.2360  176.0090  144.2000 C   0  0  2  0  0  3  0  0  0  0  0  0
  191.5140  175.2810  146.8880 C   0  0  0  0  0  2  0  0  0  0  0  0
  191.1910  175.9570  148.2150 C   0  0  0  0  0  2  0  0  0  0  0  0
  191.9150  177.1430  148.3520 O   0  0  0  0  0  0  0  0  0  0  0  0
  191.5660  177.9540  150.4570 O   0  0  0  0  0  1  0  0  0  0  0  0
  191.1120  177.9730  149.1370 C   0  0  0  0  0  2  0  0  0  0  0  0
  191.8670  174.8890  143.3750 C   0  0  0  0  0  2  0  0  0  0  0  0
  195.4610  173.4370  145.7630 C   0  0  0  0  0  3  0  0  0  0  0  0
  194.4280  172.7380  145.2990 C   0  0  0  0  0  0  0  0  0  0  0  0
  194.4350  175.9240  142.2030 C   0  0  0  0  0  1  0  0  0  0  0  0
  194.4000  175.2500  143.5330 C   0  0  0  0  0  0  0  0  0  0  0  0
  195.5210  174.9280  145.7380 C   0  0  0  0  0  2  0  0  0  0  0  0
  193.1980  174.4630  143.9170 C   0  0  0  0  0  0  0  0  0  0  0  0
  194.4370  171.3920  145.4710 F   0  0  0  0  0  0  0  0  0  0  0  0
  195.4440  175.4480  144.3400 C   0  0  0  0  0  3  0  0  0  0  0  0
  193.2370  173.3510  144.6740 C   0  0  0  0  0  3  0  0  0  0  0  0
  1 14  1  0  0  0  0
  3 16  2  0  0  0  0
  4 19  1  1  0  0  0
  4  2  1  0  0  0  0
  6 15  1  0  0  0  0
  6  4  1  0  0  0  0
  7  3  1  0  0  0  0
  7 15  1  0  0  0  0
  8  1  1  0  0  0  0
  8  3  1  0  0  0  0
  9  8  2  0  0  0  0
 10 12  1  0  0  0  0
 10  7  1  0  0  0  0
 11 12  2  0  0  0  0
 12 18  1  0  0  0  0
 13  2  1  0  0  0  0
 13  5  1  0  0  0  0
 14 17  2  0  0  0  0
 15 13  1  0  0  0  0
 16 17  1  0  0  0  0
 16  5  1  0  0  0  0
 18  6  1  0  0  0  0
 19 20  1  0  0  0  0
 20 21  1  0  0  0  0
 21 23  1  0  0  0  0
 23 22  1  0  0  0  0
 24 30  1  0  0  0  0
 24 18  1  0  0  0  0
 26 31  1  0  0  0  0
 26 25  2  0  0  0  0
 27 28  1  0  0  0  0
 28 30  1  0  0  0  0
 28 32  2  0  0  0  0
 29 25  1  0  0  0  0
 30 33  2  0  0  0  0
 32 29  1  0  0  0  0
 33 26  1  0  0  0  0
M  END
>  <MODEL>
5

>  <REMARK>
 VINA RESULT:      -7.7      3.702      6.992
  Name = 
  6 active torsions:
  status: ('A' for Active; 'I' for Inactive)
    1  A    between atoms: C_2  and  C_6
    2  A    between atoms: C_2  and  C_32
    3  A    between atoms: C_16  and  C_30
    4  A    between atoms: C_27  and  O_29
    5  A    between atoms: O_29  and  C_32
    6  A    between atoms: C_30  and  C_33
                            x       y       z     vdW  Elec       q    Type
                         _______ _______ _______ _____ _____    ______ ____

>  <TORSDO>
F 6

$$$$
=
 OpenBabel11042415053D

 33 37  0  0  1  0  0  0  0  0999 V2000
  193.1400  171.2920  142.8090 N   0  0  0  0  0  0  0  0  0  0  0  0
  187.4380  174.3320  142.0590 C   0  0  0  0  0  2  0  0  0  0  0  0
  191.5050  173.0370  142.5740 C   0  0  1  0  0  3  0  0  0  0  0  0
  187.6660  175.7310  142.6160 C   0  0  1  0  0  3  0  0  0  0  0  0
  189.2880  172.6890  140.8330 S   0  0  0  0  0  0  0  0  0  0  0  0
  189.0520  175.7310  143.1280 N   0  0  1  0  0  0  0  0  0  0  0  0
  190.9140  174.3540  143.0810 C   0  0  1  0  0  3  0  0  0  0  0  0
  192.6790  172.5210  143.1610 C   0  0  0  0  0  0  0  0  0  0  0  0
  193.3150  173.1860  144.0200 O   0  0  0  0  0  0  0  0  0  0  0  0
  191.9280  175.4960  142.9850 C   0  0  0  0  0  2  0  0  0  0  0  0
  191.9650  177.8350  142.7800 O   0  0  0  0  0  0  0  0  0  0  0  0
  191.2650  176.8520  142.9540 C   0  0  0  0  0  0  0  0  0  0  0  0
  188.7790  173.6710  142.2530 C   0  0  1  0  0  3  0  0  0  0  0  0
  192.4840  170.5290  141.9050 C   0  0  0  0  0  3  0  0  0  0  0  0
  189.7170  174.7640  142.3560 N   0  0  1  0  0  0  0  0  0  0  0  0
  190.8280  172.2060  141.6420 C   0  0  0  0  0  0  0  0  0  0  0  0
  191.3420  170.9840  141.3360 N   0  0  0  0  0  0  0  0  0  0  0  0
  189.7560  177.0240  143.0240 C   0  0  2  0  0  3  0  0  0  0  0  0
  187.4180  176.7670  141.5070 C   0  0  0  0  0  2  0  0  0  0  0  0
  185.9810  177.2720  141.5010 C   0  0  0  0  0  2  0  0  0  0  0  0
  185.9470  178.6610  141.6400 O   0  0  0  0  0  0  0  0  0  0  0  0
  184.5050  178.1170  143.3240 O   0  0  0  0  0  1  0  0  0  0  0  0
  185.6180  178.8860  142.9780 C   0  0  0  0  0  2  0  0  0  0  0  0
  189.4060  177.9010  144.2250 C   0  0  0  0  0  2  0  0  0  0  0  0
  190.4820  175.2880  147.7940 C   0  0  0  0  0  3  0  0  0  0  0  0
  191.1180  176.3560  147.3190 C   0  0  0  0  0  0  0  0  0  0  0  0
  187.0210  177.4590  146.0010 C   0  0  0  0  0  1  0  0  0  0  0  0
  188.2830  176.6870  146.1840 C   0  0  0  0  0  0  0  0  0  0  0  0
  189.3530  174.6200  147.0830 C   0  0  0  0  0  2  0  0  0  0  0  0
  189.5290  177.1630  145.5240 C   0  0  0  0  0  0  0  0  0  0  0  0
  192.1990  176.8130  147.9990 F   0  0  0  0  0  0  0  0  0  0  0  0
  188.2060  175.5580  146.8920 C   0  0  0  0  0  3  0  0  0  0  0  0
  190.7580  177.0270  146.0520 C   0  0  0  0  0  3  0  0  0  0  0  0
  1  8  1  0  0  0  0
  2 13  1  0  0  0  0
  2  4  1  0  0  0  0
  3 16  1  1  0  0  0
  3  7  1  0  0  0  0
  3  8  1  0  0  0  0
  4 19  1  6  0  0  0
  4  6  1  0  0  0  0
  5 16  1  0  0  0  0
  5 13  1  0  0  0  0
  8  9  2  0  0  0  0
 10  7  1  0  0  0  0
 11 12  2  0  0  0  0
 12 10  1  0  0  0  0
 12 18  1  0  0  0  0
 13 15  1  0  0  0  0
 14  1  2  0  0  0  0
 15  7  1  0  0  0  0
 15  6  1  0  0  0  0
 17 16  2  0  0  0  0
 17 14  1  0  0  0  0
 18  6  1  0  0  0  0
 18 24  1  0  0  0  0
 20 19  1  0  0  0  0
 20 21  1  0  0  0  0
 21 23  1  0  0  0  0
 23 22  1  0  0  0  0
 24 30  1  0  0  0  0
 26 25  2  0  0  0  0
 26 31  1  0  0  0  0
 27 28  1  0  0  0  0
 28 32  2  0  0  0  0
 29 25  1  0  0  0  0
 30 33  2  0  0  0  0
 30 28  1  0  0  0  0
 32 29  1  0  0  0  0
 33 26  1  0  0  0  0
M  END
>  <MODEL>
6

>  <REMARK>
 VINA RESULT:      -7.3      2.594      4.785
  Name = 
  6 active torsions:
  status: ('A' for Active; 'I' for Inactive)
    1  A    between atoms: C_2  and  C_6
    2  A    between atoms: C_2  and  C_32
    3  A    between atoms: C_16  and  C_30
    4  A    between atoms: C_27  and  O_29
    5  A    between atoms: O_29  and  C_32
    6  A    between atoms: C_30  and  C_33
                            x       y       z     vdW  Elec       q    Type
                         _______ _______ _______ _____ _____    ______ ____

>  <TORSDO>
F 6

$$$$
=
 OpenBabel11042415053D

 33 37  0  0  1  0  0  0  0  0999 V2000
  189.9980  170.9620  141.4960 N   0  0  0  0  0  0  0  0  0  0  0  0
  193.4240  176.2020  143.2610 C   0  0  0  0  0  2  0  0  0  0  0  0
  190.8290  172.8070  142.7920 C   0  0  1  0  0  3  0  0  0  0  0  0
  192.5880  176.8680  144.3450 C   0  0  1  0  0  3  0  0  0  0  0  0
  193.5790  173.5090  142.6730 S   0  0  0  0  0  0  0  0  0  0  0  0
  191.3580  176.0560  144.4500 N   0  0  1  0  0  0  0  0  0  0  0  0
  190.5390  174.0450  143.6430 C   0  0  1  0  0  3  0  0  0  0  0  0
  189.7660  171.9870  142.3580 C   0  0  0  0  0  0  0  0  0  0  0  0
  188.5900  172.1920  142.7580 O   0  0  0  0  0  0  0  0  0  0  0  0
  189.7860  173.6780  144.9240 C   0  0  0  0  0  2  0  0  0  0  0  0
  189.4770  174.4920  147.1050 O   0  0  0  0  0  0  0  0  0  0  0  0
  189.9500  174.7200  146.0050 C   0  0  0  0  0  0  0  0  0  0  0  0
  192.5940  175.0010  142.8870 C   0  0  1  0  0  3  0  0  0  0  0  0
  191.2390  170.7100  141.0220 C   0  0  0  0  0  3  0  0  0  0  0  0
  191.7430  174.7710  144.0300 N   0  0  1  0  0  0  0  0  0  0  0  0
  192.1170  172.5310  142.2630 C   0  0  0  0  0  0  0  0  0  0  0  0
  192.2800  171.4910  141.4010 N   0  0  0  0  0  0  0  0  0  0  0  0
  190.7690  175.9840  145.8010 C   0  0  2  0  0  3  0  0  0  0  0  0
  193.4000  176.9270  145.6500 C   0  0  0  0  0  2  0  0  0  0  0  0
  194.8270  176.4270  145.4650 C   0  0  0  0  0  2  0  0  0  0  0  0
  195.1350  175.4540  146.4170 O   0  0  0  0  0  0  0  0  0  0  0  0
  196.6660  174.7860  144.8600 O   0  0  0  0  0  1  0  0  0  0  0  0
  195.6190  174.3670  145.6840 C   0  0  0  0  0  2  0  0  0  0  0  0
  189.8790  177.2020  146.0420 C   0  0  0  0  0  2  0  0  0  0  0  0
  186.9160  177.9600  142.6700 C   0  0  0  0  0  3  0  0  0  0  0  0
  188.0580  177.2780  142.6400 C   0  0  0  0  0  0  0  0  0  0  0  0
  187.0660  176.6070  146.9190 C   0  0  0  0  0  1  0  0  0  0  0  0
  187.3510  177.2990  145.6290 C   0  0  0  0  0  0  0  0  0  0  0  0
  186.4880  178.7950  143.8290 C   0  0  0  0  0  2  0  0  0  0  0  0
  188.7330  177.2700  145.0790 C   0  0  0  0  0  0  0  0  0  0  0  0
  188.3940  176.6390  141.4910 F   0  0  0  0  0  0  0  0  0  0  0  0
  186.3440  177.9700  145.0650 C   0  0  0  0  0  3  0  0  0  0  0  0
  189.0170  177.2380  143.7640 C   0  0  0  0  0  3  0  0  0  0  0  0
  1  8  1  0  0  0  0
  2  4  1  0  0  0  0
  3 16  1  6  0  0  0
  3  7  1  0  0  0  0
  4  6  1  0  0  0  0
  4 19  1  1  0  0  0
  5 13  1  0  0  0  0
  6 18  1  0  0  0  0
  7 15  1  0  0  0  0
  7 10  1  0  0  0  0
  8  9  2  0  0  0  0
  8  3  1  0  0  0  0
 10 12  1  0  0  0  0
 12 11  2  0  0  0  0
 13  2  1  0  0  0  0
 13 15  1  0  0  0  0
 14 17  1  0  0  0  0
 14  1  2  0  0  0  0
 15  6  1  0  0  0  0
 16  5  1  0  0  0  0
 17 16  2  0  0  0  0
 18 12  1  0  0  0  0
 18 24  1  0  0  0  0
 20 19  1  0  0  0  0
 20 21  1  0  0  0  0
 22 23  1  0  0  0  0
 23 21  1  0  0  0  0
 25 29  1  0  0  0  0
 26 25  2  0  0  0  0
 26 33  1  0  0  0  0
 28 27  1  0  0  0  0
 29 32  1  0  0  0  0
 30 28  1  0  0  0  0
 30 24  1  0  0  0  0
 31 26  1  0  0  0  0
 32 28  2  0  0  0  0
 33 30  2  0  0  0  0
M  END
>  <MODEL>
7

>  <REMARK>
 VINA RESULT:      -7.0      2.959      3.955
  Name = 
  6 active torsions:
  status: ('A' for Active; 'I' for Inactive)
    1  A    between atoms: C_2  and  C_6
    2  A    between atoms: C_2  and  C_32
    3  A    between atoms: C_16  and  C_30
    4  A    between atoms: C_27  and  O_29
    5  A    between atoms: O_29  and  C_32
    6  A    between atoms: C_30  and  C_33
                            x       y       z     vdW  Elec       q    Type
                         _______ _______ _______ _____ _____    ______ ____

>  <TORSDO>
F 6

$$$$
=
 OpenBabel11042415053D

 33 37  0  0  1  0  0  0  0  0999 V2000
  189.6890  171.2870  137.7160 N   0  0  0  0  0  2  0  0  0  0  0  0
  192.7670  174.4050  142.5230 C   0  0  0  0  0  2  0  0  0  0  0  0
  190.0860  172.5700  139.7080 C   0  0  0  0  0  0  0  0  0  0  0  0
  191.7480  175.4020  143.0570 C   0  0  1  0  0  3  0  0  0  0  0  0
  192.2710  171.9300  141.4060 S   0  0  0  0  0  0  0  0  0  0  0  0
  190.5570  175.2480  142.1970 N   0  0  1  0  0  0  0  0  0  0  0  0
  189.7930  173.8210  140.5400 C   0  0  1  0  0  3  0  0  0  0  0  0
  189.3510  172.3210  138.5300 C   0  0  0  0  0  0  0  0  0  0  0  0
  188.3760  173.0520  138.2130 O   0  0  0  0  0  0  0  0  0  0  0  0
  188.3280  173.8680  140.9820 C   0  0  0  0  0  2  0  0  0  0  0  0
  187.0130  174.7780  142.7010 O   0  0  0  0  0  0  0  0  0  0  0  0
  188.1220  174.7400  142.1970 C   0  0  0  0  0  0  0  0  0  0  0  0
  192.0120  173.7110  141.4190 C   0  0  1  0  0  3  0  0  0  0  0  0
  190.7390  170.4830  138.0010 C   0  0  0  0  0  3  0  0  0  0  0  0
  190.6200  173.9220  141.7370 N   0  0  1  0  0  0  0  0  0  0  0  0
  191.1940  171.7230  139.9710 C   0  0  0  0  0  0  0  0  0  0  0  0
  191.4800  170.7070  139.1130 N   0  0  0  0  0  0  0  0  0  0  0  0
  189.2650  175.4830  142.8700 C   0  0  2  0  0  3  0  0  0  0  0  0
  191.4780  175.1090  144.5420 C   0  0  0  0  0  2  0  0  0  0  0  0
  192.0700  176.1740  145.4570 C   0  0  0  0  0  2  0  0  0  0  0  0
  193.0390  176.9190  144.7840 O   0  0  0  0  0  0  0  0  0  0  0  0
  194.1320  177.0550  146.7840 O   0  0  0  0  0  1  0  0  0  0  0  0
  194.2360  176.6500  145.4510 C   0  0  0  0  0  2  0  0  0  0  0  0
  188.9530  176.9780  142.8820 C   0  0  0  0  0  2  0  0  0  0  0  0
  186.6350  177.4330  146.7740 C   0  0  0  0  0  3  0  0  0  0  0  0
  187.9400  177.5740  146.5580 C   0  0  0  0  0  0  0  0  0  0  0  0
  186.5310  178.7190  142.5030 C   0  0  0  0  0  1  0  0  0  0  0  0
  186.7400  177.9350  143.7530 C   0  0  0  0  0  0  0  0  0  0  0  0
  185.6880  176.8860  145.7580 C   0  0  0  0  0  2  0  0  0  0  0  0
  188.0860  177.3690  144.0400 C   0  0  0  0  0  0  0  0  0  0  0  0
  188.7200  177.9820  147.5910 F   0  0  0  0  0  0  0  0  0  0  0  0
  185.6710  177.7310  144.5270 C   0  0  0  0  0  3  0  0  0  0  0  0
  188.5990  177.2420  145.2770 C   0  0  0  0  0  3  0  0  0  0  0  0
  1 14  1  0  0  0  0
  1  8  1  0  0  0  0
  2  4  1  0  0  0  0
  3 16  2  0  0  0  0
  3  7  1  0  0  0  0
  4 19  1  1  0  0  0
  5 13  1  0  0  0  0
  6 18  1  0  0  0  0
  6  4  1  0  0  0  0
  7 10  1  0  0  0  0
  7 15  1  0  0  0  0
  8  3  1  0  0  0  0
  9  8  2  0  0  0  0
 10 12  1  0  0  0  0
 12 11  2  0  0  0  0
 12 18  1  0  0  0  0
 13 15  1  0  0  0  0
 13  2  1  0  0  0  0
 14 17  2  0  0  0  0
 15  6  1  0  0  0  0
 16  5  1  0  0  0  0
 17 16  1  0  0  0  0
 18 24  1  0  0  0  0
 19 20  1  0  0  0  0
 21 23  1  0  0  0  0
 21 20  1  0  0  0  0
 23 22  1  0  0  0  0
 24 30  1  0  0  0  0
 26 25  2  0  0  0  0
 26 31  1  0  0  0  0
 27 28  1  0  0  0  0
 28 30  1  0  0  0  0
 28 32  2  0  0  0  0
 29 25  1  0  0  0  0
 30 33  2  0  0  0  0
 32 29  1  0  0  0  0
 33 26  1  0  0  0  0
M  END
>  <MODEL>
8

>  <REMARK>
 VINA RESULT:      -6.9      1.840      2.102
  Name = 
  6 active torsions:
  status: ('A' for Active; 'I' for Inactive)
    1  A    between atoms: C_2  and  C_6
    2  A    between atoms: C_2  and  C_32
    3  A    between atoms: C_16  and  C_30
    4  A    between atoms: C_27  and  O_29
    5  A    between atoms: O_29  and  C_32
    6  A    between atoms: C_30  and  C_33
                            x       y       z     vdW  Elec       q    Type
                         _______ _______ _______ _____ _____    ______ ____

>  <TORSDO>
F 6

$$$$
=
 OpenBabel11042415053D

 33 37  0  0  1  0  0  0  0  0999 V2000
  188.8500  172.5820  140.1180 N   0  0  0  0  0  0  0  0  0  0  0  0
  194.0010  174.9890  143.2780 C   0  0  0  0  0  2  0  0  0  0  0  0
  190.2610  173.3880  141.8880 C   0  0  1  0  0  3  0  0  0  0  0  0
  193.4300  175.5880  144.5560 C   0  0  1  0  0  3  0  0  0  0  0  0
  193.0440  172.8190  141.8650 S   0  0  0  0  0  0  0  0  0  0  0  0
  191.9670  175.4050  144.4580 N   0  0  1  0  0  0  0  0  0  0  0  0
  190.4480  174.3040  143.0990 C   0  0  1  0  0  3  0  0  0  0  0  0
  188.9970  173.2890  141.2690 C   0  0  0  0  0  0  0  0  0  0  0  0
  187.9900  173.8550  141.7690 O   0  0  0  0  0  0  0  0  0  0  0  0
  189.4900  173.9330  144.2340 C   0  0  0  0  0  2  0  0  0  0  0  0
  189.3500  174.0960  146.5720 O   0  0  0  0  0  0  0  0  0  0  0  0
  189.9790  174.4160  145.5790 C   0  0  0  0  0  0  0  0  0  0  0  0
  192.7770  174.4470  142.5850 C   0  0  1  0  0  3  0  0  0  0  0  0
  189.9030  171.9710  139.5300 C   0  0  0  0  0  3  0  0  0  0  0  0
  191.8030  174.2770  143.6370 N   0  0  1  0  0  0  0  0  0  0  0  0
  191.3520  172.7520  141.2380 C   0  0  0  0  0  0  0  0  0  0  0  0
  191.1360  172.0620  140.0850 N   0  0  0  0  0  0  0  0  0  0  0  0
  191.2760  175.1920  145.7440 C   0  0  2  0  0  3  0  0  0  0  0  0
  194.0580  174.8880  145.7720 C   0  0  0  0  0  2  0  0  0  0  0  0
  195.1800  173.9360  145.3750 C   0  0  0  0  0  2  0  0  0  0  0  0
  196.3960  174.3560  145.9160 O   0  0  0  0  0  0  0  0  0  0  0  0
  197.4330  175.1210  144.0310 O   0  0  0  0  0  1  0  0  0  0  0  0
  197.3510  174.0630  144.9400 C   0  0  0  0  0  2  0  0  0  0  0  0
  190.9750  176.5380  146.4000 C   0  0  0  0  0  2  0  0  0  0  0  0
  186.6530  177.5940  145.4360 C   0  0  0  0  0  3  0  0  0  0  0  0
  187.2850  177.6500  146.6050 C   0  0  0  0  0  0  0  0  0  0  0  0
  190.8080  178.3180  143.9820 C   0  0  0  0  0  1  0  0  0  0  0  0
  189.5920  177.6950  144.5770 C   0  0  0  0  0  0  0  0  0  0  0  0
  187.2350  176.9620  144.2160 C   0  0  0  0  0  2  0  0  0  0  0  0
  189.6680  177.1130  145.9440 C   0  0  0  0  0  0  0  0  0  0  0  0
  186.6160  178.1540  147.6730 F   0  0  0  0  0  0  0  0  0  0  0  0
  188.5010  177.6400  143.8090 C   0  0  0  0  0  3  0  0  0  0  0  0
  188.6500  177.1260  146.8240 C   0  0  0  0  0  3  0  0  0  0  0  0
  1  8  1  0  0  0  0
  2  4  1  0  0  0  0
  3 16  1  6  0  0  0
  3  7  1  0  0  0  0
  4 19  1  1  0  0  0
  5 13  1  0  0  0  0
  6  4  1  0  0  0  0
  6 18  1  0  0  0  0
  7 15  1  0  0  0  0
  7 10  1  0  0  0  0
  8  9  2  0  0  0  0
  8  3  1  0  0  0  0
 10 12  1  0  0  0  0
 12 18  1  0  0  0  0
 12 11  2  0  0  0  0
 13  2  1  0  0  0  0
 13 15  1  0  0  0  0
 14 17  1  0  0  0  0
 14  1  2  0  0  0  0
 15  6  1  0  0  0  0
 16  5  1  0  0  0  0
 17 16  2  0  0  0  0
 18 24  1  0  0  0  0
 20 19  1  0  0  0  0
 20 21  1  0  0  0  0
 22 23  1  0  0  0  0
 23 21  1  0  0  0  0
 25 26  2  0  0  0  0
 26 33  1  0  0  0  0
 26 31  1  0  0  0  0
 27 28  1  0  0  0  0
 28 30  1  0  0  0  0
 29 25  1  0  0  0  0
 30 24  1  0  0  0  0
 30 33  2  0  0  0  0
 32 29  1  0  0  0  0
 32 28  2  0  0  0  0
M  END
>  <MODEL>
9

>  <REMARK>
 VINA RESULT:      -6.9      2.879      3.752
  Name = 
  6 active torsions:
  status: ('A' for Active; 'I' for Inactive)
    1  A    between atoms: C_2  and  C_6
    2  A    between atoms: C_2  and  C_32
    3  A    between atoms: C_16  and  C_30
    4  A    between atoms: C_27  and  O_29
    5  A    between atoms: O_29  and  C_32
    6  A    between atoms: C_30  and  C_33
                            x       y       z     vdW  Elec       q    Type
                         _______ _______ _______ _____ _____    ______ ____

>  <TORSDO>
F 6

$$$$
