=
 OpenBabel11042418293D

 30 34  0  0  1  0  0  0  0  0999 V2000
  188.1850  176.2020  145.9540 C   0  0  0  0  0  0  0  0  0  0  0  0
  186.3600  177.9590  145.6380 C   0  0  0  0  0  0  0  0  0  0  0  0
  187.5350  177.5360  146.7880 S   0  0  0  0  0  0  0  0  0  0  0  0
  188.8710  174.7090  143.1370 N   0  0  0  0  0  2  0  0  0  0  0  0
  185.1630  177.9170  141.1390 C   0  0  0  0  0  1  0  0  0  0  0  0
  185.7930  179.3250  145.4530 C   0  0  0  0  0  2  0  0  0  0  0  0
  184.3920  178.8050  143.3880 C   0  0  0  0  0  3  0  0  0  0  0  0
  187.8300  175.6520  143.4200 C   0  0  0  0  0  0  0  0  0  0  0  0
  186.5150  177.0590  144.6080 C   0  0  0  0  0  0  0  0  0  0  0  0
  186.2540  177.1740  143.1960 C   0  0  0  0  0  0  0  0  0  0  0  0
  187.4940  176.1250  144.7590 C   0  0  0  0  0  0  0  0  0  0  0  0
  184.5480  179.3410  144.6090 C   0  0  0  0  0  3  0  0  0  0  0  0
  187.1180  176.2540  142.5070 N   0  0  0  0  0  0  0  0  0  0  0  0
  185.3510  177.9750  142.6150 C   0  0  0  0  0  0  0  0  0  0  0  0
  192.2680  177.1730  144.8450 N   0  0  0  0  0  2  0  0  0  0  0  0
  194.2660  176.0940  145.1650 O   0  0  0  0  0  0  0  0  0  0  0  0
  193.0180  176.1560  145.3160 C   0  0  0  0  0  0  0  0  0  0  0  0
  190.7050  175.8940  145.8080 C   0  0  0  0  0  0  0  0  0  0  0  0
  190.9740  177.0280  145.1220 N   0  0  0  0  0  0  0  0  0  0  0  0
  189.4000  175.5060  146.2460 N   0  0  0  0  0  2  0  0  0  0  0  0
  192.0980  174.9990  146.1200 S   0  0  0  0  0  0  0  0  0  0  0  0
  190.9060  173.7900  140.1550 N   0  0  0  0  0  2  0  0  0  0  0  0
  189.9840  173.0470  139.3010 C   0  0  1  0  0  3  0  0  0  0  0  0
  188.5620  173.5550  139.5040 C   0  0  0  0  0  2  0  0  0  0  0  0
  190.5130  174.2810  141.4430 C   0  0  0  0  0  0  0  0  0  0  0  0
  191.4850  174.9250  142.2620 N   0  0  0  0  0  1  0  0  0  0  0  0
  188.2170  173.4770  140.9880 C   0  0  0  0  0  2  0  0  0  0  0  0
  189.2330  174.1940  141.8460 C   0  0  0  0  0  0  0  0  0  0  0  0
  189.6920  174.1640  137.1930 O   0  0  0  0  0  1  0  0  0  0  0  0
  190.4050  173.1540  137.8430 C   0  0  0  0  0  2  0  0  0  0  0  0
  1 20  1  0  0  0  0
  1  3  1  0  0  0  0
  2  3  1  0  0  0  0
  4  8  1  0  0  0  0
  5 14  1  0  0  0  0
  6  2  1  0  0  0  0
  7 12  2  0  0  0  0
  8 11  1  0  0  0  0
  9 11  1  0  0  0  0
  9  2  2  0  0  0  0
 10  9  1  0  0  0  0
 11  1  2  0  0  0  0
 12  6  1  0  0  0  0
 13 10  1  0  0  0  0
 13  8  2  0  0  0  0
 14 10  2  0  0  0  0
 14  7  1  0  0  0  0
 15 19  1  0  0  0  0
 15 17  1  0  0  0  0
 16 17  2  0  0  0  0
 17 21  1  0  0  0  0
 18 21  1  0  0  0  0
 18 20  1  0  0  0  0
 19 18  2  0  0  0  0
 22 25  1  0  0  0  0
 23 30  1  6  0  0  0
 23 24  1  0  0  0  0
 23 22  1  0  0  0  0
 24 27  1  0  0  0  0
 25 28  2  0  0  0  0
 25 26  1  0  0  0  0
 27 28  1  0  0  0  0
 28  4  1  0  0  0  0
 29 30  1  0  0  0  0
M  END
>  <MODEL>
1

>  <REMARK>
 VINA RESULT:      -7.5      0.000      0.000
  Name = 
  3 active torsions:
  status: ('A' for Active; 'I' for Inactive)
    1  A    between atoms: C_1  and  N_25
    2  A    between atoms: N_7  and  C_30
    3  A    between atoms: CA_8  and  C_22
                            x       y       z     vdW  Elec       q    Type
                         _______ _______ _______ _____ _____    ______ ____

>  <TORSDO>
F 3

$$$$
=
 OpenBabel11042418293D

 30 34  0  0  1  0  0  0  0  0999 V2000
  187.0770  177.2620  141.8640 C   0  0  0  0  0  0  0  0  0  0  0  0
  185.3130  178.1880  143.4580 C   0  0  0  0  0  0  0  0  0  0  0  0
  185.3990  177.5400  141.8910 S   0  0  0  0  0  0  0  0  0  0  0  0
  189.8400  176.5700  143.4520 N   0  0  0  0  0  2  0  0  0  0  0  0
  187.2040  178.2860  147.7110 C   0  0  0  0  0  1  0  0  0  0  0  0
  184.1090  178.1540  144.3360 C   0  0  0  0  0  2  0  0  0  0  0  0
  185.2050  179.1520  146.4100 C   0  0  0  0  0  3  0  0  0  0  0  0
  188.6650  177.2230  143.9450 C   0  0  0  0  0  0  0  0  0  0  0  0
  186.6010  178.1540  143.9400 C   0  0  0  0  0  0  0  0  0  0  0  0
  187.1130  178.0320  145.2820 C   0  0  0  0  0  0  0  0  0  0  0  0
  187.5500  177.6480  143.1040 C   0  0  0  0  0  0  0  0  0  0  0  0
  184.2070  179.0840  145.5140 C   0  0  0  0  0  3  0  0  0  0  0  0
  188.4210  177.4400  145.2080 N   0  0  0  0  0  0  0  0  0  0  0  0
  186.4980  178.4220  146.4070 C   0  0  0  0  0  0  0  0  0  0  0  0
  188.0910  173.0410  141.9150 N   0  0  0  0  0  2  0  0  0  0  0  0
  189.3340  171.7220  140.5120 O   0  0  0  0  0  0  0  0  0  0  0  0
  188.8460  172.8410  140.8160 C   0  0  0  0  0  0  0  0  0  0  0  0
  188.1200  175.0960  141.0320 C   0  0  0  0  0  0  0  0  0  0  0  0
  187.6830  174.3020  142.0350 N   0  0  0  0  0  0  0  0  0  0  0  0
  187.8110  176.4870  140.9110 N   0  0  0  0  0  2  0  0  0  0  0  0
  189.0510  174.2470  139.9140 S   0  0  0  0  0  0  0  0  0  0  0  0
  193.1410  176.6120  145.1790 N   0  0  0  0  0  2  0  0  0  0  0  0
  193.1970  175.3370  145.8880 C   0  0  1  0  0  3  0  0  0  0  0  0
  192.4080  174.2810  145.1240 C   0  0  0  0  0  2  0  0  0  0  0  0
  191.9890  177.0060  144.4230 C   0  0  0  0  0  0  0  0  0  0  0  0
  191.9660  178.2990  143.8240 N   0  0  0  0  0  1  0  0  0  0  0  0
  190.9890  174.7930  144.8960 C   0  0  0  0  0  2  0  0  0  0  0  0
  190.9740  176.1470  144.2270 C   0  0  0  0  0  0  0  0  0  0  0  0
  195.4800  175.5190  145.1630 O   0  0  0  0  0  1  0  0  0  0  0  0
  194.6410  174.9060  146.0960 C   0  0  0  0  0  2  0  0  0  0  0  0
  1  3  1  0  0  0  0
  1 11  2  0  0  0  0
  2  9  2  0  0  0  0
  2  6  1  0  0  0  0
  3  2  1  0  0  0  0
  4  8  1  0  0  0  0
  4 28  1  0  0  0  0
  6 12  1  0  0  0  0
  8 13  2  0  0  0  0
  9 10  1  0  0  0  0
 10 14  2  0  0  0  0
 11  9  1  0  0  0  0
 11  8  1  0  0  0  0
 12  7  2  0  0  0  0
 13 10  1  0  0  0  0
 14  7  1  0  0  0  0
 14  5  1  0  0  0  0
 15 19  1  0  0  0  0
 16 17  2  0  0  0  0
 17 15  1  0  0  0  0
 18 19  2  0  0  0  0
 20 18  1  0  0  0  0
 20  1  1  0  0  0  0
 21 17  1  0  0  0  0
 21 18  1  0  0  0  0
 22 23  1  0  0  0  0
 23 30  1  6  0  0  0
 24 23  1  0  0  0  0
 25 22  1  0  0  0  0
 26 25  1  0  0  0  0
 27 24  1  0  0  0  0
 28 25  2  0  0  0  0
 28 27  1  0  0  0  0
 29 30  1  0  0  0  0
M  END
>  <MODEL>
2

>  <REMARK>
 VINA RESULT:      -7.1      2.484      5.357
  Name = 
  3 active torsions:
  status: ('A' for Active; 'I' for Inactive)
    1  A    between atoms: C_1  and  N_25
    2  A    between atoms: N_7  and  C_30
    3  A    between atoms: CA_8  and  C_22
                            x       y       z     vdW  Elec       q    Type
                         _______ _______ _______ _____ _____    ______ ____

>  <TORSDO>
F 3

$$$$
=
 OpenBabel11042418293D

 30 34  0  0  1  0  0  0  0  0999 V2000
  188.2290  176.2250  146.0680 C   0  0  0  0  0  0  0  0  0  0  0  0
  186.4900  177.9120  145.2660 C   0  0  0  0  0  0  0  0  0  0  0  0
  187.3960  177.5840  146.6640 S   0  0  0  0  0  0  0  0  0  0  0  0
  189.5270  174.6000  143.5560 N   0  0  0  0  0  2  0  0  0  0  0  0
  186.2890  177.5950  140.6260 C   0  0  0  0  0  1  0  0  0  0  0  0
  185.9560  179.2500  144.8850 C   0  0  0  0  0  2  0  0  0  0  0  0
  185.0400  178.5820  142.6020 C   0  0  0  0  0  3  0  0  0  0  0  0
  188.4360  175.5290  143.5530 C   0  0  0  0  0  0  0  0  0  0  0  0
  186.8750  176.9620  144.3490 C   0  0  0  0  0  0  0  0  0  0  0  0
  186.9230  176.9940  142.9080 C   0  0  0  0  0  0  0  0  0  0  0  0
  187.8130  176.0650  144.7590 C   0  0  0  0  0  0  0  0  0  0  0  0
  184.9210  179.1870  143.7950 C   0  0  0  0  0  3  0  0  0  0  0  0
  187.9280  176.0610  142.4760 N   0  0  0  0  0  0  0  0  0  0  0  0
  186.1540  177.7380  142.1030 C   0  0  0  0  0  0  0  0  0  0  0  0
  192.4620  177.0020  145.4960 N   0  0  0  0  0  2  0  0  0  0  0  0
  194.3530  175.9800  146.2930 O   0  0  0  0  0  0  0  0  0  0  0  0
  193.1000  176.0670  146.2300 C   0  0  0  0  0  0  0  0  0  0  0  0
  190.7310  175.8910  146.3780 C   0  0  0  0  0  0  0  0  0  0  0  0
  191.1370  176.9050  145.5800 N   0  0  0  0  0  0  0  0  0  0  0  0
  189.3630  175.5790  146.6540 N   0  0  0  0  0  2  0  0  0  0  0  0
  192.0320  175.0500  147.0410 S   0  0  0  0  0  0  0  0  0  0  0  0
  190.2570  172.3190  140.7030 N   0  0  0  0  0  2  0  0  0  0  0  0
  191.3820  172.9450  140.0150 C   0  0  1  0  0  3  0  0  0  0  0  0
  192.2420  173.7110  141.0130 C   0  0  0  0  0  2  0  0  0  0  0  0
  189.6370  172.9250  141.8440 C   0  0  0  0  0  0  0  0  0  0  0  0
  188.4900  172.3040  142.4180 N   0  0  0  0  0  1  0  0  0  0  0  0
  191.3590  174.7010  141.7680 C   0  0  0  0  0  2  0  0  0  0  0  0
  190.1660  174.0270  142.4050 C   0  0  0  0  0  0  0  0  0  0  0  0
  191.6360  170.6310  139.4200 O   0  0  0  0  0  1  0  0  0  0  0  0
  192.1990  171.9010  139.2690 C   0  0  0  0  0  2  0  0  0  0  0  0
  1 20  1  0  0  0  0
  1  3  1  0  0  0  0
  2  3  1  0  0  0  0
  5 14  1  0  0  0  0
  6  2  1  0  0  0  0
  7 12  2  0  0  0  0
  8  4  1  0  0  0  0
  8 11  1  0  0  0  0
  9 11  1  0  0  0  0
  9  2  2  0  0  0  0
 10  9  1  0  0  0  0
 11  1  2  0  0  0  0
 12  6  1  0  0  0  0
 13 10  1  0  0  0  0
 13  8  2  0  0  0  0
 14  7  1  0  0  0  0
 14 10  2  0  0  0  0
 15 19  1  0  0  0  0
 15 17  1  0  0  0  0
 17 16  2  0  0  0  0
 17 21  1  0  0  0  0
 18 20  1  0  0  0  0
 18 21  1  0  0  0  0
 19 18  2  0  0  0  0
 22 25  1  0  0  0  0
 23 30  1  1  0  0  0
 23 22  1  0  0  0  0
 23 24  1  0  0  0  0
 24 27  1  0  0  0  0
 25 28  2  0  0  0  0
 25 26  1  0  0  0  0
 27 28  1  0  0  0  0
 28  4  1  0  0  0  0
 30 29  1  0  0  0  0
M  END
>  <MODEL>
3

>  <REMARK>
 VINA RESULT:      -7.0      1.427      1.760
  Name = 
  3 active torsions:
  status: ('A' for Active; 'I' for Inactive)
    1  A    between atoms: C_1  and  N_25
    2  A    between atoms: N_7  and  C_30
    3  A    between atoms: CA_8  and  C_22
                            x       y       z     vdW  Elec       q    Type
                         _______ _______ _______ _____ _____    ______ ____

>  <TORSDO>
F 3

$$$$
=
 OpenBabel11042418293D

 30 34  0  0  1  0  0  0  0  0999 V2000
  186.9560  177.3520  142.2450 C   0  0  0  0  0  0  0  0  0  0  0  0
  185.4680  178.0880  144.1830 C   0  0  0  0  0  0  0  0  0  0  0  0
  185.2990  177.5410  142.5850 S   0  0  0  0  0  0  0  0  0  0  0  0
  189.9830  176.7090  143.2730 N   0  0  0  0  0  2  0  0  0  0  0  0
  188.0810  178.0260  148.0360 C   0  0  0  0  0  1  0  0  0  0  0  0
  184.4410  177.9390  145.2540 C   0  0  0  0  0  2  0  0  0  0  0  0
  185.8480  178.8650  147.1670 C   0  0  0  0  0  3  0  0  0  0  0  0
  188.8880  177.2700  144.0080 C   0  0  0  0  0  0  0  0  0  0  0  0
  186.8220  178.0910  144.4290 C   0  0  0  0  0  0  0  0  0  0  0  0
  187.5680  177.9150  145.6490 C   0  0  0  0  0  0  0  0  0  0  0  0
  187.6260  177.6860  143.4070 C   0  0  0  0  0  0  0  0  0  0  0  0
  184.7100  178.8000  146.4570 C   0  0  0  0  0  3  0  0  0  0  0  0
  188.8650  177.3970  145.3060 N   0  0  0  0  0  0  0  0  0  0  0  0
  187.1490  178.2050  146.8880 C   0  0  0  0  0  0  0  0  0  0  0  0
  187.8200  173.1320  141.7040 N   0  0  0  0  0  2  0  0  0  0  0  0
  188.8330  171.9550  140.0180 O   0  0  0  0  0  0  0  0  0  0  0  0
  188.4260  173.0420  140.5030 C   0  0  0  0  0  0  0  0  0  0  0  0
  187.8110  175.2730  141.0550 C   0  0  0  0  0  0  0  0  0  0  0  0
  187.4740  174.3800  142.0130 N   0  0  0  0  0  0  0  0  0  0  0  0
  187.5390  176.6750  141.1270 N   0  0  0  0  0  2  0  0  0  0  0  0
  188.5670  174.5360  139.7420 S   0  0  0  0  0  0  0  0  0  0  0  0
  192.7600  174.5430  144.4890 N   0  0  0  0  0  2  0  0  0  0  0  0
  193.8520  175.4730  144.7640 C   0  0  1  0  0  3  0  0  0  0  0  0
  193.2920  176.8240  145.1880 C   0  0  0  0  0  2  0  0  0  0  0  0
  191.5090  174.9870  143.9480 C   0  0  0  0  0  0  0  0  0  0  0  0
  190.5150  174.0180  143.6250 N   0  0  0  0  0  1  0  0  0  0  0  0
  192.3250  177.3170  144.1150 C   0  0  0  0  0  2  0  0  0  0  0  0
  191.2520  176.2990  143.8070 C   0  0  0  0  0  0  0  0  0  0  0  0
  196.0990  174.8590  145.3560 O   0  0  0  0  0  1  0  0  0  0  0  0
  194.7830  174.9030  145.8240 C   0  0  0  0  0  2  0  0  0  0  0  0
  1  3  1  0  0  0  0
  1 11  2  0  0  0  0
  2  9  2  0  0  0  0
  2  6  1  0  0  0  0
  3  2  1  0  0  0  0
  4 28  1  0  0  0  0
  4  8  1  0  0  0  0
  6 12  1  0  0  0  0
  8 13  2  0  0  0  0
  9 10  1  0  0  0  0
 10 14  2  0  0  0  0
 11  8  1  0  0  0  0
 11  9  1  0  0  0  0
 12  7  2  0  0  0  0
 13 10  1  0  0  0  0
 14  7  1  0  0  0  0
 14  5  1  0  0  0  0
 15 19  1  0  0  0  0
 16 17  2  0  0  0  0
 17 15  1  0  0  0  0
 18 20  1  0  0  0  0
 18 19  2  0  0  0  0
 20  1  1  0  0  0  0
 21 17  1  0  0  0  0
 21 18  1  0  0  0  0
 22 23  1  0  0  0  0
 23 24  1  0  0  0  0
 23 30  1  1  0  0  0
 25 22  1  0  0  0  0
 26 25  1  0  0  0  0
 27 24  1  0  0  0  0
 28 25  2  0  0  0  0
 28 27  1  0  0  0  0
 29 30  1  0  0  0  0
M  END
>  <MODEL>
4

>  <REMARK>
 VINA RESULT:      -7.0      2.546      5.461
  Name = 
  3 active torsions:
  status: ('A' for Active; 'I' for Inactive)
    1  A    between atoms: C_1  and  N_25
    2  A    between atoms: N_7  and  C_30
    3  A    between atoms: CA_8  and  C_22
                            x       y       z     vdW  Elec       q    Type
                         _______ _______ _______ _____ _____    ______ ____

>  <TORSDO>
F 3

$$$$
=
 OpenBabel11042418293D

 30 34  0  0  1  0  0  0  0  0999 V2000
  188.9120  176.2970  145.3920 C   0  0  0  0  0  0  0  0  0  0  0  0
  187.1300  177.6020  146.6710 C   0  0  0  0  0  0  0  0  0  0  0  0
  188.7490  177.1280  146.8690 S   0  0  0  0  0  0  0  0  0  0  0  0
  188.0730  175.9310  142.2630 N   0  0  0  0  0  2  0  0  0  0  0  0
  183.7530  178.6610  143.6470 C   0  0  0  0  0  1  0  0  0  0  0  0
  186.5010  178.7920  147.3110 C   0  0  0  0  0  2  0  0  0  0  0  0
  184.2450  178.6210  146.1370 C   0  0  0  0  0  3  0  0  0  0  0  0
  187.3010  176.4790  143.3380 C   0  0  0  0  0  0  0  0  0  0  0  0
  186.7540  177.1180  145.4390 C   0  0  0  0  0  0  0  0  0  0  0  0
  185.7870  177.5960  144.4830 C   0  0  0  0  0  0  0  0  0  0  0  0
  187.7010  176.4330  144.7400 C   0  0  0  0  0  0  0  0  0  0  0  0
  184.9980  178.7800  147.2370 C   0  0  0  0  0  3  0  0  0  0  0  0
  186.1950  177.1520  143.1780 N   0  0  0  0  0  0  0  0  0  0  0  0
  184.6850  178.3080  144.7540 C   0  0  0  0  0  0  0  0  0  0  0  0
  190.2590  172.2480  144.5940 N   0  0  0  0  0  2  0  0  0  0  0  0
  192.2040  171.3980  143.7280 O   0  0  0  0  0  0  0  0  0  0  0  0
  191.4960  172.3790  144.0720 C   0  0  0  0  0  0  0  0  0  0  0  0
  190.4930  174.4730  144.5900 C   0  0  0  0  0  0  0  0  0  0  0  0
  189.6970  173.4200  144.8830 N   0  0  0  0  0  0  0  0  0  0  0  0
  190.1250  175.8420  144.7850 N   0  0  0  0  0  2  0  0  0  0  0  0
  191.9670  173.9890  143.9350 S   0  0  0  0  0  0  0  0  0  0  0  0
  187.8180  174.8940  138.6930 N   0  0  0  0  0  2  0  0  0  0  0  0
  186.9120  175.8690  138.0950 C   0  0  1  0  0  3  0  0  0  0  0  0
  187.0460  177.2090  138.8070 C   0  0  0  0  0  2  0  0  0  0  0  0
  188.1390  174.9180  140.0900 C   0  0  0  0  0  0  0  0  0  0  0  0
  188.9630  173.8870  140.6270 N   0  0  0  0  0  1  0  0  0  0  0  0
  186.8170  176.9990  140.3020 C   0  0  0  0  0  2  0  0  0  0  0  0
  187.7220  175.9310  140.8700 C   0  0  0  0  0  0  0  0  0  0  0  0
  187.4390  177.3390  136.2680 O   0  0  0  0  0  1  0  0  0  0  0  0
  187.1860  176.0060  136.6050 C   0  0  0  0  0  2  0  0  0  0  0  0
  1  3  1  0  0  0  0
  2  3  1  0  0  0  0
  2  6  1  0  0  0  0
  4  8  1  0  0  0  0
  5 14  1  0  0  0  0
  7 12  2  0  0  0  0
  8 11  1  0  0  0  0
  9  2  2  0  0  0  0
 10 14  2  0  0  0  0
 10  9  1  0  0  0  0
 11  1  2  0  0  0  0
 11  9  1  0  0  0  0
 12  6  1  0  0  0  0
 13  8  2  0  0  0  0
 13 10  1  0  0  0  0
 14  7  1  0  0  0  0
 15 19  1  0  0  0  0
 16 17  2  0  0  0  0
 17 15  1  0  0  0  0
 18 20  1  0  0  0  0
 18 19  2  0  0  0  0
 20  1  1  0  0  0  0
 21 17  1  0  0  0  0
 21 18  1  0  0  0  0
 22 25  1  0  0  0  0
 23 30  1  6  0  0  0
 23 22  1  0  0  0  0
 23 24  1  0  0  0  0
 24 27  1  0  0  0  0
 25 26  1  0  0  0  0
 25 28  2  0  0  0  0
 27 28  1  0  0  0  0
 28  4  1  0  0  0  0
 29 30  1  0  0  0  0
M  END
>  <MODEL>
5

>  <REMARK>
 VINA RESULT:      -6.8      2.387      3.006
  Name = 
  3 active torsions:
  status: ('A' for Active; 'I' for Inactive)
    1  A    between atoms: C_1  and  N_25
    2  A    between atoms: N_7  and  C_30
    3  A    between atoms: CA_8  and  C_22
                            x       y       z     vdW  Elec       q    Type
                         _______ _______ _______ _____ _____    ______ ____

>  <TORSDO>
F 3

$$$$
=
 OpenBabel11042418293D

 30 34  0  0  1  0  0  0  0  0999 V2000
  191.2890  174.7370  146.1830 C   0  0  0  0  0  0  0  0  0  0  0  0
  189.3030  176.2530  146.7020 C   0  0  0  0  0  0  0  0  0  0  0  0
  190.8300  175.8890  147.3480 S   0  0  0  0  0  0  0  0  0  0  0  0
  191.1360  173.6120  143.1260 N   0  0  0  0  0  2  0  0  0  0  0  0
  186.6800  176.4610  142.8610 C   0  0  0  0  0  1  0  0  0  0  0  0
  188.5770  177.5410  146.8890 C   0  0  0  0  0  2  0  0  0  0  0  0
  186.6240  177.0290  145.3340 C   0  0  0  0  0  3  0  0  0  0  0  0
  190.1630  174.3760  143.8490 C   0  0  0  0  0  0  0  0  0  0  0  0
  189.1910  175.4790  145.5690 C   0  0  0  0  0  0  0  0  0  0  0  0
  188.4630  175.6870  144.3430 C   0  0  0  0  0  0  0  0  0  0  0  0
  190.2500  174.6760  145.2740 C   0  0  0  0  0  0  0  0  0  0  0  0
  187.1260  177.4660  146.4990 C   0  0  0  0  0  3  0  0  0  0  0  0
  189.1320  174.9580  143.3000 N   0  0  0  0  0  0  0  0  0  0  0  0
  187.3450  176.4090  144.1930 C   0  0  0  0  0  0  0  0  0  0  0  0
  194.7630  176.4930  144.2620 N   0  0  0  0  0  2  0  0  0  0  0  0
  196.8540  175.6830  143.7860 O   0  0  0  0  0  0  0  0  0  0  0  0
  195.7060  175.5290  144.2760 C   0  0  0  0  0  0  0  0  0  0  0  0
  193.6730  174.8390  145.3020 C   0  0  0  0  0  0  0  0  0  0  0  0
  193.6260  176.1080  144.8370 N   0  0  0  0  0  0  0  0  0  0  0  0
  192.5940  174.1870  145.9770 N   0  0  0  0  0  2  0  0  0  0  0  0
  195.1690  174.1180  145.0210 S   0  0  0  0  0  0  0  0  0  0  0  0
  191.9110  173.5770  139.4820 N   0  0  0  0  0  2  0  0  0  0  0  0
  191.0930  172.4930  138.9470 C   0  0  1  0  0  3  0  0  0  0  0  0
  189.8150  172.3520  139.7650 C   0  0  0  0  0  2  0  0  0  0  0  0
  191.9360  173.8840  140.8820 C   0  0  0  0  0  0  0  0  0  0  0  0
  192.8190  174.8990  141.3500 N   0  0  0  0  0  1  0  0  0  0  0  0
  190.1870  172.1690  141.2340 C   0  0  0  0  0  2  0  0  0  0  0  0
  191.0930  173.2710  141.7320 C   0  0  0  0  0  0  0  0  0  0  0  0
  190.9910  174.0750  137.1410 O   0  0  0  0  0  1  0  0  0  0  0  0
  190.7830  172.7350  137.4770 C   0  0  0  0  0  2  0  0  0  0  0  0
  1  3  1  0  0  0  0
  2  6  1  0  0  0  0
  2  3  1  0  0  0  0
  4  8  1  0  0  0  0
  5 14  1  0  0  0  0
  7 12  2  0  0  0  0
  8 11  1  0  0  0  0
  9  2  2  0  0  0  0
 10  9  1  0  0  0  0
 11  9  1  0  0  0  0
 11  1  2  0  0  0  0
 12  6  1  0  0  0  0
 13  8  2  0  0  0  0
 13 10  1  0  0  0  0
 14 10  2  0  0  0  0
 14  7  1  0  0  0  0
 15 17  1  0  0  0  0
 15 19  1  0  0  0  0
 16 17  2  0  0  0  0
 17 21  1  0  0  0  0
 18 20  1  0  0  0  0
 19 18  2  0  0  0  0
 20  1  1  0  0  0  0
 21 18  1  0  0  0  0
 22 25  1  0  0  0  0
 23 30  1  6  0  0  0
 23 22  1  0  0  0  0
 23 24  1  0  0  0  0
 24 27  1  0  0  0  0
 25 26  1  0  0  0  0
 25 28  2  0  0  0  0
 27 28  1  0  0  0  0
 28  4  1  0  0  0  0
 29 30  1  0  0  0  0
M  END
>  <MODEL>
6

>  <REMARK>
 VINA RESULT:      -6.7      2.022      2.780
  Name = 
  3 active torsions:
  status: ('A' for Active; 'I' for Inactive)
    1  A    between atoms: C_1  and  N_25
    2  A    between atoms: N_7  and  C_30
    3  A    between atoms: CA_8  and  C_22
                            x       y       z     vdW  Elec       q    Type
                         _______ _______ _______ _____ _____    ______ ____

>  <TORSDO>
F 3

$$$$
=
 OpenBabel11042418293D

 30 34  0  0  1  0  0  0  0  0999 V2000
  191.3440  172.6750  143.5710 C   0  0  0  0  0  0  0  0  0  0  0  0
  193.7790  173.1440  144.1750 C   0  0  0  0  0  0  0  0  0  0  0  0
  192.9000  172.2300  143.0460 S   0  0  0  0  0  0  0  0  0  0  0  0
  189.3580  174.8720  144.9350 N   0  0  0  0  0  2  0  0  0  0  0  0
  193.8300  176.9290  146.8850 C   0  0  0  0  0  1  0  0  0  0  0  0
  195.1650  173.6530  143.9730 C   0  0  0  0  0  2  0  0  0  0  0  0
  195.3140  175.0160  146.1220 C   0  0  0  0  0  3  0  0  0  0  0  0
  190.7670  174.6990  145.1270 C   0  0  0  0  0  0  0  0  0  0  0  0
  192.8340  173.8010  144.9290 C   0  0  0  0  0  0  0  0  0  0  0  0
  192.8810  175.0610  145.6260 C   0  0  0  0  0  0  0  0  0  0  0  0
  191.5320  173.5700  144.6080 C   0  0  0  0  0  0  0  0  0  0  0  0
  195.8120  174.1310  145.2440 C   0  0  0  0  0  3  0  0  0  0  0  0
  191.5390  175.5690  145.7170 N   0  0  0  0  0  0  0  0  0  0  0  0
  193.9730  175.6540  146.1280 C   0  0  0  0  0  0  0  0  0  0  0  0
  190.1530  173.7880  139.5480 N   0  0  0  0  0  2  0  0  0  0  0  0
  188.1830  173.5800  138.3950 O   0  0  0  0  0  0  0  0  0  0  0  0
  188.8650  173.4030  139.4360 C   0  0  0  0  0  0  0  0  0  0  0  0
  189.7960  172.8870  141.5640 C   0  0  0  0  0  0  0  0  0  0  0  0
  190.6750  173.4990  140.7380 N   0  0  0  0  0  0  0  0  0  0  0  0
  190.1050  172.4540  142.8920 N   0  0  0  0  0  2  0  0  0  0  0  0
  188.2930  172.6640  140.8360 S   0  0  0  0  0  0  0  0  0  0  0  0
  187.3790  177.0050  147.2630 N   0  0  0  0  0  2  0  0  0  0  0  0
  187.0320  178.1810  146.4720 C   0  0  1  0  0  3  0  0  0  0  0  0
  186.8980  177.8010  145.0030 C   0  0  0  0  0  2  0  0  0  0  0  0
  188.1950  175.9520  146.7330 C   0  0  0  0  0  0  0  0  0  0  0  0
  188.5660  174.8710  147.5840 N   0  0  0  0  0  1  0  0  0  0  0  0
  188.1860  177.1180  144.5500 C   0  0  0  0  0  2  0  0  0  0  0  0
  188.5510  175.9500  145.4360 C   0  0  0  0  0  0  0  0  0  0  0  0
  184.6490  178.3950  146.2530 O   0  0  0  0  0  1  0  0  0  0  0  0
  185.7540  178.8180  146.9960 C   0  0  0  0  0  2  0  0  0  0  0  0
  1 11  2  0  0  0  0
  2  9  2  0  0  0  0
  3  1  1  0  0  0  0
  3  2  1  0  0  0  0
  4  8  1  0  0  0  0
  4 28  1  0  0  0  0
  6  2  1  0  0  0  0
  6 12  1  0  0  0  0
  7 14  1  0  0  0  0
  8 13  2  0  0  0  0
  9 10  1  0  0  0  0
 10 13  1  0  0  0  0
 10 14  2  0  0  0  0
 11  9  1  0  0  0  0
 11  8  1  0  0  0  0
 12  7  2  0  0  0  0
 14  5  1  0  0  0  0
 15 19  1  0  0  0  0
 16 17  2  0  0  0  0
 17 15  1  0  0  0  0
 17 21  1  0  0  0  0
 18 20  1  0  0  0  0
 19 18  2  0  0  0  0
 20  1  1  0  0  0  0
 21 18  1  0  0  0  0
 23 30  1  1  0  0  0
 23 22  1  0  0  0  0
 24 23  1  0  0  0  0
 25 22  1  0  0  0  0
 25 26  1  0  0  0  0
 27 24  1  0  0  0  0
 27 28  1  0  0  0  0
 28 25  2  0  0  0  0
 29 30  1  0  0  0  0
M  END
>  <MODEL>
7

>  <REMARK>
 VINA RESULT:      -6.7      3.031      7.922
  Name = 
  3 active torsions:
  status: ('A' for Active; 'I' for Inactive)
    1  A    between atoms: C_1  and  N_25
    2  A    between atoms: N_7  and  C_30
    3  A    between atoms: CA_8  and  C_22
                            x       y       z     vdW  Elec       q    Type
                         _______ _______ _______ _____ _____    ______ ____

>  <TORSDO>
F 3

$$$$
=
 OpenBabel11042418293D

 30 34  0  0  1  0  0  0  0  0999 V2000
  188.7100  175.7680  142.2960 C   0  0  0  0  0  0  0  0  0  0  0  0
  187.3130  176.7820  144.1750 C   0  0  0  0  0  0  0  0  0  0  0  0
  187.0700  175.9810  142.6980 S   0  0  0  0  0  0  0  0  0  0  0  0
  191.8050  175.3510  143.2350 N   0  0  0  0  0  2  0  0  0  0  0  0
  190.1350  177.3880  147.8270 C   0  0  0  0  0  1  0  0  0  0  0  0
  186.3510  176.7900  145.3140 C   0  0  0  0  0  2  0  0  0  0  0  0
  187.8370  178.0380  146.9680 C   0  0  0  0  0  3  0  0  0  0  0  0
  190.7390  176.0040  143.9330 C   0  0  0  0  0  0  0  0  0  0  0  0
  188.6770  176.8480  144.3370 C   0  0  0  0  0  0  0  0  0  0  0  0
  189.4950  176.8840  145.5230 C   0  0  0  0  0  0  0  0  0  0  0  0
  189.4340  176.2970  143.3480 C   0  0  0  0  0  0  0  0  0  0  0  0
  186.6640  177.8400  146.3460 C   0  0  0  0  0  3  0  0  0  0  0  0
  190.7840  176.3400  145.1930 N   0  0  0  0  0  0  0  0  0  0  0  0
  189.1370  177.3630  146.7220 C   0  0  0  0  0  0  0  0  0  0  0  0
  189.6930  171.5410  142.4020 N   0  0  0  0  0  2  0  0  0  0  0  0
  190.6440  170.1250  140.8700 O   0  0  0  0  0  0  0  0  0  0  0  0
  190.2280  171.2670  141.1940 C   0  0  0  0  0  0  0  0  0  0  0  0
  189.5670  173.5420  141.4110 C   0  0  0  0  0  0  0  0  0  0  0  0
  189.3220  172.8130  142.5230 N   0  0  0  0  0  0  0  0  0  0  0  0
  189.2480  174.9290  141.2690 N   0  0  0  0  0  2  0  0  0  0  0  0
  190.2670  172.6160  140.1900 S   0  0  0  0  0  0  0  0  0  0  0  0
  194.6290  173.5240  144.8380 N   0  0  0  0  0  2  0  0  0  0  0  0
  195.7750  174.4140  144.6780 C   0  0  1  0  0  3  0  0  0  0  0  0
  195.3110  175.8650  144.6750 C   0  0  0  0  0  2  0  0  0  0  0  0
  193.3410  173.8480  144.3000 C   0  0  0  0  0  0  0  0  0  0  0  0
  192.2850  172.8980  144.4180 N   0  0  0  0  0  1  0  0  0  0  0  0
  194.2460  176.0410  143.5960 C   0  0  0  0  0  2  0  0  0  0  0  0
  193.1120  175.0540  143.7510 C   0  0  0  0  0  0  0  0  0  0  0  0
  196.8190  172.8160  146.1370 O   0  0  0  0  0  1  0  0  0  0  0  0
  196.8000  174.1650  145.7740 C   0  0  0  0  0  2  0  0  0  0  0  0
  1  3  1  0  0  0  0
  1 11  2  0  0  0  0
  2  9  2  0  0  0  0
  2  6  1  0  0  0  0
  3  2  1  0  0  0  0
  4 28  1  0  0  0  0
  4  8  1  0  0  0  0
  6 12  1  0  0  0  0
  8 13  2  0  0  0  0
  9 10  1  0  0  0  0
 10 14  2  0  0  0  0
 11  8  1  0  0  0  0
 11  9  1  0  0  0  0
 12  7  2  0  0  0  0
 13 10  1  0  0  0  0
 14  7  1  0  0  0  0
 14  5  1  0  0  0  0
 15 19  1  0  0  0  0
 16 17  2  0  0  0  0
 17 15  1  0  0  0  0
 18 19  2  0  0  0  0
 20 18  1  0  0  0  0
 20  1  1  0  0  0  0
 21 17  1  0  0  0  0
 21 18  1  0  0  0  0
 23 22  1  0  0  0  0
 23 30  1  1  0  0  0
 24 23  1  0  0  0  0
 25 26  1  0  0  0  0
 25 22  1  0  0  0  0
 27 28  1  0  0  0  0
 27 24  1  0  0  0  0
 28 25  2  0  0  0  0
 30 29  1  0  0  0  0
M  END
>  <MODEL>
8

>  <REMARK>
 VINA RESULT:      -6.7      2.870      5.885
  Name = 
  3 active torsions:
  status: ('A' for Active; 'I' for Inactive)
    1  A    between atoms: C_1  and  N_25
    2  A    between atoms: N_7  and  C_30
    3  A    between atoms: CA_8  and  C_22
                            x       y       z     vdW  Elec       q    Type
                         _______ _______ _______ _____ _____    ______ ____

>  <TORSDO>
F 3

$$$$
=
 OpenBabel11042418293D

 30 34  0  0  1  0  0  0  0  0999 V2000
  189.5840  176.5500  146.0360 C   0  0  0  0  0  0  0  0  0  0  0  0
  192.0830  176.7150  146.5260 C   0  0  0  0  0  0  0  0  0  0  0  0
  190.6100  176.8540  147.3590 S   0  0  0  0  0  0  0  0  0  0  0  0
  189.0480  175.0920  143.1690 N   0  0  0  0  0  2  0  0  0  0  0  0
  194.3280  174.7730  142.9390 C   0  0  0  0  0  1  0  0  0  0  0  0
  193.3840  176.3320  147.1430 C   0  0  0  0  0  2  0  0  0  0  0  0
  194.7340  176.2220  144.9830 C   0  0  0  0  0  3  0  0  0  0  0  0
  190.2940  175.4960  143.7480 C   0  0  0  0  0  0  0  0  0  0  0  0
  191.7420  176.4100  145.2280 C   0  0  0  0  0  0  0  0  0  0  0  0
  192.4410  175.6650  144.2100 C   0  0  0  0  0  0  0  0  0  0  0  0
  190.4120  176.3040  144.9570 C   0  0  0  0  0  0  0  0  0  0  0  0
  194.5670  176.6140  146.2560 C   0  0  0  0  0  3  0  0  0  0  0  0
  191.4630  175.1190  143.3090 N   0  0  0  0  0  0  0  0  0  0  0  0
  193.7680  175.5220  144.0990 C   0  0  0  0  0  0  0  0  0  0  0  0
  186.2450  178.9030  144.5660 N   0  0  0  0  0  2  0  0  0  0  0  0
  183.9740  178.6100  144.6590 O   0  0  0  0  0  0  0  0  0  0  0  0
  185.1400  178.2140  144.9160 C   0  0  0  0  0  0  0  0  0  0  0  0
  187.1480  177.1280  145.5850 C   0  0  0  0  0  0  0  0  0  0  0  0
  187.3690  178.2950  144.9390 N   0  0  0  0  0  0  0  0  0  0  0  0
  188.1810  176.2690  146.0750 N   0  0  0  0  0  2  0  0  0  0  0  0
  185.5050  176.7820  145.7210 S   0  0  0  0  0  0  0  0  0  0  0  0
  188.8180  172.1710  140.8680 N   0  0  0  0  0  2  0  0  0  0  0  0
  188.3910  172.7430  139.5950 C   0  0  1  0  0  3  0  0  0  0  0  0
  188.9190  174.1660  139.4600 C   0  0  0  0  0  2  0  0  0  0  0  0
  188.9750  172.9760  142.0430 C   0  0  0  0  0  0  0  0  0  0  0  0
  189.3140  172.3420  143.2740 N   0  0  0  0  0  1  0  0  0  0  0  0
  188.4740  174.9760  140.6740 C   0  0  0  0  0  2  0  0  0  0  0  0
  188.8700  174.3150  141.9740 C   0  0  0  0  0  0  0  0  0  0  0  0
  188.9410  172.6170  137.2600 O   0  0  0  0  0  1  0  0  0  0  0  0
  188.8510  171.8710  138.4370 C   0  0  0  0  0  2  0  0  0  0  0  0
  1 20  1  0  0  0  0
  1  3  1  0  0  0  0
  2  6  1  0  0  0  0
  2  3  1  0  0  0  0
  4  8  1  0  0  0  0
  5 14  1  0  0  0  0
  7 12  2  0  0  0  0
  8 11  1  0  0  0  0
  9  2  2  0  0  0  0
 10  9  1  0  0  0  0
 11  9  1  0  0  0  0
 11  1  2  0  0  0  0
 12  6  1  0  0  0  0
 13  8  2  0  0  0  0
 13 10  1  0  0  0  0
 14 10  2  0  0  0  0
 14  7  1  0  0  0  0
 15 17  1  0  0  0  0
 15 19  1  0  0  0  0
 16 17  2  0  0  0  0
 17 21  1  0  0  0  0
 18 21  1  0  0  0  0
 18 20  1  0  0  0  0
 19 18  2  0  0  0  0
 22 25  1  0  0  0  0
 23 30  1  6  0  0  0
 23 22  1  0  0  0  0
 24 23  1  0  0  0  0
 24 27  1  0  0  0  0
 25 26  1  0  0  0  0
 27 28  1  0  0  0  0
 28 25  2  0  0  0  0
 28  4  1  0  0  0  0
 29 30  1  0  0  0  0
M  END
>  <MODEL>
9

>  <REMARK>
 VINA RESULT:      -6.6      2.646      5.653
  Name = 
  3 active torsions:
  status: ('A' for Active; 'I' for Inactive)
    1  A    between atoms: C_1  and  N_25
    2  A    between atoms: N_7  and  C_30
    3  A    between atoms: CA_8  and  C_22
                            x       y       z     vdW  Elec       q    Type
                         _______ _______ _______ _____ _____    ______ ____

>  <TORSDO>
F 3

$$$$
