=
 OpenBabel11042417493D

 25 27  0  0  1  0  0  0  0  0999 V2000
  185.8870  177.9450  140.0490 N   0  0  0  0  0  0  0  0  0  0  0  0
  185.1820  178.1780  142.3150 C   0  0  0  0  0  0  0  0  0  0  0  0
  186.4370  177.7440  142.7410 C   0  0  0  0  0  3  0  0  0  0  0  0
  184.9230  178.2770  140.9480 C   0  0  0  0  0  3  0  0  0  0  0  0
  187.4240  177.3940  141.8100 C   0  0  0  0  0  0  0  0  0  0  0  0
  187.1150  177.5150  140.4460 C   0  0  0  0  0  3  0  0  0  0  0  0
  190.4330  175.3300  142.9270 C   0  0  0  0  0  3  0  0  0  0  0  0
  188.2110  174.4710  142.2830 C   0  0  0  0  0  1  0  0  0  0  0  0
  190.9400  177.6750  142.9930 C   0  0  0  0  0  3  0  0  0  0  0  0
  191.3470  176.3530  143.1820 C   0  0  0  0  0  0  0  0  0  0  0  0
  189.6810  177.9480  142.5600 N   0  0  0  0  0  0  0  0  0  0  0  0
  188.7660  176.9730  142.2890 C   0  0  0  0  0  0  0  0  0  0  0  0
  189.1420  175.6200  142.4830 C   0  0  0  0  0  0  0  0  0  0  0  0
  192.7060  176.0410  143.6490 C   0  0  0  0  0  0  0  0  0  0  0  0
  192.9000  175.4380  144.8870 O   0  0  0  0  0  1  0  0  0  0  0  0
  193.7070  176.3160  142.9330 O   0  0  0  0  0  0  0  0  0  0  0  0
  184.1430  178.5760  143.3100 C   0  0  0  0  0  2  0  0  0  0  0  0
  185.6580  176.5800  146.8630 C   0  0  0  0  0  3  0  0  0  0  0  0
  186.3130  177.3040  147.7810 C   0  0  0  0  0  3  0  0  0  0  0  0
  184.7580  179.2870  144.4230 N   0  0  0  0  0  2  0  0  0  0  0  0
  185.0690  178.6670  145.6730 C   0  0  0  0  0  0  0  0  0  0  0  0
  185.7130  179.3460  146.5780 N   0  0  0  0  0  0  0  0  0  0  0  0
  187.1660  179.4650  148.4690 N   0  0  0  0  0  1  0  0  0  0  0  0
  184.6490  177.2440  145.9620 C   0  0  0  0  0  2  0  0  0  0  0  0
  186.0240  178.7780  147.8940 C   0  0  2  0  0  3  0  0  0  0  0  0
  1  6  2  0  0  0  0
  1  4  1  0  0  0  0
  2  3  1  0  0  0  0
  2 17  1  0  0  0  0
  4  2  2  0  0  0  0
  5 12  1  0  0  0  0
  5  3  2  0  0  0  0
  6  5  1  0  0  0  0
  7 10  1  0  0  0  0
  8 13  1  0  0  0  0
  9 10  2  0  0  0  0
 10 14  1  0  0  0  0
 11  9  1  0  0  0  0
 12 13  1  0  0  0  0
 12 11  2  0  0  0  0
 13  7  2  0  0  0  0
 14 15  1  0  0  0  0
 16 14  2  0  0  0  0
 17 20  1  0  0  0  0
 18 19  2  0  0  0  0
 19 25  1  0  0  0  0
 20 21  1  0  0  0  0
 21 24  1  0  0  0  0
 21 22  2  0  0  0  0
 22 25  1  0  0  0  0
 24 18  1  0  0  0  0
 25 23  1  6  0  0  0
M  END
>  <MODEL>
1

>  <REMARK>
 VINA RESULT:      -6.9      0.000      0.000
  Name = 
  4 active torsions:
  status: ('A' for Active; 'I' for Inactive)
    1  A    between atoms: C_4  and  C_16
    2  A    between atoms: C_8  and  C_9
    3  A    between atoms: C_8  and  N_13
    4  A    between atoms: C_18  and  C_20
                            x       y       z     vdW  Elec       q    Type
                         _______ _______ _______ _____ _____    ______ ____

>  <TORSDO>
F 4

$$$$
=
 OpenBabel11042417493D

 25 27  0  0  1  0  0  0  0  0999 V2000
  190.8420  173.8490  145.0560 N   0  0  0  0  0  0  0  0  0  0  0  0
  192.0000  175.7560  145.8980 C   0  0  0  0  0  0  0  0  0  0  0  0
  190.8340  176.5110  145.7650 C   0  0  0  0  0  3  0  0  0  0  0  0
  191.9830  174.4090  145.5370 C   0  0  0  0  0  3  0  0  0  0  0  0
  189.6630  175.9300  145.2600 C   0  0  0  0  0  0  0  0  0  0  0  0
  189.6980  174.5700  144.9150 C   0  0  0  0  0  3  0  0  0  0  0  0
  186.8920  178.2570  144.0470 C   0  0  0  0  0  3  0  0  0  0  0  0
  188.9690  177.6830  142.8450 C   0  0  0  0  0  1  0  0  0  0  0  0
  186.4040  177.4290  146.2460 C   0  0  0  0  0  3  0  0  0  0  0  0
  186.0360  178.2070  145.1480 C   0  0  0  0  0  0  0  0  0  0  0  0
  187.5690  176.7300  146.2300 N   0  0  0  0  0  0  0  0  0  0  0  0
  188.4230  176.7450  145.1660 C   0  0  0  0  0  0  0  0  0  0  0  0
  188.0870  177.5360  144.0380 C   0  0  0  0  0  0  0  0  0  0  0  0
  184.7770  178.9690  145.1500 C   0  0  0  0  0  0  0  0  0  0  0  0
  183.8130  178.7250  146.1220 O   0  0  0  0  0  1  0  0  0  0  0  0
  184.5610  179.8490  144.2740 O   0  0  0  0  0  0  0  0  0  0  0  0
  193.2360  176.3710  146.4620 C   0  0  0  0  0  2  0  0  0  0  0  0
  196.3050  173.7520  144.8400 C   0  0  0  0  0  3  0  0  0  0  0  0
  197.0070  174.1610  143.7750 C   0  0  0  0  0  3  0  0  0  0  0  0
  194.1370  176.7680  145.3890 N   0  0  0  0  0  2  0  0  0  0  0  0
  195.2740  175.9940  144.9940 C   0  0  0  0  0  0  0  0  0  0  0  0
  195.9670  176.3660  143.9560 N   0  0  0  0  0  0  0  0  0  0  0  0
  197.4100  175.8810  142.1170 N   0  0  0  0  0  1  0  0  0  0  0  0
  195.6880  174.7660  145.7690 C   0  0  0  0  0  2  0  0  0  0  0  0
  197.1660  175.6390  143.5270 C   0  0  2  0  0  3  0  0  0  0  0  0
  1  4  1  0  0  0  0
  2 17  1  0  0  0  0
  3  2  1  0  0  0  0
  4  2  2  0  0  0  0
  5  3  2  0  0  0  0
  6  1  2  0  0  0  0
  6  5  1  0  0  0  0
  7 10  1  0  0  0  0
  8 13  1  0  0  0  0
 10 14  1  0  0  0  0
 10  9  2  0  0  0  0
 11  9  1  0  0  0  0
 12  5  1  0  0  0  0
 12 11  2  0  0  0  0
 13  7  2  0  0  0  0
 13 12  1  0  0  0  0
 14 15  1  0  0  0  0
 16 14  2  0  0  0  0
 18 24  1  0  0  0  0
 19 18  2  0  0  0  0
 20 17  1  0  0  0  0
 21 20  1  0  0  0  0
 21 24  1  0  0  0  0
 22 21  2  0  0  0  0
 25 23  1  6  0  0  0
 25 19  1  0  0  0  0
 25 22  1  0  0  0  0
M  END
>  <MODEL>
2

>  <REMARK>
 VINA RESULT:      -6.8      4.470      8.565
  Name = 
  4 active torsions:
  status: ('A' for Active; 'I' for Inactive)
    1  A    between atoms: C_4  and  C_16
    2  A    between atoms: C_8  and  C_9
    3  A    between atoms: C_8  and  N_13
    4  A    between atoms: C_18  and  C_20
                            x       y       z     vdW  Elec       q    Type
                         _______ _______ _______ _____ _____    ______ ____

>  <TORSDO>
F 4

$$$$
=
 OpenBabel11042417493D

 25 27  0  0  1  0  0  0  0  0999 V2000
  188.8330  176.6840  146.6580 N   0  0  0  0  0  0  0  0  0  0  0  0
  190.0420  177.5580  144.7980 C   0  0  0  0  0  0  0  0  0  0  0  0
  188.8380  177.7760  144.1290 C   0  0  0  0  0  3  0  0  0  0  0  0
  190.0190  177.0080  146.0790 C   0  0  0  0  0  3  0  0  0  0  0  0
  187.6180  177.4320  144.7270 C   0  0  0  0  0  0  0  0  0  0  0  0
  187.6500  176.8850  146.0190 C   0  0  0  0  0  3  0  0  0  0  0  0
  184.1380  178.6930  143.7960 C   0  0  0  0  0  3  0  0  0  0  0  0
  185.3130  179.0480  145.9370 C   0  0  0  0  0  1  0  0  0  0  0  0
  185.0760  177.3910  142.0110 C   0  0  0  0  0  3  0  0  0  0  0  0
  184.0220  178.1550  142.5130 C   0  0  0  0  0  0  0  0  0  0  0  0
  186.1930  177.1900  142.7590 N   0  0  0  0  0  0  0  0  0  0  0  0
  186.3460  177.7110  144.0100 C   0  0  0  0  0  0  0  0  0  0  0  0
  185.2890  178.4820  144.5570 C   0  0  0  0  0  0  0  0  0  0  0  0
  182.8070  178.3830  141.7150 C   0  0  0  0  0  0  0  0  0  0  0  0
  182.7680  178.0060  140.3770 O   0  0  0  0  0  0  0  0  0  0  0  0
  181.7930  178.9190  142.2350 O   0  0  0  0  0  1  0  0  0  0  0  0
  191.3360  177.9520  144.1690 C   0  0  0  0  0  2  0  0  0  0  0  0
  194.5590  175.9840  146.3250 C   0  0  0  0  0  3  0  0  0  0  0  0
  195.0570  174.8400  145.8380 C   0  0  0  0  0  3  0  0  0  0  0  0
  192.0310  176.7750  143.6650 N   0  0  0  0  0  2  0  0  0  0  0  0
  193.2180  176.2490  144.2640 C   0  0  0  0  0  0  0  0  0  0  0  0
  193.7170  175.1330  143.8150 N   0  0  0  0  0  0  0  0  0  0  0  0
  194.9880  173.1350  144.1180 N   0  0  0  0  0  1  0  0  0  0  0  0
  193.9070  176.9750  145.3960 C   0  0  0  0  0  2  0  0  0  0  0  0
  194.9540  174.5650  144.3610 C   0  0  2  0  0  3  0  0  0  0  0  0
  2  4  2  0  0  0  0
  3  5  2  0  0  0  0
  3  2  1  0  0  0  0
  4  1  1  0  0  0  0
  5  6  1  0  0  0  0
  6  1  2  0  0  0  0
  7 13  1  0  0  0  0
  9 10  1  0  0  0  0
  9 11  2  0  0  0  0
 10  7  2  0  0  0  0
 11 12  1  0  0  0  0
 12 13  2  0  0  0  0
 12  5  1  0  0  0  0
 13  8  1  0  0  0  0
 14 16  1  0  0  0  0
 14 10  1  0  0  0  0
 15 14  2  0  0  0  0
 17  2  1  0  0  0  0
 19 18  2  0  0  0  0
 20 17  1  0  0  0  0
 20 21  1  0  0  0  0
 21 24  1  0  0  0  0
 22 21  2  0  0  0  0
 22 25  1  0  0  0  0
 24 18  1  0  0  0  0
 25 23  1  1  0  0  0
 25 19  1  0  0  0  0
M  END
>  <MODEL>
3

>  <REMARK>
 VINA RESULT:      -6.8      4.276      7.918
  Name = 
  4 active torsions:
  status: ('A' for Active; 'I' for Inactive)
    1  A    between atoms: C_4  and  C_16
    2  A    between atoms: C_8  and  C_9
    3  A    between atoms: C_8  and  N_13
    4  A    between atoms: C_18  and  C_20
                            x       y       z     vdW  Elec       q    Type
                         _______ _______ _______ _____ _____    ______ ____

>  <TORSDO>
F 4

$$$$
=
 OpenBabel11042417493D

 25 27  0  0  1  0  0  0  0  0999 V2000
  189.6340  174.8710  147.5610 N   0  0  0  0  0  0  0  0  0  0  0  0
  191.0290  176.2650  146.2190 C   0  0  0  0  0  0  0  0  0  0  0  0
  189.8980  176.7440  145.5590 C   0  0  0  0  0  3  0  0  0  0  0  0
  190.8750  175.3190  147.2330 C   0  0  0  0  0  3  0  0  0  0  0  0
  188.6220  176.2720  145.8950 C   0  0  0  0  0  0  0  0  0  0  0  0
  188.5210  175.3240  146.9240 C   0  0  0  0  0  3  0  0  0  0  0  0
  185.4530  178.2280  145.0580 C   0  0  0  0  0  3  0  0  0  0  0  0
  186.6680  178.2350  147.2060 C   0  0  0  0  0  1  0  0  0  0  0  0
  186.1280  176.8660  143.2000 C   0  0  0  0  0  3  0  0  0  0  0  0
  185.2390  177.7910  143.7500 C   0  0  0  0  0  0  0  0  0  0  0  0
  187.1820  176.4140  143.9270 N   0  0  0  0  0  0  0  0  0  0  0  0
  187.4300  176.8290  145.2040 C   0  0  0  0  0  0  0  0  0  0  0  0
  186.5390  177.7580  145.7980 C   0  0  0  0  0  0  0  0  0  0  0  0
  184.0930  178.2910  142.9740 C   0  0  0  0  0  0  0  0  0  0  0  0
  183.9480  177.9430  141.6360 O   0  0  0  0  0  0  0  0  0  0  0  0
  183.2320  179.0360  143.5140 O   0  0  0  0  0  1  0  0  0  0  0  0
  192.3820  176.7910  145.8780 C   0  0  0  0  0  2  0  0  0  0  0  0
  195.9370  176.1690  143.4520 C   0  0  0  0  0  3  0  0  0  0  0  0
  196.8770  175.3200  143.8890 C   0  0  0  0  0  3  0  0  0  0  0  0
  193.4030  175.8020  146.1970 N   0  0  0  0  0  2  0  0  0  0  0  0
  194.4610  175.4510  145.3020 C   0  0  0  0  0  0  0  0  0  0  0  0
  195.3920  174.6340  145.7060 N   0  0  0  0  0  0  0  0  0  0  0  0
  197.6240  173.7900  145.6130 N   0  0  0  0  0  1  0  0  0  0  0  0
  194.5070  176.0000  143.8960 C   0  0  0  0  0  2  0  0  0  0  0  0
  196.4800  174.2050  144.8210 C   0  0  2  0  0  3  0  0  0  0  0  0
  2  4  2  0  0  0  0
  3  5  2  0  0  0  0
  3  2  1  0  0  0  0
  4  1  1  0  0  0  0
  5  6  1  0  0  0  0
  6  1  2  0  0  0  0
  7 13  1  0  0  0  0
  9 10  1  0  0  0  0
  9 11  2  0  0  0  0
 10  7  2  0  0  0  0
 11 12  1  0  0  0  0
 12 13  2  0  0  0  0
 12  5  1  0  0  0  0
 13  8  1  0  0  0  0
 14 16  1  0  0  0  0
 14 10  1  0  0  0  0
 15 14  2  0  0  0  0
 17 20  1  0  0  0  0
 17  2  1  0  0  0  0
 18 19  2  0  0  0  0
 18 24  1  0  0  0  0
 19 25  1  0  0  0  0
 21 22  2  0  0  0  0
 21 20  1  0  0  0  0
 24 21  1  0  0  0  0
 25 23  1  1  0  0  0
 25 22  1  0  0  0  0
M  END
>  <MODEL>
4

>  <REMARK>
 VINA RESULT:      -6.7      4.685      8.506
  Name = 
  4 active torsions:
  status: ('A' for Active; 'I' for Inactive)
    1  A    between atoms: C_4  and  C_16
    2  A    between atoms: C_8  and  C_9
    3  A    between atoms: C_8  and  N_13
    4  A    between atoms: C_18  and  C_20
                            x       y       z     vdW  Elec       q    Type
                         _______ _______ _______ _____ _____    ______ ____

>  <TORSDO>
F 4

$$$$
=
 OpenBabel11042417493D

 25 27  0  0  1  0  0  0  0  0999 V2000
  190.0280  174.0510  142.4470 N   0  0  0  0  0  0  0  0  0  0  0  0
  191.3200  176.0200  142.8270 C   0  0  0  0  0  0  0  0  0  0  0  0
  190.2400  176.5860  143.5040 C   0  0  0  0  0  3  0  0  0  0  0  0
  191.1950  174.7330  142.3020 C   0  0  0  0  0  3  0  0  0  0  0  0
  189.0360  175.8820  143.6420 C   0  0  0  0  0  0  0  0  0  0  0  0
  188.9640  174.5900  143.0990 C   0  0  0  0  0  3  0  0  0  0  0  0
  186.6900  177.0190  146.4290 C   0  0  0  0  0  3  0  0  0  0  0  0
  188.7160  175.6330  146.6790 C   0  0  0  0  0  1  0  0  0  0  0  0
  185.9010  177.7760  144.2910 C   0  0  0  0  0  3  0  0  0  0  0  0
  185.7430  177.7170  145.6770 C   0  0  0  0  0  0  0  0  0  0  0  0
  186.9630  177.1710  143.6970 N   0  0  0  0  0  0  0  0  0  0  0  0
  187.9140  176.4920  144.4020 C   0  0  0  0  0  0  0  0  0  0  0  0
  187.7780  176.4010  145.8100 C   0  0  0  0  0  0  0  0  0  0  0  0
  184.6000  178.3680  146.3350 C   0  0  0  0  0  0  0  0  0  0  0  0
  184.5470  178.4550  147.7220 O   0  0  0  0  0  1  0  0  0  0  0  0
  183.6600  178.8530  145.6500 O   0  0  0  0  0  0  0  0  0  0  0  0
  192.6090  176.7620  142.7070 C   0  0  0  0  0  2  0  0  0  0  0  0
  194.9590  175.4350  146.1170 C   0  0  0  0  0  3  0  0  0  0  0  0
  195.8840  174.4840  145.9330 C   0  0  0  0  0  3  0  0  0  0  0  0
  193.7200  175.8270  142.5950 N   0  0  0  0  0  2  0  0  0  0  0  0
  194.6210  175.5470  143.6690 C   0  0  0  0  0  0  0  0  0  0  0  0
  195.5230  174.6200  143.5190 N   0  0  0  0  0  0  0  0  0  0  0  0
  196.9900  172.9590  144.4080 N   0  0  0  0  0  1  0  0  0  0  0  0
  194.5500  176.3180  144.9660 C   0  0  0  0  0  2  0  0  0  0  0  0
  196.5010  174.3160  144.5690 C   0  0  2  0  0  3  0  0  0  0  0  0
  1  6  1  0  0  0  0
  2  3  2  0  0  0  0
  3  5  1  0  0  0  0
  4  1  2  0  0  0  0
  4  2  1  0  0  0  0
  5 12  1  0  0  0  0
  6  5  2  0  0  0  0
  9 10  1  0  0  0  0
 10 14  1  0  0  0  0
 10  7  2  0  0  0  0
 11  9  2  0  0  0  0
 11 12  1  0  0  0  0
 12 13  2  0  0  0  0
 13  7  1  0  0  0  0
 13  8  1  0  0  0  0
 14 15  1  0  0  0  0
 16 14  2  0  0  0  0
 17  2  1  0  0  0  0
 19 18  2  0  0  0  0
 20 17  1  0  0  0  0
 20 21  1  0  0  0  0
 21 24  1  0  0  0  0
 22 21  2  0  0  0  0
 22 25  1  0  0  0  0
 24 18  1  0  0  0  0
 25 23  1  6  0  0  0
 25 19  1  0  0  0  0
M  END
>  <MODEL>
5

>  <REMARK>
 VINA RESULT:      -6.6      4.236      7.985
  Name = 
  4 active torsions:
  status: ('A' for Active; 'I' for Inactive)
    1  A    between atoms: C_4  and  C_16
    2  A    between atoms: C_8  and  C_9
    3  A    between atoms: C_8  and  N_13
    4  A    between atoms: C_18  and  C_20
                            x       y       z     vdW  Elec       q    Type
                         _______ _______ _______ _____ _____    ______ ____

>  <TORSDO>
F 4

$$$$
=
 OpenBabel11042417493D

 25 27  0  0  1  0  0  0  0  0999 V2000
  192.2500  175.8420  146.4530 N   0  0  0  0  0  0  0  0  0  0  0  0
  191.3610  174.0040  145.2210 C   0  0  0  0  0  0  0  0  0  0  0  0
  190.1090  174.6190  145.2240 C   0  0  0  0  0  3  0  0  0  0  0  0
  192.4340  174.6400  145.8450 C   0  0  0  0  0  3  0  0  0  0  0  0
  189.9230  175.8540  145.8600 C   0  0  0  0  0  0  0  0  0  0  0  0
  191.0360  176.4540  146.4700 C   0  0  0  0  0  3  0  0  0  0  0  0
  186.8950  177.9310  144.8210 C   0  0  0  0  0  3  0  0  0  0  0  0
  189.0540  177.7740  143.6370 C   0  0  0  0  0  1  0  0  0  0  0  0
  186.4750  176.7940  146.8930 C   0  0  0  0  0  3  0  0  0  0  0  0
  186.0300  177.6420  145.8780 C   0  0  0  0  0  0  0  0  0  0  0  0
  187.7230  176.2580  146.8400 N   0  0  0  0  0  0  0  0  0  0  0  0
  188.5890  176.5080  145.8150 C   0  0  0  0  0  0  0  0  0  0  0  0
  188.1740  177.3750  144.7740 C   0  0  0  0  0  0  0  0  0  0  0  0
  184.6820  178.2290  145.9220 C   0  0  0  0  0  0  0  0  0  0  0  0
  184.0710  178.6670  144.7520 O   0  0  0  0  0  0  0  0  0  0  0  0
  184.0680  178.3390  147.0170 O   0  0  0  0  0  1  0  0  0  0  0  0
  191.5610  172.7030  144.5180 C   0  0  0  0  0  2  0  0  0  0  0  0
  188.0460  172.7200  141.9580 C   0  0  0  0  0  3  0  0  0  0  0  0
  188.1900  173.0390  140.6650 C   0  0  0  0  0  3  0  0  0  0  0  0
  191.6240  172.9130  143.0780 N   0  0  0  0  0  2  0  0  0  0  0  0
  190.5060  172.7170  142.2080 C   0  0  0  0  0  0  0  0  0  0  0  0
  190.6180  173.0270  140.9480 N   0  0  0  0  0  0  0  0  0  0  0  0
  189.6690  173.7040  138.8640 N   0  0  0  0  0  1  0  0  0  0  0  0
  189.2080  172.1430  142.7240 C   0  0  0  0  0  2  0  0  0  0  0  0
  189.5220  172.8110  139.9990 C   0  0  2  0  0  3  0  0  0  0  0  0
  1  6  1  0  0  0  0
  2  3  2  0  0  0  0
  2  4  1  0  0  0  0
  3  5  1  0  0  0  0
  4  1  2  0  0  0  0
  5  6  2  0  0  0  0
  7 10  1  0  0  0  0
  8 13  1  0  0  0  0
 10 14  1  0  0  0  0
 10  9  2  0  0  0  0
 11  9  1  0  0  0  0
 12  5  1  0  0  0  0
 12 11  2  0  0  0  0
 13  7  2  0  0  0  0
 13 12  1  0  0  0  0
 14 16  1  0  0  0  0
 15 14  2  0  0  0  0
 17  2  1  0  0  0  0
 18 24  1  0  0  0  0
 19 18  2  0  0  0  0
 20 17  1  0  0  0  0
 21 24  1  0  0  0  0
 21 20  1  0  0  0  0
 22 21  2  0  0  0  0
 25 23  1  6  0  0  0
 25 19  1  0  0  0  0
 25 22  1  0  0  0  0
M  END
>  <MODEL>
6

>  <REMARK>
 VINA RESULT:      -6.6      4.085      7.882
  Name = 
  4 active torsions:
  status: ('A' for Active; 'I' for Inactive)
    1  A    between atoms: C_4  and  C_16
    2  A    between atoms: C_8  and  C_9
    3  A    between atoms: C_8  and  N_13
    4  A    between atoms: C_18  and  C_20
                            x       y       z     vdW  Elec       q    Type
                         _______ _______ _______ _____ _____    ______ ____

>  <TORSDO>
F 4

$$$$
=
 OpenBabel11042417493D

 25 27  0  0  1  0  0  0  0  0999 V2000
  189.9540  174.9150  147.6360 N   0  0  0  0  0  0  0  0  0  0  0  0
  191.5850  176.2830  146.5610 C   0  0  0  0  0  0  0  0  0  0  0  0
  190.6450  176.6250  145.5900 C   0  0  0  0  0  3  0  0  0  0  0  0
  191.2160  175.4190  147.5920 C   0  0  0  0  0  3  0  0  0  0  0  0
  189.3480  176.0950  145.6350 C   0  0  0  0  0  0  0  0  0  0  0  0
  189.0260  175.2330  146.6950 C   0  0  0  0  0  3  0  0  0  0  0  0
  187.1580  176.2580  142.5140 C   0  0  0  0  0  3  0  0  0  0  0  0
  188.9000  174.5820  143.0090 C   0  0  0  0  0  1  0  0  0  0  0  0
  186.6830  178.0960  143.9830 C   0  0  0  0  0  3  0  0  0  0  0  0
  186.4230  177.4110  142.7950 C   0  0  0  0  0  0  0  0  0  0  0  0
  187.6250  177.6360  144.8460 N   0  0  0  0  0  0  0  0  0  0  0  0
  188.3530  176.5060  144.6100 C   0  0  0  0  0  0  0  0  0  0  0  0
  188.1240  175.7920  143.4070 C   0  0  0  0  0  0  0  0  0  0  0  0
  185.4050  177.8960  141.8500 C   0  0  0  0  0  0  0  0  0  0  0  0
  184.0650  177.9270  142.2200 O   0  0  0  0  0  1  0  0  0  0  0  0
  185.7360  178.2890  140.7000 O   0  0  0  0  0  0  0  0  0  0  0  0
  192.9550  176.8720  146.5260 C   0  0  0  0  0  2  0  0  0  0  0  0
  195.9980  176.4150  143.4530 C   0  0  0  0  0  3  0  0  0  0  0  0
  196.9500  175.4870  143.6190 C   0  0  0  0  0  3  0  0  0  0  0  0
  193.9580  175.8160  146.5470 N   0  0  0  0  0  2  0  0  0  0  0  0
  194.8260  175.5360  145.4450 C   0  0  0  0  0  0  0  0  0  0  0  0
  195.7650  174.6450  145.5840 N   0  0  0  0  0  0  0  0  0  0  0  0
  197.8960  173.7380  145.0040 N   0  0  0  0  0  1  0  0  0  0  0  0
  194.6590  176.2470  144.1220 C   0  0  0  0  0  2  0  0  0  0  0  0
  196.6580  174.2850  144.4790 C   0  0  2  0  0  3  0  0  0  0  0  0
  2  4  2  0  0  0  0
  3  5  2  0  0  0  0
  3  2  1  0  0  0  0
  4  1  1  0  0  0  0
  5  6  1  0  0  0  0
  6  1  2  0  0  0  0
  7 10  2  0  0  0  0
  7 13  1  0  0  0  0
  8 13  1  0  0  0  0
  9 11  2  0  0  0  0
 10  9  1  0  0  0  0
 12 11  1  0  0  0  0
 12  5  1  0  0  0  0
 13 12  2  0  0  0  0
 14 15  1  0  0  0  0
 14 10  1  0  0  0  0
 16 14  2  0  0  0  0
 17 20  1  0  0  0  0
 17  2  1  0  0  0  0
 18 19  2  0  0  0  0
 18 24  1  0  0  0  0
 19 25  1  0  0  0  0
 21 22  2  0  0  0  0
 21 20  1  0  0  0  0
 24 21  1  0  0  0  0
 25 23  1  1  0  0  0
 25 22  1  0  0  0  0
M  END
>  <MODEL>
7

>  <REMARK>
 VINA RESULT:      -6.5      4.597      8.281
  Name = 
  4 active torsions:
  status: ('A' for Active; 'I' for Inactive)
    1  A    between atoms: C_4  and  C_16
    2  A    between atoms: C_8  and  C_9
    3  A    between atoms: C_8  and  N_13
    4  A    between atoms: C_18  and  C_20
                            x       y       z     vdW  Elec       q    Type
                         _______ _______ _______ _____ _____    ______ ____

>  <TORSDO>
F 4

$$$$
=
 OpenBabel11042417493D

 25 27  0  0  1  0  0  0  0  0999 V2000
  187.6990  174.6310  142.1110 N   0  0  0  0  0  0  0  0  0  0  0  0
  187.2460  176.9430  142.4760 C   0  0  0  0  0  0  0  0  0  0  0  0
  188.4070  177.0400  143.2430 C   0  0  0  0  0  3  0  0  0  0  0  0
  186.9060  175.7160  141.9080 C   0  0  0  0  0  3  0  0  0  0  0  0
  189.2160  175.9160  143.4560 C   0  0  0  0  0  0  0  0  0  0  0  0
  188.8320  174.7060  142.8600 C   0  0  0  0  0  3  0  0  0  0  0  0
  191.7290  176.4620  146.2770 C   0  0  0  0  0  3  0  0  0  0  0  0
  189.2730  176.6420  146.4320 C   0  0  0  0  0  1  0  0  0  0  0  0
  192.8580  175.9710  144.2160 C   0  0  0  0  0  3  0  0  0  0  0  0
  192.9210  176.2610  145.5800 C   0  0  0  0  0  0  0  0  0  0  0  0
  191.6550  175.8780  143.5920 N   0  0  0  0  0  0  0  0  0  0  0  0
  190.4690  176.0550  144.2440 C   0  0  0  0  0  0  0  0  0  0  0  0
  190.4970  176.3640  145.6270 C   0  0  0  0  0  0  0  0  0  0  0  0
  194.2160  176.3640  146.2700 C   0  0  0  0  0  0  0  0  0  0  0  0
  195.0510  175.2560  146.3620 O   0  0  0  0  0  0  0  0  0  0  0  0
  194.5810  177.4560  146.7830 O   0  0  0  0  0  1  0  0  0  0  0  0
  186.4030  178.1490  142.2280 C   0  0  0  0  0  2  0  0  0  0  0  0
  185.4710  176.7810  146.2490 C   0  0  0  0  0  3  0  0  0  0  0  0
  185.6280  177.6310  147.2730 C   0  0  0  0  0  3  0  0  0  0  0  0
  186.4190  179.0240  143.3920 N   0  0  0  0  0  2  0  0  0  0  0  0
  185.9190  178.6340  144.6730 C   0  0  0  0  0  0  0  0  0  0  0  0
  186.0670  179.4380  145.6870 N   0  0  0  0  0  0  0  0  0  0  0  0
  186.2790  179.8380  148.0310 N   0  0  0  0  0  1  0  0  0  0  0  0
  185.2100  177.3140  144.8640 C   0  0  0  0  0  2  0  0  0  0  0  0
  185.5390  179.1120  147.0150 C   0  0  2  0  0  3  0  0  0  0  0  0
  1  6  1  0  0  0  0
  2  3  2  0  0  0  0
  3  5  1  0  0  0  0
  4  1  2  0  0  0  0
  4  2  1  0  0  0  0
  5 12  1  0  0  0  0
  6  5  2  0  0  0  0
  9 10  1  0  0  0  0
 10 14  1  0  0  0  0
 10  7  2  0  0  0  0
 11  9  2  0  0  0  0
 11 12  1  0  0  0  0
 12 13  2  0  0  0  0
 13  7  1  0  0  0  0
 13  8  1  0  0  0  0
 14 15  2  0  0  0  0
 14 16  1  0  0  0  0
 17  2  1  0  0  0  0
 17 20  1  0  0  0  0
 18 19  2  0  0  0  0
 20 21  1  0  0  0  0
 21 24  1  0  0  0  0
 21 22  2  0  0  0  0
 22 25  1  0  0  0  0
 24 18  1  0  0  0  0
 25 19  1  0  0  0  0
 25 23  1  1  0  0  0
M  END
>  <MODEL>
8

>  <REMARK>
 VINA RESULT:      -6.5      2.015      2.820
  Name = 
  4 active torsions:
  status: ('A' for Active; 'I' for Inactive)
    1  A    between atoms: C_4  and  C_16
    2  A    between atoms: C_8  and  C_9
    3  A    between atoms: C_8  and  N_13
    4  A    between atoms: C_18  and  C_20
                            x       y       z     vdW  Elec       q    Type
                         _______ _______ _______ _____ _____    ______ ____

>  <TORSDO>
F 4

$$$$
=
 OpenBabel11042417493D

 25 27  0  0  1  0  0  0  0  0999 V2000
  193.7430  175.9810  146.5660 N   0  0  0  0  0  0  0  0  0  0  0  0
  193.2230  174.3450  144.9110 C   0  0  0  0  0  0  0  0  0  0  0  0
  191.9050  174.7990  144.8890 C   0  0  0  0  0  3  0  0  0  0  0  0
  194.1400  174.9580  145.7650 C   0  0  0  0  0  3  0  0  0  0  0  0
  191.4990  175.8490  145.7240 C   0  0  0  0  0  0  0  0  0  0  0  0
  192.4610  176.4340  146.5610 C   0  0  0  0  0  3  0  0  0  0  0  0
  187.7610  176.3600  146.3020 C   0  0  0  0  0  3  0  0  0  0  0  0
  189.2050  174.6770  147.3840 C   0  0  0  0  0  1  0  0  0  0  0  0
  188.5790  177.8820  144.6360 C   0  0  0  0  0  3  0  0  0  0  0  0
  187.5180  177.4010  145.4040 C   0  0  0  0  0  0  0  0  0  0  0  0
  189.8220  177.3500  144.7750 N   0  0  0  0  0  0  0  0  0  0  0  0
  190.0980  176.3420  145.6530 C   0  0  0  0  0  0  0  0  0  0  0  0
  189.0410  175.8190  146.4390 C   0  0  0  0  0  0  0  0  0  0  0  0
  186.1680  177.9680  145.2660 C   0  0  0  0  0  0  0  0  0  0  0  0
  185.9890  179.2170  144.6820 O   0  0  0  0  0  0  0  0  0  0  0  0
  185.1610  177.3280  145.6730 O   0  0  0  0  0  1  0  0  0  0  0  0
  193.6580  173.2470  143.9990 C   0  0  0  0  0  2  0  0  0  0  0  0
  196.7800  171.0660  146.0980 C   0  0  0  0  0  3  0  0  0  0  0  0
  196.4570  169.9400  146.7470 C   0  0  0  0  0  3  0  0  0  0  0  0
  193.4400  171.9520  144.6300 N   0  0  0  0  0  2  0  0  0  0  0  0
  194.5020  171.1400  145.1390 C   0  0  0  0  0  0  0  0  0  0  0  0
  194.2130  170.0450  145.7820 N   0  0  0  0  0  0  0  0  0  0  0  0
  194.7360  168.3600  147.3920 N   0  0  0  0  0  1  0  0  0  0  0  0
  195.9470  171.5250  144.9290 C   0  0  0  0  0  2  0  0  0  0  0  0
  195.2580  169.1500  146.2910 C   0  0  2  0  0  3  0  0  0  0  0  0
  2  4  1  0  0  0  0
  3  2  2  0  0  0  0
  3  5  1  0  0  0  0
  4  1  2  0  0  0  0
  5  6  2  0  0  0  0
  6  1  1  0  0  0  0
  7 13  1  0  0  0  0
  9 11  2  0  0  0  0
  9 10  1  0  0  0  0
 10  7  2  0  0  0  0
 11 12  1  0  0  0  0
 12  5  1  0  0  0  0
 12 13  2  0  0  0  0
 13  8  1  0  0  0  0
 14 10  1  0  0  0  0
 14 16  1  0  0  0  0
 15 14  2  0  0  0  0
 17 20  1  0  0  0  0
 17  2  1  0  0  0  0
 18 19  2  0  0  0  0
 20 21  1  0  0  0  0
 21 22  2  0  0  0  0
 22 25  1  0  0  0  0
 24 21  1  0  0  0  0
 24 18  1  0  0  0  0
 25 19  1  0  0  0  0
 25 23  1  1  0  0  0
M  END
>  <MODEL>
9

>  <REMARK>
 VINA RESULT:      -6.4      5.589      9.277
  Name = 
  4 active torsions:
  status: ('A' for Active; 'I' for Inactive)
    1  A    between atoms: C_4  and  C_16
    2  A    between atoms: C_8  and  C_9
    3  A    between atoms: C_8  and  N_13
    4  A    between atoms: C_18  and  C_20
                            x       y       z     vdW  Elec       q    Type
                         _______ _______ _______ _____ _____    ______ ____

>  <TORSDO>
F 4

$$$$
