=
 OpenBabel11042415203D

 47 50  0  0  1  0  0  0  0  0999 V2000
  191.0830  175.0410  145.1460 C   0  0  0  0  0  0  0  0  0  0  0  0
  189.8320  174.7360  145.7700 N   0  0  0  0  0  2  0  0  0  0  0  0
  193.0220  176.2600  144.7450 C   0  0  1  0  0  3  0  0  0  0  0  0
  191.7810  173.9570  143.9120 S   0  0  0  0  0  0  0  0  0  0  0  0
  193.7420  175.3940  142.5930 N   0  0  0  0  0  0  0  0  0  0  0  0
  192.9600  175.2760  143.6280 C   0  0  0  0  0  0  0  0  0  0  0  0
  191.7550  176.1060  145.4490 N   0  0  0  0  0  0  0  0  0  0  0  0
  193.0650  173.6500  139.3350 C   0  0  0  0  0  0  0  0  0  0  0  0
  194.1440  172.8190  139.2890 N   0  0  0  0  0  0  0  0  0  0  0  0
  192.0900  173.6300  138.2940 N   0  0  0  0  0  2  0  0  0  0  0  0
  194.9640  173.6940  141.3500 C   0  0  0  0  0  3  0  0  0  0  0  0
  193.8590  174.5460  141.4370 C   0  0  0  0  0  0  0  0  0  0  0  0
  192.9070  174.5270  140.4110 C   0  0  0  0  0  3  0  0  0  0  0  0
  195.0900  172.8270  140.2620 C   0  0  0  0  0  3  0  0  0  0  0  0
  189.8700  170.1730  138.4920 C   0  0  0  0  0  3  0  0  0  0  0  0
  192.1600  172.6910  137.2540 N   0  0  0  0  0  0  0  0  0  0  0  0
  191.4090  171.6350  137.2300 C   0  0  0  0  0  0  0  0  0  0  0  0
  191.6110  170.4600  135.8870 S   0  0  0  0  0  0  0  0  0  0  0  0
  190.4280  171.3710  138.3030 C   0  0  0  0  0  3  0  0  0  0  0  0
  190.1560  168.9740  137.6270 C   0  0  0  0  0  2  0  0  0  0  0  0
  191.5500  169.0390  137.0160 C   0  0  0  0  0  2  0  0  0  0  0  0
  194.5980  176.7180  146.4810 O   0  0  0  0  0  0  0  0  0  0  0  0
  194.1670  175.8840  145.6420 C   0  0  0  0  0  0  0  0  0  0  0  0
  194.8400  174.6340  145.4730 N   0  0  0  0  0  2  0  0  0  0  0  0
  196.9320  174.7690  144.2780 C   0  0  0  0  0  1  0  0  0  0  0  0
  196.2800  174.5320  145.6240 C   0  0  2  0  0  3  0  0  0  0  0  0
  196.6440  173.1440  146.1180 C   0  0  0  0  0  2  0  0  0  0  0  0
  197.2160  172.3310  144.9590 C   0  0  0  0  0  2  0  0  0  0  0  0
  196.4240  168.7480  147.7060 C   0  0  0  0  0  2  0  0  0  0  0  0
  195.1550  170.8900  145.2150 C   0  0  1  0  0  3  0  0  0  0  0  0
  196.3360  169.0480  146.4160 C   0  0  0  0  0  0  0  0  0  0  0  0
  194.7200  169.1860  145.6680 S   0  0  0  0  0  0  0  0  0  0  0  0
  196.6460  170.9100  144.8940 C   0  0  2  0  0  3  0  0  0  0  0  0
  194.3940  171.2960  144.0460 N   0  0  0  0  0  1  0  0  0  0  0  0
  197.3690  169.9480  145.8330 C   0  0  0  0  0  2  0  0  0  0  0  0
  189.0860  175.6940  146.5740 C   0  0  0  0  0  2  0  0  0  0  0  0
  187.7920  176.0960  145.8680 C   0  0  1  0  0  3  0  0  0  0  0  0
  186.7590  176.6580  146.8480 C   0  0  0  0  0  2  0  0  0  0  0  0
  186.9600  178.1430  147.1510 C   0  0  0  0  0  2  0  0  0  0  0  0
  185.6490  178.8950  146.9700 C   0  0  0  0  0  2  0  0  0  0  0  0
  184.1180  178.6280  145.1630 O   0  0  0  0  0  1  0  0  0  0  0  0
  185.3720  179.1400  145.5000 C   0  0  0  0  0  2  0  0  0  0  0  0
  188.0650  177.0380  144.8340 O   0  0  0  0  0  0  0  0  0  0  0  0
  187.8390  176.7620  143.4810 C   0  0  0  0  0  0  0  0  0  0  0  0
  186.6570  176.4670  143.0500 N   0  0  0  0  0  2  0  0  0  0  0  0
  189.9660  177.6800  143.0370 O   0  0  0  0  0  1  0  0  0  0  0  0
  188.9660  176.8610  142.5120 C   0  0  0  0  0  2  0  0  0  0  0  0
  1  7  2  0  0  0  0
  1  2  1  0  0  0  0
  2 36  1  0  0  0  0
  3  7  1  0  0  0  0
  3 23  1  1  0  0  0
  4  1  1  0  0  0  0
  5  6  2  0  0  0  0
  6  4  1  0  0  0  0
  6  3  1  0  0  0  0
  8 13  1  0  0  0  0
  9  8  2  0  0  0  0
  9 14  1  0  0  0  0
 10  8  1  0  0  0  0
 11 12  1  0  0  0  0
 12  5  1  0  0  0  0
 13 12  2  0  0  0  0
 14 11  2  0  0  0  0
 16 10  1  0  0  0  0
 17 16  2  0  0  0  0
 17 19  1  0  0  0  0
 18 21  1  0  0  0  0
 18 17  1  0  0  0  0
 19 15  2  0  0  0  0
 20 15  1  0  0  0  0
 21 20  1  0  0  0  0
 23 22  2  0  0  0  0
 24 26  1  0  0  0  0
 24 23  1  0  0  0  0
 26 25  1  6  0  0  0
 26 27  1  0  0  0  0
 28 27  1  0  0  0  0
 30 34  1  6  0  0  0
 30 32  1  0  0  0  0
 31 29  2  0  0  0  0
 32 31  1  0  0  0  0
 33 28  1  1  0  0  0
 33 30  1  0  0  0  0
 33 35  1  0  0  0  0
 35 31  1  0  0  0  0
 37 36  1  1  0  0  0
 37 38  1  0  0  0  0
 38 39  1  0  0  0  0
 40 39  1  0  0  0  0
 41 42  1  0  0  0  0
 42 40  1  0  0  0  0
 43 37  1  0  0  0  0
 44 43  1  0  0  0  0
 45 44  2  0  0  0  0
 47 46  1  0  0  0  0
 47 44  1  0  0  0  0
M  END
>  <MODEL>
1

>  <REMARK>
 VINA RESULT:      -6.1      0.000      0.000
  Name = 
  16 active torsions:
  status: ('A' for Active; 'I' for Inactive)
    1  A    between atoms: C_1  and  O_15
    2  A    between atoms: C_1  and  C_32
    3  A    between atoms: C_3  and  C_10
    4  A    between atoms: C_3  and  C_41
    5  A    between atoms: N_5  and  N_26
    6  A    between atoms: C_6  and  C_14
    7  A    between atoms: C_6  and  C_22
    8  A    between atoms: C_10  and  O_15
    9  A    between atoms: C_10  and  C_33
   10  A    between atoms: N_12  and  C_33
   11  A    between atoms: C_14  and  C_38
   12  A    between atoms: C_16  and  C_23
   13  A    between atoms: C_18  and  C_41
   14  A    between atoms: C_18  and  C_47
   15  A    between atoms: C_22  and  N_25
   16  A    between atoms: N_34  and  C_37
                            x       y       z     vdW  Elec       q    Type
                         _______ _______ _______ _____ _____    ______ ____

>  <TORSDO>
F 16

$$$$
=
 OpenBabel11042415203D

 47 50  0  0  1  0  0  0  0  0999 V2000
  189.5090  175.0460  142.5760 C   0  0  0  0  0  0  0  0  0  0  0  0
  190.1920  174.5020  141.4440 N   0  0  0  0  0  2  0  0  0  0  0  0
  188.8500  175.1870  144.8020 C   0  0  1  0  0  3  0  0  0  0  0  0
  188.5150  176.5220  142.4260 S   0  0  0  0  0  0  0  0  0  0  0  0
  186.9140  176.6480  144.6780 N   0  0  0  0  0  0  0  0  0  0  0  0
  187.9590  176.1420  144.0860 C   0  0  0  0  0  0  0  0  0  0  0  0
  189.5820  174.4970  143.7470 N   0  0  0  0  0  0  0  0  0  0  0  0
  184.1540  178.2700  142.7120 C   0  0  0  0  0  0  0  0  0  0  0  0
  184.1990  179.5240  143.2410 N   0  0  0  0  0  0  0  0  0  0  0  0
  183.2190  177.9500  141.6830 N   0  0  0  0  0  2  0  0  0  0  0  0
  185.9620  178.8890  144.7150 C   0  0  0  0  0  3  0  0  0  0  0  0
  185.9550  177.5980  144.1800 C   0  0  0  0  0  0  0  0  0  0  0  0
  185.0320  177.2870  143.1750 C   0  0  0  0  0  3  0  0  0  0  0  0
  185.0720  179.8490  144.2280 C   0  0  0  0  0  3  0  0  0  0  0  0
  179.1290  177.6330  141.9920 C   0  0  0  0  0  3  0  0  0  0  0  0
  182.3950  178.9370  141.1220 N   0  0  0  0  0  0  0  0  0  0  0  0
  181.1080  178.9270  141.2760 C   0  0  0  0  0  0  0  0  0  0  0  0
  180.1290  180.2000  140.4720 S   0  0  0  0  0  0  0  0  0  0  0  0
  180.4420  177.8690  142.0640 C   0  0  0  0  0  3  0  0  0  0  0  0
  178.1860  178.4250  141.1260 C   0  0  0  0  0  2  0  0  0  0  0  0
  178.8910  178.9990  139.9030 C   0  0  0  0  0  2  0  0  0  0  0  0
  189.4040  177.0540  146.1870 O   0  0  0  0  0  0  0  0  0  0  0  0
  189.7960  175.9780  145.6610 C   0  0  0  0  0  0  0  0  0  0  0  0
  191.1620  175.5790  145.7940 N   0  0  0  0  0  2  0  0  0  0  0  0
  192.5600  176.9890  144.4220 C   0  0  0  0  0  1  0  0  0  0  0  0
  192.2290  176.5620  145.8360 C   0  0  2  0  0  3  0  0  0  0  0  0
  193.4630  175.9500  146.4730 C   0  0  0  0  0  2  0  0  0  0  0  0
  194.0020  174.8460  145.5670 C   0  0  0  0  0  2  0  0  0  0  0  0
  197.4490  171.9680  144.6430 C   0  0  0  0  0  2  0  0  0  0  0  0
  196.0190  175.1360  144.0720 C   0  0  1  0  0  3  0  0  0  0  0  0
  197.2840  173.2200  145.0520 C   0  0  0  0  0  0  0  0  0  0  0  0
  197.7370  174.5550  143.9570 S   0  0  0  0  0  0  0  0  0  0  0  0
  195.5330  174.8400  145.4870 C   0  0  2  0  0  3  0  0  0  0  0  0
  195.9680  176.5660  143.8220 N   0  0  0  0  0  1  0  0  0  0  0  0
  196.1360  173.5170  145.9530 C   0  0  0  0  0  2  0  0  0  0  0  0
  190.7890  173.1730  141.4340 C   0  0  0  0  0  2  0  0  0  0  0  0
  191.9830  173.1270  140.4830 C   0  0  1  0  0  3  0  0  0  0  0  0
  191.6010  173.5620  139.0660 C   0  0  0  0  0  2  0  0  0  0  0  0
  190.7080  172.5520  138.3450 C   0  0  0  0  0  2  0  0  0  0  0  0
  189.6530  173.2810  137.5230 C   0  0  0  0  0  2  0  0  0  0  0  0
  188.0640  172.5280  139.1310 O   0  0  0  0  0  1  0  0  0  0  0  0
  188.4570  173.6380  138.3820 C   0  0  0  0  0  2  0  0  0  0  0  0
  193.0470  173.9330  140.9850 O   0  0  0  0  0  0  0  0  0  0  0  0
  194.3940  173.6390  140.7500 C   0  0  0  0  0  0  0  0  0  0  0  0
  194.9930  172.6960  141.4020 N   0  0  0  0  0  2  0  0  0  0  0  0
  195.7530  175.5040  140.2630 O   0  0  0  0  0  1  0  0  0  0  0  0
  195.1380  174.3870  139.6980 C   0  0  0  0  0  2  0  0  0  0  0  0
  1  7  2  0  0  0  0
  2  1  1  0  0  0  0
  3 23  1  1  0  0  0
  4  1  1  0  0  0  0
  4  6  1  0  0  0  0
  6  5  2  0  0  0  0
  6  3  1  0  0  0  0
  7  3  1  0  0  0  0
  8 13  1  0  0  0  0
  8  9  2  0  0  0  0
  9 14  1  0  0  0  0
 10  8  1  0  0  0  0
 12  5  1  0  0  0  0
 12 11  1  0  0  0  0
 13 12  2  0  0  0  0
 14 11  2  0  0  0  0
 15 19  2  0  0  0  0
 16 17  2  0  0  0  0
 16 10  1  0  0  0  0
 17 19  1  0  0  0  0
 18 17  1  0  0  0  0
 20 15  1  0  0  0  0
 21 18  1  0  0  0  0
 21 20  1  0  0  0  0
 23 24  1  0  0  0  0
 23 22  2  0  0  0  0
 24 26  1  0  0  0  0
 26 25  1  6  0  0  0
 26 27  1  0  0  0  0
 28 27  1  0  0  0  0
 29 31  2  0  0  0  0
 30 34  1  1  0  0  0
 30 33  1  0  0  0  0
 31 35  1  0  0  0  0
 32 30  1  0  0  0  0
 32 31  1  0  0  0  0
 33 28  1  6  0  0  0
 33 35  1  0  0  0  0
 36  2  1  0  0  0  0
 37 38  1  6  0  0  0
 37 43  1  0  0  0  0
 37 36  1  0  0  0  0
 39 38  1  0  0  0  0
 40 39  1  0  0  0  0
 40 42  1  0  0  0  0
 42 41  1  0  0  0  0
 44 43  1  0  0  0  0
 44 45  2  0  0  0  0
 47 46  1  0  0  0  0
 47 44  1  0  0  0  0
M  END
>  <MODEL>
2

>  <REMARK>
 VINA RESULT:      -5.9      4.127      8.780
  Name = 
  16 active torsions:
  status: ('A' for Active; 'I' for Inactive)
    1  A    between atoms: C_1  and  O_15
    2  A    between atoms: C_1  and  C_32
    3  A    between atoms: C_3  and  C_10
    4  A    between atoms: C_3  and  C_41
    5  A    between atoms: N_5  and  N_26
    6  A    between atoms: C_6  and  C_14
    7  A    between atoms: C_6  and  C_22
    8  A    between atoms: C_10  and  O_15
    9  A    between atoms: C_10  and  C_33
   10  A    between atoms: N_12  and  C_33
   11  A    between atoms: C_14  and  C_38
   12  A    between atoms: C_16  and  C_23
   13  A    between atoms: C_18  and  C_41
   14  A    between atoms: C_18  and  C_47
   15  A    between atoms: C_22  and  N_25
   16  A    between atoms: N_34  and  C_37
                            x       y       z     vdW  Elec       q    Type
                         _______ _______ _______ _____ _____    ______ ____

>  <TORSDO>
F 16

$$$$
=
 OpenBabel11042415203D

 47 50  0  0  1  0  0  0  0  0999 V2000
  189.5430  175.0410  142.5460 C   0  0  0  0  0  0  0  0  0  0  0  0
  190.2000  174.4730  141.4100 N   0  0  0  0  0  2  0  0  0  0  0  0
  188.9330  175.2240  144.7830 C   0  0  1  0  0  3  0  0  0  0  0  0
  188.5500  176.5160  142.3910 S   0  0  0  0  0  0  0  0  0  0  0  0
  186.9990  176.6890  144.6740 N   0  0  0  0  0  0  0  0  0  0  0  0
  188.0290  176.1680  144.0690 C   0  0  0  0  0  0  0  0  0  0  0  0
  189.6400  174.5130  143.7250 N   0  0  0  0  0  0  0  0  0  0  0  0
  184.2190  178.2910  142.7190 C   0  0  0  0  0  0  0  0  0  0  0  0
  184.2590  179.5460  143.2470 N   0  0  0  0  0  0  0  0  0  0  0  0
  183.2820  177.9650  141.6950 N   0  0  0  0  0  2  0  0  0  0  0  0
  186.0320  178.9240  144.7140 C   0  0  0  0  0  3  0  0  0  0  0  0
  186.0310  177.6320  144.1790 C   0  0  0  0  0  0  0  0  0  0  0  0
  185.1060  177.3140  143.1780 C   0  0  0  0  0  3  0  0  0  0  0  0
  185.1340  179.8780  144.2300 C   0  0  0  0  0  3  0  0  0  0  0  0
  179.1950  177.6040  141.9900 C   0  0  0  0  0  3  0  0  0  0  0  0
  182.4490  178.9460  141.1360 N   0  0  0  0  0  0  0  0  0  0  0  0
  181.1620  178.9220  141.2860 C   0  0  0  0  0  0  0  0  0  0  0  0
  180.1730  180.1890  140.4860 S   0  0  0  0  0  0  0  0  0  0  0  0
  180.5050  177.8530  142.0670 C   0  0  0  0  0  3  0  0  0  0  0  0
  178.2460  178.3910  141.1260 C   0  0  0  0  0  2  0  0  0  0  0  0
  178.9480  178.9790  139.9080 C   0  0  0  0  0  2  0  0  0  0  0  0
  189.5470  177.1510  146.0540 O   0  0  0  0  0  0  0  0  0  0  0  0
  189.8990  176.0280  145.6070 C   0  0  0  0  0  0  0  0  0  0  0  0
  191.2440  175.5790  145.7910 N   0  0  0  0  0  2  0  0  0  0  0  0
  192.7040  176.8590  144.3570 C   0  0  0  0  0  1  0  0  0  0  0  0
  192.3520  176.5170  145.7890 C   0  0  2  0  0  3  0  0  0  0  0  0
  193.5570  175.8820  146.4610 C   0  0  0  0  0  2  0  0  0  0  0  0
  194.0880  174.7540  145.5800 C   0  0  0  0  0  2  0  0  0  0  0  0
  197.4920  171.8380  144.6180 C   0  0  0  0  0  2  0  0  0  0  0  0
  196.1300  175.0470  144.1180 C   0  0  1  0  0  3  0  0  0  0  0  0
  197.3450  173.0810  145.0600 C   0  0  0  0  0  0  0  0  0  0  0  0
  197.8370  174.4380  144.0080 S   0  0  0  0  0  0  0  0  0  0  0  0
  195.6200  174.7220  145.5180 C   0  0  2  0  0  3  0  0  0  0  0  0
  196.1080  176.4850  143.9080 N   0  0  0  0  0  1  0  0  0  0  0  0
  196.1920  173.3750  145.9540 C   0  0  0  0  0  2  0  0  0  0  0  0
  190.7930  173.1430  141.4120 C   0  0  0  0  0  2  0  0  0  0  0  0
  192.2760  173.2150  141.0520 C   0  0  1  0  0  3  0  0  0  0  0  0
  193.1460  173.5040  142.2790 C   0  0  0  0  0  2  0  0  0  0  0  0
  193.9490  172.2910  142.7490 C   0  0  0  0  0  2  0  0  0  0  0  0
  193.2280  171.6030  143.9000 C   0  0  0  0  0  2  0  0  0  0  0  0
  193.1120  169.3390  144.6380 O   0  0  0  0  0  1  0  0  0  0  0  0
  193.9990  170.3810  144.3610 C   0  0  0  0  0  2  0  0  0  0  0  0
  192.6910  172.0070  140.4190 O   0  0  0  0  0  0  0  0  0  0  0  0
  192.2520  171.6330  139.1440 C   0  0  0  0  0  0  0  0  0  0  0  0
  192.1630  172.5000  138.1890 N   0  0  0  0  0  2  0  0  0  0  0  0
  193.1160  169.4750  138.7420 O   0  0  0  0  0  1  0  0  0  0  0  0
  191.9330  170.2050  138.8660 C   0  0  0  0  0  2  0  0  0  0  0  0
  1  7  2  0  0  0  0
  2 36  1  0  0  0  0
  2  1  1  0  0  0  0
  3 23  1  1  0  0  0
  4  1  1  0  0  0  0
  4  6  1  0  0  0  0
  6  5  2  0  0  0  0
  6  3  1  0  0  0  0
  7  3  1  0  0  0  0
  8 13  1  0  0  0  0
  8  9  2  0  0  0  0
  9 14  1  0  0  0  0
 10  8  1  0  0  0  0
 12  5  1  0  0  0  0
 12 11  1  0  0  0  0
 13 12  2  0  0  0  0
 14 11  2  0  0  0  0
 15 19  2  0  0  0  0
 16 17  2  0  0  0  0
 16 10  1  0  0  0  0
 17 19  1  0  0  0  0
 18 17  1  0  0  0  0
 20 15  1  0  0  0  0
 21 18  1  0  0  0  0
 21 20  1  0  0  0  0
 23 24  1  0  0  0  0
 23 22  2  0  0  0  0
 26 25  1  6  0  0  0
 26 24  1  0  0  0  0
 26 27  1  0  0  0  0
 28 27  1  0  0  0  0
 29 31  2  0  0  0  0
 30 34  1  1  0  0  0
 30 33  1  0  0  0  0
 31 35  1  0  0  0  0
 32 30  1  0  0  0  0
 32 31  1  0  0  0  0
 33 28  1  6  0  0  0
 33 35  1  0  0  0  0
 37 36  1  1  0  0  0
 37 38  1  0  0  0  0
 38 39  1  0  0  0  0
 39 40  1  0  0  0  0
 40 42  1  0  0  0  0
 42 41  1  0  0  0  0
 43 37  1  0  0  0  0
 44 43  1  0  0  0  0
 45 44  2  0  0  0  0
 46 47  1  0  0  0  0
 47 44  1  0  0  0  0
M  END
>  <MODEL>
3

>  <REMARK>
 VINA RESULT:      -5.9      4.326      8.917
  Name = 
  16 active torsions:
  status: ('A' for Active; 'I' for Inactive)
    1  A    between atoms: C_1  and  O_15
    2  A    between atoms: C_1  and  C_32
    3  A    between atoms: C_3  and  C_10
    4  A    between atoms: C_3  and  C_41
    5  A    between atoms: N_5  and  N_26
    6  A    between atoms: C_6  and  C_14
    7  A    between atoms: C_6  and  C_22
    8  A    between atoms: C_10  and  O_15
    9  A    between atoms: C_10  and  C_33
   10  A    between atoms: N_12  and  C_33
   11  A    between atoms: C_14  and  C_38
   12  A    between atoms: C_16  and  C_23
   13  A    between atoms: C_18  and  C_41
   14  A    between atoms: C_18  and  C_47
   15  A    between atoms: C_22  and  N_25
   16  A    between atoms: N_34  and  C_37
                            x       y       z     vdW  Elec       q    Type
                         _______ _______ _______ _____ _____    ______ ____

>  <TORSDO>
F 16

$$$$
=
 OpenBabel11042415203D

 47 50  0  0  1  0  0  0  0  0999 V2000
  189.0750  175.2700  141.5940 C   0  0  0  0  0  0  0  0  0  0  0  0
  188.9470  176.4630  142.3730 N   0  0  0  0  0  2  0  0  0  0  0  0
  188.4200  173.6420  140.0680 C   0  0  1  0  0  3  0  0  0  0  0  0
  190.5610  174.2840  141.6620 S   0  0  0  0  0  0  0  0  0  0  0  0
  189.9450  171.8190  140.5690 N   0  0  0  0  0  0  0  0  0  0  0  0
  189.6280  173.0730  140.7280 C   0  0  0  0  0  0  0  0  0  0  0  0
  188.1260  174.8590  140.8130 N   0  0  0  0  0  0  0  0  0  0  0  0
  192.3920  170.1660  142.8920 C   0  0  0  0  0  0  0  0  0  0  0  0
  193.3170  169.7390  141.9880 N   0  0  0  0  0  0  0  0  0  0  0  0
  192.5760  169.9260  144.2860 N   0  0  0  0  0  2  0  0  0  0  0  0
  192.0310  170.6220  140.1850 C   0  0  0  0  0  3  0  0  0  0  0  0
  191.0720  171.0900  141.0880 C   0  0  0  0  0  0  0  0  0  0  0  0
  191.2540  170.8480  142.4540 C   0  0  0  0  0  3  0  0  0  0  0  0
  193.1590  169.9450  140.6560 C   0  0  0  0  0  3  0  0  0  0  0  0
  195.6530  172.2990  145.6350 C   0  0  0  0  0  3  0  0  0  0  0  0
  193.7540  169.3380  144.7700 N   0  0  0  0  0  0  0  0  0  0  0  0
  194.7100  170.0430  145.2910 C   0  0  0  0  0  0  0  0  0  0  0  0
  196.2050  169.2080  145.8300 S   0  0  0  0  0  0  0  0  0  0  0  0
  194.5990  171.5110  145.4080 C   0  0  0  0  0  3  0  0  0  0  0  0
  197.0550  171.7830  145.8200 C   0  0  0  0  0  2  0  0  0  0  0  0
  197.2740  170.4690  145.0800 C   0  0  0  0  0  2  0  0  0  0  0  0
  187.8610  174.3110  137.8430 O   0  0  0  0  0  0  0  0  0  0  0  0
  188.7720  173.9730  138.6450 C   0  0  0  0  0  0  0  0  0  0  0  0
  190.1090  173.7990  138.1690 N   0  0  0  0  0  2  0  0  0  0  0  0
  190.0770  171.8060  136.8080 C   0  0  0  0  0  1  0  0  0  0  0  0
  190.3680  173.2910  136.8340 C   0  0  2  0  0  3  0  0  0  0  0  0
  191.8250  173.5200  136.4760 C   0  0  0  0  0  2  0  0  0  0  0  0
  192.6950  172.5280  137.2440 C   0  0  0  0  0  2  0  0  0  0  0  0
  194.2840  173.3810  141.4580 C   0  0  0  0  0  2  0  0  0  0  0  0
  195.0010  172.1910  138.2220 C   0  0  1  0  0  3  0  0  0  0  0  0
  194.6060  173.6600  140.2010 C   0  0  0  0  0  0  0  0  0  0  0  0
  196.0700  172.9180  139.4970 S   0  0  0  0  0  0  0  0  0  0  0  0
  193.8910  173.1960  137.9310 C   0  0  2  0  0  3  0  0  0  0  0  0
  195.7740  171.9470  137.0160 N   0  0  0  0  0  1  0  0  0  0  0  0
  193.5020  173.8950  139.2300 C   0  0  0  0  0  2  0  0  0  0  0  0
  187.6820  177.1570  142.5690 C   0  0  0  0  0  2  0  0  0  0  0  0
  187.2510  177.0850  144.0330 C   0  0  1  0  0  3  0  0  0  0  0  0
  185.7510  176.8080  144.1720 C   0  0  0  0  0  2  0  0  0  0  0  0
  184.9530  178.0290  144.6310 C   0  0  0  0  0  2  0  0  0  0  0  0
  185.8630  179.0010  145.3690 C   0  0  0  0  0  2  0  0  0  0  0  0
  184.3770  178.4100  147.1360 O   0  0  0  0  0  1  0  0  0  0  0  0
  185.6580  178.8950  146.8670 C   0  0  0  0  0  2  0  0  0  0  0  0
  188.0090  176.0950  144.7240 O   0  0  0  0  0  0  0  0  0  0  0  0
  188.6670  176.3530  145.9310 C   0  0  0  0  0  0  0  0  0  0  0  0
  189.2930  177.4680  146.1230 N   0  0  0  0  0  2  0  0  0  0  0  0
  189.8940  174.9780  147.4030 O   0  0  0  0  0  1  0  0  0  0  0  0
  188.6030  175.3520  147.0320 C   0  0  0  0  0  2  0  0  0  0  0  0
  1  4  1  0  0  0  0
  1  2  1  0  0  0  0
  2 36  1  0  0  0  0
  3 23  1  6  0  0  0
  3  6  1  0  0  0  0
  3  7  1  0  0  0  0
  5  6  2  0  0  0  0
  5 12  1  0  0  0  0
  6  4  1  0  0  0  0
  7  1  2  0  0  0  0
  8 10  1  0  0  0  0
  9  8  2  0  0  0  0
 10 16  1  0  0  0  0
 11 14  2  0  0  0  0
 11 12  1  0  0  0  0
 12 13  2  0  0  0  0
 13  8  1  0  0  0  0
 14  9  1  0  0  0  0
 15 20  1  0  0  0  0
 16 17  2  0  0  0  0
 17 19  1  0  0  0  0
 17 18  1  0  0  0  0
 19 15  2  0  0  0  0
 21 20  1  0  0  0  0
 21 18  1  0  0  0  0
 22 23  2  0  0  0  0
 24 23  1  0  0  0  0
 26 25  1  1  0  0  0
 26 24  1  0  0  0  0
 27 26  1  0  0  0  0
 27 28  1  0  0  0  0
 30 34  1  6  0  0  0
 30 32  1  0  0  0  0
 31 29  2  0  0  0  0
 32 31  1  0  0  0  0
 33 28  1  1  0  0  0
 33 30  1  0  0  0  0
 33 35  1  0  0  0  0
 35 31  1  0  0  0  0
 37 36  1  6  0  0  0
 37 38  1  0  0  0  0
 37 43  1  0  0  0  0
 38 39  1  0  0  0  0
 39 40  1  0  0  0  0
 40 42  1  0  0  0  0
 42 41  1  0  0  0  0
 43 44  1  0  0  0  0
 44 45  2  0  0  0  0
 44 47  1  0  0  0  0
 47 46  1  0  0  0  0
M  END
>  <MODEL>
4

>  <REMARK>
 VINA RESULT:      -5.8      2.611      6.913
  Name = 
  16 active torsions:
  status: ('A' for Active; 'I' for Inactive)
    1  A    between atoms: C_1  and  O_15
    2  A    between atoms: C_1  and  C_32
    3  A    between atoms: C_3  and  C_10
    4  A    between atoms: C_3  and  C_41
    5  A    between atoms: N_5  and  N_26
    6  A    between atoms: C_6  and  C_14
    7  A    between atoms: C_6  and  C_22
    8  A    between atoms: C_10  and  O_15
    9  A    between atoms: C_10  and  C_33
   10  A    between atoms: N_12  and  C_33
   11  A    between atoms: C_14  and  C_38
   12  A    between atoms: C_16  and  C_23
   13  A    between atoms: C_18  and  C_41
   14  A    between atoms: C_18  and  C_47
   15  A    between atoms: C_22  and  N_25
   16  A    between atoms: N_34  and  C_37
                            x       y       z     vdW  Elec       q    Type
                         _______ _______ _______ _____ _____    ______ ____

>  <TORSDO>
F 16

$$$$
=
 OpenBabel11042415203D

 47 50  0  0  1  0  0  0  0  0999 V2000
  189.5220  175.0420  142.4650 C   0  0  0  0  0  0  0  0  0  0  0  0
  190.1720  174.4870  141.3180 N   0  0  0  0  0  2  0  0  0  0  0  0
  188.9280  175.2020  144.7080 C   0  0  1  0  0  3  0  0  0  0  0  0
  188.5240  176.5160  142.3310 S   0  0  0  0  0  0  0  0  0  0  0  0
  186.9890  176.6620  144.6280 N   0  0  0  0  0  0  0  0  0  0  0  0
  188.0160  176.1510  144.0100 C   0  0  0  0  0  0  0  0  0  0  0  0
  189.6290  174.5030  143.6380 N   0  0  0  0  0  0  0  0  0  0  0  0
  184.2090  178.2850  142.6900 C   0  0  0  0  0  0  0  0  0  0  0  0
  184.2300  179.5260  143.2520 N   0  0  0  0  0  0  0  0  0  0  0  0
  183.2850  177.9750  141.6490 N   0  0  0  0  0  2  0  0  0  0  0  0
  185.9970  178.8850  144.7180 C   0  0  0  0  0  3  0  0  0  0  0  0
  186.0150  177.6070  144.1490 C   0  0  0  0  0  0  0  0  0  0  0  0
  185.1020  177.3060  143.1320 C   0  0  0  0  0  3  0  0  0  0  0  0
  185.0920  179.8410  144.2510 C   0  0  0  0  0  3  0  0  0  0  0  0
  179.2020  177.6230  142.0070 C   0  0  0  0  0  3  0  0  0  0  0  0
  182.4460  178.9610  141.1090 N   0  0  0  0  0  0  0  0  0  0  0  0
  181.1600  178.9400  141.2800 C   0  0  0  0  0  0  0  0  0  0  0  0
  180.1620  180.2140  140.5020 S   0  0  0  0  0  0  0  0  0  0  0  0
  180.5130  177.8690  142.0650 C   0  0  0  0  0  3  0  0  0  0  0  0
  178.2420  178.4170  141.1620 C   0  0  0  0  0  2  0  0  0  0  0  0
  178.9260  179.0100  139.9360 C   0  0  0  0  0  2  0  0  0  0  0  0
  189.5620  177.1380  145.9560 O   0  0  0  0  0  0  0  0  0  0  0  0
  189.8980  176.0010  145.5330 C   0  0  0  0  0  0  0  0  0  0  0  0
  191.2310  175.5290  145.7440 N   0  0  0  0  0  2  0  0  0  0  0  0
  192.6590  176.8510  144.3160 C   0  0  0  0  0  1  0  0  0  0  0  0
  192.3580  176.4440  145.7430 C   0  0  2  0  0  3  0  0  0  0  0  0
  193.5750  175.7540  146.3320 C   0  0  0  0  0  2  0  0  0  0  0  0
  194.2600  174.9280  145.2460 C   0  0  0  0  0  2  0  0  0  0  0  0
  194.0930  170.4570  144.2460 C   0  0  0  0  0  2  0  0  0  0  0  0
  196.1130  173.2150  145.0960 C   0  0  1  0  0  3  0  0  0  0  0  0
  194.5840  171.2450  145.1960 C   0  0  0  0  0  0  0  0  0  0  0  0
  196.3550  171.4310  145.3360 S   0  0  0  0  0  0  0  0  0  0  0  0
  194.7970  173.5910  145.7690 C   0  0  2  0  0  3  0  0  0  0  0  0
  197.2080  173.9450  145.7120 N   0  0  0  0  0  1  0  0  0  0  0  0
  193.8000  172.4500  145.5820 C   0  0  0  0  0  2  0  0  0  0  0  0
  190.7690  173.1590  141.3030 C   0  0  0  0  0  2  0  0  0  0  0  0
  192.1800  173.2100  140.7210 C   0  0  1  0  0  3  0  0  0  0  0  0
  193.2490  173.0310  141.8030 C   0  0  0  0  0  2  0  0  0  0  0  0
  194.4320  173.9870  141.6450 C   0  0  0  0  0  2  0  0  0  0  0  0
  193.9720  175.2840  140.9930 C   0  0  0  0  0  2  0  0  0  0  0  0
  195.6240  176.1430  142.4810 O   0  0  0  0  0  1  0  0  0  0  0  0
  194.9460  176.4070  141.2900 C   0  0  0  0  0  2  0  0  0  0  0  0
  192.3310  172.2250  139.7020 O   0  0  0  0  0  0  0  0  0  0  0  0
  191.4830  172.1490  138.5920 C   0  0  0  0  0  0  0  0  0  0  0  0
  191.3520  173.1520  137.7850 N   0  0  0  0  0  2  0  0  0  0  0  0
  191.6740  169.8920  137.9380 O   0  0  0  0  0  1  0  0  0  0  0  0
  190.7600  170.8800  138.3030 C   0  0  0  0  0  2  0  0  0  0  0  0
  1  7  2  0  0  0  0
  2  1  1  0  0  0  0
  3 23  1  1  0  0  0
  4  1  1  0  0  0  0
  4  6  1  0  0  0  0
  6  5  2  0  0  0  0
  6  3  1  0  0  0  0
  7  3  1  0  0  0  0
  8 13  1  0  0  0  0
  8  9  2  0  0  0  0
  9 14  1  0  0  0  0
 10  8  1  0  0  0  0
 12  5  1  0  0  0  0
 12 11  1  0  0  0  0
 13 12  2  0  0  0  0
 14 11  2  0  0  0  0
 15 19  2  0  0  0  0
 16 17  2  0  0  0  0
 16 10  1  0  0  0  0
 17 19  1  0  0  0  0
 18 17  1  0  0  0  0
 20 15  1  0  0  0  0
 21 18  1  0  0  0  0
 21 20  1  0  0  0  0
 23 24  1  0  0  0  0
 23 22  2  0  0  0  0
 26 25  1  6  0  0  0
 26 24  1  0  0  0  0
 26 27  1  0  0  0  0
 28 27  1  0  0  0  0
 29 31  2  0  0  0  0
 30 32  1  0  0  0  0
 30 34  1  1  0  0  0
 30 33  1  0  0  0  0
 31 32  1  0  0  0  0
 31 35  1  0  0  0  0
 33 28  1  6  0  0  0
 35 33  1  0  0  0  0
 36  2  1  0  0  0  0
 37 36  1  1  0  0  0
 37 38  1  0  0  0  0
 39 38  1  0  0  0  0
 40 42  1  0  0  0  0
 40 39  1  0  0  0  0
 42 41  1  0  0  0  0
 43 37  1  0  0  0  0
 44 43  1  0  0  0  0
 45 44  2  0  0  0  0
 46 47  1  0  0  0  0
 47 44  1  0  0  0  0
M  END
>  <MODEL>
5

>  <REMARK>
 VINA RESULT:      -5.7      4.117      8.753
  Name = 
  16 active torsions:
  status: ('A' for Active; 'I' for Inactive)
    1  A    between atoms: C_1  and  O_15
    2  A    between atoms: C_1  and  C_32
    3  A    between atoms: C_3  and  C_10
    4  A    between atoms: C_3  and  C_41
    5  A    between atoms: N_5  and  N_26
    6  A    between atoms: C_6  and  C_14
    7  A    between atoms: C_6  and  C_22
    8  A    between atoms: C_10  and  O_15
    9  A    between atoms: C_10  and  C_33
   10  A    between atoms: N_12  and  C_33
   11  A    between atoms: C_14  and  C_38
   12  A    between atoms: C_16  and  C_23
   13  A    between atoms: C_18  and  C_41
   14  A    between atoms: C_18  and  C_47
   15  A    between atoms: C_22  and  N_25
   16  A    between atoms: N_34  and  C_37
                            x       y       z     vdW  Elec       q    Type
                         _______ _______ _______ _____ _____    ______ ____

>  <TORSDO>
F 16

$$$$
=
 OpenBabel11042415203D

 47 50  0  0  1  0  0  0  0  0999 V2000
  192.3150  172.6920  140.7230 C   0  0  0  0  0  0  0  0  0  0  0  0
  192.1380  172.6720  139.3040 N   0  0  0  0  0  2  0  0  0  0  0  0
  192.8550  171.8300  142.8140 C   0  0  1  0  0  3  0  0  0  0  0  0
  192.0140  174.1780  141.6650 S   0  0  0  0  0  0  0  0  0  0  0  0
  191.8050  173.4220  144.3180 N   0  0  0  0  0  0  0  0  0  0  0  0
  192.1790  173.1250  143.1060 C   0  0  0  0  0  0  0  0  0  0  0  0
  192.6970  171.6410  141.3780 N   0  0  0  0  0  0  0  0  0  0  0  0
  189.3310  175.8170  145.8210 C   0  0  0  0  0  0  0  0  0  0  0  0
  190.0110  176.9860  145.6560 N   0  0  0  0  0  0  0  0  0  0  0  0
  188.0350  175.8100  146.4170 N   0  0  0  0  0  2  0  0  0  0  0  0
  191.8500  175.8310  144.6720 C   0  0  0  0  0  3  0  0  0  0  0  0
  191.1710  174.6170  144.8090 C   0  0  0  0  0  0  0  0  0  0  0  0
  189.9020  174.6140  145.4000 C   0  0  0  0  0  3  0  0  0  0  0  0
  191.2490  177.0170  145.1020 C   0  0  0  0  0  3  0  0  0  0  0  0
  185.1670  177.3730  143.9170 C   0  0  0  0  0  3  0  0  0  0  0  0
  187.3880  177.0070  146.7550 N   0  0  0  0  0  0  0  0  0  0  0  0
  186.4130  177.4870  146.0460 C   0  0  0  0  0  0  0  0  0  0  0  0
  185.6840  179.0560  146.5240 S   0  0  0  0  0  0  0  0  0  0  0  0
  185.9300  176.7820  144.8400 C   0  0  0  0  0  3  0  0  0  0  0  0
  184.6990  178.8010  144.0110 C   0  0  0  0  0  2  0  0  0  0  0  0
  185.6690  179.6610  144.8120 C   0  0  0  0  0  2  0  0  0  0  0  0
  195.1110  172.4410  142.3170 O   0  0  0  0  0  0  0  0  0  0  0  0
  194.3100  171.9680  143.1650 C   0  0  0  0  0  0  0  0  0  0  0  0
  194.8070  171.4650  144.4080 N   0  0  0  0  0  2  0  0  0  0  0  0
  196.0060  169.6410  145.4390 C   0  0  0  0  0  1  0  0  0  0  0  0
  196.1030  170.8150  144.4880 C   0  0  2  0  0  3  0  0  0  0  0  0
  197.1340  171.7980  145.0130 C   0  0  0  0  0  2  0  0  0  0  0  0
  196.4380  172.8440  145.8800 C   0  0  0  0  0  2  0  0  0  0  0  0
  197.2670  175.2270  142.0530 C   0  0  0  0  0  2  0  0  0  0  0  0
  195.4710  175.0370  145.0760 C   0  0  1  0  0  3  0  0  0  0  0  0
  197.2430  175.4320  143.3640 C   0  0  0  0  0  0  0  0  0  0  0  0
  195.9570  176.4590  144.0560 S   0  0  0  0  0  0  0  0  0  0  0  0
  196.7440  174.2790  145.4380 C   0  0  2  0  0  3  0  0  0  0  0  0
  194.8140  175.5030  146.2860 N   0  0  0  0  0  1  0  0  0  0  0  0
  197.7060  174.3320  144.2540 C   0  0  0  0  0  2  0  0  0  0  0  0
  192.1040  171.4450  138.5200 C   0  0  0  0  0  2  0  0  0  0  0  0
  190.7610  171.3010  137.8060 C   0  0  1  0  0  3  0  0  0  0  0  0
  189.5830  171.5240  138.7570 C   0  0  0  0  0  2  0  0  0  0  0  0
  188.7600  172.7670  138.4170 C   0  0  0  0  0  2  0  0  0  0  0  0
  188.6790  173.6880  139.6270 C   0  0  0  0  0  2  0  0  0  0  0  0
  188.6070  173.6900  142.0090 O   0  0  0  0  0  1  0  0  0  0  0  0
  188.3810  172.8950  140.8840 C   0  0  0  0  0  2  0  0  0  0  0  0
  190.6890  172.1980  136.7010 O   0  0  0  0  0  0  0  0  0  0  0  0
  191.3020  171.9340  135.4710 C   0  0  0  0  0  0  0  0  0  0  0  0
  191.0670  170.8350  134.8320 N   0  0  0  0  0  2  0  0  0  0  0  0
  192.8260  173.6900  135.8670 O   0  0  0  0  0  1  0  0  0  0  0  0
  192.1980  172.9560  134.8610 C   0  0  0  0  0  2  0  0  0  0  0  0
  1  7  2  0  0  0  0
  1  4  1  0  0  0  0
  2  1  1  0  0  0  0
  3  6  1  0  0  0  0
  3 23  1  6  0  0  0
  4  6  1  0  0  0  0
  5 12  1  0  0  0  0
  6  5  2  0  0  0  0
  7  3  1  0  0  0  0
  8 10  1  0  0  0  0
  9  8  2  0  0  0  0
 10 16  1  0  0  0  0
 11 12  1  0  0  0  0
 11 14  2  0  0  0  0
 12 13  2  0  0  0  0
 13  8  1  0  0  0  0
 14  9  1  0  0  0  0
 15 20  1  0  0  0  0
 15 19  2  0  0  0  0
 17 18  1  0  0  0  0
 17 16  2  0  0  0  0
 19 17  1  0  0  0  0
 20 21  1  0  0  0  0
 21 18  1  0  0  0  0
 22 23  2  0  0  0  0
 23 24  1  0  0  0  0
 24 26  1  0  0  0  0
 26 27  1  0  0  0  0
 26 25  1  1  0  0  0
 27 28  1  0  0  0  0
 29 31  2  0  0  0  0
 30 33  1  0  0  0  0
 30 34  1  1  0  0  0
 31 32  1  0  0  0  0
 31 35  1  0  0  0  0
 32 30  1  0  0  0  0
 33 28  1  6  0  0  0
 35 33  1  0  0  0  0
 36  2  1  0  0  0  0
 37 36  1  1  0  0  0
 37 38  1  0  0  0  0
 39 38  1  0  0  0  0
 39 40  1  0  0  0  0
 40 42  1  0  0  0  0
 42 41  1  0  0  0  0
 43 37  1  0  0  0  0
 44 43  1  0  0  0  0
 45 44  2  0  0  0  0
 47 44  1  0  0  0  0
 47 46  1  0  0  0  0
M  END
>  <MODEL>
6

>  <REMARK>
 VINA RESULT:      -5.7      3.104      8.039
  Name = 
  16 active torsions:
  status: ('A' for Active; 'I' for Inactive)
    1  A    between atoms: C_1  and  O_15
    2  A    between atoms: C_1  and  C_32
    3  A    between atoms: C_3  and  C_10
    4  A    between atoms: C_3  and  C_41
    5  A    between atoms: N_5  and  N_26
    6  A    between atoms: C_6  and  C_14
    7  A    between atoms: C_6  and  C_22
    8  A    between atoms: C_10  and  O_15
    9  A    between atoms: C_10  and  C_33
   10  A    between atoms: N_12  and  C_33
   11  A    between atoms: C_14  and  C_38
   12  A    between atoms: C_16  and  C_23
   13  A    between atoms: C_18  and  C_41
   14  A    between atoms: C_18  and  C_47
   15  A    between atoms: C_22  and  N_25
   16  A    between atoms: N_34  and  C_37
                            x       y       z     vdW  Elec       q    Type
                         _______ _______ _______ _____ _____    ______ ____

>  <TORSDO>
F 16

$$$$
=
 OpenBabel11042415203D

 47 50  0  0  1  0  0  0  0  0999 V2000
  192.0120  171.4870  140.9240 C   0  0  0  0  0  0  0  0  0  0  0  0
  191.7870  171.0510  139.5810 N   0  0  0  0  0  2  0  0  0  0  0  0
  192.6430  171.2820  143.1530 C   0  0  1  0  0  3  0  0  0  0  0  0
  191.7110  173.1800  141.4020 S   0  0  0  0  0  0  0  0  0  0  0  0
  191.6090  173.2330  144.1650 N   0  0  0  0  0  0  0  0  0  0  0  0
  191.9480  172.5980  143.0800 C   0  0  0  0  0  0  0  0  0  0  0  0
  192.4400  170.6790  141.8420 N   0  0  0  0  0  0  0  0  0  0  0  0
  189.0950  176.0220  144.0540 C   0  0  0  0  0  0  0  0  0  0  0  0
  189.8490  177.0340  144.5680 N   0  0  0  0  0  0  0  0  0  0  0  0
  187.7480  176.2560  143.6470 N   0  0  0  0  0  2  0  0  0  0  0  0
  191.7070  175.5680  144.8520 C   0  0  0  0  0  3  0  0  0  0  0  0
  190.9660  174.5120  144.3110 C   0  0  0  0  0  0  0  0  0  0  0  0
  189.6430  174.7450  143.9190 C   0  0  0  0  0  3  0  0  0  0  0  0
  191.1280  176.8330  144.9720 C   0  0  0  0  0  3  0  0  0  0  0  0
  184.9430  177.2450  146.4890 C   0  0  0  0  0  3  0  0  0  0  0  0
  187.1980  177.5460  143.6710 N   0  0  0  0  0  0  0  0  0  0  0  0
  186.3830  177.9300  144.6030 C   0  0  0  0  0  0  0  0  0  0  0  0
  185.6860  179.5820  144.5180 S   0  0  0  0  0  0  0  0  0  0  0  0
  185.9970  177.0190  145.7010 C   0  0  0  0  0  3  0  0  0  0  0  0
  184.0530  178.4530  146.3650 C   0  0  0  0  0  2  0  0  0  0  0  0
  184.0230  178.9870  144.9380 C   0  0  0  0  0  2  0  0  0  0  0  0
  194.8800  171.6660  142.4070 O   0  0  0  0  0  0  0  0  0  0  0  0
  194.1050  171.5340  143.3910 C   0  0  0  0  0  0  0  0  0  0  0  0
  194.6380  171.5110  144.7170 N   0  0  0  0  0  2  0  0  0  0  0  0
  195.8030  169.9230  146.1130 C   0  0  0  0  0  1  0  0  0  0  0  0
  195.9410  170.9300  144.9910 C   0  0  2  0  0  3  0  0  0  0  0  0
  196.9060  172.0220  145.4160 C   0  0  0  0  0  2  0  0  0  0  0  0
  196.1310  173.3140  145.6600 C   0  0  0  0  0  2  0  0  0  0  0  0
  197.9410  174.6180  141.6560 C   0  0  0  0  0  2  0  0  0  0  0  0
  195.7790  175.4260  144.3160 C   0  0  1  0  0  3  0  0  0  0  0  0
  197.7970  175.1010  142.8840 C   0  0  0  0  0  0  0  0  0  0  0  0
  196.6920  176.4770  143.1490 S   0  0  0  0  0  0  0  0  0  0  0  0
  196.7990  174.5360  145.0200 C   0  0  2  0  0  3  0  0  0  0  0  0
  195.0940  176.2570  145.2910 N   0  0  0  0  0  1  0  0  0  0  0  0
  197.8910  174.1500  144.0260 C   0  0  0  0  0  2  0  0  0  0  0  0
  191.7530  169.6470  139.1910 C   0  0  0  0  0  2  0  0  0  0  0  0
  192.1560  169.4860  137.7280 C   0  0  1  0  0  3  0  0  0  0  0  0
  190.9390  169.4890  136.7980 C   0  0  0  0  0  2  0  0  0  0  0  0
  190.8910  170.7040  135.8710 C   0  0  0  0  0  2  0  0  0  0  0  0
  189.5230  171.3670  135.9490 C   0  0  0  0  0  2  0  0  0  0  0  0
  190.1500  173.4240  136.9770 O   0  0  0  0  0  1  0  0  0  0  0  0
  189.4250  172.2480  137.1790 C   0  0  0  0  0  2  0  0  0  0  0  0
  193.0750  170.5080  137.3510 O   0  0  0  0  0  0  0  0  0  0  0  0
  194.3720  170.2310  136.9050 C   0  0  0  0  0  0  0  0  0  0  0  0
  194.5940  169.2940  136.0420 N   0  0  0  0  0  2  0  0  0  0  0  0
  195.1410  171.7230  138.5610 O   0  0  0  0  0  1  0  0  0  0  0  0
  195.5090  171.0620  137.3900 C   0  0  0  0  0  2  0  0  0  0  0  0
  1  4  1  0  0  0  0
  1  7  2  0  0  0  0
  2  1  1  0  0  0  0
  3 23  1  6  0  0  0
  4  6  1  0  0  0  0
  5 12  1  0  0  0  0
  6  3  1  0  0  0  0
  6  5  2  0  0  0  0
  7  3  1  0  0  0  0
  8  9  2  0  0  0  0
  9 14  1  0  0  0  0
 10 16  1  0  0  0  0
 10  8  1  0  0  0  0
 11 14  2  0  0  0  0
 12 11  1  0  0  0  0
 13  8  1  0  0  0  0
 13 12  2  0  0  0  0
 16 17  2  0  0  0  0
 17 19  1  0  0  0  0
 18 17  1  0  0  0  0
 18 21  1  0  0  0  0
 19 15  2  0  0  0  0
 20 15  1  0  0  0  0
 21 20  1  0  0  0  0
 22 23  2  0  0  0  0
 23 24  1  0  0  0  0
 24 26  1  0  0  0  0
 26 27  1  0  0  0  0
 26 25  1  1  0  0  0
 27 28  1  0  0  0  0
 29 31  2  0  0  0  0
 30 33  1  0  0  0  0
 30 34  1  1  0  0  0
 31 32  1  0  0  0  0
 31 35  1  0  0  0  0
 32 30  1  0  0  0  0
 33 28  1  6  0  0  0
 35 33  1  0  0  0  0
 36  2  1  0  0  0  0
 37 38  1  6  0  0  0
 37 36  1  0  0  0  0
 39 40  1  0  0  0  0
 39 38  1  0  0  0  0
 40 42  1  0  0  0  0
 41 42  1  0  0  0  0
 43 37  1  0  0  0  0
 44 43  1  0  0  0  0
 44 47  1  0  0  0  0
 45 44  2  0  0  0  0
 47 46  1  0  0  0  0
M  END
>  <MODEL>
7

>  <REMARK>
 VINA RESULT:      -5.5      3.448      8.728
  Name = 
  16 active torsions:
  status: ('A' for Active; 'I' for Inactive)
    1  A    between atoms: C_1  and  O_15
    2  A    between atoms: C_1  and  C_32
    3  A    between atoms: C_3  and  C_10
    4  A    between atoms: C_3  and  C_41
    5  A    between atoms: N_5  and  N_26
    6  A    between atoms: C_6  and  C_14
    7  A    between atoms: C_6  and  C_22
    8  A    between atoms: C_10  and  O_15
    9  A    between atoms: C_10  and  C_33
   10  A    between atoms: N_12  and  C_33
   11  A    between atoms: C_14  and  C_38
   12  A    between atoms: C_16  and  C_23
   13  A    between atoms: C_18  and  C_41
   14  A    between atoms: C_18  and  C_47
   15  A    between atoms: C_22  and  N_25
   16  A    between atoms: N_34  and  C_37
                            x       y       z     vdW  Elec       q    Type
                         _______ _______ _______ _____ _____    ______ ____

>  <TORSDO>
F 16

$$$$
=
 OpenBabel11042415203D

 47 50  0  0  1  0  0  0  0  0999 V2000
  189.7510  176.4760  144.6050 C   0  0  0  0  0  0  0  0  0  0  0  0
  190.5600  176.2780  145.7680 N   0  0  0  0  0  2  0  0  0  0  0  0
  189.3070  176.7230  142.3360 C   0  0  1  0  0  3  0  0  0  0  0  0
  187.9780  176.6350  144.7370 S   0  0  0  0  0  0  0  0  0  0  0  0
  187.0850  177.7020  142.3470 N   0  0  0  0  0  0  0  0  0  0  0  0
  188.0370  177.1120  143.0110 C   0  0  0  0  0  0  0  0  0  0  0  0
  190.2660  176.5460  143.4190 N   0  0  0  0  0  0  0  0  0  0  0  0
  183.4050  178.4410  142.5160 C   0  0  0  0  0  0  0  0  0  0  0  0
  183.3470  179.0510  143.7330 N   0  0  0  0  0  0  0  0  0  0  0  0
  182.2270  178.2810  141.7280 N   0  0  0  0  0  2  0  0  0  0  0  0
  185.6890  178.7420  144.0510 C   0  0  0  0  0  3  0  0  0  0  0  0
  185.7870  178.1280  142.7990 C   0  0  0  0  0  0  0  0  0  0  0  0
  184.6270  177.9690  142.0310 C   0  0  0  0  0  3  0  0  0  0  0  0
  184.4520  179.2040  144.5050 C   0  0  0  0  0  3  0  0  0  0  0  0
  178.9170  177.9590  139.3060 C   0  0  0  0  0  3  0  0  0  0  0  0
  181.0030  178.8340  142.1350 N   0  0  0  0  0  0  0  0  0  0  0  0
  179.9150  178.6750  141.4490 C   0  0  0  0  0  0  0  0  0  0  0  0
  178.4080  179.4690  142.0190 S   0  0  0  0  0  0  0  0  0  0  0  0
  179.9100  177.8900  140.1970 C   0  0  0  0  0  3  0  0  0  0  0  0
  177.6930  178.8170  139.4860 C   0  0  0  0  0  2  0  0  0  0  0  0
  177.9830  180.0390  140.3480 C   0  0  0  0  0  2  0  0  0  0  0  0
  188.0450  175.2690  140.9210 O   0  0  0  0  0  0  0  0  0  0  0  0
  189.0810  175.4210  141.6200 C   0  0  0  0  0  0  0  0  0  0  0  0
  189.9730  174.3210  141.8180 N   0  0  0  0  0  2  0  0  0  0  0  0
  189.0430  172.6840  143.3280 C   0  0  0  0  0  1  0  0  0  0  0  0
  189.4750  172.9600  141.9040 C   0  0  2  0  0  3  0  0  0  0  0  0
  190.5760  171.9890  141.5190 C   0  0  0  0  0  2  0  0  0  0  0  0
  191.1520  172.3920  140.1640 C   0  0  0  0  0  2  0  0  0  0  0  0
  190.4040  173.8780  135.8920 C   0  0  0  0  0  2  0  0  0  0  0  0
  190.6130  171.1060  138.0560 C   0  0  1  0  0  3  0  0  0  0  0  0
  189.8100  173.1030  136.7920 C   0  0  0  0  0  0  0  0  0  0  0  0
  189.7160  171.3450  136.4940 S   0  0  0  0  0  0  0  0  0  0  0  0
  190.1550  172.1990  139.0150 C   0  0  2  0  0  3  0  0  0  0  0  0
  190.2950  169.8000  138.6080 N   0  0  0  0  0  1  0  0  0  0  0  0
  189.9200  173.4850  138.2270 C   0  0  0  0  0  2  0  0  0  0  0  0
  192.0110  176.4090  145.7640 C   0  0  0  0  0  2  0  0  0  0  0  0
  192.6730  175.0610  146.0400 C   0  0  1  0  0  3  0  0  0  0  0  0
  192.2120  173.9860  145.0510 C   0  0  0  0  0  2  0  0  0  0  0  0
  193.1220  172.7570  145.0280 C   0  0  0  0  0  2  0  0  0  0  0  0
  193.6580  172.5310  143.6210 C   0  0  0  0  0  2  0  0  0  0  0  0
  192.7240  170.3530  143.8680 O   0  0  0  0  0  1  0  0  0  0  0  0
  193.8110  171.0500  143.3380 C   0  0  0  0  0  2  0  0  0  0  0  0
  194.0930  175.1920  146.0100 O   0  0  0  0  0  0  0  0  0  0  0  0
  194.7410  176.2490  145.3640 C   0  0  0  0  0  0  0  0  0  0  0  0
  194.9270  177.3810  145.9610 N   0  0  0  0  0  2  0  0  0  0  0  0
  196.3410  175.1570  144.0180 O   0  0  0  0  0  1  0  0  0  0  0  0
  195.2730  176.0540  143.9870 C   0  0  0  0  0  2  0  0  0  0  0  0
  1  4  1  0  0  0  0
  1  2  1  0  0  0  0
  3 23  1  1  0  0  0
  3  6  1  0  0  0  0
  3  7  1  0  0  0  0
  5 12  1  0  0  0  0
  5  6  2  0  0  0  0
  6  4  1  0  0  0  0
  7  1  2  0  0  0  0
  8  9  2  0  0  0  0
  9 14  1  0  0  0  0
 10 16  1  0  0  0  0
 10  8  1  0  0  0  0
 11 14  2  0  0  0  0
 12 11  1  0  0  0  0
 13  8  1  0  0  0  0
 13 12  2  0  0  0  0
 15 20  1  0  0  0  0
 15 19  2  0  0  0  0
 17 18  1  0  0  0  0
 17 16  2  0  0  0  0
 19 17  1  0  0  0  0
 20 21  1  0  0  0  0
 21 18  1  0  0  0  0
 22 23  2  0  0  0  0
 23 24  1  0  0  0  0
 24 26  1  0  0  0  0
 26 25  1  1  0  0  0
 27 26  1  0  0  0  0
 28 27  1  0  0  0  0
 29 31  2  0  0  0  0
 30 34  1  1  0  0  0
 30 33  1  0  0  0  0
 31 35  1  0  0  0  0
 32 31  1  0  0  0  0
 32 30  1  0  0  0  0
 33 28  1  1  0  0  0
 35 33  1  0  0  0  0
 36  2  1  0  0  0  0
 36 37  1  0  0  0  0
 37 38  1  6  0  0  0
 39 38  1  0  0  0  0
 40 39  1  0  0  0  0
 42 40  1  0  0  0  0
 42 41  1  0  0  0  0
 43 37  1  0  0  0  0
 44 45  2  0  0  0  0
 44 43  1  0  0  0  0
 47 46  1  0  0  0  0
 47 44  1  0  0  0  0
M  END
>  <MODEL>
8

>  <REMARK>
 VINA RESULT:      -5.5      4.505      9.907
  Name = 
  16 active torsions:
  status: ('A' for Active; 'I' for Inactive)
    1  A    between atoms: C_1  and  O_15
    2  A    between atoms: C_1  and  C_32
    3  A    between atoms: C_3  and  C_10
    4  A    between atoms: C_3  and  C_41
    5  A    between atoms: N_5  and  N_26
    6  A    between atoms: C_6  and  C_14
    7  A    between atoms: C_6  and  C_22
    8  A    between atoms: C_10  and  O_15
    9  A    between atoms: C_10  and  C_33
   10  A    between atoms: N_12  and  C_33
   11  A    between atoms: C_14  and  C_38
   12  A    between atoms: C_16  and  C_23
   13  A    between atoms: C_18  and  C_41
   14  A    between atoms: C_18  and  C_47
   15  A    between atoms: C_22  and  N_25
   16  A    between atoms: N_34  and  C_37
                            x       y       z     vdW  Elec       q    Type
                         _______ _______ _______ _____ _____    ______ ____

>  <TORSDO>
F 16

$$$$
=
 OpenBabel11042415203D

 47 50  0  0  1  0  0  0  0  0999 V2000
  188.9530  175.2740  141.6880 C   0  0  0  0  0  0  0  0  0  0  0  0
  188.7250  176.4460  142.4740 N   0  0  0  0  0  2  0  0  0  0  0  0
  188.4320  173.5950  140.1650 C   0  0  1  0  0  3  0  0  0  0  0  0
  190.5290  174.4360  141.7250 S   0  0  0  0  0  0  0  0  0  0  0  0
  190.1340  171.9270  140.6310 N   0  0  0  0  0  0  0  0  0  0  0  0
  189.7010  173.1430  140.8010 C   0  0  0  0  0  0  0  0  0  0  0  0
  188.0350  174.7760  140.9210 N   0  0  0  0  0  0  0  0  0  0  0  0
  192.7280  170.4240  142.8950 C   0  0  0  0  0  0  0  0  0  0  0  0
  193.7160  170.1860  141.9880 N   0  0  0  0  0  0  0  0  0  0  0  0
  192.9160  170.1060  144.2730 N   0  0  0  0  0  2  0  0  0  0  0  0
  192.3620  171.0320  140.2190 C   0  0  0  0  0  3  0  0  0  0  0  0
  191.3350  171.3080  141.1270 C   0  0  0  0  0  0  0  0  0  0  0  0
  191.5210  170.9890  142.4770 C   0  0  0  0  0  3  0  0  0  0  0  0
  193.5570  170.4690  140.6710 C   0  0  0  0  0  3  0  0  0  0  0  0
  195.7530  172.7680  145.6100 C   0  0  0  0  0  3  0  0  0  0  0  0
  194.1500  169.6360  144.7450 N   0  0  0  0  0  0  0  0  0  0  0  0
  195.0360  170.4300  145.2630 C   0  0  0  0  0  0  0  0  0  0  0  0
  196.6100  169.7460  145.7880 S   0  0  0  0  0  0  0  0  0  0  0  0
  194.7800  171.8800  145.3870 C   0  0  0  0  0  3  0  0  0  0  0  0
  197.2010  172.3920  145.7830 C   0  0  0  0  0  2  0  0  0  0  0  0
  197.5430  171.1090  145.0350 C   0  0  0  0  0  2  0  0  0  0  0  0
  187.8190  174.4780  138.0300 O   0  0  0  0  0  0  0  0  0  0  0  0
  188.7250  173.9640  138.7380 C   0  0  0  0  0  0  0  0  0  0  0  0
  189.9850  173.6340  138.1480 N   0  0  0  0  0  2  0  0  0  0  0  0
  189.8850  171.6790  136.7350 C   0  0  0  0  0  1  0  0  0  0  0  0
  190.0720  173.1810  136.7710 C   0  0  2  0  0  3  0  0  0  0  0  0
  191.4370  173.5270  136.2060 C   0  0  0  0  0  2  0  0  0  0  0  0
  192.5020  172.6930  136.9140 C   0  0  0  0  0  2  0  0  0  0  0  0
  194.3650  174.4140  140.7320 C   0  0  0  0  0  2  0  0  0  0  0  0
  194.8920  172.6380  137.7370 C   0  0  1  0  0  3  0  0  0  0  0  0
  194.5740  174.4510  139.4220 C   0  0  0  0  0  0  0  0  0  0  0  0
  196.0160  173.6390  138.7510 S   0  0  0  0  0  0  0  0  0  0  0  0
  193.7120  173.5250  137.3540 C   0  0  2  0  0  3  0  0  0  0  0  0
  195.5800  172.1900  136.5380 N   0  0  0  0  0  1  0  0  0  0  0  0
  193.3880  174.4520  138.5230 C   0  0  0  0  0  2  0  0  0  0  0  0
  187.4020  177.0140  142.6960 C   0  0  0  0  0  2  0  0  0  0  0  0
  187.2230  177.4060  144.1610 C   0  0  1  0  0  3  0  0  0  0  0  0
  188.5650  177.5000  144.8930 C   0  0  0  0  0  2  0  0  0  0  0  0
  188.6420  176.6010  146.1280 C   0  0  0  0  0  2  0  0  0  0  0  0
  190.0920  176.4350  146.5630 C   0  0  0  0  0  2  0  0  0  0  0  0
  189.0480  174.5570  147.5940 O   0  0  0  0  0  1  0  0  0  0  0  0
  190.2230  175.3090  147.5690 C   0  0  0  0  0  2  0  0  0  0  0  0
  186.5120  178.6370  144.2610 O   0  0  0  0  0  0  0  0  0  0  0  0
  185.2670  178.7420  144.8910 C   0  0  0  0  0  0  0  0  0  0  0  0
  184.4190  179.6540  144.5430 N   0  0  0  0  0  2  0  0  0  0  0  0
  185.0600  178.3310  147.2040 O   0  0  0  0  0  1  0  0  0  0  0  0
  184.8910  177.7580  145.9440 C   0  0  0  0  0  2  0  0  0  0  0  0
  1  4  1  0  0  0  0
  1  2  1  0  0  0  0
  2 36  1  0  0  0  0
  3 23  1  6  0  0  0
  3  6  1  0  0  0  0
  3  7  1  0  0  0  0
  5  6  2  0  0  0  0
  5 12  1  0  0  0  0
  6  4  1  0  0  0  0
  7  1  2  0  0  0  0
  8 10  1  0  0  0  0
  9  8  2  0  0  0  0
 10 16  1  0  0  0  0
 11 14  2  0  0  0  0
 11 12  1  0  0  0  0
 12 13  2  0  0  0  0
 13  8  1  0  0  0  0
 14  9  1  0  0  0  0
 15 20  1  0  0  0  0
 16 17  2  0  0  0  0
 17 19  1  0  0  0  0
 17 18  1  0  0  0  0
 19 15  2  0  0  0  0
 21 20  1  0  0  0  0
 21 18  1  0  0  0  0
 22 23  2  0  0  0  0
 24 23  1  0  0  0  0
 26 25  1  1  0  0  0
 26 24  1  0  0  0  0
 27 26  1  0  0  0  0
 27 28  1  0  0  0  0
 30 34  1  6  0  0  0
 30 32  1  0  0  0  0
 31 29  2  0  0  0  0
 32 31  1  0  0  0  0
 33 28  1  1  0  0  0
 33 30  1  0  0  0  0
 33 35  1  0  0  0  0
 35 31  1  0  0  0  0
 37 36  1  6  0  0  0
 37 43  1  0  0  0  0
 37 38  1  0  0  0  0
 38 39  1  0  0  0  0
 39 40  1  0  0  0  0
 40 42  1  0  0  0  0
 42 41  1  0  0  0  0
 43 44  1  0  0  0  0
 44 47  1  0  0  0  0
 45 44  2  0  0  0  0
 47 46  1  0  0  0  0
M  END
>  <MODEL>
9

>  <REMARK>
 VINA RESULT:      -5.5      2.734      7.280
  Name = 
  16 active torsions:
  status: ('A' for Active; 'I' for Inactive)
    1  A    between atoms: C_1  and  O_15
    2  A    between atoms: C_1  and  C_32
    3  A    between atoms: C_3  and  C_10
    4  A    between atoms: C_3  and  C_41
    5  A    between atoms: N_5  and  N_26
    6  A    between atoms: C_6  and  C_14
    7  A    between atoms: C_6  and  C_22
    8  A    between atoms: C_10  and  O_15
    9  A    between atoms: C_10  and  C_33
   10  A    between atoms: N_12  and  C_33
   11  A    between atoms: C_14  and  C_38
   12  A    between atoms: C_16  and  C_23
   13  A    between atoms: C_18  and  C_41
   14  A    between atoms: C_18  and  C_47
   15  A    between atoms: C_22  and  N_25
   16  A    between atoms: N_34  and  C_37
                            x       y       z     vdW  Elec       q    Type
                         _______ _______ _______ _____ _____    ______ ____

>  <TORSDO>
F 16

$$$$
