=
 OpenBabel11042415343D

 47 49  0  0  1  0  0  0  0  0999 V2000
  189.9870  176.6840  146.1980 C   0  0  0  0  0  0  0  0  0  0  0  0
  192.1260  175.5790  145.7960 C   0  0  0  0  0  0  0  0  0  0  0  0
  191.5740  176.4070  148.0150 C   0  0  0  0  0  3  0  0  0  0  0  0
  192.4610  175.7720  147.1460 C   0  0  0  0  0  3  0  0  0  0  0  0
  190.8820  176.0410  145.3170 C   0  0  0  0  0  0  0  0  0  0  0  0
  190.3430  176.8600  147.5430 C   0  0  0  0  0  3  0  0  0  0  0  0
  187.7340  177.3440  146.4950 N   0  0  0  0  0  0  0  0  0  0  0  0
  188.7230  177.1570  145.7160 N   0  0  0  0  0  0  0  0  0  0  0  0
  184.2210  178.6360  146.3960 C   0  0  0  0  0  3  0  0  0  0  0  0
  185.4410  178.1710  146.8930 C   0  0  0  0  0  3  0  0  0  0  0  0
  186.4760  177.8200  146.0100 C   0  0  0  0  0  0  0  0  0  0  0  0
  185.0490  178.3990  144.1290 C   0  0  0  0  0  0  0  0  0  0  0  0
  184.0260  178.7520  145.0160 C   0  0  0  0  0  3  0  0  0  0  0  0
  186.2760  177.9410  144.6290 C   0  0  0  0  0  3  0  0  0  0  0  0
  184.8270  178.5590  142.6590 C   0  0  2  0  0  3  0  0  0  0  0  0
  183.4920  178.3040  142.3410 O   0  0  0  0  0  1  0  0  0  0  0  0
  185.7410  177.6210  141.8790 C   0  0  0  0  0  2  0  0  0  0  0  0
  186.8190  177.3900  139.7080 N   0  0  0  0  0  1  0  0  0  0  0  0
  185.6200  177.8580  140.3810 C   0  0  0  0  0  2  0  0  0  0  0  0
  193.0990  174.8890  144.8770 C   0  0  2  0  0  3  0  0  0  0  0  0
  194.9450  173.3660  145.4060 O   0  0  0  0  0  0  0  0  0  0  0  0
  192.9070  172.3700  144.6700 C   0  0  0  0  0  2  0  0  0  0  0  0
  193.9190  171.2880  144.8230 C   0  0  0  0  0  2  0  0  0  0  0  0
  195.2150  172.0550  144.9650 C   0  0  2  0  0  3  0  0  0  0  0  0
  193.5450  173.5170  145.4120 C   0  0  2  0  0  3  0  0  0  0  0  0
  196.0900  171.3880  145.9200 N   0  0  0  0  0  2  0  0  0  0  0  0
  196.0030  169.9550  145.6750 C   0  0  0  0  0  2  0  0  0  0  0  0
  197.1330  168.8630  147.4670 O   0  0  0  0  0  0  0  0  0  0  0  0
  196.0320  169.2120  146.9680 C   0  0  0  0  0  0  0  0  0  0  0  0
  194.8410  168.9060  147.6230 O   0  0  0  0  0  1  0  0  0  0  0  0
  194.3220  175.8480  142.8380 C   0  0  0  0  0  1  0  0  0  0  0  0
  194.1970  175.8340  144.3550 C   0  0  1  0  0  3  0  0  0  0  0  0
  194.0000  177.1320  144.8300 O   0  0  0  0  0  1  0  0  0  0  0  0
  190.4880  175.8370  143.8820 C   0  0  0  0  0  2  0  0  0  0  0  0
  189.8420  174.4720  143.6950 C   0  0  0  0  0  2  0  0  0  0  0  0
  191.3870  173.7740  141.4030 O   0  0  0  0  0  0  0  0  0  0  0  0
  190.1500  173.9560  141.2360 C   0  0  0  0  0  0  0  0  0  0  0  0
  189.5620  173.7640  139.9500 N   0  0  0  0  0  2  0  0  0  0  0  0
  189.3230  174.3490  142.3380 N   0  0  0  0  0  2  0  0  0  0  0  0
  190.3560  173.3840  138.7860 C   0  0  0  0  0  2  0  0  0  0  0  0
  189.5140  173.4150  137.5110 C   0  0  1  0  0  0  0  0  0  0  0  0
  189.1750  172.1150  137.1360 O   0  0  0  0  0  1  0  0  0  0  0  0
  188.2460  174.2250  137.7260 C   0  0  0  0  0  1  0  0  0  0  0  0
  189.6330  175.4790  135.5140 O   0  0  0  0  0  1  0  0  0  0  0  0
  191.9640  174.7380  136.7940 O   0  0  0  0  0  1  0  0  0  0  0  0
  190.4910  174.1790  136.1770 P   0  0  0  0  0  0  0  0  0  0  0  0
  190.7560  173.1560  135.0950 O   0  0  0  0  0  0  0  0  0  0  0  0
  1  6  1  0  0  0  0
  2  4  2  0  0  0  0
  4  3  1  0  0  0  0
  5  2  1  0  0  0  0
  5  1  2  0  0  0  0
  6  3  2  0  0  0  0
  8  1  1  0  0  0  0
  8  7  2  0  0  0  0
  9 10  1  0  0  0  0
 11  7  1  0  0  0  0
 11 10  2  0  0  0  0
 12 14  2  0  0  0  0
 12 13  1  0  0  0  0
 13  9  2  0  0  0  0
 14 11  1  0  0  0  0
 15 16  1  1  0  0  0
 15 12  1  0  0  0  0
 17 15  1  0  0  0  0
 18 19  1  0  0  0  0
 19 17  1  0  0  0  0
 20 32  1  1  0  0  0
 20  2  1  0  0  0  0
 21 25  1  0  0  0  0
 22 23  1  0  0  0  0
 22 25  1  0  0  0  0
 23 24  1  0  0  0  0
 24 21  1  0  0  0  0
 24 26  1  1  0  0  0
 25 20  1  6  0  0  0
 27 26  1  0  0  0  0
 27 29  1  0  0  0  0
 29 28  2  0  0  0  0
 29 30  1  0  0  0  0
 32 31  1  6  0  0  0
 32 33  1  0  0  0  0
 34  5  1  0  0  0  0
 35 34  1  0  0  0  0
 37 36  2  0  0  0  0
 37 39  1  0  0  0  0
 38 37  1  0  0  0  0
 39 35  1  0  0  0  0
 40 38  1  0  0  0  0
 41 43  1  1  0  0  0
 41 40  1  0  0  0  0
 42 41  1  0  0  0  0
 44 46  1  0  0  0  0
 46 45  1  0  0  0  0
 46 41  1  0  0  0  0
 47 46  2  0  0  0  0
M  END
>  <MODEL>
1

>  <REMARK>
 VINA RESULT:      -7.1      0.000      0.000
  Name = 
  17 active torsions:
  status: ('A' for Active; 'I' for Inactive)
    1  A    between atoms: C_1  and  P_25
    2  A    between atoms: C_1  and  C_39
    3  A    between atoms: N_4  and  C_34
    4  A    between atoms: C_7  and  N_35
    5  A    between atoms: C_10  and  C_24
    6  A    between atoms: C_15  and  C_29
    7  A    between atoms: C_17  and  C_29
    8  A    between atoms: C_17  and  N_42
    9  A    between atoms: C_19  and  C_37
   10  A    between atoms: C_19  and  C_41
   11  A    between atoms: C_21  and  N_33
   12  A    between atoms: C_22  and  C_46
   13  A    between atoms: C_24  and  C_28
   14  A    between atoms: C_24  and  C_32
   15  A    between atoms: C_26  and  C_37
   16  A    between atoms: N_33  and  C_46
   17  A    between atoms: N_36  and  C_39
                            x       y       z     vdW  Elec       q    Type
                         _______ _______ _______ _____ _____    ______ ____

>  <TORSDO>
F 17

$$$$
=
 OpenBabel11042415343D

 47 49  0  0  1  0  0  0  0  0999 V2000
  191.9570  176.0890  144.9760 C   0  0  0  0  0  0  0  0  0  0  0  0
  189.6140  176.7100  144.7000 C   0  0  0  0  0  0  0  0  0  0  0  0
  191.3720  178.1650  143.8610 C   0  0  0  0  0  3  0  0  0  0  0  0
  190.0190  177.8880  144.0510 C   0  0  0  0  0  3  0  0  0  0  0  0
  190.5890  175.8050  145.1690 C   0  0  0  0  0  0  0  0  0  0  0  0
  192.3370  177.2690  144.3200 C   0  0  0  0  0  3  0  0  0  0  0  0
  193.9540  174.8390  144.7410 N   0  0  0  0  0  0  0  0  0  0  0  0
  192.9530  175.1740  145.4530 N   0  0  0  0  0  0  0  0  0  0  0  0
  197.1180  173.4830  146.2110 C   0  0  0  0  0  3  0  0  0  0  0  0
  196.1650  174.3910  145.7450 C   0  0  0  0  0  3  0  0  0  0  0  0
  194.9460  173.9290  145.2220 C   0  0  0  0  0  0  0  0  0  0  0  0
  195.6540  171.6390  145.6330 C   0  0  0  0  0  0  0  0  0  0  0  0
  196.8620  172.1090  146.1570 C   0  0  0  0  0  3  0  0  0  0  0  0
  194.6930  172.5520  145.1730 C   0  0  0  0  0  3  0  0  0  0  0  0
  195.3900  170.1680  145.6120 C   0  0  2  0  0  3  0  0  0  0  0  0
  194.4410  169.8320  146.5780 O   0  0  0  0  0  1  0  0  0  0  0  0
  196.6810  169.3930  145.8520 C   0  0  0  0  0  2  0  0  0  0  0  0
  197.2510  168.3740  147.9890 N   0  0  0  0  0  1  0  0  0  0  0  0
  196.4490  168.2170  146.7880 C   0  0  0  0  0  2  0  0  0  0  0  0
  188.1460  176.4310  144.8930 C   0  0  2  0  0  3  0  0  0  0  0  0
  188.1670  175.8900  142.5020 O   0  0  0  0  0  0  0  0  0  0  0  0
  186.7780  177.7060  143.1810 C   0  0  0  0  0  2  0  0  0  0  0  0
  186.7340  177.6240  141.6950 C   0  0  0  0  0  2  0  0  0  0  0  0
  187.8740  176.6830  141.3740 C   0  0  2  0  0  3  0  0  0  0  0  0
  187.3760  176.3760  143.5610 C   0  0  2  0  0  3  0  0  0  0  0  0
  187.5140  175.8250  140.2530 N   0  0  0  0  0  2  0  0  0  0  0  0
  188.4190  174.6830  140.2590 C   0  0  0  0  0  2  0  0  0  0  0  0
  188.1090  172.5950  139.1550 O   0  0  0  0  0  1  0  0  0  0  0  0
  188.1950  173.8460  139.0460 C   0  0  0  0  0  0  0  0  0  0  0  0
  188.0780  174.4470  137.7950 O   0  0  0  0  0  0  0  0  0  0  0  0
  186.2440  176.6670  146.5950 C   0  0  0  0  0  1  0  0  0  0  0  0
  187.5270  177.2610  146.0320 C   0  0  1  0  0  3  0  0  0  0  0  0
  188.4520  177.4590  147.0600 O   0  0  0  0  0  1  0  0  0  0  0  0
  190.1880  174.5300  145.8540 C   0  0  0  0  0  2  0  0  0  0  0  0
  189.7840  173.4790  144.8310 C   0  0  0  0  0  2  0  0  0  0  0  0
  190.5560  173.6410  142.0920 O   0  0  0  0  0  0  0  0  0  0  0  0
  191.3220  173.0150  142.8750 C   0  0  0  0  0  0  0  0  0  0  0  0
  192.5460  172.4620  142.3940 N   0  0  0  0  0  2  0  0  0  0  0  0
  190.9720  172.8610  144.2560 N   0  0  0  0  0  2  0  0  0  0  0  0
  192.9450  172.5690  140.9940 C   0  0  0  0  0  2  0  0  0  0  0  0
  194.4330  172.8970  140.8700 C   0  0  1  0  0  0  0  0  0  0  0  0
  195.1070  172.4740  142.0160 O   0  0  0  0  0  1  0  0  0  0  0  0
  195.0330  172.2160  139.6510 C   0  0  0  0  0  1  0  0  0  0  0  0
  193.3190  175.4860  141.4330 O   0  0  0  0  0  1  0  0  0  0  0  0
  196.0640  175.1940  141.4500 O   0  0  0  0  0  1  0  0  0  0  0  0
  194.6270  174.7010  140.7030 P   0  0  0  0  0  0  0  0  0  0  0  0
  194.6720  175.0700  139.2360 O   0  0  0  0  0  0  0  0  0  0  0  0
  1  5  1  0  0  0  0
  1  8  1  0  0  0  0
  2 20  1  0  0  0  0
  2  5  2  0  0  0  0
  3  4  2  0  0  0  0
  3  6  1  0  0  0  0
  4  2  1  0  0  0  0
  5 34  1  0  0  0  0
  6  1  2  0  0  0  0
  7 11  1  0  0  0  0
  7  8  2  0  0  0  0
 10  9  2  0  0  0  0
 11 10  1  0  0  0  0
 12 13  2  0  0  0  0
 13  9  1  0  0  0  0
 14 11  2  0  0  0  0
 14 12  1  0  0  0  0
 15 12  1  0  0  0  0
 15 17  1  0  0  0  0
 15 16  1  1  0  0  0
 17 19  1  0  0  0  0
 19 18  1  0  0  0  0
 20 32  1  1  0  0  0
 21 25  1  0  0  0  0
 22 25  1  0  0  0  0
 23 22  1  0  0  0  0
 24 26  1  6  0  0  0
 24 23  1  0  0  0  0
 24 21  1  0  0  0  0
 25 20  1  1  0  0  0
 26 27  1  0  0  0  0
 29 28  1  0  0  0  0
 29 27  1  0  0  0  0
 30 29  2  0  0  0  0
 32 31  1  1  0  0  0
 32 33  1  0  0  0  0
 35 34  1  0  0  0  0
 36 37  2  0  0  0  0
 37 39  1  0  0  0  0
 38 37  1  0  0  0  0
 39 35  1  0  0  0  0
 40 38  1  0  0  0  0
 41 43  1  6  0  0  0
 41 40  1  0  0  0  0
 41 42  1  0  0  0  0
 46 41  1  0  0  0  0
 46 44  1  0  0  0  0
 46 45  1  0  0  0  0
 47 46  2  0  0  0  0
M  END
>  <MODEL>
2

>  <REMARK>
 VINA RESULT:      -6.7      2.789      8.962
  Name = 
  17 active torsions:
  status: ('A' for Active; 'I' for Inactive)
    1  A    between atoms: C_1  and  P_25
    2  A    between atoms: C_1  and  C_39
    3  A    between atoms: N_4  and  C_34
    4  A    between atoms: C_7  and  N_35
    5  A    between atoms: C_10  and  C_24
    6  A    between atoms: C_15  and  C_29
    7  A    between atoms: C_17  and  C_29
    8  A    between atoms: C_17  and  N_42
    9  A    between atoms: C_19  and  C_37
   10  A    between atoms: C_19  and  C_41
   11  A    between atoms: C_21  and  N_33
   12  A    between atoms: C_22  and  C_46
   13  A    between atoms: C_24  and  C_28
   14  A    between atoms: C_24  and  C_32
   15  A    between atoms: C_26  and  C_37
   16  A    between atoms: N_33  and  C_46
   17  A    between atoms: N_36  and  C_39
                            x       y       z     vdW  Elec       q    Type
                         _______ _______ _______ _____ _____    ______ ____

>  <TORSDO>
F 17

$$$$
=
 OpenBabel11042415343D

 47 49  0  0  1  0  0  0  0  0999 V2000
  191.9160  175.9710  144.7900 C   0  0  0  0  0  0  0  0  0  0  0  0
  189.8450  177.1590  145.2960 C   0  0  0  0  0  0  0  0  0  0  0  0
  191.3380  177.9860  143.5640 C   0  0  0  0  0  3  0  0  0  0  0  0
  190.1640  178.1030  144.3070 C   0  0  0  0  0  3  0  0  0  0  0  0
  190.7280  176.0860  145.5420 C   0  0  0  0  0  0  0  0  0  0  0  0
  192.2090  176.9240  143.8030 C   0  0  0  0  0  3  0  0  0  0  0  0
  194.0630  175.0740  145.2240 N   0  0  0  0  0  0  0  0  0  0  0  0
  192.8180  174.8850  145.0370 N   0  0  0  0  0  0  0  0  0  0  0  0
  197.1370  173.1390  146.1300 C   0  0  0  0  0  3  0  0  0  0  0  0
  196.2810  174.2160  145.8890 C   0  0  0  0  0  3  0  0  0  0  0  0
  194.9580  173.9880  145.4750 C   0  0  0  0  0  0  0  0  0  0  0  0
  195.3650  171.5920  145.5390 C   0  0  0  0  0  0  0  0  0  0  0  0
  196.6790  171.8280  145.9570 C   0  0  0  0  0  3  0  0  0  0  0  0
  194.5040  172.6740  145.3060 C   0  0  0  0  0  3  0  0  0  0  0  0
  194.8900  170.1830  145.3890 C   0  0  2  0  0  3  0  0  0  0  0  0
  193.6230  170.1590  144.8030 O   0  0  0  0  0  1  0  0  0  0  0  0
  194.8550  169.4860  146.7450 C   0  0  0  0  0  2  0  0  0  0  0  0
  196.9410  168.6150  147.6500 N   0  0  0  0  0  1  0  0  0  0  0  0
  195.8170  168.3090  146.7810 C   0  0  0  0  0  2  0  0  0  0  0  0
  188.5710  177.3050  146.0860 C   0  0  2  0  0  3  0  0  0  0  0  0
  186.9380  178.6900  144.8930 O   0  0  0  0  0  0  0  0  0  0  0  0
  186.1530  176.6140  145.7640 C   0  0  0  0  0  2  0  0  0  0  0  0
  184.9880  177.3410  145.1870 C   0  0  0  0  0  2  0  0  0  0  0  0
  185.5320  178.7360  144.9740 C   0  0  2  0  0  3  0  0  0  0  0  0
  187.3230  177.3680  145.1860 C   0  0  2  0  0  3  0  0  0  0  0  0
  184.9890  179.3030  143.7470 N   0  0  0  0  0  2  0  0  0  0  0  0
  184.5410  178.1990  142.9080 C   0  0  0  0  0  2  0  0  0  0  0  0
  186.4430  178.1370  141.4730 O   0  0  0  0  0  1  0  0  0  0  0  0
  185.1960  178.2740  141.5700 C   0  0  0  0  0  0  0  0  0  0  0  0
  184.4280  178.4940  140.4290 O   0  0  0  0  0  0  0  0  0  0  0  0
  187.4840  178.3760  148.1450 C   0  0  0  0  0  1  0  0  0  0  0  0
  188.6830  178.3510  147.2100 C   0  0  1  0  0  3  0  0  0  0  0  0
  189.8570  178.1650  147.9430 O   0  0  0  0  0  1  0  0  0  0  0  0
  190.4090  175.0520  146.5830 C   0  0  0  0  0  2  0  0  0  0  0  0
  189.3310  174.1040  146.0810 C   0  0  0  0  0  2  0  0  0  0  0  0
  189.0700  173.8760  143.2510 O   0  0  0  0  0  0  0  0  0  0  0  0
  189.7900  173.0230  143.8380 C   0  0  0  0  0  0  0  0  0  0  0  0
  190.4770  172.0230  143.0880 N   0  0  0  0  0  2  0  0  0  0  0  0
  189.9300  173.0550  145.2640 N   0  0  0  0  0  2  0  0  0  0  0  0
  190.3570  171.9270  141.6360 C   0  0  0  0  0  2  0  0  0  0  0  0
  191.7040  172.1710  140.9550 C   0  0  1  0  0  0  0  0  0  0  0  0
  191.6280  173.3100  140.1540 O   0  0  0  0  0  1  0  0  0  0  0  0
  192.8020  172.3540  141.9890 C   0  0  0  0  0  1  0  0  0  0  0  0
  192.1840  169.3400  140.8590 O   0  0  0  0  0  1  0  0  0  0  0  0
  190.9070  170.5390  138.7260 O   0  0  0  0  0  0  0  0  0  0  0  0
  192.1030  170.7360  139.9070 P   0  0  0  0  0  0  0  0  0  0  0  0
  193.4410  170.9570  139.2350 O   0  0  0  0  0  1  0  0  0  0  0  0
  1  8  1  0  0  0  0
  1  5  1  0  0  0  0
  2  5  2  0  0  0  0
  2 20  1  0  0  0  0
  3  6  1  0  0  0  0
  3  4  2  0  0  0  0
  4  2  1  0  0  0  0
  5 34  1  0  0  0  0
  6  1  2  0  0  0  0
  7 11  1  0  0  0  0
  8  7  2  0  0  0  0
 10  9  2  0  0  0  0
 11 10  1  0  0  0  0
 12 13  2  0  0  0  0
 13  9  1  0  0  0  0
 14 11  2  0  0  0  0
 14 12  1  0  0  0  0
 15 16  1  1  0  0  0
 15 12  1  0  0  0  0
 15 17  1  0  0  0  0
 17 19  1  0  0  0  0
 19 18  1  0  0  0  0
 20 32  1  6  0  0  0
 21 24  1  0  0  0  0
 21 25  1  0  0  0  0
 23 22  1  0  0  0  0
 24 26  1  6  0  0  0
 24 23  1  0  0  0  0
 25 22  1  0  0  0  0
 25 20  1  1  0  0  0
 27 26  1  0  0  0  0
 28 29  1  0  0  0  0
 29 27  1  0  0  0  0
 30 29  2  0  0  0  0
 32 33  1  0  0  0  0
 32 31  1  1  0  0  0
 35 34  1  0  0  0  0
 36 37  2  0  0  0  0
 37 39  1  0  0  0  0
 38 37  1  0  0  0  0
 39 35  1  0  0  0  0
 40 38  1  0  0  0  0
 41 40  1  0  0  0  0
 41 43  1  1  0  0  0
 42 41  1  0  0  0  0
 45 46  2  0  0  0  0
 46 44  1  0  0  0  0
 46 41  1  0  0  0  0
 47 46  1  0  0  0  0
M  END
>  <MODEL>
3

>  <REMARK>
 VINA RESULT:      -6.7      2.882      9.321
  Name = 
  17 active torsions:
  status: ('A' for Active; 'I' for Inactive)
    1  A    between atoms: C_1  and  P_25
    2  A    between atoms: C_1  and  C_39
    3  A    between atoms: N_4  and  C_34
    4  A    between atoms: C_7  and  N_35
    5  A    between atoms: C_10  and  C_24
    6  A    between atoms: C_15  and  C_29
    7  A    between atoms: C_17  and  C_29
    8  A    between atoms: C_17  and  N_42
    9  A    between atoms: C_19  and  C_37
   10  A    between atoms: C_19  and  C_41
   11  A    between atoms: C_21  and  N_33
   12  A    between atoms: C_22  and  C_46
   13  A    between atoms: C_24  and  C_28
   14  A    between atoms: C_24  and  C_32
   15  A    between atoms: C_26  and  C_37
   16  A    between atoms: N_33  and  C_46
   17  A    between atoms: N_36  and  C_39
                            x       y       z     vdW  Elec       q    Type
                         _______ _______ _______ _____ _____    ______ ____

>  <TORSDO>
F 17

$$$$
=
 OpenBabel11042415343D

 47 49  0  0  1  0  0  0  0  0999 V2000
  192.1370  176.3070  145.2690 C   0  0  0  0  0  0  0  0  0  0  0  0
  194.2730  175.4450  144.4640 C   0  0  0  0  0  0  0  0  0  0  0  0
  194.0970  176.3850  146.7000 C   0  0  0  0  0  3  0  0  0  0  0  0
  194.8580  175.7920  145.6930 C   0  0  0  0  0  3  0  0  0  0  0  0
  192.9040  175.7060  144.2490 C   0  0  0  0  0  0  0  0  0  0  0  0
  192.7430  176.6400  146.4890 C   0  0  0  0  0  3  0  0  0  0  0  0
  189.9140  176.6230  146.0180 N   0  0  0  0  0  0  0  0  0  0  0  0
  190.7460  176.5770  145.0550 N   0  0  0  0  0  0  0  0  0  0  0  0
  186.2030  176.7740  146.4930 C   0  0  0  0  0  3  0  0  0  0  0  0
  187.5510  176.4940  146.7260 C   0  0  0  0  0  3  0  0  0  0  0  0
  188.5270  176.8970  145.8000 C   0  0  0  0  0  0  0  0  0  0  0  0
  186.7850  177.8580  144.4030 C   0  0  0  0  0  0  0  0  0  0  0  0
  185.8210  177.4580  145.3330 C   0  0  0  0  0  3  0  0  0  0  0  0
  188.1390  177.5830  144.6420 C   0  0  0  0  0  3  0  0  0  0  0  0
  186.3550  178.6120  143.1850 C   0  0  2  0  0  3  0  0  0  0  0  0
  185.0250  178.3200  142.8800 O   0  0  0  0  0  1  0  0  0  0  0  0
  187.2540  178.2690  142.0030 C   0  0  0  0  0  2  0  0  0  0  0  0
  186.5080  177.5470  139.8000 N   0  0  0  0  0  1  0  0  0  0  0  0
  186.6690  177.1290  141.1830 C   0  0  0  0  0  2  0  0  0  0  0  0
  195.1140  174.8050  143.3910 C   0  0  2  0  0  3  0  0  0  0  0  0
  194.8430  172.7200  144.6510 O   0  0  0  0  0  0  0  0  0  0  0  0
  197.0440  173.6310  144.5420 C   0  0  0  0  0  2  0  0  0  0  0  0
  197.0820  172.4440  145.4410 C   0  0  0  0  0  2  0  0  0  0  0  0
  195.6170  172.1610  145.6880 C   0  0  2  0  0  3  0  0  0  0  0  0
  195.7210  173.4630  143.8390 C   0  0  2  0  0  3  0  0  0  0  0  0
  195.3890  170.7240  145.7500 N   0  0  0  0  0  2  0  0  0  0  0  0
  196.6010  170.1020  146.2640 C   0  0  0  0  0  2  0  0  0  0  0  0
  197.1790  168.5320  147.9610 O   0  0  0  0  0  1  0  0  0  0  0  0
  196.2600  169.1180  147.3310 C   0  0  0  0  0  0  0  0  0  0  0  0
  194.9270  168.8490  147.6310 O   0  0  0  0  0  0  0  0  0  0  0  0
  195.5170  176.3250  141.3670 C   0  0  0  0  0  1  0  0  0  0  0  0
  196.0530  175.8060  142.6940 C   0  0  1  0  0  3  0  0  0  0  0  0
  196.3520  176.8760  143.5400 O   0  0  0  0  0  1  0  0  0  0  0  0
  192.2450  175.3340  142.9520 C   0  0  0  0  0  2  0  0  0  0  0  0
  191.4830  174.0240  143.0960 C   0  0  0  0  0  2  0  0  0  0  0  0
  189.7120  173.4060  140.9500 O   0  0  0  0  0  0  0  0  0  0  0  0
  190.8680  172.9040  140.9110 C   0  0  0  0  0  0  0  0  0  0  0  0
  191.2670  172.1030  139.8000 N   0  0  0  0  0  2  0  0  0  0  0  0
  191.7950  173.1410  141.9790 N   0  0  0  0  0  2  0  0  0  0  0  0
  190.3620  171.8100  138.6930 C   0  0  0  0  0  2  0  0  0  0  0  0
  191.0000  172.1660  137.3510 C   0  0  1  0  0  0  0  0  0  0  0  0
  192.3530  172.4540  137.5330 O   0  0  0  0  0  1  0  0  0  0  0  0
  190.8570  171.0170  136.3670 C   0  0  0  0  0  1  0  0  0  0  0  0
  191.2950  174.8820  136.4580 O   0  0  0  0  0  1  0  0  0  0  0  0
  189.4580  173.2620  135.1850 O   0  0  0  0  0  0  0  0  0  0  0  0
  190.1680  173.6390  136.6740 P   0  0  0  0  0  0  0  0  0  0  0  0
  189.0970  174.1010  137.6380 O   0  0  0  0  0  1  0  0  0  0  0  0
  1  6  1  0  0  0  0
  2  4  2  0  0  0  0
  4  3  1  0  0  0  0
  5  2  1  0  0  0  0
  5  1  2  0  0  0  0
  6  3  2  0  0  0  0
  8  1  1  0  0  0  0
  8  7  2  0  0  0  0
  9 10  1  0  0  0  0
 11  7  1  0  0  0  0
 11 10  2  0  0  0  0
 12 14  2  0  0  0  0
 12 13  1  0  0  0  0
 13  9  2  0  0  0  0
 14 11  1  0  0  0  0
 15 16  1  6  0  0  0
 15 12  1  0  0  0  0
 17 15  1  0  0  0  0
 18 19  1  0  0  0  0
 19 17  1  0  0  0  0
 20 32  1  1  0  0  0
 20  2  1  0  0  0  0
 21 24  1  0  0  0  0
 22 23  1  0  0  0  0
 23 24  1  0  0  0  0
 24 26  1  6  0  0  0
 25 20  1  1  0  0  0
 25 22  1  0  0  0  0
 25 21  1  0  0  0  0
 26 27  1  0  0  0  0
 27 29  1  0  0  0  0
 29 30  2  0  0  0  0
 29 28  1  0  0  0  0
 32 31  1  6  0  0  0
 32 33  1  0  0  0  0
 34 35  1  0  0  0  0
 34  5  1  0  0  0  0
 37 36  2  0  0  0  0
 37 39  1  0  0  0  0
 38 37  1  0  0  0  0
 39 35  1  0  0  0  0
 40 38  1  0  0  0  0
 41 43  1  6  0  0  0
 41 42  1  0  0  0  0
 41 40  1  0  0  0  0
 44 46  1  0  0  0  0
 45 46  2  0  0  0  0
 46 41  1  0  0  0  0
 46 47  1  0  0  0  0
M  END
>  <MODEL>
4

>  <REMARK>
 VINA RESULT:      -6.7      1.695      2.284
  Name = 
  17 active torsions:
  status: ('A' for Active; 'I' for Inactive)
    1  A    between atoms: C_1  and  P_25
    2  A    between atoms: C_1  and  C_39
    3  A    between atoms: N_4  and  C_34
    4  A    between atoms: C_7  and  N_35
    5  A    between atoms: C_10  and  C_24
    6  A    between atoms: C_15  and  C_29
    7  A    between atoms: C_17  and  C_29
    8  A    between atoms: C_17  and  N_42
    9  A    between atoms: C_19  and  C_37
   10  A    between atoms: C_19  and  C_41
   11  A    between atoms: C_21  and  N_33
   12  A    between atoms: C_22  and  C_46
   13  A    between atoms: C_24  and  C_28
   14  A    between atoms: C_24  and  C_32
   15  A    between atoms: C_26  and  C_37
   16  A    between atoms: N_33  and  C_46
   17  A    between atoms: N_36  and  C_39
                            x       y       z     vdW  Elec       q    Type
                         _______ _______ _______ _____ _____    ______ ____

>  <TORSDO>
F 17

$$$$
=
 OpenBabel11042415343D

 47 49  0  0  1  0  0  0  0  0999 V2000
  191.6510  175.9200  144.6290 C   0  0  0  0  0  0  0  0  0  0  0  0
  189.3400  176.6900  144.4820 C   0  0  0  0  0  0  0  0  0  0  0  0
  191.1670  178.1810  143.8880 C   0  0  0  0  0  3  0  0  0  0  0  0
  189.8020  177.9410  144.0390 C   0  0  0  0  0  3  0  0  0  0  0  0
  190.2700  175.6740  144.7820 C   0  0  0  0  0  0  0  0  0  0  0  0
  192.0870  177.1760  144.1810 C   0  0  0  0  0  3  0  0  0  0  0  0
  193.8360  175.1470  145.1080 N   0  0  0  0  0  0  0  0  0  0  0  0
  192.6000  174.8920  144.9360 N   0  0  0  0  0  0  0  0  0  0  0  0
  196.9660  173.4050  146.1950 C   0  0  0  0  0  3  0  0  0  0  0  0
  196.0620  174.4270  145.8980 C   0  0  0  0  0  3  0  0  0  0  0  0
  194.7790  174.1180  145.4170 C   0  0  0  0  0  0  0  0  0  0  0  0
  195.3230  171.7510  145.5300 C   0  0  0  0  0  0  0  0  0  0  0  0
  196.5960  172.0680  146.0130 C   0  0  0  0  0  3  0  0  0  0  0  0
  194.4130  172.7780  145.2390 C   0  0  0  0  0  3  0  0  0  0  0  0
  194.9400  170.3140  145.3700 C   0  0  2  0  0  3  0  0  0  0  0  0
  193.6850  170.2120  144.7670 O   0  0  0  0  0  1  0  0  0  0  0  0
  194.9300  169.6130  146.7240 C   0  0  0  0  0  2  0  0  0  0  0  0
  197.0130  168.7230  147.6170 N   0  0  0  0  0  1  0  0  0  0  0  0
  195.8920  168.4360  146.7380 C   0  0  0  0  0  2  0  0  0  0  0  0
  187.8610  176.4530  144.6360 C   0  0  2  0  0  3  0  0  0  0  0  0
  187.9280  175.9910  142.2300 O   0  0  0  0  0  0  0  0  0  0  0  0
  186.5450  177.8000  142.9380 C   0  0  0  0  0  2  0  0  0  0  0  0
  186.5320  177.7670  141.4500 C   0  0  0  0  0  2  0  0  0  0  0  0
  187.6680  176.8230  141.1220 C   0  0  2  0  0  3  0  0  0  0  0  0
  187.1190  176.4500  143.2870 C   0  0  2  0  0  3  0  0  0  0  0  0
  187.3230  176.0070  139.9660 N   0  0  0  0  0  2  0  0  0  0  0  0
  186.6380  176.8620  139.0070 C   0  0  0  0  0  2  0  0  0  0  0  0
  185.3660  176.1570  137.1190 O   0  0  0  0  0  0  0  0  0  0  0  0
  186.4790  176.1500  137.7070 C   0  0  0  0  0  0  0  0  0  0  0  0
  187.5610  175.4790  137.1430 O   0  0  0  0  0  1  0  0  0  0  0  0
  185.8570  176.8010  146.1960 C   0  0  0  0  0  1  0  0  0  0  0  0
  187.2410  177.2760  145.7800 C   0  0  1  0  0  3  0  0  0  0  0  0
  188.0910  177.3020  146.8880 O   0  0  0  0  0  1  0  0  0  0  0  0
  189.8080  174.3210  145.2440 C   0  0  0  0  0  2  0  0  0  0  0  0
  190.2670  173.2410  144.2750 C   0  0  0  0  0  2  0  0  0  0  0  0
  189.4680  171.4830  142.1780 O   0  0  0  0  0  0  0  0  0  0  0  0
  189.5440  172.7120  141.9080 C   0  0  0  0  0  0  0  0  0  0  0  0
  189.1890  173.1860  140.6090 N   0  0  0  0  0  2  0  0  0  0  0  0
  189.9790  173.6460  142.9050 N   0  0  0  0  0  2  0  0  0  0  0  0
  188.7590  172.2820  139.5470 C   0  0  0  0  0  2  0  0  0  0  0  0
  189.7120  172.3410  138.3540 C   0  0  1  0  0  0  0  0  0  0  0  0
  188.9950  172.6110  137.1890 O   0  0  0  0  0  1  0  0  0  0  0  0
  190.7630  173.4190  138.5610 C   0  0  0  0  0  1  0  0  0  0  0  0
  191.8520  170.8700  137.1210 O   0  0  0  0  0  0  0  0  0  0  0  0
  191.0930  170.2010  139.6890 O   0  0  0  0  0  1  0  0  0  0  0  0
  190.5390  170.7270  138.1790 P   0  0  0  0  0  0  0  0  0  0  0  0
  189.5610  169.7160  137.6230 O   0  0  0  0  0  1  0  0  0  0  0  0
  1  5  1  0  0  0  0
  1  8  1  0  0  0  0
  2 20  1  0  0  0  0
  2  5  2  0  0  0  0
  3  4  2  0  0  0  0
  3  6  1  0  0  0  0
  4  2  1  0  0  0  0
  5 34  1  0  0  0  0
  6  1  2  0  0  0  0
  7 11  1  0  0  0  0
  8  7  2  0  0  0  0
 10  9  2  0  0  0  0
 11 10  1  0  0  0  0
 12 13  2  0  0  0  0
 13  9  1  0  0  0  0
 14 11  2  0  0  0  0
 14 12  1  0  0  0  0
 15 16  1  1  0  0  0
 15 12  1  0  0  0  0
 15 17  1  0  0  0  0
 17 19  1  0  0  0  0
 19 18  1  0  0  0  0
 20 32  1  1  0  0  0
 21 25  1  0  0  0  0
 22 25  1  0  0  0  0
 23 22  1  0  0  0  0
 24 26  1  6  0  0  0
 24 23  1  0  0  0  0
 24 21  1  0  0  0  0
 25 20  1  1  0  0  0
 27 26  1  0  0  0  0
 28 29  2  0  0  0  0
 29 27  1  0  0  0  0
 30 29  1  0  0  0  0
 32 31  1  1  0  0  0
 32 33  1  0  0  0  0
 35 34  1  0  0  0  0
 37 36  2  0  0  0  0
 37 39  1  0  0  0  0
 38 37  1  0  0  0  0
 39 35  1  0  0  0  0
 40 38  1  0  0  0  0
 41 43  1  1  0  0  0
 41 40  1  0  0  0  0
 42 41  1  0  0  0  0
 44 46  2  0  0  0  0
 46 41  1  0  0  0  0
 46 45  1  0  0  0  0
 47 46  1  0  0  0  0
M  END
>  <MODEL>
5

>  <REMARK>
 VINA RESULT:      -6.7      2.662      8.947
  Name = 
  17 active torsions:
  status: ('A' for Active; 'I' for Inactive)
    1  A    between atoms: C_1  and  P_25
    2  A    between atoms: C_1  and  C_39
    3  A    between atoms: N_4  and  C_34
    4  A    between atoms: C_7  and  N_35
    5  A    between atoms: C_10  and  C_24
    6  A    between atoms: C_15  and  C_29
    7  A    between atoms: C_17  and  C_29
    8  A    between atoms: C_17  and  N_42
    9  A    between atoms: C_19  and  C_37
   10  A    between atoms: C_19  and  C_41
   11  A    between atoms: C_21  and  N_33
   12  A    between atoms: C_22  and  C_46
   13  A    between atoms: C_24  and  C_28
   14  A    between atoms: C_24  and  C_32
   15  A    between atoms: C_26  and  C_37
   16  A    between atoms: N_33  and  C_46
   17  A    between atoms: N_36  and  C_39
                            x       y       z     vdW  Elec       q    Type
                         _______ _______ _______ _____ _____    ______ ____

>  <TORSDO>
F 17

$$$$
=
 OpenBabel11042415343D

 47 49  0  0  1  0  0  0  0  0999 V2000
  191.9360  175.9370  144.7810 C   0  0  0  0  0  0  0  0  0  0  0  0
  189.7360  176.9930  144.7850 C   0  0  0  0  0  0  0  0  0  0  0  0
  191.6540  178.1660  143.8580 C   0  0  0  0  0  3  0  0  0  0  0  0
  190.2950  178.1240  144.1700 C   0  0  0  0  0  3  0  0  0  0  0  0
  190.5620  175.8920  145.0960 C   0  0  0  0  0  0  0  0  0  0  0  0
  192.4700  177.0770  144.1620 C   0  0  0  0  0  3  0  0  0  0  0  0
  194.0490  174.9280  145.1250 N   0  0  0  0  0  0  0  0  0  0  0  0
  192.7810  174.8230  145.0970 N   0  0  0  0  0  0  0  0  0  0  0  0
  197.0300  172.8940  146.1240 C   0  0  0  0  0  3  0  0  0  0  0  0
  196.2310  173.9970  145.8140 C   0  0  0  0  0  3  0  0  0  0  0  0
  194.8880  173.8140  145.4450 C   0  0  0  0  0  0  0  0  0  0  0  0
  195.1590  171.4110  145.6940 C   0  0  0  0  0  0  0  0  0  0  0  0
  196.4940  171.6030  146.0670 C   0  0  0  0  0  3  0  0  0  0  0  0
  194.3560  172.5200  145.3910 C   0  0  0  0  0  3  0  0  0  0  0  0
  194.6010  170.0240  145.6680 C   0  0  2  0  0  3  0  0  0  0  0  0
  194.7560  169.4160  146.9140 O   0  0  0  0  0  1  0  0  0  0  0  0
  195.2890  169.1950  144.5890 C   0  0  0  0  0  2  0  0  0  0  0  0
  195.8580  169.3000  142.2230 N   0  0  0  0  0  1  0  0  0  0  0  0
  194.8280  169.6110  143.2010 C   0  0  0  0  0  2  0  0  0  0  0  0
  188.2660  176.9700  145.1110 C   0  0  2  0  0  3  0  0  0  0  0  0
  186.1220  177.8980  144.3670 O   0  0  0  0  0  0  0  0  0  0  0  0
  187.2470  176.4400  142.8500 C   0  0  0  0  0  2  0  0  0  0  0  0
  185.9270  176.7930  142.2570 C   0  0  0  0  0  2  0  0  0  0  0  0
  185.1930  177.4280  143.4170 C   0  0  2  0  0  3  0  0  0  0  0  0
  187.3950  177.4680  143.9430 C   0  0  2  0  0  3  0  0  0  0  0  0
  184.3740  178.5360  142.9450 N   0  0  0  0  0  2  0  0  0  0  0  0
  184.2220  178.3930  141.5030 C   0  0  0  0  0  2  0  0  0  0  0  0
  182.4700  177.6150  140.0880 O   0  0  0  0  0  0  0  0  0  0  0  0
  182.7840  178.2030  141.1560 C   0  0  0  0  0  0  0  0  0  0  0  0
  181.7920  178.6730  142.0120 O   0  0  0  0  0  1  0  0  0  0  0  0
  186.9320  176.7160  147.2850 C   0  0  0  0  0  1  0  0  0  0  0  0
  187.9570  177.5310  146.5110 C   0  0  1  0  0  3  0  0  0  0  0  0
  189.1280  177.6630  147.2610 O   0  0  0  0  0  1  0  0  0  0  0  0
  189.9920  174.6620  145.7410 C   0  0  0  0  0  2  0  0  0  0  0  0
  190.1520  173.4560  144.8260 C   0  0  0  0  0  2  0  0  0  0  0  0
  191.3790  173.4910  142.2530 O   0  0  0  0  0  0  0  0  0  0  0  0
  190.1300  173.6560  142.3030 C   0  0  0  0  0  0  0  0  0  0  0  0
  189.3750  173.8020  141.1000 N   0  0  0  0  0  2  0  0  0  0  0  0
  189.4560  173.6910  143.5670 N   0  0  0  0  0  2  0  0  0  0  0  0
  190.0080  173.7960  139.7850 C   0  0  0  0  0  2  0  0  0  0  0  0
  189.6800  172.5120  139.0230 C   0  0  1  0  0  0  0  0  0  0  0  0
  189.9950  171.4030  139.8080 O   0  0  0  0  0  1  0  0  0  0  0  0
  188.2060  172.4690  138.6560 C   0  0  0  0  0  1  0  0  0  0  0  0
  191.6680  173.8290  137.4190 O   0  0  0  0  0  1  0  0  0  0  0  0
  191.6410  171.0690  137.4920 O   0  0  0  0  0  1  0  0  0  0  0  0
  190.6760  172.4600  137.4990 P   0  0  0  0  0  0  0  0  0  0  0  0
  189.7590  172.4410  136.2960 O   0  0  0  0  0  0  0  0  0  0  0  0
  1  5  1  0  0  0  0
  1  8  1  0  0  0  0
  2  5  2  0  0  0  0
  2 20  1  0  0  0  0
  3  6  1  0  0  0  0
  3  4  2  0  0  0  0
  4  2  1  0  0  0  0
  5 34  1  0  0  0  0
  6  1  2  0  0  0  0
  7 11  1  0  0  0  0
  8  7  2  0  0  0  0
 10  9  2  0  0  0  0
 11 10  1  0  0  0  0
 12 13  2  0  0  0  0
 13  9  1  0  0  0  0
 14 11  2  0  0  0  0
 14 12  1  0  0  0  0
 15 12  1  0  0  0  0
 15 16  1  1  0  0  0
 17 15  1  0  0  0  0
 18 19  1  0  0  0  0
 19 17  1  0  0  0  0
 20 32  1  1  0  0  0
 22 25  1  0  0  0  0
 23 22  1  0  0  0  0
 23 24  1  0  0  0  0
 24 26  1  6  0  0  0
 24 21  1  0  0  0  0
 25 21  1  0  0  0  0
 25 20  1  1  0  0  0
 27 26  1  0  0  0  0
 28 29  2  0  0  0  0
 29 27  1  0  0  0  0
 29 30  1  0  0  0  0
 32 33  1  0  0  0  0
 32 31  1  1  0  0  0
 35 34  1  0  0  0  0
 36 37  2  0  0  0  0
 37 39  1  0  0  0  0
 38 37  1  0  0  0  0
 39 35  1  0  0  0  0
 40 38  1  0  0  0  0
 41 43  1  6  0  0  0
 41 40  1  0  0  0  0
 41 42  1  0  0  0  0
 44 46  1  0  0  0  0
 45 46  1  0  0  0  0
 46 41  1  0  0  0  0
 47 46  2  0  0  0  0
M  END
>  <MODEL>
6

>  <REMARK>
 VINA RESULT:      -6.6      2.336      9.159
  Name = 
  17 active torsions:
  status: ('A' for Active; 'I' for Inactive)
    1  A    between atoms: C_1  and  P_25
    2  A    between atoms: C_1  and  C_39
    3  A    between atoms: N_4  and  C_34
    4  A    between atoms: C_7  and  N_35
    5  A    between atoms: C_10  and  C_24
    6  A    between atoms: C_15  and  C_29
    7  A    between atoms: C_17  and  C_29
    8  A    between atoms: C_17  and  N_42
    9  A    between atoms: C_19  and  C_37
   10  A    between atoms: C_19  and  C_41
   11  A    between atoms: C_21  and  N_33
   12  A    between atoms: C_22  and  C_46
   13  A    between atoms: C_24  and  C_28
   14  A    between atoms: C_24  and  C_32
   15  A    between atoms: C_26  and  C_37
   16  A    between atoms: N_33  and  C_46
   17  A    between atoms: N_36  and  C_39
                            x       y       z     vdW  Elec       q    Type
                         _______ _______ _______ _____ _____    ______ ____

>  <TORSDO>
F 17

$$$$
=
 OpenBabel11042415343D

 47 49  0  0  1  0  0  0  0  0999 V2000
  191.1860  176.4900  145.7900 C   0  0  0  0  0  0  0  0  0  0  0  0
  193.3540  175.6810  145.0150 C   0  0  0  0  0  0  0  0  0  0  0  0
  193.0980  176.5110  147.2860 C   0  0  0  0  0  3  0  0  0  0  0  0
  193.8950  175.9720  146.2770 C   0  0  0  0  0  3  0  0  0  0  0  0
  191.9900  175.9440  144.7680 C   0  0  0  0  0  0  0  0  0  0  0  0
  191.7490  176.7680  147.0440 C   0  0  0  0  0  3  0  0  0  0  0  0
  188.9840  177.0050  146.4890 N   0  0  0  0  0  0  0  0  0  0  0  0
  189.8000  176.7620  145.5420 N   0  0  0  0  0  0  0  0  0  0  0  0
  185.2760  177.2770  146.9320 C   0  0  0  0  0  3  0  0  0  0  0  0
  186.6180  176.9980  147.1990 C   0  0  0  0  0  3  0  0  0  0  0  0
  187.6040  177.2800  146.2380 C   0  0  0  0  0  0  0  0  0  0  0  0
  185.8820  178.1170  144.7390 C   0  0  0  0  0  0  0  0  0  0  0  0
  184.9090  177.8380  145.7040 C   0  0  0  0  0  3  0  0  0  0  0  0
  187.2300  177.8440  145.0110 C   0  0  0  0  0  3  0  0  0  0  0  0
  185.4680  178.7420  143.4450 C   0  0  2  0  0  3  0  0  0  0  0  0
  184.2860  178.1620  142.9830 O   0  0  0  0  0  1  0  0  0  0  0  0
  186.5710  178.5880  142.4040 C   0  0  0  0  0  2  0  0  0  0  0  0
  185.9740  177.9250  140.1380 N   0  0  0  0  0  1  0  0  0  0  0  0
  186.2820  177.4250  141.4680 C   0  0  0  0  0  2  0  0  0  0  0  0
  194.2340  175.0980  143.9410 C   0  0  2  0  0  3  0  0  0  0  0  0
  194.6030  172.8460  143.0470 O   0  0  0  0  0  0  0  0  0  0  0  0
  193.7270  172.9930  145.2600 C   0  0  0  0  0  2  0  0  0  0  0  0
  193.7630  171.5560  144.8750 C   0  0  0  0  0  2  0  0  0  0  0  0
  194.0130  171.6110  143.3840 C   0  0  2  0  0  3  0  0  0  0  0  0
  194.6080  173.6300  144.2160 C   0  0  2  0  0  3  0  0  0  0  0  0
  194.8930  170.5220  142.9830 N   0  0  0  0  0  2  0  0  0  0  0  0
  194.7090  170.3050  141.5540 C   0  0  0  0  0  2  0  0  0  0  0  0
  197.0150  170.8940  141.4430 O   0  0  0  0  0  1  0  0  0  0  0  0
  196.0170  170.4130  140.8460 C   0  0  0  0  0  0  0  0  0  0  0  0
  196.1330  169.9810  139.5270 O   0  0  0  0  0  0  0  0  0  0  0  0
  196.7590  175.5310  143.8620 C   0  0  0  0  0  1  0  0  0  0  0  0
  195.3700  176.0490  143.5210 C   0  0  1  0  0  3  0  0  0  0  0  0
  195.2910  176.3430  142.1580 O   0  0  0  0  0  1  0  0  0  0  0  0
  191.3770  175.6310  143.4330 C   0  0  0  0  0  2  0  0  0  0  0  0
  190.7440  174.2470  143.4480 C   0  0  0  0  0  2  0  0  0  0  0  0
  188.9410  173.0350  141.6020 O   0  0  0  0  0  0  0  0  0  0  0  0
  190.1740  172.9550  141.3470 C   0  0  0  0  0  0  0  0  0  0  0  0
  190.6210  172.3210  140.1490 N   0  0  0  0  0  2  0  0  0  0  0  0
  191.1360  173.5070  142.2550 N   0  0  0  0  0  2  0  0  0  0  0  0
  189.6900  171.7230  139.1970 C   0  0  0  0  0  2  0  0  0  0  0  0
  190.2380  171.7960  137.7720 C   0  0  1  0  0  0  0  0  0  0  0  0
  191.6250  171.6490  137.7920 O   0  0  0  0  0  1  0  0  0  0  0  0
  189.6270  170.7070  136.9060 C   0  0  0  0  0  1  0  0  0  0  0  0
  189.3970  173.2450  135.4370 O   0  0  0  0  0  0  0  0  0  0  0  0
  188.5300  174.1050  137.9130 O   0  0  0  0  0  1  0  0  0  0  0  0
  189.8260  173.4230  137.0640 P   0  0  0  0  0  0  0  0  0  0  0  0
  191.0270  174.3370  137.1640 O   0  0  0  0  0  1  0  0  0  0  0  0
  1  6  1  0  0  0  0
  2  4  2  0  0  0  0
  4  3  1  0  0  0  0
  5  2  1  0  0  0  0
  5  1  2  0  0  0  0
  6  3  2  0  0  0  0
  8  1  1  0  0  0  0
  8  7  2  0  0  0  0
  9 10  1  0  0  0  0
 11  7  1  0  0  0  0
 11 10  2  0  0  0  0
 12 14  2  0  0  0  0
 12 13  1  0  0  0  0
 13  9  2  0  0  0  0
 14 11  1  0  0  0  0
 15 16  1  6  0  0  0
 15 12  1  0  0  0  0
 17 15  1  0  0  0  0
 18 19  1  0  0  0  0
 19 17  1  0  0  0  0
 20 32  1  1  0  0  0
 20  2  1  0  0  0  0
 21 24  1  0  0  0  0
 21 25  1  0  0  0  0
 23 22  1  0  0  0  0
 24 26  1  1  0  0  0
 24 23  1  0  0  0  0
 25 20  1  6  0  0  0
 25 22  1  0  0  0  0
 27 26  1  0  0  0  0
 29 28  1  0  0  0  0
 29 27  1  0  0  0  0
 30 29  2  0  0  0  0
 32 31  1  6  0  0  0
 33 32  1  0  0  0  0
 34 35  1  0  0  0  0
 34  5  1  0  0  0  0
 37 36  2  0  0  0  0
 37 39  1  0  0  0  0
 38 37  1  0  0  0  0
 39 35  1  0  0  0  0
 40 38  1  0  0  0  0
 41 43  1  6  0  0  0
 41 42  1  0  0  0  0
 41 40  1  0  0  0  0
 44 46  2  0  0  0  0
 46 47  1  0  0  0  0
 46 41  1  0  0  0  0
 46 45  1  0  0  0  0
M  END
>  <MODEL>
7

>  <REMARK>
 VINA RESULT:      -6.4      2.112      2.604
  Name = 
  17 active torsions:
  status: ('A' for Active; 'I' for Inactive)
    1  A    between atoms: C_1  and  P_25
    2  A    between atoms: C_1  and  C_39
    3  A    between atoms: N_4  and  C_34
    4  A    between atoms: C_7  and  N_35
    5  A    between atoms: C_10  and  C_24
    6  A    between atoms: C_15  and  C_29
    7  A    between atoms: C_17  and  C_29
    8  A    between atoms: C_17  and  N_42
    9  A    between atoms: C_19  and  C_37
   10  A    between atoms: C_19  and  C_41
   11  A    between atoms: C_21  and  N_33
   12  A    between atoms: C_22  and  C_46
   13  A    between atoms: C_24  and  C_28
   14  A    between atoms: C_24  and  C_32
   15  A    between atoms: C_26  and  C_37
   16  A    between atoms: N_33  and  C_46
   17  A    between atoms: N_36  and  C_39
                            x       y       z     vdW  Elec       q    Type
                         _______ _______ _______ _____ _____    ______ ____

>  <TORSDO>
F 17

$$$$
=
 OpenBabel11042415343D

 47 49  0  0  1  0  0  0  0  0999 V2000
  195.1740  175.0430  140.5430 C   0  0  0  0  0  0  0  0  0  0  0  0
  195.7460  174.2900  142.7930 C   0  0  0  0  0  0  0  0  0  0  0  0
  197.4810  175.1130  141.3000 C   0  0  0  0  0  3  0  0  0  0  0  0
  197.0940  174.5900  142.5330 C   0  0  0  0  0  3  0  0  0  0  0  0
  194.7800  174.5150  141.7900 C   0  0  0  0  0  0  0  0  0  0  0  0
  196.5260  175.3380  140.3100 C   0  0  0  0  0  3  0  0  0  0  0  0
  194.4560  175.0790  138.2880 N   0  0  0  0  0  0  0  0  0  0  0  0
  194.1970  175.2700  139.5200 N   0  0  0  0  0  0  0  0  0  0  0  0
  192.7040  176.4710  135.2870 C   0  0  0  0  0  3  0  0  0  0  0  0
  193.6740  176.2710  136.2710 C   0  0  0  0  0  3  0  0  0  0  0  0
  193.4770  175.3040  137.2710 C   0  0  0  0  0  0  0  0  0  0  0  0
  191.3230  174.7470  136.2890 C   0  0  0  0  0  0  0  0  0  0  0  0
  191.5310  175.7080  135.2940 C   0  0  0  0  0  3  0  0  0  0  0  0
  192.3020  174.5410  137.2720 C   0  0  0  0  0  3  0  0  0  0  0  0
  190.0750  173.9250  136.2600 C   0  0  2  0  0  3  0  0  0  0  0  0
  188.9630  174.7400  136.0390 O   0  0  0  0  0  1  0  0  0  0  0  0
  189.9130  173.1580  137.5670 C   0  0  0  0  0  2  0  0  0  0  0  0
  188.1930  172.6970  139.2280 N   0  0  0  0  0  1  0  0  0  0  0  0
  188.7870  173.7390  138.4080 C   0  0  0  0  0  2  0  0  0  0  0  0
  195.3510  173.7280  144.1330 C   0  0  2  0  0  3  0  0  0  0  0  0
  193.6820  174.8400  145.5430 O   0  0  0  0  0  0  0  0  0  0  0  0
  195.4480  176.1990  144.6940 C   0  0  0  0  0  2  0  0  0  0  0  0
  194.4940  177.0830  145.4180 C   0  0  0  0  0  2  0  0  0  0  0  0
  193.2890  176.1910  145.6180 C   0  0  2  0  0  3  0  0  0  0  0  0
  195.0390  174.8270  145.1650 C   0  0  2  0  0  3  0  0  0  0  0  0
  192.6820  176.4530  146.9150 N   0  0  0  0  0  2  0  0  0  0  0  0
  191.8430  175.3110  147.2520 C   0  0  0  0  0  2  0  0  0  0  0  0
  190.1070  176.9440  147.2400 O   0  0  0  0  0  0  0  0  0  0  0  0
  190.4110  175.7240  147.3020 C   0  0  0  0  0  0  0  0  0  0  0  0
  189.4110  174.7600  147.4140 O   0  0  0  0  0  1  0  0  0  0  0  0
  196.8280  172.7530  145.9870 C   0  0  0  0  0  1  0  0  0  0  0  0
  196.2630  172.5730  144.5860 C   0  0  1  0  0  3  0  0  0  0  0  0
  195.5950  171.3500  144.4940 O   0  0  0  0  0  1  0  0  0  0  0  0
  193.3290  174.2180  142.0410 C   0  0  0  0  0  2  0  0  0  0  0  0
  192.5460  175.5090  142.2360 C   0  0  0  0  0  2  0  0  0  0  0  0
  190.7720  177.4570  143.3250 O   0  0  0  0  0  0  0  0  0  0  0  0
  190.3910  176.2540  143.3360 C   0  0  0  0  0  0  0  0  0  0  0  0
  189.0980  175.9130  143.8330 N   0  0  0  0  0  2  0  0  0  0  0  0
  191.2520  175.2200  142.8410 N   0  0  0  0  0  2  0  0  0  0  0  0
  188.1860  176.9200  144.3680 C   0  0  0  0  0  2  0  0  0  0  0  0
  187.1140  177.2910  143.3430 C   0  0  1  0  0  0  0  0  0  0  0  0
  187.6080  178.2640  142.4740 O   0  0  0  0  0  1  0  0  0  0  0  0
  186.6910  176.0690  142.5430 C   0  0  0  0  0  1  0  0  0  0  0  0
  184.3150  177.9250  143.2030 O   0  0  0  0  0  0  0  0  0  0  0  0
  185.3520  177.0330  145.6000 O   0  0  0  0  0  1  0  0  0  0  0  0
  185.6660  177.9610  144.2200 P   0  0  0  0  0  0  0  0  0  0  0  0
  185.9410  179.3920  144.6300 O   0  0  0  0  0  1  0  0  0  0  0  0
  1  5  1  0  0  0  0
  2 20  1  0  0  0  0
  3  4  2  0  0  0  0
  4  2  1  0  0  0  0
  5 34  1  0  0  0  0
  5  2  2  0  0  0  0
  6  1  2  0  0  0  0
  6  3  1  0  0  0  0
  7  8  2  0  0  0  0
  8  1  1  0  0  0  0
  9 13  2  0  0  0  0
  9 10  1  0  0  0  0
 10 11  2  0  0  0  0
 11 14  1  0  0  0  0
 11  7  1  0  0  0  0
 12 14  2  0  0  0  0
 13 12  1  0  0  0  0
 15 16  1  1  0  0  0
 15 12  1  0  0  0  0
 15 17  1  0  0  0  0
 17 19  1  0  0  0  0
 19 18  1  0  0  0  0
 20 32  1  1  0  0  0
 21 24  1  0  0  0  0
 22 25  1  0  0  0  0
 22 23  1  0  0  0  0
 23 24  1  0  0  0  0
 24 26  1  1  0  0  0
 25 20  1  6  0  0  0
 25 21  1  0  0  0  0
 26 27  1  0  0  0  0
 27 29  1  0  0  0  0
 28 29  2  0  0  0  0
 29 30  1  0  0  0  0
 32 31  1  1  0  0  0
 33 32  1  0  0  0  0
 34 35  1  0  0  0  0
 35 39  1  0  0  0  0
 36 37  2  0  0  0  0
 37 38  1  0  0  0  0
 38 40  1  0  0  0  0
 39 37  1  0  0  0  0
 41 43  1  6  0  0  0
 41 46  1  0  0  0  0
 41 40  1  0  0  0  0
 42 41  1  0  0  0  0
 44 46  2  0  0  0  0
 46 47  1  0  0  0  0
 46 45  1  0  0  0  0
M  END
>  <MODEL>
8

>  <REMARK>
 VINA RESULT:      -6.4      3.243      7.935
  Name = 
  17 active torsions:
  status: ('A' for Active; 'I' for Inactive)
    1  A    between atoms: C_1  and  P_25
    2  A    between atoms: C_1  and  C_39
    3  A    between atoms: N_4  and  C_34
    4  A    between atoms: C_7  and  N_35
    5  A    between atoms: C_10  and  C_24
    6  A    between atoms: C_15  and  C_29
    7  A    between atoms: C_17  and  C_29
    8  A    between atoms: C_17  and  N_42
    9  A    between atoms: C_19  and  C_37
   10  A    between atoms: C_19  and  C_41
   11  A    between atoms: C_21  and  N_33
   12  A    between atoms: C_22  and  C_46
   13  A    between atoms: C_24  and  C_28
   14  A    between atoms: C_24  and  C_32
   15  A    between atoms: C_26  and  C_37
   16  A    between atoms: N_33  and  C_46
   17  A    between atoms: N_36  and  C_39
                            x       y       z     vdW  Elec       q    Type
                         _______ _______ _______ _____ _____    ______ ____

>  <TORSDO>
F 17

$$$$
=
 OpenBabel11042415343D

 47 49  0  0  1  0  0  0  0  0999 V2000
  191.4840  175.7500  145.9420 C   0  0  0  0  0  0  0  0  0  0  0  0
  193.4780  174.6120  145.1150 C   0  0  0  0  0  0  0  0  0  0  0  0
  193.6720  176.3430  146.8130 C   0  0  0  0  0  3  0  0  0  0  0  0
  194.2630  175.3970  145.9760 C   0  0  0  0  0  3  0  0  0  0  0  0
  192.0790  174.7910  145.0960 C   0  0  0  0  0  0  0  0  0  0  0  0
  192.2890  176.5180  146.7960 C   0  0  0  0  0  3  0  0  0  0  0  0
  189.5330  177.0770  146.1330 N   0  0  0  0  0  0  0  0  0  0  0  0
  190.0630  175.9380  145.9240 N   0  0  0  0  0  0  0  0  0  0  0  0
  185.9220  176.9950  147.1190 C   0  0  0  0  0  3  0  0  0  0  0  0
  187.3050  176.8020  147.1620 C   0  0  0  0  0  3  0  0  0  0  0  0
  188.1150  177.2600  146.1100 C   0  0  0  0  0  0  0  0  0  0  0  0
  186.1380  178.1000  144.9710 C   0  0  0  0  0  0  0  0  0  0  0  0
  185.3400  177.6450  146.0260 C   0  0  0  0  0  3  0  0  0  0  0  0
  187.5270  177.9130  145.0190 C   0  0  0  0  0  3  0  0  0  0  0  0
  185.4960  178.8170  143.8270 C   0  0  2  0  0  3  0  0  0  0  0  0
  184.5440  179.7220  144.2960 O   0  0  0  0  0  1  0  0  0  0  0  0
  184.8480  177.8210  142.8710 C   0  0  0  0  0  2  0  0  0  0  0  0
  183.9950  178.3410  140.6510 N   0  0  0  0  0  1  0  0  0  0  0  0
  185.2060  178.1350  141.4270 C   0  0  0  0  0  2  0  0  0  0  0  0
  194.1390  173.5960  144.2220 C   0  0  2  0  0  3  0  0  0  0  0  0
  195.8280  172.1220  145.2140 O   0  0  0  0  0  0  0  0  0  0  0  0
  193.9300  171.0690  144.2260 C   0  0  0  0  0  2  0  0  0  0  0  0
  194.8750  170.0020  144.6580 C   0  0  0  0  0  2  0  0  0  0  0  0
  196.1420  170.7720  144.9550 C   0  0  2  0  0  3  0  0  0  0  0  0
  194.4520  172.2790  144.9560 C   0  0  2  0  0  3  0  0  0  0  0  0
  196.8190  170.1970  146.1090 N   0  0  0  0  0  2  0  0  0  0  0  0
  196.3990  168.8070  146.2240 C   0  0  0  0  0  2  0  0  0  0  0  0
  194.9540  168.3310  148.0580 O   0  0  0  0  0  0  0  0  0  0  0  0
  196.1380  168.4670  147.6520 C   0  0  0  0  0  0  0  0  0  0  0  0
  197.2020  168.2960  148.5330 O   0  0  0  0  0  1  0  0  0  0  0  0
  195.5830  173.3800  142.1160 C   0  0  0  0  0  1  0  0  0  0  0  0
  195.2560  174.2020  143.3540 C   0  0  1  0  0  3  0  0  0  0  0  0
  194.9410  175.5130  142.9870 O   0  0  0  0  0  1  0  0  0  0  0  0
  191.2110  173.9580  144.1980 C   0  0  0  0  0  2  0  0  0  0  0  0
  190.9660  174.6740  142.8770 C   0  0  0  0  0  2  0  0  0  0  0  0
  189.5150  173.5930  140.6750 O   0  0  0  0  0  0  0  0  0  0  0  0
  190.7660  173.4290  140.6830 C   0  0  0  0  0  0  0  0  0  0  0  0
  191.4120  172.7680  139.5960 N   0  0  0  0  0  2  0  0  0  0  0  0
  191.5500  173.9110  141.7810 N   0  0  0  0  0  2  0  0  0  0  0  0
  190.6640  172.2370  138.4600 C   0  0  0  0  0  2  0  0  0  0  0  0
  190.9270  170.7420  138.2780 C   0  0  1  0  0  0  0  0  0  0  0  0
  191.3210  170.1810  139.4930 O   0  0  0  0  0  1  0  0  0  0  0  0
  189.6780  170.0350  137.7770 C   0  0  0  0  0  1  0  0  0  0  0  0
  191.7060  169.6060  135.7560 O   0  0  0  0  0  0  0  0  0  0  0  0
  192.7860  172.0330  136.5040 O   0  0  0  0  0  1  0  0  0  0  0  0
  192.2660  170.5230  137.0630 P   0  0  0  0  0  0  0  0  0  0  0  0
  193.4260  169.8020  137.7140 O   0  0  0  0  0  1  0  0  0  0  0  0
  1  6  1  0  0  0  0
  2  4  2  0  0  0  0
  4  3  1  0  0  0  0
  5  2  1  0  0  0  0
  5  1  2  0  0  0  0
  6  3  2  0  0  0  0
  8  1  1  0  0  0  0
  8  7  2  0  0  0  0
  9 10  1  0  0  0  0
 11  7  1  0  0  0  0
 11 10  2  0  0  0  0
 12 14  2  0  0  0  0
 12 13  1  0  0  0  0
 13  9  2  0  0  0  0
 14 11  1  0  0  0  0
 15 16  1  1  0  0  0
 15 12  1  0  0  0  0
 17 15  1  0  0  0  0
 18 19  1  0  0  0  0
 19 17  1  0  0  0  0
 20 32  1  1  0  0  0
 20  2  1  0  0  0  0
 22 23  1  0  0  0  0
 22 25  1  0  0  0  0
 23 24  1  0  0  0  0
 24 21  1  0  0  0  0
 24 26  1  1  0  0  0
 25 20  1  6  0  0  0
 25 21  1  0  0  0  0
 26 27  1  0  0  0  0
 27 29  1  0  0  0  0
 29 28  2  0  0  0  0
 29 30  1  0  0  0  0
 32 31  1  6  0  0  0
 33 32  1  0  0  0  0
 34  5  1  0  0  0  0
 35 34  1  0  0  0  0
 36 37  2  0  0  0  0
 37 39  1  0  0  0  0
 38 37  1  0  0  0  0
 39 35  1  0  0  0  0
 40 38  1  0  0  0  0
 41 43  1  6  0  0  0
 41 40  1  0  0  0  0
 41 42  1  0  0  0  0
 44 46  2  0  0  0  0
 45 46  1  0  0  0  0
 46 47  1  0  0  0  0
 46 41  1  0  0  0  0
M  END
>  <MODEL>
9

>  <REMARK>
 VINA RESULT:      -6.4      2.013      2.456
  Name = 
  17 active torsions:
  status: ('A' for Active; 'I' for Inactive)
    1  A    between atoms: C_1  and  P_25
    2  A    between atoms: C_1  and  C_39
    3  A    between atoms: N_4  and  C_34
    4  A    between atoms: C_7  and  N_35
    5  A    between atoms: C_10  and  C_24
    6  A    between atoms: C_15  and  C_29
    7  A    between atoms: C_17  and  C_29
    8  A    between atoms: C_17  and  N_42
    9  A    between atoms: C_19  and  C_37
   10  A    between atoms: C_19  and  C_41
   11  A    between atoms: C_21  and  N_33
   12  A    between atoms: C_22  and  C_46
   13  A    between atoms: C_24  and  C_28
   14  A    between atoms: C_24  and  C_32
   15  A    between atoms: C_26  and  C_37
   16  A    between atoms: N_33  and  C_46
   17  A    between atoms: N_36  and  C_39
                            x       y       z     vdW  Elec       q    Type
                         _______ _______ _______ _____ _____    ______ ____

>  <TORSDO>
F 17

$$$$
