=
 OpenBabel11042417193D

 26 27  0  0  1  0  0  0  0  0999 V2000
  188.0170  176.6990  143.7080 N   0  0  0  0  0  2  0  0  0  0  0  0
  185.6050  177.3470  143.2140 C   0  0  1  0  0  3  0  0  0  0  0  0
  185.0820  176.9080  146.0100 C   0  0  0  0  0  2  0  0  0  0  0  0
  186.6760  176.8880  144.1760 C   0  0  0  0  0  0  0  0  0  0  0  0
  184.2450  179.0630  144.3240 N   0  0  0  0  0  2  0  0  0  0  0  0
  184.5640  179.2710  145.6750 N   0  0  0  0  0  0  0  0  0  0  0  0
  185.2740  178.8370  143.3180 C   0  0  0  0  0  2  0  0  0  0  0  0
  184.9630  178.3240  146.4730 C   0  0  0  0  0  0  0  0  0  0  0  0
  186.3990  176.6870  145.4300 N   0  0  0  0  0  0  0  0  0  0  0  0
  189.9100  174.1370  145.6320 C   0  0  0  0  0  2  0  0  0  0  0  0
  189.3350  174.7460  144.3560 C   0  0  0  0  0  2  0  0  0  0  0  0
  191.3880  174.4670  145.8570 C   0  0  2  0  0  3  0  0  0  0  0  0
  191.5990  176.3490  144.4800 N   0  0  0  0  0  0  0  0  0  0  0  0
  189.1030  176.2400  144.5610 C   0  0  1  0  0  3  0  0  0  0  0  0
  190.3520  177.0850  144.2820 C   0  0  0  0  0  2  0  0  0  0  0  0
  192.6770  177.3060  144.3090 C   0  0  0  0  0  1  0  0  0  0  0  0
  191.6530  175.9130  145.8160 N   0  0  0  0  0  2  0  0  0  0  0  0
  192.3020  173.6660  144.9290 C   0  0  0  0  0  2  0  0  0  0  0  0
  193.6090  173.2920  145.6150 C   0  0  0  0  0  2  0  0  0  0  0  0
  194.7760  174.0840  145.0480 C   0  0  0  0  0  2  0  0  0  0  0  0
  195.2180  175.1580  146.0240 C   0  0  0  0  0  1  0  0  0  0  0  0
  185.3000  178.6120  147.7970 O   0  0  0  0  0  0  0  0  0  0  0  0
  186.6110  179.0020  148.1810 C   0  0  0  0  0  1  0  0  0  0  0  0
  185.7730  176.8680  141.8930 O   0  0  0  0  0  0  0  0  0  0  0  0
  185.8220  177.9550  141.0030 C   0  0  0  0  0  2  0  0  0  0  0  0
  186.5060  177.5270  139.7210 C   0  0  0  0  0  1  0  0  0  0  0  0
  1  4  1  0  0  0  0
  2 24  1  6  0  0  0
  2  7  1  0  0  0  0
  2  4  1  0  0  0  0
  3  8  1  0  0  0  0
  4  9  2  0  0  0  0
  5  6  1  0  0  0  0
  6  8  2  0  0  0  0
  7  5  1  0  0  0  0
  8 22  1  0  0  0  0
  9  3  1  0  0  0  0
 10 12  1  0  0  0  0
 11 14  1  0  0  0  0
 11 10  1  0  0  0  0
 12 18  1  6  0  0  0
 13 17  1  0  0  0  0
 14  1  1  6  0  0  0
 15 13  1  0  0  0  0
 15 14  1  0  0  0  0
 16 13  1  0  0  0  0
 17 12  1  0  0  0  0
 18 19  1  0  0  0  0
 20 19  1  0  0  0  0
 20 21  1  0  0  0  0
 22 23  1  0  0  0  0
 25 24  1  0  0  0  0
 26 25  1  0  0  0  0
M  END
>  <MODEL>
1

>  <REMARK>
 VINA RESULT:      -6.1      0.000      0.000
  Name = 
  7 active torsions:
  status: ('A' for Active; 'I' for Inactive)
    1  A    between atoms: N_1  and  C_11
    2  A    between atoms: O_2  and  C_7
    3  A    between atoms: O_2  and  C_13
    4  A    between atoms: O_5  and  C_23
    5  A    between atoms: C_6  and  C_12
    6  A    between atoms: C_6  and  C_22
    7  A    between atoms: C_8  and  C_12
                            x       y       z     vdW  Elec       q    Type
                         _______ _______ _______ _____ _____    ______ ____

>  <TORSDO>
F 7

$$$$
=
 OpenBabel11042417193D

 26 27  0  0  1  0  0  0  0  0999 V2000
  187.8570  177.4380  145.2830 N   0  0  0  0  0  2  0  0  0  0  0  0
  185.7930  178.9030  145.0160 C   0  0  1  0  0  3  0  0  0  0  0  0
  186.4060  178.9790  142.2050 C   0  0  0  0  0  2  0  0  0  0  0  0
  186.9980  178.2050  144.4310 C   0  0  0  0  0  0  0  0  0  0  0  0
  183.8890  178.5680  143.5030 N   0  0  0  0  0  2  0  0  0  0  0  0
  184.2100  177.9140  142.3030 N   0  0  0  0  0  0  0  0  0  0  0  0
  184.4730  178.1700  144.7760 C   0  0  0  0  0  2  0  0  0  0  0  0
  185.3480  178.0590  141.6880 C   0  0  0  0  0  0  0  0  0  0  0  0
  187.2510  178.2730  143.1570 N   0  0  0  0  0  0  0  0  0  0  0  0
  191.5220  177.0690  144.7530 C   0  0  0  0  0  2  0  0  0  0  0  0
  190.2670  177.1960  145.6120 C   0  0  0  0  0  2  0  0  0  0  0  0
  192.0020  175.6260  144.5790 C   0  0  2  0  0  3  0  0  0  0  0  0
  190.0340  174.4750  145.1120 N   0  0  0  0  0  0  0  0  0  0  0  0
  189.0490  176.7510  144.8070 C   0  0  1  0  0  3  0  0  0  0  0  0
  188.8130  175.2370  144.8640 C   0  0  0  0  0  2  0  0  0  0  0  0
  189.6760  173.0720  145.0080 C   0  0  0  0  0  1  0  0  0  0  0  0
  190.9450  174.7390  144.0730 N   0  0  0  0  0  2  0  0  0  0  0  0
  192.6770  175.0910  145.8440 C   0  0  0  0  0  2  0  0  0  0  0  0
  193.5960  176.1300  146.4710 C   0  0  0  0  0  2  0  0  0  0  0  0
  194.9940  176.0620  145.8780 C   0  0  0  0  0  2  0  0  0  0  0  0
  195.4720  174.6250  145.7990 C   0  0  0  0  0  1  0  0  0  0  0  0
  185.6130  177.3450  140.5170 O   0  0  0  0  0  0  0  0  0  0  0  0
  186.8350  177.4780  139.8050 C   0  0  0  0  0  1  0  0  0  0  0  0
  185.9810  179.3680  146.3400 O   0  0  0  0  0  0  0  0  0  0  0  0
  185.1320  178.6610  147.2090 C   0  0  0  0  0  2  0  0  0  0  0  0
  185.9640  177.8180  148.1520 C   0  0  0  0  0  1  0  0  0  0  0  0
  2 24  1  1  0  0  0
  3  9  1  0  0  0  0
  4  2  1  0  0  0  0
  4  1  1  0  0  0  0
  5  7  1  0  0  0  0
  6  5  1  0  0  0  0
  7  2  1  0  0  0  0
  8  3  1  0  0  0  0
  8  6  2  0  0  0  0
  9  4  2  0  0  0  0
 10 11  1  0  0  0  0
 12 10  1  0  0  0  0
 12 18  1  1  0  0  0
 14 15  1  0  0  0  0
 14  1  1  1  0  0  0
 14 11  1  0  0  0  0
 15 13  1  0  0  0  0
 16 13  1  0  0  0  0
 17 12  1  0  0  0  0
 17 13  1  0  0  0  0
 18 19  1  0  0  0  0
 20 19  1  0  0  0  0
 21 20  1  0  0  0  0
 22  8  1  0  0  0  0
 23 22  1  0  0  0  0
 24 25  1  0  0  0  0
 25 26  1  0  0  0  0
M  END
>  <MODEL>
2

>  <REMARK>
 VINA RESULT:      -6.1      1.479      4.068
  Name = 
  7 active torsions:
  status: ('A' for Active; 'I' for Inactive)
    1  A    between atoms: N_1  and  C_11
    2  A    between atoms: O_2  and  C_7
    3  A    between atoms: O_2  and  C_13
    4  A    between atoms: O_5  and  C_23
    5  A    between atoms: C_6  and  C_12
    6  A    between atoms: C_6  and  C_22
    7  A    between atoms: C_8  and  C_12
                            x       y       z     vdW  Elec       q    Type
                         _______ _______ _______ _____ _____    ______ ____

>  <TORSDO>
F 7

$$$$
=
 OpenBabel11042417193D

 26 27  0  0  1  0  0  0  0  0999 V2000
  187.1840  177.8870  142.7150 N   0  0  0  0  0  2  0  0  0  0  0  0
  184.7340  177.9640  143.3980 C   0  0  1  0  0  3  0  0  0  0  0  0
  185.5360  176.6550  145.8320 C   0  0  0  0  0  2  0  0  0  0  0  0
  186.1660  177.5700  143.6710 C   0  0  0  0  0  0  0  0  0  0  0  0
  183.7700  178.8760  145.4640 N   0  0  0  0  0  2  0  0  0  0  0  0
  184.6110  178.7870  146.5840 N   0  0  0  0  0  0  0  0  0  0  0  0
  184.2820  179.2200  144.1450 C   0  0  0  0  0  2  0  0  0  0  0  0
  185.4400  177.8030  146.7840 C   0  0  0  0  0  0  0  0  0  0  0  0
  186.4890  176.9670  144.7770 N   0  0  0  0  0  0  0  0  0  0  0  0
  190.4310  177.8480  144.5330 C   0  0  0  0  0  2  0  0  0  0  0  0
  188.9470  177.5330  144.3710 C   0  0  0  0  0  2  0  0  0  0  0  0
  191.3490  176.6750  144.1800 C   0  0  2  0  0  3  0  0  0  0  0  0
  189.8890  175.3960  142.8700 N   0  0  0  0  0  0  0  0  0  0  0  0
  188.5840  177.5270  142.8880 C   0  0  1  0  0  3  0  0  0  0  0  0
  188.8410  176.1740  142.2140 C   0  0  0  0  0  2  0  0  0  0  0  0
  190.1060  174.2180  142.0500 C   0  0  0  0  0  1  0  0  0  0  0  0
  191.0840  176.1380  142.8370 N   0  0  0  0  0  2  0  0  0  0  0  0
  191.3430  175.5970  145.2660 C   0  0  0  0  0  2  0  0  0  0  0  0
  191.8390  176.1430  146.5990 C   0  0  0  0  0  2  0  0  0  0  0  0
  190.9070  175.7540  147.7360 C   0  0  0  0  0  2  0  0  0  0  0  0
  189.7090  174.9890  147.2080 C   0  0  0  0  0  1  0  0  0  0  0  0
  186.2740  177.8000  147.9040 O   0  0  0  0  0  0  0  0  0  0  0  0
  187.0060  178.9480  148.3100 C   0  0  0  0  0  1  0  0  0  0  0  0
  184.3750  177.9280  142.0300 O   0  0  0  0  0  0  0  0  0  0  0  0
  183.0180  178.2640  141.8900 C   0  0  0  0  0  2  0  0  0  0  0  0
  182.5730  177.9890  140.4700 C   0  0  0  0  0  1  0  0  0  0  0  0
  1  4  1  0  0  0  0
  2 24  1  6  0  0  0
  2  4  1  0  0  0  0
  2  7  1  0  0  0  0
  3  8  1  0  0  0  0
  4  9  2  0  0  0  0
  5  6  1  0  0  0  0
  6  8  2  0  0  0  0
  7  5  1  0  0  0  0
  8 22  1  0  0  0  0
  9  3  1  0  0  0  0
 11 10  1  0  0  0  0
 12 10  1  0  0  0  0
 12 18  1  1  0  0  0
 14  1  1  1  0  0  0
 14 11  1  0  0  0  0
 15 13  1  0  0  0  0
 15 14  1  0  0  0  0
 16 13  1  0  0  0  0
 17 13  1  0  0  0  0
 17 12  1  0  0  0  0
 18 19  1  0  0  0  0
 19 20  1  0  0  0  0
 21 20  1  0  0  0  0
 22 23  1  0  0  0  0
 25 24  1  0  0  0  0
 26 25  1  0  0  0  0
M  END
>  <MODEL>
3

>  <REMARK>
 VINA RESULT:      -6.1      2.003      2.736
  Name = 
  7 active torsions:
  status: ('A' for Active; 'I' for Inactive)
    1  A    between atoms: N_1  and  C_11
    2  A    between atoms: O_2  and  C_7
    3  A    between atoms: O_2  and  C_13
    4  A    between atoms: O_5  and  C_23
    5  A    between atoms: C_6  and  C_12
    6  A    between atoms: C_6  and  C_22
    7  A    between atoms: C_8  and  C_12
                            x       y       z     vdW  Elec       q    Type
                         _______ _______ _______ _____ _____    ______ ____

>  <TORSDO>
F 7

$$$$
=
 OpenBabel11042417193D

 26 27  0  0  1  0  0  0  0  0999 V2000
  190.5190  176.5130  143.5860 N   0  0  0  0  0  2  0  0  0  0  0  0
  192.8180  175.5330  144.0640 C   0  0  1  0  0  3  0  0  0  0  0  0
  191.4670  173.0650  144.6690 C   0  0  0  0  0  2  0  0  0  0  0  0
  191.3150  175.3970  144.0000 C   0  0  0  0  0  0  0  0  0  0  0  0
  193.8250  173.5070  143.1090 N   0  0  0  0  0  2  0  0  0  0  0  0
  192.9020  172.5050  142.7730 N   0  0  0  0  0  0  0  0  0  0  0  0
  193.5490  174.9170  142.8700 C   0  0  0  0  0  2  0  0  0  0  0  0
  191.8100  172.2790  143.4450 C   0  0  0  0  0  0  0  0  0  0  0  0
  190.7380  174.2690  144.2940 N   0  0  0  0  0  0  0  0  0  0  0  0
  187.0870  177.0840  144.9080 C   0  0  0  0  0  2  0  0  0  0  0  0
  188.4680  177.5330  144.4400 C   0  0  0  0  0  2  0  0  0  0  0  0
  186.0020  177.2210  143.8370 C   0  0  2  0  0  3  0  0  0  0  0  0
  187.3370  177.3070  141.9150 N   0  0  0  0  0  0  0  0  0  0  0  0
  189.0650  176.4740  143.5160 C   0  0  1  0  0  3  0  0  0  0  0  0
  188.6280  176.6380  142.0560 C   0  0  0  0  0  2  0  0  0  0  0  0
  187.0020  177.2690  140.5030 C   0  0  0  0  0  1  0  0  0  0  0  0
  186.3620  176.5430  142.5830 N   0  0  0  0  0  2  0  0  0  0  0  0
  185.5820  178.6770  143.6300 C   0  0  0  0  0  2  0  0  0  0  0  0
  185.3440  179.3850  144.9570 C   0  0  0  0  0  2  0  0  0  0  0  0
  184.0860  178.8700  145.6400 C   0  0  0  0  0  2  0  0  0  0  0  0
  184.4010  178.3780  147.0390 C   0  0  0  0  0  1  0  0  0  0  0  0
  190.9170  171.2880  143.0290 O   0  0  0  0  0  0  0  0  0  0  0  0
  190.3730  171.2570  141.7170 C   0  0  0  0  0  1  0  0  0  0  0  0
  193.2660  176.8250  144.4300 O   0  0  0  0  0  0  0  0  0  0  0  0
  194.5190  176.7260  145.0600 C   0  0  0  0  0  2  0  0  0  0  0  0
  194.3510  176.0820  146.4200 C   0  0  0  0  0  1  0  0  0  0  0  0
  1  4  1  0  0  0  0
  2 24  1  6  0  0  0
  4  2  1  0  0  0  0
  4  9  2  0  0  0  0
  6  5  1  0  0  0  0
  6  8  2  0  0  0  0
  7  5  1  0  0  0  0
  7  2  1  0  0  0  0
  8  3  1  0  0  0  0
  9  3  1  0  0  0  0
 11 10  1  0  0  0  0
 12 18  1  6  0  0  0
 12 10  1  0  0  0  0
 13 15  1  0  0  0  0
 13 17  1  0  0  0  0
 14  1  1  6  0  0  0
 14 11  1  0  0  0  0
 15 14  1  0  0  0  0
 16 13  1  0  0  0  0
 17 12  1  0  0  0  0
 18 19  1  0  0  0  0
 19 20  1  0  0  0  0
 20 21  1  0  0  0  0
 22  8  1  0  0  0  0
 23 22  1  0  0  0  0
 24 25  1  0  0  0  0
 25 26  1  0  0  0  0
M  END
>  <MODEL>
4

>  <REMARK>
 VINA RESULT:      -5.9      3.035      8.117
  Name = 
  7 active torsions:
  status: ('A' for Active; 'I' for Inactive)
    1  A    between atoms: N_1  and  C_11
    2  A    between atoms: O_2  and  C_7
    3  A    between atoms: O_2  and  C_13
    4  A    between atoms: O_5  and  C_23
    5  A    between atoms: C_6  and  C_12
    6  A    between atoms: C_6  and  C_22
    7  A    between atoms: C_8  and  C_12
                            x       y       z     vdW  Elec       q    Type
                         _______ _______ _______ _____ _____    ______ ____

>  <TORSDO>
F 7

$$$$
=
 OpenBabel11042417193D

 26 27  0  0  1  0  0  0  0  0999 V2000
  191.2130  176.7880  144.1730 N   0  0  0  0  0  2  0  0  0  0  0  0
  193.6140  175.9470  144.0790 C   0  0  1  0  0  3  0  0  0  0  0  0
  192.5160  173.3560  143.4790 C   0  0  0  0  0  2  0  0  0  0  0  0
  192.1260  175.6990  143.9930 C   0  0  0  0  0  0  0  0  0  0  0  0
  194.7150  174.7220  142.2590 N   0  0  0  0  0  2  0  0  0  0  0  0
  193.8560  173.9010  141.5110 N   0  0  0  0  0  0  0  0  0  0  0  0
  194.3080  176.0420  142.7190 C   0  0  0  0  0  2  0  0  0  0  0  0
  192.8360  173.2740  142.0210 C   0  0  0  0  0  0  0  0  0  0  0  0
  191.6660  174.5110  143.7330 N   0  0  0  0  0  0  0  0  0  0  0  0
  187.8040  176.7160  145.6640 C   0  0  0  0  0  2  0  0  0  0  0  0
  189.1220  177.3870  145.2860 C   0  0  0  0  0  2  0  0  0  0  0  0
  186.6680  176.9990  144.6780 C   0  0  2  0  0  3  0  0  0  0  0  0
  187.9080  177.6530  142.8030 N   0  0  0  0  0  0  0  0  0  0  0  0
  189.7670  176.6330  144.1260 C   0  0  1  0  0  3  0  0  0  0  0  0
  189.2560  177.0920  142.7560 C   0  0  0  0  0  2  0  0  0  0  0  0
  187.5190  177.9140  141.4290 C   0  0  0  0  0  1  0  0  0  0  0  0
  187.0310  176.6680  143.2920 N   0  0  0  0  0  2  0  0  0  0  0  0
  186.1180  178.4180  144.8290 C   0  0  0  0  0  2  0  0  0  0  0  0
  184.6420  178.4100  145.2040 C   0  0  0  0  0  2  0  0  0  0  0  0
  184.4540  178.2490  146.7040 C   0  0  0  0  0  2  0  0  0  0  0  0
  185.5150  179.0240  147.4630 C   0  0  0  0  0  1  0  0  0  0  0  0
  192.0020  172.5050  141.2070 O   0  0  0  0  0  0  0  0  0  0  0  0
  190.8700  173.0520  140.5450 C   0  0  0  0  0  1  0  0  0  0  0  0
  193.9780  176.9570  145.0010 O   0  0  0  0  0  0  0  0  0  0  0  0
  194.1930  176.3830  146.2660 C   0  0  0  0  0  2  0  0  0  0  0  0
  195.1650  175.2300  146.1390 C   0  0  0  0  0  1  0  0  0  0  0  0
  2 24  1  6  0  0  0
  3  9  1  0  0  0  0
  4  2  1  0  0  0  0
  4  1  1  0  0  0  0
  5  7  1  0  0  0  0
  6  8  2  0  0  0  0
  6  5  1  0  0  0  0
  7  2  1  0  0  0  0
  8  3  1  0  0  0  0
  9  4  2  0  0  0  0
 11 10  1  0  0  0  0
 12 18  1  6  0  0  0
 12 10  1  0  0  0  0
 13 17  1  0  0  0  0
 14  1  1  6  0  0  0
 14 11  1  0  0  0  0
 15 13  1  0  0  0  0
 15 14  1  0  0  0  0
 16 13  1  0  0  0  0
 17 12  1  0  0  0  0
 18 19  1  0  0  0  0
 19 20  1  0  0  0  0
 20 21  1  0  0  0  0
 22  8  1  0  0  0  0
 23 22  1  0  0  0  0
 24 25  1  0  0  0  0
 26 25  1  0  0  0  0
M  END
>  <MODEL>
5

>  <REMARK>
 VINA RESULT:      -5.8      3.070      8.221
  Name = 
  7 active torsions:
  status: ('A' for Active; 'I' for Inactive)
    1  A    between atoms: N_1  and  C_11
    2  A    between atoms: O_2  and  C_7
    3  A    between atoms: O_2  and  C_13
    4  A    between atoms: O_5  and  C_23
    5  A    between atoms: C_6  and  C_12
    6  A    between atoms: C_6  and  C_22
    7  A    between atoms: C_8  and  C_12
                            x       y       z     vdW  Elec       q    Type
                         _______ _______ _______ _____ _____    ______ ____

>  <TORSDO>
F 7

$$$$
=
 OpenBabel11042417193D

 26 27  0  0  1  0  0  0  0  0999 V2000
  189.5290  176.4730  145.7460 N   0  0  0  0  0  2  0  0  0  0  0  0
  187.2460  177.5880  145.9000 C   0  0  1  0  0  3  0  0  0  0  0  0
  187.5550  178.2440  143.1150 C   0  0  0  0  0  2  0  0  0  0  0  0
  188.4810  177.2150  145.1120 C   0  0  0  0  0  0  0  0  0  0  0  0
  185.2750  177.1950  144.4900 N   0  0  0  0  0  2  0  0  0  0  0  0
  185.5730  176.8180  143.1700 N   0  0  0  0  0  0  0  0  0  0  0  0
  186.0390  176.6910  145.6230 C   0  0  0  0  0  2  0  0  0  0  0  0
  186.6060  177.2580  142.5130 C   0  0  0  0  0  0  0  0  0  0  0  0
  188.5910  177.5410  143.8580 N   0  0  0  0  0  0  0  0  0  0  0  0
  193.1810  176.6890  145.0610 C   0  0  0  0  0  2  0  0  0  0  0  0
  191.9640  176.4220  145.9440 C   0  0  0  0  0  2  0  0  0  0  0  0
  193.7980  175.4200  144.4670 C   0  0  2  0  0  3  0  0  0  0  0  0
  191.9890  173.9490  144.6810 N   0  0  0  0  0  0  0  0  0  0  0  0
  190.7590  176.0910  145.0680 C   0  0  1  0  0  3  0  0  0  0  0  0
  190.6840  174.6070  144.6890 C   0  0  0  0  0  2  0  0  0  0  0  0
  191.7720  172.6040  144.1810 C   0  0  0  0  0  1  0  0  0  0  0  0
  192.8130  174.6010  143.7460 N   0  0  0  0  0  2  0  0  0  0  0  0
  194.5870  174.6260  145.5090 C   0  0  0  0  0  2  0  0  0  0  0  0
  196.0860  174.6990  145.2510 C   0  0  0  0  0  2  0  0  0  0  0  0
  196.8480  173.7250  146.1350 C   0  0  0  0  0  2  0  0  0  0  0  0
  197.0250  172.3920  145.4330 C   0  0  0  0  0  1  0  0  0  0  0  0
  186.8600  176.8100  141.2150 O   0  0  0  0  0  0  0  0  0  0  0  0
  186.4310  177.5250  140.0650 C   0  0  0  0  0  1  0  0  0  0  0  0
  187.4910  177.8450  147.2700 O   0  0  0  0  0  0  0  0  0  0  0  0
  186.2860  178.1920  147.9050 C   0  0  0  0  0  2  0  0  0  0  0  0
  185.9590  179.6410  147.6100 C   0  0  0  0  0  1  0  0  0  0  0  0
  2 24  1  1  0  0  0
  3  9  1  0  0  0  0
  4  1  1  0  0  0  0
  4  2  1  0  0  0  0
  5  7  1  0  0  0  0
  6  5  1  0  0  0  0
  7  2  1  0  0  0  0
  8  3  1  0  0  0  0
  8  6  2  0  0  0  0
  9  4  2  0  0  0  0
 10 11  1  0  0  0  0
 12 10  1  0  0  0  0
 12 18  1  1  0  0  0
 13 15  1  0  0  0  0
 14  1  1  1  0  0  0
 14 11  1  0  0  0  0
 15 14  1  0  0  0  0
 16 13  1  0  0  0  0
 17 12  1  0  0  0  0
 17 13  1  0  0  0  0
 19 18  1  0  0  0  0
 19 20  1  0  0  0  0
 21 20  1  0  0  0  0
 22  8  1  0  0  0  0
 23 22  1  0  0  0  0
 24 25  1  0  0  0  0
 26 25  1  0  0  0  0
M  END
>  <MODEL>
6

>  <REMARK>
 VINA RESULT:      -5.7      1.690      4.267
  Name = 
  7 active torsions:
  status: ('A' for Active; 'I' for Inactive)
    1  A    between atoms: N_1  and  C_11
    2  A    between atoms: O_2  and  C_7
    3  A    between atoms: O_2  and  C_13
    4  A    between atoms: O_5  and  C_23
    5  A    between atoms: C_6  and  C_12
    6  A    between atoms: C_6  and  C_22
    7  A    between atoms: C_8  and  C_12
                            x       y       z     vdW  Elec       q    Type
                         _______ _______ _______ _____ _____    ______ ____

>  <TORSDO>
F 7

$$$$
=
 OpenBabel11042417193D

 26 27  0  0  1  0  0  0  0  0999 V2000
  193.9310  175.3830  144.3010 N   0  0  0  0  0  2  0  0  0  0  0  0
  196.4320  175.3990  143.8300 C   0  0  1  0  0  3  0  0  0  0  0  0
  196.7270  173.7840  146.1940 C   0  0  0  0  0  2  0  0  0  0  0  0
  195.2550  174.9940  144.6860 C   0  0  0  0  0  0  0  0  0  0  0  0
  197.9410  173.4740  143.6210 N   0  0  0  0  0  2  0  0  0  0  0  0
  197.5740  172.3630  144.3970 N   0  0  0  0  0  0  0  0  0  0  0  0
  196.9530  174.2830  142.9220 C   0  0  0  0  0  2  0  0  0  0  0  0
  197.0060  172.4570  145.5640 C   0  0  0  0  0  0  0  0  0  0  0  0
  195.4280  174.2750  145.7550 N   0  0  0  0  0  0  0  0  0  0  0  0
  191.6420  175.7070  147.2180 C   0  0  0  0  0  2  0  0  0  0  0  0
  192.3670  176.2260  145.9790 C   0  0  0  0  0  2  0  0  0  0  0  0
  190.1970  175.2800  146.9490 C   0  0  2  0  0  3  0  0  0  0  0  0
  190.2870  174.9780  144.6290 N   0  0  0  0  0  0  0  0  0  0  0  0
  192.7450  175.0550  145.0780 C   0  0  1  0  0  3  0  0  0  0  0  0
  191.6170  174.6460  144.1230 C   0  0  0  0  0  2  0  0  0  0  0  0
  189.3340  174.4170  143.6890 C   0  0  0  0  0  1  0  0  0  0  0  0
  190.0930  174.3080  145.8510 N   0  0  0  0  0  2  0  0  0  0  0  0
  189.2680  176.4830  146.7720 C   0  0  0  0  0  2  0  0  0  0  0  0
  187.8050  176.0870  146.9200 C   0  0  0  0  0  2  0  0  0  0  0  0
  186.8860  177.2790  146.7040 C   0  0  0  0  0  2  0  0  0  0  0  0
  185.4980  176.8170  146.3030 C   0  0  0  0  0  1  0  0  0  0  0  0
  196.6330  171.3070  146.2630 O   0  0  0  0  0  0  0  0  0  0  0  0
  196.7030  170.0110  145.6860 C   0  0  0  0  0  1  0  0  0  0  0  0
  196.2810  176.6550  143.1960 O   0  0  0  0  0  0  0  0  0  0  0  0
  196.4540  176.5060  141.8100 C   0  0  0  0  0  2  0  0  0  0  0  0
  195.1220  176.6840  141.1120 C   0  0  0  0  0  1  0  0  0  0  0  0
  1  4  1  0  0  0  0
  2 24  1  6  0  0  0
  2  4  1  0  0  0  0
  4  9  2  0  0  0  0
  5  6  1  0  0  0  0
  6  8  2  0  0  0  0
  7  5  1  0  0  0  0
  7  2  1  0  0  0  0
  8  3  1  0  0  0  0
  8 22  1  0  0  0  0
  9  3  1  0  0  0  0
 11 10  1  0  0  0  0
 12 18  1  6  0  0  0
 12 10  1  0  0  0  0
 13 17  1  0  0  0  0
 14  1  1  6  0  0  0
 14 11  1  0  0  0  0
 15 13  1  0  0  0  0
 15 14  1  0  0  0  0
 16 13  1  0  0  0  0
 17 12  1  0  0  0  0
 18 19  1  0  0  0  0
 20 19  1  0  0  0  0
 21 20  1  0  0  0  0
 23 22  1  0  0  0  0
 25 24  1  0  0  0  0
 26 25  1  0  0  0  0
M  END
>  <MODEL>
7

>  <REMARK>
 VINA RESULT:      -5.6      4.515      9.271
  Name = 
  7 active torsions:
  status: ('A' for Active; 'I' for Inactive)
    1  A    between atoms: N_1  and  C_11
    2  A    between atoms: O_2  and  C_7
    3  A    between atoms: O_2  and  C_13
    4  A    between atoms: O_5  and  C_23
    5  A    between atoms: C_6  and  C_12
    6  A    between atoms: C_6  and  C_22
    7  A    between atoms: C_8  and  C_12
                            x       y       z     vdW  Elec       q    Type
                         _______ _______ _______ _____ _____    ______ ____

>  <TORSDO>
F 7

$$$$
=
 OpenBabel11042417193D

 26 27  0  0  1  0  0  0  0  0999 V2000
  190.6210  174.6750  143.0620 N   0  0  0  0  0  2  0  0  0  0  0  0
  192.7060  173.5350  142.1520 C   0  0  1  0  0  3  0  0  0  0  0  0
  194.0590  176.0440  142.5500 C   0  0  0  0  0  2  0  0  0  0  0  0
  192.0020  174.7580  142.6910 C   0  0  0  0  0  0  0  0  0  0  0  0
  194.9260  173.3930  143.1930 N   0  0  0  0  0  2  0  0  0  0  0  0
  195.2550  174.4890  144.0060 N   0  0  0  0  0  0  0  0  0  0  0  0
  193.5870  172.8220  143.1800 C   0  0  0  0  0  2  0  0  0  0  0  0
  194.8700  175.7080  143.7600 C   0  0  0  0  0  0  0  0  0  0  0  0
  192.6420  175.8790  142.8450 N   0  0  0  0  0  0  0  0  0  0  0  0
  188.2170  177.5000  142.7580 C   0  0  0  0  0  2  0  0  0  0  0  0
  188.6140  176.0270  142.7160 C   0  0  0  0  0  2  0  0  0  0  0  0
  187.5500  177.9180  144.0710 C   0  0  2  0  0  3  0  0  0  0  0  0
  188.2790  176.1850  145.4680 N   0  0  0  0  0  0  0  0  0  0  0  0
  189.8610  175.8080  143.5690 C   0  0  1  0  0  3  0  0  0  0  0  0
  189.5390  175.5750  145.0500 C   0  0  0  0  0  2  0  0  0  0  0  0
  188.1810  175.9940  146.9030 C   0  0  0  0  0  1  0  0  0  0  0  0
  188.3610  177.5730  145.2480 N   0  0  0  0  0  2  0  0  0  0  0  0
  186.1100  177.4100  144.1680 C   0  0  0  0  0  2  0  0  0  0  0  0
  185.1210  178.5580  144.3180 C   0  0  0  0  0  2  0  0  0  0  0  0
  184.6770  178.7210  145.7630 C   0  0  0  0  0  2  0  0  0  0  0  0
  184.8080  177.4100  146.5130 C   0  0  0  0  0  1  0  0  0  0  0  0
  195.2040  176.7440  144.6360 O   0  0  0  0  0  0  0  0  0  0  0  0
  194.4750  176.9960  145.8280 C   0  0  0  0  0  1  0  0  0  0  0  0
  191.8770  172.6800  141.3880 O   0  0  0  0  0  0  0  0  0  0  0  0
  192.0500  172.9560  140.0210 C   0  0  0  0  0  2  0  0  0  0  0  0
  190.7370  173.4240  139.4310 C   0  0  0  0  0  1  0  0  0  0  0  0
  2 24  1  1  0  0  0
  2  4  1  0  0  0  0
  2  7  1  0  0  0  0
  3  9  1  0  0  0  0
  3  8  1  0  0  0  0
  4  9  2  0  0  0  0
  4  1  1  0  0  0  0
  5  6  1  0  0  0  0
  7  5  1  0  0  0  0
  8  6  2  0  0  0  0
  8 22  1  0  0  0  0
 10 12  1  0  0  0  0
 11 10  1  0  0  0  0
 11 14  1  0  0  0  0
 12 18  1  1  0  0  0
 12 17  1  0  0  0  0
 13 16  1  0  0  0  0
 14  1  1  6  0  0  0
 14 15  1  0  0  0  0
 15 13  1  0  0  0  0
 17 13  1  0  0  0  0
 18 19  1  0  0  0  0
 19 20  1  0  0  0  0
 20 21  1  0  0  0  0
 22 23  1  0  0  0  0
 25 24  1  0  0  0  0
 26 25  1  0  0  0  0
M  END
>  <MODEL>
8

>  <REMARK>
 VINA RESULT:      -5.3      3.486      7.854
  Name = 
  7 active torsions:
  status: ('A' for Active; 'I' for Inactive)
    1  A    between atoms: N_1  and  C_11
    2  A    between atoms: O_2  and  C_7
    3  A    between atoms: O_2  and  C_13
    4  A    between atoms: O_5  and  C_23
    5  A    between atoms: C_6  and  C_12
    6  A    between atoms: C_6  and  C_22
    7  A    between atoms: C_8  and  C_12
                            x       y       z     vdW  Elec       q    Type
                         _______ _______ _______ _____ _____    ______ ____

>  <TORSDO>
F 7

$$$$
=
 OpenBabel11042417193D

 26 27  0  0  1  0  0  0  0  0999 V2000
  190.8880  175.5080  144.0310 N   0  0  0  0  0  2  0  0  0  0  0  0
  192.6740  174.2700  142.7060 C   0  0  1  0  0  3  0  0  0  0  0  0
  190.6690  172.2770  142.1690 C   0  0  0  0  0  2  0  0  0  0  0  0
  191.2680  174.3690  143.2510 C   0  0  0  0  0  0  0  0  0  0  0  0
  192.5550  173.4790  140.3840 N   0  0  0  0  0  2  0  0  0  0  0  0
  191.2650  173.1260  139.9580 N   0  0  0  0  0  0  0  0  0  0  0  0
  192.7940  174.6420  141.2270 C   0  0  0  0  0  2  0  0  0  0  0  0
  190.3710  172.5920  140.7390 C   0  0  0  0  0  0  0  0  0  0  0  0
  190.3930  173.4410  142.9990 N   0  0  0  0  0  0  0  0  0  0  0  0
  188.4640  175.6700  146.8500 C   0  0  0  0  0  2  0  0  0  0  0  0
  189.6800  176.1430  146.0580 C   0  0  0  0  0  2  0  0  0  0  0  0
  187.1920  176.4700  146.5560 C   0  0  2  0  0  3  0  0  0  0  0  0
  187.7700  177.4100  144.4910 N   0  0  0  0  0  0  0  0  0  0  0  0
  189.5630  175.6730  144.6110 C   0  0  1  0  0  3  0  0  0  0  0  0
  188.7470  176.6290  143.7340 C   0  0  0  0  0  2  0  0  0  0  0  0
  186.9950  178.1590  143.5190 C   0  0  0  0  0  1  0  0  0  0  0  0
  186.8790  176.5210  145.1200 N   0  0  0  0  0  2  0  0  0  0  0  0
  187.2210  177.8520  147.2110 C   0  0  0  0  0  2  0  0  0  0  0  0
  185.8290  178.3000  147.6360 C   0  0  0  0  0  2  0  0  0  0  0  0
  185.2380  179.2850  146.6410 C   0  0  0  0  0  2  0  0  0  0  0  0
  184.0680  178.6620  145.9020 C   0  0  0  0  0  1  0  0  0  0  0  0
  189.0940  172.3020  140.2540 O   0  0  0  0  0  0  0  0  0  0  0  0
  188.6260  172.7880  139.0040 C   0  0  0  0  0  1  0  0  0  0  0  0
  193.6600  174.8450  143.5430 O   0  0  0  0  0  0  0  0  0  0  0  0
  194.8910  174.8740  142.8660 C   0  0  0  0  0  2  0  0  0  0  0  0
  195.6970  176.0660  143.3360 C   0  0  0  0  0  1  0  0  0  0  0  0
  2  4  1  0  0  0  0
  2 24  1  1  0  0  0
  3  9  1  0  0  0  0
  4  1  1  0  0  0  0
  5  7  1  0  0  0  0
  6  5  1  0  0  0  0
  6  8  2  0  0  0  0
  7  2  1  0  0  0  0
  8  3  1  0  0  0  0
  9  4  2  0  0  0  0
 11 10  1  0  0  0  0
 12 10  1  0  0  0  0
 12 18  1  6  0  0  0
 13 17  1  0  0  0  0
 14  1  1  6  0  0  0
 14 11  1  0  0  0  0
 15 13  1  0  0  0  0
 15 14  1  0  0  0  0
 16 13  1  0  0  0  0
 17 12  1  0  0  0  0
 18 19  1  0  0  0  0
 20 19  1  0  0  0  0
 21 20  1  0  0  0  0
 22  8  1  0  0  0  0
 23 22  1  0  0  0  0
 25 26  1  0  0  0  0
 25 24  1  0  0  0  0
M  END
>  <MODEL>
9

>  <REMARK>
 VINA RESULT:      -5.3      3.370      7.867
  Name = 
  7 active torsions:
  status: ('A' for Active; 'I' for Inactive)
    1  A    between atoms: N_1  and  C_11
    2  A    between atoms: O_2  and  C_7
    3  A    between atoms: O_2  and  C_13
    4  A    between atoms: O_5  and  C_23
    5  A    between atoms: C_6  and  C_12
    6  A    between atoms: C_6  and  C_22
    7  A    between atoms: C_8  and  C_12
                            x       y       z     vdW  Elec       q    Type
                         _______ _______ _______ _____ _____    ______ ____

>  <TORSDO>
F 7

$$$$
