=
 OpenBabel11042414513D

 32 36  0  0  1  0  0  0  0  0999 V2000
  187.9390  177.8910  143.7270 C   0  0  0  0  0  0  0  0  0  0  0  0
  189.1360  177.8020  144.2440 C   0  0  0  0  0  3  0  0  0  0  0  0
  186.7510  177.9920  143.1980 C   0  0  0  0  0  0  0  0  0  0  0  0
  188.5000  176.3380  146.0860 C   0  0  0  0  0  3  0  0  0  0  0  0
  191.1020  175.6240  146.6970 C   0  0  0  0  0  3  0  0  0  0  0  0
  189.5400  176.8730  145.3210 C   0  0  0  0  0  0  0  0  0  0  0  0
  188.7790  175.4640  147.1370 C   0  0  0  0  0  3  0  0  0  0  0  0
  190.8740  176.5020  145.6310 C   0  0  0  0  0  0  0  0  0  0  0  0
  190.0640  175.1290  147.4210 N   0  0  0  0  0  0  0  0  0  0  0  0
  192.0670  176.9750  144.8580 C   0  0  0  0  0  2  0  0  0  0  0  0
  192.7570  175.8230  144.1370 C   0  0  0  0  0  3  0  0  0  0  0  0
  194.2600  176.0250  144.1230 C   0  0  0  0  0  1  0  0  0  0  0  0
  192.2590  175.7620  142.7080 C   0  0  0  0  0  1  0  0  0  0  0  0
  185.9270  179.2010  143.4840 C   0  0  0  0  0  2  0  0  0  0  0  0
  184.5460  178.7890  143.9560 C   0  0  0  0  0  2  0  0  0  0  0  0
  184.3730  179.1840  145.3420 N   0  0  0  0  0  2  0  0  0  0  0  0
  184.9000  177.0770  146.5080 C   0  0  0  0  0  2  0  0  0  0  0  0
  185.3690  178.4600  146.1120 C   0  0  2  0  0  0  0  0  0  0  0  0
  184.7600  178.2210  147.4870 C   0  0  2  0  0  3  0  0  0  0  0  0
  185.8600  179.2430  147.3100 C   0  0  0  0  0  2  0  0  0  0  0  0
  186.1130  176.7750  142.6130 C   0  0  0  0  0  2  0  0  0  0  0  0
  189.5640  173.5210  141.4150 C   0  0  0  0  0  0  0  0  0  0  0  0
  187.8900  175.2480  141.6670 C   0  0  0  0  0  0  0  0  0  0  0  0
  189.1710  173.7600  142.7190 C   0  0  0  0  0  0  0  0  0  0  0  0
  191.0490  171.8350  142.1450 N   0  0  0  0  0  0  0  0  0  0  0  0
  191.2410  171.3080  144.4340 F   0  0  0  0  0  0  0  0  0  0  0  0
  189.7240  173.0250  143.7650 C   0  0  0  0  0  3  0  0  0  0  0  0
  190.5110  172.5500  141.1150 C   0  0  0  0  0  3  0  0  0  0  0  0
  188.2340  174.7280  142.8710 N   0  0  0  0  0  0  0  0  0  0  0  0
  186.9050  176.2690  141.5010 N   0  0  0  0  0  2  0  0  0  0  0  0
  188.7280  174.5390  140.3770 S   0  0  0  0  0  0  0  0  0  0  0  0
  190.6810  172.0480  143.4470 C   0  0  0  0  0  0  0  0  0  0  0  0
  1  2  2  0  0  0  0
  2  6  1  0  0  0  0
  3 14  1  0  0  0  0
  3  1  2  0  0  0  0
  4  7  1  0  0  0  0
  5  9  1  0  0  0  0
  6  8  1  0  0  0  0
  6  4  2  0  0  0  0
  7  9  2  0  0  0  0
  8  5  2  0  0  0  0
 10  8  1  0  0  0  0
 11 10  1  0  0  0  0
 12 11  1  0  0  0  0
 13 11  1  0  0  0  0
 14 15  1  0  0  0  0
 15 16  1  0  0  0  0
 18 16  1  6  0  0  0
 18 17  1  0  0  0  0
 18 20  1  0  0  0  0
 18 19  1  0  0  0  0
 19 17  1  1  0  0  0
 20 19  1  0  0  0  0
 21  3  1  0  0  0  0
 22 24  1  0  0  0  0
 23 29  2  0  0  0  0
 24 29  1  0  0  0  0
 24 27  2  0  0  0  0
 25 32  2  0  0  0  0
 28 22  2  0  0  0  0
 28 25  1  0  0  0  0
 30 23  1  0  0  0  0
 30 21  1  0  0  0  0
 31 22  1  0  0  0  0
 31 23  1  0  0  0  0
 32 27  1  0  0  0  0
 32 26  1  0  0  0  0
M  END
>  <MODEL>
1

>  <REMARK>
 VINA RESULT:      -7.1      0.000      0.000
  Name = 
  9 active torsions:
  status: ('A' for Active; 'I' for Inactive)
    1  A    between atoms: C_3  and  N_25
    2  A    between atoms: C_9  and  C_20
    3  A    between atoms: C_10  and  C_13
    4  A    between atoms: C_10  and  C_23
    5  A    between atoms: C_21  and  C_24
    6  A    between atoms: C_21  and  C_27
    7  A    between atoms: C_24  and  C_31
    8  A    between atoms: N_25  and  C_27
    9  A    between atoms: N_26  and  C_31
                            x       y       z     vdW  Elec       q    Type
                         _______ _______ _______ _____ _____    ______ ____

>  <TORSDO>
F 9

$$$$
=
 OpenBabel11042414513D

 32 36  0  0  1  0  0  0  0  0999 V2000
  188.8170  177.1750  143.2880 C   0  0  0  0  0  0  0  0  0  0  0  0
  189.7160  177.8690  143.9340 C   0  0  0  0  0  3  0  0  0  0  0  0
  187.9110  176.4980  142.6370 C   0  0  0  0  0  0  0  0  0  0  0  0
  192.0670  177.2280  143.8960 C   0  0  0  0  0  3  0  0  0  0  0  0
  192.0850  176.3330  146.5130 C   0  0  0  0  0  3  0  0  0  0  0  0
  190.8880  177.3110  144.6420 C   0  0  0  0  0  0  0  0  0  0  0  0
  193.2250  176.7000  144.4680 C   0  0  0  0  0  3  0  0  0  0  0  0
  190.8990  176.8570  145.9860 C   0  0  0  0  0  0  0  0  0  0  0  0
  193.2100  176.2650  145.7550 N   0  0  0  0  0  0  0  0  0  0  0  0
  189.7120  176.9340  146.8970 C   0  0  0  0  0  2  0  0  0  0  0  0
  188.7050  175.8320  146.5940 C   0  0  0  0  0  3  0  0  0  0  0  0
  187.2940  176.2950  146.9060 C   0  0  0  0  0  1  0  0  0  0  0  0
  189.0210  174.6220  147.4490 C   0  0  0  0  0  1  0  0  0  0  0  0
  186.5370  176.3880  143.2040 C   0  0  0  0  0  2  0  0  0  0  0  0
  185.5730  177.2360  142.3980 C   0  0  0  0  0  2  0  0  0  0  0  0
  184.5580  177.7830  143.2800 N   0  0  0  0  0  2  0  0  0  0  0  0
  184.4660  178.0120  145.7320 C   0  0  0  0  0  2  0  0  0  0  0  0
  185.2470  178.2680  144.4630 C   0  0  2  0  0  0  0  0  0  0  0  0
  184.3690  179.3600  145.0560 C   0  0  2  0  0  3  0  0  0  0  0  0
  185.6530  179.7210  144.3460 C   0  0  0  0  0  2  0  0  0  0  0  0
  188.3420  175.5790  141.5420 C   0  0  0  0  0  2  0  0  0  0  0  0
  191.1460  172.0330  143.4140 C   0  0  0  0  0  0  0  0  0  0  0  0
  189.5010  173.5340  142.4690 C   0  0  0  0  0  0  0  0  0  0  0  0
  191.6500  173.2470  142.9820 C   0  0  0  0  0  0  0  0  0  0  0  0
  193.3000  171.3590  144.1130 N   0  0  0  0  0  0  0  0  0  0  0  0
  195.1530  172.7880  143.8470 F   0  0  0  0  0  0  0  0  0  0  0  0
  193.0070  173.5310  143.1150 C   0  0  0  0  0  3  0  0  0  0  0  0
  191.9710  171.0740  143.9870 C   0  0  0  0  0  3  0  0  0  0  0  0
  190.7360  174.0950  142.4490 N   0  0  0  0  0  0  0  0  0  0  0  0
  188.3270  174.1970  141.9990 N   0  0  0  0  0  2  0  0  0  0  0  0
  189.4920  171.9780  143.1380 S   0  0  0  0  0  0  0  0  0  0  0  0
  193.8290  172.5510  143.6950 C   0  0  0  0  0  0  0  0  0  0  0  0
  1  2  2  0  0  0  0
  2  6  1  0  0  0  0
  3 14  1  0  0  0  0
  3  1  2  0  0  0  0
  4  7  2  0  0  0  0
  4  6  1  0  0  0  0
  6  8  2  0  0  0  0
  7  9  1  0  0  0  0
  8  5  1  0  0  0  0
  8 10  1  0  0  0  0
  9  5  2  0  0  0  0
 11 10  1  0  0  0  0
 11 12  1  0  0  0  0
 11 13  1  0  0  0  0
 15 14  1  0  0  0  0
 15 16  1  0  0  0  0
 18 16  1  6  0  0  0
 18 19  1  0  0  0  0
 18 17  1  0  0  0  0
 19 20  1  1  0  0  0
 19 17  1  0  0  0  0
 20 18  1  0  0  0  0
 21 30  1  0  0  0  0
 21  3  1  0  0  0  0
 22 28  1  0  0  0  0
 23 31  1  0  0  0  0
 24 27  1  0  0  0  0
 24 22  2  0  0  0  0
 27 32  2  0  0  0  0
 28 25  2  0  0  0  0
 29 23  2  0  0  0  0
 29 24  1  0  0  0  0
 30 23  1  0  0  0  0
 31 22  1  0  0  0  0
 32 26  1  0  0  0  0
 32 25  1  0  0  0  0
M  END
>  <MODEL>
2

>  <REMARK>
 VINA RESULT:      -7.1      1.873      3.322
  Name = 
  9 active torsions:
  status: ('A' for Active; 'I' for Inactive)
    1  A    between atoms: C_3  and  N_25
    2  A    between atoms: C_9  and  C_20
    3  A    between atoms: C_10  and  C_13
    4  A    between atoms: C_10  and  C_23
    5  A    between atoms: C_21  and  C_24
    6  A    between atoms: C_21  and  C_27
    7  A    between atoms: C_24  and  C_31
    8  A    between atoms: N_25  and  C_27
    9  A    between atoms: N_26  and  C_31
                            x       y       z     vdW  Elec       q    Type
                         _______ _______ _______ _____ _____    ______ ____

>  <TORSDO>
F 9

$$$$
=
 OpenBabel11042414513D

 32 36  0  0  1  0  0  0  0  0999 V2000
  188.2290  177.8360  143.5710 C   0  0  0  0  0  0  0  0  0  0  0  0
  189.3000  177.7780  144.3180 C   0  0  0  0  0  3  0  0  0  0  0  0
  187.1680  177.9070  142.8150 C   0  0  0  0  0  0  0  0  0  0  0  0
  188.4250  176.2700  146.0210 C   0  0  0  0  0  3  0  0  0  0  0  0
  190.9210  175.3800  146.8170 C   0  0  0  0  0  3  0  0  0  0  0  0
  189.5570  176.7790  145.3770 C   0  0  0  0  0  0  0  0  0  0  0  0
  188.5630  175.3340  147.0460 C   0  0  0  0  0  3  0  0  0  0  0  0
  190.8360  176.3180  145.7810 C   0  0  0  0  0  0  0  0  0  0  0  0
  189.7980  174.9120  147.4220 N   0  0  0  0  0  0  0  0  0  0  0  0
  192.1170  176.7570  145.1390 C   0  0  0  0  0  2  0  0  0  0  0  0
  193.3100  175.9900  145.6940 C   0  0  0  0  0  3  0  0  0  0  0  0
  194.2100  176.9100  146.4970 C   0  0  0  0  0  1  0  0  0  0  0  0
  194.1060  175.4100  144.5440 C   0  0  0  0  0  1  0  0  0  0  0  0
  186.2020  179.0240  143.0190 C   0  0  0  0  0  2  0  0  0  0  0  0
  184.9830  178.5250  143.7700 C   0  0  0  0  0  2  0  0  0  0  0  0
  184.8730  179.2320  145.0330 N   0  0  0  0  0  2  0  0  0  0  0  0
  184.8480  177.1540  146.3600 C   0  0  0  0  0  2  0  0  0  0  0  0
  185.5780  178.4360  146.0220 C   0  0  2  0  0  0  0  0  0  0  0  0
  184.6750  178.3670  147.2450 C   0  0  2  0  0  3  0  0  0  0  0  0
  185.9200  179.2230  147.2680 C   0  0  0  0  0  2  0  0  0  0  0  0
  186.7690  176.7120  142.0130 C   0  0  0  0  0  2  0  0  0  0  0  0
  189.5190  172.8200  140.9050 C   0  0  0  0  0  0  0  0  0  0  0  0
  188.1180  174.5880  141.7770 C   0  0  0  0  0  0  0  0  0  0  0  0
  189.0650  173.7190  139.9570 C   0  0  0  0  0  0  0  0  0  0  0  0
  190.6900  171.6190  139.2410 N   0  0  0  0  0  0  0  0  0  0  0  0
  190.6350  172.3160  136.9910 F   0  0  0  0  0  0  0  0  0  0  0  0
  189.4260  173.5730  138.6200 C   0  0  0  0  0  3  0  0  0  0  0  0
  190.3400  171.7570  140.5530 C   0  0  0  0  0  3  0  0  0  0  0  0
  188.2770  174.7130  140.4350 N   0  0  0  0  0  0  0  0  0  0  0  0
  187.3610  175.5040  142.5690 N   0  0  0  0  0  2  0  0  0  0  0  0
  188.9360  173.2510  142.4180 S   0  0  0  0  0  0  0  0  0  0  0  0
  190.2560  172.4920  138.2790 C   0  0  0  0  0  0  0  0  0  0  0  0
  1  2  2  0  0  0  0
  2  6  1  0  0  0  0
  3 14  1  0  0  0  0
  3  1  2  0  0  0  0
  4  7  1  0  0  0  0
  5  9  1  0  0  0  0
  6  8  1  0  0  0  0
  6  4  2  0  0  0  0
  7  9  2  0  0  0  0
  8  5  2  0  0  0  0
 10 11  1  0  0  0  0
 10  8  1  0  0  0  0
 11 12  1  0  0  0  0
 13 11  1  0  0  0  0
 14 15  1  0  0  0  0
 15 16  1  0  0  0  0
 18 16  1  6  0  0  0
 18 17  1  0  0  0  0
 18 19  1  0  0  0  0
 18 20  1  0  0  0  0
 19 17  1  1  0  0  0
 19 20  1  0  0  0  0
 21 30  1  0  0  0  0
 21  3  1  0  0  0  0
 22 31  1  0  0  0  0
 23 31  1  0  0  0  0
 23 30  1  0  0  0  0
 24 29  1  0  0  0  0
 24 22  2  0  0  0  0
 25 28  2  0  0  0  0
 26 32  1  0  0  0  0
 27 24  1  0  0  0  0
 28 22  1  0  0  0  0
 29 23  2  0  0  0  0
 32 27  2  0  0  0  0
 32 25  1  0  0  0  0
M  END
>  <MODEL>
3

>  <REMARK>
 VINA RESULT:      -7.0      1.866      2.250
  Name = 
  9 active torsions:
  status: ('A' for Active; 'I' for Inactive)
    1  A    between atoms: C_3  and  N_25
    2  A    between atoms: C_9  and  C_20
    3  A    between atoms: C_10  and  C_13
    4  A    between atoms: C_10  and  C_23
    5  A    between atoms: C_21  and  C_24
    6  A    between atoms: C_21  and  C_27
    7  A    between atoms: C_24  and  C_31
    8  A    between atoms: N_25  and  C_27
    9  A    between atoms: N_26  and  C_31
                            x       y       z     vdW  Elec       q    Type
                         _______ _______ _______ _____ _____    ______ ____

>  <TORSDO>
F 9

$$$$
=
 OpenBabel11042414513D

 32 36  0  0  1  0  0  0  0  0999 V2000
  189.3410  174.9420  145.8920 C   0  0  0  0  0  0  0  0  0  0  0  0
  189.6840  173.8550  145.2540 C   0  0  0  0  0  3  0  0  0  0  0  0
  188.9980  176.0180  146.5450 C   0  0  0  0  0  0  0  0  0  0  0  0
  191.3130  173.0870  143.6120 C   0  0  0  0  0  3  0  0  0  0  0  0
  190.0090  174.2440  141.4640 C   0  0  0  0  0  3  0  0  0  0  0  0
  190.1260  173.7880  143.8450 C   0  0  0  0  0  0  0  0  0  0  0  0
  191.8230  172.9800  142.3180 C   0  0  0  0  0  3  0  0  0  0  0  0
  189.4550  174.3770  142.7420 C   0  0  0  0  0  0  0  0  0  0  0  0
  191.1670  173.5580  141.2780 N   0  0  0  0  0  0  0  0  0  0  0  0
  188.1560  175.1150  142.8600 C   0  0  0  0  0  2  0  0  0  0  0  0
  188.2200  176.4690  142.1650 C   0  0  0  0  0  3  0  0  0  0  0  0
  188.9380  177.4830  143.0360 C   0  0  0  0  0  1  0  0  0  0  0  0
  186.8110  176.9600  141.9050 C   0  0  0  0  0  1  0  0  0  0  0  0
  187.5660  176.2300  146.9000 C   0  0  0  0  0  2  0  0  0  0  0  0
  187.1630  177.6610  146.6060 C   0  0  0  0  0  2  0  0  0  0  0  0
  186.2990  177.6890  145.4400 N   0  0  0  0  0  2  0  0  0  0  0  0
  184.1010  178.6630  145.9810 C   0  0  0  0  0  2  0  0  0  0  0  0
  185.5210  178.9120  145.5230 C   0  0  2  0  0  0  0  0  0  0  0  0
  184.3990  178.7800  144.5030 C   0  0  2  0  0  3  0  0  0  0  0  0
  185.5570  179.7140  144.2410 C   0  0  0  0  0  2  0  0  0  0  0  0
  189.9620  177.1570  146.6220 C   0  0  0  0  0  2  0  0  0  0  0  0
  194.2950  176.0110  144.6600 C   0  0  0  0  0  0  0  0  0  0  0  0
  192.2900  176.4500  145.9390 C   0  0  0  0  0  0  0  0  0  0  0  0
  193.1840  176.3340  143.9030 C   0  0  0  0  0  0  0  0  0  0  0  0
  195.6010  175.8040  142.7020 N   0  0  0  0  0  0  0  0  0  0  0  0
  194.6520  176.1730  140.5780 F   0  0  0  0  0  0  0  0  0  0  0  0
  193.2750  176.3960  142.5140 C   0  0  0  0  0  3  0  0  0  0  0  0
  195.5200  175.7420  144.0630 C   0  0  0  0  0  3  0  0  0  0  0  0
  192.0540  176.5800  144.6100 N   0  0  0  0  0  0  0  0  0  0  0  0
  191.2970  176.6740  146.9420 N   0  0  0  0  0  2  0  0  0  0  0  0
  193.8910  176.0240  146.2880 S   0  0  0  0  0  0  0  0  0  0  0  0
  194.5190  176.1200  141.9250 C   0  0  0  0  0  0  0  0  0  0  0  0
  1  3  2  0  0  0  0
  2  1  2  0  0  0  0
  3 21  1  0  0  0  0
  3 14  1  0  0  0  0
  4  6  1  0  0  0  0
  5  8  1  0  0  0  0
  6  2  1  0  0  0  0
  7  4  2  0  0  0  0
  8 10  1  0  0  0  0
  8  6  2  0  0  0  0
  9  5  2  0  0  0  0
  9  7  1  0  0  0  0
 11 10  1  0  0  0  0
 11 12  1  0  0  0  0
 13 11  1  0  0  0  0
 15 14  1  0  0  0  0
 16 15  1  0  0  0  0
 18 16  1  1  0  0  0
 18 17  1  0  0  0  0
 19 20  1  1  0  0  0
 19 18  1  0  0  0  0
 19 17  1  0  0  0  0
 20 18  1  0  0  0  0
 21 30  1  0  0  0  0
 22 31  1  0  0  0  0
 23 31  1  0  0  0  0
 23 30  1  0  0  0  0
 24 29  1  0  0  0  0
 24 22  2  0  0  0  0
 25 28  2  0  0  0  0
 26 32  1  0  0  0  0
 27 24  1  0  0  0  0
 28 22  1  0  0  0  0
 29 23  2  0  0  0  0
 32 27  2  0  0  0  0
 32 25  1  0  0  0  0
M  END
>  <MODEL>
4

>  <REMARK>
 VINA RESULT:      -7.0      2.611      5.154
  Name = 
  9 active torsions:
  status: ('A' for Active; 'I' for Inactive)
    1  A    between atoms: C_3  and  N_25
    2  A    between atoms: C_9  and  C_20
    3  A    between atoms: C_10  and  C_13
    4  A    between atoms: C_10  and  C_23
    5  A    between atoms: C_21  and  C_24
    6  A    between atoms: C_21  and  C_27
    7  A    between atoms: C_24  and  C_31
    8  A    between atoms: N_25  and  C_27
    9  A    between atoms: N_26  and  C_31
                            x       y       z     vdW  Elec       q    Type
                         _______ _______ _______ _____ _____    ______ ____

>  <TORSDO>
F 9

$$$$
=
 OpenBabel11042414513D

 32 36  0  0  1  0  0  0  0  0999 V2000
  189.7120  173.6710  144.1170 C   0  0  0  0  0  0  0  0  0  0  0  0
  189.8900  173.8590  145.3980 C   0  0  0  0  0  3  0  0  0  0  0  0
  189.5350  173.4650  142.8410 C   0  0  0  0  0  0  0  0  0  0  0  0
  188.5010  175.7360  146.0990 C   0  0  0  0  0  3  0  0  0  0  0  0
  190.5690  177.0690  147.3630 C   0  0  0  0  0  3  0  0  0  0  0  0
  189.7720  175.1540  146.1020 C   0  0  0  0  0  0  0  0  0  0  0  0
  188.2900  176.9660  146.7210 C   0  0  0  0  0  3  0  0  0  0  0  0
  190.8320  175.8360  146.7550 C   0  0  0  0  0  0  0  0  0  0  0  0
  189.3200  177.6040  147.3350 N   0  0  0  0  0  0  0  0  0  0  0  0
  192.2250  175.2940  146.8620 C   0  0  0  0  0  2  0  0  0  0  0  0
  193.2360  176.2220  146.2000 C   0  0  0  0  0  3  0  0  0  0  0  0
  192.8790  176.4490  144.7430 C   0  0  0  0  0  1  0  0  0  0  0  0
  194.6110  175.5910  146.2740 C   0  0  0  0  0  1  0  0  0  0  0  0
  190.7130  173.1510  141.9840 C   0  0  0  0  0  2  0  0  0  0  0  0
  191.3740  171.8710  142.4570 C   0  0  0  0  0  2  0  0  0  0  0  0
  192.8150  172.0080  142.3580 N   0  0  0  0  0  2  0  0  0  0  0  0
  194.5110  173.6780  142.9990 C   0  0  0  0  0  2  0  0  0  0  0  0
  193.2130  172.9880  143.3530 C   0  0  2  0  0  0  0  0  0  0  0  0
  194.5280  172.4960  143.9410 C   0  0  2  0  0  3  0  0  0  0  0  0
  193.2550  172.4130  144.7520 C   0  0  0  0  0  2  0  0  0  0  0  0
  188.2440  173.8760  142.2140 C   0  0  0  0  0  2  0  0  0  0  0  0
  186.5020  178.3700  143.0510 C   0  0  0  0  0  0  0  0  0  0  0  0
  187.5260  176.2950  142.3490 C   0  0  0  0  0  0  0  0  0  0  0  0
  186.0250  177.2430  143.6950 C   0  0  0  0  0  0  0  0  0  0  0  0
  185.0450  179.7370  144.3130 N   0  0  0  0  0  0  0  0  0  0  0  0
  183.5950  178.7950  145.9120 F   0  0  0  0  0  0  0  0  0  0  0  0
  185.0370  177.3560  144.6700 C   0  0  0  0  0  3  0  0  0  0  0  0
  186.0140  179.6340  143.3570 C   0  0  0  0  0  3  0  0  0  0  0  0
  186.5910  176.0740  143.3070 N   0  0  0  0  0  0  0  0  0  0  0  0
  188.3130  175.2580  141.7620 N   0  0  0  0  0  2  0  0  0  0  0  0
  187.6840  177.9320  141.9450 S   0  0  0  0  0  0  0  0  0  0  0  0
  184.5520  178.6400  144.9680 C   0  0  0  0  0  0  0  0  0  0  0  0
  1  2  2  0  0  0  0
  2  6  1  0  0  0  0
  3  1  2  0  0  0  0
  4  6  2  0  0  0  0
  4  7  1  0  0  0  0
  6  8  1  0  0  0  0
  7  9  2  0  0  0  0
  8 10  1  0  0  0  0
  8  5  2  0  0  0  0
  9  5  1  0  0  0  0
 11 13  1  0  0  0  0
 11 10  1  0  0  0  0
 12 11  1  0  0  0  0
 14 15  1  0  0  0  0
 14  3  1  0  0  0  0
 16 15  1  0  0  0  0
 17 18  1  0  0  0  0
 18 16  1  6  0  0  0
 18 19  1  0  0  0  0
 18 20  1  0  0  0  0
 19 17  1  1  0  0  0
 19 20  1  0  0  0  0
 21  3  1  0  0  0  0
 22 28  2  0  0  0  0
 22 24  1  0  0  0  0
 23 29  2  0  0  0  0
 24 27  2  0  0  0  0
 25 32  2  0  0  0  0
 27 32  1  0  0  0  0
 28 25  1  0  0  0  0
 29 24  1  0  0  0  0
 30 21  1  0  0  0  0
 30 23  1  0  0  0  0
 31 23  1  0  0  0  0
 31 22  1  0  0  0  0
 32 26  1  0  0  0  0
M  END
>  <MODEL>
5

>  <REMARK>
 VINA RESULT:      -7.0      2.598      6.585
  Name = 
  9 active torsions:
  status: ('A' for Active; 'I' for Inactive)
    1  A    between atoms: C_3  and  N_25
    2  A    between atoms: C_9  and  C_20
    3  A    between atoms: C_10  and  C_13
    4  A    between atoms: C_10  and  C_23
    5  A    between atoms: C_21  and  C_24
    6  A    between atoms: C_21  and  C_27
    7  A    between atoms: C_24  and  C_31
    8  A    between atoms: N_25  and  C_27
    9  A    between atoms: N_26  and  C_31
                            x       y       z     vdW  Elec       q    Type
                         _______ _______ _______ _____ _____    ______ ____

>  <TORSDO>
F 9

$$$$
=
 OpenBabel11042414513D

 32 36  0  0  1  0  0  0  0  0999 V2000
  189.5020  177.6030  144.2240 C   0  0  0  0  0  0  0  0  0  0  0  0
  190.5310  177.7500  145.0150 C   0  0  0  0  0  3  0  0  0  0  0  0
  188.4690  177.4740  143.4370 C   0  0  0  0  0  0  0  0  0  0  0  0
  192.6060  176.7180  144.2620 C   0  0  0  0  0  3  0  0  0  0  0  0
  192.7360  174.9370  146.3750 C   0  0  0  0  0  3  0  0  0  0  0  0
  191.5990  176.7510  145.2310 C   0  0  0  0  0  0  0  0  0  0  0  0
  193.6510  175.7990  144.3660 C   0  0  0  0  0  3  0  0  0  0  0  0
  191.6690  175.8420  146.3170 C   0  0  0  0  0  0  0  0  0  0  0  0
  193.6940  174.9320  145.4110 N   0  0  0  0  0  0  0  0  0  0  0  0
  190.6750  175.8110  147.4380 C   0  0  0  0  0  2  0  0  0  0  0  0
  189.5310  174.8490  147.1420 C   0  0  0  0  0  3  0  0  0  0  0  0
  189.7360  174.1720  145.8000 C   0  0  0  0  0  1  0  0  0  0  0  0
  188.2300  175.6230  147.1050 C   0  0  0  0  0  1  0  0  0  0  0  0
  187.1140  177.3040  144.0350 C   0  0  0  0  0  2  0  0  0  0  0  0
  186.2850  178.5530  143.8070 C   0  0  0  0  0  2  0  0  0  0  0  0
  185.1540  178.5530  144.7160 N   0  0  0  0  0  2  0  0  0  0  0  0
  184.8170  176.9270  146.5380 C   0  0  0  0  0  2  0  0  0  0  0  0
  185.6440  178.0720  145.9950 C   0  0  2  0  0  0  0  0  0  0  0  0
  184.5380  178.3370  147.0070 C   0  0  2  0  0  3  0  0  0  0  0  0
  185.7920  179.1800  147.0160 C   0  0  0  0  0  2  0  0  0  0  0  0
  188.6930  177.1600  141.9940 C   0  0  0  0  0  2  0  0  0  0  0  0
  189.8620  172.4090  142.0200 C   0  0  0  0  0  0  0  0  0  0  0  0
  188.9800  174.6540  141.8400 C   0  0  0  0  0  0  0  0  0  0  0  0
  190.7670  173.4120  142.3130 C   0  0  0  0  0  0  0  0  0  0  0  0
  191.5020  170.7650  142.4550 N   0  0  0  0  0  0  0  0  0  0  0  0
  193.6780  171.3810  143.1140 F   0  0  0  0  0  0  0  0  0  0  0  0
  192.0710  173.0930  142.6870 C   0  0  0  0  0  3  0  0  0  0  0  0
  190.2220  171.0690  142.0890 C   0  0  0  0  0  3  0  0  0  0  0  0
  190.2840  174.6740  142.2130 N   0  0  0  0  0  0  0  0  0  0  0  0
  188.1880  175.8310  141.6780 N   0  0  0  0  0  2  0  0  0  0  0  0
  188.3800  173.0860  141.6170 S   0  0  0  0  0  0  0  0  0  0  0  0
  192.4220  171.7350  142.7510 C   0  0  0  0  0  0  0  0  0  0  0  0
  1  2  2  0  0  0  0
  2  6  1  0  0  0  0
  3 14  1  0  0  0  0
  3  1  2  0  0  0  0
  4  7  2  0  0  0  0
  4  6  1  0  0  0  0
  6  8  2  0  0  0  0
  7  9  1  0  0  0  0
  8  5  1  0  0  0  0
  8 10  1  0  0  0  0
  9  5  2  0  0  0  0
 11 10  1  0  0  0  0
 12 11  1  0  0  0  0
 13 11  1  0  0  0  0
 15 14  1  0  0  0  0
 15 16  1  0  0  0  0
 18 16  1  6  0  0  0
 18 17  1  0  0  0  0
 18 19  1  0  0  0  0
 18 20  1  0  0  0  0
 19 17  1  1  0  0  0
 19 20  1  0  0  0  0
 21  3  1  0  0  0  0
 22 28  2  0  0  0  0
 22 24  1  0  0  0  0
 23 29  2  0  0  0  0
 24 27  2  0  0  0  0
 25 32  2  0  0  0  0
 27 32  1  0  0  0  0
 28 25  1  0  0  0  0
 29 24  1  0  0  0  0
 30 23  1  0  0  0  0
 30 21  1  0  0  0  0
 31 23  1  0  0  0  0
 31 22  1  0  0  0  0
 32 26  1  0  0  0  0
M  END
>  <MODEL>
6

>  <REMARK>
 VINA RESULT:      -7.0      1.523      2.716
  Name = 
  9 active torsions:
  status: ('A' for Active; 'I' for Inactive)
    1  A    between atoms: C_3  and  N_25
    2  A    between atoms: C_9  and  C_20
    3  A    between atoms: C_10  and  C_13
    4  A    between atoms: C_10  and  C_23
    5  A    between atoms: C_21  and  C_24
    6  A    between atoms: C_21  and  C_27
    7  A    between atoms: C_24  and  C_31
    8  A    between atoms: N_25  and  C_27
    9  A    between atoms: N_26  and  C_31
                            x       y       z     vdW  Elec       q    Type
                         _______ _______ _______ _____ _____    ______ ____

>  <TORSDO>
F 9

$$$$
=
 OpenBabel11042414513D

 32 36  0  0  1  0  0  0  0  0999 V2000
  188.8870  175.9510  145.4420 C   0  0  0  0  0  0  0  0  0  0  0  0
  187.9900  176.7630  144.9490 C   0  0  0  0  0  3  0  0  0  0  0  0
  189.7920  175.1400  145.9170 C   0  0  0  0  0  0  0  0  0  0  0  0
  186.8570  177.1140  147.0780 C   0  0  0  0  0  3  0  0  0  0  0  0
  185.0420  178.9340  146.0550 C   0  0  0  0  0  3  0  0  0  0  0  0
  186.9320  177.4460  145.7220 C   0  0  0  0  0  0  0  0  0  0  0  0
  185.8810  177.6920  147.8900 C   0  0  0  0  0  3  0  0  0  0  0  0
  186.0040  178.3840  145.1990 C   0  0  0  0  0  0  0  0  0  0  0  0
  184.9990  178.5820  147.3660 N   0  0  0  0  0  0  0  0  0  0  0  0
  186.0110  178.8500  143.7750 C   0  0  0  0  0  2  0  0  0  0  0  0
  185.3700  177.8250  142.8490 C   0  0  0  0  0  3  0  0  0  0  0  0
  186.0990  177.7760  141.5190 C   0  0  0  0  0  1  0  0  0  0  0  0
  183.9270  178.2130  142.6010 C   0  0  0  0  0  1  0  0  0  0  0  0
  189.7060  173.6860  145.5990 C   0  0  0  0  0  2  0  0  0  0  0  0
  190.3870  173.4020  144.2740 C   0  0  0  0  0  2  0  0  0  0  0  0
  189.3940  172.9850  143.3020 N   0  0  0  0  0  2  0  0  0  0  0  0
  187.8370  174.4750  142.1060 C   0  0  0  0  0  2  0  0  0  0  0  0
  189.2740  174.0630  142.3360 C   0  0  2  0  0  0  0  0  0  0  0  0
  188.4940  173.5000  141.1560 C   0  0  2  0  0  3  0  0  0  0  0  0
  189.9780  173.7570  141.0320 C   0  0  0  0  0  2  0  0  0  0  0  0
  190.6760  175.6100  147.0240 C   0  0  0  0  0  2  0  0  0  0  0  0
  195.1470  175.3670  145.0520 C   0  0  0  0  0  0  0  0  0  0  0  0
  192.9860  175.8460  146.0260 C   0  0  0  0  0  0  0  0  0  0  0  0
  194.4820  174.2640  145.5570 C   0  0  0  0  0  0  0  0  0  0  0  0
  196.9530  174.0020  144.3760 N   0  0  0  0  0  0  0  0  0  0  0  0
  196.9150  171.6780  144.7630 F   0  0  0  0  0  0  0  0  0  0  0  0
  195.0590  172.9990  145.4740 C   0  0  0  0  0  3  0  0  0  0  0  0
  196.3940  175.2450  144.4530 C   0  0  0  0  0  3  0  0  0  0  0  0
  193.2710  174.5220  146.1080 N   0  0  0  0  0  0  0  0  0  0  0  0
  191.7660  176.4200  146.4980 N   0  0  0  0  0  2  0  0  0  0  0  0
  194.2130  176.7420  145.2800 S   0  0  0  0  0  0  0  0  0  0  0  0
  196.3210  172.8910  144.8680 C   0  0  0  0  0  0  0  0  0  0  0  0
  1  3  2  0  0  0  0
  2  1  2  0  0  0  0
  2  6  1  0  0  0  0
  3 21  1  0  0  0  0
  4  7  1  0  0  0  0
  5  9  1  0  0  0  0
  6  4  2  0  0  0  0
  8  6  1  0  0  0  0
  8  5  2  0  0  0  0
  9  7  2  0  0  0  0
 10  8  1  0  0  0  0
 11 10  1  0  0  0  0
 12 11  1  0  0  0  0
 13 11  1  0  0  0  0
 14  3  1  0  0  0  0
 15 14  1  0  0  0  0
 16 15  1  0  0  0  0
 17 18  1  0  0  0  0
 18 16  1  1  0  0  0
 19 20  1  6  0  0  0
 19 17  1  0  0  0  0
 19 18  1  0  0  0  0
 20 18  1  0  0  0  0
 22 31  1  0  0  0  0
 22 24  1  0  0  0  0
 23 29  2  0  0  0  0
 23 30  1  0  0  0  0
 24 29  1  0  0  0  0
 25 28  1  0  0  0  0
 25 32  2  0  0  0  0
 26 32  1  0  0  0  0
 27 24  2  0  0  0  0
 28 22  2  0  0  0  0
 30 21  1  0  0  0  0
 31 23  1  0  0  0  0
 32 27  1  0  0  0  0
M  END
>  <MODEL>
7

>  <REMARK>
 VINA RESULT:      -6.8      2.714      6.530
  Name = 
  9 active torsions:
  status: ('A' for Active; 'I' for Inactive)
    1  A    between atoms: C_3  and  N_25
    2  A    between atoms: C_9  and  C_20
    3  A    between atoms: C_10  and  C_13
    4  A    between atoms: C_10  and  C_23
    5  A    between atoms: C_21  and  C_24
    6  A    between atoms: C_21  and  C_27
    7  A    between atoms: C_24  and  C_31
    8  A    between atoms: N_25  and  C_27
    9  A    between atoms: N_26  and  C_31
                            x       y       z     vdW  Elec       q    Type
                         _______ _______ _______ _____ _____    ______ ____

>  <TORSDO>
F 9

$$$$
=
 OpenBabel11042414513D

 32 36  0  0  1  0  0  0  0  0999 V2000
  189.7060  176.2050  145.7790 C   0  0  0  0  0  0  0  0  0  0  0  0
  189.0190  177.2860  145.5210 C   0  0  0  0  0  3  0  0  0  0  0  0
  190.3930  175.1310  146.0540 C   0  0  0  0  0  0  0  0  0  0  0  0
  189.1760  177.8020  143.1440 C   0  0  0  0  0  3  0  0  0  0  0  0
  186.4400  178.0000  142.7890 C   0  0  0  0  0  3  0  0  0  0  0  0
  188.3400  177.5890  144.2440 C   0  0  0  0  0  0  0  0  0  0  0  0
  188.6320  178.1100  141.8970 C   0  0  0  0  0  3  0  0  0  0  0  0
  186.9360  177.6850  144.0600 C   0  0  0  0  0  0  0  0  0  0  0  0
  187.2860  178.2040  141.7460 N   0  0  0  0  0  0  0  0  0  0  0  0
  185.9380  177.4370  145.1500 C   0  0  0  0  0  2  0  0  0  0  0  0
  185.4890  178.7390  145.8010 C   0  0  0  0  0  3  0  0  0  0  0  0
  185.9370  178.7950  147.2490 C   0  0  0  0  0  1  0  0  0  0  0  0
  183.9770  178.8210  145.7550 C   0  0  0  0  0  1  0  0  0  0  0  0
  191.8750  175.2270  146.1880 C   0  0  0  0  0  2  0  0  0  0  0  0
  192.3620  176.5470  145.6220 C   0  0  0  0  0  2  0  0  0  0  0  0
  193.4980  176.3080  144.7510 N   0  0  0  0  0  2  0  0  0  0  0  0
  194.1890  174.4120  143.3340 C   0  0  0  0  0  2  0  0  0  0  0  0
  193.0700  175.3370  143.7600 C   0  0  2  0  0  0  0  0  0  0  0  0
  193.8670  175.6290  142.4970 C   0  0  2  0  0  3  0  0  0  0  0  0
  192.3990  175.9800  142.5660 C   0  0  0  0  0  2  0  0  0  0  0  0
  189.7440  173.7950  145.8940 C   0  0  0  0  0  2  0  0  0  0  0  0
  190.1870  173.0100  141.0850 C   0  0  0  0  0  0  0  0  0  0  0  0
  190.1930  173.1170  143.5010 C   0  0  0  0  0  0  0  0  0  0  0  0
  189.2230  173.8380  141.6300 C   0  0  0  0  0  0  0  0  0  0  0  0
  189.4500  173.5440  138.9050 N   0  0  0  0  0  0  0  0  0  0  0  0
  187.6580  175.0360  138.5730 F   0  0  0  0  0  0  0  0  0  0  0  0
  188.3490  174.5380  140.8020 C   0  0  0  0  0  3  0  0  0  0  0  0
  190.3100  172.8550  139.7100 C   0  0  0  0  0  3  0  0  0  0  0  0
  189.2160  173.9030  142.9840 N   0  0  0  0  0  0  0  0  0  0  0  0
  190.4520  173.0000  144.9010 N   0  0  0  0  0  2  0  0  0  0  0  0
  191.0930  172.3130  142.3140 S   0  0  0  0  0  0  0  0  0  0  0  0
  188.4840  174.3710  139.4140 C   0  0  0  0  0  0  0  0  0  0  0  0
  1  3  2  0  0  0  0
  2  1  2  0  0  0  0
  3 14  1  0  0  0  0
  4  6  1  0  0  0  0
  5  8  1  0  0  0  0
  6  2  1  0  0  0  0
  7  4  2  0  0  0  0
  8  6  2  0  0  0  0
  8 10  1  0  0  0  0
  9  7  1  0  0  0  0
  9  5  2  0  0  0  0
 10 11  1  0  0  0  0
 11 12  1  0  0  0  0
 13 11  1  0  0  0  0
 15 14  1  0  0  0  0
 16 15  1  0  0  0  0
 17 18  1  0  0  0  0
 18 16  1  1  0  0  0
 19 20  1  6  0  0  0
 19 17  1  0  0  0  0
 19 18  1  0  0  0  0
 20 18  1  0  0  0  0
 21  3  1  0  0  0  0
 22 24  1  0  0  0  0
 22 31  1  0  0  0  0
 23 30  1  0  0  0  0
 24 29  1  0  0  0  0
 25 32  2  0  0  0  0
 25 28  1  0  0  0  0
 26 32  1  0  0  0  0
 27 24  2  0  0  0  0
 28 22  2  0  0  0  0
 29 23  2  0  0  0  0
 30 21  1  0  0  0  0
 31 23  1  0  0  0  0
 32 27  1  0  0  0  0
M  END
>  <MODEL>
8

>  <REMARK>
 VINA RESULT:      -6.8      2.266      6.332
  Name = 
  9 active torsions:
  status: ('A' for Active; 'I' for Inactive)
    1  A    between atoms: C_3  and  N_25
    2  A    between atoms: C_9  and  C_20
    3  A    between atoms: C_10  and  C_13
    4  A    between atoms: C_10  and  C_23
    5  A    between atoms: C_21  and  C_24
    6  A    between atoms: C_21  and  C_27
    7  A    between atoms: C_24  and  C_31
    8  A    between atoms: N_25  and  C_27
    9  A    between atoms: N_26  and  C_31
                            x       y       z     vdW  Elec       q    Type
                         _______ _______ _______ _____ _____    ______ ____

>  <TORSDO>
F 9

$$$$
=
 OpenBabel11042414513D

 32 36  0  0  1  0  0  0  0  0999 V2000
  189.1870  175.6830  144.7670 C   0  0  0  0  0  0  0  0  0  0  0  0
  189.0170  174.5260  144.1860 C   0  0  0  0  0  3  0  0  0  0  0  0
  189.3560  176.8310  145.3640 C   0  0  0  0  0  0  0  0  0  0  0  0
  190.1700  173.3890  142.3640 C   0  0  0  0  0  3  0  0  0  0  0  0
  188.5860  174.5010  140.3860 C   0  0  0  0  0  3  0  0  0  0  0  0
  189.1450  174.2640  142.7360 C   0  0  0  0  0  0  0  0  0  0  0  0
  190.3830  173.0910  141.0180 C   0  0  0  0  0  3  0  0  0  0  0  0
  188.3300  174.8300  141.7220 C   0  0  0  0  0  0  0  0  0  0  0  0
  189.5950  173.6490  140.0630 N   0  0  0  0  0  0  0  0  0  0  0  0
  187.1760  175.7450  142.0000 C   0  0  0  0  0  2  0  0  0  0  0  0
  187.3360  177.0770  141.2790 C   0  0  0  0  0  3  0  0  0  0  0  0
  188.3850  177.9330  141.9630 C   0  0  0  0  0  1  0  0  0  0  0  0
  186.0130  177.8160  141.3030 C   0  0  0  0  0  1  0  0  0  0  0  0
  188.1710  177.5430  145.9230 C   0  0  0  0  0  2  0  0  0  0  0  0
  187.2550  176.5570  146.6210 C   0  0  0  0  0  2  0  0  0  0  0  0
  185.8960  176.7420  146.1470 N   0  0  0  0  0  2  0  0  0  0  0  0
  185.0470  178.7620  147.2750 C   0  0  0  0  0  2  0  0  0  0  0  0
  185.6820  178.1740  146.0350 C   0  0  2  0  0  0  0  0  0  0  0  0
  184.1770  178.3920  146.0950 C   0  0  2  0  0  3  0  0  0  0  0  0
  184.9160  178.5530  144.7870 C   0  0  0  0  0  2  0  0  0  0  0  0
  190.6460  177.5600  145.1790 C   0  0  0  0  0  2  0  0  0  0  0  0
  194.5520  174.9530  143.8080 C   0  0  0  0  0  0  0  0  0  0  0  0
  192.5730  176.3040  144.1330 C   0  0  0  0  0  0  0  0  0  0  0  0
  194.3140  175.3260  145.1180 C   0  0  0  0  0  0  0  0  0  0  0  0
  196.4890  173.7730  144.4690 N   0  0  0  0  0  0  0  0  0  0  0  0
  197.1430  173.7040  146.7310 F   0  0  0  0  0  0  0  0  0  0  0  0
  195.1780  174.9180  146.1320 C   0  0  0  0  0  3  0  0  0  0  0  0
  195.6470  174.1690  143.4700 C   0  0  0  0  0  3  0  0  0  0  0  0
  193.2080  176.0860  145.3110 N   0  0  0  0  0  0  0  0  0  0  0  0
  191.3590  177.0490  144.0180 N   0  0  0  0  0  2  0  0  0  0  0  0
  193.3510  175.5760  142.8160 S   0  0  0  0  0  0  0  0  0  0  0  0
  196.2810  174.1260  145.7750 C   0  0  0  0  0  0  0  0  0  0  0  0
  1  3  2  0  0  0  0
  2  1  2  0  0  0  0
  3 14  1  0  0  0  0
  4  6  1  0  0  0  0
  5  8  1  0  0  0  0
  6  2  1  0  0  0  0
  7  4  2  0  0  0  0
  8 10  1  0  0  0  0
  8  6  2  0  0  0  0
  9  5  2  0  0  0  0
  9  7  1  0  0  0  0
 11 13  1  0  0  0  0
 11 12  1  0  0  0  0
 11 10  1  0  0  0  0
 14 15  1  0  0  0  0
 16 15  1  0  0  0  0
 18 19  1  0  0  0  0
 18 16  1  1  0  0  0
 18 17  1  0  0  0  0
 19 20  1  6  0  0  0
 19 17  1  0  0  0  0
 20 18  1  0  0  0  0
 21  3  1  0  0  0  0
 22 24  1  0  0  0  0
 23 29  2  0  0  0  0
 24 29  1  0  0  0  0
 24 27  2  0  0  0  0
 25 32  2  0  0  0  0
 28 22  2  0  0  0  0
 28 25  1  0  0  0  0
 30 23  1  0  0  0  0
 30 21  1  0  0  0  0
 31 22  1  0  0  0  0
 31 23  1  0  0  0  0
 32 27  1  0  0  0  0
 32 26  1  0  0  0  0
M  END
>  <MODEL>
9

>  <REMARK>
 VINA RESULT:      -6.7      2.601      5.220
  Name = 
  9 active torsions:
  status: ('A' for Active; 'I' for Inactive)
    1  A    between atoms: C_3  and  N_25
    2  A    between atoms: C_9  and  C_20
    3  A    between atoms: C_10  and  C_13
    4  A    between atoms: C_10  and  C_23
    5  A    between atoms: C_21  and  C_24
    6  A    between atoms: C_21  and  C_27
    7  A    between atoms: C_24  and  C_31
    8  A    between atoms: N_25  and  C_27
    9  A    between atoms: N_26  and  C_31
                            x       y       z     vdW  Elec       q    Type
                         _______ _______ _______ _____ _____    ______ ____

>  <TORSDO>
F 9

$$$$
