=
 OpenBabel11042416373D

 32 34  0  0  1  0  0  0  0  0999 V2000
  190.5060  176.6440  146.2440 C   0  0  0  0  0  3  0  0  0  0  0  0
  189.9820  173.1290  142.7840 N   0  0  0  0  0  2  0  0  0  0  0  0
  192.9280  174.3450  144.6740 C   0  0  0  0  0  0  0  0  0  0  0  0
  196.5200  174.2590  145.6480 N   0  0  0  0  0  1  0  0  0  0  0  0
  190.7820  173.9430  143.6460 C   0  0  0  0  0  0  0  0  0  0  0  0
  191.0300  175.7760  145.3710 C   0  0  0  0  0  0  0  0  0  0  0  0
  190.1940  175.1940  144.2570 C   0  0  0  0  0  2  0  0  0  0  0  0
  192.4600  175.4100  145.4590 C   0  0  0  0  0  0  0  0  0  0  0  0
  194.6940  175.7040  146.3720 C   0  0  0  0  0  3  0  0  0  0  0  0
  193.3510  176.0850  146.3120 C   0  0  0  0  0  3  0  0  0  0  0  0
  194.2720  173.9640  144.7420 C   0  0  0  0  0  3  0  0  0  0  0  0
  195.1540  174.6450  145.5860 C   0  0  0  0  0  0  0  0  0  0  0  0
  192.0280  173.6160  143.8290 N   0  0  0  0  0  0  0  0  0  0  0  0
  187.9770  177.4250  146.2190 C   0  0  0  0  0  0  0  0  0  0  0  0
  189.1260  177.0590  146.2260 C   0  0  0  0  0  0  0  0  0  0  0  0
  184.6720  178.6730  144.9930 C   0  0  0  0  0  0  0  0  0  0  0  0
  186.6150  177.8760  146.2160 C   0  0  0  0  0  0  0  0  0  0  0  0
  183.9660  178.7710  146.2030 C   0  0  0  0  0  3  0  0  0  0  0  0
  185.9980  178.2240  145.0080 C   0  0  0  0  0  3  0  0  0  0  0  0
  185.9050  177.9740  147.4160 C   0  0  0  0  0  3  0  0  0  0  0  0
  184.5810  178.4220  147.4100 C   0  0  0  0  0  3  0  0  0  0  0  0
  184.0640  178.1290  142.6560 C   0  0  0  0  0  1  0  0  0  0  0  0
  184.0860  179.0120  143.7690 O   0  0  0  0  0  0  0  0  0  0  0  0
  188.6540  173.4470  142.4600 N   0  0  0  0  0  2  0  0  0  0  0  0
  188.6830  174.4390  141.3970 C   0  0  0  0  0  2  0  0  0  0  0  0
  187.8020  175.5930  141.7590 C   0  0  0  0  0  0  0  0  0  0  0  0
  186.8220  175.4030  142.4640 O   0  0  0  0  0  0  0  0  0  0  0  0
  188.0880  176.9780  141.2580 C   0  0  1  0  0  3  0  0  0  0  0  0
  186.6910  176.8860  139.3190 O   0  0  0  0  0  1  0  0  0  0  0  0
  186.8920  177.5670  140.5210 C   0  0  0  0  0  2  0  0  0  0  0  0
  189.6640  178.1600  142.5530 O   0  0  0  0  0  0  0  0  0  0  0  0
  188.4900  177.8640  142.3920 C   0  0  0  0  0  3  0  0  0  0  0  0
  2  5  1  0  0  0  0
  3 11  2  0  0  0  0
  3  8  1  0  0  0  0
  5 13  2  0  0  0  0
  5  7  1  0  0  0  0
  6  8  1  0  0  0  0
  6  1  2  0  0  0  0
  7  6  1  0  0  0  0
  8 10  2  0  0  0  0
 10  9  1  0  0  0  0
 11 12  1  0  0  0  0
 12  4  1  0  0  0  0
 12  9  2  0  0  0  0
 13  3  1  0  0  0  0
 14 15  3  0  0  0  0
 15  1  1  0  0  0  0
 16 19  2  0  0  0  0
 16 18  1  0  0  0  0
 17 14  1  0  0  0  0
 17 20  2  0  0  0  0
 18 21  2  0  0  0  0
 19 17  1  0  0  0  0
 21 20  1  0  0  0  0
 22 23  1  0  0  0  0
 23 16  1  0  0  0  0
 24  2  1  0  0  0  0
 25 26  1  0  0  0  0
 25 24  1  0  0  0  0
 26 27  2  0  0  0  0
 28 30  1  1  0  0  0
 28 26  1  0  0  0  0
 28 32  1  0  0  0  0
 29 30  1  0  0  0  0
 32 31  2  0  0  0  0
M  END
>  <MODEL>
1

>  <REMARK>
 VINA RESULT:      -7.4      0.000      0.000
  Name = 
  9 active torsions:
  status: ('A' for Active; 'I' for Inactive)
    1  A    between atoms: C_1  and  C_17
    2  A    between atoms: C_1  and  C_20
    3  A    between atoms: C_3  and  C_19
    4  A    between atoms: N_5  and  N_22
    5  A    between atoms: C_7  and  C_16
    6  A    between atoms: C_11  and  O_15
    7  A    between atoms: C_12  and  C_20
    8  A    between atoms: C_17  and  N_22
    9  A    between atoms: C_20  and  C_27
                            x       y       z     vdW  Elec       q    Type
                         _______ _______ _______ _____ _____    ______ ____

>  <TORSDO>
F 9

$$$$
=
 OpenBabel11042416373D

 32 34  0  0  1  0  0  0  0  0999 V2000
  190.7380  176.5220  146.1810 C   0  0  0  0  0  3  0  0  0  0  0  0
  190.0570  172.1380  143.9640 N   0  0  0  0  0  2  0  0  0  0  0  0
  193.0980  173.8660  145.1860 C   0  0  0  0  0  0  0  0  0  0  0  0
  196.7510  174.0810  145.8720 N   0  0  0  0  0  1  0  0  0  0  0  0
  190.8960  173.1730  144.4840 C   0  0  0  0  0  0  0  0  0  0  0  0
  191.2210  175.4360  145.5670 C   0  0  0  0  0  0  0  0  0  0  0  0
  190.3220  174.5480  144.7410 C   0  0  0  0  0  2  0  0  0  0  0  0
  192.6610  175.1150  145.6540 C   0  0  0  0  0  0  0  0  0  0  0  0
  194.9460  175.6720  146.2700 C   0  0  0  0  0  3  0  0  0  0  0  0
  193.5930  176.0150  146.2000 C   0  0  0  0  0  3  0  0  0  0  0  0
  194.4520  173.5250  145.2630 C   0  0  0  0  0  3  0  0  0  0  0  0
  195.3750  174.4280  145.8000 C   0  0  0  0  0  0  0  0  0  0  0  0
  192.1590  172.9180  144.6640 N   0  0  0  0  0  0  0  0  0  0  0  0
  188.1940  177.2480  146.0970 C   0  0  0  0  0  0  0  0  0  0  0  0
  189.3510  176.9100  146.1440 C   0  0  0  0  0  0  0  0  0  0  0  0
  184.8220  178.0800  144.7110 C   0  0  0  0  0  0  0  0  0  0  0  0
  186.8210  177.6600  146.0270 C   0  0  0  0  0  0  0  0  0  0  0  0
  184.1500  178.4740  145.8790 C   0  0  0  0  0  3  0  0  0  0  0  0
  186.1590  177.6740  144.7930 C   0  0  0  0  0  3  0  0  0  0  0  0
  186.1460  178.0510  147.1860 C   0  0  0  0  0  3  0  0  0  0  0  0
  184.8100  178.4590  147.1130 C   0  0  0  0  0  3  0  0  0  0  0  0
  184.9060  177.9950  142.2380 C   0  0  0  0  0  1  0  0  0  0  0  0
  184.1900  178.0820  143.4630 O   0  0  0  0  0  0  0  0  0  0  0  0
  188.7020  172.3430  143.6600 N   0  0  0  0  0  2  0  0  0  0  0  0
  188.5600  172.2870  142.2130 C   0  0  0  0  0  2  0  0  0  0  0  0
  188.4150  173.6730  141.6670 C   0  0  0  0  0  0  0  0  0  0  0  0
  187.6410  174.4520  142.2020 O   0  0  0  0  0  0  0  0  0  0  0  0
  189.1900  174.1200  140.4630 C   0  0  1  0  0  3  0  0  0  0  0  0
  191.4200  174.3570  141.2940 O   0  0  0  0  0  1  0  0  0  0  0  0
  190.6110  173.5700  140.4730 C   0  0  0  0  0  2  0  0  0  0  0  0
  187.9960  174.5590  138.4780 O   0  0  0  0  0  0  0  0  0  0  0  0
  188.4810  173.7130  139.2130 C   0  0  0  0  0  3  0  0  0  0  0  0
  2  5  1  0  0  0  0
  3 11  2  0  0  0  0
  3  8  1  0  0  0  0
  5 13  2  0  0  0  0
  5  7  1  0  0  0  0
  6  8  1  0  0  0  0
  6  1  2  0  0  0  0
  7  6  1  0  0  0  0
  8 10  2  0  0  0  0
 10  9  1  0  0  0  0
 11 12  1  0  0  0  0
 12  4  1  0  0  0  0
 12  9  2  0  0  0  0
 13  3  1  0  0  0  0
 14 15  3  0  0  0  0
 15  1  1  0  0  0  0
 16 19  2  0  0  0  0
 16 18  1  0  0  0  0
 17 14  1  0  0  0  0
 17 20  2  0  0  0  0
 18 21  2  0  0  0  0
 19 17  1  0  0  0  0
 21 20  1  0  0  0  0
 22 23  1  0  0  0  0
 23 16  1  0  0  0  0
 24  2  1  0  0  0  0
 25 24  1  0  0  0  0
 26 27  2  0  0  0  0
 26 25  1  0  0  0  0
 28 32  1  6  0  0  0
 28 30  1  0  0  0  0
 28 26  1  0  0  0  0
 30 29  1  0  0  0  0
 31 32  2  0  0  0  0
M  END
>  <MODEL>
2

>  <REMARK>
 VINA RESULT:      -7.1      1.522      2.213
  Name = 
  9 active torsions:
  status: ('A' for Active; 'I' for Inactive)
    1  A    between atoms: C_1  and  C_17
    2  A    between atoms: C_1  and  C_20
    3  A    between atoms: C_3  and  C_19
    4  A    between atoms: N_5  and  N_22
    5  A    between atoms: C_7  and  C_16
    6  A    between atoms: C_11  and  O_15
    7  A    between atoms: C_12  and  C_20
    8  A    between atoms: C_17  and  N_22
    9  A    between atoms: C_20  and  C_27
                            x       y       z     vdW  Elec       q    Type
                         _______ _______ _______ _____ _____    ______ ____

>  <TORSDO>
F 9

$$$$
=
 OpenBabel11042416373D

 32 34  0  0  1  0  0  0  0  0999 V2000
  189.9290  176.9660  145.8140 C   0  0  0  0  0  3  0  0  0  0  0  0
  188.0810  175.0880  141.6120 N   0  0  0  0  0  2  0  0  0  0  0  0
  186.5230  176.9770  144.3930 C   0  0  0  0  0  0  0  0  0  0  0  0
  183.6680  178.6860  146.0630 N   0  0  0  0  0  1  0  0  0  0  0  0
  187.9300  175.7290  142.8820 C   0  0  0  0  0  0  0  0  0  0  0  0
  188.8890  176.6320  145.0410 C   0  0  0  0  0  0  0  0  0  0  0  0
  189.0540  175.6680  143.8920 C   0  0  0  0  0  2  0  0  0  0  0  0
  187.5440  177.1700  145.3370 C   0  0  0  0  0  0  0  0  0  0  0  0
  185.9850  178.3750  146.7600 C   0  0  0  0  0  3  0  0  0  0  0  0
  187.2680  177.8760  146.5210 C   0  0  0  0  0  3  0  0  0  0  0  0
  185.2420  177.4840  144.6350 C   0  0  0  0  0  3  0  0  0  0  0  0
  184.9730  178.1770  145.8180 C   0  0  0  0  0  0  0  0  0  0  0  0
  186.7940  176.2970  143.1610 N   0  0  0  0  0  0  0  0  0  0  0  0
  192.3950  176.0950  145.4080 C   0  0  0  0  0  0  0  0  0  0  0  0
  191.2700  176.4840  145.6000 C   0  0  0  0  0  0  0  0  0  0  0  0
  195.8580  175.8990  144.0090 C   0  0  0  0  0  0  0  0  0  0  0  0
  193.7370  175.6470  145.1680 C   0  0  0  0  0  0  0  0  0  0  0  0
  196.3480  174.7710  144.6860 C   0  0  0  0  0  3  0  0  0  0  0  0
  194.5490  176.3310  144.2560 C   0  0  0  0  0  3  0  0  0  0  0  0
  194.2320  174.5260  145.8400 C   0  0  0  0  0  3  0  0  0  0  0  0
  195.5380  174.0870  145.5990 C   0  0  0  0  0  3  0  0  0  0  0  0
  196.3130  176.7070  141.7140 C   0  0  0  0  0  1  0  0  0  0  0  0
  196.6430  176.6060  143.0930 O   0  0  0  0  0  0  0  0  0  0  0  0
  189.2380  174.3800  141.2530 N   0  0  0  0  0  2  0  0  0  0  0  0
  188.9510  172.9610  141.4010 C   0  0  0  0  0  2  0  0  0  0  0  0
  190.1050  172.2810  142.0690 C   0  0  0  0  0  0  0  0  0  0  0  0
  190.3660  171.1220  141.7840 O   0  0  0  0  0  0  0  0  0  0  0  0
  190.9360  172.9890  143.0970 C   0  0  1  0  0  3  0  0  0  0  0  0
  189.5770  172.1500  144.8770 O   0  0  0  0  0  1  0  0  0  0  0  0
  190.8970  172.2740  144.4420 C   0  0  0  0  0  2  0  0  0  0  0  0
  192.6910  174.1190  141.9990 O   0  0  0  0  0  0  0  0  0  0  0  0
  192.3450  173.1240  142.6180 C   0  0  0  0  0  3  0  0  0  0  0  0
  2  5  1  0  0  0  0
  3 11  2  0  0  0  0
  3  8  1  0  0  0  0
  5 13  2  0  0  0  0
  5  7  1  0  0  0  0
  6  8  1  0  0  0  0
  6  1  2  0  0  0  0
  7  6  1  0  0  0  0
  8 10  2  0  0  0  0
 10  9  1  0  0  0  0
 11 12  1  0  0  0  0
 12  4  1  0  0  0  0
 12  9  2  0  0  0  0
 13  3  1  0  0  0  0
 14 15  3  0  0  0  0
 15  1  1  0  0  0  0
 16 19  2  0  0  0  0
 16 18  1  0  0  0  0
 17 14  1  0  0  0  0
 17 20  2  0  0  0  0
 18 21  2  0  0  0  0
 19 17  1  0  0  0  0
 21 20  1  0  0  0  0
 22 23  1  0  0  0  0
 23 16  1  0  0  0  0
 24 25  1  0  0  0  0
 24  2  1  0  0  0  0
 25 26  1  0  0  0  0
 26 28  1  0  0  0  0
 27 26  2  0  0  0  0
 28 32  1  6  0  0  0
 28 30  1  0  0  0  0
 30 29  1  0  0  0  0
 31 32  2  0  0  0  0
M  END
>  <MODEL>
3

>  <REMARK>
 VINA RESULT:      -6.9      3.181      7.768
  Name = 
  9 active torsions:
  status: ('A' for Active; 'I' for Inactive)
    1  A    between atoms: C_1  and  C_17
    2  A    between atoms: C_1  and  C_20
    3  A    between atoms: C_3  and  C_19
    4  A    between atoms: N_5  and  N_22
    5  A    between atoms: C_7  and  C_16
    6  A    between atoms: C_11  and  O_15
    7  A    between atoms: C_12  and  C_20
    8  A    between atoms: C_17  and  N_22
    9  A    between atoms: C_20  and  C_27
                            x       y       z     vdW  Elec       q    Type
                         _______ _______ _______ _____ _____    ______ ____

>  <TORSDO>
F 9

$$$$
=
 OpenBabel11042416373D

 32 34  0  0  1  0  0  0  0  0999 V2000
  190.5860  176.6640  146.1410 C   0  0  0  0  0  3  0  0  0  0  0  0
  190.1160  173.3750  142.4580 N   0  0  0  0  0  2  0  0  0  0  0  0
  193.0220  174.4320  144.4990 C   0  0  0  0  0  0  0  0  0  0  0  0
  196.5850  174.2370  145.5630 N   0  0  0  0  0  1  0  0  0  0  0  0
  190.9020  174.1240  143.3890 C   0  0  0  0  0  0  0  0  0  0  0  0
  191.1240  175.8440  145.2310 C   0  0  0  0  0  0  0  0  0  0  0  0
  190.3120  175.3430  144.0610 C   0  0  0  0  0  2  0  0  0  0  0  0
  192.5460  175.4530  145.3350 C   0  0  0  0  0  0  0  0  0  0  0  0
  194.7570  175.6600  146.3250 C   0  0  0  0  0  3  0  0  0  0  0  0
  193.4210  176.0630  146.2520 C   0  0  0  0  0  3  0  0  0  0  0  0
  194.3600  174.0290  144.5790 C   0  0  0  0  0  3  0  0  0  0  0  0
  195.2260  174.6450  145.4880 C   0  0  0  0  0  0  0  0  0  0  0  0
  192.1380  173.7690  143.5870 N   0  0  0  0  0  0  0  0  0  0  0  0
  188.0570  177.4420  146.0820 C   0  0  0  0  0  0  0  0  0  0  0  0
  189.2120  177.0980  146.1110 C   0  0  0  0  0  0  0  0  0  0  0  0
  184.6590  178.2880  144.7700 C   0  0  0  0  0  0  0  0  0  0  0  0
  186.6770  177.8350  146.0450 C   0  0  0  0  0  0  0  0  0  0  0  0
  183.9920  178.6130  145.9630 C   0  0  0  0  0  3  0  0  0  0  0  0
  186.0020  177.9000  144.8190 C   0  0  0  0  0  3  0  0  0  0  0  0
  186.0080  178.1580  147.2280 C   0  0  0  0  0  3  0  0  0  0  0  0
  184.6650  178.5470  147.1880 C   0  0  0  0  0  3  0  0  0  0  0  0
  184.6510  177.9700  142.3150 C   0  0  0  0  0  1  0  0  0  0  0  0
  184.0140  178.3410  143.5300 O   0  0  0  0  0  0  0  0  0  0  0  0
  188.8020  173.7300  142.1190 N   0  0  0  0  0  2  0  0  0  0  0  0
  188.8530  174.4670  140.8650 C   0  0  0  0  0  2  0  0  0  0  0  0
  188.7620  173.5140  139.7150 C   0  0  0  0  0  0  0  0  0  0  0  0
  187.9680  172.5860  139.7650 O   0  0  0  0  0  0  0  0  0  0  0  0
  189.6410  173.6630  138.5090 C   0  0  1  0  0  3  0  0  0  0  0  0
  191.2760  172.1290  139.3400 O   0  0  0  0  0  1  0  0  0  0  0  0
  190.4540  172.4030  138.2450 C   0  0  0  0  0  2  0  0  0  0  0  0
  187.8910  174.8030  137.4120 O   0  0  0  0  0  0  0  0  0  0  0  0
  188.8180  174.0140  137.3120 C   0  0  0  0  0  3  0  0  0  0  0  0
  2  5  1  0  0  0  0
  3 11  2  0  0  0  0
  3  8  1  0  0  0  0
  5 13  2  0  0  0  0
  5  7  1  0  0  0  0
  6  8  1  0  0  0  0
  6  1  2  0  0  0  0
  7  6  1  0  0  0  0
  8 10  2  0  0  0  0
 10  9  1  0  0  0  0
 11 12  1  0  0  0  0
 12  4  1  0  0  0  0
 12  9  2  0  0  0  0
 13  3  1  0  0  0  0
 14 15  3  0  0  0  0
 15  1  1  0  0  0  0
 16 19  2  0  0  0  0
 16 18  1  0  0  0  0
 17 14  1  0  0  0  0
 17 20  2  0  0  0  0
 18 21  2  0  0  0  0
 19 17  1  0  0  0  0
 21 20  1  0  0  0  0
 22 23  1  0  0  0  0
 23 16  1  0  0  0  0
 24  2  1  0  0  0  0
 25 24  1  0  0  0  0
 26 27  2  0  0  0  0
 26 25  1  0  0  0  0
 28 32  1  6  0  0  0
 28 26  1  0  0  0  0
 30 28  1  0  0  0  0
 30 29  1  0  0  0  0
 32 31  2  0  0  0  0
M  END
>  <MODEL>
4

>  <REMARK>
 VINA RESULT:      -6.8      1.910      2.619
  Name = 
  9 active torsions:
  status: ('A' for Active; 'I' for Inactive)
    1  A    between atoms: C_1  and  C_17
    2  A    between atoms: C_1  and  C_20
    3  A    between atoms: C_3  and  C_19
    4  A    between atoms: N_5  and  N_22
    5  A    between atoms: C_7  and  C_16
    6  A    between atoms: C_11  and  O_15
    7  A    between atoms: C_12  and  C_20
    8  A    between atoms: C_17  and  N_22
    9  A    between atoms: C_20  and  C_27
                            x       y       z     vdW  Elec       q    Type
                         _______ _______ _______ _____ _____    ______ ____

>  <TORSDO>
F 9

$$$$
=
 OpenBabel11042416373D

 32 34  0  0  1  0  0  0  0  0999 V2000
  189.7730  176.1590  146.1820 C   0  0  0  0  0  3  0  0  0  0  0  0
  188.3020  175.3420  141.5170 N   0  0  0  0  0  2  0  0  0  0  0  0
  186.6220  176.9190  144.4190 C   0  0  0  0  0  0  0  0  0  0  0  0
  183.7970  178.7070  146.0580 N   0  0  0  0  0  1  0  0  0  0  0  0
  188.0590  175.7640  142.8620 C   0  0  0  0  0  0  0  0  0  0  0  0
  188.8160  176.1220  145.2490 C   0  0  0  0  0  0  0  0  0  0  0  0
  189.0170  175.3630  143.9600 C   0  0  0  0  0  2  0  0  0  0  0  0
  187.5200  176.7910  145.4910 C   0  0  0  0  0  0  0  0  0  0  0  0
  185.9400  177.9420  146.9360 C   0  0  0  0  0  3  0  0  0  0  0  0
  187.1720  177.3100  146.7500 C   0  0  0  0  0  3  0  0  0  0  0  0
  185.3920  177.5570  144.6090 C   0  0  0  0  0  3  0  0  0  0  0  0
  185.0500  178.0640  145.8670 C   0  0  0  0  0  0  0  0  0  0  0  0
  186.9730  176.4340  143.1170 N   0  0  0  0  0  0  0  0  0  0  0  0
  192.1460  175.0180  145.9190 C   0  0  0  0  0  0  0  0  0  0  0  0
  191.0610  175.5310  146.0310 C   0  0  0  0  0  0  0  0  0  0  0  0
  194.8190  172.4560  145.3930 C   0  0  0  0  0  0  0  0  0  0  0  0
  193.4440  174.4180  145.7980 C   0  0  0  0  0  0  0  0  0  0  0  0
  195.9700  173.2390  145.5750 C   0  0  0  0  0  3  0  0  0  0  0  0
  193.5580  173.0530  145.5060 C   0  0  0  0  0  3  0  0  0  0  0  0
  194.5940  175.1920  145.9750 C   0  0  0  0  0  3  0  0  0  0  0  0
  195.8580  174.6040  145.8640 C   0  0  0  0  0  3  0  0  0  0  0  0
  194.7180  170.0810  146.0850 C   0  0  0  0  0  1  0  0  0  0  0  0
  194.8970  171.0900  145.1000 O   0  0  0  0  0  0  0  0  0  0  0  0
  189.4010  174.5470  141.1600 N   0  0  0  0  0  2  0  0  0  0  0  0
  188.9140  173.1930  140.9400 C   0  0  0  0  0  2  0  0  0  0  0  0
  190.0100  172.2120  141.2200 C   0  0  0  0  0  0  0  0  0  0  0  0
  190.4990  171.5780  140.2970 O   0  0  0  0  0  0  0  0  0  0  0  0
  190.5070  171.9780  142.6150 C   0  0  1  0  0  3  0  0  0  0  0  0
  189.8190  172.1230  144.9010 O   0  0  0  0  0  1  0  0  0  0  0  0
  189.3590  171.8620  143.6100 C   0  0  0  0  0  2  0  0  0  0  0  0
  192.5640  170.8500  142.8550 O   0  0  0  0  0  0  0  0  0  0  0  0
  191.3620  170.7530  142.6600 C   0  0  0  0  0  3  0  0  0  0  0  0
  2  5  1  0  0  0  0
  3 11  2  0  0  0  0
  3  8  1  0  0  0  0
  5 13  2  0  0  0  0
  5  7  1  0  0  0  0
  6  8  1  0  0  0  0
  6  1  2  0  0  0  0
  7  6  1  0  0  0  0
  8 10  2  0  0  0  0
 10  9  1  0  0  0  0
 11 12  1  0  0  0  0
 12  4  1  0  0  0  0
 12  9  2  0  0  0  0
 13  3  1  0  0  0  0
 14 15  3  0  0  0  0
 15  1  1  0  0  0  0
 16 19  2  0  0  0  0
 16 18  1  0  0  0  0
 17 14  1  0  0  0  0
 17 20  2  0  0  0  0
 18 21  2  0  0  0  0
 19 17  1  0  0  0  0
 21 20  1  0  0  0  0
 23 16  1  0  0  0  0
 23 22  1  0  0  0  0
 24  2  1  0  0  0  0
 25 24  1  0  0  0  0
 25 26  1  0  0  0  0
 26 28  1  0  0  0  0
 27 26  2  0  0  0  0
 28 32  1  6  0  0  0
 28 30  1  0  0  0  0
 30 29  1  0  0  0  0
 32 31  2  0  0  0  0
M  END
>  <MODEL>
5

>  <REMARK>
 VINA RESULT:      -6.7      3.320      8.012
  Name = 
  9 active torsions:
  status: ('A' for Active; 'I' for Inactive)
    1  A    between atoms: C_1  and  C_17
    2  A    between atoms: C_1  and  C_20
    3  A    between atoms: C_3  and  C_19
    4  A    between atoms: N_5  and  N_22
    5  A    between atoms: C_7  and  C_16
    6  A    between atoms: C_11  and  O_15
    7  A    between atoms: C_12  and  C_20
    8  A    between atoms: C_17  and  N_22
    9  A    between atoms: C_20  and  C_27
                            x       y       z     vdW  Elec       q    Type
                         _______ _______ _______ _____ _____    ______ ____

>  <TORSDO>
F 9

$$$$
=
 OpenBabel11042416373D

 32 34  0  0  1  0  0  0  0  0999 V2000
  188.1280  175.0670  140.9220 C   0  0  0  0  0  3  0  0  0  0  0  0
  191.4470  173.4230  144.2220 N   0  0  0  0  0  2  0  0  0  0  0  0
  190.7550  172.4840  140.7040 C   0  0  0  0  0  0  0  0  0  0  0  0
  191.4340  170.5850  137.5750 N   0  0  0  0  0  1  0  0  0  0  0  0
  190.7880  173.3570  142.9530 C   0  0  0  0  0  0  0  0  0  0  0  0
  189.0520  174.1780  141.3070 C   0  0  0  0  0  0  0  0  0  0  0  0
  189.4710  174.0720  142.7530 C   0  0  0  0  0  2  0  0  0  0  0  0
  189.6440  173.2510  140.3200 C   0  0  0  0  0  0  0  0  0  0  0  0
  189.7290  172.2450  138.1080 C   0  0  0  0  0  3  0  0  0  0  0  0
  189.1360  173.1290  139.0140 C   0  0  0  0  0  3  0  0  0  0  0  0
  191.3470  171.6050  139.7920 C   0  0  0  0  0  3  0  0  0  0  0  0
  190.8320  171.4830  138.4980 C   0  0  0  0  0  0  0  0  0  0  0  0
  191.3140  172.6230  142.0160 N   0  0  0  0  0  0  0  0  0  0  0  0
  186.9700  176.7700  142.5830 C   0  0  0  0  0  0  0  0  0  0  0  0
  187.4970  176.0020  141.8180 C   0  0  0  0  0  0  0  0  0  0  0  0
  185.3570  178.0930  145.6870 C   0  0  0  0  0  0  0  0  0  0  0  0
  186.3440  177.6730  143.5070 C   0  0  0  0  0  0  0  0  0  0  0  0
  185.1110  179.4220  145.3070 C   0  0  0  0  0  3  0  0  0  0  0  0
  185.9750  177.2240  144.7800 C   0  0  0  0  0  3  0  0  0  0  0  0
  186.0980  178.9980  143.1350 C   0  0  0  0  0  3  0  0  0  0  0  0
  185.4820  179.8730  144.0350 C   0  0  0  0  0  3  0  0  0  0  0  0
  185.9410  177.4490  148.0050 C   0  0  0  0  0  1  0  0  0  0  0  0
  185.0020  177.6120  146.9520 O   0  0  0  0  0  0  0  0  0  0  0  0
  190.9150  174.1200  145.3160 N   0  0  0  0  0  2  0  0  0  0  0  0
  191.9240  175.0650  145.7710 C   0  0  0  0  0  2  0  0  0  0  0  0
  191.7220  176.3840  145.0930 C   0  0  0  0  0  0  0  0  0  0  0  0
  192.6940  177.0200  144.7140 O   0  0  0  0  0  0  0  0  0  0  0  0
  190.3490  176.9500  144.8860 C   0  0  1  0  0  3  0  0  0  0  0  0
  188.8200  176.3970  146.6390 O   0  0  0  0  0  1  0  0  0  0  0  0
  189.7120  177.3770  146.2020 C   0  0  0  0  0  2  0  0  0  0  0  0
  190.1910  177.9250  142.7450 O   0  0  0  0  0  0  0  0  0  0  0  0
  190.4030  178.1010  143.9350 C   0  0  0  0  0  3  0  0  0  0  0  0
  1  6  2  0  0  0  0
  1 15  1  0  0  0  0
  2 24  1  0  0  0  0
  3 13  1  0  0  0  0
  4 12  1  0  0  0  0
  5  2  1  0  0  0  0
  6  7  1  0  0  0  0
  7  5  1  0  0  0  0
  8  3  1  0  0  0  0
  8  6  1  0  0  0  0
  9 12  2  0  0  0  0
  9 10  1  0  0  0  0
 10  8  2  0  0  0  0
 11  3  2  0  0  0  0
 12 11  1  0  0  0  0
 13  5  2  0  0  0  0
 14 17  1  0  0  0  0
 15 14  3  0  0  0  0
 16 23  1  0  0  0  0
 17 19  1  0  0  0  0
 18 16  1  0  0  0  0
 19 16  2  0  0  0  0
 20 17  2  0  0  0  0
 20 21  1  0  0  0  0
 21 18  2  0  0  0  0
 23 22  1  0  0  0  0
 24 25  1  0  0  0  0
 26 25  1  0  0  0  0
 27 26  2  0  0  0  0
 28 32  1  6  0  0  0
 28 26  1  0  0  0  0
 28 30  1  0  0  0  0
 30 29  1  0  0  0  0
 31 32  2  0  0  0  0
M  END
>  <MODEL>
6

>  <REMARK>
 VINA RESULT:      -6.6      2.488      5.330
  Name = 
  9 active torsions:
  status: ('A' for Active; 'I' for Inactive)
    1  A    between atoms: C_1  and  C_17
    2  A    between atoms: C_1  and  C_20
    3  A    between atoms: C_3  and  C_19
    4  A    between atoms: N_5  and  N_22
    5  A    between atoms: C_7  and  C_16
    6  A    between atoms: C_11  and  O_15
    7  A    between atoms: C_12  and  C_20
    8  A    between atoms: C_17  and  N_22
    9  A    between atoms: C_20  and  C_27
                            x       y       z     vdW  Elec       q    Type
                         _______ _______ _______ _____ _____    ______ ____

>  <TORSDO>
F 9

$$$$
=
 OpenBabel11042416373D

 32 34  0  0  1  0  0  0  0  0999 V2000
  187.7660  174.7770  141.7470 C   0  0  0  0  0  3  0  0  0  0  0  0
  192.2990  175.9210  143.4040 N   0  0  0  0  0  2  0  0  0  0  0  0
  191.1150  173.5200  140.8420 C   0  0  0  0  0  0  0  0  0  0  0  0
  191.6410  170.9810  138.1700 N   0  0  0  0  0  1  0  0  0  0  0  0
  191.4050  175.1290  142.6160 C   0  0  0  0  0  0  0  0  0  0  0  0
  189.0780  174.5280  141.8260 C   0  0  0  0  0  0  0  0  0  0  0  0
  189.9220  175.1520  142.9110 C   0  0  0  0  0  2  0  0  0  0  0  0
  189.7140  173.5950  140.8720 C   0  0  0  0  0  0  0  0  0  0  0  0
  189.5980  171.9330  139.1010 C   0  0  0  0  0  3  0  0  0  0  0  0
  188.9590  172.7990  139.9930 C   0  0  0  0  0  3  0  0  0  0  0  0
  191.7500  172.6560  139.9440 C   0  0  0  0  0  3  0  0  0  0  0  0
  190.9930  171.8610  139.0780 C   0  0  0  0  0  0  0  0  0  0  0  0
  191.9050  174.3520  141.7000 N   0  0  0  0  0  0  0  0  0  0  0  0
  186.4690  176.4180  143.3680 C   0  0  0  0  0  0  0  0  0  0  0  0
  187.0670  175.6670  142.6380 C   0  0  0  0  0  0  0  0  0  0  0  0
  185.3410  178.2330  146.4370 C   0  0  0  0  0  0  0  0  0  0  0  0
  185.7460  177.3140  144.2240 C   0  0  0  0  0  0  0  0  0  0  0  0
  184.3310  179.0490  145.9000 C   0  0  0  0  0  3  0  0  0  0  0  0
  186.0440  177.3670  145.5910 C   0  0  0  0  0  3  0  0  0  0  0  0
  184.7420  178.1310  143.6960 C   0  0  0  0  0  3  0  0  0  0  0  0
  184.0340  178.9990  144.5340 C   0  0  0  0  0  3  0  0  0  0  0  0
  186.9150  178.7300  148.2810 C   0  0  0  0  0  1  0  0  0  0  0  0
  185.6640  178.2620  147.7970 O   0  0  0  0  0  0  0  0  0  0  0  0
  191.8610  176.7250  144.4670 N   0  0  0  0  0  2  0  0  0  0  0  0
  192.6890  176.4170  145.6240 C   0  0  0  0  0  2  0  0  0  0  0  0
  192.0940  175.2720  146.3800 C   0  0  0  0  0  0  0  0  0  0  0  0
  192.4180  174.1290  146.0940 O   0  0  0  0  0  0  0  0  0  0  0  0
  191.0900  175.4980  147.4720 C   0  0  1  0  0  3  0  0  0  0  0  0
  190.1570  177.6980  147.5270 O   0  0  0  0  0  1  0  0  0  0  0  0
  191.1850  176.9080  148.0400 C   0  0  0  0  0  2  0  0  0  0  0  0
  188.9290  174.5670  147.6340 O   0  0  0  0  0  0  0  0  0  0  0  0
  189.7090  175.2290  146.9670 C   0  0  0  0  0  3  0  0  0  0  0  0
  1  6  2  0  0  0  0
  1 15  1  0  0  0  0
  2 24  1  0  0  0  0
  3  8  1  0  0  0  0
  3 13  1  0  0  0  0
  4 12  1  0  0  0  0
  5  7  1  0  0  0  0
  5  2  1  0  0  0  0
  6  7  1  0  0  0  0
  8  6  1  0  0  0  0
  9 10  1  0  0  0  0
 10  8  2  0  0  0  0
 11  3  2  0  0  0  0
 12  9  2  0  0  0  0
 12 11  1  0  0  0  0
 13  5  2  0  0  0  0
 14 17  1  0  0  0  0
 15 14  3  0  0  0  0
 16 23  1  0  0  0  0
 17 19  1  0  0  0  0
 18 16  1  0  0  0  0
 19 16  2  0  0  0  0
 20 17  2  0  0  0  0
 20 21  1  0  0  0  0
 21 18  2  0  0  0  0
 23 22  1  0  0  0  0
 24 25  1  0  0  0  0
 25 26  1  0  0  0  0
 26 28  1  0  0  0  0
 27 26  2  0  0  0  0
 28 32  1  6  0  0  0
 28 30  1  0  0  0  0
 29 30  1  0  0  0  0
 32 31  2  0  0  0  0
M  END
>  <MODEL>
7

>  <REMARK>
 VINA RESULT:      -6.5      2.942      5.649
  Name = 
  9 active torsions:
  status: ('A' for Active; 'I' for Inactive)
    1  A    between atoms: C_1  and  C_17
    2  A    between atoms: C_1  and  C_20
    3  A    between atoms: C_3  and  C_19
    4  A    between atoms: N_5  and  N_22
    5  A    between atoms: C_7  and  C_16
    6  A    between atoms: C_11  and  O_15
    7  A    between atoms: C_12  and  C_20
    8  A    between atoms: C_17  and  N_22
    9  A    between atoms: C_20  and  C_27
                            x       y       z     vdW  Elec       q    Type
                         _______ _______ _______ _____ _____    ______ ____

>  <TORSDO>
F 9

$$$$
=
 OpenBabel11042416373D

 32 34  0  0  1  0  0  0  0  0999 V2000
  191.2190  176.5610  145.0510 C   0  0  0  0  0  3  0  0  0  0  0  0
  191.6280  173.7140  141.0100 N   0  0  0  0  0  2  0  0  0  0  0  0
  193.9730  174.4590  143.7810 C   0  0  0  0  0  0  0  0  0  0  0  0
  197.1850  174.0510  145.6190 N   0  0  0  0  0  1  0  0  0  0  0  0
  192.1730  174.3340  142.1790 C   0  0  0  0  0  0  0  0  0  0  0  0
  191.9560  175.8330  144.2050 C   0  0  0  0  0  0  0  0  0  0  0  0
  191.4420  175.4870  142.8280 C   0  0  0  0  0  2  0  0  0  0  0  0
  193.3130  175.3940  144.5930 C   0  0  0  0  0  0  0  0  0  0  0  0
  195.2290  175.4300  146.0890 C   0  0  0  0  0  3  0  0  0  0  0  0
  193.9480  175.8750  145.7520 C   0  0  0  0  0  3  0  0  0  0  0  0
  195.2530  174.0140  144.1250 C   0  0  0  0  0  3  0  0  0  0  0  0
  195.8820  174.5020  145.2750 C   0  0  0  0  0  0  0  0  0  0  0  0
  193.3280  173.9260  142.6180 N   0  0  0  0  0  0  0  0  0  0  0  0
  188.7880  177.4460  144.4930 C   0  0  0  0  0  0  0  0  0  0  0  0
  189.8910  177.0330  144.7510 C   0  0  0  0  0  0  0  0  0  0  0  0
  185.2600  178.6180  144.8970 C   0  0  0  0  0  0  0  0  0  0  0  0
  187.4830  177.9510  144.1760 C   0  0  0  0  0  0  0  0  0  0  0  0
  184.9320  178.9220  143.5660 C   0  0  0  0  0  3  0  0  0  0  0  0
  186.5390  178.1330  145.1950 C   0  0  0  0  0  3  0  0  0  0  0  0
  187.1510  178.2580  142.8540 C   0  0  0  0  0  3  0  0  0  0  0  0
  185.8760  178.7430  142.5480 C   0  0  0  0  0  3  0  0  0  0  0  0
  184.6600  178.5210  147.2970 C   0  0  0  0  0  1  0  0  0  0  0  0
  184.3420  178.7890  145.9380 O   0  0  0  0  0  0  0  0  0  0  0  0
  190.4300  174.1400  140.4160 N   0  0  0  0  0  2  0  0  0  0  0  0
  189.4660  173.0570  140.5380 C   0  0  0  0  0  2  0  0  0  0  0  0
  188.8990  173.0400  141.9230 C   0  0  0  0  0  0  0  0  0  0  0  0
  188.1830  173.9600  142.2900 O   0  0  0  0  0  0  0  0  0  0  0  0
  189.2060  171.9240  142.8760 C   0  0  1  0  0  3  0  0  0  0  0  0
  191.3750  170.9240  142.9970 O   0  0  0  0  0  1  0  0  0  0  0  0
  190.1820  170.9220  142.2730 C   0  0  0  0  0  2  0  0  0  0  0  0
  189.4150  171.9790  145.2240 O   0  0  0  0  0  0  0  0  0  0  0  0
  189.7450  172.4730  144.1570 C   0  0  0  0  0  3  0  0  0  0  0  0
  2  5  1  0  0  0  0
  3 11  2  0  0  0  0
  3  8  1  0  0  0  0
  5 13  2  0  0  0  0
  5  7  1  0  0  0  0
  6  8  1  0  0  0  0
  6  1  2  0  0  0  0
  7  6  1  0  0  0  0
  8 10  2  0  0  0  0
 10  9  1  0  0  0  0
 11 12  1  0  0  0  0
 12  4  1  0  0  0  0
 12  9  2  0  0  0  0
 13  3  1  0  0  0  0
 14 15  3  0  0  0  0
 15  1  1  0  0  0  0
 16 19  1  0  0  0  0
 16 23  1  0  0  0  0
 17 14  1  0  0  0  0
 17 19  2  0  0  0  0
 18 16  2  0  0  0  0
 20 17  1  0  0  0  0
 21 20  2  0  0  0  0
 21 18  1  0  0  0  0
 23 22  1  0  0  0  0
 24 25  1  0  0  0  0
 24  2  1  0  0  0  0
 25 26  1  0  0  0  0
 26 27  2  0  0  0  0
 26 28  1  0  0  0  0
 28 30  1  6  0  0  0
 28 32  1  0  0  0  0
 30 29  1  0  0  0  0
 32 31  2  0  0  0  0
M  END
>  <MODEL>
8

>  <REMARK>
 VINA RESULT:      -6.5      2.195      3.462
  Name = 
  9 active torsions:
  status: ('A' for Active; 'I' for Inactive)
    1  A    between atoms: C_1  and  C_17
    2  A    between atoms: C_1  and  C_20
    3  A    between atoms: C_3  and  C_19
    4  A    between atoms: N_5  and  N_22
    5  A    between atoms: C_7  and  C_16
    6  A    between atoms: C_11  and  O_15
    7  A    between atoms: C_12  and  C_20
    8  A    between atoms: C_17  and  N_22
    9  A    between atoms: C_20  and  C_27
                            x       y       z     vdW  Elec       q    Type
                         _______ _______ _______ _____ _____    ______ ____

>  <TORSDO>
F 9

$$$$
=
 OpenBabel11042416373D

 32 34  0  0  1  0  0  0  0  0999 V2000
  190.0380  177.0860  146.0310 C   0  0  0  0  0  3  0  0  0  0  0  0
  188.1560  175.3100  141.8000 N   0  0  0  0  0  2  0  0  0  0  0  0
  186.6010  177.0300  144.6900 C   0  0  0  0  0  0  0  0  0  0  0  0
  183.7280  178.5670  146.4930 N   0  0  0  0  0  1  0  0  0  0  0  0
  188.0140  175.8940  143.0980 C   0  0  0  0  0  0  0  0  0  0  0  0
  188.9920  176.7450  145.2700 C   0  0  0  0  0  0  0  0  0  0  0  0
  189.1630  175.8350  144.0780 C   0  0  0  0  0  2  0  0  0  0  0  0
  187.6370  177.2230  145.6170 C   0  0  0  0  0  0  0  0  0  0  0  0
  186.0710  178.3130  147.1240 C   0  0  0  0  0  3  0  0  0  0  0  0
  187.3650  177.8710  146.8350 C   0  0  0  0  0  3  0  0  0  0  0  0
  185.3090  177.4800  144.9810 C   0  0  0  0  0  3  0  0  0  0  0  0
  185.0440  178.1160  146.1980 C   0  0  0  0  0  0  0  0  0  0  0  0
  186.8650  176.4090  143.4260 N   0  0  0  0  0  0  0  0  0  0  0  0
  192.5150  176.2860  145.5510 C   0  0  0  0  0  0  0  0  0  0  0  0
  191.3900  176.6610  145.7680 C   0  0  0  0  0  0  0  0  0  0  0  0
  195.9220  175.9890  144.0400 C   0  0  0  0  0  0  0  0  0  0  0  0
  193.8480  175.8230  145.2950 C   0  0  0  0  0  0  0  0  0  0  0  0
  196.4430  174.9160  144.7800 C   0  0  0  0  0  3  0  0  0  0  0  0
  194.6230  176.4370  144.3030 C   0  0  0  0  0  3  0  0  0  0  0  0
  194.3740  174.7570  146.0300 C   0  0  0  0  0  3  0  0  0  0  0  0
  195.6710  174.3020  145.7740 C   0  0  0  0  0  3  0  0  0  0  0  0
  197.5690  175.9280  142.1920 C   0  0  0  0  0  1  0  0  0  0  0  0
  196.6690  176.6250  143.0420 O   0  0  0  0  0  0  0  0  0  0  0  0
  189.3280  174.6590  141.3860 N   0  0  0  0  0  2  0  0  0  0  0  0
  188.9960  173.2640  141.1390 C   0  0  0  0  0  2  0  0  0  0  0  0
  188.6990  173.0670  139.6850 C   0  0  0  0  0  0  0  0  0  0  0  0
  187.8160  172.2910  139.3520 O   0  0  0  0  0  0  0  0  0  0  0  0
  189.4780  173.7910  138.6270 C   0  0  1  0  0  3  0  0  0  0  0  0
  190.6880  172.9790  136.7310 O   0  0  0  0  0  1  0  0  0  0  0  0
  190.6520  172.9600  138.1260 C   0  0  0  0  0  2  0  0  0  0  0  0
  187.6660  174.9570  137.6680 O   0  0  0  0  0  0  0  0  0  0  0  0
  188.5810  174.1670  137.4920 C   0  0  0  0  0  3  0  0  0  0  0  0
  2  5  1  0  0  0  0
  3 11  2  0  0  0  0
  3  8  1  0  0  0  0
  5 13  2  0  0  0  0
  5  7  1  0  0  0  0
  6  8  1  0  0  0  0
  6  1  2  0  0  0  0
  7  6  1  0  0  0  0
  8 10  2  0  0  0  0
 10  9  1  0  0  0  0
 11 12  1  0  0  0  0
 12  4  1  0  0  0  0
 12  9  2  0  0  0  0
 13  3  1  0  0  0  0
 14 15  3  0  0  0  0
 15  1  1  0  0  0  0
 16 19  2  0  0  0  0
 16 18  1  0  0  0  0
 17 14  1  0  0  0  0
 17 20  2  0  0  0  0
 18 21  2  0  0  0  0
 19 17  1  0  0  0  0
 21 20  1  0  0  0  0
 22 23  1  0  0  0  0
 23 16  1  0  0  0  0
 24  2  1  0  0  0  0
 25 24  1  0  0  0  0
 26 25  1  0  0  0  0
 27 26  2  0  0  0  0
 28 32  1  6  0  0  0
 28 26  1  0  0  0  0
 29 30  1  0  0  0  0
 30 28  1  0  0  0  0
 32 31  2  0  0  0  0
M  END
>  <MODEL>
9

>  <REMARK>
 VINA RESULT:      -6.3      3.051      7.720
  Name = 
  9 active torsions:
  status: ('A' for Active; 'I' for Inactive)
    1  A    between atoms: C_1  and  C_17
    2  A    between atoms: C_1  and  C_20
    3  A    between atoms: C_3  and  C_19
    4  A    between atoms: N_5  and  N_22
    5  A    between atoms: C_7  and  C_16
    6  A    between atoms: C_11  and  O_15
    7  A    between atoms: C_12  and  C_20
    8  A    between atoms: C_17  and  N_22
    9  A    between atoms: C_20  and  C_27
                            x       y       z     vdW  Elec       q    Type
                         _______ _______ _______ _____ _____    ______ ____

>  <TORSDO>
F 9

$$$$
