=
 OpenBabel11042416023D

 43 46  0  0  1  0  0  0  0  0999 V2000
  189.7460  174.9780  144.5480 C   0  0  2  0  0  3  0  0  0  0  0  0
  190.4280  175.5360  147.7300 O   0  0  0  0  0  1  0  0  0  0  0  0
  194.6880  175.9920  145.7830 N   0  0  0  0  0  0  0  0  0  0  0  0
  193.5060  176.5020  146.4680 C   0  0  0  0  0  2  0  0  0  0  0  0
  192.0390  173.9910  144.9730 C   0  0  0  0  0  2  0  0  0  0  0  0
  190.7730  174.5240  145.5990 C   0  0  1  0  0  3  0  0  0  0  0  0
  192.6580  175.3300  146.9030 C   0  0  2  0  0  3  0  0  0  0  0  0
  193.1010  174.1770  146.0360 C   0  0  2  0  0  3  0  0  0  0  0  0
  191.2000  175.6090  146.5730 C   0  0  2  0  0  3  0  0  0  0  0  0
  194.3990  174.6150  145.3930 C   0  0  0  0  0  2  0  0  0  0  0  0
  194.8120  176.7020  144.6340 O   0  0  0  0  0  0  0  0  0  0  0  0
  195.6550  175.9400  143.8170 C   0  0  0  0  0  2  0  0  0  0  0  0
  196.7050  176.8380  143.1910 C   0  0  0  0  0  2  0  0  0  0  0  0
  196.5510  176.8550  141.8060 O   0  0  0  0  0  0  0  0  0  0  0  0
  197.0140  175.6080  141.3860 C   0  0  0  0  0  2  0  0  0  0  0  0
  197.0420  175.5660  139.8720 C   0  0  0  0  0  1  0  0  0  0  0  0
  190.0460  174.5210  143.1180 C   0  0  0  0  0  2  0  0  0  0  0  0
  188.9340  173.7100  142.5310 C   0  0  0  0  0  0  0  0  0  0  0  0
  187.8570  174.2810  142.2200 O   0  0  0  0  0  0  0  0  0  0  0  0
  189.0660  172.3030  142.3180 N   0  0  0  0  0  2  0  0  0  0  0  0
  190.1860  171.5840  142.7620 N   0  0  0  0  0  2  0  0  0  0  0  0
  191.1620  171.5820  141.6800 C   0  0  0  0  0  2  0  0  0  0  0  0
  192.4070  170.3780  143.8490 S   0  0  0  0  0  0  0  0  0  0  0  0
  194.0540  171.0300  144.0310 C   0  0  0  0  0  0  0  0  0  0  0  0
  194.7920  170.9020  145.3230 C   0  0  0  0  0  1  0  0  0  0  0  0
  193.6840  171.6350  141.7540 C   0  0  0  0  0  2  0  0  0  0  0  0
  194.5590  171.6210  142.9550 C   0  0  0  0  0  0  0  0  0  0  0  0
  192.4310  170.8280  142.0780 C   0  0  2  0  0  3  0  0  0  0  0  0
  195.8980  172.2740  142.9340 C   0  0  0  0  0  1  0  0  0  0  0  0
  189.6350  176.4280  144.5680 N   0  0  0  0  0  2  0  0  0  0  0  0
  186.5220  178.4030  143.9200 C   0  0  0  0  0  0  0  0  0  0  0  0
  185.9790  178.4670  145.2060 C   0  0  0  0  0  3  0  0  0  0  0  0
  188.4000  177.1190  144.7880 C   0  0  0  0  0  0  0  0  0  0  0  0
  188.3010  177.6550  142.3980 N   0  0  0  0  0  1  0  0  0  0  0  0
  187.7360  177.7240  143.7050 C   0  0  0  0  0  0  0  0  0  0  0  0
  187.8450  177.2000  146.0730 C   0  0  0  0  0  3  0  0  0  0  0  0
  186.6350  177.8690  146.2910 C   0  0  0  0  0  0  0  0  0  0  0  0
  186.0220  176.6930  148.2410 F   0  0  0  0  0  0  0  0  0  0  0  0
  184.7340  178.4180  147.5720 F   0  0  0  0  0  0  0  0  0  0  0  0
  186.0320  177.9510  147.6650 C   0  0  0  0  0  0  0  0  0  0  0  0
  186.7580  178.8070  148.4770 F   0  0  0  0  0  0  0  0  0  0  0  0
  184.6770  178.1320  142.2950 C   0  0  0  0  0  1  0  0  0  0  0  0
  185.7840  179.0470  142.7920 C   0  0  0  0  0  2  0  0  0  0  0  0
  1 17  1  6  0  0  0
  1 30  1  0  0  0  0
  3  4  1  0  0  0  0
  5  6  1  0  0  0  0
  6  1  1  6  0  0  0
  6  9  1  0  0  0  0
  7  4  1  6  0  0  0
  8  5  1  6  0  0  0
  8  7  1  0  0  0  0
  9  7  1  0  0  0  0
  9  2  1  1  0  0  0
 10  3  1  0  0  0  0
 10  8  1  0  0  0  0
 11  3  1  0  0  0  0
 12 11  1  0  0  0  0
 13 12  1  0  0  0  0
 14 13  1  0  0  0  0
 15 14  1  0  0  0  0
 16 15  1  0  0  0  0
 18 17  1  0  0  0  0
 19 18  2  0  0  0  0
 20 18  1  0  0  0  0
 20 21  1  0  0  0  0
 22 21  1  0  0  0  0
 23 24  1  0  0  0  0
 24 25  1  0  0  0  0
 26 28  1  0  0  0  0
 26 27  1  0  0  0  0
 27 24  2  0  0  0  0
 28 22  1  1  0  0  0
 28 23  1  0  0  0  0
 29 27  1  0  0  0  0
 30 33  1  0  0  0  0
 31 32  1  0  0  0  0
 32 37  2  0  0  0  0
 33 36  2  0  0  0  0
 34 35  1  0  0  0  0
 35 31  2  0  0  0  0
 35 33  1  0  0  0  0
 36 37  1  0  0  0  0
 37 40  1  0  0  0  0
 39 40  1  0  0  0  0
 40 38  1  0  0  0  0
 40 41  1  0  0  0  0
 42 43  1  0  0  0  0
 43 31  1  0  0  0  0
M  END
>  <MODEL>
1

>  <REMARK>
 VINA RESULT:      -7.2      0.000      0.000
  Name = 
  15 active torsions:
  status: ('A' for Active; 'I' for Inactive)
    1  A    between atoms: O_3  and  C_7
    2  A    between atoms: O_3  and  C_29
    3  A    between atoms: C_4  and  C_30
    4  A    between atoms: C_7  and  C_31
    5  A    between atoms: N_8  and  O_20
    6  A    between atoms: C_11  and  C_19
    7  A    between atoms: C_11  and  C_38
    8  A    between atoms: C_11  and  N_41
    9  A    between atoms: C_12  and  N_41
   10  A    between atoms: C_14  and  C_38
   11  A    between atoms: C_16  and  C_24
   12  A    between atoms: C_16  and  N_28
   13  A    between atoms: O_20  and  C_31
   14  A    between atoms: N_28  and  N_42
   15  A    between atoms: C_39  and  C_43
                            x       y       z     vdW  Elec       q    Type
                         _______ _______ _______ _____ _____    ______ ____

>  <TORSDO>
F 15

$$$$
=
 OpenBabel11042416023D

 43 46  0  0  1  0  0  0  0  0999 V2000
  190.7340  175.0110  145.3400 C   0  0  2  0  0  3  0  0  0  0  0  0
  192.0500  176.7550  147.8160 O   0  0  0  0  0  1  0  0  0  0  0  0
  195.6650  176.5530  144.8090 N   0  0  0  0  0  0  0  0  0  0  0  0
  194.6170  177.2530  145.5440 C   0  0  0  0  0  2  0  0  0  0  0  0
  193.1660  174.3240  145.4870 C   0  0  0  0  0  2  0  0  0  0  0  0
  192.0210  175.0190  146.1810 C   0  0  1  0  0  3  0  0  0  0  0  0
  194.0400  176.3120  146.5740 C   0  0  2  0  0  3  0  0  0  0  0  0
  194.4120  174.9280  146.0990 C   0  0  2  0  0  3  0  0  0  0  0  0
  192.5230  176.4040  146.5530 C   0  0  2  0  0  3  0  0  0  0  0  0
  195.4650  175.1240  145.0310 C   0  0  0  0  0  2  0  0  0  0  0  0
  195.4350  176.7770  143.4920 O   0  0  0  0  0  0  0  0  0  0  0  0
  196.6610  176.5460  142.8580 C   0  0  0  0  0  2  0  0  0  0  0  0
  196.4290  176.2650  141.3850 C   0  0  0  0  0  2  0  0  0  0  0  0
  195.1140  176.5770  141.0450 O   0  0  0  0  0  0  0  0  0  0  0  0
  194.6660  175.4690  140.3260 C   0  0  0  0  0  2  0  0  0  0  0  0
  193.4630  174.8680  141.0250 C   0  0  0  0  0  1  0  0  0  0  0  0
  190.7580  174.0650  144.1370 C   0  0  0  0  0  2  0  0  0  0  0  0
  190.4100  172.6580  144.5070 C   0  0  0  0  0  0  0  0  0  0  0  0
  189.4460  172.4500  145.2870 O   0  0  0  0  0  0  0  0  0  0  0  0
  191.1500  171.5460  143.9980 N   0  0  0  0  0  2  0  0  0  0  0  0
  192.3140  171.7130  143.2330 N   0  0  0  0  0  2  0  0  0  0  0  0
  192.6710  170.4080  142.6880 C   0  0  0  0  0  2  0  0  0  0  0  0
  193.5560  168.7300  144.7140 S   0  0  0  0  0  0  0  0  0  0  0  0
  194.7110  169.6020  145.7510 C   0  0  0  0  0  0  0  0  0  0  0  0
  195.0200  169.1210  147.1300 C   0  0  0  0  0  1  0  0  0  0  0  0
  194.8490  170.9950  143.8190 C   0  0  0  0  0  2  0  0  0  0  0  0
  195.2630  170.6830  145.2110 C   0  0  0  0  0  0  0  0  0  0  0  0
  193.9440  169.8650  143.3360 C   0  0  2  0  0  3  0  0  0  0  0  0
  196.2090  171.5700  145.9450 C   0  0  0  0  0  1  0  0  0  0  0  0
  190.4450  176.3600  144.8760 N   0  0  0  0  0  2  0  0  0  0  0  0
  187.2870  177.9880  143.6980 C   0  0  0  0  0  0  0  0  0  0  0  0
  186.5590  178.0410  144.8890 C   0  0  0  0  0  3  0  0  0  0  0  0
  189.1310  176.9300  144.8850 C   0  0  0  0  0  0  0  0  0  0  0  0
  189.3320  177.3690  142.4810 N   0  0  0  0  0  1  0  0  0  0  0  0
  188.5780  177.4270  143.6910 C   0  0  0  0  0  0  0  0  0  0  0  0
  188.3900  176.9990  146.0730 C   0  0  0  0  0  3  0  0  0  0  0  0
  187.1040  177.5500  146.0840 C   0  0  0  0  0  0  0  0  0  0  0  0
  186.8860  178.5280  148.2190 F   0  0  0  0  0  0  0  0  0  0  0  0
  186.2790  176.3740  147.9520 F   0  0  0  0  0  0  0  0  0  0  0  0
  186.3020  177.6200  147.3540 C   0  0  0  0  0  0  0  0  0  0  0  0
  185.0000  178.0190  147.1000 F   0  0  0  0  0  0  0  0  0  0  0  0
  185.1630  178.6670  142.6290 C   0  0  0  0  0  1  0  0  0  0  0  0
  186.6630  178.5140  142.4460 C   0  0  0  0  0  2  0  0  0  0  0  0
  1 17  1  6  0  0  0
  3 10  1  0  0  0  0
  3  4  1  0  0  0  0
  5  8  1  0  0  0  0
  5  6  1  0  0  0  0
  6  1  1  6  0  0  0
  6  9  1  0  0  0  0
  7  4  1  6  0  0  0
  8 10  1  6  0  0  0
  8  7  1  0  0  0  0
  9  7  1  0  0  0  0
  9  2  1  1  0  0  0
 11  3  1  0  0  0  0
 12 11  1  0  0  0  0
 13 12  1  0  0  0  0
 14 13  1  0  0  0  0
 15 16  1  0  0  0  0
 15 14  1  0  0  0  0
 17 18  1  0  0  0  0
 18 19  2  0  0  0  0
 20 18  1  0  0  0  0
 21 20  1  0  0  0  0
 22 21  1  0  0  0  0
 23 24  1  0  0  0  0
 24 25  1  0  0  0  0
 26 27  1  0  0  0  0
 27 24  2  0  0  0  0
 27 29  1  0  0  0  0
 28 22  1  1  0  0  0
 28 26  1  0  0  0  0
 28 23  1  0  0  0  0
 30 33  1  0  0  0  0
 30  1  1  0  0  0  0
 31 32  1  0  0  0  0
 32 37  2  0  0  0  0
 33 36  2  0  0  0  0
 34 35  1  0  0  0  0
 35 31  2  0  0  0  0
 35 33  1  0  0  0  0
 36 37  1  0  0  0  0
 37 40  1  0  0  0  0
 40 39  1  0  0  0  0
 40 38  1  0  0  0  0
 41 40  1  0  0  0  0
 43 42  1  0  0  0  0
 43 31  1  0  0  0  0
M  END
>  <MODEL>
2

>  <REMARK>
 VINA RESULT:      -7.0      1.466      1.954
  Name = 
  15 active torsions:
  status: ('A' for Active; 'I' for Inactive)
    1  A    between atoms: O_3  and  C_7
    2  A    between atoms: O_3  and  C_29
    3  A    between atoms: C_4  and  C_30
    4  A    between atoms: C_7  and  C_31
    5  A    between atoms: N_8  and  O_20
    6  A    between atoms: C_11  and  C_19
    7  A    between atoms: C_11  and  C_38
    8  A    between atoms: C_11  and  N_41
    9  A    between atoms: C_12  and  N_41
   10  A    between atoms: C_14  and  C_38
   11  A    between atoms: C_16  and  C_24
   12  A    between atoms: C_16  and  N_28
   13  A    between atoms: O_20  and  C_31
   14  A    between atoms: N_28  and  N_42
   15  A    between atoms: C_39  and  C_43
                            x       y       z     vdW  Elec       q    Type
                         _______ _______ _______ _____ _____    ______ ____

>  <TORSDO>
F 15

$$$$
=
 OpenBabel11042416023D

 43 46  0  0  1  0  0  0  0  0999 V2000
  190.5820  175.1440  145.1020 C   0  0  2  0  0  3  0  0  0  0  0  0
  191.9560  176.6920  147.6750 O   0  0  0  0  0  1  0  0  0  0  0  0
  195.6560  176.2140  144.8070 N   0  0  0  0  0  0  0  0  0  0  0  0
  194.6510  176.9940  145.5190 C   0  0  0  0  0  2  0  0  0  0  0  0
  192.9290  174.2210  145.3240 C   0  0  0  0  0  2  0  0  0  0  0  0
  191.8280  175.0070  145.9930 C   0  0  1  0  0  3  0  0  0  0  0  0
  193.9440  176.0880  146.5000 C   0  0  2  0  0  3  0  0  0  0  0  0
  194.2010  174.6870  146.0010 C   0  0  2  0  0  3  0  0  0  0  0  0
  192.4450  176.3270  146.4220 C   0  0  2  0  0  3  0  0  0  0  0  0
  195.3110  174.8060  144.9810 C   0  0  0  0  0  2  0  0  0  0  0  0
  195.5030  176.4900  143.4880 O   0  0  0  0  0  0  0  0  0  0  0  0
  196.8030  176.6190  142.9840 C   0  0  0  0  0  2  0  0  0  0  0  0
  196.8220  176.2340  141.5180 C   0  0  0  0  0  2  0  0  0  0  0  0
  195.5500  175.8280  141.1170 O   0  0  0  0  0  0  0  0  0  0  0  0
  195.7220  175.3740  139.8100 C   0  0  0  0  0  2  0  0  0  0  0  0
  197.1980  175.3790  139.4660 C   0  0  0  0  0  1  0  0  0  0  0  0
  190.7010  174.4870  143.7250 C   0  0  0  0  0  2  0  0  0  0  0  0
  189.6460  173.4530  143.4890 C   0  0  0  0  0  0  0  0  0  0  0  0
  189.4790  172.5430  144.3410 O   0  0  0  0  0  0  0  0  0  0  0  0
  188.8270  173.4750  142.3180 N   0  0  0  0  0  2  0  0  0  0  0  0
  189.0480  174.3800  141.2700 N   0  0  0  0  0  2  0  0  0  0  0  0
  188.4800  173.7970  140.0610 C   0  0  0  0  0  2  0  0  0  0  0  0
  189.2990  173.6970  137.4110 S   0  0  0  0  0  0  0  0  0  0  0  0
  189.5320  172.0010  136.9210 C   0  0  0  0  0  0  0  0  0  0  0  0
  189.5500  171.6140  135.4790 C   0  0  0  0  0  1  0  0  0  0  0  0
  189.6610  171.7070  139.2840 C   0  0  0  0  0  2  0  0  0  0  0  0
  189.6880  171.1340  137.9140 C   0  0  0  0  0  0  0  0  0  0  0  0
  189.5690  173.2240  139.1550 C   0  0  2  0  0  3  0  0  0  0  0  0
  189.8390  169.6670  137.7010 C   0  0  0  0  0  1  0  0  0  0  0  0
  190.2570  176.5520  144.9290 N   0  0  0  0  0  2  0  0  0  0  0  0
  187.0820  178.0390  143.6210 C   0  0  0  0  0  0  0  0  0  0  0  0
  186.2880  178.0180  144.7710 C   0  0  0  0  0  3  0  0  0  0  0  0
  188.9150  177.0490  144.8800 C   0  0  0  0  0  0  0  0  0  0  0  0
  189.2200  177.5680  142.5040 N   0  0  0  0  0  1  0  0  0  0  0  0
  188.4010  177.5490  143.6710 C   0  0  0  0  0  0  0  0  0  0  0  0
  188.1090  177.0440  146.0270 C   0  0  0  0  0  3  0  0  0  0  0  0
  186.7950  177.5230  145.9810 C   0  0  0  0  0  0  0  0  0  0  0  0
  186.1690  178.6480  147.9570 F   0  0  0  0  0  0  0  0  0  0  0  0
  186.2120  176.3940  147.9660 F   0  0  0  0  0  0  0  0  0  0  0  0
  185.9240  177.5120  147.2060 C   0  0  0  0  0  0  0  0  0  0  0  0
  184.5820  177.4860  146.8630 F   0  0  0  0  0  0  0  0  0  0  0  0
  184.9800  178.5300  142.4130 C   0  0  0  0  0  1  0  0  0  0  0  0
  186.4970  178.5660  142.3510 C   0  0  0  0  0  2  0  0  0  0  0  0
  1 17  1  6  0  0  0
  3 10  1  0  0  0  0
  3  4  1  0  0  0  0
  5  6  1  0  0  0  0
  5  8  1  0  0  0  0
  6  1  1  6  0  0  0
  6  9  1  0  0  0  0
  7  4  1  6  0  0  0
  8 10  1  6  0  0  0
  8  7  1  0  0  0  0
  9  7  1  0  0  0  0
  9  2  1  1  0  0  0
 11  3  1  0  0  0  0
 12 11  1  0  0  0  0
 13 12  1  0  0  0  0
 14 13  1  0  0  0  0
 15 14  1  0  0  0  0
 16 15  1  0  0  0  0
 18 17  1  0  0  0  0
 18 19  2  0  0  0  0
 20 18  1  0  0  0  0
 21 20  1  0  0  0  0
 22 21  1  0  0  0  0
 23 28  1  0  0  0  0
 24 23  1  0  0  0  0
 24 27  2  0  0  0  0
 25 24  1  0  0  0  0
 27 26  1  0  0  0  0
 28 26  1  0  0  0  0
 28 22  1  1  0  0  0
 29 27  1  0  0  0  0
 30  1  1  0  0  0  0
 31 35  2  0  0  0  0
 31 32  1  0  0  0  0
 32 37  2  0  0  0  0
 33 30  1  0  0  0  0
 33 36  2  0  0  0  0
 34 35  1  0  0  0  0
 35 33  1  0  0  0  0
 37 36  1  0  0  0  0
 37 40  1  0  0  0  0
 40 38  1  0  0  0  0
 40 39  1  0  0  0  0
 41 40  1  0  0  0  0
 43 42  1  0  0  0  0
 43 31  1  0  0  0  0
M  END
>  <MODEL>
3

>  <REMARK>
 VINA RESULT:      -6.9      2.359      3.483
  Name = 
  15 active torsions:
  status: ('A' for Active; 'I' for Inactive)
    1  A    between atoms: O_3  and  C_7
    2  A    between atoms: O_3  and  C_29
    3  A    between atoms: C_4  and  C_30
    4  A    between atoms: C_7  and  C_31
    5  A    between atoms: N_8  and  O_20
    6  A    between atoms: C_11  and  C_19
    7  A    between atoms: C_11  and  C_38
    8  A    between atoms: C_11  and  N_41
    9  A    between atoms: C_12  and  N_41
   10  A    between atoms: C_14  and  C_38
   11  A    between atoms: C_16  and  C_24
   12  A    between atoms: C_16  and  N_28
   13  A    between atoms: O_20  and  C_31
   14  A    between atoms: N_28  and  N_42
   15  A    between atoms: C_39  and  C_43
                            x       y       z     vdW  Elec       q    Type
                         _______ _______ _______ _____ _____    ______ ____

>  <TORSDO>
F 15

$$$$
=
 OpenBabel11042416023D

 43 46  0  0  1  0  0  0  0  0999 V2000
  190.3150  175.2600  144.8110 C   0  0  2  0  0  3  0  0  0  0  0  0
  191.5070  176.4630  147.6460 O   0  0  0  0  0  1  0  0  0  0  0  0
  195.3950  176.3260  144.9980 N   0  0  0  0  0  0  0  0  0  0  0  0
  194.3420  177.0170  145.7330 C   0  0  0  0  0  2  0  0  0  0  0  0
  192.6430  174.3010  145.0730 C   0  0  0  0  0  2  0  0  0  0  0  0
  191.4980  175.0040  145.7590 C   0  0  1  0  0  3  0  0  0  0  0  0
  193.5710  175.9990  146.5410 C   0  0  2  0  0  3  0  0  0  0  0  0
  193.8650  174.6710  145.8880 C   0  0  2  0  0  3  0  0  0  0  0  0
  192.0810  176.2560  146.3930 C   0  0  2  0  0  3  0  0  0  0  0  0
  195.0420  174.9100  144.9680 C   0  0  0  0  0  2  0  0  0  0  0  0
  195.3320  176.7680  143.7170 O   0  0  0  0  0  0  0  0  0  0  0  0
  196.5270  176.3480  143.1220 C   0  0  0  0  0  2  0  0  0  0  0  0
  196.4420  176.5390  141.6190 C   0  0  0  0  0  2  0  0  0  0  0  0
  195.1100  176.6780  141.2330 O   0  0  0  0  0  0  0  0  0  0  0  0
  194.8100  175.4870  140.5740 C   0  0  0  0  0  2  0  0  0  0  0  0
  193.5000  174.9360  141.1020 C   0  0  0  0  0  1  0  0  0  0  0  0
  190.5100  174.7390  143.3850 C   0  0  0  0  0  2  0  0  0  0  0  0
  189.7080  173.5060  143.1100 C   0  0  0  0  0  0  0  0  0  0  0  0
  189.4750  172.7050  144.0500 O   0  0  0  0  0  0  0  0  0  0  0  0
  189.2050  173.2190  141.8030 N   0  0  0  0  0  2  0  0  0  0  0  0
  189.5390  173.9990  140.6870 N   0  0  0  0  0  2  0  0  0  0  0  0
  190.1430  173.1130  139.6990 C   0  0  0  0  0  2  0  0  0  0  0  0
  190.3170  173.3900  136.9430 S   0  0  0  0  0  0  0  0  0  0  0  0
  189.0940  174.5550  136.3800 C   0  0  0  0  0  0  0  0  0  0  0  0
  189.2210  175.2200  135.0490 C   0  0  0  0  0  1  0  0  0  0  0  0
  188.1180  174.0080  138.4870 C   0  0  0  0  0  2  0  0  0  0  0  0
  188.0860  174.7760  137.2160 C   0  0  0  0  0  0  0  0  0  0  0  0
  189.3030  173.0480  138.4240 C   0  0  2  0  0  3  0  0  0  0  0  0
  186.9990  175.7580  136.9430 C   0  0  0  0  0  1  0  0  0  0  0  0
  190.0300  176.6860  144.7600 N   0  0  0  0  0  2  0  0  0  0  0  0
  186.7380  178.2300  143.8700 C   0  0  0  0  0  0  0  0  0  0  0  0
  186.1270  178.2880  145.1250 C   0  0  0  0  0  3  0  0  0  0  0  0
  188.7110  177.2290  144.8870 C   0  0  0  0  0  0  0  0  0  0  0  0
  188.6690  177.6340  142.4700 N   0  0  0  0  0  1  0  0  0  0  0  0
  188.0350  177.6960  143.7460 C   0  0  0  0  0  0  0  0  0  0  0  0
  188.0860  177.3020  146.1400 C   0  0  0  0  0  3  0  0  0  0  0  0
  186.7950  177.8270  146.2680 C   0  0  0  0  0  0  0  0  0  0  0  0
  186.8310  178.7480  148.4390 F   0  0  0  0  0  0  0  0  0  0  0  0
  186.0780  176.6400  148.1740 F   0  0  0  0  0  0  0  0  0  0  0  0
  186.1190  177.9010  147.6090 C   0  0  0  0  0  0  0  0  0  0  0  0
  184.8240  178.3790  147.4880 F   0  0  0  0  0  0  0  0  0  0  0  0
  184.5510  178.2250  142.7160 C   0  0  0  0  0  1  0  0  0  0  0  0
  185.9850  178.7240  142.6780 C   0  0  0  0  0  2  0  0  0  0  0  0
  1 17  1  6  0  0  0
  3  4  1  0  0  0  0
  5  6  1  0  0  0  0
  5  8  1  0  0  0  0
  6  1  1  6  0  0  0
  6  9  1  0  0  0  0
  7  4  1  6  0  0  0
  8 10  1  6  0  0  0
  8  7  1  0  0  0  0
  9  7  1  0  0  0  0
  9  2  1  1  0  0  0
 10  3  1  0  0  0  0
 11  3  1  0  0  0  0
 12 11  1  0  0  0  0
 13 12  1  0  0  0  0
 14 13  1  0  0  0  0
 15 16  1  0  0  0  0
 15 14  1  0  0  0  0
 18 17  1  0  0  0  0
 18 19  2  0  0  0  0
 20 18  1  0  0  0  0
 21 20  1  0  0  0  0
 22 21  1  0  0  0  0
 23 28  1  0  0  0  0
 24 23  1  0  0  0  0
 24 27  2  0  0  0  0
 25 24  1  0  0  0  0
 27 26  1  0  0  0  0
 28 26  1  0  0  0  0
 28 22  1  1  0  0  0
 29 27  1  0  0  0  0
 30  1  1  0  0  0  0
 30 33  1  0  0  0  0
 31 32  1  0  0  0  0
 32 37  2  0  0  0  0
 33 36  2  0  0  0  0
 34 35  1  0  0  0  0
 35 31  2  0  0  0  0
 35 33  1  0  0  0  0
 36 37  1  0  0  0  0
 37 40  1  0  0  0  0
 40 39  1  0  0  0  0
 40 38  1  0  0  0  0
 41 40  1  0  0  0  0
 43 42  1  0  0  0  0
 43 31  1  0  0  0  0
M  END
>  <MODEL>
4

>  <REMARK>
 VINA RESULT:      -6.9      2.715      3.984
  Name = 
  15 active torsions:
  status: ('A' for Active; 'I' for Inactive)
    1  A    between atoms: O_3  and  C_7
    2  A    between atoms: O_3  and  C_29
    3  A    between atoms: C_4  and  C_30
    4  A    between atoms: C_7  and  C_31
    5  A    between atoms: N_8  and  O_20
    6  A    between atoms: C_11  and  C_19
    7  A    between atoms: C_11  and  C_38
    8  A    between atoms: C_11  and  N_41
    9  A    between atoms: C_12  and  N_41
   10  A    between atoms: C_14  and  C_38
   11  A    between atoms: C_16  and  C_24
   12  A    between atoms: C_16  and  N_28
   13  A    between atoms: O_20  and  C_31
   14  A    between atoms: N_28  and  N_42
   15  A    between atoms: C_39  and  C_43
                            x       y       z     vdW  Elec       q    Type
                         _______ _______ _______ _____ _____    ______ ____

>  <TORSDO>
F 15

$$$$
=
 OpenBabel11042416023D

 43 46  0  0  1  0  0  0  0  0999 V2000
  190.3810  174.9940  145.1220 C   0  0  2  0  0  3  0  0  0  0  0  0
  191.5700  176.6370  147.7290 O   0  0  0  0  0  1  0  0  0  0  0  0
  195.3620  176.4580  144.9460 N   0  0  0  0  0  0  0  0  0  0  0  0
  194.2830  177.1550  145.6360 C   0  0  0  0  0  2  0  0  0  0  0  0
  192.7870  174.2570  145.3980 C   0  0  0  0  0  2  0  0  0  0  0  0
  191.6140  174.9530  146.0410 C   0  0  1  0  0  3  0  0  0  0  0  0
  193.6260  176.1940  146.5990 C   0  0  2  0  0  3  0  0  0  0  0  0
  194.0030  174.8190  146.1040 C   0  0  2  0  0  3  0  0  0  0  0  0
  192.1150  176.3160  146.4870 C   0  0  2  0  0  3  0  0  0  0  0  0
  195.1240  175.0270  145.1100 C   0  0  0  0  0  2  0  0  0  0  0  0
  195.2180  176.7260  143.6240 O   0  0  0  0  0  0  0  0  0  0  0  0
  196.4590  176.4270  143.0500 C   0  0  0  0  0  2  0  0  0  0  0  0
  196.3570  176.5190  141.5390 C   0  0  0  0  0  2  0  0  0  0  0  0
  197.2590  175.6370  140.9480 O   0  0  0  0  0  0  0  0  0  0  0  0
  196.9830  174.4040  141.5380 C   0  0  0  0  0  2  0  0  0  0  0  0
  197.9260  173.3570  140.9810 C   0  0  0  0  0  1  0  0  0  0  0  0
  190.5090  174.1720  143.8380 C   0  0  0  0  0  2  0  0  0  0  0  0
  189.6090  172.9770  143.8300 C   0  0  0  0  0  0  0  0  0  0  0  0
  189.6760  172.1540  144.7790 O   0  0  0  0  0  0  0  0  0  0  0  0
  188.6800  172.7480  142.7690 N   0  0  0  0  0  2  0  0  0  0  0  0
  188.6480  173.5520  141.6200 N   0  0  0  0  0  2  0  0  0  0  0  0
  188.7030  172.6650  140.4640 C   0  0  0  0  0  2  0  0  0  0  0  0
  190.9700  171.0670  140.5860 S   0  0  0  0  0  0  0  0  0  0  0  0
  192.3830  172.0650  141.0040 C   0  0  0  0  0  0  0  0  0  0  0  0
  193.6270  171.4460  141.5510 C   0  0  0  0  0  1  0  0  0  0  0  0
  190.9440  173.8000  140.2220 C   0  0  0  0  0  2  0  0  0  0  0  0
  192.2470  173.3690  140.7920 C   0  0  0  0  0  0  0  0  0  0  0  0
  190.1270  172.5470  139.9230 C   0  0  2  0  0  3  0  0  0  0  0  0
  193.3000  174.3670  141.1320 C   0  0  0  0  0  1  0  0  0  0  0  0
  190.0790  176.3750  144.7730 N   0  0  0  0  0  2  0  0  0  0  0  0
  186.9680  178.0260  143.5080 C   0  0  0  0  0  0  0  0  0  0  0  0
  186.1430  177.9290  144.6320 C   0  0  0  0  0  3  0  0  0  0  0  0
  188.7480  176.9010  144.7300 C   0  0  0  0  0  0  0  0  0  0  0  0
  189.1260  177.6020  142.4110 N   0  0  0  0  0  1  0  0  0  0  0  0
  188.2760  177.5070  143.5520 C   0  0  0  0  0  0  0  0  0  0  0  0
  187.9110  176.8210  145.8510 C   0  0  0  0  0  3  0  0  0  0  0  0
  186.6080  177.3290  145.8110 C   0  0  0  0  0  0  0  0  0  0  0  0
  185.5260  178.4990  147.5490 F   0  0  0  0  0  0  0  0  0  0  0  0
  186.2790  176.4140  147.9580 F   0  0  0  0  0  0  0  0  0  0  0  0
  185.7030  177.2380  147.0080 C   0  0  0  0  0  0  0  0  0  0  0  0
  184.4650  176.7240  146.6600 F   0  0  0  0  0  0  0  0  0  0  0  0
  184.9770  178.2660  142.0600 C   0  0  0  0  0  1  0  0  0  0  0  0
  186.4280  178.6650  142.2700 C   0  0  0  0  0  2  0  0  0  0  0  0
  1 17  1  6  0  0  0
  3 10  1  0  0  0  0
  3  4  1  0  0  0  0
  5  6  1  0  0  0  0
  5  8  1  0  0  0  0
  6  1  1  6  0  0  0
  6  9  1  0  0  0  0
  7  4  1  6  0  0  0
  8 10  1  6  0  0  0
  8  7  1  0  0  0  0
  9  7  1  0  0  0  0
  9  2  1  1  0  0  0
 11  3  1  0  0  0  0
 12 11  1  0  0  0  0
 13 12  1  0  0  0  0
 14 15  1  0  0  0  0
 14 13  1  0  0  0  0
 16 15  1  0  0  0  0
 18 17  1  0  0  0  0
 18 19  2  0  0  0  0
 20 18  1  0  0  0  0
 21 20  1  0  0  0  0
 22 21  1  0  0  0  0
 23 24  1  0  0  0  0
 24 25  1  0  0  0  0
 26 27  1  0  0  0  0
 27 24  2  0  0  0  0
 27 29  1  0  0  0  0
 28 26  1  0  0  0  0
 28 22  1  1  0  0  0
 28 23  1  0  0  0  0
 30  1  1  0  0  0  0
 31 35  2  0  0  0  0
 31 32  1  0  0  0  0
 32 37  2  0  0  0  0
 33 30  1  0  0  0  0
 33 36  2  0  0  0  0
 34 35  1  0  0  0  0
 35 33  1  0  0  0  0
 37 36  1  0  0  0  0
 37 40  1  0  0  0  0
 40 38  1  0  0  0  0
 40 39  1  0  0  0  0
 41 40  1  0  0  0  0
 42 43  1  0  0  0  0
 43 31  1  0  0  0  0
M  END
>  <MODEL>
5

>  <REMARK>
 VINA RESULT:      -6.9      1.536      2.105
  Name = 
  15 active torsions:
  status: ('A' for Active; 'I' for Inactive)
    1  A    between atoms: O_3  and  C_7
    2  A    between atoms: O_3  and  C_29
    3  A    between atoms: C_4  and  C_30
    4  A    between atoms: C_7  and  C_31
    5  A    between atoms: N_8  and  O_20
    6  A    between atoms: C_11  and  C_19
    7  A    between atoms: C_11  and  C_38
    8  A    between atoms: C_11  and  N_41
    9  A    between atoms: C_12  and  N_41
   10  A    between atoms: C_14  and  C_38
   11  A    between atoms: C_16  and  C_24
   12  A    between atoms: C_16  and  N_28
   13  A    between atoms: O_20  and  C_31
   14  A    between atoms: N_28  and  N_42
   15  A    between atoms: C_39  and  C_43
                            x       y       z     vdW  Elec       q    Type
                         _______ _______ _______ _____ _____    ______ ____

>  <TORSDO>
F 15

$$$$
=
 OpenBabel11042416023D

 43 46  0  0  1  0  0  0  0  0999 V2000
  190.7910  176.3020  145.7120 C   0  0  2  0  0  3  0  0  0  0  0  0
  192.1720  177.0480  142.8060 O   0  0  0  0  0  1  0  0  0  0  0  0
  195.3510  174.0770  144.5990 N   0  0  0  0  0  0  0  0  0  0  0  0
  194.3240  174.4640  143.6390 C   0  0  0  0  0  2  0  0  0  0  0  0
  193.2930  176.3550  146.0990 C   0  0  0  0  0  2  0  0  0  0  0  0
  192.1650  176.7300  145.1690 C   0  0  1  0  0  3  0  0  0  0  0  0
  194.0220  175.9330  143.8210 C   0  0  2  0  0  3  0  0  0  0  0  0
  194.5140  176.2680  145.2080 C   0  0  2  0  0  3  0  0  0  0  0  0
  192.5170  176.1470  143.8120 C   0  0  2  0  0  3  0  0  0  0  0  0
  195.3800  175.1040  145.6360 C   0  0  0  0  0  2  0  0  0  0  0  0
  194.9200  172.9370  145.1940 O   0  0  0  0  0  0  0  0  0  0  0  0
  196.0610  172.3690  145.7740 C   0  0  0  0  0  2  0  0  0  0  0  0
  196.1730  170.9140  145.3600 C   0  0  0  0  0  2  0  0  0  0  0  0
  196.1130  170.0950  146.4860 O   0  0  0  0  0  0  0  0  0  0  0  0
  194.9070  169.4080  146.3570 C   0  0  0  0  0  2  0  0  0  0  0  0
  194.6230  168.6440  147.6340 C   0  0  0  0  0  1  0  0  0  0  0  0
  190.1060  175.1870  144.9190 C   0  0  0  0  0  2  0  0  0  0  0  0
  189.6870  174.0410  145.7850 C   0  0  0  0  0  0  0  0  0  0  0  0
  189.1310  174.2780  146.8870 O   0  0  0  0  0  0  0  0  0  0  0  0
  189.9080  172.6850  145.3880 N   0  0  0  0  0  2  0  0  0  0  0  0
  190.6390  172.3540  144.2380 N   0  0  0  0  0  2  0  0  0  0  0  0
  189.6800  172.1080  143.1670 C   0  0  0  0  0  2  0  0  0  0  0  0
  189.0270  174.1220  141.3720 S   0  0  0  0  0  0  0  0  0  0  0  0
  188.9190  173.4470  139.7290 C   0  0  0  0  0  0  0  0  0  0  0  0
  188.1850  174.1700  138.6480 C   0  0  0  0  0  1  0  0  0  0  0  0
  190.2270  171.7230  140.7340 C   0  0  0  0  0  2  0  0  0  0  0  0
  189.5300  172.2820  139.5460 C   0  0  0  0  0  0  0  0  0  0  0  0
  190.1340  172.7510  141.8570 C   0  0  2  0  0  3  0  0  0  0  0  0
  189.5010  171.5370  138.2560 C   0  0  0  0  0  1  0  0  0  0  0  0
  189.9070  177.4560  145.7680 N   0  0  0  0  0  2  0  0  0  0  0  0
  186.1900  177.4350  145.3270 C   0  0  0  0  0  0  0  0  0  0  0  0
  186.0890  177.5620  143.9390 C   0  0  0  0  0  3  0  0  0  0  0  0
  188.6180  177.4900  145.1460 C   0  0  0  0  0  0  0  0  0  0  0  0
  187.5730  177.2710  147.3530 N   0  0  0  0  0  1  0  0  0  0  0  0
  187.4590  177.4030  145.9380 C   0  0  0  0  0  0  0  0  0  0  0  0
  188.4990  177.6080  143.7540 C   0  0  0  0  0  3  0  0  0  0  0  0
  187.2400  177.6470  143.1430 C   0  0  0  0  0  0  0  0  0  0  0  0
  188.2940  178.2580  141.1240 F   0  0  0  0  0  0  0  0  0  0  0  0
  186.0900  178.6710  141.3580 F   0  0  0  0  0  0  0  0  0  0  0  0
  187.1070  177.7810  141.6520 C   0  0  0  0  0  0  0  0  0  0  0  0
  186.8170  176.5600  141.0650 F   0  0  0  0  0  0  0  0  0  0  0  0
  184.1760  178.6700  146.0600 C   0  0  0  0  0  1  0  0  0  0  0  0
  184.9380  177.3570  146.1370 C   0  0  0  0  0  2  0  0  0  0  0  0
  1 17  1  6  0  0  0
  1 30  1  0  0  0  0
  3 11  1  0  0  0  0
  3 10  1  0  0  0  0
  4  3  1  0  0  0  0
  6  1  1  1  0  0  0
  6  5  1  0  0  0  0
  7  4  1  1  0  0  0
  7  8  1  0  0  0  0
  8 10  1  1  0  0  0
  8  5  1  0  0  0  0
  9  2  1  6  0  0  0
  9  7  1  0  0  0  0
  9  6  1  0  0  0  0
 11 12  1  0  0  0  0
 13 12  1  0  0  0  0
 13 14  1  0  0  0  0
 15 14  1  0  0  0  0
 15 16  1  0  0  0  0
 17 18  1  0  0  0  0
 18 19  2  0  0  0  0
 20 18  1  0  0  0  0
 21 20  1  0  0  0  0
 22 21  1  0  0  0  0
 23 28  1  0  0  0  0
 24 23  1  0  0  0  0
 25 24  1  0  0  0  0
 26 28  1  0  0  0  0
 27 24  2  0  0  0  0
 27 26  1  0  0  0  0
 28 22  1  1  0  0  0
 29 27  1  0  0  0  0
 31 35  1  0  0  0  0
 31 43  1  0  0  0  0
 32 31  2  0  0  0  0
 33 30  1  0  0  0  0
 33 35  2  0  0  0  0
 35 34  1  0  0  0  0
 36 33  1  0  0  0  0
 37 36  2  0  0  0  0
 37 32  1  0  0  0  0
 38 40  1  0  0  0  0
 39 40  1  0  0  0  0
 40 37  1  0  0  0  0
 41 40  1  0  0  0  0
 42 43  1  0  0  0  0
M  END
>  <MODEL>
6

>  <REMARK>
 VINA RESULT:      -6.8      3.042      4.962
  Name = 
  15 active torsions:
  status: ('A' for Active; 'I' for Inactive)
    1  A    between atoms: O_3  and  C_7
    2  A    between atoms: O_3  and  C_29
    3  A    between atoms: C_4  and  C_30
    4  A    between atoms: C_7  and  C_31
    5  A    between atoms: N_8  and  O_20
    6  A    between atoms: C_11  and  C_19
    7  A    between atoms: C_11  and  C_38
    8  A    between atoms: C_11  and  N_41
    9  A    between atoms: C_12  and  N_41
   10  A    between atoms: C_14  and  C_38
   11  A    between atoms: C_16  and  C_24
   12  A    between atoms: C_16  and  N_28
   13  A    between atoms: O_20  and  C_31
   14  A    between atoms: N_28  and  N_42
   15  A    between atoms: C_39  and  C_43
                            x       y       z     vdW  Elec       q    Type
                         _______ _______ _______ _____ _____    ______ ____

>  <TORSDO>
F 15

$$$$
=
 OpenBabel11042416023D

 43 46  0  0  1  0  0  0  0  0999 V2000
  190.0840  174.9650  144.6670 C   0  0  2  0  0  3  0  0  0  0  0  0
  191.1620  176.2140  147.5280 O   0  0  0  0  0  1  0  0  0  0  0  0
  195.1600  175.9930  145.0560 N   0  0  0  0  0  0  0  0  0  0  0  0
  194.0820  176.7060  145.7310 C   0  0  0  0  0  2  0  0  0  0  0  0
  192.3900  173.9920  145.0500 C   0  0  0  0  0  2  0  0  0  0  0  0
  191.2220  174.7180  145.6720 C   0  0  1  0  0  3  0  0  0  0  0  0
  193.2690  175.7110  146.5240 C   0  0  2  0  0  3  0  0  0  0  0  0
  193.5780  174.3680  145.9100 C   0  0  2  0  0  3  0  0  0  0  0  0
  191.7880  175.9770  146.3050 C   0  0  2  0  0  3  0  0  0  0  0  0
  194.7970  174.5790  145.0380 C   0  0  0  0  0  2  0  0  0  0  0  0
  195.1570  176.4090  143.7650 O   0  0  0  0  0  0  0  0  0  0  0  0
  196.5010  176.6430  143.4480 C   0  0  0  0  0  2  0  0  0  0  0  0
  196.7380  176.3440  141.9800 C   0  0  0  0  0  2  0  0  0  0  0  0
  195.9790  175.2400  141.5920 O   0  0  0  0  0  0  0  0  0  0  0  0
  196.8060  174.5370  140.7170 C   0  0  0  0  0  2  0  0  0  0  0  0
  197.9080  175.4520  140.2210 C   0  0  0  0  0  1  0  0  0  0  0  0
  190.3180  174.3770  143.2740 C   0  0  0  0  0  2  0  0  0  0  0  0
  189.1420  173.6000  142.7740 C   0  0  0  0  0  0  0  0  0  0  0  0
  188.0710  174.2070  142.5140 O   0  0  0  0  0  0  0  0  0  0  0  0
  189.2060  172.1840  142.5880 N   0  0  0  0  0  2  0  0  0  0  0  0
  190.3210  171.4300  142.9820 N   0  0  0  0  0  2  0  0  0  0  0  0
  190.5150  170.3830  141.9850 C   0  0  0  0  0  2  0  0  0  0  0  0
  192.6890  172.0390  141.5040 S   0  0  0  0  0  0  0  0  0  0  0  0
  192.3280  173.1190  140.1360 C   0  0  0  0  0  0  0  0  0  0  0  0
  193.1050  174.3760  139.9220 C   0  0  0  0  0  1  0  0  0  0  0  0
  190.6960  171.4350  139.6990 C   0  0  0  0  0  2  0  0  0  0  0  0
  191.3400  172.7250  139.3400 C   0  0  0  0  0  0  0  0  0  0  0  0
  191.4620  170.8400  140.8770 C   0  0  2  0  0  3  0  0  0  0  0  0
  190.8590  173.5230  138.1780 C   0  0  0  0  0  1  0  0  0  0  0  0
  189.8430  176.3940  144.5440 N   0  0  0  0  0  2  0  0  0  0  0  0
  186.7460  178.2120  143.4880 C   0  0  0  0  0  0  0  0  0  0  0  0
  185.9760  178.1160  144.6500 C   0  0  0  0  0  3  0  0  0  0  0  0
  188.5350  176.9780  144.5840 C   0  0  0  0  0  0  0  0  0  0  0  0
  188.8260  177.7320  142.2700 N   0  0  0  0  0  1  0  0  0  0  0  0
  188.0310  177.6380  143.4500 C   0  0  0  0  0  0  0  0  0  0  0  0
  187.7530  176.8980  145.7440 C   0  0  0  0  0  3  0  0  0  0  0  0
  186.4730  177.4620  145.7860 C   0  0  0  0  0  0  0  0  0  0  0  0
  186.2140  176.4980  147.9220 F   0  0  0  0  0  0  0  0  0  0  0  0
  184.3690  176.9050  146.6920 F   0  0  0  0  0  0  0  0  0  0  0  0
  185.6270  177.3720  147.0250 C   0  0  0  0  0  0  0  0  0  0  0  0
  185.4970  178.6120  147.6310 F   0  0  0  0  0  0  0  0  0  0  0  0
  185.1950  178.0010  141.5730 C   0  0  0  0  0  1  0  0  0  0  0  0
  186.1730  178.9100  142.2980 C   0  0  0  0  0  2  0  0  0  0  0  0
  1 17  1  6  0  0  0
  3  4  1  0  0  0  0
  5  6  1  0  0  0  0
  5  8  1  0  0  0  0
  6  1  1  6  0  0  0
  6  9  1  0  0  0  0
  7  4  1  6  0  0  0
  8 10  1  6  0  0  0
  8  7  1  0  0  0  0
  9  7  1  0  0  0  0
  9  2  1  1  0  0  0
 10  3  1  0  0  0  0
 11  3  1  0  0  0  0
 12 11  1  0  0  0  0
 13 12  1  0  0  0  0
 14 13  1  0  0  0  0
 15 14  1  0  0  0  0
 16 15  1  0  0  0  0
 18 17  1  0  0  0  0
 19 18  2  0  0  0  0
 20 18  1  0  0  0  0
 20 21  1  0  0  0  0
 22 21  1  0  0  0  0
 24 23  1  0  0  0  0
 25 24  1  0  0  0  0
 26 28  1  0  0  0  0
 27 26  1  0  0  0  0
 27 24  2  0  0  0  0
 28 23  1  0  0  0  0
 28 22  1  1  0  0  0
 29 27  1  0  0  0  0
 30 33  1  0  0  0  0
 30  1  1  0  0  0  0
 31 32  1  0  0  0  0
 32 37  2  0  0  0  0
 33 36  2  0  0  0  0
 34 35  1  0  0  0  0
 35 31  2  0  0  0  0
 35 33  1  0  0  0  0
 36 37  1  0  0  0  0
 37 40  1  0  0  0  0
 39 40  1  0  0  0  0
 40 41  1  0  0  0  0
 40 38  1  0  0  0  0
 42 43  1  0  0  0  0
 43 31  1  0  0  0  0
M  END
>  <MODEL>
7

>  <REMARK>
 VINA RESULT:      -6.7      1.433      2.111
  Name = 
  15 active torsions:
  status: ('A' for Active; 'I' for Inactive)
    1  A    between atoms: O_3  and  C_7
    2  A    between atoms: O_3  and  C_29
    3  A    between atoms: C_4  and  C_30
    4  A    between atoms: C_7  and  C_31
    5  A    between atoms: N_8  and  O_20
    6  A    between atoms: C_11  and  C_19
    7  A    between atoms: C_11  and  C_38
    8  A    between atoms: C_11  and  N_41
    9  A    between atoms: C_12  and  N_41
   10  A    between atoms: C_14  and  C_38
   11  A    between atoms: C_16  and  C_24
   12  A    between atoms: C_16  and  N_28
   13  A    between atoms: O_20  and  C_31
   14  A    between atoms: N_28  and  N_42
   15  A    between atoms: C_39  and  C_43
                            x       y       z     vdW  Elec       q    Type
                         _______ _______ _______ _____ _____    ______ ____

>  <TORSDO>
F 15

$$$$
=
 OpenBabel11042416023D

 43 46  0  0  1  0  0  0  0  0999 V2000
  193.4650  175.9270  145.0530 C   0  0  2  0  0  3  0  0  0  0  0  0
  196.3090  176.9820  143.7480 O   0  0  0  0  0  1  0  0  0  0  0  0
  197.0970  172.3530  144.0510 N   0  0  0  0  0  0  0  0  0  0  0  0
  196.8830  173.5930  143.3150 C   0  0  0  0  0  2  0  0  0  0  0  0
  195.2870  174.4690  146.0320 C   0  0  0  0  0  2  0  0  0  0  0  0
  194.9740  175.7410  145.2850 C   0  0  1  0  0  3  0  0  0  0  0  0
  196.9530  174.7480  144.2870 C   0  0  2  0  0  3  0  0  0  0  0  0
  196.7130  174.1370  145.6460 C   0  0  2  0  0  3  0  0  0  0  0  0
  195.8080  175.7100  144.0160 C   0  0  2  0  0  3  0  0  0  0  0  0
  196.8610  172.6420  145.4630 C   0  0  0  0  0  2  0  0  0  0  0  0
  196.1210  171.4940  143.6630 O   0  0  0  0  0  0  0  0  0  0  0  0
  196.3640  171.2460  142.3070 C   0  0  0  0  0  2  0  0  0  0  0  0
  195.0500  170.9940  141.5920 C   0  0  0  0  0  2  0  0  0  0  0  0
  194.0780  171.8760  142.0600 O   0  0  0  0  0  0  0  0  0  0  0  0
  193.8930  172.7810  141.0150 C   0  0  0  0  0  2  0  0  0  0  0  0
  192.6280  172.4260  140.2600 C   0  0  0  0  0  1  0  0  0  0  0  0
  192.5680  175.3150  146.1320 C   0  0  0  0  0  2  0  0  0  0  0  0
  191.8850  176.3520  146.9660 C   0  0  0  0  0  0  0  0  0  0  0  0
  192.5740  177.0770  147.7280 O   0  0  0  0  0  0  0  0  0  0  0  0
  190.4680  176.5330  146.9190 N   0  0  0  0  0  2  0  0  0  0  0  0
  189.6290  175.6730  146.1940 N   0  0  0  0  0  2  0  0  0  0  0  0
  188.3030  175.7450  146.7960 C   0  0  0  0  0  2  0  0  0  0  0  0
  186.1100  177.2690  147.5500 S   0  0  0  0  0  0  0  0  0  0  0  0
  185.4640  178.1300  146.1320 C   0  0  0  0  0  0  0  0  0  0  0  0
  184.0720  178.6700  146.1300 C   0  0  0  0  0  1  0  0  0  0  0  0
  187.6510  177.6690  145.3000 C   0  0  0  0  0  2  0  0  0  0  0  0
  186.2980  178.2520  145.1060 C   0  0  0  0  0  0  0  0  0  0  0  0
  187.7430  177.1650  146.7370 C   0  0  2  0  0  3  0  0  0  0  0  0
  185.9180  178.8910  143.8150 C   0  0  0  0  0  1  0  0  0  0  0  0
  193.0970  175.3720  143.7590 N   0  0  0  0  0  2  0  0  0  0  0  0
  189.6250  176.0560  142.5430 C   0  0  0  0  0  0  0  0  0  0  0  0
  189.0890  174.7660  142.5380 C   0  0  0  0  0  3  0  0  0  0  0  0
  191.7410  175.1630  143.3490 C   0  0  0  0  0  0  0  0  0  0  0  0
  191.5140  177.5720  142.9570 N   0  0  0  0  0  1  0  0  0  0  0  0
  190.9580  176.2600  142.9460 C   0  0  0  0  0  0  0  0  0  0  0  0
  191.1860  173.8770  143.3470 C   0  0  0  0  0  3  0  0  0  0  0  0
  189.8620  173.6680  142.9410 C   0  0  0  0  0  0  0  0  0  0  0  0
  188.9950  171.8910  144.2270 F   0  0  0  0  0  0  0  0  0  0  0  0
  190.1600  171.4030  142.3600 F   0  0  0  0  0  0  0  0  0  0  0  0
  189.2640  172.2890  142.9290 C   0  0  0  0  0  0  0  0  0  0  0  0
  188.0860  172.2630  142.2020 F   0  0  0  0  0  0  0  0  0  0  0  0
  187.5240  176.6760  141.3930 C   0  0  0  0  0  1  0  0  0  0  0  0
  188.7670  177.1950  142.0970 C   0  0  0  0  0  2  0  0  0  0  0  0
  1 17  1  1  0  0  0
  3 10  1  0  0  0  0
  4  3  1  0  0  0  0
  6  1  1  6  0  0  0
  6  5  1  0  0  0  0
  7  4  1  6  0  0  0
  7  8  1  0  0  0  0
  8 10  1  6  0  0  0
  8  5  1  0  0  0  0
  9  2  1  1  0  0  0
  9  7  1  0  0  0  0
  9  6  1  0  0  0  0
 11  3  1  0  0  0  0
 12 11  1  0  0  0  0
 13 14  1  0  0  0  0
 13 12  1  0  0  0  0
 15 14  1  0  0  0  0
 16 15  1  0  0  0  0
 17 18  1  0  0  0  0
 18 19  2  0  0  0  0
 20 18  1  0  0  0  0
 21 22  1  0  0  0  0
 21 20  1  0  0  0  0
 24 23  1  0  0  0  0
 25 24  1  0  0  0  0
 26 28  1  0  0  0  0
 27 26  1  0  0  0  0
 27 24  2  0  0  0  0
 28 22  1  6  0  0  0
 28 23  1  0  0  0  0
 29 27  1  0  0  0  0
 30  1  1  0  0  0  0
 31 35  1  0  0  0  0
 32 31  2  0  0  0  0
 32 37  1  0  0  0  0
 33 30  1  0  0  0  0
 35 34  1  0  0  0  0
 35 33  2  0  0  0  0
 36 33  1  0  0  0  0
 37 36  2  0  0  0  0
 39 40  1  0  0  0  0
 40 37  1  0  0  0  0
 40 38  1  0  0  0  0
 41 40  1  0  0  0  0
 42 43  1  0  0  0  0
 43 31  1  0  0  0  0
M  END
>  <MODEL>
8

>  <REMARK>
 VINA RESULT:      -6.7      3.458      6.762
  Name = 
  15 active torsions:
  status: ('A' for Active; 'I' for Inactive)
    1  A    between atoms: O_3  and  C_7
    2  A    between atoms: O_3  and  C_29
    3  A    between atoms: C_4  and  C_30
    4  A    between atoms: C_7  and  C_31
    5  A    between atoms: N_8  and  O_20
    6  A    between atoms: C_11  and  C_19
    7  A    between atoms: C_11  and  C_38
    8  A    between atoms: C_11  and  N_41
    9  A    between atoms: C_12  and  N_41
   10  A    between atoms: C_14  and  C_38
   11  A    between atoms: C_16  and  C_24
   12  A    between atoms: C_16  and  N_28
   13  A    between atoms: O_20  and  C_31
   14  A    between atoms: N_28  and  N_42
   15  A    between atoms: C_39  and  C_43
                            x       y       z     vdW  Elec       q    Type
                         _______ _______ _______ _____ _____    ______ ____

>  <TORSDO>
F 15

$$$$
=
 OpenBabel11042416023D

 43 46  0  0  1  0  0  0  0  0999 V2000
  190.6310  174.9730  145.4780 C   0  0  2  0  0  3  0  0  0  0  0  0
  192.0370  176.7920  147.8490 O   0  0  0  0  0  1  0  0  0  0  0  0
  195.5710  176.4110  144.7640 N   0  0  0  0  0  0  0  0  0  0  0  0
  194.5530  177.1570  145.4950 C   0  0  0  0  0  2  0  0  0  0  0  0
  193.0560  174.2520  145.5920 C   0  0  0  0  0  2  0  0  0  0  0  0
  191.9400  174.9930  146.2860 C   0  0  1  0  0  3  0  0  0  0  0  0
  193.9880  176.2670  146.5760 C   0  0  2  0  0  3  0  0  0  0  0  0
  194.3260  174.8600  146.1480 C   0  0  2  0  0  3  0  0  0  0  0  0
  192.4720  176.3830  146.5890 C   0  0  2  0  0  3  0  0  0  0  0  0
  195.3550  174.9950  145.0470 C   0  0  0  0  0  2  0  0  0  0  0  0
  195.3110  176.5860  143.4440 O   0  0  0  0  0  0  0  0  0  0  0  0
  196.5640  176.7240  142.8350 C   0  0  0  0  0  2  0  0  0  0  0  0
  196.4180  176.5900  141.3320 C   0  0  0  0  0  2  0  0  0  0  0  0
  195.2600  175.8760  141.0290 O   0  0  0  0  0  0  0  0  0  0  0  0
  195.5880  175.1410  139.8910 C   0  0  0  0  0  2  0  0  0  0  0  0
  197.0680  175.2950  139.6020 C   0  0  0  0  0  1  0  0  0  0  0  0
  190.7370  174.3120  144.1010 C   0  0  0  0  0  2  0  0  0  0  0  0
  189.7870  173.1680  143.9400 C   0  0  0  0  0  0  0  0  0  0  0  0
  189.6830  172.3230  144.8660 O   0  0  0  0  0  0  0  0  0  0  0  0
  188.9980  173.0120  142.7590 N   0  0  0  0  0  2  0  0  0  0  0  0
  189.1610  173.8400  141.6390 N   0  0  0  0  0  2  0  0  0  0  0  0
  188.1440  173.4640  140.6640 C   0  0  0  0  0  2  0  0  0  0  0  0
  190.5930  173.0770  139.4190 S   0  0  0  0  0  0  0  0  0  0  0  0
  190.5460  173.7680  137.7790 C   0  0  0  0  0  0  0  0  0  0  0  0
  191.8060  174.0910  137.0450 C   0  0  0  0  0  1  0  0  0  0  0  0
  188.1980  173.5630  138.1430 C   0  0  0  0  0  2  0  0  0  0  0  0
  189.3340  173.9640  137.2740 C   0  0  0  0  0  0  0  0  0  0  0  0
  188.7750  172.9020  139.3920 C   0  0  2  0  0  3  0  0  0  0  0  0
  189.0940  174.5840  135.9410 C   0  0  0  0  0  1  0  0  0  0  0  0
  190.1370  176.3320  145.3150 N   0  0  0  0  0  2  0  0  0  0  0  0
  186.4310  176.8580  145.3090 C   0  0  0  0  0  0  0  0  0  0  0  0
  186.2220  177.2420  143.9820 C   0  0  0  0  0  3  0  0  0  0  0  0
  188.8140  176.6380  144.8600 C   0  0  0  0  0  0  0  0  0  0  0  0
  187.9570  176.1630  147.1070 N   0  0  0  0  0  1  0  0  0  0  0  0
  187.7320  176.5580  145.7550 C   0  0  0  0  0  0  0  0  0  0  0  0
  188.5860  177.0160  143.5300 C   0  0  0  0  0  3  0  0  0  0  0  0
  187.2950  177.3220  143.0830 C   0  0  0  0  0  0  0  0  0  0  0  0
  186.0290  178.6720  141.6220 F   0  0  0  0  0  0  0  0  0  0  0  0
  186.6730  176.6310  140.9170 F   0  0  0  0  0  0  0  0  0  0  0  0
  187.0470  177.7360  141.6590 C   0  0  0  0  0  0  0  0  0  0  0  0
  188.1840  178.2900  141.0950 F   0  0  0  0  0  0  0  0  0  0  0  0
  184.8430  178.1950  146.6530 C   0  0  0  0  0  1  0  0  0  0  0  0
  185.2600  176.7960  146.2350 C   0  0  0  0  0  2  0  0  0  0  0  0
  1 17  1  6  0  0  0
  3 10  1  0  0  0  0
  3  4  1  0  0  0  0
  5  8  1  0  0  0  0
  5  6  1  0  0  0  0
  6  1  1  6  0  0  0
  6  9  1  0  0  0  0
  7  4  1  6  0  0  0
  7  9  1  0  0  0  0
  8 10  1  6  0  0  0
  8  7  1  0  0  0  0
  9  2  1  1  0  0  0
 11  3  1  0  0  0  0
 12 11  1  0  0  0  0
 13 12  1  0  0  0  0
 14 13  1  0  0  0  0
 15 14  1  0  0  0  0
 16 15  1  0  0  0  0
 18 17  1  0  0  0  0
 18 19  2  0  0  0  0
 20 18  1  0  0  0  0
 21 20  1  0  0  0  0
 22 21  1  0  0  0  0
 24 23  1  0  0  0  0
 25 24  1  0  0  0  0
 26 28  1  0  0  0  0
 27 24  2  0  0  0  0
 27 26  1  0  0  0  0
 28 23  1  0  0  0  0
 28 22  1  1  0  0  0
 29 27  1  0  0  0  0
 30  1  1  0  0  0  0
 31 35  1  0  0  0  0
 31 43  1  0  0  0  0
 32 31  2  0  0  0  0
 33 30  1  0  0  0  0
 33 35  2  0  0  0  0
 35 34  1  0  0  0  0
 36 33  1  0  0  0  0
 37 36  2  0  0  0  0
 37 32  1  0  0  0  0
 38 40  1  0  0  0  0
 39 40  1  0  0  0  0
 40 37  1  0  0  0  0
 41 40  1  0  0  0  0
 43 42  1  0  0  0  0
M  END
>  <MODEL>
9

>  <REMARK>
 VINA RESULT:      -6.6      3.043      4.253
  Name = 
  15 active torsions:
  status: ('A' for Active; 'I' for Inactive)
    1  A    between atoms: O_3  and  C_7
    2  A    between atoms: O_3  and  C_29
    3  A    between atoms: C_4  and  C_30
    4  A    between atoms: C_7  and  C_31
    5  A    between atoms: N_8  and  O_20
    6  A    between atoms: C_11  and  C_19
    7  A    between atoms: C_11  and  C_38
    8  A    between atoms: C_11  and  N_41
    9  A    between atoms: C_12  and  N_41
   10  A    between atoms: C_14  and  C_38
   11  A    between atoms: C_16  and  C_24
   12  A    between atoms: C_16  and  N_28
   13  A    between atoms: O_20  and  C_31
   14  A    between atoms: N_28  and  N_42
   15  A    between atoms: C_39  and  C_43
                            x       y       z     vdW  Elec       q    Type
                         _______ _______ _______ _____ _____    ______ ____

>  <TORSDO>
F 15

$$$$
