=
 OpenBabel11042418193D

 35 39  0  0  1  0  0  0  0  0999 V2000
  190.2210  172.8110  142.8600 C   0  0  1  0  0  3  0  0  0  0  0  0
  189.2830  171.9560  143.7020 C   0  0  0  0  0  1  0  0  0  0  0  0
  192.2760  177.4050  144.6000 O   0  0  0  0  0  0  0  0  0  0  0  0
  192.8740  173.9550  144.7010 C   0  0  1  0  0  3  0  0  0  0  0  0
  190.5020  175.9660  145.0500 N   0  0  0  0  0  0  0  0  0  0  0  0
  191.9040  176.2700  145.0060 C   0  0  0  0  0  0  0  0  0  0  0  0
  191.6090  173.3600  144.7750 O   0  0  0  0  0  0  0  0  0  0  0  0
  189.8870  174.9510  144.1820 C   0  0  1  0  0  3  0  0  0  0  0  0
  194.3270  175.8480  145.5400 C   0  0  0  0  0  2  0  0  0  0  0  0
  192.9090  175.2630  145.5160 C   0  0  2  0  0  3  0  0  0  0  0  0
  188.0580  174.4390  139.5720 C   0  0  0  0  0  3  0  0  0  0  0  0
  195.3030  173.5770  145.2170 C   0  0  1  0  0  3  0  0  0  0  0  0
  188.9570  174.7340  141.7840 C   0  0  0  0  0  0  0  0  0  0  0  0
  189.4690  173.4230  141.7100 C   0  0  0  0  0  0  0  0  0  0  0  0
  188.7610  176.7450  143.0380 O   0  0  0  0  0  0  0  0  0  0  0  0
  193.9080  172.9620  145.2300 C   0  0  0  0  0  2  0  0  0  0  0  0
  189.1930  175.5620  142.9890 C   0  0  0  0  0  0  0  0  0  0  0  0
  195.3230  174.8290  146.0820 C   0  0  0  0  0  2  0  0  0  0  0  0
  188.2490  175.2420  140.6940 C   0  0  0  0  0  3  0  0  0  0  0  0
  188.5640  173.1790  139.5540 N   0  0  0  0  0  0  0  0  0  0  0  0
  189.2450  172.6860  140.5900 N   0  0  0  0  0  0  0  0  0  0  0  0
  190.9000  173.9000  143.6990 C   0  0  2  0  0  3  0  0  0  0  0  0
  197.0330  171.8410  146.1450 N   0  0  0  0  0  0  0  0  0  0  0  0
  196.2690  172.6070  145.7360 C   0  0  0  0  0  0  0  0  0  0  0  0
  189.6330  176.7720  145.8980 C   0  0  0  0  0  2  0  0  0  0  0  0
  188.6740  175.8780  146.6610 C   0  0  0  0  0  2  0  0  0  0  0  0
  187.3110  176.3090  146.4130 N   0  0  0  0  0  2  0  0  0  0  0  0
  187.1270  177.5500  147.1450 C   0  0  0  0  0  2  0  0  0  0  0  0
  186.0460  179.1640  142.7970 O   0  0  0  0  0  0  0  0  0  0  0  0
  184.2800  179.2130  144.3770 C   0  0  0  0  0  3  0  0  0  0  0  0
  186.5980  178.4890  144.9610 N   0  0  0  0  0  2  0  0  0  0  0  0
  184.7480  178.0320  146.5060 C   0  0  0  0  0  2  0  0  0  0  0  0
  186.2090  178.4770  146.3700 C   0  0  1  0  0  3  0  0  0  0  0  0
  185.6720  178.9630  143.9810 C   0  0  0  0  0  0  0  0  0  0  0  0
  183.8550  178.8140  145.5780 C   0  0  0  0  0  3  0  0  0  0  0  0
  1 22  1  0  0  0  0
  1  2  1  1  0  0  0
  3  6  2  0  0  0  0
  4  7  1  0  0  0  0
  4 16  1  1  0  0  0
  4 10  1  0  0  0  0
  5 25  1  0  0  0  0
  6  5  1  0  0  0  0
  6 10  1  0  0  0  0
  8 17  1  6  0  0  0
  8  5  1  0  0  0  0
  9 18  1  0  0  0  0
 10  9  1  6  0  0  0
 11 19  1  0  0  0  0
 12 16  1  0  0  0  0
 12 24  1  1  0  0  0
 12 18  1  0  0  0  0
 13 17  1  0  0  0  0
 14 13  1  0  0  0  0
 14  1  1  0  0  0  0
 17 15  2  0  0  0  0
 19 13  2  0  0  0  0
 20 11  2  0  0  0  0
 20 21  1  0  0  0  0
 21 14  2  0  0  0  0
 22  8  1  0  0  0  0
 22  7  1  1  0  0  0
 24 23  3  0  0  0  0
 25 26  1  0  0  0  0
 27 26  1  0  0  0  0
 27 28  1  0  0  0  0
 29 34  2  0  0  0  0
 30 35  2  0  0  0  0
 31 33  1  0  0  0  0
 33 32  1  0  0  0  0
 33 28  1  1  0  0  0
 34 30  1  0  0  0  0
 34 31  1  0  0  0  0
 35 32  1  0  0  0  0
M  END
>  <MODEL>
1

>  <REMARK>
 VINA RESULT:      -8.1      0.000      0.000
  Name = 
  6 active torsions:
  status: ('A' for Active; 'I' for Inactive)
    1  A    between atoms: C_8  and  N_31
    2  A    between atoms: C_8  and  C_33
    3  A    between atoms: N_9  and  C_33
    4  A    between atoms: C_17  and  C_32
    5  A    between atoms: C_18  and  C_23
    6  A    between atoms: C_18  and  N_31
                            x       y       z     vdW  Elec       q    Type
                         _______ _______ _______ _____ _____    ______ ____

>  <TORSDO>
F 6

$$$$
=
 OpenBabel11042418193D

 35 39  0  0  1  0  0  0  0  0999 V2000
  190.5120  172.6450  143.5470 C   0  0  1  0  0  3  0  0  0  0  0  0
  189.5300  172.0810  144.5650 C   0  0  0  0  0  1  0  0  0  0  0  0
  193.8300  176.6590  144.6570 O   0  0  0  0  0  0  0  0  0  0  0  0
  193.6000  173.1740  144.9330 C   0  0  1  0  0  3  0  0  0  0  0  0
  191.8500  175.7190  145.4420 N   0  0  0  0  0  0  0  0  0  0  0  0
  193.2620  175.6670  145.1920 C   0  0  0  0  0  0  0  0  0  0  0  0
  192.2530  172.9120  145.2170 O   0  0  0  0  0  0  0  0  0  0  0  0
  190.8920  174.8520  144.7390 C   0  0  1  0  0  3  0  0  0  0  0  0
  195.5660  174.6840  145.4330 C   0  0  0  0  0  2  0  0  0  0  0  0
  194.0620  174.4650  145.6380 C   0  0  2  0  0  3  0  0  0  0  0  0
  188.3430  174.6230  140.4600 C   0  0  0  0  0  3  0  0  0  0  0  0
  195.9170  172.2320  145.1520 C   0  0  1  0  0  3  0  0  0  0  0  0
  189.5990  174.7760  142.5070 C   0  0  0  0  0  0  0  0  0  0  0  0
  189.7680  173.3770  142.4640 C   0  0  0  0  0  0  0  0  0  0  0  0
  190.0700  176.8220  143.6230 O   0  0  0  0  0  0  0  0  0  0  0  0
  194.4330  171.9800  145.3940 C   0  0  0  0  0  2  0  0  0  0  0  0
  190.1970  175.5670  143.6060 C   0  0  0  0  0  0  0  0  0  0  0  0
  196.3590  173.4750  145.9120 C   0  0  0  0  0  2  0  0  0  0  0  0
  188.8810  175.3980  141.4840 C   0  0  0  0  0  3  0  0  0  0  0  0
  188.5270  173.2770  140.4690 N   0  0  0  0  0  0  0  0  0  0  0  0
  189.2150  172.6740  141.4400 N   0  0  0  0  0  0  0  0  0  0  0  0
  191.5450  173.5670  144.2060 C   0  0  2  0  0  3  0  0  0  0  0  0
  197.3020  170.1640  145.9720 N   0  0  0  0  0  0  0  0  0  0  0  0
  196.6900  171.0770  145.6100 C   0  0  0  0  0  0  0  0  0  0  0  0
  191.3300  176.7460  146.3340 C   0  0  0  0  0  2  0  0  0  0  0  0
  190.0920  176.2390  147.0490 C   0  0  0  0  0  2  0  0  0  0  0  0
  189.0750  177.2750  147.0470 N   0  0  0  0  0  2  0  0  0  0  0  0
  187.8920  176.6950  146.4360 C   0  0  0  0  0  2  0  0  0  0  0  0
  185.5400  179.8480  143.7520 O   0  0  0  0  0  0  0  0  0  0  0  0
  184.3140  178.9210  145.5550 C   0  0  0  0  0  3  0  0  0  0  0  0
  186.7210  178.3940  145.1440 N   0  0  0  0  0  2  0  0  0  0  0  0
  185.4170  177.0200  146.7040 C   0  0  0  0  0  2  0  0  0  0  0  0
  186.7610  177.7070  146.4330 C   0  0  1  0  0  3  0  0  0  0  0  0
  185.5350  179.0940  144.7590 C   0  0  0  0  0  0  0  0  0  0  0  0
  184.2710  177.9750  146.4980 C   0  0  0  0  0  3  0  0  0  0  0  0
  1 22  1  0  0  0  0
  1  2  1  1  0  0  0
  3  6  2  0  0  0  0
  4  7  1  0  0  0  0
  4 16  1  1  0  0  0
  4 10  1  0  0  0  0
  5 25  1  0  0  0  0
  6  5  1  0  0  0  0
  6 10  1  0  0  0  0
  8 17  1  6  0  0  0
  8  5  1  0  0  0  0
  9 18  1  0  0  0  0
 10  9  1  6  0  0  0
 11 20  2  0  0  0  0
 11 19  1  0  0  0  0
 12 16  1  0  0  0  0
 12 24  1  1  0  0  0
 12 18  1  0  0  0  0
 13 17  1  0  0  0  0
 14 13  1  0  0  0  0
 14  1  1  0  0  0  0
 17 15  2  0  0  0  0
 19 13  2  0  0  0  0
 20 21  1  0  0  0  0
 21 14  2  0  0  0  0
 22  8  1  0  0  0  0
 22  7  1  1  0  0  0
 24 23  3  0  0  0  0
 25 26  1  0  0  0  0
 27 26  1  0  0  0  0
 28 27  1  0  0  0  0
 29 34  2  0  0  0  0
 30 35  2  0  0  0  0
 31 33  1  0  0  0  0
 33 28  1  6  0  0  0
 33 32  1  0  0  0  0
 34 31  1  0  0  0  0
 34 30  1  0  0  0  0
 35 32  1  0  0  0  0
M  END
>  <MODEL>
2

>  <REMARK>
 VINA RESULT:      -8.0      1.100      1.283
  Name = 
  6 active torsions:
  status: ('A' for Active; 'I' for Inactive)
    1  A    between atoms: C_8  and  N_31
    2  A    between atoms: C_8  and  C_33
    3  A    between atoms: N_9  and  C_33
    4  A    between atoms: C_17  and  C_32
    5  A    between atoms: C_18  and  C_23
    6  A    between atoms: C_18  and  N_31
                            x       y       z     vdW  Elec       q    Type
                         _______ _______ _______ _____ _____    ______ ____

>  <TORSDO>
F 6

$$$$
=
 OpenBabel11042418193D

 35 39  0  0  1  0  0  0  0  0999 V2000
  188.5730  173.1240  141.4220 C   0  0  1  0  0  3  0  0  0  0  0  0
  187.3030  172.3730  141.7970 C   0  0  0  0  0  1  0  0  0  0  0  0
  188.9390  178.4340  141.5900 O   0  0  0  0  0  0  0  0  0  0  0  0
  189.2650  175.6260  143.6590 C   0  0  1  0  0  3  0  0  0  0  0  0
  187.3200  176.7650  141.4880 N   0  0  0  0  0  0  0  0  0  0  0  0
  188.3760  177.4620  142.1650 C   0  0  0  0  0  0  0  0  0  0  0  0
  188.2830  174.7270  143.2220 O   0  0  0  0  0  0  0  0  0  0  0  0
  187.4520  175.3690  141.0450 C   0  0  1  0  0  3  0  0  0  0  0  0
  189.7740  178.0490  144.1730 C   0  0  0  0  0  2  0  0  0  0  0  0
  188.7490  177.0760  143.5770 C   0  0  2  0  0  3  0  0  0  0  0  0
  189.2620  172.7040  137.2390 C   0  0  0  0  0  3  0  0  0  0  0  0
  190.6800  176.2470  145.6380 C   0  0  1  0  0  3  0  0  0  0  0  0
  188.4100  174.0340  139.0550 C   0  0  0  0  0  0  0  0  0  0  0  0
  188.8170  173.0160  139.9410 C   0  0  0  0  0  0  0  0  0  0  0  0
  187.4340  176.1840  138.7790 O   0  0  0  0  0  0  0  0  0  0  0  0
  189.6450  175.2680  145.0940 C   0  0  0  0  0  2  0  0  0  0  0  0
  187.7680  175.2630  139.5720 C   0  0  0  0  0  0  0  0  0  0  0  0
  190.1180  177.6610  145.6060 C   0  0  0  0  0  2  0  0  0  0  0  0
  188.6440  173.8680  137.6890 C   0  0  0  0  0  3  0  0  0  0  0  0
  189.6280  171.7500  138.1340 N   0  0  0  0  0  0  0  0  0  0  0  0
  189.4110  171.9000  139.4420 N   0  0  0  0  0  0  0  0  0  0  0  0
  188.5080  174.5960  141.8500 C   0  0  2  0  0  3  0  0  0  0  0  0
  191.2860  175.6000  148.1040 N   0  0  0  0  0  0  0  0  0  0  0  0
  191.0180  175.8850  147.0150 C   0  0  0  0  0  0  0  0  0  0  0  0
  186.1160  177.4990  141.1200 C   0  0  0  0  0  2  0  0  0  0  0  0
  185.6720  178.3840  142.2680 C   0  0  0  0  0  2  0  0  0  0  0  0
  184.4340  177.8710  142.8240 N   0  0  0  0  0  2  0  0  0  0  0  0
  184.2320  178.5520  144.0910 C   0  0  0  0  0  2  0  0  0  0  0  0
  186.2390  179.8190  148.2190 O   0  0  0  0  0  0  0  0  0  0  0  0
  186.8340  177.6740  147.4060 C   0  0  0  0  0  3  0  0  0  0  0  0
  185.3560  179.2390  146.1390 N   0  0  0  0  0  2  0  0  0  0  0  0
  185.5040  176.8830  145.4690 C   0  0  0  0  0  2  0  0  0  0  0  0
  185.4360  178.3390  144.9900 C   0  0  1  0  0  3  0  0  0  0  0  0
  186.1420  178.9650  147.3010 C   0  0  0  0  0  0  0  0  0  0  0  0
  186.5670  176.7090  146.5220 C   0  0  0  0  0  3  0  0  0  0  0  0
  1  2  1  6  0  0  0
  1 22  1  0  0  0  0
  3  6  2  0  0  0  0
  4 16  1  1  0  0  0
  5  6  1  0  0  0  0
  6 10  1  0  0  0  0
  7  4  1  0  0  0  0
  8 17  1  6  0  0  0
  8  5  1  0  0  0  0
  8 22  1  0  0  0  0
  9 18  1  0  0  0  0
 10  4  1  0  0  0  0
 10  9  1  6  0  0  0
 11 19  2  0  0  0  0
 11 20  1  0  0  0  0
 12 24  1  1  0  0  0
 13 17  1  0  0  0  0
 13 14  2  0  0  0  0
 14  1  1  0  0  0  0
 15 17  2  0  0  0  0
 16 12  1  0  0  0  0
 18 12  1  0  0  0  0
 19 13  1  0  0  0  0
 20 21  2  0  0  0  0
 21 14  1  0  0  0  0
 22  7  1  1  0  0  0
 24 23  3  0  0  0  0
 25  5  1  0  0  0  0
 25 26  1  0  0  0  0
 26 27  1  0  0  0  0
 27 28  1  0  0  0  0
 31 34  1  0  0  0  0
 32 35  1  0  0  0  0
 33 28  1  6  0  0  0
 33 32  1  0  0  0  0
 33 31  1  0  0  0  0
 34 30  1  0  0  0  0
 34 29  2  0  0  0  0
 35 30  2  0  0  0  0
M  END
>  <MODEL>
3

>  <REMARK>
 VINA RESULT:      -8.0      2.961      4.259
  Name = 
  6 active torsions:
  status: ('A' for Active; 'I' for Inactive)
    1  A    between atoms: C_8  and  N_31
    2  A    between atoms: C_8  and  C_33
    3  A    between atoms: N_9  and  C_33
    4  A    between atoms: C_17  and  C_32
    5  A    between atoms: C_18  and  C_23
    6  A    between atoms: C_18  and  N_31
                            x       y       z     vdW  Elec       q    Type
                         _______ _______ _______ _____ _____    ______ ____

>  <TORSDO>
F 6

$$$$
=
 OpenBabel11042418193D

 35 39  0  0  1  0  0  0  0  0999 V2000
  194.4430  174.7810  142.5000 C   0  0  1  0  0  3  0  0  0  0  0  0
  194.7320  176.1930  142.0090 C   0  0  0  0  0  1  0  0  0  0  0  0
  190.0030  173.5000  145.1460 O   0  0  0  0  0  0  0  0  0  0  0  0
  191.2000  173.8690  141.8740 C   0  0  1  0  0  3  0  0  0  0  0  0
  191.2820  175.3720  144.6180 N   0  0  0  0  0  0  0  0  0  0  0  0
  190.4310  174.2770  144.2490 C   0  0  0  0  0  0  0  0  0  0  0  0
  192.0900  174.9490  141.9240 O   0  0  0  0  0  0  0  0  0  0  0  0
  192.6930  175.4480  144.2120 C   0  0  1  0  0  3  0  0  0  0  0  0
  188.9630  172.9900  142.6610 C   0  0  0  0  0  2  0  0  0  0  0  0
  189.9990  174.1110  142.8110 C   0  0  2  0  0  3  0  0  0  0  0  0
  197.1840  173.7910  145.6060 C   0  0  0  0  0  3  0  0  0  0  0  0
  189.7210  172.5570  140.3260 C   0  0  1  0  0  3  0  0  0  0  0  0
  194.9950  174.5600  144.9700 C   0  0  0  0  0  0  0  0  0  0  0  0
  195.3800  174.4230  143.6210 C   0  0  0  0  0  0  0  0  0  0  0  0
  193.2810  175.1110  146.5230 O   0  0  0  0  0  0  0  0  0  0  0  0
  190.7320  173.6930  140.4310 C   0  0  0  0  0  2  0  0  0  0  0  0
  193.6310  175.0200  145.3150 C   0  0  0  0  0  0  0  0  0  0  0  0
  188.5180  172.8550  141.2100 C   0  0  0  0  0  2  0  0  0  0  0  0
  195.9140  174.2320  145.9670 C   0  0  0  0  0  3  0  0  0  0  0  0
  197.5090  173.6840  144.2910 N   0  0  0  0  0  0  0  0  0  0  0  0
  196.6360  173.9920  143.3300 N   0  0  0  0  0  0  0  0  0  0  0  0
  192.9840  174.6240  142.9470 C   0  0  2  0  0  3  0  0  0  0  0  0
  188.9410  172.3060  137.8370 N   0  0  0  0  0  0  0  0  0  0  0  0
  189.2850  172.4180  138.9360 C   0  0  0  0  0  0  0  0  0  0  0  0
  190.7660  176.3880  145.5270 C   0  0  0  0  0  2  0  0  0  0  0  0
  190.2040  177.5560  144.7390 C   0  0  0  0  0  2  0  0  0  0  0  0
  188.7740  177.3770  144.5650 N   0  0  0  0  0  2  0  0  0  0  0  0
  188.2470  176.9560  145.8520 C   0  0  0  0  0  2  0  0  0  0  0  0
  185.1500  180.1590  144.1710 O   0  0  0  0  0  0  0  0  0  0  0  0
  184.3010  178.6750  145.8120 C   0  0  0  0  0  3  0  0  0  0  0  0
  186.6920  178.6660  145.0870 N   0  0  0  0  0  2  0  0  0  0  0  0
  185.8030  176.7910  146.3970 C   0  0  0  0  0  2  0  0  0  0  0  0
  186.9880  177.7390  146.1770 C   0  0  1  0  0  3  0  0  0  0  0  0
  185.3780  179.2190  144.9750 C   0  0  0  0  0  0  0  0  0  0  0  0
  184.5120  177.5580  146.5130 C   0  0  0  0  0  3  0  0  0  0  0  0
  1  2  1  1  0  0  0
  1 22  1  0  0  0  0
  1 14  1  0  0  0  0
  4 16  1  6  0  0  0
  4  7  1  0  0  0  0
  4 10  1  0  0  0  0
  5 25  1  0  0  0  0
  6  5  1  0  0  0  0
  6  3  2  0  0  0  0
  8  5  1  0  0  0  0
  8 17  1  1  0  0  0
 10  9  1  1  0  0  0
 10  6  1  0  0  0  0
 11 19  1  0  0  0  0
 12 24  1  6  0  0  0
 12 16  1  0  0  0  0
 12 18  1  0  0  0  0
 13 17  1  0  0  0  0
 13 19  2  0  0  0  0
 14 13  1  0  0  0  0
 17 15  2  0  0  0  0
 18  9  1  0  0  0  0
 20 11  2  0  0  0  0
 21 14  2  0  0  0  0
 21 20  1  0  0  0  0
 22  7  1  6  0  0  0
 22  8  1  0  0  0  0
 23 24  3  0  0  0  0
 26 25  1  0  0  0  0
 27 26  1  0  0  0  0
 27 28  1  0  0  0  0
 29 34  2  0  0  0  0
 30 35  2  0  0  0  0
 31 33  1  0  0  0  0
 32 35  1  0  0  0  0
 33 28  1  6  0  0  0
 33 32  1  0  0  0  0
 34 31  1  0  0  0  0
 34 30  1  0  0  0  0
M  END
>  <MODEL>
4

>  <REMARK>
 VINA RESULT:      -7.4      1.865      5.726
  Name = 
  6 active torsions:
  status: ('A' for Active; 'I' for Inactive)
    1  A    between atoms: C_8  and  N_31
    2  A    between atoms: C_8  and  C_33
    3  A    between atoms: N_9  and  C_33
    4  A    between atoms: C_17  and  C_32
    5  A    between atoms: C_18  and  C_23
    6  A    between atoms: C_18  and  N_31
                            x       y       z     vdW  Elec       q    Type
                         _______ _______ _______ _____ _____    ______ ____

>  <TORSDO>
F 6

$$$$
=
 OpenBabel11042418193D

 35 39  0  0  1  0  0  0  0  0999 V2000
  190.8240  176.0790  146.3190 C   0  0  1  0  0  3  0  0  0  0  0  0
  190.7240  174.6240  146.7580 C   0  0  0  0  0  1  0  0  0  0  0  0
  188.9470  177.8190  141.6490 O   0  0  0  0  0  0  0  0  0  0  0  0
  187.8930  177.1800  144.9290 C   0  0  1  0  0  3  0  0  0  0  0  0
  189.5980  175.8340  142.6770 N   0  0  0  0  0  0  0  0  0  0  0  0
  188.7230  176.9640  142.5500 C   0  0  0  0  0  0  0  0  0  0  0  0
  188.6060  176.0450  145.3330 O   0  0  0  0  0  0  0  0  0  0  0  0
  190.4670  175.6360  143.8460 C   0  0  1  0  0  3  0  0  0  0  0  0
  186.6190  178.2590  143.0280 C   0  0  0  0  0  2  0  0  0  0  0  0
  187.5070  177.0770  143.4390 C   0  0  2  0  0  3  0  0  0  0  0  0
  194.9120  177.0480  145.6110 C   0  0  0  0  0  3  0  0  0  0  0  0
  185.8050  178.5030  145.3720 C   0  0  1  0  0  3  0  0  0  0  0  0
  192.7720  176.4000  144.7200 C   0  0  0  0  0  0  0  0  0  0  0  0
  192.2580  176.4330  146.0310 C   0  0  0  0  0  0  0  0  0  0  0  0
  192.3490  176.0610  142.4040 O   0  0  0  0  0  0  0  0  0  0  0  0
  186.6460  177.3070  145.8020 C   0  0  0  0  0  2  0  0  0  0  0  0
  191.8920  176.0580  143.5790 C   0  0  0  0  0  0  0  0  0  0  0  0
  185.3840  178.3420  143.9180 C   0  0  0  0  0  2  0  0  0  0  0  0
  194.1160  176.7190  144.5170 C   0  0  0  0  0  3  0  0  0  0  0  0
  194.3700  177.0570  146.8560 N   0  0  0  0  0  0  0  0  0  0  0  0
  193.0850  176.7570  147.0600 N   0  0  0  0  0  0  0  0  0  0  0  0
  189.9450  176.3640  145.0950 C   0  0  2  0  0  3  0  0  0  0  0  0
  183.6740  178.6660  146.8890 N   0  0  0  0  0  0  0  0  0  0  0  0
  184.6160  178.5940  146.2200 C   0  0  0  0  0  0  0  0  0  0  0  0
  189.7220  174.9100  141.5560 C   0  0  0  0  0  2  0  0  0  0  0  0
  189.7170  173.4790  142.0570 C   0  0  0  0  0  2  0  0  0  0  0  0
  190.9360  172.8140  141.6350 N   0  0  0  0  0  2  0  0  0  0  0  0
  191.1630  171.7260  142.5710 C   0  0  0  0  0  2  0  0  0  0  0  0
  195.3440  173.9840  142.2550 O   0  0  0  0  0  0  0  0  0  0  0  0
  194.7610  173.2050  144.4150 C   0  0  0  0  0  3  0  0  0  0  0  0
  193.3550  172.7720  142.3960 N   0  0  0  0  0  2  0  0  0  0  0  0
  192.4350  172.3730  144.6360 C   0  0  0  0  0  2  0  0  0  0  0  0
  192.5400  171.8590  143.1940 C   0  0  1  0  0  3  0  0  0  0  0  0
  194.5260  173.3540  142.9740 C   0  0  0  0  0  0  0  0  0  0  0  0
  193.7950  172.7050  145.1910 C   0  0  0  0  0  3  0  0  0  0  0  0
  1  2  1  6  0  0  0
  3  6  2  0  0  0  0
  4  7  1  0  0  0  0
  4 16  1  1  0  0  0
  5  8  1  0  0  0  0
  6  5  1  0  0  0  0
  6 10  1  0  0  0  0
  8 17  1  6  0  0  0
  8 22  1  0  0  0  0
  9 18  1  0  0  0  0
 10  9  1  6  0  0  0
 10  4  1  0  0  0  0
 11 20  1  0  0  0  0
 12 16  1  0  0  0  0
 12 24  1  1  0  0  0
 13 14  2  0  0  0  0
 14  1  1  0  0  0  0
 14 21  1  0  0  0  0
 15 17  2  0  0  0  0
 17 13  1  0  0  0  0
 18 12  1  0  0  0  0
 19 13  1  0  0  0  0
 19 11  2  0  0  0  0
 20 21  2  0  0  0  0
 22  7  1  1  0  0  0
 22  1  1  0  0  0  0
 24 23  3  0  0  0  0
 25 26  1  0  0  0  0
 25  5  1  0  0  0  0
 27 26  1  0  0  0  0
 27 28  1  0  0  0  0
 29 34  2  0  0  0  0
 30 35  2  0  0  0  0
 31 34  1  0  0  0  0
 31 33  1  0  0  0  0
 32 35  1  0  0  0  0
 33 28  1  6  0  0  0
 33 32  1  0  0  0  0
 34 30  1  0  0  0  0
M  END
>  <MODEL>
5

>  <REMARK>
 VINA RESULT:      -7.4      2.199      8.113
  Name = 
  6 active torsions:
  status: ('A' for Active; 'I' for Inactive)
    1  A    between atoms: C_8  and  N_31
    2  A    between atoms: C_8  and  C_33
    3  A    between atoms: N_9  and  C_33
    4  A    between atoms: C_17  and  C_32
    5  A    between atoms: C_18  and  C_23
    6  A    between atoms: C_18  and  N_31
                            x       y       z     vdW  Elec       q    Type
                         _______ _______ _______ _____ _____    ______ ____

>  <TORSDO>
F 6

$$$$
=
 OpenBabel11042418193D

 35 39  0  0  1  0  0  0  0  0999 V2000
  193.6110  175.0660  142.5020 C   0  0  1  0  0  3  0  0  0  0  0  0
  194.2520  176.1170  141.6070 C   0  0  0  0  0  1  0  0  0  0  0  0
  188.3900  174.9700  143.5500 O   0  0  0  0  0  0  0  0  0  0  0  0
  190.6970  173.8710  141.1530 C   0  0  1  0  0  3  0  0  0  0  0  0
  190.0270  176.4460  142.8010 N   0  0  0  0  0  0  0  0  0  0  0  0
  189.2120  175.2750  142.6430 C   0  0  0  0  0  0  0  0  0  0  0  0
  191.6580  174.8850  141.0700 O   0  0  0  0  0  0  0  0  0  0  0  0
  191.4870  176.3750  142.9670 C   0  0  1  0  0  3  0  0  0  0  0  0
  188.2240  173.3680  141.3310 C   0  0  0  0  0  2  0  0  0  0  0  0
  189.2920  174.4690  141.3670 C   0  0  2  0  0  3  0  0  0  0  0  0
  194.9180  175.6600  146.5130 C   0  0  0  0  0  3  0  0  0  0  0  0
  189.6820  171.9580  139.8810 C   0  0  1  0  0  3  0  0  0  0  0  0
  193.2240  175.9940  144.8360 C   0  0  0  0  0  0  0  0  0  0  0  0
  194.0330  175.2780  143.9300 C   0  0  0  0  0  0  0  0  0  0  0  0
  191.1730  177.1280  145.2320 O   0  0  0  0  0  0  0  0  0  0  0  0
  190.7440  173.0520  139.8650 C   0  0  0  0  0  2  0  0  0  0  0  0
  191.9070  176.5160  144.4100 C   0  0  0  0  0  0  0  0  0  0  0  0
  188.3010  172.5830  140.0280 C   0  0  0  0  0  2  0  0  0  0  0  0
  193.6790  176.1760  146.1430 C   0  0  0  0  0  3  0  0  0  0  0  0
  195.6630  174.9850  145.5990 N   0  0  0  0  0  0  0  0  0  0  0  0
  195.2360  174.8020  144.3490 N   0  0  0  0  0  0  0  0  0  0  0  0
  192.0810  175.0810  142.3870 C   0  0  2  0  0  3  0  0  0  0  0  0
  189.7950  170.5960  137.6450 N   0  0  0  0  0  0  0  0  0  0  0  0
  189.7450  171.1970  138.6330 C   0  0  0  0  0  0  0  0  0  0  0  0
  189.3780  177.7440  142.9210 C   0  0  0  0  0  2  0  0  0  0  0  0
  188.3480  177.9170  141.8210 C   0  0  0  0  0  2  0  0  0  0  0  0
  187.1190  178.4400  142.3880 N   0  0  0  0  0  2  0  0  0  0  0  0
  186.1630  177.3460  142.3900 C   0  0  0  0  0  2  0  0  0  0  0  0
  185.9920  176.7910  147.1170 O   0  0  0  0  0  0  0  0  0  0  0  0
  184.4420  178.3370  146.2100 C   0  0  0  0  0  3  0  0  0  0  0  0
  185.9860  176.9800  144.7910 N   0  0  0  0  0  2  0  0  0  0  0  0
  184.7930  178.8910  143.8180 C   0  0  0  0  0  2  0  0  0  0  0  0
  185.2640  177.4460  143.6090 C   0  0  1  0  0  3  0  0  0  0  0  0
  185.5070  177.3340  146.0910 C   0  0  0  0  0  0  0  0  0  0  0  0
  184.0760  179.0400  145.1340 C   0  0  0  0  0  3  0  0  0  0  0  0
  1  2  1  6  0  0  0
  1 14  1  0  0  0  0
  4 16  1  6  0  0  0
  4 10  1  0  0  0  0
  5 25  1  0  0  0  0
  5  8  1  0  0  0  0
  6  5  1  0  0  0  0
  6  3  2  0  0  0  0
  7  4  1  0  0  0  0
  8 17  1  1  0  0  0
 10  9  1  1  0  0  0
 10  6  1  0  0  0  0
 12 24  1  6  0  0  0
 12 18  1  0  0  0  0
 13 19  2  0  0  0  0
 14 21  2  0  0  0  0
 14 13  1  0  0  0  0
 16 12  1  0  0  0  0
 17 13  1  0  0  0  0
 17 15  2  0  0  0  0
 18  9  1  0  0  0  0
 19 11  1  0  0  0  0
 20 11  2  0  0  0  0
 21 20  1  0  0  0  0
 22  7  1  6  0  0  0
 22  1  1  0  0  0  0
 22  8  1  0  0  0  0
 23 24  3  0  0  0  0
 26 27  1  0  0  0  0
 26 25  1  0  0  0  0
 27 28  1  0  0  0  0
 31 34  1  0  0  0  0
 32 35  1  0  0  0  0
 33 28  1  6  0  0  0
 33 32  1  0  0  0  0
 33 31  1  0  0  0  0
 34 30  1  0  0  0  0
 34 29  2  0  0  0  0
 35 30  2  0  0  0  0
M  END
>  <MODEL>
6

>  <REMARK>
 VINA RESULT:      -7.4      2.347      5.790
  Name = 
  6 active torsions:
  status: ('A' for Active; 'I' for Inactive)
    1  A    between atoms: C_8  and  N_31
    2  A    between atoms: C_8  and  C_33
    3  A    between atoms: N_9  and  C_33
    4  A    between atoms: C_17  and  C_32
    5  A    between atoms: C_18  and  C_23
    6  A    between atoms: C_18  and  N_31
                            x       y       z     vdW  Elec       q    Type
                         _______ _______ _______ _____ _____    ______ ____

>  <TORSDO>
F 6

$$$$
=
 OpenBabel11042418193D

 35 39  0  0  1  0  0  0  0  0999 V2000
  190.5430  173.8510  142.6030 C   0  0  1  0  0  3  0  0  0  0  0  0
  191.3320  174.5980  141.5370 C   0  0  0  0  0  1  0  0  0  0  0  0
  190.2400  175.5060  147.6560 O   0  0  0  0  0  0  0  0  0  0  0  0
  188.7060  175.9960  144.5440 C   0  0  1  0  0  3  0  0  0  0  0  0
  191.5780  175.7820  145.7700 N   0  0  0  0  0  0  0  0  0  0  0  0
  190.3380  175.9420  146.4760 C   0  0  0  0  0  0  0  0  0  0  0  0
  189.7400  175.9130  143.6040 O   0  0  0  0  0  0  0  0  0  0  0  0
  191.7090  174.9150  144.5900 C   0  0  1  0  0  3  0  0  0  0  0  0
  188.0340  176.8970  146.8100 C   0  0  0  0  0  2  0  0  0  0  0  0
  189.1960  176.6920  145.8300 C   0  0  2  0  0  3  0  0  0  0  0  0
  192.4510  170.1280  143.4060 C   0  0  0  0  0  3  0  0  0  0  0  0
  186.4060  176.9300  144.9220 C   0  0  1  0  0  3  0  0  0  0  0  0
  192.0890  172.4250  144.0280 C   0  0  0  0  0  0  0  0  0  0  0  0
  191.2190  172.5470  142.9260 C   0  0  0  0  0  0  0  0  0  0  0  0
  193.0770  173.4540  145.9300 O   0  0  0  0  0  0  0  0  0  0  0  0
  187.5450  176.7680  143.9220 C   0  0  0  0  0  2  0  0  0  0  0  0
  192.3220  173.5770  144.9280 C   0  0  0  0  0  0  0  0  0  0  0  0
  186.9030  177.6770  146.1520 C   0  0  0  0  0  2  0  0  0  0  0  0
  192.7040  171.1940  144.2660 C   0  0  0  0  0  3  0  0  0  0  0  0
  191.6110  170.3000  142.3530 N   0  0  0  0  0  0  0  0  0  0  0  0
  191.0160  171.4710  142.1190 N   0  0  0  0  0  0  0  0  0  0  0  0
  190.3670  174.6940  143.8730 C   0  0  2  0  0  3  0  0  0  0  0  0
  184.4500  178.2720  143.8090 N   0  0  0  0  0  0  0  0  0  0  0  0
  185.3130  177.6790  144.3020 C   0  0  0  0  0  0  0  0  0  0  0  0
  192.7790  176.4060  146.3090 C   0  0  0  0  0  2  0  0  0  0  0  0
  193.6260  176.9670  145.1830 C   0  0  0  0  0  2  0  0  0  0  0  0
  194.9980  176.5210  145.3420 N   0  0  0  0  0  2  0  0  0  0  0  0
  195.5670  176.4390  144.0070 C   0  0  0  0  0  2  0  0  0  0  0  0
  196.8180  172.3710  146.1420 O   0  0  0  0  0  0  0  0  0  0  0  0
  196.2330  172.1890  143.8530 C   0  0  0  0  0  3  0  0  0  0  0  0
  196.3200  174.3760  145.0580 N   0  0  0  0  0  2  0  0  0  0  0  0
  195.2310  174.2300  142.8640 C   0  0  0  0  0  2  0  0  0  0  0  0
  196.1460  175.0560  143.7760 C   0  0  1  0  0  3  0  0  0  0  0  0
  196.4760  172.9540  145.0820 C   0  0  0  0  0  0  0  0  0  0  0  0
  195.6860  172.7960  142.7960 C   0  0  0  0  0  3  0  0  0  0  0  0
  1  2  1  6  0  0  0
  1 14  1  0  0  0  0
  1 22  1  0  0  0  0
  4 16  1  6  0  0  0
  4 10  1  0  0  0  0
  5 25  1  0  0  0  0
  5  6  1  0  0  0  0
  6  3  2  0  0  0  0
  7  4  1  0  0  0  0
  8 17  1  1  0  0  0
  8  5  1  0  0  0  0
 10  6  1  0  0  0  0
 10  9  1  1  0  0  0
 11 19  1  0  0  0  0
 12 24  1  6  0  0  0
 12 18  1  0  0  0  0
 13 19  2  0  0  0  0
 13 17  1  0  0  0  0
 14 13  1  0  0  0  0
 16 12  1  0  0  0  0
 17 15  2  0  0  0  0
 18  9  1  0  0  0  0
 20 11  2  0  0  0  0
 21 20  1  0  0  0  0
 21 14  2  0  0  0  0
 22  7  1  6  0  0  0
 22  8  1  0  0  0  0
 23 24  3  0  0  0  0
 26 27  1  0  0  0  0
 26 25  1  0  0  0  0
 28 27  1  0  0  0  0
 30 34  1  0  0  0  0
 31 34  1  0  0  0  0
 32 33  1  0  0  0  0
 33 28  1  1  0  0  0
 33 31  1  0  0  0  0
 34 29  2  0  0  0  0
 35 32  1  0  0  0  0
 35 30  2  0  0  0  0
M  END
>  <MODEL>
7

>  <REMARK>
 VINA RESULT:      -7.3      2.316      7.894
  Name = 
  6 active torsions:
  status: ('A' for Active; 'I' for Inactive)
    1  A    between atoms: C_8  and  N_31
    2  A    between atoms: C_8  and  C_33
    3  A    between atoms: N_9  and  C_33
    4  A    between atoms: C_17  and  C_32
    5  A    between atoms: C_18  and  C_23
    6  A    between atoms: C_18  and  N_31
                            x       y       z     vdW  Elec       q    Type
                         _______ _______ _______ _____ _____    ______ ____

>  <TORSDO>
F 6

$$$$
=
 OpenBabel11042418193D

 35 39  0  0  1  0  0  0  0  0999 V2000
  189.4440  174.2910  141.8170 C   0  0  1  0  0  3  0  0  0  0  0  0
  188.5460  173.3000  142.5460 C   0  0  0  0  0  1  0  0  0  0  0  0
  193.4430  176.8630  144.2140 O   0  0  0  0  0  0  0  0  0  0  0  0
  192.7430  173.8260  142.6150 C   0  0  1  0  0  3  0  0  0  0  0  0
  191.4800  175.7330  144.7500 N   0  0  0  0  0  0  0  0  0  0  0  0
  192.8180  175.7670  144.2340 C   0  0  0  0  0  0  0  0  0  0  0  0
  191.4280  173.5100  142.9780 O   0  0  0  0  0  0  0  0  0  0  0  0
  190.3140  175.4460  143.9020 C   0  0  1  0  0  3  0  0  0  0  0  0
  194.9620  174.7170  143.4380 C   0  0  0  0  0  2  0  0  0  0  0  0
  193.4880  174.4870  143.7920 C   0  0  2  0  0  3  0  0  0  0  0  0
  187.1700  177.7430  140.7880 C   0  0  0  0  0  3  0  0  0  0  0  0
  194.9030  172.8210  141.8210 C   0  0  1  0  0  3  0  0  0  0  0  0
  188.7160  176.6780  142.2940 C   0  0  0  0  0  0  0  0  0  0  0  0
  188.6680  175.5340  141.4730 C   0  0  0  0  0  0  0  0  0  0  0  0
  189.6390  177.7370  144.2120 O   0  0  0  0  0  0  0  0  0  0  0  0
  193.4480  172.5420  142.1820 C   0  0  0  0  0  2  0  0  0  0  0  0
  189.5760  176.6990  143.4990 C   0  0  0  0  0  0  0  0  0  0  0  0
  195.6290  173.4110  143.0220 C   0  0  0  0  0  2  0  0  0  0  0  0
  187.9580  177.7940  141.9350 C   0  0  0  0  0  3  0  0  0  0  0  0
  187.1520  176.6130  140.0360 N   0  0  0  0  0  0  0  0  0  0  0  0
  187.8760  175.5420  140.3680 N   0  0  0  0  0  0  0  0  0  0  0  0
  190.6860  174.6460  142.6440 C   0  0  2  0  0  3  0  0  0  0  0  0
  196.0690  170.5860  141.1040 N   0  0  0  0  0  0  0  0  0  0  0  0
  195.5540  171.5730  141.4200 C   0  0  0  0  0  0  0  0  0  0  0  0
  191.2520  176.1130  146.1380 C   0  0  0  0  0  2  0  0  0  0  0  0
  190.1100  175.3030  146.7210 C   0  0  0  0  0  2  0  0  0  0  0  0
  189.1750  176.1920  147.3850 N   0  0  0  0  0  2  0  0  0  0  0  0
  187.8580  175.8850  146.8530 C   0  0  0  0  0  2  0  0  0  0  0  0
  184.8350  177.7480  143.6800 O   0  0  0  0  0  0  0  0  0  0  0  0
  184.9500  178.8670  145.7660 C   0  0  0  0  0  3  0  0  0  0  0  0
  186.4010  176.9140  145.1970 N   0  0  0  0  0  2  0  0  0  0  0  0
  186.2340  177.6770  147.5230 C   0  0  0  0  0  2  0  0  0  0  0  0
  187.1640  177.1620  146.4180 C   0  0  1  0  0  3  0  0  0  0  0  0
  185.3710  177.8300  144.8150 C   0  0  0  0  0  0  0  0  0  0  0  0
  185.3870  178.8200  147.0280 C   0  0  0  0  0  3  0  0  0  0  0  0
  1  2  1  1  0  0  0
  1 22  1  0  0  0  0
  3  6  2  0  0  0  0
  4 16  1  1  0  0  0
  4  7  1  0  0  0  0
  4 10  1  0  0  0  0
  5 25  1  0  0  0  0
  6  5  1  0  0  0  0
  8 17  1  6  0  0  0
  8  5  1  0  0  0  0
 10  9  1  6  0  0  0
 10  6  1  0  0  0  0
 11 19  1  0  0  0  0
 12 24  1  1  0  0  0
 12 16  1  0  0  0  0
 12 18  1  0  0  0  0
 13 17  1  0  0  0  0
 14  1  1  0  0  0  0
 14 13  1  0  0  0  0
 17 15  2  0  0  0  0
 18  9  1  0  0  0  0
 19 13  2  0  0  0  0
 20 21  1  0  0  0  0
 20 11  2  0  0  0  0
 21 14  2  0  0  0  0
 22  7  1  1  0  0  0
 22  8  1  0  0  0  0
 23 24  3  0  0  0  0
 25 26  1  0  0  0  0
 26 27  1  0  0  0  0
 28 27  1  0  0  0  0
 29 34  2  0  0  0  0
 30 35  2  0  0  0  0
 31 33  1  0  0  0  0
 33 28  1  1  0  0  0
 33 32  1  0  0  0  0
 34 31  1  0  0  0  0
 34 30  1  0  0  0  0
 35 32  1  0  0  0  0
M  END
>  <MODEL>
8

>  <REMARK>
 VINA RESULT:      -7.0      2.141      2.440
  Name = 
  6 active torsions:
  status: ('A' for Active; 'I' for Inactive)
    1  A    between atoms: C_8  and  N_31
    2  A    between atoms: C_8  and  C_33
    3  A    between atoms: N_9  and  C_33
    4  A    between atoms: C_17  and  C_32
    5  A    between atoms: C_18  and  C_23
    6  A    between atoms: C_18  and  N_31
                            x       y       z     vdW  Elec       q    Type
                         _______ _______ _______ _____ _____    ______ ____

>  <TORSDO>
F 6

$$$$
=
 OpenBabel11042418193D

 35 39  0  0  1  0  0  0  0  0999 V2000
  190.9730  176.1070  146.1700 C   0  0  1  0  0  3  0  0  0  0  0  0
  190.9030  174.9160  147.1170 C   0  0  0  0  0  1  0  0  0  0  0  0
  188.8170  176.0490  141.3000 O   0  0  0  0  0  0  0  0  0  0  0  0
  187.9610  176.6770  144.6390 C   0  0  1  0  0  3  0  0  0  0  0  0
  189.5340  174.5670  142.9460 N   0  0  0  0  0  0  0  0  0  0  0  0
  188.6490  175.5880  142.4630 C   0  0  0  0  0  0  0  0  0  0  0  0
  188.7000  175.7560  145.3910 O   0  0  0  0  0  0  0  0  0  0  0  0
  190.4720  174.7950  144.0560 C   0  0  1  0  0  3  0  0  0  0  0  0
  186.5730  177.0070  142.5500 C   0  0  0  0  0  2  0  0  0  0  0  0
  187.4880  176.0430  143.3150 C   0  0  2  0  0  3  0  0  0  0  0  0
  195.0080  176.6720  144.9280 C   0  0  0  0  0  3  0  0  0  0  0  0
  185.8990  178.1100  144.6820 C   0  0  1  0  0  3  0  0  0  0  0  0
  192.8210  175.7830  144.4580 C   0  0  0  0  0  0  0  0  0  0  0  0
  192.3850  176.3040  145.6920 C   0  0  0  0  0  0  0  0  0  0  0  0
  192.2630  174.6270  142.4560 O   0  0  0  0  0  0  0  0  0  0  0  0
  186.7680  177.1380  145.4730 C   0  0  0  0  0  2  0  0  0  0  0  0
  191.8770  175.0640  143.5740 C   0  0  0  0  0  0  0  0  0  0  0  0
  185.3930  177.4350  143.4140 C   0  0  0  0  0  2  0  0  0  0  0  0
  194.1500  175.9800  144.0770 C   0  0  0  0  0  3  0  0  0  0  0  0
  194.5400  177.1470  146.1110 N   0  0  0  0  0  0  0  0  0  0  0  0
  193.2710  176.9670  146.4830 N   0  0  0  0  0  0  0  0  0  0  0  0
  190.0210  175.9400  144.9780 C   0  0  2  0  0  3  0  0  0  0  0  0
  183.8600  178.8570  146.1500 N   0  0  0  0  0  0  0  0  0  0  0  0
  184.7610  178.5270  145.5020 C   0  0  0  0  0  0  0  0  0  0  0  0
  189.5950  173.2950  142.2380 C   0  0  0  0  0  2  0  0  0  0  0  0
  188.1970  172.7410  142.0400 C   0  0  0  0  0  2  0  0  0  0  0  0
  187.8990  172.6750  140.6220 N   0  0  0  0  0  2  0  0  0  0  0  0
  189.1740  172.7160  139.9260 C   0  0  0  0  0  2  0  0  0  0  0  0
  189.8280  174.7490  135.6700 O   0  0  0  0  0  0  0  0  0  0  0  0
  189.6930  172.3830  135.6660 C   0  0  0  0  0  3  0  0  0  0  0  0
  189.3880  173.7520  137.7340 N   0  0  0  0  0  2  0  0  0  0  0  0
  189.7310  171.3290  137.9100 C   0  0  0  0  0  2  0  0  0  0  0  0
  188.9570  172.5450  138.4350 C   0  0  1  0  0  3  0  0  0  0  0  0
  189.6450  173.6930  136.3280 C   0  0  0  0  0  0  0  0  0  0  0  0
  189.6910  171.2710  136.4050 C   0  0  0  0  0  3  0  0  0  0  0  0
  1  2  1  1  0  0  0
  3  6  2  0  0  0  0
  4  7  1  0  0  0  0
  4 16  1  1  0  0  0
  5  8  1  0  0  0  0
  6  5  1  0  0  0  0
  6 10  1  0  0  0  0
  8 17  1  6  0  0  0
  8 22  1  0  0  0  0
  9 18  1  0  0  0  0
 10  9  1  6  0  0  0
 10  4  1  0  0  0  0
 11 20  1  0  0  0  0
 12 16  1  0  0  0  0
 12 24  1  1  0  0  0
 13 14  2  0  0  0  0
 14  1  1  0  0  0  0
 14 21  1  0  0  0  0
 15 17  2  0  0  0  0
 17 13  1  0  0  0  0
 18 12  1  0  0  0  0
 19 13  1  0  0  0  0
 19 11  2  0  0  0  0
 20 21  2  0  0  0  0
 22  7  1  1  0  0  0
 22  1  1  0  0  0  0
 24 23  3  0  0  0  0
 25  5  1  0  0  0  0
 26 25  1  0  0  0  0
 27 26  1  0  0  0  0
 28 27  1  0  0  0  0
 29 34  2  0  0  0  0
 30 34  1  0  0  0  0
 30 35  2  0  0  0  0
 31 33  1  0  0  0  0
 32 33  1  0  0  0  0
 33 28  1  1  0  0  0
 34 31  1  0  0  0  0
 35 32  1  0  0  0  0
M  END
>  <MODEL>
9

>  <REMARK>
 VINA RESULT:      -6.9      2.703      8.170
  Name = 
  6 active torsions:
  status: ('A' for Active; 'I' for Inactive)
    1  A    between atoms: C_8  and  N_31
    2  A    between atoms: C_8  and  C_33
    3  A    between atoms: N_9  and  C_33
    4  A    between atoms: C_17  and  C_32
    5  A    between atoms: C_18  and  C_23
    6  A    between atoms: C_18  and  N_31
                            x       y       z     vdW  Elec       q    Type
                         _______ _______ _______ _____ _____    ______ ____

>  <TORSDO>
F 6

$$$$
