=
 OpenBabel11042416503D

 29 34  0  0  1  0  0  0  0  0999 V2000
  187.8710  175.2690  142.4050 S   0  0  0  0  0  0  0  0  0  0  0  0
  193.1700  172.1480  144.5660 N   0  0  0  0  0  0  0  0  0  0  0  0
  190.0880  174.1370  143.6900 C   0  0  0  0  0  0  0  0  0  0  0  0
  187.9060  176.1660  143.9680 C   0  0  0  0  0  0  0  0  0  0  0  0
  190.1350  175.2140  144.4920 C   0  0  0  0  0  2  0  0  0  0  0  0
  191.0990  173.1240  143.7440 C   0  0  0  0  0  0  0  0  0  0  0  0
  191.7520  170.7100  143.2050 C   0  0  0  0  0  3  0  0  0  0  0  0
  192.3090  173.2790  144.3590 C   0  0  0  0  0  0  0  0  0  0  0  0
  188.9320  173.9130  142.9160 C   0  0  0  0  0  0  0  0  0  0  0  0
  189.0180  176.1490  144.7110 C   0  0  0  0  0  3  0  0  0  0  0  0
  189.6170  171.6720  142.5130 N   0  0  0  0  0  0  0  0  0  0  0  0
  190.7890  171.8600  143.1730 C   0  0  0  0  0  0  0  0  0  0  0  0
  192.9340  170.9710  144.0800 C   0  0  0  0  0  3  0  0  0  0  0  0
  188.7100  172.6640  142.3530 C   0  0  0  0  0  3  0  0  0  0  0  0
  193.9650  177.0450  147.0050 O   0  0  0  0  0  0  0  0  0  0  0  0
  193.1650  174.7350  146.2350 C   0  0  2  0  0  3  0  0  0  0  0  0
  192.7930  174.5560  144.7910 N   0  0  0  0  0  0  0  0  0  0  0  0
  193.2120  175.5610  143.7600 C   0  0  0  0  0  2  0  0  0  0  0  0
  193.7440  176.7470  145.5670 C   0  0  0  0  0  0  0  0  0  0  0  0
  192.0360  174.9890  146.9970 F   0  0  0  0  0  0  0  0  0  0  0  0
  194.2560  175.8250  146.4380 C   0  0  1  0  0  3  0  0  0  0  0  0
  193.3270  176.8930  144.3680 N   0  0  0  0  0  0  0  0  0  0  0  0
  184.6120  178.7660  145.8060 C   0  0  0  0  0  3  0  0  0  0  0  0
  186.1260  176.8010  145.5230 C   0  0  0  0  0  3  0  0  0  0  0  0
  186.7520  177.0250  144.3490 C   0  0  0  0  0  0  0  0  0  0  0  0
  184.9440  177.5010  146.0620 C   0  0  0  0  0  3  0  0  0  0  0  0
  185.6450  179.1510  143.6050 C   0  0  0  0  0  3  0  0  0  0  0  0
  186.2480  177.9910  143.3430 C   0  0  0  0  0  3  0  0  0  0  0  0
  185.4610  179.6780  144.9860 C   0  0  0  0  0  2  0  0  0  0  0  0
  1  9  1  0  0  0  0
  1  4  1  0  0  0  0
  3  6  1  0  0  0  0
  3  5  1  0  0  0  0
  4 25  1  0  0  0  0
  4 10  2  0  0  0  0
  5 10  1  0  0  0  0
  6  8  2  0  0  0  0
  7 13  1  0  0  0  0
  8  2  1  0  0  0  0
  8 17  1  0  0  0  0
  9  3  2  0  0  0  0
 11 12  1  0  0  0  0
 12  7  2  0  0  0  0
 12  6  1  0  0  0  0
 13  2  2  0  0  0  0
 14 11  2  0  0  0  0
 14  9  1  0  0  0  0
 16 21  1  0  0  0  0
 16 20  1  1  0  0  0
 17 16  1  0  0  0  0
 18 22  1  0  0  0  0
 18 17  1  0  0  0  0
 19 15  1  0  0  0  0
 21 19  1  6  0  0  0
 21 15  1  0  0  0  0
 22 19  2  0  0  0  0
 23 26  2  0  0  0  0
 24 26  1  0  0  0  0
 25 24  2  0  0  0  0
 27 29  1  0  0  0  0
 28 27  2  0  0  0  0
 28 25  1  0  0  0  0
 29 23  1  0  0  0  0
M  END
>  <MODEL>
1

>  <REMARK>
 VINA RESULT:      -8.5      0.000      0.000
  Name = 
  2 active torsions:
  status: ('A' for Active; 'I' for Inactive)
    1  A    between atoms: C_8  and  C_9
    2  A    between atoms: N_10  and  C_16
                            x       y       z     vdW  Elec       q    Type
                         _______ _______ _______ _____ _____    ______ ____

>  <TORSDO>
F 2

$$$$
=
 OpenBabel11042416503D

 29 34  0  0  1  0  0  0  0  0999 V2000
  188.7500  176.1670  146.7810 S   0  0  0  0  0  0  0  0  0  0  0  0
  193.9540  173.5990  143.8130 N   0  0  0  0  0  0  0  0  0  0  0  0
  190.7970  175.1710  145.1490 C   0  0  0  0  0  0  0  0  0  0  0  0
  188.0650  176.3900  145.1290 C   0  0  0  0  0  0  0  0  0  0  0  0
  189.9000  175.0350  144.1580 C   0  0  0  0  0  2  0  0  0  0  0  0
  192.1420  174.7010  145.0050 C   0  0  0  0  0  0  0  0  0  0  0  0
  194.5620  174.8280  145.8260 C   0  0  0  0  0  3  0  0  0  0  0  0
  192.5540  173.8410  144.0260 C   0  0  0  0  0  0  0  0  0  0  0  0
  190.4580  175.9500  146.2730 C   0  0  0  0  0  0  0  0  0  0  0  0
  188.6000  175.7250  144.0990 C   0  0  0  0  0  3  0  0  0  0  0  0
  192.7440  176.0370  146.9200 N   0  0  0  0  0  0  0  0  0  0  0  0
  193.1140  175.2160  145.9040 C   0  0  0  0  0  0  0  0  0  0  0  0
  194.8850  174.0510  144.5920 C   0  0  0  0  0  3  0  0  0  0  0  0
  191.4550  176.3870  147.1340 C   0  0  0  0  0  3  0  0  0  0  0  0
  189.9940  172.0770  140.2500 O   0  0  0  0  0  0  0  0  0  0  0  0
  191.6930  173.3210  141.7110 C   0  0  2  0  0  3  0  0  0  0  0  0
  191.6330  173.1210  143.1980 N   0  0  0  0  0  0  0  0  0  0  0  0
  190.8690  171.9740  143.7880 C   0  0  0  0  0  2  0  0  0  0  0  0
  190.1070  171.8000  141.7050 C   0  0  0  0  0  0  0  0  0  0  0  0
  191.0050  174.4680  141.3490 F   0  0  0  0  0  0  0  0  0  0  0  0
  191.1950  172.0770  140.9220 C   0  0  1  0  0  3  0  0  0  0  0  0
  189.7450  171.6110  142.9150 N   0  0  0  0  0  0  0  0  0  0  0  0
  184.3320  179.0430  145.2670 C   0  0  0  0  0  3  0  0  0  0  0  0
  185.9130  177.2310  145.9380 C   0  0  0  0  0  3  0  0  0  0  0  0
  186.8300  177.2010  144.9480 C   0  0  0  0  0  0  0  0  0  0  0  0
  184.6120  177.9280  145.9410 C   0  0  0  0  0  3  0  0  0  0  0  0
  185.9150  178.9390  143.3860 C   0  0  0  0  0  3  0  0  0  0  0  0
  186.5950  177.8170  143.6200 C   0  0  0  0  0  3  0  0  0  0  0  0
  185.3490  179.7890  144.4710 C   0  0  0  0  0  2  0  0  0  0  0  0
  2  8  2  0  0  0  0
  2 13  1  0  0  0  0
  3  9  1  0  0  0  0
  4  1  1  0  0  0  0
  5  3  1  0  0  0  0
  6  3  2  0  0  0  0
  6 12  1  0  0  0  0
  7 12  1  0  0  0  0
  8  6  1  0  0  0  0
  9  1  1  0  0  0  0
  9 14  2  0  0  0  0
 10  5  1  0  0  0  0
 10  4  2  0  0  0  0
 11 14  1  0  0  0  0
 12 11  2  0  0  0  0
 13  7  2  0  0  0  0
 15 19  1  0  0  0  0
 16 20  1  1  0  0  0
 16 17  1  0  0  0  0
 17 18  1  0  0  0  0
 17  8  1  0  0  0  0
 19 22  2  0  0  0  0
 21 15  1  6  0  0  0
 21 19  1  0  0  0  0
 21 16  1  0  0  0  0
 22 18  1  0  0  0  0
 23 26  2  0  0  0  0
 24 26  1  0  0  0  0
 25  4  1  0  0  0  0
 25 24  2  0  0  0  0
 27 28  2  0  0  0  0
 27 29  1  0  0  0  0
 28 25  1  0  0  0  0
 29 23  1  0  0  0  0
M  END
>  <MODEL>
2

>  <REMARK>
 VINA RESULT:      -8.2      2.587      4.296
  Name = 
  2 active torsions:
  status: ('A' for Active; 'I' for Inactive)
    1  A    between atoms: C_8  and  C_9
    2  A    between atoms: N_10  and  C_16
                            x       y       z     vdW  Elec       q    Type
                         _______ _______ _______ _____ _____    ______ ____

>  <TORSDO>
F 2

$$$$
=
 OpenBabel11042416503D

 29 34  0  0  1  0  0  0  0  0999 V2000
  187.7300  177.1660  141.9970 S   0  0  0  0  0  0  0  0  0  0  0  0
  192.5030  172.7280  141.8880 N   0  0  0  0  0  0  0  0  0  0  0  0
  189.7360  175.2460  142.3650 C   0  0  0  0  0  0  0  0  0  0  0  0
  187.8250  177.0510  143.7940 C   0  0  0  0  0  0  0  0  0  0  0  0
  189.8920  175.6930  143.6220 C   0  0  0  0  0  2  0  0  0  0  0  0
  190.6050  174.2480  141.8170 C   0  0  0  0  0  0  0  0  0  0  0  0
  190.9620  172.4610  140.0210 C   0  0  0  0  0  3  0  0  0  0  0  0
  191.8030  173.8880  142.3670 C   0  0  0  0  0  0  0  0  0  0  0  0
  188.5890  175.6300  141.6430 C   0  0  0  0  0  0  0  0  0  0  0  0
  188.8980  176.4900  144.3620 C   0  0  0  0  0  3  0  0  0  0  0  0
  188.9950  173.9070  140.0540 N   0  0  0  0  0  0  0  0  0  0  0  0
  190.1560  173.5540  140.6620 C   0  0  0  0  0  0  0  0  0  0  0  0
  192.1350  172.0490  140.8480 C   0  0  0  0  0  3  0  0  0  0  0  0
  188.2290  174.9310  140.4980 C   0  0  0  0  0  3  0  0  0  0  0  0
  193.7810  175.3680  146.5880 O   0  0  0  0  0  0  0  0  0  0  0  0
  192.7180  173.9750  144.7180 C   0  0  2  0  0  3  0  0  0  0  0  0
  192.4310  174.6480  143.4060 N   0  0  0  0  0  0  0  0  0  0  0  0
  193.0650  175.9620  143.0630 C   0  0  0  0  0  2  0  0  0  0  0  0
  193.6260  175.9130  145.2150 C   0  0  0  0  0  0  0  0  0  0  0  0
  191.5840  173.9660  145.5140 F   0  0  0  0  0  0  0  0  0  0  0  0
  193.9350  174.6030  145.4550 C   0  0  1  0  0  3  0  0  0  0  0  0
  193.3240  176.7340  144.2850 N   0  0  0  0  0  0  0  0  0  0  0  0
  184.1700  178.9460  145.8040 C   0  0  0  0  0  3  0  0  0  0  0  0
  185.8840  178.5220  144.0390 C   0  0  0  0  0  3  0  0  0  0  0  0
  186.7780  177.7010  144.6280 C   0  0  0  0  0  0  0  0  0  0  0  0
  184.8060  179.2960  144.6870 C   0  0  0  0  0  3  0  0  0  0  0  0
  185.8380  177.5460  146.9510 C   0  0  0  0  0  3  0  0  0  0  0  0
  186.8640  177.5340  146.0990 C   0  0  0  0  0  3  0  0  0  0  0  0
  184.4190  177.6570  146.5110 C   0  0  0  0  0  2  0  0  0  0  0  0
  1  4  1  0  0  0  0
  2  8  1  0  0  0  0
  3  5  1  0  0  0  0
  4 10  2  0  0  0  0
  4 25  1  0  0  0  0
  5 10  1  0  0  0  0
  6  3  1  0  0  0  0
  6  8  2  0  0  0  0
  7 12  2  0  0  0  0
  7 13  1  0  0  0  0
  8 17  1  0  0  0  0
  9  1  1  0  0  0  0
  9  3  2  0  0  0  0
 11 14  2  0  0  0  0
 11 12  1  0  0  0  0
 12  6  1  0  0  0  0
 13  2  2  0  0  0  0
 14  9  1  0  0  0  0
 16 21  1  0  0  0  0
 16 20  1  1  0  0  0
 17 16  1  0  0  0  0
 18 17  1  0  0  0  0
 18 22  1  0  0  0  0
 19 15  1  0  0  0  0
 21 19  1  6  0  0  0
 21 15  1  0  0  0  0
 22 19  2  0  0  0  0
 23 29  1  0  0  0  0
 24 25  2  0  0  0  0
 24 26  1  0  0  0  0
 25 28  1  0  0  0  0
 26 23  2  0  0  0  0
 28 27  2  0  0  0  0
 29 27  1  0  0  0  0
M  END
>  <MODEL>
3

>  <REMARK>
 VINA RESULT:      -8.0      1.740      2.226
  Name = 
  2 active torsions:
  status: ('A' for Active; 'I' for Inactive)
    1  A    between atoms: C_8  and  C_9
    2  A    between atoms: N_10  and  C_16
                            x       y       z     vdW  Elec       q    Type
                         _______ _______ _______ _____ _____    ______ ____

>  <TORSDO>
F 2

$$$$
=
 OpenBabel11042416503D

 29 34  0  0  1  0  0  0  0  0999 V2000
  186.6400  176.9570  145.3200 S   0  0  0  0  0  0  0  0  0  0  0  0
  192.5070  174.1160  145.3540 N   0  0  0  0  0  0  0  0  0  0  0  0
  189.1440  175.7680  144.9190 C   0  0  0  0  0  0  0  0  0  0  0  0
  186.7260  176.8430  143.5230 C   0  0  0  0  0  0  0  0  0  0  0  0
  188.7450  175.4140  143.6860 C   0  0  0  0  0  2  0  0  0  0  0  0
  190.4060  175.3380  145.4450 C   0  0  0  0  0  0  0  0  0  0  0  0
  192.2560  175.7190  147.1700 C   0  0  0  0  0  3  0  0  0  0  0  0
  191.1590  174.3320  144.9090 C   0  0  0  0  0  0  0  0  0  0  0  0
  188.3940  176.7250  145.6290 C   0  0  0  0  0  0  0  0  0  0  0  0
  187.6200  176.0240  142.9580 C   0  0  0  0  0  3  0  0  0  0  0  0
  190.1950  177.0290  147.1520 N   0  0  0  0  0  0  0  0  0  0  0  0
  190.9260  176.0510  146.5580 C   0  0  0  0  0  0  0  0  0  0  0  0
  193.0390  174.7430  146.3550 C   0  0  0  0  0  3  0  0  0  0  0  0
  188.9500  177.3560  146.7340 C   0  0  0  0  0  3  0  0  0  0  0  0
  190.3270  171.8360  140.7850 O   0  0  0  0  0  0  0  0  0  0  0  0
  191.2990  173.4010  142.5660 C   0  0  2  0  0  3  0  0  0  0  0  0
  190.6460  173.4330  143.9180 N   0  0  0  0  0  0  0  0  0  0  0  0
  189.7050  172.3450  144.3420 C   0  0  0  0  0  2  0  0  0  0  0  0
  189.8450  171.7970  142.1890 C   0  0  0  0  0  0  0  0  0  0  0  0
  190.8180  174.4300  141.7730 F   0  0  0  0  0  0  0  0  0  0  0  0
  191.1560  172.0190  141.8680 C   0  0  1  0  0  3  0  0  0  0  0  0
  189.0270  171.7770  143.1700 N   0  0  0  0  0  0  0  0  0  0  0  0
  183.6910  178.4830  140.5080 C   0  0  0  0  0  3  0  0  0  0  0  0
  185.8460  177.5440  141.3500 C   0  0  0  0  0  3  0  0  0  0  0  0
  185.7150  177.5520  142.6930 C   0  0  0  0  0  0  0  0  0  0  0  0
  184.9890  178.2190  140.3560 C   0  0  0  0  0  3  0  0  0  0  0  0
  183.4610  178.6240  142.9540 C   0  0  0  0  0  3  0  0  0  0  0  0
  184.6930  178.3670  143.3930 C   0  0  0  0  0  3  0  0  0  0  0  0
  182.9070  178.0440  141.6990 C   0  0  0  0  0  2  0  0  0  0  0  0
  1  9  1  0  0  0  0
  2 13  1  0  0  0  0
  3  6  2  0  0  0  0
  3  9  1  0  0  0  0
  4  1  1  0  0  0  0
  5  3  1  0  0  0  0
  6 12  1  0  0  0  0
  8  2  2  0  0  0  0
  8  6  1  0  0  0  0
  9 14  2  0  0  0  0
 10  4  2  0  0  0  0
 10  5  1  0  0  0  0
 12 11  2  0  0  0  0
 12  7  1  0  0  0  0
 13  7  2  0  0  0  0
 14 11  1  0  0  0  0
 15 19  1  0  0  0  0
 16 20  1  6  0  0  0
 16 17  1  0  0  0  0
 17 18  1  0  0  0  0
 17  8  1  0  0  0  0
 19 22  2  0  0  0  0
 21 15  1  6  0  0  0
 21 19  1  0  0  0  0
 21 16  1  0  0  0  0
 22 18  1  0  0  0  0
 23 29  1  0  0  0  0
 24 25  2  0  0  0  0
 25 28  1  0  0  0  0
 25  4  1  0  0  0  0
 26 23  2  0  0  0  0
 26 24  1  0  0  0  0
 27 28  2  0  0  0  0
 29 27  1  0  0  0  0
M  END
>  <MODEL>
4

>  <REMARK>
 VINA RESULT:      -7.9      2.785      4.739
  Name = 
  2 active torsions:
  status: ('A' for Active; 'I' for Inactive)
    1  A    between atoms: C_8  and  C_9
    2  A    between atoms: N_10  and  C_16
                            x       y       z     vdW  Elec       q    Type
                         _______ _______ _______ _____ _____    ______ ____

>  <TORSDO>
F 2

$$$$
=
 OpenBabel11042416503D

 29 34  0  0  1  0  0  0  0  0999 V2000
  189.8300  174.5770  143.3660 S   0  0  0  0  0  0  0  0  0  0  0  0
  184.7160  178.4550  142.2300 N   0  0  0  0  0  0  0  0  0  0  0  0
  187.7940  176.4900  143.1740 C   0  0  0  0  0  0  0  0  0  0  0  0
  190.2430  175.7100  144.7060 C   0  0  0  0  0  0  0  0  0  0  0  0
  188.0620  176.8590  144.4380 C   0  0  0  0  0  2  0  0  0  0  0  0
  186.6860  177.0470  142.4560 C   0  0  0  0  0  0  0  0  0  0  0  0
  185.6100  177.4950  140.1790 C   0  0  0  0  0  3  0  0  0  0  0  0
  185.6620  177.7380  143.0390 C   0  0  0  0  0  0  0  0  0  0  0  0
  188.7220  175.6840  142.4880 C   0  0  0  0  0  0  0  0  0  0  0  0
  189.3170  176.5670  145.1510 C   0  0  0  0  0  3  0  0  0  0  0  0
  187.6670  176.2020  140.4210 N   0  0  0  0  0  0  0  0  0  0  0  0
  186.6950  176.9180  141.0410 C   0  0  0  0  0  0  0  0  0  0  0  0
  184.6830  178.3860  140.9370 C   0  0  0  0  0  3  0  0  0  0  0  0
  188.6490  175.5710  141.1060 C   0  0  0  0  0  3  0  0  0  0  0  0
  184.8480  179.0990  147.6660 O   0  0  0  0  0  0  0  0  0  0  0  0
  185.1430  179.0690  145.1210 C   0  0  2  0  0  3  0  0  0  0  0  0
  185.4590  177.7590  144.4570 N   0  0  0  0  0  0  0  0  0  0  0  0
  185.2500  176.4620  145.1800 C   0  0  0  0  0  2  0  0  0  0  0  0
  184.9910  177.8210  146.9230 C   0  0  0  0  0  0  0  0  0  0  0  0
  186.3060  179.7850  145.3530 F   0  0  0  0  0  0  0  0  0  0  0  0
  184.3050  178.8920  146.4190 C   0  0  1  0  0  3  0  0  0  0  0  0
  185.4190  176.6550  146.6250 N   0  0  0  0  0  0  0  0  0  0  0  0
  194.5710  175.3510  146.1640 C   0  0  0  0  0  3  0  0  0  0  0  0
  192.5230  174.8300  144.8350 C   0  0  0  0  0  3  0  0  0  0  0  0
  191.5570  175.5890  145.3930 C   0  0  0  0  0  0  0  0  0  0  0  0
  193.8670  174.5420  145.3720 C   0  0  0  0  0  3  0  0  0  0  0  0
  192.8140  176.6610  147.2830 C   0  0  0  0  0  3  0  0  0  0  0  0
  191.6900  176.1900  146.7420 C   0  0  0  0  0  3  0  0  0  0  0  0
  194.1090  176.7150  146.5480 C   0  0  0  0  0  2  0  0  0  0  0  0
  1  4  1  0  0  0  0
  2  8  1  0  0  0  0
  3  5  1  0  0  0  0
  4 10  2  0  0  0  0
  4 25  1  0  0  0  0
  5 10  1  0  0  0  0
  6  8  2  0  0  0  0
  6  3  1  0  0  0  0
  7 13  1  0  0  0  0
  7 12  2  0  0  0  0
  8 17  1  0  0  0  0
  9  3  2  0  0  0  0
  9  1  1  0  0  0  0
 11 12  1  0  0  0  0
 11 14  2  0  0  0  0
 12  6  1  0  0  0  0
 13  2  2  0  0  0  0
 14  9  1  0  0  0  0
 16 20  1  1  0  0  0
 16 21  1  0  0  0  0
 17 16  1  0  0  0  0
 17 18  1  0  0  0  0
 18 22  1  0  0  0  0
 19 15  1  0  0  0  0
 21 19  1  1  0  0  0
 21 15  1  0  0  0  0
 22 19  2  0  0  0  0
 23 29  1  0  0  0  0
 24 26  1  0  0  0  0
 24 25  2  0  0  0  0
 25 28  1  0  0  0  0
 26 23  2  0  0  0  0
 28 27  2  0  0  0  0
 29 27  1  0  0  0  0
M  END
>  <MODEL>
5

>  <REMARK>
 VINA RESULT:      -7.7      3.846      7.551
  Name = 
  2 active torsions:
  status: ('A' for Active; 'I' for Inactive)
    1  A    between atoms: C_8  and  C_9
    2  A    between atoms: N_10  and  C_16
                            x       y       z     vdW  Elec       q    Type
                         _______ _______ _______ _____ _____    ______ ____

>  <TORSDO>
F 2

$$$$
=
 OpenBabel11042416503D

 29 34  0  0  1  0  0  0  0  0999 V2000
  188.6120  176.0770  146.9860 S   0  0  0  0  0  0  0  0  0  0  0  0
  194.1960  174.5520  143.9900 N   0  0  0  0  0  0  0  0  0  0  0  0
  190.8240  175.5540  145.3500 C   0  0  0  0  0  0  0  0  0  0  0  0
  187.9680  176.4440  145.3430 C   0  0  0  0  0  0  0  0  0  0  0  0
  189.9880  175.4540  144.3030 C   0  0  0  0  0  2  0  0  0  0  0  0
  192.2210  175.2650  145.2170 C   0  0  0  0  0  0  0  0  0  0  0  0
  194.5750  175.5550  146.1760 C   0  0  0  0  0  3  0  0  0  0  0  0
  192.7700  174.6000  144.1580 C   0  0  0  0  0  0  0  0  0  0  0  0
  190.3520  176.1290  146.5460 C   0  0  0  0  0  0  0  0  0  0  0  0
  188.6180  175.9920  144.2650 C   0  0  0  0  0  3  0  0  0  0  0  0
  192.5850  176.3880  147.3210 N   0  0  0  0  0  0  0  0  0  0  0  0
  193.0890  175.7600  146.2270 C   0  0  0  0  0  0  0  0  0  0  0  0
  195.0360  174.9960  144.8700 C   0  0  0  0  0  3  0  0  0  0  0  0
  191.2560  176.5550  147.5100 C   0  0  0  0  0  3  0  0  0  0  0  0
  189.9820  171.3210  141.8340 O   0  0  0  0  0  0  0  0  0  0  0  0
  191.3470  172.5930  143.5900 C   0  0  2  0  0  3  0  0  0  0  0  0
  191.9740  173.8990  143.1940 N   0  0  0  0  0  0  0  0  0  0  0  0
  191.5300  174.6200  141.9570 C   0  0  0  0  0  2  0  0  0  0  0  0
  190.4860  172.6930  141.5710 C   0  0  0  0  0  0  0  0  0  0  0  0
  192.2650  171.5610  143.4710 F   0  0  0  0  0  0  0  0  0  0  0  0
  190.0400  172.2970  142.8020 C   0  0  1  0  0  3  0  0  0  0  0  0
  191.0510  173.6590  140.9550 N   0  0  0  0  0  0  0  0  0  0  0  0
  184.0320  178.7780  145.5810 C   0  0  0  0  0  3  0  0  0  0  0  0
  185.8290  177.1880  146.2720 C   0  0  0  0  0  3  0  0  0  0  0  0
  186.6520  177.1250  145.2050 C   0  0  0  0  0  0  0  0  0  0  0  0
  184.4740  177.7700  146.3330 C   0  0  0  0  0  3  0  0  0  0  0  0
  185.4430  178.6000  143.5720 C   0  0  0  0  0  3  0  0  0  0  0  0
  186.2430  177.5700  143.8510 C   0  0  0  0  0  3  0  0  0  0  0  0
  184.9010  179.5140  144.6170 C   0  0  0  0  0  2  0  0  0  0  0  0
  2  8  2  0  0  0  0
  2 13  1  0  0  0  0
  3  9  1  0  0  0  0
  4  1  1  0  0  0  0
  5  3  1  0  0  0  0
  6  3  2  0  0  0  0
  6 12  1  0  0  0  0
  7 12  1  0  0  0  0
  8  6  1  0  0  0  0
  9  1  1  0  0  0  0
  9 14  2  0  0  0  0
 10  5  1  0  0  0  0
 10  4  2  0  0  0  0
 11 14  1  0  0  0  0
 12 11  2  0  0  0  0
 13  7  2  0  0  0  0
 15 21  1  0  0  0  0
 16 20  1  6  0  0  0
 17 16  1  0  0  0  0
 17  8  1  0  0  0  0
 18 17  1  0  0  0  0
 19 15  1  0  0  0  0
 21 19  1  6  0  0  0
 21 16  1  0  0  0  0
 22 19  2  0  0  0  0
 22 18  1  0  0  0  0
 23 26  2  0  0  0  0
 24 26  1  0  0  0  0
 25  4  1  0  0  0  0
 25 24  2  0  0  0  0
 27 28  2  0  0  0  0
 27 29  1  0  0  0  0
 28 25  1  0  0  0  0
 29 23  1  0  0  0  0
M  END
>  <MODEL>
6

>  <REMARK>
 VINA RESULT:      -7.7      2.525      4.166
  Name = 
  2 active torsions:
  status: ('A' for Active; 'I' for Inactive)
    1  A    between atoms: C_8  and  C_9
    2  A    between atoms: N_10  and  C_16
                            x       y       z     vdW  Elec       q    Type
                         _______ _______ _______ _____ _____    ______ ____

>  <TORSDO>
F 2

$$$$
=
 OpenBabel11042416503D

 29 34  0  0  1  0  0  0  0  0999 V2000
  187.3290  177.8670  142.2890 S   0  0  0  0  0  0  0  0  0  0  0  0
  189.4270  172.6870  138.9360 N   0  0  0  0  0  0  0  0  0  0  0  0
  188.1470  175.4230  141.1940 C   0  0  0  0  0  0  0  0  0  0  0  0
  187.1950  176.7530  143.6990 C   0  0  0  0  0  0  0  0  0  0  0  0
  188.3810  174.9770  142.4400 C   0  0  0  0  0  2  0  0  0  0  0  0
  188.4880  174.6370  140.0460 C   0  0  0  0  0  0  0  0  0  0  0  0
  188.1190  174.2050  137.5520 C   0  0  0  0  0  3  0  0  0  0  0  0
  189.3180  173.5520  140.0770 C   0  0  0  0  0  0  0  0  0  0  0  0
  187.3880  176.5970  141.0220 C   0  0  0  0  0  0  0  0  0  0  0  0
  187.8190  175.5700  143.6650 C   0  0  0  0  0  3  0  0  0  0  0  0
  187.0740  176.0750  138.7230 N   0  0  0  0  0  0  0  0  0  0  0  0
  187.8700  174.9790  138.8130 C   0  0  0  0  0  0  0  0  0  0  0  0
  188.8780  172.9410  137.7910 C   0  0  0  0  0  3  0  0  0  0  0  0
  186.8460  176.8920  139.7780 C   0  0  0  0  0  3  0  0  0  0  0  0
  191.3470  171.4170  143.9820 O   0  0  0  0  0  0  0  0  0  0  0  0
  189.9260  171.9280  141.9120 C   0  0  2  0  0  3  0  0  0  0  0  0
  190.1330  173.2410  141.2130 N   0  0  0  0  0  0  0  0  0  0  0  0
  191.3590  174.0640  141.4750 C   0  0  0  0  0  2  0  0  0  0  0  0
  191.6130  172.6130  143.1420 C   0  0  0  0  0  0  0  0  0  0  0  0
  188.8610  172.0130  142.7950 F   0  0  0  0  0  0  0  0  0  0  0  0
  191.2170  171.4150  142.6130 C   0  0  1  0  0  3  0  0  0  0  0  0
  191.8420  173.8330  142.8420 N   0  0  0  0  0  0  0  0  0  0  0  0
  185.7210  178.0990  147.8230 C   0  0  0  0  0  3  0  0  0  0  0  0
  186.8540  176.6660  146.1210 C   0  0  0  0  0  3  0  0  0  0  0  0
  186.5080  177.2120  144.9370 C   0  0  0  0  0  0  0  0  0  0  0  0
  186.2690  176.9430  147.4480 C   0  0  0  0  0  3  0  0  0  0  0  0
  184.9710  179.0520  145.6820 C   0  0  0  0  0  3  0  0  0  0  0  0
  185.3640  178.1430  144.7880 C   0  0  0  0  0  3  0  0  0  0  0  0
  185.7030  179.3100  146.9540 C   0  0  0  0  0  2  0  0  0  0  0  0
  1  4  1  0  0  0  0
  2  8  1  0  0  0  0
  3  5  1  0  0  0  0
  4 25  1  0  0  0  0
  5 10  1  0  0  0  0
  6  8  2  0  0  0  0
  6  3  1  0  0  0  0
  7 13  1  0  0  0  0
  7 12  2  0  0  0  0
  8 17  1  0  0  0  0
  9  3  2  0  0  0  0
  9  1  1  0  0  0  0
 10  4  2  0  0  0  0
 11 12  1  0  0  0  0
 11 14  2  0  0  0  0
 12  6  1  0  0  0  0
 13  2  2  0  0  0  0
 14  9  1  0  0  0  0
 16 21  1  0  0  0  0
 16 20  1  1  0  0  0
 17 18  1  0  0  0  0
 17 16  1  0  0  0  0
 18 22  1  0  0  0  0
 19 15  1  0  0  0  0
 21 19  1  6  0  0  0
 21 15  1  0  0  0  0
 22 19  2  0  0  0  0
 24 26  1  0  0  0  0
 25 24  2  0  0  0  0
 26 23  2  0  0  0  0
 27 29  1  0  0  0  0
 28 25  1  0  0  0  0
 28 27  2  0  0  0  0
 29 23  1  0  0  0  0
M  END
>  <MODEL>
7

>  <REMARK>
 VINA RESULT:      -7.5      3.169      4.636
  Name = 
  2 active torsions:
  status: ('A' for Active; 'I' for Inactive)
    1  A    between atoms: C_8  and  C_9
    2  A    between atoms: N_10  and  C_16
                            x       y       z     vdW  Elec       q    Type
                         _______ _______ _______ _____ _____    ______ ____

>  <TORSDO>
F 2

$$$$
=
 OpenBabel11042416503D

 29 34  0  0  1  0  0  0  0  0999 V2000
  187.5600  176.1670  142.4100 S   0  0  0  0  0  0  0  0  0  0  0  0
  192.3190  172.0330  144.0670 N   0  0  0  0  0  0  0  0  0  0  0  0
  189.5420  174.5240  143.5120 C   0  0  0  0  0  0  0  0  0  0  0  0
  187.5800  176.6960  144.1320 C   0  0  0  0  0  0  0  0  0  0  0  0
  189.6480  175.3890  144.5350 C   0  0  0  0  0  2  0  0  0  0  0  0
  190.4310  173.4070  143.3880 C   0  0  0  0  0  0  0  0  0  0  0  0
  190.8550  171.1040  142.3570 C   0  0  0  0  0  3  0  0  0  0  0  0
  191.6040  173.2790  144.0760 C   0  0  0  0  0  0  0  0  0  0  0  0
  188.4270  174.6140  142.6560 C   0  0  0  0  0  0  0  0  0  0  0  0
  188.6280  176.3850  144.9040 C   0  0  0  0  0  3  0  0  0  0  0  0
  188.8920  172.4460  141.7990 N   0  0  0  0  0  0  0  0  0  0  0  0
  190.0270  172.3440  142.5370 C   0  0  0  0  0  0  0  0  0  0  0  0
  191.9920  171.0260  143.3220 C   0  0  0  0  0  3  0  0  0  0  0  0
  188.1120  173.5510  141.8210 C   0  0  0  0  0  3  0  0  0  0  0  0
  194.0670  177.3030  145.3660 O   0  0  0  0  0  0  0  0  0  0  0  0
  192.9670  175.4030  144.0440 C   0  0  2  0  0  3  0  0  0  0  0  0
  192.1910  174.3650  144.8020 N   0  0  0  0  0  0  0  0  0  0  0  0
  191.7600  174.6110  146.2170 C   0  0  0  0  0  2  0  0  0  0  0  0
  193.1470  176.3400  146.0230 C   0  0  0  0  0  0  0  0  0  0  0  0
  194.2590  174.9630  143.8050 F   0  0  0  0  0  0  0  0  0  0  0  0
  192.9500  176.7910  144.7470 C   0  0  1  0  0  3  0  0  0  0  0  0
  192.7090  175.5080  146.8880 N   0  0  0  0  0  0  0  0  0  0  0  0
  183.8210  179.0410  145.3000 C   0  0  0  0  0  3  0  0  0  0  0  0
  185.5000  177.9450  143.8110 C   0  0  0  0  0  3  0  0  0  0  0  0
  186.5020  177.5870  144.6410 C   0  0  0  0  0  0  0  0  0  0  0  0
  184.3700  178.8500  144.1000 C   0  0  0  0  0  3  0  0  0  0  0  0
  185.6790  178.5120  146.8240 C   0  0  0  0  0  3  0  0  0  0  0  0
  186.6650  178.1650  145.9960 C   0  0  0  0  0  3  0  0  0  0  0  0
  184.2400  178.2840  146.5140 C   0  0  0  0  0  2  0  0  0  0  0  0
  1  9  1  0  0  0  0
  1  4  1  0  0  0  0
  2  8  1  0  0  0  0
  3  5  1  0  0  0  0
  4 25  1  0  0  0  0
  4 10  2  0  0  0  0
  5 10  1  0  0  0  0
  6  3  1  0  0  0  0
  6  8  2  0  0  0  0
  7 12  2  0  0  0  0
  7 13  1  0  0  0  0
  8 17  1  0  0  0  0
  9  3  2  0  0  0  0
 11 14  2  0  0  0  0
 11 12  1  0  0  0  0
 12  6  1  0  0  0  0
 13  2  2  0  0  0  0
 14  9  1  0  0  0  0
 15 19  1  0  0  0  0
 16 20  1  1  0  0  0
 16 21  1  0  0  0  0
 16 17  1  0  0  0  0
 17 18  1  0  0  0  0
 18 22  1  0  0  0  0
 19 22  2  0  0  0  0
 21 15  1  6  0  0  0
 21 19  1  0  0  0  0
 23 29  1  0  0  0  0
 24 26  1  0  0  0  0
 24 25  2  0  0  0  0
 25 28  1  0  0  0  0
 26 23  2  0  0  0  0
 28 27  2  0  0  0  0
 29 27  1  0  0  0  0
M  END
>  <MODEL>
8

>  <REMARK>
 VINA RESULT:      -7.5      1.324      1.820
  Name = 
  2 active torsions:
  status: ('A' for Active; 'I' for Inactive)
    1  A    between atoms: C_8  and  C_9
    2  A    between atoms: N_10  and  C_16
                            x       y       z     vdW  Elec       q    Type
                         _______ _______ _______ _____ _____    ______ ____

>  <TORSDO>
F 2

$$$$
=
 OpenBabel11042416503D

 29 34  0  0  1  0  0  0  0  0999 V2000
  188.8850  176.6780  147.1410 S   0  0  0  0  0  0  0  0  0  0  0  0
  194.0610  174.3270  143.9520 N   0  0  0  0  0  0  0  0  0  0  0  0
  190.9280  175.8210  145.4270 C   0  0  0  0  0  0  0  0  0  0  0  0
  188.2290  177.1080  145.5190 C   0  0  0  0  0  0  0  0  0  0  0  0
  190.0410  175.8240  144.4180 C   0  0  0  0  0  2  0  0  0  0  0  0
  192.2620  175.3340  145.2440 C   0  0  0  0  0  0  0  0  0  0  0  0
  194.6730  175.2990  146.0990 C   0  0  0  0  0  3  0  0  0  0  0  0
  192.6650  174.5800  144.1770 C   0  0  0  0  0  0  0  0  0  0  0  0
  190.5940  176.4750  146.6290 C   0  0  0  0  0  0  0  0  0  0  0  0
  188.7610  176.5510  144.4250 C   0  0  0  0  0  3  0  0  0  0  0  0
  192.8730  176.4240  147.3060 N   0  0  0  0  0  0  0  0  0  0  0  0
  193.2350  175.7150  146.2060 C   0  0  0  0  0  0  0  0  0  0  0  0
  194.9930  174.6600  144.7880 C   0  0  0  0  0  3  0  0  0  0  0  0
  191.5900  176.7830  147.5460 C   0  0  0  0  0  3  0  0  0  0  0  0
  189.3180  171.7160  142.0520 O   0  0  0  0  0  0  0  0  0  0  0  0
  190.9250  172.8090  143.7220 C   0  0  2  0  0  3  0  0  0  0  0  0
  191.7370  173.9860  143.2620 N   0  0  0  0  0  0  0  0  0  0  0  0
  191.3710  174.7290  142.0130 C   0  0  0  0  0  2  0  0  0  0  0  0
  190.0240  172.9820  141.7260 C   0  0  0  0  0  0  0  0  0  0  0  0
  191.6630  171.6410  143.6140 F   0  0  0  0  0  0  0  0  0  0  0  0
  189.5610  172.7010  142.9820 C   0  0  1  0  0  3  0  0  0  0  0  0
  190.7130  173.8260  141.0600 N   0  0  0  0  0  0  0  0  0  0  0  0
  184.3800  179.4160  144.5960 C   0  0  0  0  0  3  0  0  0  0  0  0
  186.6480  178.4450  144.2130 C   0  0  0  0  0  3  0  0  0  0  0  0
  187.0180  177.9680  145.4200 C   0  0  0  0  0  0  0  0  0  0  0  0
  185.5180  179.3440  143.9070 C   0  0  0  0  0  3  0  0  0  0  0  0
  185.0670  178.6650  146.8370 C   0  0  0  0  0  3  0  0  0  0  0  0
  186.3620  178.3860  146.6820 C   0  0  0  0  0  3  0  0  0  0  0  0
  184.0660  178.5160  145.7430 C   0  0  0  0  0  2  0  0  0  0  0  0
  2  8  2  0  0  0  0
  2 13  1  0  0  0  0
  3  9  1  0  0  0  0
  4  1  1  0  0  0  0
  5 10  1  0  0  0  0
  5  3  1  0  0  0  0
  6  3  2  0  0  0  0
  6 12  1  0  0  0  0
  7 12  1  0  0  0  0
  8  6  1  0  0  0  0
  9  1  1  0  0  0  0
  9 14  2  0  0  0  0
 10  4  2  0  0  0  0
 11 14  1  0  0  0  0
 12 11  2  0  0  0  0
 13  7  2  0  0  0  0
 15 21  1  0  0  0  0
 16 20  1  6  0  0  0
 17 16  1  0  0  0  0
 17  8  1  0  0  0  0
 18 17  1  0  0  0  0
 19 15  1  0  0  0  0
 21 19  1  6  0  0  0
 21 16  1  0  0  0  0
 22 19  2  0  0  0  0
 22 18  1  0  0  0  0
 23 29  1  0  0  0  0
 24 25  2  0  0  0  0
 25  4  1  0  0  0  0
 25 28  1  0  0  0  0
 26 24  1  0  0  0  0
 26 23  2  0  0  0  0
 28 27  2  0  0  0  0
 29 27  1  0  0  0  0
M  END
>  <MODEL>
9

>  <REMARK>
 VINA RESULT:      -7.4      2.579      4.357
  Name = 
  2 active torsions:
  status: ('A' for Active; 'I' for Inactive)
    1  A    between atoms: C_8  and  C_9
    2  A    between atoms: N_10  and  C_16
                            x       y       z     vdW  Elec       q    Type
                         _______ _______ _______ _____ _____    ______ ____

>  <TORSDO>
F 2

$$$$
