=
 OpenBabel11042414343D

 46 53  0  0  1  0  0  0  0  0999 V2000
  191.3330  174.8790  145.0880 C   0  0  0  0  0  0  0  0  0  0  0  0
  194.6580  176.1930  142.6440 C   0  0  0  0  0  3  0  0  0  0  0  0
  190.0120  174.9450  147.1300 C   0  0  0  0  0  0  0  0  0  0  0  0
  194.4540  174.9670  144.7870 C   0  0  0  0  0  0  0  0  0  0  0  0
  193.0290  174.8360  141.7150 C   0  0  0  0  0  3  0  0  0  0  0  0
  192.0640  176.2150  146.9930 C   0  0  0  0  0  3  0  0  0  0  0  0
  190.9330  175.8170  147.7080 C   0  0  0  0  0  3  0  0  0  0  0  0
  192.7120  174.9010  143.0030 C   0  0  0  0  0  0  0  0  0  0  0  0
  190.2160  174.4740  145.8340 C   0  0  0  0  0  3  0  0  0  0  0  0
  195.2170  174.0140  145.2010 N   0  0  0  0  0  0  0  0  0  0  0  0
  192.2850  175.7560  145.6900 C   0  0  0  0  0  0  0  0  0  0  0  0
  188.8900  174.5480  147.8470 O   0  0  0  0  0  1  0  0  0  0  0  0
  191.4990  174.3330  143.6790 C   0  0  2  0  0  3  0  0  0  0  0  0
  194.2430  175.6460  141.4990 C   0  0  0  0  0  3  0  0  0  0  0  0
  193.7210  175.7130  143.6830 C   0  0  2  0  0  0  0  0  0  0  0  0
  193.5670  176.2010  145.0180 C   0  0  2  0  0  3  0  0  0  0  0  0
  188.3800  173.6530  141.5910 C   0  0  0  0  0  3  0  0  0  0  0  0
  188.6500  176.0500  141.8390 C   0  0  0  0  0  0  0  0  0  0  0  0
  187.9420  174.9550  141.3340 C   0  0  0  0  0  3  0  0  0  0  0  0
  190.2650  174.5310  142.8400 C   0  0  0  0  0  0  0  0  0  0  0  0
  189.5350  173.4400  142.3470 C   0  0  0  0  0  3  0  0  0  0  0  0
  189.8130  175.8310  142.5940 C   0  0  0  0  0  3  0  0  0  0  0  0
  188.1740  177.3380  141.5870 O   0  0  0  0  0  0  0  0  0  0  0  0
  187.6390  178.1690  142.6120 C   0  0  0  0  0  2  0  0  0  0  0  0
  186.2390  178.6460  142.2270 C   0  0  2  0  0  3  0  0  0  0  0  0
  186.4900  176.7990  146.6030 C   0  0  0  0  0  1  0  0  0  0  0  0
  185.7260  177.2570  144.2380 C   0  0  0  0  0  0  0  0  0  0  0  0
  184.8400  179.7610  144.3500 S   0  0  0  0  0  0  0  0  0  0  0  0
  185.6050  179.0500  145.8520 C   0  0  0  0  0  2  0  0  0  0  0  0
  185.9370  176.0700  143.8700 O   0  0  0  0  0  0  0  0  0  0  0  0
  185.2070  178.2940  143.3090 C   0  0  1  0  0  3  0  0  0  0  0  0
  185.9510  177.6730  145.5730 N   0  0  0  0  0  0  0  0  0  0  0  0
  185.8560  178.1150  140.9320 N   0  0  0  0  0  0  0  0  0  0  0  0
  184.6710  178.2600  140.4480 C   0  0  0  0  0  2  0  0  0  0  0  0
  195.7270  173.1110  144.3000 O   0  0  0  0  0  0  0  0  0  0  0  0
  196.8960  173.0210  139.8130 C   0  0  2  0  0  0  0  0  0  0  0  0
  197.3270  173.5960  141.0650 N   0  0  0  0  0  0  0  0  0  0  0  0
  197.0580  173.9700  137.4200 C   0  0  0  0  0  1  0  0  0  0  0  0
  196.6050  173.5270  143.3280 N   0  0  0  0  0  0  0  0  0  0  0  0
  195.5600  172.3190  140.0930 C   0  0  0  0  0  2  0  0  0  0  0  0
  197.7170  174.9910  140.9450 C   0  0  0  0  0  2  0  0  0  0  0  0
  195.3980  172.2530  141.6120 C   0  0  0  0  0  2  0  0  0  0  0  0
  196.4670  173.1540  142.0970 C   0  0  0  0  0  0  0  0  0  0  0  0
  197.5810  175.3250  139.4670 C   0  0  0  0  0  2  0  0  0  0  0  0
  197.9330  172.0090  139.3390 C   0  0  0  0  0  1  0  0  0  0  0  0
  196.7160  174.2190  138.8800 C   0  0  2  0  0  3  0  0  0  0  0  0
  1 11  2  0  0  0  0
  1  9  1  0  0  0  0
  3  7  1  0  0  0  0
  3 12  1  0  0  0  0
  4 10  2  0  0  0  0
  5  8  2  0  0  0  0
  6  7  2  0  0  0  0
  8 13  1  0  0  0  0
  8 15  1  0  0  0  0
  9  3  2  0  0  0  0
 11  6  1  0  0  0  0
 13 20  1  6  0  0  0
 13  1  1  0  0  0  0
 14  5  1  0  0  0  0
 14  2  2  0  0  0  0
 15  2  1  6  0  0  0
 15  4  1  0  0  0  0
 15 16  1  0  0  0  0
 16  4  1  1  0  0  0
 16 11  1  0  0  0  0
 17 21  1  0  0  0  0
 18 22  2  0  0  0  0
 19 17  2  0  0  0  0
 19 18  1  0  0  0  0
 21 20  2  0  0  0  0
 22 20  1  0  0  0  0
 23 18  1  0  0  0  0
 23 24  1  0  0  0  0
 25 24  1  1  0  0  0
 27 32  1  0  0  0  0
 28 29  1  0  0  0  0
 30 27  2  0  0  0  0
 31 25  1  6  0  0  0
 31 27  1  0  0  0  0
 31 28  1  0  0  0  0
 32 29  1  0  0  0  0
 32 26  1  0  0  0  0
 33 25  1  0  0  0  0
 34 33  2  0  0  0  0
 35 10  1  0  0  0  0
 36 45  1  6  0  0  0
 36 40  1  0  0  0  0
 36 37  1  0  0  0  0
 37 43  1  0  0  0  0
 39 35  1  0  0  0  0
 40 42  1  0  0  0  0
 41 37  1  0  0  0  0
 42 43  1  0  0  0  0
 43 39  2  0  0  0  0
 44 41  1  0  0  0  0
 46 38  1  6  0  0  0
 46 44  1  0  0  0  0
 46 36  1  0  0  0  0
M  END
>  <MODEL>
1

>  <REMARK>
 VINA RESULT:      -8.3      0.000      0.000
  Name = 
  8 active torsions:
  status: ('A' for Active; 'I' for Inactive)
    1  A    between atoms: N_2  and  C_8
    2  A    between atoms: C_8  and  C_13
    3  A    between atoms: C_8  and  C_24
    4  A    between atoms: O_11  and  C_13
    5  A    between atoms: O_11  and  C_21
    6  A    between atoms: N_17  and  O_41
    7  A    between atoms: N_29  and  O_41
    8  A    between atoms: C_31  and  C_36
                            x       y       z     vdW  Elec       q    Type
                         _______ _______ _______ _____ _____    ______ ____

>  <TORSDO>
F 8

$$$$
=
 OpenBabel11042414343D

 46 53  0  0  1  0  0  0  0  0999 V2000
  193.0030  174.8650  144.7020 C   0  0  0  0  0  0  0  0  0  0  0  0
  195.2360  175.6160  141.0690 C   0  0  0  0  0  3  0  0  0  0  0  0
  192.2400  175.5000  146.9230 C   0  0  0  0  0  0  0  0  0  0  0  0
  195.8490  175.2480  143.4400 C   0  0  0  0  0  0  0  0  0  0  0  0
  193.7920  173.8100  141.1630 C   0  0  0  0  0  3  0  0  0  0  0  0
  193.8440  176.8910  145.7680 C   0  0  0  0  0  3  0  0  0  0  0  0
  193.0450  176.6380  146.8840 C   0  0  0  0  0  3  0  0  0  0  0  0
  193.7910  174.3000  142.3970 C   0  0  0  0  0  0  0  0  0  0  0  0
  192.2260  174.6170  145.8440 C   0  0  0  0  0  3  0  0  0  0  0  0
  196.8900  174.6230  143.8760 N   0  0  0  0  0  0  0  0  0  0  0  0
  193.8420  176.0180  144.6740 C   0  0  0  0  0  0  0  0  0  0  0  0
  191.4500  175.2500  148.0380 O   0  0  0  0  0  1  0  0  0  0  0  0
  192.9440  173.8650  143.5580 C   0  0  2  0  0  3  0  0  0  0  0  0
  194.6950  174.6370  140.3400 C   0  0  0  0  0  3  0  0  0  0  0  0
  194.7170  175.4310  142.4410 C   0  0  2  0  0  0  0  0  0  0  0  0
  194.7840  176.3510  143.5350 C   0  0  2  0  0  3  0  0  0  0  0  0
  189.6590  172.0590  142.8580 C   0  0  0  0  0  3  0  0  0  0  0  0
  189.4150  174.3930  142.2480 C   0  0  0  0  0  0  0  0  0  0  0  0
  188.8810  173.1050  142.3560 C   0  0  0  0  0  3  0  0  0  0  0  0
  191.5320  173.5760  143.1230 C   0  0  0  0  0  0  0  0  0  0  0  0
  190.9790  172.2940  143.2470 C   0  0  0  0  0  3  0  0  0  0  0  0
  190.7440  174.6230  142.6360 C   0  0  0  0  0  3  0  0  0  0  0  0
  188.6050  175.4240  141.7670 O   0  0  0  0  0  0  0  0  0  0  0  0
  188.6920  176.7570  142.2580 C   0  0  0  0  0  2  0  0  0  0  0  0
  188.2990  176.8010  143.7350 C   0  0  2  0  0  3  0  0  0  0  0  0
  185.5370  179.0240  146.9070 C   0  0  0  0  0  1  0  0  0  0  0  0
  186.4270  177.2690  145.3220 C   0  0  0  0  0  0  0  0  0  0  0  0
  186.1850  178.4130  142.9340 S   0  0  0  0  0  0  0  0  0  0  0  0
  185.7520  179.4020  144.4120 C   0  0  0  0  0  2  0  0  0  0  0  0
  186.5640  176.4150  146.2390 O   0  0  0  0  0  0  0  0  0  0  0  0
  186.7830  176.9770  143.9090 C   0  0  1  0  0  3  0  0  0  0  0  0
  185.9020  178.5600  145.5780 N   0  0  0  0  0  0  0  0  0  0  0  0
  189.0400  177.8380  144.4300 N   0  0  0  0  0  0  0  0  0  0  0  0
  190.3180  177.7930  144.5780 C   0  0  0  0  0  2  0  0  0  0  0  0
  197.3610  173.5290  143.1930 O   0  0  0  0  0  0  0  0  0  0  0  0
  195.8740  169.6440  145.2430 C   0  0  2  0  0  0  0  0  0  0  0  0
  195.7270  170.3790  144.0100 N   0  0  0  0  0  0  0  0  0  0  0  0
  194.1710  168.1660  146.4970 C   0  0  0  0  0  1  0  0  0  0  0  0
  196.5920  172.3930  143.0950 N   0  0  0  0  0  0  0  0  0  0  0  0
  196.7080  170.5290  146.1810 C   0  0  0  0  0  2  0  0  0  0  0  0
  194.3520  170.4340  143.5430 C   0  0  0  0  0  2  0  0  0  0  0  0
  197.2880  171.6600  145.3310 C   0  0  0  0  0  2  0  0  0  0  0  0
  196.5390  171.5350  144.0610 C   0  0  0  0  0  0  0  0  0  0  0  0
  193.5510  169.6080  144.5380 C   0  0  0  0  0  2  0  0  0  0  0  0
  196.6060  168.3340  144.9670 C   0  0  0  0  0  1  0  0  0  0  0  0
  194.4460  169.4680  145.7600 C   0  0  2  0  0  3  0  0  0  0  0  0
  1  9  1  0  0  0  0
  3 12  1  0  0  0  0
  4 10  2  0  0  0  0
  5  8  2  0  0  0  0
  6  7  2  0  0  0  0
  7  3  1  0  0  0  0
  8 15  1  0  0  0  0
  8 13  1  0  0  0  0
  9  3  2  0  0  0  0
 11  1  2  0  0  0  0
 11  6  1  0  0  0  0
 13 20  1  6  0  0  0
 13  1  1  0  0  0  0
 14  2  2  0  0  0  0
 14  5  1  0  0  0  0
 15  2  1  6  0  0  0
 15  4  1  0  0  0  0
 15 16  1  0  0  0  0
 16  4  1  1  0  0  0
 16 11  1  0  0  0  0
 17 21  1  0  0  0  0
 18 19  1  0  0  0  0
 18 22  2  0  0  0  0
 19 17  2  0  0  0  0
 20 21  2  0  0  0  0
 22 20  1  0  0  0  0
 23 18  1  0  0  0  0
 23 24  1  0  0  0  0
 25 24  1  6  0  0  0
 25 33  1  0  0  0  0
 27 32  1  0  0  0  0
 27 30  2  0  0  0  0
 28 31  1  0  0  0  0
 28 29  1  0  0  0  0
 29 32  1  0  0  0  0
 31 25  1  1  0  0  0
 31 27  1  0  0  0  0
 32 26  1  0  0  0  0
 33 34  2  0  0  0  0
 35 10  1  0  0  0  0
 36 45  1  6  0  0  0
 36 46  1  0  0  0  0
 36 40  1  0  0  0  0
 37 43  1  0  0  0  0
 37 36  1  0  0  0  0
 39 35  1  0  0  0  0
 39 43  2  0  0  0  0
 41 37  1  0  0  0  0
 41 44  1  0  0  0  0
 42 40  1  0  0  0  0
 43 42  1  0  0  0  0
 44 46  1  0  0  0  0
 46 38  1  6  0  0  0
M  END
>  <MODEL>
2

>  <REMARK>
 VINA RESULT:      -8.2      2.495      3.887
  Name = 
  8 active torsions:
  status: ('A' for Active; 'I' for Inactive)
    1  A    between atoms: N_2  and  C_8
    2  A    between atoms: C_8  and  C_13
    3  A    between atoms: C_8  and  C_24
    4  A    between atoms: O_11  and  C_13
    5  A    between atoms: O_11  and  C_21
    6  A    between atoms: N_17  and  O_41
    7  A    between atoms: N_29  and  O_41
    8  A    between atoms: C_31  and  C_36
                            x       y       z     vdW  Elec       q    Type
                         _______ _______ _______ _____ _____    ______ ____

>  <TORSDO>
F 8

$$$$
=
 OpenBabel11042414343D

 46 53  0  0  1  0  0  0  0  0999 V2000
  191.4730  174.8110  145.1720 C   0  0  0  0  0  0  0  0  0  0  0  0
  194.8560  176.2460  142.8810 C   0  0  0  0  0  3  0  0  0  0  0  0
  189.9300  174.9630  147.0460 C   0  0  0  0  0  0  0  0  0  0  0  0
  194.5700  175.3100  145.1560 C   0  0  0  0  0  0  0  0  0  0  0  0
  193.5360  174.5510  142.0190 C   0  0  0  0  0  3  0  0  0  0  0  0
  191.8000  176.4880  146.9120 C   0  0  0  0  0  3  0  0  0  0  0  0
  190.6560  176.0320  147.5690 C   0  0  0  0  0  3  0  0  0  0  0  0
  193.0670  174.7460  143.2470 C   0  0  0  0  0  0  0  0  0  0  0  0
  190.3400  174.3530  145.8610 C   0  0  0  0  0  3  0  0  0  0  0  0
  195.3980  174.5450  145.7810 N   0  0  0  0  0  0  0  0  0  0  0  0
  192.2270  175.8910  145.7200 C   0  0  0  0  0  0  0  0  0  0  0  0
  188.7950  174.5090  147.7060 O   0  0  0  0  0  1  0  0  0  0  0  0
  191.8690  174.1050  143.8840 C   0  0  2  0  0  3  0  0  0  0  0  0
  194.6500  175.4930  141.7980 C   0  0  0  0  0  3  0  0  0  0  0  0
  193.8770  175.7820  143.8870 C   0  0  2  0  0  0  0  0  0  0  0  0
  193.5090  176.4210  145.1120 C   0  0  2  0  0  3  0  0  0  0  0  0
  189.3040  172.7140  141.4280 C   0  0  0  0  0  3  0  0  0  0  0  0
  188.8620  175.0750  141.7700 C   0  0  0  0  0  0  0  0  0  0  0  0
  188.5470  173.8580  141.1560 C   0  0  0  0  0  3  0  0  0  0  0  0
  190.7240  174.0040  142.9120 C   0  0  0  0  0  0  0  0  0  0  0  0
  190.3850  172.7850  142.3090 C   0  0  0  0  0  3  0  0  0  0  0  0
  189.9540  175.1410  142.6500 C   0  0  0  0  0  3  0  0  0  0  0  0
  188.0730  176.1940  141.4990 O   0  0  0  0  0  0  0  0  0  0  0  0
  188.4120  177.4970  141.9580 C   0  0  0  0  0  2  0  0  0  0  0  0
  187.1670  178.2100  142.4880 C   0  0  2  0  0  3  0  0  0  0  0  0
  183.9200  178.6730  145.9330 C   0  0  0  0  0  1  0  0  0  0  0  0
  185.9930  179.0320  144.5340 C   0  0  0  0  0  0  0  0  0  0  0  0
  187.3530  176.7700  144.8540 S   0  0  0  0  0  0  0  0  0  0  0  0
  185.6970  176.8960  145.6210 C   0  0  0  0  0  2  0  0  0  0  0  0
  185.6890  180.2260  144.2710 O   0  0  0  0  0  0  0  0  0  0  0  0
  187.2300  178.3960  144.0120 C   0  0  1  0  0  3  0  0  0  0  0  0
  185.1810  178.2230  145.3670 N   0  0  0  0  0  0  0  0  0  0  0  0
  185.9640  177.5050  142.0860 N   0  0  0  0  0  0  0  0  0  0  0  0
  185.1560  177.9680  141.1960 C   0  0  0  0  0  2  0  0  0  0  0  0
  196.1210  173.6110  145.0800 O   0  0  0  0  0  0  0  0  0  0  0  0
  195.7070  170.6060  141.5720 C   0  0  2  0  0  0  0  0  0  0  0  0
  195.1870  170.8500  142.8960 N   0  0  0  0  0  0  0  0  0  0  0  0
  196.1140  168.3720  140.3460 C   0  0  0  0  0  1  0  0  0  0  0  0
  195.5030  172.4830  144.5930 N   0  0  0  0  0  0  0  0  0  0  0  0
  196.8320  171.6270  141.3490 C   0  0  0  0  0  2  0  0  0  0  0  0
  195.0790  169.6420  143.6950 C   0  0  0  0  0  2  0  0  0  0  0  0
  196.7270  172.6600  142.4730 C   0  0  0  0  0  2  0  0  0  0  0  0
  195.7730  172.0300  143.4110 C   0  0  0  0  0  0  0  0  0  0  0  0
  195.5140  168.5080  142.7800 C   0  0  0  0  0  2  0  0  0  0  0  0
  194.5980  170.8130  140.5460 C   0  0  0  0  0  1  0  0  0  0  0  0
  196.2510  169.1780  141.6290 C   0  0  2  0  0  3  0  0  0  0  0  0
  1 11  2  0  0  0  0
  1  9  1  0  0  0  0
  3  7  1  0  0  0  0
  3 12  1  0  0  0  0
  4 10  2  0  0  0  0
  5  8  2  0  0  0  0
  6  7  2  0  0  0  0
  8 13  1  0  0  0  0
  8 15  1  0  0  0  0
  9  3  2  0  0  0  0
 11  6  1  0  0  0  0
 13 20  1  6  0  0  0
 13  1  1  0  0  0  0
 14  5  1  0  0  0  0
 14  2  2  0  0  0  0
 15  2  1  6  0  0  0
 15 16  1  0  0  0  0
 15  4  1  0  0  0  0
 16  4  1  1  0  0  0
 16 11  1  0  0  0  0
 17 21  1  0  0  0  0
 18 22  2  0  0  0  0
 19 17  2  0  0  0  0
 19 18  1  0  0  0  0
 21 20  2  0  0  0  0
 22 20  1  0  0  0  0
 23 18  1  0  0  0  0
 23 24  1  0  0  0  0
 25 24  1  1  0  0  0
 27 32  1  0  0  0  0
 28 29  1  0  0  0  0
 30 27  2  0  0  0  0
 31 25  1  6  0  0  0
 31 27  1  0  0  0  0
 31 28  1  0  0  0  0
 32 29  1  0  0  0  0
 32 26  1  0  0  0  0
 33 25  1  0  0  0  0
 34 33  2  0  0  0  0
 35 10  1  0  0  0  0
 36 45  1  6  0  0  0
 36 46  1  0  0  0  0
 36 37  1  0  0  0  0
 37 43  1  0  0  0  0
 37 41  1  0  0  0  0
 39 35  1  0  0  0  0
 40 36  1  0  0  0  0
 40 42  1  0  0  0  0
 42 43  1  0  0  0  0
 43 39  2  0  0  0  0
 44 41  1  0  0  0  0
 46 38  1  6  0  0  0
 46 44  1  0  0  0  0
M  END
>  <MODEL>
3

>  <REMARK>
 VINA RESULT:      -8.1      1.747      2.580
  Name = 
  8 active torsions:
  status: ('A' for Active; 'I' for Inactive)
    1  A    between atoms: N_2  and  C_8
    2  A    between atoms: C_8  and  C_13
    3  A    between atoms: C_8  and  C_24
    4  A    between atoms: O_11  and  C_13
    5  A    between atoms: O_11  and  C_21
    6  A    between atoms: N_17  and  O_41
    7  A    between atoms: N_29  and  O_41
    8  A    between atoms: C_31  and  C_36
                            x       y       z     vdW  Elec       q    Type
                         _______ _______ _______ _____ _____    ______ ____

>  <TORSDO>
F 8

$$$$
=
 OpenBabel11042414343D

 46 53  0  0  1  0  0  0  0  0999 V2000
  195.5010  172.9750  144.2470 C   0  0  0  0  0  0  0  0  0  0  0  0
  196.9470  175.8550  141.3550 C   0  0  0  0  0  3  0  0  0  0  0  0
  195.8220  171.0670  145.7220 C   0  0  0  0  0  0  0  0  0  0  0  0
  196.6150  173.4000  141.3460 C   0  0  0  0  0  0  0  0  0  0  0  0
  194.8460  176.1340  142.2850 C   0  0  0  0  0  3  0  0  0  0  0  0
  197.6120  171.7540  144.2500 C   0  0  0  0  0  3  0  0  0  0  0  0
  197.1190  170.9010  145.2390 C   0  0  0  0  0  3  0  0  0  0  0  0
  195.2590  174.9580  142.7440 C   0  0  0  0  0  0  0  0  0  0  0  0
  195.0180  172.0910  145.2230 C   0  0  0  0  0  3  0  0  0  0  0  0
  196.2360  172.6810  140.3460 N   0  0  0  0  0  0  0  0  0  0  0  0
  196.8210  172.7890  143.7390 C   0  0  0  0  0  0  0  0  0  0  0  0
  195.3340  170.2120  146.7020 O   0  0  0  0  0  1  0  0  0  0  0  0
  194.5760  174.0730  143.7450 C   0  0  2  0  0  3  0  0  0  0  0  0
  195.9060  176.6870  141.4200 C   0  0  0  0  0  3  0  0  0  0  0  0
  196.5740  174.6780  142.1690 C   0  0  2  0  0  0  0  0  0  0  0  0
  197.4260  173.6260  142.6310 C   0  0  2  0  0  3  0  0  0  0  0  0
  194.2060  176.4150  146.7320 C   0  0  0  0  0  3  0  0  0  0  0  0
  192.0050  175.6460  146.0610 C   0  0  0  0  0  0  0  0  0  0  0  0
  192.8190  176.4040  146.9090 C   0  0  0  0  0  3  0  0  0  0  0  0
  193.9820  174.8780  144.8690 C   0  0  0  0  0  0  0  0  0  0  0  0
  194.7860  175.6590  145.7110 C   0  0  0  0  0  3  0  0  0  0  0  0
  192.5940  174.8840  145.0390 C   0  0  0  0  0  3  0  0  0  0  0  0
  190.6220  175.6760  146.2460 O   0  0  0  0  0  0  0  0  0  0  0  0
  189.7360  174.8250  145.5270 C   0  0  0  0  0  2  0  0  0  0  0  0
  188.7820  175.6590  144.6710 C   0  0  2  0  0  3  0  0  0  0  0  0
  186.9210  177.2090  140.5770 C   0  0  0  0  0  1  0  0  0  0  0  0
  188.2190  175.8210  142.2420 C   0  0  0  0  0  0  0  0  0  0  0  0
  190.1360  177.4710  143.0610 S   0  0  0  0  0  0  0  0  0  0  0  0
  188.8730  178.1210  141.9080 C   0  0  0  0  0  2  0  0  0  0  0  0
  187.5470  174.7820  142.0000 O   0  0  0  0  0  0  0  0  0  0  0  0
  189.3180  175.8380  143.2420 C   0  0  1  0  0  3  0  0  0  0  0  0
  187.9810  177.0390  141.5590 N   0  0  0  0  0  0  0  0  0  0  0  0
  188.5130  176.9370  145.3040 N   0  0  0  0  0  0  0  0  0  0  0  0
  187.3170  177.3680  145.5080 C   0  0  0  0  0  2  0  0  0  0  0  0
  195.3210  173.1850  139.4540 O   0  0  0  0  0  0  0  0  0  0  0  0
  190.7480  172.5500  139.8900 C   0  0  2  0  0  0  0  0  0  0  0  0
  191.8890  171.9950  139.2020 N   0  0  0  0  0  0  0  0  0  0  0  0
  188.2840  172.7040  139.1400 C   0  0  0  0  0  1  0  0  0  0  0  0
  194.2200  172.4420  139.0990 N   0  0  0  0  0  0  0  0  0  0  0  0
  191.2410  173.8190  140.5980 C   0  0  0  0  0  2  0  0  0  0  0  0
  191.6110  171.6690  137.8130 C   0  0  0  0  0  2  0  0  0  0  0  0
  192.7700  173.7990  140.5410 C   0  0  0  0  0  2  0  0  0  0  0  0
  193.0480  172.7110  139.5770 C   0  0  0  0  0  0  0  0  0  0  0  0
  190.1390  171.9890  137.6060 C   0  0  0  0  0  2  0  0  0  0  0  0
  190.2340  171.5420  140.9130 C   0  0  0  0  0  1  0  0  0  0  0  0
  189.7510  172.8790  138.7780 C   0  0  2  0  0  3  0  0  0  0  0  0
  1  9  1  0  0  0  0
  2 14  2  0  0  0  0
  3 12  1  0  0  0  0
  4 15  1  0  0  0  0
  5  8  2  0  0  0  0
  6  7  2  0  0  0  0
  7  3  1  0  0  0  0
  8 13  1  0  0  0  0
  9  3  2  0  0  0  0
 10  4  2  0  0  0  0
 11  1  2  0  0  0  0
 11  6  1  0  0  0  0
 13  1  1  0  0  0  0
 13 20  1  1  0  0  0
 14  5  1  0  0  0  0
 15  2  1  6  0  0  0
 15 16  1  0  0  0  0
 15  8  1  0  0  0  0
 16  4  1  6  0  0  0
 16 11  1  0  0  0  0
 17 19  1  0  0  0  0
 18 23  1  0  0  0  0
 18 19  2  0  0  0  0
 20 22  2  0  0  0  0
 20 21  1  0  0  0  0
 21 17  2  0  0  0  0
 22 18  1  0  0  0  0
 24 23  1  0  0  0  0
 25 33  1  0  0  0  0
 25 24  1  1  0  0  0
 26 32  1  0  0  0  0
 27 31  1  0  0  0  0
 28 31  1  0  0  0  0
 29 28  1  0  0  0  0
 30 27  2  0  0  0  0
 31 25  1  1  0  0  0
 32 29  1  0  0  0  0
 32 27  1  0  0  0  0
 33 34  2  0  0  0  0
 35 10  1  0  0  0  0
 36 40  1  0  0  0  0
 36 45  1  1  0  0  0
 37 43  1  0  0  0  0
 37 36  1  0  0  0  0
 39 35  1  0  0  0  0
 39 43  2  0  0  0  0
 41 37  1  0  0  0  0
 42 40  1  0  0  0  0
 43 42  1  0  0  0  0
 44 41  1  0  0  0  0
 44 46  1  0  0  0  0
 46 38  1  1  0  0  0
 46 36  1  0  0  0  0
M  END
>  <MODEL>
4

>  <REMARK>
 VINA RESULT:      -7.8      2.707      5.640
  Name = 
  8 active torsions:
  status: ('A' for Active; 'I' for Inactive)
    1  A    between atoms: N_2  and  C_8
    2  A    between atoms: C_8  and  C_13
    3  A    between atoms: C_8  and  C_24
    4  A    between atoms: O_11  and  C_13
    5  A    between atoms: O_11  and  C_21
    6  A    between atoms: N_17  and  O_41
    7  A    between atoms: N_29  and  O_41
    8  A    between atoms: C_31  and  C_36
                            x       y       z     vdW  Elec       q    Type
                         _______ _______ _______ _____ _____    ______ ____

>  <TORSDO>
F 8

$$$$
=
 OpenBabel11042414343D

 46 53  0  0  1  0  0  0  0  0999 V2000
  194.9880  174.6500  143.6880 C   0  0  0  0  0  0  0  0  0  0  0  0
  192.5410  176.3440  146.8340 C   0  0  0  0  0  3  0  0  0  0  0  0
  196.8650  174.7430  142.1430 C   0  0  0  0  0  0  0  0  0  0  0  0
  193.0020  176.9470  144.4760 C   0  0  0  0  0  0  0  0  0  0  0  0
  192.2200  174.1400  146.2060 C   0  0  0  0  0  3  0  0  0  0  0  0
  196.3340  176.6740  143.4950 C   0  0  0  0  0  3  0  0  0  0  0  0
  197.1380  176.0510  142.5390 C   0  0  0  0  0  3  0  0  0  0  0  0
  193.1070  174.6070  145.3340 C   0  0  0  0  0  0  0  0  0  0  0  0
  195.7930  174.0510  142.7080 C   0  0  0  0  0  3  0  0  0  0  0  0
  192.1670  177.4590  143.6370 N   0  0  0  0  0  0  0  0  0  0  0  0
  195.2560  175.9970  144.0760 C   0  0  0  0  0  0  0  0  0  0  0  0
  197.6640  174.1280  141.1870 O   0  0  0  0  0  1  0  0  0  0  0  0
  193.8350  173.8450  144.2670 C   0  0  2  0  0  3  0  0  0  0  0  0
  191.8740  175.2290  147.1390 C   0  0  0  0  0  3  0  0  0  0  0  0
  193.3410  176.0200  145.6330 C   0  0  2  0  0  0  0  0  0  0  0  0
  194.4120  176.7770  145.0630 C   0  0  2  0  0  3  0  0  0  0  0  0
  195.8160  171.0850  146.0020 C   0  0  0  0  0  3  0  0  0  0  0  0
  193.8440  170.1100  144.9800 C   0  0  0  0  0  0  0  0  0  0  0  0
  195.0210  169.9700  145.7230 C   0  0  0  0  0  3  0  0  0  0  0  0
  194.2760  172.4950  144.7670 C   0  0  0  0  0  0  0  0  0  0  0  0
  195.4420  172.3450  145.5320 C   0  0  0  0  0  3  0  0  0  0  0  0
  193.4760  171.3790  144.5050 C   0  0  0  0  0  3  0  0  0  0  0  0
  193.0570  168.9830  144.7390 O   0  0  0  0  0  0  0  0  0  0  0  0
  193.0900  168.2780  143.5030 C   0  0  0  0  0  2  0  0  0  0  0  0
  192.8930  169.2480  142.3370 C   0  0  2  0  0  3  0  0  0  0  0  0
  189.8780  172.3350  140.3360 C   0  0  0  0  0  1  0  0  0  0  0  0
  190.7860  170.4640  141.7700 C   0  0  0  0  0  0  0  0  0  0  0  0
  191.5350  168.6320  139.9950 S   0  0  0  0  0  0  0  0  0  0  0  0
  190.9120  170.2350  139.3690 C   0  0  0  0  0  2  0  0  0  0  0  0
  190.4460  171.0320  142.8430 O   0  0  0  0  0  0  0  0  0  0  0  0
  191.4740  169.1470  141.7550 C   0  0  1  0  0  3  0  0  0  0  0  0
  190.5120  171.0370  140.5040 N   0  0  0  0  0  0  0  0  0  0  0  0
  193.9040  169.0340  141.3180 N   0  0  0  0  0  0  0  0  0  0  0  0
  194.8980  168.2330  141.4880 C   0  0  0  0  0  2  0  0  0  0  0  0
  190.8480  177.0810  143.6760 O   0  0  0  0  0  0  0  0  0  0  0  0
  186.5130  177.8750  145.1210 C   0  0  2  0  0  0  0  0  0  0  0  0
  187.8760  177.9680  145.5850 N   0  0  0  0  0  0  0  0  0  0  0  0
  184.3540  177.3560  146.4350 C   0  0  0  0  0  1  0  0  0  0  0  0
  190.0320  177.5230  144.6900 N   0  0  0  0  0  0  0  0  0  0  0  0
  186.5650  177.1820  143.7520 C   0  0  0  0  0  2  0  0  0  0  0  0
  188.0440  177.4990  146.9500 C   0  0  0  0  0  2  0  0  0  0  0  0
  188.0310  177.1610  143.3160 C   0  0  0  0  0  2  0  0  0  0  0  0
  188.7470  177.5590  144.5490 C   0  0  0  0  0  0  0  0  0  0  0  0
  186.6490  177.1250  147.4270 C   0  0  0  0  0  2  0  0  0  0  0  0
  185.9300  179.2780  144.9790 C   0  0  0  0  0  1  0  0  0  0  0  0
  185.8090  177.0060  146.1630 C   0  0  2  0  0  3  0  0  0  0  0  0
  1 11  1  0  0  0  0
  1 13  1  0  0  0  0
  2 14  2  0  0  0  0
  3  7  2  0  0  0  0
  3  9  1  0  0  0  0
  4 16  1  0  0  0  0
  4 15  1  0  0  0  0
  5 14  1  0  0  0  0
  6 11  2  0  0  0  0
  7  6  1  0  0  0  0
  8 15  1  0  0  0  0
  8  5  2  0  0  0  0
  9  1  2  0  0  0  0
 10 35  1  0  0  0  0
 10  4  2  0  0  0  0
 12  3  1  0  0  0  0
 13 20  1  1  0  0  0
 13  8  1  0  0  0  0
 15  2  1  1  0  0  0
 16 11  1  6  0  0  0
 16 15  1  0  0  0  0
 18 19  2  0  0  0  0
 19 17  1  0  0  0  0
 20 21  1  0  0  0  0
 21 17  2  0  0  0  0
 22 20  2  0  0  0  0
 22 18  1  0  0  0  0
 23 18  1  0  0  0  0
 24 23  1  0  0  0  0
 25 24  1  1  0  0  0
 26 32  1  0  0  0  0
 27 30  2  0  0  0  0
 28 31  1  0  0  0  0
 29 28  1  0  0  0  0
 29 32  1  0  0  0  0
 31 27  1  0  0  0  0
 31 25  1  6  0  0  0
 32 27  1  0  0  0  0
 33 34  2  0  0  0  0
 33 25  1  0  0  0  0
 35 39  1  0  0  0  0
 36 45  1  6  0  0  0
 36 37  1  0  0  0  0
 36 46  1  0  0  0  0
 37 41  1  0  0  0  0
 40 36  1  0  0  0  0
 41 44  1  0  0  0  0
 42 40  1  0  0  0  0
 42 43  1  0  0  0  0
 43 39  2  0  0  0  0
 43 37  1  0  0  0  0
 46 38  1  1  0  0  0
 46 44  1  0  0  0  0
M  END
>  <MODEL>
5

>  <REMARK>
 VINA RESULT:      -7.7      3.757      9.281
  Name = 
  8 active torsions:
  status: ('A' for Active; 'I' for Inactive)
    1  A    between atoms: N_2  and  C_8
    2  A    between atoms: C_8  and  C_13
    3  A    between atoms: C_8  and  C_24
    4  A    between atoms: O_11  and  C_13
    5  A    between atoms: O_11  and  C_21
    6  A    between atoms: N_17  and  O_41
    7  A    between atoms: N_29  and  O_41
    8  A    between atoms: C_31  and  C_36
                            x       y       z     vdW  Elec       q    Type
                         _______ _______ _______ _____ _____    ______ ____

>  <TORSDO>
F 8

$$$$
=
 OpenBabel11042414343D

 46 53  0  0  1  0  0  0  0  0999 V2000
  195.7260  174.3540  141.2260 C   0  0  0  0  0  0  0  0  0  0  0  0
  196.8770  173.9790  145.3830 C   0  0  0  0  0  3  0  0  0  0  0  0
  196.1840  174.9790  138.9200 C   0  0  0  0  0  0  0  0  0  0  0  0
  196.5100  175.8870  143.8480 C   0  0  0  0  0  0  0  0  0  0  0  0
  194.9000  173.0180  144.6600 C   0  0  0  0  0  3  0  0  0  0  0  0
  197.8050  175.4850  140.6390 C   0  0  0  0  0  3  0  0  0  0  0  0
  197.4160  175.5110  139.2990 C   0  0  0  0  0  3  0  0  0  0  0  0
  195.3450  173.6950  143.6070 C   0  0  0  0  0  0  0  0  0  0  0  0
  195.3440  174.4130  139.8770 C   0  0  0  0  0  3  0  0  0  0  0  0
  196.0090  177.0350  144.1560 N   0  0  0  0  0  0  0  0  0  0  0  0
  196.9770  174.9190  141.6150 C   0  0  0  0  0  0  0  0  0  0  0  0
  195.7980  175.0100  137.5850 O   0  0  0  0  0  1  0  0  0  0  0  0
  194.7670  173.7240  142.2230 C   0  0  2  0  0  3  0  0  0  0  0  0
  195.8630  173.1990  145.7630 C   0  0  0  0  0  3  0  0  0  0  0  0
  196.5820  174.3750  143.9890 C   0  0  2  0  0  0  0  0  0  0  0  0
  197.4650  174.9890  143.0470 C   0  0  2  0  0  3  0  0  0  0  0  0
  194.7820  170.0360  141.2450 C   0  0  0  0  0  3  0  0  0  0  0  0
  192.4930  170.8410  141.2360 C   0  0  0  0  0  0  0  0  0  0  0  0
  193.4170  169.8070  141.0480 C   0  0  0  0  0  3  0  0  0  0  0  0
  194.3150  172.3530  141.7930 C   0  0  0  0  0  0  0  0  0  0  0  0
  195.2300  171.3040  141.6230 C   0  0  0  0  0  3  0  0  0  0  0  0
  192.9500  172.1140  141.6110 C   0  0  0  0  0  3  0  0  0  0  0  0
  191.1350  170.5750  141.0570 O   0  0  0  0  0  0  0  0  0  0  0  0
  190.4480  170.8850  139.8500 C   0  0  0  0  0  2  0  0  0  0  0  0
  190.2080  172.3920  139.7510 C   0  0  2  0  0  3  0  0  0  0  0  0
  187.9320  175.2910  142.7570 C   0  0  0  0  0  1  0  0  0  0  0  0
  188.5230  173.2570  141.3800 C   0  0  0  0  0  0  0  0  0  0  0  0
  188.1930  174.0890  138.8760 S   0  0  0  0  0  0  0  0  0  0  0  0
  187.9750  175.3060  140.2250 C   0  0  0  0  0  2  0  0  0  0  0  0
  188.6560  172.5250  142.3970 O   0  0  0  0  0  0  0  0  0  0  0  0
  188.7330  172.7440  140.0010 C   0  0  1  0  0  3  0  0  0  0  0  0
  188.1420  174.6180  141.4860 N   0  0  0  0  0  0  0  0  0  0  0  0
  190.6680  172.8990  138.4720 N   0  0  0  0  0  0  0  0  0  0  0  0
  191.8180  173.4590  138.3240 C   0  0  0  0  0  2  0  0  0  0  0  0
  195.0070  177.1090  145.0920 O   0  0  0  0  0  0  0  0  0  0  0  0
  190.7410  175.5630  146.0510 C   0  0  2  0  0  0  0  0  0  0  0  0
  191.4490  176.3330  145.0570 N   0  0  0  0  0  0  0  0  0  0  0  0
  188.3070  175.7790  146.8790 C   0  0  0  0  0  1  0  0  0  0  0  0
  193.6910  177.0360  144.7010 N   0  0  0  0  0  0  0  0  0  0  0  0
  191.7400  175.2910  147.1840 C   0  0  0  0  0  2  0  0  0  0  0  0
  190.7200  177.5150  144.6290 C   0  0  0  0  0  2  0  0  0  0  0  0
  193.1260  175.6690  146.6600 C   0  0  0  0  0  2  0  0  0  0  0  0
  192.8180  176.3930  145.4070 C   0  0  0  0  0  0  0  0  0  0  0  0
  189.3950  177.4680  145.3740 C   0  0  0  0  0  2  0  0  0  0  0  0
  190.2740  174.2480  145.4340 C   0  0  0  0  0  1  0  0  0  0  0  0
  189.6060  176.4780  146.5110 C   0  0  2  0  0  3  0  0  0  0  0  0
  1 11  1  0  0  0  0
  1 13  1  0  0  0  0
  2 14  2  0  0  0  0
  3  7  2  0  0  0  0
  3  9  1  0  0  0  0
  4 15  1  0  0  0  0
  4 10  2  0  0  0  0
  5 14  1  0  0  0  0
  6 11  2  0  0  0  0
  7  6  1  0  0  0  0
  8 15  1  0  0  0  0
  8  5  2  0  0  0  0
  9  1  2  0  0  0  0
 10 35  1  0  0  0  0
 12  3  1  0  0  0  0
 13 20  1  6  0  0  0
 13  8  1  0  0  0  0
 15  2  1  1  0  0  0
 16 11  1  6  0  0  0
 16  4  1  0  0  0  0
 16 15  1  0  0  0  0
 17 21  1  0  0  0  0
 18 22  2  0  0  0  0
 19 18  1  0  0  0  0
 19 17  2  0  0  0  0
 21 20  2  0  0  0  0
 22 20  1  0  0  0  0
 23 18  1  0  0  0  0
 24 23  1  0  0  0  0
 25 24  1  6  0  0  0
 27 32  1  0  0  0  0
 27 30  2  0  0  0  0
 28 31  1  0  0  0  0
 28 29  1  0  0  0  0
 29 32  1  0  0  0  0
 31 25  1  1  0  0  0
 31 27  1  0  0  0  0
 32 26  1  0  0  0  0
 33 25  1  0  0  0  0
 34 33  2  0  0  0  0
 36 45  1  6  0  0  0
 36 46  1  0  0  0  0
 36 40  1  0  0  0  0
 37 43  1  0  0  0  0
 37 36  1  0  0  0  0
 39 35  1  0  0  0  0
 39 43  2  0  0  0  0
 41 37  1  0  0  0  0
 41 44  1  0  0  0  0
 42 40  1  0  0  0  0
 43 42  1  0  0  0  0
 44 46  1  0  0  0  0
 46 38  1  6  0  0  0
M  END
>  <MODEL>
6

>  <REMARK>
 VINA RESULT:      -7.7      3.174      7.285
  Name = 
  8 active torsions:
  status: ('A' for Active; 'I' for Inactive)
    1  A    between atoms: N_2  and  C_8
    2  A    between atoms: C_8  and  C_13
    3  A    between atoms: C_8  and  C_24
    4  A    between atoms: O_11  and  C_13
    5  A    between atoms: O_11  and  C_21
    6  A    between atoms: N_17  and  O_41
    7  A    between atoms: N_29  and  O_41
    8  A    between atoms: C_31  and  C_36
                            x       y       z     vdW  Elec       q    Type
                         _______ _______ _______ _____ _____    ______ ____

>  <TORSDO>
F 8

$$$$
=
 OpenBabel11042414343D

 46 53  0  0  1  0  0  0  0  0999 V2000
  195.3400  172.6770  144.7960 C   0  0  0  0  0  0  0  0  0  0  0  0
  197.6430  175.9470  143.1360 C   0  0  0  0  0  3  0  0  0  0  0  0
  195.1650  170.5500  145.9640 C   0  0  0  0  0  0  0  0  0  0  0  0
  197.4300  173.5340  142.6190 C   0  0  0  0  0  0  0  0  0  0  0  0
  195.3380  176.1240  143.2540 C   0  0  0  0  0  3  0  0  0  0  0  0
  197.3440  171.4210  145.3880 C   0  0  0  0  0  3  0  0  0  0  0  0
  196.5540  170.4330  145.9770 C   0  0  0  0  0  3  0  0  0  0  0  0
  195.5960  174.8800  143.6420 C   0  0  0  0  0  0  0  0  0  0  0  0
  194.5630  171.6600  145.3710 C   0  0  0  0  0  3  0  0  0  0  0  0
  197.4730  172.9930  141.4500 N   0  0  0  0  0  0  0  0  0  0  0  0
  196.7600  172.5430  144.7900 C   0  0  0  0  0  0  0  0  0  0  0  0
  194.3810  169.5620  146.5470 O   0  0  0  0  0  1  0  0  0  0  0  0
  194.6260  173.8630  144.1660 C   0  0  2  0  0  3  0  0  0  0  0  0
  196.6210  176.7830  142.9420 C   0  0  0  0  0  3  0  0  0  0  0  0
  197.0400  174.6640  143.5590 C   0  0  2  0  0  0  0  0  0  0  0  0
  197.7000  173.5320  144.1320 C   0  0  2  0  0  3  0  0  0  0  0  0
  193.0890  175.9280  146.9810 C   0  0  0  0  0  3  0  0  0  0  0  0
  191.3070  174.8570  145.7310 C   0  0  0  0  0  0  0  0  0  0  0  0
  191.7280  175.6840  146.7780 C   0  0  0  0  0  3  0  0  0  0  0  0
  193.6280  174.4920  145.1010 C   0  0  0  0  0  0  0  0  0  0  0  0
  194.0370  175.3400  146.1410 C   0  0  0  0  0  3  0  0  0  0  0  0
  192.2650  174.2640  144.8930 C   0  0  0  0  0  3  0  0  0  0  0  0
  189.9400  174.6520  145.5380 O   0  0  0  0  0  0  0  0  0  0  0  0
  189.2770  175.0050  144.3290 C   0  0  0  0  0  2  0  0  0  0  0  0
  188.7610  176.4420  144.4110 C   0  0  2  0  0  3  0  0  0  0  0  0
  185.5480  179.9470  144.2660 C   0  0  0  0  0  1  0  0  0  0  0  0
  186.6110  177.6890  144.6630 C   0  0  0  0  0  0  0  0  0  0  0  0
  187.1120  176.8020  142.2070 S   0  0  0  0  0  0  0  0  0  0  0  0
  186.4300  178.4900  142.3910 C   0  0  0  0  0  2  0  0  0  0  0  0
  186.4160  177.7420  145.9060 O   0  0  0  0  0  0  0  0  0  0  0  0
  187.2800  176.5310  144.0140 C   0  0  1  0  0  3  0  0  0  0  0  0
  186.1850  178.7260  143.7970 N   0  0  0  0  0  0  0  0  0  0  0  0
  189.5830  177.3270  143.6060 N   0  0  0  0  0  0  0  0  0  0  0  0
  190.4580  178.1180  144.1220 C   0  0  0  0  0  2  0  0  0  0  0  0
  196.9350  173.6550  140.3740 O   0  0  0  0  0  0  0  0  0  0  0  0
  192.4870  173.0800  139.1940 C   0  0  2  0  0  0  0  0  0  0  0  0
  193.3350  173.9860  139.9310 N   0  0  0  0  0  0  0  0  0  0  0  0
  190.0250  172.4250  139.6020 C   0  0  0  0  0  1  0  0  0  0  0  0
  195.6510  174.1440  140.4370 N   0  0  0  0  0  0  0  0  0  0  0  0
  193.3670  171.8890  138.7900 C   0  0  0  0  0  2  0  0  0  0  0  0
  192.7500  174.4140  141.1890 C   0  0  0  0  0  2  0  0  0  0  0  0
  194.8180  172.2930  139.0580 C   0  0  0  0  0  2  0  0  0  0  0  0
  194.6730  173.5330  139.8510 C   0  0  0  0  0  0  0  0  0  0  0  0
  191.3720  173.7710  141.2380 C   0  0  0  0  0  2  0  0  0  0  0  0
  191.9530  173.7850  137.9510 C   0  0  0  0  0  1  0  0  0  0  0  0
  191.4060  172.6650  140.1920 C   0  0  2  0  0  3  0  0  0  0  0  0
  1  9  1  0  0  0  0
  3  7  1  0  0  0  0
  3 12  1  0  0  0  0
  4 15  1  0  0  0  0
  5  8  2  0  0  0  0
  6  7  2  0  0  0  0
  8 13  1  0  0  0  0
  9  3  2  0  0  0  0
 10  4  2  0  0  0  0
 11  1  2  0  0  0  0
 11  6  1  0  0  0  0
 13  1  1  0  0  0  0
 13 20  1  1  0  0  0
 14  2  2  0  0  0  0
 14  5  1  0  0  0  0
 15  2  1  6  0  0  0
 15  8  1  0  0  0  0
 15 16  1  0  0  0  0
 16  4  1  6  0  0  0
 16 11  1  0  0  0  0
 18 19  2  0  0  0  0
 19 17  1  0  0  0  0
 20 21  1  0  0  0  0
 21 17  2  0  0  0  0
 22 20  2  0  0  0  0
 22 18  1  0  0  0  0
 23 18  1  0  0  0  0
 24 23  1  0  0  0  0
 25 24  1  6  0  0  0
 27 30  2  0  0  0  0
 28 29  1  0  0  0  0
 28 31  1  0  0  0  0
 29 32  1  0  0  0  0
 31 25  1  6  0  0  0
 31 27  1  0  0  0  0
 32 26  1  0  0  0  0
 32 27  1  0  0  0  0
 33 34  2  0  0  0  0
 33 25  1  0  0  0  0
 35 39  1  0  0  0  0
 35 10  1  0  0  0  0
 36 45  1  6  0  0  0
 36 37  1  0  0  0  0
 36 46  1  0  0  0  0
 37 41  1  0  0  0  0
 40 42  1  0  0  0  0
 40 36  1  0  0  0  0
 41 44  1  0  0  0  0
 42 43  1  0  0  0  0
 43 37  1  0  0  0  0
 43 39  2  0  0  0  0
 46 38  1  6  0  0  0
 46 44  1  0  0  0  0
M  END
>  <MODEL>
7

>  <REMARK>
 VINA RESULT:      -7.7      2.599      4.873
  Name = 
  8 active torsions:
  status: ('A' for Active; 'I' for Inactive)
    1  A    between atoms: N_2  and  C_8
    2  A    between atoms: C_8  and  C_13
    3  A    between atoms: C_8  and  C_24
    4  A    between atoms: O_11  and  C_13
    5  A    between atoms: O_11  and  C_21
    6  A    between atoms: N_17  and  O_41
    7  A    between atoms: N_29  and  O_41
    8  A    between atoms: C_31  and  C_36
                            x       y       z     vdW  Elec       q    Type
                         _______ _______ _______ _____ _____    ______ ____

>  <TORSDO>
F 8

$$$$
=
 OpenBabel11042414343D

 46 53  0  0  1  0  0  0  0  0999 V2000
  194.8400  172.5770  144.1810 C   0  0  0  0  0  0  0  0  0  0  0  0
  194.3980  176.6390  145.6160 C   0  0  0  0  0  3  0  0  0  0  0  0
  195.8150  170.3520  144.3020 C   0  0  0  0  0  0  0  0  0  0  0  0
  196.2530  175.3460  144.6040 C   0  0  0  0  0  0  0  0  0  0  0  0
  192.9580  175.8460  143.9870 C   0  0  0  0  0  3  0  0  0  0  0  0
  196.6110  172.0870  145.7840 C   0  0  0  0  0  3  0  0  0  0  0  0
  196.6570  170.7680  145.3320 C   0  0  0  0  0  3  0  0  0  0  0  0
  193.8470  174.8720  144.1470 C   0  0  0  0  0  0  0  0  0  0  0  0
  194.9200  171.2530  143.7260 C   0  0  0  0  0  3  0  0  0  0  0  0
  197.1500  175.7960  143.7950 N   0  0  0  0  0  0  0  0  0  0  0  0
  195.7180  173.0060  145.2210 C   0  0  0  0  0  0  0  0  0  0  0  0
  195.8680  169.0380  143.8520 O   0  0  0  0  0  1  0  0  0  0  0  0
  193.8420  173.5120  143.5140 C   0  0  2  0  0  3  0  0  0  0  0  0
  193.3080  176.9440  144.9080 C   0  0  0  0  0  3  0  0  0  0  0  0
  194.8300  175.3070  145.1390 C   0  0  2  0  0  0  0  0  0  0  0  0
  195.7820  174.4270  145.7420 C   0  0  2  0  0  3  0  0  0  0  0  0
  190.5360  171.9360  144.5810 C   0  0  0  0  0  3  0  0  0  0  0  0
  190.4440  172.4190  142.2050 C   0  0  0  0  0  0  0  0  0  0  0  0
  189.8450  171.9180  143.3660 C   0  0  0  0  0  3  0  0  0  0  0  0
  192.4530  172.9320  143.4770 C   0  0  0  0  0  0  0  0  0  0  0  0
  191.8340  172.4480  144.6390 C   0  0  0  0  0  3  0  0  0  0  0  0
  191.7520  172.9270  142.2680 C   0  0  0  0  0  3  0  0  0  0  0  0
  189.7200  172.4110  141.0120 O   0  0  0  0  0  0  0  0  0  0  0  0
  188.4490  173.0380  140.8850 C   0  0  0  0  0  2  0  0  0  0  0  0
  188.6240  174.5300  140.5980 C   0  0  2  0  0  3  0  0  0  0  0  0
  189.9190  178.0760  143.4930 C   0  0  0  0  0  1  0  0  0  0  0  0
  188.8410  175.9560  142.6380 C   0  0  0  0  0  0  0  0  0  0  0  0
  187.0940  176.8350  140.8370 S   0  0  0  0  0  0  0  0  0  0  0  0
  188.1950  178.0570  141.6380 C   0  0  0  0  0  2  0  0  0  0  0  0
  189.4490  175.2320  143.4710 O   0  0  0  0  0  0  0  0  0  0  0  0
  187.8950  175.3920  141.6400 C   0  0  1  0  0  3  0  0  0  0  0  0
  189.0060  177.3630  142.6130 N   0  0  0  0  0  0  0  0  0  0  0  0
  188.1920  174.8450  139.2490 N   0  0  0  0  0  0  0  0  0  0  0  0
  188.1930  173.9730  138.3020 C   0  0  0  0  0  2  0  0  0  0  0  0
  196.8130  176.7530  142.8700 O   0  0  0  0  0  0  0  0  0  0  0  0
  196.1890  174.5260  138.8500 C   0  0  2  0  0  0  0  0  0  0  0  0
  195.4680  175.3500  139.7900 N   0  0  0  0  0  0  0  0  0  0  0  0
  195.3390  172.6090  137.3470 C   0  0  0  0  0  1  0  0  0  0  0  0
  195.9540  176.4470  141.8420 N   0  0  0  0  0  0  0  0  0  0  0  0
  197.5550  174.2300  139.4880 C   0  0  0  0  0  2  0  0  0  0  0  0
  194.1210  174.8720  140.0470 C   0  0  0  0  0  2  0  0  0  0  0  0
  197.7020  175.1680  140.6870 C   0  0  0  0  0  2  0  0  0  0  0  0
  196.3370  175.7190  140.8430 C   0  0  0  0  0  0  0  0  0  0  0  0
  193.9390  173.6620  139.1440 C   0  0  0  0  0  2  0  0  0  0  0  0
  196.3730  175.2910  137.5440 C   0  0  0  0  0  1  0  0  0  0  0  0
  195.3440  173.2580  138.7220 C   0  0  2  0  0  3  0  0  0  0  0  0
  1 11  1  0  0  0  0
  3  7  2  0  0  0  0
  4 15  1  0  0  0  0
  5  8  2  0  0  0  0
  5 14  1  0  0  0  0
  7  6  1  0  0  0  0
  8 15  1  0  0  0  0
  9  1  2  0  0  0  0
  9  3  1  0  0  0  0
 10  4  2  0  0  0  0
 11 16  1  0  0  0  0
 11  6  2  0  0  0  0
 12  3  1  0  0  0  0
 13 20  1  1  0  0  0
 13  8  1  0  0  0  0
 13  1  1  0  0  0  0
 14  2  2  0  0  0  0
 15  2  1  1  0  0  0
 15 16  1  0  0  0  0
 16  4  1  6  0  0  0
 17 21  1  0  0  0  0
 18 22  2  0  0  0  0
 18 19  1  0  0  0  0
 19 17  2  0  0  0  0
 20 21  2  0  0  0  0
 22 20  1  0  0  0  0
 23 18  1  0  0  0  0
 24 23  1  0  0  0  0
 25 24  1  1  0  0  0
 27 30  2  0  0  0  0
 28 29  1  0  0  0  0
 28 31  1  0  0  0  0
 29 32  1  0  0  0  0
 31 25  1  6  0  0  0
 31 27  1  0  0  0  0
 32 27  1  0  0  0  0
 32 26  1  0  0  0  0
 33 25  1  0  0  0  0
 34 33  2  0  0  0  0
 35 10  1  0  0  0  0
 36 45  1  6  0  0  0
 36 40  1  0  0  0  0
 36 37  1  0  0  0  0
 37 41  1  0  0  0  0
 37 43  1  0  0  0  0
 39 35  1  0  0  0  0
 40 42  1  0  0  0  0
 42 43  1  0  0  0  0
 43 39  2  0  0  0  0
 44 41  1  0  0  0  0
 46 38  1  6  0  0  0
 46 36  1  0  0  0  0
 46 44  1  0  0  0  0
M  END
>  <MODEL>
8

>  <REMARK>
 VINA RESULT:      -7.7      2.710      4.372
  Name = 
  8 active torsions:
  status: ('A' for Active; 'I' for Inactive)
    1  A    between atoms: N_2  and  C_8
    2  A    between atoms: C_8  and  C_13
    3  A    between atoms: C_8  and  C_24
    4  A    between atoms: O_11  and  C_13
    5  A    between atoms: O_11  and  C_21
    6  A    between atoms: N_17  and  O_41
    7  A    between atoms: N_29  and  O_41
    8  A    between atoms: C_31  and  C_36
                            x       y       z     vdW  Elec       q    Type
                         _______ _______ _______ _____ _____    ______ ____

>  <TORSDO>
F 8

$$$$
=
 OpenBabel11042414343D

 46 53  0  0  1  0  0  0  0  0999 V2000
  194.9340  174.3000  141.0650 C   0  0  0  0  0  0  0  0  0  0  0  0
  195.1500  172.9560  145.1760 C   0  0  0  0  0  3  0  0  0  0  0  0
  195.9670  174.9010  138.9460 C   0  0  0  0  0  0  0  0  0  0  0  0
  195.9120  174.9790  143.9670 C   0  0  0  0  0  0  0  0  0  0  0  0
  193.0870  173.1150  144.1380 C   0  0  0  0  0  3  0  0  0  0  0  0
  197.3620  174.3940  140.8530 C   0  0  0  0  0  3  0  0  0  0  0  0
  197.2330  174.7520  139.5100 C   0  0  0  0  0  3  0  0  0  0  0  0
  193.9420  173.6240  143.2580 C   0  0  0  0  0  0  0  0  0  0  0  0
  194.8270  174.6840  139.7200 C   0  0  0  0  0  3  0  0  0  0  0  0
  195.9360  176.1840  144.4260 N   0  0  0  0  0  0  0  0  0  0  0  0
  196.2310  174.1700  141.6460 C   0  0  0  0  0  0  0  0  0  0  0  0
  195.8430  175.2620  137.6100 O   0  0  0  0  0  1  0  0  0  0  0  0
  193.6550  174.0770  141.8570 C   0  0  2  0  0  3  0  0  0  0  0  0
  193.8500  172.6990  145.3310 C   0  0  0  0  0  3  0  0  0  0  0  0
  195.2780  173.6020  143.8520 C   0  0  2  0  0  0  0  0  0  0  0  0
  196.4740  173.8390  143.1040 C   0  0  2  0  0  3  0  0  0  0  0  0
  192.1490  170.9330  140.3080 C   0  0  0  0  0  3  0  0  0  0  0  0
  190.5310  172.7330  140.1580 C   0  0  0  0  0  0  0  0  0  0  0  0
  190.8930  171.4040  139.9170 C   0  0  0  0  0  3  0  0  0  0  0  0
  192.7100  173.1330  141.1620 C   0  0  0  0  0  0  0  0  0  0  0  0
  193.0540  171.7930  140.9350 C   0  0  0  0  0  3  0  0  0  0  0  0
  191.4460  173.5950  140.7840 C   0  0  0  0  0  3  0  0  0  0  0  0
  189.2590  173.1680  139.7790 O   0  0  0  0  0  0  0  0  0  0  0  0
  188.8770  174.5380  139.8200 C   0  0  0  0  0  2  0  0  0  0  0  0
  187.8200  174.7590  140.9030 C   0  0  2  0  0  3  0  0  0  0  0  0
  184.6570  178.2970  140.5870 C   0  0  0  0  0  1  0  0  0  0  0  0
  186.8440  177.0320  140.5570 C   0  0  0  0  0  0  0  0  0  0  0  0
  187.1900  176.3350  143.0990 S   0  0  0  0  0  0  0  0  0  0  0  0
  185.6370  177.1900  142.6430 C   0  0  0  0  0  2  0  0  0  0  0  0
  187.0510  177.2880  139.3400 O   0  0  0  0  0  0  0  0  0  0  0  0
  187.7890  176.2220  141.3680 C   0  0  1  0  0  3  0  0  0  0  0  0
  185.7010  177.5210  141.2370 N   0  0  0  0  0  0  0  0  0  0  0  0
  188.0290  173.8490  142.0140 N   0  0  0  0  0  0  0  0  0  0  0  0
  187.3800  172.7430  142.1330 C   0  0  0  0  0  2  0  0  0  0  0  0
  194.9440  176.6070  145.2750 O   0  0  0  0  0  0  0  0  0  0  0  0
  190.4500  175.9090  146.1830 C   0  0  2  0  0  0  0  0  0  0  0  0
  191.3090  176.4270  145.1450 N   0  0  0  0  0  0  0  0  0  0  0  0
  188.0620  176.6190  146.8550 C   0  0  0  0  0  1  0  0  0  0  0  0
  193.6470  176.7050  144.8280 N   0  0  0  0  0  0  0  0  0  0  0  0
  191.3520  175.6150  147.3900 C   0  0  0  0  0  2  0  0  0  0  0  0
  190.8040  177.6520  144.5500 C   0  0  0  0  0  2  0  0  0  0  0  0
  192.7980  175.6950  146.8980 C   0  0  0  0  0  2  0  0  0  0  0  0
  192.6560  176.3030  145.5560 C   0  0  0  0  0  0  0  0  0  0  0  0
  189.4680  177.9130  145.2270 C   0  0  0  0  0  2  0  0  0  0  0  0
  189.7870  174.6240  145.6960 C   0  0  0  0  0  1  0  0  0  0  0  0
  189.4720  177.0470  146.4780 C   0  0  2  0  0  3  0  0  0  0  0  0
  1 11  1  0  0  0  0
  1 13  1  0  0  0  0
  2 14  2  0  0  0  0
  3  7  2  0  0  0  0
  3  9  1  0  0  0  0
  4 10  2  0  0  0  0
  5 14  1  0  0  0  0
  6 11  2  0  0  0  0
  7  6  1  0  0  0  0
  8 15  1  0  0  0  0
  8  5  2  0  0  0  0
  9  1  2  0  0  0  0
 10 35  1  0  0  0  0
 12  3  1  0  0  0  0
 13 20  1  6  0  0  0
 13  8  1  0  0  0  0
 15  4  1  0  0  0  0
 15  2  1  1  0  0  0
 16 11  1  6  0  0  0
 16 15  1  0  0  0  0
 16  4  1  0  0  0  0
 17 21  1  0  0  0  0
 18 22  2  0  0  0  0
 19 18  1  0  0  0  0
 19 17  2  0  0  0  0
 21 20  2  0  0  0  0
 22 20  1  0  0  0  0
 23 24  1  0  0  0  0
 23 18  1  0  0  0  0
 25 24  1  6  0  0  0
 25 33  1  0  0  0  0
 26 32  1  0  0  0  0
 27 32  1  0  0  0  0
 27 31  1  0  0  0  0
 29 28  1  0  0  0  0
 30 27  2  0  0  0  0
 31 25  1  6  0  0  0
 31 28  1  0  0  0  0
 32 29  1  0  0  0  0
 33 34  2  0  0  0  0
 36 45  1  6  0  0  0
 36 46  1  0  0  0  0
 36 40  1  0  0  0  0
 37 43  1  0  0  0  0
 37 36  1  0  0  0  0
 39 35  1  0  0  0  0
 39 43  2  0  0  0  0
 41 37  1  0  0  0  0
 41 44  1  0  0  0  0
 42 40  1  0  0  0  0
 43 42  1  0  0  0  0
 44 46  1  0  0  0  0
 46 38  1  6  0  0  0
M  END
>  <MODEL>
9

>  <REMARK>
 VINA RESULT:      -7.6      2.544      6.528
  Name = 
  8 active torsions:
  status: ('A' for Active; 'I' for Inactive)
    1  A    between atoms: N_2  and  C_8
    2  A    between atoms: C_8  and  C_13
    3  A    between atoms: C_8  and  C_24
    4  A    between atoms: O_11  and  C_13
    5  A    between atoms: O_11  and  C_21
    6  A    between atoms: N_17  and  O_41
    7  A    between atoms: N_29  and  O_41
    8  A    between atoms: C_31  and  C_36
                            x       y       z     vdW  Elec       q    Type
                         _______ _______ _______ _____ _____    ______ ____

>  <TORSDO>
F 8

$$$$
