=
 OpenBabel11042416293D

 29 33  0  0  1  0  0  0  0  0999 V2000
  191.9550  175.8990  147.5960 O   0  0  0  0  0  0  0  0  0  0  0  0
  184.9030  178.4340  145.2140 C   0  0  0  0  0  2  0  0  0  0  0  0
  190.0690  174.6780  146.8040 C   0  0  1  0  0  3  0  0  0  0  0  0
  188.5380  177.1040  145.3760 C   0  0  2  0  0  3  0  0  0  0  0  0
  185.6010  179.4500  143.0090 C   0  0  0  0  0  2  0  0  0  0  0  0
  189.6830  174.7150  145.3560 C   0  0  0  0  0  0  0  0  0  0  0  0
  188.6430  177.2570  146.8900 C   0  0  0  0  0  2  0  0  0  0  0  0
  188.5500  174.8610  141.3850 C   0  0  0  0  0  0  0  0  0  0  0  0
  185.8990  177.2700  145.2520 C   0  0  1  0  0  3  0  0  0  0  0  0
  190.0290  177.1660  147.3120 N   0  0  0  0  0  2  0  0  0  0  0  0
  186.5170  178.4060  142.4490 C   0  0  0  0  0  3  0  0  0  0  0  0
  184.4710  178.7860  143.7900 C   0  0  0  0  0  2  0  0  0  0  0  0
  188.6590  175.6410  143.4040 C   0  0  0  0  0  0  0  0  0  0  0  0
  187.2700  177.7630  144.7400 C   0  0  2  0  0  3  0  0  0  0  0  0
  189.7600  173.5230  143.1910 C   0  0  0  0  0  3  0  0  0  0  0  0
  190.0730  173.6000  144.5640 C   0  0  0  0  0  3  0  0  0  0  0  0
  190.7450  175.9330  147.2530 C   0  0  0  0  0  0  0  0  0  0  0  0
  188.9740  174.3890  147.5980 F   0  0  0  0  0  0  0  0  0  0  0  0
  188.9210  175.7660  144.7610 C   0  0  0  0  0  0  0  0  0  0  0  0
  189.0510  174.5870  142.6470 C   0  0  0  0  0  0  0  0  0  0  0  0
  187.8800  176.0420  141.4180 N   0  0  0  0  0  0  0  0  0  0  0  0
  187.2880  177.6340  143.2240 C   0  0  0  0  0  0  0  0  0  0  0  0
  187.9700  176.5070  142.6610 N   0  0  0  0  0  0  0  0  0  0  0  0
  187.9620  172.5450  140.2030 O   0  0  0  0  0  0  0  0  0  0  0  0
  188.6860  173.8390  139.9640 S   0  0  0  0  0  0  0  0  0  0  0  0
  190.3980  173.5030  139.6320 C   0  0  0  0  0  1  0  0  0  0  0  0
  188.0910  174.5440  138.7780 O   0  0  0  0  0  0  0  0  0  0  0  0
  185.2110  177.6520  147.3240 C   0  0  0  0  0  1  0  0  0  0  0  0
  185.9550  176.7590  146.5520 O   0  0  0  0  0  0  0  0  0  0  0  0
  2  9  1  0  0  0  0
  3 17  1  0  0  0  0
  3 18  1  1  0  0  0
  4  7  1  1  0  0  0
  5 12  1  0  0  0  0
  6  3  1  0  0  0  0
  7 10  1  0  0  0  0
  8 21  2  0  0  0  0
  8 20  1  0  0  0  0
  9 29  1  1  0  0  0
 11  5  1  0  0  0  0
 11 22  2  0  0  0  0
 12  2  1  0  0  0  0
 13 19  2  0  0  0  0
 14 22  1  6  0  0  0
 14  9  1  0  0  0  0
 14  4  1  0  0  0  0
 15 16  1  0  0  0  0
 16  6  2  0  0  0  0
 17 10  1  0  0  0  0
 17  1  2  0  0  0  0
 19  6  1  0  0  0  0
 19  4  1  0  0  0  0
 20 15  2  0  0  0  0
 20 13  1  0  0  0  0
 21 23  1  0  0  0  0
 23 22  1  0  0  0  0
 23 13  1  0  0  0  0
 25 24  2  0  0  0  0
 25  8  1  0  0  0  0
 26 25  1  0  0  0  0
 27 25  2  0  0  0  0
 29 28  1  0  0  0  0
M  END
>  <MODEL>
1

>  <REMARK>
 VINA RESULT:      -8.9      0.000      0.000
  Name = 
  2 active torsions:
  status: ('A' for Active; 'I' for Inactive)
    1  A    between atoms: S_4  and  C_10
    2  A    between atoms: C_11  and  O_28
                            x       y       z     vdW  Elec       q    Type
                         _______ _______ _______ _____ _____    ______ ____

>  <TORSDO>
F 2

$$$$
=
 OpenBabel11042416293D

 29 33  0  0  1  0  0  0  0  0999 V2000
  185.9720  176.5210  146.2850 O   0  0  0  0  0  0  0  0  0  0  0  0
  193.6360  174.8110  145.8770 C   0  0  0  0  0  2  0  0  0  0  0  0
  187.5890  177.0970  144.6350 C   0  0  1  0  0  3  0  0  0  0  0  0
  189.7940  174.8960  145.3870 C   0  0  2  0  0  3  0  0  0  0  0  0
  193.4370  172.3560  145.3160 C   0  0  0  0  0  2  0  0  0  0  0  0
  188.1260  176.0630  143.6910 C   0  0  0  0  0  0  0  0  0  0  0  0
  189.5660  175.9300  146.4850 C   0  0  0  0  0  2  0  0  0  0  0  0
  189.6800  173.2180  141.1280 C   0  0  0  0  0  0  0  0  0  0  0  0
  192.3950  175.3150  145.1310 C   0  0  1  0  0  3  0  0  0  0  0  0
  188.1610  175.9830  146.8450 N   0  0  0  0  0  2  0  0  0  0  0  0
  192.3660  172.3500  144.2690 C   0  0  0  0  0  3  0  0  0  0  0  0
  194.2890  173.6150  145.1820 C   0  0  0  0  0  2  0  0  0  0  0  0
  189.5430  174.2550  143.0270 C   0  0  0  0  0  0  0  0  0  0  0  0
  191.2420  174.3080  145.3340 C   0  0  2  0  0  3  0  0  0  0  0  0
  188.0020  175.1220  141.4080 C   0  0  0  0  0  3  0  0  0  0  0  0
  187.5710  176.0460  142.3820 C   0  0  0  0  0  3  0  0  0  0  0  0
  187.1850  176.5200  145.9530 C   0  0  0  0  0  0  0  0  0  0  0  0
  188.4940  178.1310  144.7980 F   0  0  0  0  0  0  0  0  0  0  0  0
  189.1740  175.1500  144.0210 C   0  0  0  0  0  0  0  0  0  0  0  0
  188.9960  174.2280  141.7860 C   0  0  0  0  0  0  0  0  0  0  0  0
  190.6030  172.6830  141.9700 N   0  0  0  0  0  0  0  0  0  0  0  0
  191.3560  173.2290  144.2680 C   0  0  0  0  0  0  0  0  0  0  0  0
  190.4920  173.3260  143.1290 N   0  0  0  0  0  0  0  0  0  0  0  0
  188.0050  172.4530  139.2020 O   0  0  0  0  0  0  0  0  0  0  0  0
  189.4590  172.7250  139.4580 S   0  0  0  0  0  0  0  0  0  0  0  0
  190.3990  171.2510  139.1410 C   0  0  0  0  0  1  0  0  0  0  0  0
  189.9420  173.8150  138.5430 O   0  0  0  0  0  0  0  0  0  0  0  0
  192.2030  177.4180  144.4570 C   0  0  0  0  0  1  0  0  0  0  0  0
  192.0810  176.6000  145.5820 O   0  0  0  0  0  0  0  0  0  0  0  0
  3 18  1  1  0  0  0
  3 17  1  0  0  0  0
  4  7  1  1  0  0  0
  6 19  1  0  0  0  0
  6  3  1  0  0  0  0
  7 10  1  0  0  0  0
  8 20  1  0  0  0  0
  8 21  2  0  0  0  0
  9 14  1  0  0  0  0
  9 29  1  1  0  0  0
  9  2  1  0  0  0  0
 11  5  1  0  0  0  0
 12  5  1  0  0  0  0
 12  2  1  0  0  0  0
 13 23  1  0  0  0  0
 13 19  2  0  0  0  0
 14 22  1  6  0  0  0
 14  4  1  0  0  0  0
 15 20  2  0  0  0  0
 15 16  1  0  0  0  0
 16  6  2  0  0  0  0
 17  1  2  0  0  0  0
 17 10  1  0  0  0  0
 19  4  1  0  0  0  0
 20 13  1  0  0  0  0
 21 23  1  0  0  0  0
 22 11  2  0  0  0  0
 23 22  1  0  0  0  0
 24 25  2  0  0  0  0
 25  8  1  0  0  0  0
 26 25  1  0  0  0  0
 27 25  2  0  0  0  0
 28 29  1  0  0  0  0
M  END
>  <MODEL>
2

>  <REMARK>
 VINA RESULT:      -7.4      2.403      5.280
  Name = 
  2 active torsions:
  status: ('A' for Active; 'I' for Inactive)
    1  A    between atoms: S_4  and  C_10
    2  A    between atoms: C_11  and  O_28
                            x       y       z     vdW  Elec       q    Type
                         _______ _______ _______ _____ _____    ______ ____

>  <TORSDO>
F 2

$$$$
=
 OpenBabel11042416293D

 29 33  0  0  1  0  0  0  0  0999 V2000
  195.2570  176.2000  144.4970 O   0  0  0  0  0  0  0  0  0  0  0  0
  187.7450  176.9790  146.6860 C   0  0  0  0  0  2  0  0  0  0  0  0
  193.5090  174.5850  144.5940 C   0  0  1  0  0  3  0  0  0  0  0  0
  191.0310  176.6170  144.6670 C   0  0  2  0  0  3  0  0  0  0  0  0
  186.9070  178.2660  144.6810 C   0  0  0  0  0  2  0  0  0  0  0  0
  192.3870  174.6060  143.6000 C   0  0  0  0  0  0  0  0  0  0  0  0
  191.9260  176.7040  145.8990 C   0  0  0  0  0  2  0  0  0  0  0  0
  189.2420  174.6880  140.9200 C   0  0  0  0  0  0  0  0  0  0  0  0
  188.7870  176.1080  145.9770 C   0  0  1  0  0  3  0  0  0  0  0  0
  193.3030  176.9470  145.5080 N   0  0  0  0  0  2  0  0  0  0  0  0
  187.5320  177.5260  143.5390 C   0  0  0  0  0  3  0  0  0  0  0  0
  186.5410  177.2900  145.7950 C   0  0  0  0  0  2  0  0  0  0  0  0
  190.3060  175.3520  142.6890 C   0  0  0  0  0  0  0  0  0  0  0  0
  189.5290  176.9650  144.9270 C   0  0  2  0  0  3  0  0  0  0  0  0
  191.4690  173.6020  141.5350 C   0  0  0  0  0  3  0  0  0  0  0  0
  192.4690  173.6770  142.5270 C   0  0  0  0  0  3  0  0  0  0  0  0
  194.0770  175.9440  144.8510 C   0  0  0  0  0  0  0  0  0  0  0  0
  193.1110  173.9800  145.7720 F   0  0  0  0  0  0  0  0  0  0  0  0
  191.2470  175.4600  143.7020 C   0  0  0  0  0  0  0  0  0  0  0  0
  190.3980  174.4790  141.6550 C   0  0  0  0  0  0  0  0  0  0  0  0
  188.5010  175.6540  141.5220 N   0  0  0  0  0  0  0  0  0  0  0  0
  188.7290  176.9330  143.6340 C   0  0  0  0  0  0  0  0  0  0  0  0
  189.1770  176.0530  142.5960 N   0  0  0  0  0  0  0  0  0  0  0  0
  188.0260  172.5660  139.8640 O   0  0  0  0  0  0  0  0  0  0  0  0
  188.7530  173.8210  139.4750 S   0  0  0  0  0  0  0  0  0  0  0  0
  190.1890  173.3970  138.5180 C   0  0  0  0  0  1  0  0  0  0  0  0
  187.8550  174.6930  138.6430 O   0  0  0  0  0  0  0  0  0  0  0  0
  188.9390  174.4770  147.4710 C   0  0  0  0  0  1  0  0  0  0  0  0
  189.6460  175.5540  146.9300 O   0  0  0  0  0  0  0  0  0  0  0  0
  1 17  2  0  0  0  0
  3 17  1  0  0  0  0
  3 18  1  1  0  0  0
  4 14  1  0  0  0  0
  4  7  1  1  0  0  0
  5 12  1  0  0  0  0
  6 19  1  0  0  0  0
  6  3  1  0  0  0  0
  8 21  2  0  0  0  0
  8 20  1  0  0  0  0
  9  2  1  0  0  0  0
  9 29  1  1  0  0  0
 10  7  1  0  0  0  0
 11 22  2  0  0  0  0
 11  5  1  0  0  0  0
 12  2  1  0  0  0  0
 13 19  2  0  0  0  0
 14 22  1  6  0  0  0
 14  9  1  0  0  0  0
 15 20  2  0  0  0  0
 15 16  1  0  0  0  0
 16  6  2  0  0  0  0
 17 10  1  0  0  0  0
 19  4  1  0  0  0  0
 20 13  1  0  0  0  0
 21 23  1  0  0  0  0
 23 13  1  0  0  0  0
 23 22  1  0  0  0  0
 25 24  2  0  0  0  0
 25  8  1  0  0  0  0
 26 25  1  0  0  0  0
 27 25  2  0  0  0  0
 29 28  1  0  0  0  0
M  END
>  <MODEL>
3

>  <REMARK>
 VINA RESULT:      -7.3      2.222      2.883
  Name = 
  2 active torsions:
  status: ('A' for Active; 'I' for Inactive)
    1  A    between atoms: S_4  and  C_10
    2  A    between atoms: C_11  and  O_28
                            x       y       z     vdW  Elec       q    Type
                         _______ _______ _______ _____ _____    ______ ____

>  <TORSDO>
F 2

$$$$
=
 OpenBabel11042416293D

 29 33  0  0  1  0  0  0  0  0999 V2000
  190.3010  170.9100  140.5410 O   0  0  0  0  0  0  0  0  0  0  0  0
  186.8610  177.4220  143.2950 C   0  0  0  0  0  2  0  0  0  0  0  0
  191.0040  173.1830  140.4320 C   0  0  1  0  0  3  0  0  0  0  0  0
  189.1430  174.3360  142.7730 C   0  0  2  0  0  3  0  0  0  0  0  0
  187.2880  177.0530  145.7570 C   0  0  0  0  0  2  0  0  0  0  0  0
  191.5040  173.8920  141.6540 C   0  0  0  0  0  0  0  0  0  0  0  0
  188.3590  173.8230  141.5690 C   0  0  0  0  0  2  0  0  0  0  0  0
  192.8120  175.8950  145.0240 C   0  0  0  0  0  0  0  0  0  0  0  0
  188.1430  176.7870  142.7450 C   0  0  1  0  0  3  0  0  0  0  0  0
  188.7240  172.4480  141.2770 N   0  0  0  0  0  2  0  0  0  0  0  0
  188.7180  176.6080  145.7730 C   0  0  0  0  0  3  0  0  0  0  0  0
  187.0770  178.0870  144.6550 C   0  0  0  0  0  2  0  0  0  0  0  0
  191.2850  175.0910  143.7120 C   0  0  0  0  0  0  0  0  0  0  0  0
  188.4540  175.5050  143.5490 C   0  0  2  0  0  3  0  0  0  0  0  0
  193.4980  174.6670  142.8940 C   0  0  0  0  0  3  0  0  0  0  0  0
  192.9140  174.0140  141.7890 C   0  0  0  0  0  3  0  0  0  0  0  0
  190.0080  172.1150  140.7510 C   0  0  0  0  0  0  0  0  0  0  0  0
  190.4930  174.0840  139.5150 F   0  0  0  0  0  0  0  0  0  0  0  0
  190.6520  174.4780  142.6410 C   0  0  0  0  0  0  0  0  0  0  0  0
  192.6310  175.1860  143.8470 C   0  0  0  0  0  0  0  0  0  0  0  0
  191.5980  176.2060  145.5480 N   0  0  0  0  0  0  0  0  0  0  0  0
  189.2620  175.8970  144.7780 C   0  0  0  0  0  0  0  0  0  0  0  0
  190.6790  175.6930  144.7340 N   0  0  0  0  0  0  0  0  0  0  0  0
  195.1020  177.2280  144.7340 O   0  0  0  0  0  0  0  0  0  0  0  0
  194.3470  176.3850  145.7210 S   0  0  0  0  0  0  0  0  0  0  0  0
  195.3060  174.9460  146.1240 C   0  0  0  0  0  1  0  0  0  0  0  0
  194.1010  177.1720  146.9780 O   0  0  0  0  0  0  0  0  0  0  0  0
  186.9210  177.3630  140.9870 C   0  0  0  0  0  1  0  0  0  0  0  0
  187.9830  176.5450  141.3780 O   0  0  0  0  0  0  0  0  0  0  0  0
  1 17  2  0  0  0  0
  2 12  1  0  0  0  0
  3 18  1  6  0  0  0
  3 17  1  0  0  0  0
  3  6  1  0  0  0  0
  4  7  1  6  0  0  0
  4 14  1  0  0  0  0
  5 11  1  0  0  0  0
  6 16  2  0  0  0  0
  6 19  1  0  0  0  0
  8 21  2  0  0  0  0
  8 25  1  0  0  0  0
  9 29  1  6  0  0  0
  9  2  1  0  0  0  0
  9 14  1  0  0  0  0
 10  7  1  0  0  0  0
 12  5  1  0  0  0  0
 13 20  1  0  0  0  0
 13 23  1  0  0  0  0
 14 22  1  1  0  0  0
 15 20  2  0  0  0  0
 16 15  1  0  0  0  0
 17 10  1  0  0  0  0
 19  4  1  0  0  0  0
 19 13  2  0  0  0  0
 20  8  1  0  0  0  0
 22 11  2  0  0  0  0
 23 22  1  0  0  0  0
 23 21  1  0  0  0  0
 24 25  2  0  0  0  0
 25 26  1  0  0  0  0
 25 27  2  0  0  0  0
 28 29  1  0  0  0  0
M  END
>  <MODEL>
4

>  <REMARK>
 VINA RESULT:      -7.1      3.259      5.918
  Name = 
  2 active torsions:
  status: ('A' for Active; 'I' for Inactive)
    1  A    between atoms: S_4  and  C_10
    2  A    between atoms: C_11  and  O_28
                            x       y       z     vdW  Elec       q    Type
                         _______ _______ _______ _____ _____    ______ ____

>  <TORSDO>
F 2

$$$$
=
 OpenBabel11042416293D

 29 33  0  0  1  0  0  0  0  0999 V2000
  189.9620  178.3290  147.9080 O   0  0  0  0  0  0  0  0  0  0  0  0
  189.5950  172.4770  142.6690 C   0  0  0  0  0  2  0  0  0  0  0  0
  191.3160  176.3830  147.6800 C   0  0  1  0  0  3  0  0  0  0  0  0
  190.5530  175.6640  144.6510 C   0  0  2  0  0  3  0  0  0  0  0  0
  190.4590  173.7300  140.6540 C   0  0  0  0  0  2  0  0  0  0  0  0
  192.2990  176.2580  146.5540 C   0  0  0  0  0  0  0  0  0  0  0  0
  189.3800  175.5480  145.6190 C   0  0  0  0  0  2  0  0  0  0  0  0
  194.9580  175.8550  143.4170 C   0  0  0  0  0  0  0  0  0  0  0  0
  190.4280  173.1790  143.7470 C   0  0  1  0  0  3  0  0  0  0  0  0
  189.1960  176.7940  146.3420 N   0  0  0  0  0  2  0  0  0  0  0  0
  191.6260  174.4810  141.2170 C   0  0  0  0  0  3  0  0  0  0  0  0
  190.3360  172.3710  141.3350 C   0  0  0  0  0  2  0  0  0  0  0  0
  192.9840  175.7930  144.3110 C   0  0  0  0  0  0  0  0  0  0  0  0
  190.4900  174.6890  143.4300 C   0  0  2  0  0  3  0  0  0  0  0  0
  194.6730  176.4350  145.8870 C   0  0  0  0  0  3  0  0  0  0  0  0
  193.6600  176.5260  146.8640 C   0  0  0  0  0  3  0  0  0  0  0  0
  190.1360  177.2280  147.3240 C   0  0  0  0  0  0  0  0  0  0  0  0
  190.9210  175.1360  148.1280 F   0  0  0  0  0  0  0  0  0  0  0  0
  191.9480  175.8490  145.2320 C   0  0  0  0  0  0  0  0  0  0  0  0
  194.2790  176.0700  144.6060 C   0  0  0  0  0  0  0  0  0  0  0  0
  194.0750  175.4570  142.4650 N   0  0  0  0  0  0  0  0  0  0  0  0
  191.6520  174.9300  142.4780 C   0  0  0  0  0  0  0  0  0  0  0  0
  192.8720  175.4380  143.0320 N   0  0  0  0  0  0  0  0  0  0  0  0
  197.1200  177.4130  143.4450 O   0  0  0  0  0  0  0  0  0  0  0  0
  196.6890  176.0020  143.1630 S   0  0  0  0  0  0  0  0  0  0  0  0
  197.0830  175.5900  141.4810 C   0  0  0  0  0  1  0  0  0  0  0  0
  197.4150  175.0560  144.0780 O   0  0  0  0  0  0  0  0  0  0  0  0
  189.4320  171.5880  144.9250 C   0  0  0  0  0  1  0  0  0  0  0  0
  189.8740  172.9100  145.0010 O   0  0  0  0  0  0  0  0  0  0  0  0
  2  9  1  0  0  0  0
  3 18  1  6  0  0  0
  4 19  1  0  0  0  0
  4  7  1  1  0  0  0
  5 11  1  0  0  0  0
  5 12  1  0  0  0  0
  6 16  1  0  0  0  0
  6  3  1  0  0  0  0
  7 10  1  0  0  0  0
  8 20  1  0  0  0  0
  9 29  1  1  0  0  0
 10 17  1  0  0  0  0
 11 22  2  0  0  0  0
 12  2  1  0  0  0  0
 13 20  2  0  0  0  0
 13 19  1  0  0  0  0
 14 22  1  6  0  0  0
 14  9  1  0  0  0  0
 14  4  1  0  0  0  0
 15 16  2  0  0  0  0
 17  3  1  0  0  0  0
 17  1  2  0  0  0  0
 19  6  2  0  0  0  0
 20 15  1  0  0  0  0
 21 23  1  0  0  0  0
 21  8  2  0  0  0  0
 22 23  1  0  0  0  0
 23 13  1  0  0  0  0
 25  8  1  0  0  0  0
 25 24  2  0  0  0  0
 25 27  2  0  0  0  0
 26 25  1  0  0  0  0
 28 29  1  0  0  0  0
M  END
>  <MODEL>
5

>  <REMARK>
 VINA RESULT:      -6.9      3.937      6.109
  Name = 
  2 active torsions:
  status: ('A' for Active; 'I' for Inactive)
    1  A    between atoms: S_4  and  C_10
    2  A    between atoms: C_11  and  O_28
                            x       y       z     vdW  Elec       q    Type
                         _______ _______ _______ _____ _____    ______ ____

>  <TORSDO>
F 2

$$$$
=
 OpenBabel11042416293D

 29 33  0  0  1  0  0  0  0  0999 V2000
  184.1770  178.2350  143.2290 O   0  0  0  0  0  0  0  0  0  0  0  0
  191.2650  176.5510  146.1870 C   0  0  0  0  0  2  0  0  0  0  0  0
  186.3280  178.3240  142.2110 C   0  0  1  0  0  3  0  0  0  0  0  0
  187.8850  176.4550  144.2980 C   0  0  2  0  0  3  0  0  0  0  0  0
  191.0380  174.0370  146.2830 C   0  0  0  0  0  2  0  0  0  0  0  0
  187.0620  177.0660  141.8550 C   0  0  0  0  0  0  0  0  0  0  0  0
  187.3820  177.7600  144.9070 C   0  0  0  0  0  2  0  0  0  0  0  0
  189.1410  173.6160  140.9330 C   0  0  0  0  0  0  0  0  0  0  0  0
  190.4320  176.8060  144.9260 C   0  0  1  0  0  3  0  0  0  0  0  0
  185.9540  177.9030  144.6880 N   0  0  0  0  0  2  0  0  0  0  0  0
  190.4190  173.7190  144.9570 C   0  0  0  0  0  3  0  0  0  0  0  0
  192.0020  175.2110  146.1390 C   0  0  0  0  0  2  0  0  0  0  0  0
  188.4350  175.1570  142.2850 C   0  0  0  0  0  0  0  0  0  0  0  0
  189.1890  175.8900  144.9510 C   0  0  2  0  0  3  0  0  0  0  0  0
  187.6730  175.5040  140.0390 C   0  0  0  0  0  3  0  0  0  0  0  0
  187.0150  176.6660  140.4910 C   0  0  0  0  0  3  0  0  0  0  0  0
  185.4220  178.1490  143.3870 C   0  0  0  0  0  0  0  0  0  0  0  0
  187.2110  179.3690  142.4120 F   0  0  0  0  0  0  0  0  0  0  0  0
  187.8250  176.2970  142.7860 C   0  0  0  0  0  0  0  0  0  0  0  0
  188.3700  174.7660  140.9880 C   0  0  0  0  0  0  0  0  0  0  0  0
  189.6420  173.3560  142.1690 N   0  0  0  0  0  0  0  0  0  0  0  0
  189.5700  174.5500  144.3400 C   0  0  0  0  0  0  0  0  0  0  0  0
  189.1870  174.3050  142.9820 N   0  0  0  0  0  0  0  0  0  0  0  0
  190.1640  171.3800  139.9050 O   0  0  0  0  0  0  0  0  0  0  0  0
  189.4870  172.6590  139.5020 S   0  0  0  0  0  0  0  0  0  0  0  0
  190.5530  173.5730  138.4150 C   0  0  0  0  0  1  0  0  0  0  0  0
  188.2060  172.3510  138.7800 O   0  0  0  0  0  0  0  0  0  0  0  0
  190.8910  178.6740  143.8240 C   0  0  0  0  0  1  0  0  0  0  0  0
  190.1060  178.1630  144.8600 O   0  0  0  0  0  0  0  0  0  0  0  0
  1 17  2  0  0  0  0
  3 18  1  1  0  0  0
  3 17  1  0  0  0  0
  4  7  1  6  0  0  0
  4 14  1  0  0  0  0
  6  3  1  0  0  0  0
  6 19  1  0  0  0  0
  8 20  1  0  0  0  0
  8 21  2  0  0  0  0
  9 29  1  1  0  0  0
  9 14  1  0  0  0  0
  9  2  1  0  0  0  0
 10  7  1  0  0  0  0
 11  5  1  0  0  0  0
 12  2  1  0  0  0  0
 12  5  1  0  0  0  0
 13 19  2  0  0  0  0
 13 23  1  0  0  0  0
 14 22  1  6  0  0  0
 15 16  1  0  0  0  0
 15 20  2  0  0  0  0
 16  6  2  0  0  0  0
 17 10  1  0  0  0  0
 19  4  1  0  0  0  0
 20 13  1  0  0  0  0
 21 23  1  0  0  0  0
 22 11  2  0  0  0  0
 23 22  1  0  0  0  0
 25 24  2  0  0  0  0
 25  8  1  0  0  0  0
 26 25  1  0  0  0  0
 27 25  2  0  0  0  0
 28 29  1  0  0  0  0
M  END
>  <MODEL>
6

>  <REMARK>
 VINA RESULT:      -6.9      2.461      5.036
  Name = 
  2 active torsions:
  status: ('A' for Active; 'I' for Inactive)
    1  A    between atoms: S_4  and  C_10
    2  A    between atoms: C_11  and  O_28
                            x       y       z     vdW  Elec       q    Type
                         _______ _______ _______ _____ _____    ______ ____

>  <TORSDO>
F 2

$$$$
=
 OpenBabel11042416293D

 29 33  0  0  1  0  0  0  0  0999 V2000
  196.5930  176.5330  143.6000 O   0  0  0  0  0  0  0  0  0  0  0  0
  189.4650  176.5210  146.9200 C   0  0  0  0  0  2  0  0  0  0  0  0
  195.1130  174.7240  144.0560 C   0  0  1  0  0  3  0  0  0  0  0  0
  192.4250  176.4310  144.4230 C   0  0  2  0  0  3  0  0  0  0  0  0
  188.1670  177.5480  145.0120 C   0  0  0  0  0  2  0  0  0  0  0  0
  193.8610  174.5340  143.2540 C   0  0  0  0  0  0  0  0  0  0  0  0
  193.4770  176.7150  145.4900 C   0  0  0  0  0  2  0  0  0  0  0  0
  190.3630  174.0340  141.1110 C   0  0  0  0  0  0  0  0  0  0  0  0
  190.4950  175.7390  146.0980 C   0  0  1  0  0  3  0  0  0  0  0  0
  194.7330  177.1000  144.8710 N   0  0  0  0  0  2  0  0  0  0  0  0
  188.7050  176.8140  143.8240 C   0  0  0  0  0  3  0  0  0  0  0  0
  188.1090  176.6160  146.2190 C   0  0  0  0  0  2  0  0  0  0  0  0
  191.5840  174.9480  142.6520 C   0  0  0  0  0  0  0  0  0  0  0  0
  190.9470  176.6050  144.9020 C   0  0  2  0  0  3  0  0  0  0  0  0
  192.7830  173.2800  141.4160 C   0  0  0  0  0  3  0  0  0  0  0  0
  193.9030  173.5490  142.2300 C   0  0  0  0  0  3  0  0  0  0  0  0
  195.5260  176.1570  144.1500 C   0  0  0  0  0  0  0  0  0  0  0  0
  194.9840  174.1580  145.3110 F   0  0  0  0  0  0  0  0  0  0  0  0
  192.6450  175.2440  143.4950 C   0  0  0  0  0  0  0  0  0  0  0  0
  191.6350  174.0230  141.6620 C   0  0  0  0  0  0  0  0  0  0  0  0
  189.5980  174.9400  141.7750 N   0  0  0  0  0  0  0  0  0  0  0  0
  189.9710  176.3830  143.7560 C   0  0  0  0  0  0  0  0  0  0  0  0
  190.3700  175.4950  142.7050 N   0  0  0  0  0  0  0  0  0  0  0  0
  190.0390  171.5710  140.1460 O   0  0  0  0  0  0  0  0  0  0  0  0
  189.7810  173.0120  139.8080 S   0  0  0  0  0  0  0  0  0  0  0  0
  190.6270  173.4250  138.3020 C   0  0  0  0  0  1  0  0  0  0  0  0
  188.3070  173.2330  139.6130 O   0  0  0  0  0  0  0  0  0  0  0  0
  191.1930  175.8110  148.2010 C   0  0  0  0  0  1  0  0  0  0  0  0
  191.5550  175.3650  146.9280 O   0  0  0  0  0  0  0  0  0  0  0  0
  1 17  2  0  0  0  0
  3 17  1  0  0  0  0
  3 18  1  1  0  0  0
  4 14  1  0  0  0  0
  4  7  1  1  0  0  0
  5 12  1  0  0  0  0
  6 19  1  0  0  0  0
  6  3  1  0  0  0  0
  8 20  1  0  0  0  0
  8 21  2  0  0  0  0
  9  2  1  0  0  0  0
  9 29  1  1  0  0  0
 10  7  1  0  0  0  0
 11  5  1  0  0  0  0
 12  2  1  0  0  0  0
 13 23  1  0  0  0  0
 13 19  2  0  0  0  0
 14 22  1  6  0  0  0
 14  9  1  0  0  0  0
 15 20  2  0  0  0  0
 15 16  1  0  0  0  0
 16  6  2  0  0  0  0
 17 10  1  0  0  0  0
 19  4  1  0  0  0  0
 20 13  1  0  0  0  0
 21 23  1  0  0  0  0
 22 11  2  0  0  0  0
 23 22  1  0  0  0  0
 25 24  2  0  0  0  0
 25  8  1  0  0  0  0
 26 25  1  0  0  0  0
 27 25  2  0  0  0  0
 29 28  1  0  0  0  0
M  END
>  <MODEL>
7

>  <REMARK>
 VINA RESULT:      -6.7      3.182      4.256
  Name = 
  2 active torsions:
  status: ('A' for Active; 'I' for Inactive)
    1  A    between atoms: S_4  and  C_10
    2  A    between atoms: C_11  and  O_28
                            x       y       z     vdW  Elec       q    Type
                         _______ _______ _______ _____ _____    ______ ____

>  <TORSDO>
F 2

$$$$
=
 OpenBabel11042416293D

 29 33  0  0  1  0  0  0  0  0999 V2000
  189.8900  173.7670  138.5240 O   0  0  0  0  0  0  0  0  0  0  0  0
  193.5070  173.8870  145.5050 C   0  0  0  0  0  2  0  0  0  0  0  0
  189.1020  173.1150  140.6750 C   0  0  1  0  0  3  0  0  0  0  0  0
  191.2780  174.6760  142.4370 C   0  0  2  0  0  3  0  0  0  0  0  0
  193.4980  176.3850  145.8830 C   0  0  0  0  0  2  0  0  0  0  0  0
  188.7830  174.1410  141.7200 C   0  0  0  0  0  0  0  0  0  0  0  0
  191.8730  173.5620  141.5800 C   0  0  0  0  0  2  0  0  0  0  0  0
  187.9710  176.9440  144.6450 C   0  0  0  0  0  0  0  0  0  0  0  0
  192.1750  173.7670  144.7550 C   0  0  1  0  0  3  0  0  0  0  0  0
  191.5130  173.7500  140.1860 N   0  0  0  0  0  2  0  0  0  0  0  0
  192.1060  176.7660  145.4840 C   0  0  0  0  0  3  0  0  0  0  0  0
  193.4920  175.0100  146.5440 C   0  0  0  0  0  2  0  0  0  0  0  0
  189.2910  175.6920  143.4680 C   0  0  0  0  0  0  0  0  0  0  0  0
  192.0430  174.9510  143.7720 C   0  0  2  0  0  3  0  0  0  0  0  0
  186.9910  175.4110  142.8550 C   0  0  0  0  0  3  0  0  0  0  0  0
  187.4100  174.4650  141.8970 C   0  0  0  0  0  3  0  0  0  0  0  0
  190.1720  173.5640  139.7330 C   0  0  0  0  0  0  0  0  0  0  0  0
  189.4270  171.9030  141.2580 F   0  0  0  0  0  0  0  0  0  0  0  0
  189.7630  174.7580  142.5570 C   0  0  0  0  0  0  0  0  0  0  0  0
  187.9820  176.0140  143.6190 C   0  0  0  0  0  0  0  0  0  0  0  0
  189.2430  177.1470  145.0780 N   0  0  0  0  0  0  0  0  0  0  0  0
  191.4320  176.1260  144.5200 C   0  0  0  0  0  0  0  0  0  0  0  0
  190.0340  176.3790  144.3340 N   0  0  0  0  0  0  0  0  0  0  0  0
  185.4570  176.6970  145.4940 O   0  0  0  0  0  0  0  0  0  0  0  0
  186.5540  177.7110  145.3420 S   0  0  0  0  0  0  0  0  0  0  0  0
  186.0010  179.0230  144.2800 C   0  0  0  0  0  1  0  0  0  0  0  0
  186.9020  178.2890  146.6850 O   0  0  0  0  0  0  0  0  0  0  0  0
  193.1870  171.7970  144.6510 C   0  0  0  0  0  1  0  0  0  0  0  0
  192.1190  172.5240  144.1190 O   0  0  0  0  0  0  0  0  0  0  0  0
  1 17  2  0  0  0  0
  2 12  1  0  0  0  0
  3 18  1  1  0  0  0
  3  6  1  0  0  0  0
  4  7  1  1  0  0  0
  4 19  1  0  0  0  0
  4 14  1  0  0  0  0
  5 12  1  0  0  0  0
  6 16  2  0  0  0  0
  6 19  1  0  0  0  0
  8 21  2  0  0  0  0
  8 25  1  0  0  0  0
  9 29  1  6  0  0  0
  9  2  1  0  0  0  0
 10  7  1  0  0  0  0
 11  5  1  0  0  0  0
 13 20  1  0  0  0  0
 13 23  1  0  0  0  0
 14 22  1  1  0  0  0
 14  9  1  0  0  0  0
 15 20  2  0  0  0  0
 16 15  1  0  0  0  0
 17 10  1  0  0  0  0
 17  3  1  0  0  0  0
 19 13  2  0  0  0  0
 20  8  1  0  0  0  0
 22 11  2  0  0  0  0
 23 22  1  0  0  0  0
 23 21  1  0  0  0  0
 25 24  2  0  0  0  0
 25 27  2  0  0  0  0
 26 25  1  0  0  0  0
 29 28  1  0  0  0  0
M  END
>  <MODEL>
8

>  <REMARK>
 VINA RESULT:      -6.7      2.932      6.728
  Name = 
  2 active torsions:
  status: ('A' for Active; 'I' for Inactive)
    1  A    between atoms: S_4  and  C_10
    2  A    between atoms: C_11  and  O_28
                            x       y       z     vdW  Elec       q    Type
                         _______ _______ _______ _____ _____    ______ ____

>  <TORSDO>
F 2

$$$$
=
 OpenBabel11042416293D

 29 33  0  0  1  0  0  0  0  0999 V2000
  193.9470  176.2120  146.4810 O   0  0  0  0  0  0  0  0  0  0  0  0
  186.3550  177.8010  145.1940 C   0  0  0  0  0  2  0  0  0  0  0  0
  192.1000  174.7410  146.1680 C   0  0  1  0  0  3  0  0  0  0  0  0
  190.0870  176.8370  144.8160 C   0  0  2  0  0  3  0  0  0  0  0  0
  186.5470  178.6170  142.8110 C   0  0  0  0  0  2  0  0  0  0  0  0
  191.4700  174.5760  144.8180 C   0  0  0  0  0  0  0  0  0  0  0  0
  190.4340  177.1720  146.2640 C   0  0  0  0  0  2  0  0  0  0  0  0
  189.6620  174.1620  141.1250 C   0  0  0  0  0  0  0  0  0  0  0  0
  187.4640  176.7450  145.1610 C   0  0  1  0  0  3  0  0  0  0  0  0
  191.8730  177.2570  146.4320 N   0  0  0  0  0  2  0  0  0  0  0  0
  187.4630  177.6050  142.1960 C   0  0  0  0  0  3  0  0  0  0  0  0
  185.6470  177.9460  143.8450 C   0  0  0  0  0  2  0  0  0  0  0  0
  190.0290  175.1760  143.0060 C   0  0  0  0  0  0  0  0  0  0  0  0
  188.6640  177.3000  144.3630 C   0  0  2  0  0  3  0  0  0  0  0  0
  191.3050  173.1570  142.8010 C   0  0  0  0  0  3  0  0  0  0  0  0
  191.8380  173.4190  144.0790 C   0  0  0  0  0  3  0  0  0  0  0  0
  192.7000  176.0960  146.3630 C   0  0  0  0  0  0  0  0  0  0  0  0
  191.1970  174.4460  147.1730 F   0  0  0  0  0  0  0  0  0  0  0  0
  190.5050  175.4780  144.2730 C   0  0  0  0  0  0  0  0  0  0  0  0
  190.4000  174.0820  142.2950 C   0  0  0  0  0  0  0  0  0  0  0  0
  188.8810  175.2730  141.1670 N   0  0  0  0  0  0  0  0  0  0  0  0
  188.4360  177.0000  142.8880 C   0  0  0  0  0  0  0  0  0  0  0  0
  189.1310  175.8830  142.3210 N   0  0  0  0  0  0  0  0  0  0  0  0
  190.8710  173.2260  138.9420 O   0  0  0  0  0  0  0  0  0  0  0  0
  189.6640  173.0010  139.8080 S   0  0  0  0  0  0  0  0  0  0  0  0
  188.1940  173.2020  138.8330 C   0  0  0  0  0  1  0  0  0  0  0  0
  189.6910  171.6060  140.3660 O   0  0  0  0  0  0  0  0  0  0  0  0
  186.7580  176.8900  147.2570 C   0  0  0  0  0  1  0  0  0  0  0  0
  187.8000  176.3930  146.4710 O   0  0  0  0  0  0  0  0  0  0  0  0
  3 17  1  0  0  0  0
  3 18  1  1  0  0  0
  4  7  1  1  0  0  0
  5 12  1  0  0  0  0
  6  3  1  0  0  0  0
  7 10  1  0  0  0  0
  8 21  2  0  0  0  0
  8 20  1  0  0  0  0
  9  2  1  0  0  0  0
  9 29  1  1  0  0  0
 11  5  1  0  0  0  0
 11 22  2  0  0  0  0
 12  2  1  0  0  0  0
 13 19  2  0  0  0  0
 14 22  1  6  0  0  0
 14  4  1  0  0  0  0
 14  9  1  0  0  0  0
 15 16  1  0  0  0  0
 16  6  2  0  0  0  0
 17 10  1  0  0  0  0
 17  1  2  0  0  0  0
 19  4  1  0  0  0  0
 19  6  1  0  0  0  0
 20 15  2  0  0  0  0
 20 13  1  0  0  0  0
 21 23  1  0  0  0  0
 23 22  1  0  0  0  0
 23 13  1  0  0  0  0
 24 25  2  0  0  0  0
 25 27  2  0  0  0  0
 25  8  1  0  0  0  0
 26 25  1  0  0  0  0
 29 28  1  0  0  0  0
M  END
>  <MODEL>
9

>  <REMARK>
 VINA RESULT:      -6.7      1.699      1.903
  Name = 
  2 active torsions:
  status: ('A' for Active; 'I' for Inactive)
    1  A    between atoms: S_4  and  C_10
    2  A    between atoms: C_11  and  O_28
                            x       y       z     vdW  Elec       q    Type
                         _______ _______ _______ _____ _____    ______ ____

>  <TORSDO>
F 2

$$$$
