=
 OpenBabel11042416303D

 29 32  0  0  1  0  0  0  0  0999 V2000
  184.1650  178.3650  143.0100 C   0  0  0  0  0  3  0  0  0  0  0  0
  191.0980  175.1030  146.5280 N   0  0  0  0  0  2  0  0  0  0  0  0
  188.6610  175.3480  146.8270 C   0  0  0  0  0  2  0  0  0  0  0  0
  187.4250  176.8630  143.8110 C   0  0  0  0  0  0  0  0  0  0  0  0
  189.3550  175.8170  144.4440 C   0  0  1  0  0  3  0  0  0  0  0  0
  185.2930  177.8780  140.9750 C   0  0  0  0  0  3  0  0  0  0  0  0
  186.3660  177.3700  143.0680 C   0  0  0  0  0  0  0  0  0  0  0  0
  191.4530  176.3300  145.8160 C   0  0  2  0  0  3  0  0  0  0  0  0
  188.5920  176.2970  143.3340 O   0  0  0  0  0  0  0  0  0  0  0  0
  185.2180  177.8740  145.1800 C   0  0  0  0  0  0  0  0  0  0  0  0
  184.2150  178.3580  141.6510 N   0  0  0  0  0  0  0  0  0  0  0  0
  186.3330  177.3870  145.9110 C   0  0  0  0  0  0  0  0  0  0  0  0
  186.3920  177.3730  141.6710 C   0  0  0  0  0  3  0  0  0  0  0  0
  185.2400  177.8700  143.7620 C   0  0  0  0  0  0  0  0  0  0  0  0
  190.7500  176.4410  144.4540 C   0  0  0  0  0  2  0  0  0  0  0  0
  183.8160  178.5340  146.0330 Cl  0  0  0  0  0  0  0  0  0  0  0  0
  188.5940  176.1950  145.6420 N   0  0  0  0  0  0  0  0  0  0  0  0
  187.4110  176.8430  145.1760 C   0  0  0  0  0  0  0  0  0  0  0  0
  190.0420  175.4450  147.4760 C   0  0  0  0  0  2  0  0  0  0  0  0
  186.3390  177.5310  147.3810 C   0  0  0  0  0  3  0  0  0  0  0  0
  186.7550  178.6220  148.0110 C   0  0  0  0  0  2  0  0  0  0  0  0
  192.9650  176.4560  145.6700 C   0  0  0  0  0  2  0  0  0  0  0  0
  193.6860  175.1780  146.0780 C   0  0  0  0  0  2  0  0  0  0  0  0
  195.1550  175.2690  145.7130 C   0  0  0  0  0  2  0  0  0  0  0  0
  195.3910  176.4270  144.9680 O   0  0  0  0  0  0  0  0  0  0  0  0
  195.3000  175.4020  142.3880 O   0  0  0  0  0  0  0  0  0  0  0  0
  196.3150  175.9280  143.6360 P   0  0  0  0  0  0  0  0  0  0  0  0
  197.1690  177.0750  143.1420 O   0  0  0  0  0  1  0  0  0  0  0  0
  197.3200  174.6530  144.1050 O   0  0  0  0  0  1  0  0  0  0  0  0
  1 14  1  0  0  0  0
  2 19  1  0  0  0  0
  3 19  1  0  0  0  0
  4 18  1  0  0  0  0
  5 15  1  1  0  0  0
  5 17  1  0  0  0  0
  6 11  1  0  0  0  0
  6 13  2  0  0  0  0
  7 14  1  0  0  0  0
  7  4  2  0  0  0  0
  8 22  1  6  0  0  0
  8  2  1  0  0  0  0
  9  4  1  0  0  0  0
  9  5  1  0  0  0  0
 10 12  1  0  0  0  0
 10 16  1  0  0  0  0
 11  1  2  0  0  0  0
 12 20  1  0  0  0  0
 13  7  1  0  0  0  0
 14 10  2  0  0  0  0
 15  8  1  0  0  0  0
 17  3  1  0  0  0  0
 18 17  1  0  0  0  0
 18 12  2  0  0  0  0
 20 21  2  0  0  0  0
 22 23  1  0  0  0  0
 24 23  1  0  0  0  0
 25 24  1  0  0  0  0
 26 27  2  0  0  0  0
 27 29  1  0  0  0  0
 27 25  1  0  0  0  0
 28 27  1  0  0  0  0
M  END
>  <MODEL>
1

>  <REMARK>
 VINA RESULT:      -7.8      0.000      0.000
  Name = 
  6 active torsions:
  status: ('A' for Active; 'I' for Inactive)
    1  A    between atoms: O_2  and  P_16
    2  A    between atoms: O_2  and  C_26
    3  A    between atoms: C_9  and  C_25
    4  A    between atoms: C_13  and  C_21
    5  A    between atoms: C_22  and  C_25
    6  A    between atoms: C_22  and  C_26
                            x       y       z     vdW  Elec       q    Type
                         _______ _______ _______ _____ _____    ______ ____

>  <TORSDO>
F 6

$$$$
=
 OpenBabel11042416303D

 29 32  0  0  1  0  0  0  0  0999 V2000
  184.5230  178.3060  145.1180 C   0  0  0  0  0  3  0  0  0  0  0  0
  192.8040  176.7350  144.9400 N   0  0  0  0  0  2  0  0  0  0  0  0
  190.9840  177.8690  143.7200 C   0  0  0  0  0  2  0  0  0  0  0  0
  188.0710  177.6300  145.8120 C   0  0  0  0  0  0  0  0  0  0  0  0
  190.3180  177.3420  146.1000 C   0  0  1  0  0  3  0  0  0  0  0  0
  184.8420  178.2850  147.4740 C   0  0  0  0  0  3  0  0  0  0  0  0
  186.7220  177.8840  146.0270 C   0  0  0  0  0  0  0  0  0  0  0  0
  192.1140  175.6020  145.5550 C   0  0  2  0  0  3  0  0  0  0  0  0
  189.0620  177.4900  146.7650 O   0  0  0  0  0  0  0  0  0  0  0  0
  186.4080  177.8950  143.5910 C   0  0  0  0  0  0  0  0  0  0  0  0
  184.0400  178.4250  146.3840 N   0  0  0  0  0  0  0  0  0  0  0  0
  187.7830  177.5940  143.4050 C   0  0  0  0  0  0  0  0  0  0  0  0
  186.2010  178.0130  147.3160 C   0  0  0  0  0  3  0  0  0  0  0  0
  185.8800  178.0330  144.9000 C   0  0  0  0  0  0  0  0  0  0  0  0
  191.0080  176.0460  146.5250 C   0  0  0  0  0  2  0  0  0  0  0  0
  185.3370  178.0500  142.1920 Cl  0  0  0  0  0  0  0  0  0  0  0  0
  190.0090  177.3340  144.6640 N   0  0  0  0  0  0  0  0  0  0  0  0
  188.5970  177.5130  144.5580 C   0  0  0  0  0  0  0  0  0  0  0  0
  192.2010  176.9470  143.6280 C   0  0  0  0  0  2  0  0  0  0  0  0
  188.2750  177.3190  142.0390 C   0  0  0  0  0  3  0  0  0  0  0  0
  188.2040  176.1290  141.4580 C   0  0  0  0  0  2  0  0  0  0  0  0
  193.1050  174.6660  146.2360 C   0  0  0  0  0  2  0  0  0  0  0  0
  193.4380  173.4590  145.3690 C   0  0  0  0  0  2  0  0  0  0  0  0
  192.4190  173.3210  144.2540 C   0  0  0  0  0  2  0  0  0  0  0  0
  191.8330  172.0540  144.2970 O   0  0  0  0  0  0  0  0  0  0  0  0
  189.7020  171.3780  142.6470 O   0  0  0  0  0  0  0  0  0  0  0  0
  190.1860  172.3050  143.9780 P   0  0  0  0  0  0  0  0  0  0  0  0
  189.3610  171.9200  145.1870 O   0  0  0  0  0  1  0  0  0  0  0  0
  189.9320  173.9400  143.6330 O   0  0  0  0  0  1  0  0  0  0  0  0
  1 11  1  0  0  0  0
  2  8  1  0  0  0  0
  3 17  1  0  0  0  0
  4  7  1  0  0  0  0
  4  9  1  0  0  0  0
  5 15  1  1  0  0  0
  5  9  1  0  0  0  0
  7 13  2  0  0  0  0
  8 22  1  1  0  0  0
  8 15  1  0  0  0  0
 10 14  1  0  0  0  0
 11  6  2  0  0  0  0
 12 10  2  0  0  0  0
 12 18  1  0  0  0  0
 13  6  1  0  0  0  0
 14  1  2  0  0  0  0
 14  7  1  0  0  0  0
 16 10  1  0  0  0  0
 17  5  1  0  0  0  0
 18 17  1  0  0  0  0
 18  4  2  0  0  0  0
 19  3  1  0  0  0  0
 19  2  1  0  0  0  0
 20 12  1  0  0  0  0
 21 20  2  0  0  0  0
 23 22  1  0  0  0  0
 24 25  1  0  0  0  0
 24 23  1  0  0  0  0
 26 27  2  0  0  0  0
 27 25  1  0  0  0  0
 27 28  1  0  0  0  0
 29 27  1  0  0  0  0
M  END
>  <MODEL>
2

>  <REMARK>
 VINA RESULT:      -7.6      3.251      4.593
  Name = 
  6 active torsions:
  status: ('A' for Active; 'I' for Inactive)
    1  A    between atoms: O_2  and  P_16
    2  A    between atoms: O_2  and  C_26
    3  A    between atoms: C_9  and  C_25
    4  A    between atoms: C_13  and  C_21
    5  A    between atoms: C_22  and  C_25
    6  A    between atoms: C_22  and  C_26
                            x       y       z     vdW  Elec       q    Type
                         _______ _______ _______ _____ _____    ______ ____

>  <TORSDO>
F 6

$$$$
=
 OpenBabel11042416303D

 29 32  0  0  1  0  0  0  0  0999 V2000
  184.4500  178.3440  144.9570 C   0  0  0  0  0  3  0  0  0  0  0  0
  192.6990  176.6780  144.4520 N   0  0  0  0  0  2  0  0  0  0  0  0
  190.8190  177.7250  143.2440 C   0  0  0  0  0  2  0  0  0  0  0  0
  188.0270  177.6910  145.5070 C   0  0  0  0  0  0  0  0  0  0  0  0
  190.2850  177.4050  145.6930 C   0  0  1  0  0  3  0  0  0  0  0  0
  184.9000  178.5160  147.2850 C   0  0  0  0  0  3  0  0  0  0  0  0
  186.6940  177.9760  145.7750 C   0  0  0  0  0  0  0  0  0  0  0  0
  192.0380  175.6080  145.1970 C   0  0  2  0  0  3  0  0  0  0  0  0
  189.0700  177.6210  146.4120 O   0  0  0  0  0  0  0  0  0  0  0  0
  186.2440  177.7880  143.3670 C   0  0  0  0  0  0  0  0  0  0  0  0
  184.0390  178.5730  146.2340 N   0  0  0  0  0  0  0  0  0  0  0  0
  187.6050  177.4580  143.1310 C   0  0  0  0  0  0  0  0  0  0  0  0
  186.2470  178.2170  147.0760 C   0  0  0  0  0  3  0  0  0  0  0  0
  185.7910  178.0400  144.6880 C   0  0  0  0  0  0  0  0  0  0  0  0
  190.9910  176.1420  146.1860 C   0  0  0  0  0  2  0  0  0  0  0  0
  185.0970  177.8370  142.0220 Cl  0  0  0  0  0  0  0  0  0  0  0  0
  189.8970  177.2810  144.2820 N   0  0  0  0  0  0  0  0  0  0  0  0
  188.4820  177.4650  144.2400 C   0  0  0  0  0  0  0  0  0  0  0  0
  192.0240  176.7870  143.1620 C   0  0  0  0  0  2  0  0  0  0  0  0
  188.0180  177.0660  141.7680 C   0  0  0  0  0  3  0  0  0  0  0  0
  188.1500  175.8060  141.3740 C   0  0  0  0  0  2  0  0  0  0  0  0
  193.0610  174.7210  145.8980 C   0  0  0  0  0  2  0  0  0  0  0  0
  194.3360  175.4810  146.2380 C   0  0  0  0  0  2  0  0  0  0  0  0
  195.5450  174.7380  145.7020 C   0  0  0  0  0  2  0  0  0  0  0  0
  195.3430  174.4020  144.3620 O   0  0  0  0  0  0  0  0  0  0  0  0
  196.3330  176.9220  143.7400 O   0  0  0  0  0  1  0  0  0  0  0  0
  196.5240  175.2580  143.4970 P   0  0  0  0  0  0  0  0  0  0  0  0
  197.9040  174.8360  143.9520 O   0  0  0  0  0  1  0  0  0  0  0  0
  196.3580  174.9180  141.8490 O   0  0  0  0  0  0  0  0  0  0  0  0
  1 11  1  0  0  0  0
  2  8  1  0  0  0  0
  3 17  1  0  0  0  0
  4  7  1  0  0  0  0
  4  9  1  0  0  0  0
  5 15  1  1  0  0  0
  5  9  1  0  0  0  0
  7 13  2  0  0  0  0
  8 22  1  1  0  0  0
  8 15  1  0  0  0  0
 10 14  1  0  0  0  0
 11  6  2  0  0  0  0
 12 10  2  0  0  0  0
 12 18  1  0  0  0  0
 13  6  1  0  0  0  0
 14  1  2  0  0  0  0
 14  7  1  0  0  0  0
 16 10  1  0  0  0  0
 17  5  1  0  0  0  0
 18 17  1  0  0  0  0
 18  4  2  0  0  0  0
 19  3  1  0  0  0  0
 19  2  1  0  0  0  0
 20 12  1  0  0  0  0
 21 20  2  0  0  0  0
 22 23  1  0  0  0  0
 24 23  1  0  0  0  0
 25 24  1  0  0  0  0
 27 26  1  0  0  0  0
 27 28  1  0  0  0  0
 27 25  1  0  0  0  0
 29 27  2  0  0  0  0
M  END
>  <MODEL>
3

>  <REMARK>
 VINA RESULT:      -7.5      1.945      3.423
  Name = 
  6 active torsions:
  status: ('A' for Active; 'I' for Inactive)
    1  A    between atoms: O_2  and  P_16
    2  A    between atoms: O_2  and  C_26
    3  A    between atoms: C_9  and  C_25
    4  A    between atoms: C_13  and  C_21
    5  A    between atoms: C_22  and  C_25
    6  A    between atoms: C_22  and  C_26
                            x       y       z     vdW  Elec       q    Type
                         _______ _______ _______ _____ _____    ______ ____

>  <TORSDO>
F 6

$$$$
=
 OpenBabel11042416303D

 29 32  0  0  1  0  0  0  0  0999 V2000
  184.9010  178.2550  142.5330 C   0  0  0  0  0  3  0  0  0  0  0  0
  191.4150  175.0510  146.8210 N   0  0  0  0  0  2  0  0  0  0  0  0
  188.9540  175.2360  146.8160 C   0  0  0  0  0  2  0  0  0  0  0  0
  188.0700  176.8020  143.7040 C   0  0  0  0  0  0  0  0  0  0  0  0
  189.9300  175.7820  144.5500 C   0  0  1  0  0  3  0  0  0  0  0  0
  186.2870  177.8450  140.6460 C   0  0  0  0  0  3  0  0  0  0  0  0
  187.1010  177.3050  142.8450 C   0  0  0  0  0  0  0  0  0  0  0  0
  191.8260  176.3030  146.1880 C   0  0  2  0  0  3  0  0  0  0  0  0
  189.3010  176.2740  143.3650 O   0  0  0  0  0  0  0  0  0  0  0  0
  185.6840  177.7300  144.8060 C   0  0  0  0  0  0  0  0  0  0  0  0
  185.1210  178.2840  141.1910 N   0  0  0  0  0  0  0  0  0  0  0  0
  186.7100  177.2480  145.6610 C   0  0  0  0  0  0  0  0  0  0  0  0
  187.3010  177.3450  141.4630 C   0  0  0  0  0  3  0  0  0  0  0  0
  185.8840  177.7630  143.4020 C   0  0  0  0  0  0  0  0  0  0  0  0
  191.2970  176.4350  144.7510 C   0  0  0  0  0  2  0  0  0  0  0  0
  184.1710  178.3370  145.4910 Cl  0  0  0  0  0  0  0  0  0  0  0  0
  189.0160  176.1120  145.6520 N   0  0  0  0  0  0  0  0  0  0  0  0
  187.8850  176.7460  145.0560 C   0  0  0  0  0  0  0  0  0  0  0  0
  190.2400  175.3460  147.6360 C   0  0  0  0  0  2  0  0  0  0  0  0
  186.5290  177.3540  147.1230 C   0  0  0  0  0  3  0  0  0  0  0  0
  186.7810  178.4560  147.8170 C   0  0  0  0  0  2  0  0  0  0  0  0
  193.3410  176.4660  146.2370 C   0  0  0  0  0  2  0  0  0  0  0  0
  194.0640  175.1440  146.0160 C   0  0  0  0  0  2  0  0  0  0  0  0
  194.9080  175.2150  144.7580 C   0  0  0  0  0  2  0  0  0  0  0  0
  194.8990  173.9790  144.1070 O   0  0  0  0  0  0  0  0  0  0  0  0
  196.1610  172.3000  145.9250 O   0  0  0  0  0  1  0  0  0  0  0  0
  196.3630  173.2340  144.5280 P   0  0  0  0  0  0  0  0  0  0  0  0
  196.8370  172.3500  143.3940 O   0  0  0  0  0  0  0  0  0  0  0  0
  197.5250  174.4250  144.8230 O   0  0  0  0  0  1  0  0  0  0  0  0
  1 14  1  0  0  0  0
  2 19  1  0  0  0  0
  3 19  1  0  0  0  0
  4 18  1  0  0  0  0
  5 15  1  1  0  0  0
  5 17  1  0  0  0  0
  6 11  1  0  0  0  0
  6 13  2  0  0  0  0
  7 14  1  0  0  0  0
  7  4  2  0  0  0  0
  8 22  1  6  0  0  0
  8  2  1  0  0  0  0
  9  4  1  0  0  0  0
  9  5  1  0  0  0  0
 10 16  1  0  0  0  0
 10 12  1  0  0  0  0
 11  1  2  0  0  0  0
 12 20  1  0  0  0  0
 13  7  1  0  0  0  0
 14 10  2  0  0  0  0
 15  8  1  0  0  0  0
 17  3  1  0  0  0  0
 18 17  1  0  0  0  0
 18 12  2  0  0  0  0
 20 21  2  0  0  0  0
 23 22  1  0  0  0  0
 24 23  1  0  0  0  0
 25 27  1  0  0  0  0
 25 24  1  0  0  0  0
 27 29  1  0  0  0  0
 27 26  1  0  0  0  0
 28 27  2  0  0  0  0
M  END
>  <MODEL>
4

>  <REMARK>
 VINA RESULT:      -7.1      1.192      1.571
  Name = 
  6 active torsions:
  status: ('A' for Active; 'I' for Inactive)
    1  A    between atoms: O_2  and  P_16
    2  A    between atoms: O_2  and  C_26
    3  A    between atoms: C_9  and  C_25
    4  A    between atoms: C_13  and  C_21
    5  A    between atoms: C_22  and  C_25
    6  A    between atoms: C_22  and  C_26
                            x       y       z     vdW  Elec       q    Type
                         _______ _______ _______ _____ _____    ______ ____

>  <TORSDO>
F 6

$$$$
=
 OpenBabel11042416303D

 29 32  0  0  1  0  0  0  0  0999 V2000
  184.4450  178.5280  144.8820 C   0  0  0  0  0  3  0  0  0  0  0  0
  192.6390  176.5560  144.6700 N   0  0  0  0  0  2  0  0  0  0  0  0
  190.8750  177.7930  143.4680 C   0  0  0  0  0  2  0  0  0  0  0  0
  187.9560  177.6710  145.5620 C   0  0  0  0  0  0  0  0  0  0  0  0
  190.1870  177.2690  145.8420 C   0  0  1  0  0  3  0  0  0  0  0  0
  184.7640  178.4620  147.2370 C   0  0  0  0  0  3  0  0  0  0  0  0
  186.6210  177.9880  145.7820 C   0  0  0  0  0  0  0  0  0  0  0  0
  191.8950  175.4500  145.2720 C   0  0  2  0  0  3  0  0  0  0  0  0
  188.9400  177.4700  146.5110 O   0  0  0  0  0  0  0  0  0  0  0  0
  186.3060  178.0450  143.3470 C   0  0  0  0  0  0  0  0  0  0  0  0
  183.9690  178.6550  146.1510 N   0  0  0  0  0  0  0  0  0  0  0  0
  187.6640  177.6790  143.1550 C   0  0  0  0  0  0  0  0  0  0  0  0
  186.1090  178.1250  147.0740 C   0  0  0  0  0  3  0  0  0  0  0  0
  185.7870  178.1920  144.6580 C   0  0  0  0  0  0  0  0  0  0  0  0
  190.8130  175.9360  146.2490 C   0  0  0  0  0  2  0  0  0  0  0  0
  185.2420  178.2700  141.9520 Cl  0  0  0  0  0  0  0  0  0  0  0  0
  189.8760  177.2940  144.4060 N   0  0  0  0  0  0  0  0  0  0  0  0
  188.4750  177.5440  144.3050 C   0  0  0  0  0  0  0  0  0  0  0  0
  192.0450  176.8140  143.3620 C   0  0  0  0  0  2  0  0  0  0  0  0
  188.1400  177.3980  141.7850 C   0  0  0  0  0  3  0  0  0  0  0  0
  188.1460  176.1880  141.2420 C   0  0  0  0  0  2  0  0  0  0  0  0
  192.8390  174.4580  145.9390 C   0  0  0  0  0  2  0  0  0  0  0  0
  193.0960  173.2380  145.0640 C   0  0  0  0  0  2  0  0  0  0  0  0
  194.5270  173.2470  144.5630 C   0  0  0  0  0  2  0  0  0  0  0  0
  195.1410  172.0250  144.8470 O   0  0  0  0  0  0  0  0  0  0  0  0
  196.9090  173.3840  146.5040 O   0  0  0  0  0  1  0  0  0  0  0  0
  196.7700  172.3920  145.1390 P   0  0  0  0  0  0  0  0  0  0  0  0
  197.5550  171.1180  145.3590 O   0  0  0  0  0  1  0  0  0  0  0  0
  197.4020  173.2060  143.7990 O   0  0  0  0  0  0  0  0  0  0  0  0
  1 11  1  0  0  0  0
  2  8  1  0  0  0  0
  3 17  1  0  0  0  0
  4  7  1  0  0  0  0
  4  9  1  0  0  0  0
  5 15  1  1  0  0  0
  5  9  1  0  0  0  0
  7 13  2  0  0  0  0
  8 22  1  1  0  0  0
  8 15  1  0  0  0  0
 10 14  1  0  0  0  0
 11  6  2  0  0  0  0
 12 10  2  0  0  0  0
 12 18  1  0  0  0  0
 13  6  1  0  0  0  0
 14  1  2  0  0  0  0
 14  7  1  0  0  0  0
 16 10  1  0  0  0  0
 17  5  1  0  0  0  0
 18 17  1  0  0  0  0
 18  4  2  0  0  0  0
 19  3  1  0  0  0  0
 19  2  1  0  0  0  0
 20 12  1  0  0  0  0
 21 20  2  0  0  0  0
 23 22  1  0  0  0  0
 24 25  1  0  0  0  0
 24 23  1  0  0  0  0
 25 27  1  0  0  0  0
 27 28  1  0  0  0  0
 27 26  1  0  0  0  0
 29 27  2  0  0  0  0
M  END
>  <MODEL>
5

>  <REMARK>
 VINA RESULT:      -7.1      2.391      3.825
  Name = 
  6 active torsions:
  status: ('A' for Active; 'I' for Inactive)
    1  A    between atoms: O_2  and  P_16
    2  A    between atoms: O_2  and  C_26
    3  A    between atoms: C_9  and  C_25
    4  A    between atoms: C_13  and  C_21
    5  A    between atoms: C_22  and  C_25
    6  A    between atoms: C_22  and  C_26
                            x       y       z     vdW  Elec       q    Type
                         _______ _______ _______ _____ _____    ______ ____

>  <TORSDO>
F 6

$$$$
=
 OpenBabel11042416303D

 29 32  0  0  1  0  0  0  0  0999 V2000
  184.8180  178.4530  144.2480 C   0  0  0  0  0  3  0  0  0  0  0  0
  191.7750  173.6960  144.0330 N   0  0  0  0  0  2  0  0  0  0  0  0
  189.8790  174.3570  145.4680 C   0  0  0  0  0  2  0  0  0  0  0  0
  187.6890  176.3180  143.3990 C   0  0  0  0  0  0  0  0  0  0  0  0
  189.4330  174.8880  143.0380 C   0  0  1  0  0  3  0  0  0  0  0  0
  184.7180  177.9390  141.9290 C   0  0  0  0  0  3  0  0  0  0  0  0
  186.5310  177.0700  143.2510 C   0  0  0  0  0  0  0  0  0  0  0  0
  191.9860  174.8910  143.2180 C   0  0  2  0  0  3  0  0  0  0  0  0
  188.3480  175.5890  142.4270 O   0  0  0  0  0  0  0  0  0  0  0  0
  186.6530  177.5990  145.6470 C   0  0  0  0  0  0  0  0  0  0  0  0
  184.2120  178.5500  143.0330 N   0  0  0  0  0  0  0  0  0  0  0  0
  187.8580  176.8570  145.7570 C   0  0  0  0  0  0  0  0  0  0  0  0
  185.8880  177.1840  142.0170 C   0  0  0  0  0  3  0  0  0  0  0  0
  185.9960  177.7090  144.3950 C   0  0  0  0  0  0  0  0  0  0  0  0
  190.7580  175.2420  142.3640 C   0  0  0  0  0  2  0  0  0  0  0  0
  185.9910  178.4310  147.0600 Cl  0  0  0  0  0  0  0  0  0  0  0  0
  189.4280  175.2970  144.4490 N   0  0  0  0  0  0  0  0  0  0  0  0
  188.3230  176.1880  144.6020 C   0  0  0  0  0  0  0  0  0  0  0  0
  191.3910  174.1450  145.3670 C   0  0  0  0  0  2  0  0  0  0  0  0
  188.5930  176.8750  147.0390 C   0  0  0  0  0  3  0  0  0  0  0  0
  189.6770  177.6070  147.2550 C   0  0  0  0  0  2  0  0  0  0  0  0
  193.2360  174.7500  142.3590 C   0  0  0  0  0  2  0  0  0  0  0  0
  194.1230  175.9860  142.4350 C   0  0  0  0  0  2  0  0  0  0  0  0
  194.8410  176.0310  143.7710 C   0  0  0  0  0  2  0  0  0  0  0  0
  195.7940  175.0120  143.8350 O   0  0  0  0  0  0  0  0  0  0  0  0
  194.9320  175.4720  146.4350 O   0  0  0  0  0  1  0  0  0  0  0  0
  195.6470  174.3500  145.3890 P   0  0  0  0  0  0  0  0  0  0  0  0
  194.8000  173.0970  145.3390 O   0  0  0  0  0  0  0  0  0  0  0  0
  197.1840  173.9540  145.9700 O   0  0  0  0  0  1  0  0  0  0  0  0
  1 14  1  0  0  0  0
  2 19  1  0  0  0  0
  4 18  1  0  0  0  0
  5 15  1  6  0  0  0
  5 17  1  0  0  0  0
  6 13  2  0  0  0  0
  6 11  1  0  0  0  0
  7  4  2  0  0  0  0
  7 14  1  0  0  0  0
  8 22  1  6  0  0  0
  8  2  1  0  0  0  0
  9  5  1  0  0  0  0
  9  4  1  0  0  0  0
 10 12  1  0  0  0  0
 10 16  1  0  0  0  0
 11  1  2  0  0  0  0
 12 20  1  0  0  0  0
 13  7  1  0  0  0  0
 14 10  2  0  0  0  0
 15  8  1  0  0  0  0
 17 18  1  0  0  0  0
 17  3  1  0  0  0  0
 18 12  2  0  0  0  0
 19  3  1  0  0  0  0
 20 21  2  0  0  0  0
 22 23  1  0  0  0  0
 23 24  1  0  0  0  0
 24 25  1  0  0  0  0
 25 27  1  0  0  0  0
 27 29  1  0  0  0  0
 27 26  1  0  0  0  0
 28 27  2  0  0  0  0
M  END
>  <MODEL>
6

>  <REMARK>
 VINA RESULT:      -6.7      1.970      2.401
  Name = 
  6 active torsions:
  status: ('A' for Active; 'I' for Inactive)
    1  A    between atoms: O_2  and  P_16
    2  A    between atoms: O_2  and  C_26
    3  A    between atoms: C_9  and  C_25
    4  A    between atoms: C_13  and  C_21
    5  A    between atoms: C_22  and  C_25
    6  A    between atoms: C_22  and  C_26
                            x       y       z     vdW  Elec       q    Type
                         _______ _______ _______ _____ _____    ______ ____

>  <TORSDO>
F 6

$$$$
=
 OpenBabel11042416303D

 29 32  0  0  1  0  0  0  0  0999 V2000
  194.9340  174.4600  144.8040 C   0  0  0  0  0  3  0  0  0  0  0  0
  186.8980  175.9860  142.7640 N   0  0  0  0  0  2  0  0  0  0  0  0
  188.6110  174.2130  142.8440 C   0  0  0  0  0  2  0  0  0  0  0  0
  191.4690  175.6490  144.4840 C   0  0  0  0  0  0  0  0  0  0  0  0
  189.2620  176.1960  144.2670 C   0  0  1  0  0  3  0  0  0  0  0  0
  194.5510  176.1240  146.4570 C   0  0  0  0  0  3  0  0  0  0  0  0
  192.7720  175.5300  144.9490 C   0  0  0  0  0  0  0  0  0  0  0  0
  187.6950  177.1830  142.5010 C   0  0  2  0  0  3  0  0  0  0  0  0
  190.4720  176.4710  144.9760 O   0  0  0  0  0  0  0  0  0  0  0  0
  193.1550  173.8170  143.2300 C   0  0  0  0  0  0  0  0  0  0  0  0
  195.3630  175.2200  145.8480 N   0  0  0  0  0  0  0  0  0  0  0  0
  191.8300  173.9910  142.7510 C   0  0  0  0  0  0  0  0  0  0  0  0
  193.2370  176.2970  146.0200 C   0  0  0  0  0  3  0  0  0  0  0  0
  193.6240  174.5900  144.3230 C   0  0  0  0  0  0  0  0  0  0  0  0
  188.7130  177.4660  143.6170 C   0  0  0  0  0  2  0  0  0  0  0  0
  194.2420  172.6710  142.4350 Cl  0  0  0  0  0  0  0  0  0  0  0  0
  189.6120  175.1890  143.2560 N   0  0  0  0  0  0  0  0  0  0  0  0
  190.9970  174.8980  143.4450 C   0  0  0  0  0  0  0  0  0  0  0  0
  187.5110  174.8880  142.0230 C   0  0  0  0  0  2  0  0  0  0  0  0
  191.4130  173.2750  141.5280 C   0  0  0  0  0  3  0  0  0  0  0  0
  191.4460  173.8110  140.3150 C   0  0  0  0  0  2  0  0  0  0  0  0
  186.7990  178.3900  142.2510 C   0  0  0  0  0  2  0  0  0  0  0  0
  185.4460  178.2470  142.9350 C   0  0  0  0  0  2  0  0  0  0  0  0
  185.2140  179.4090  143.8830 C   0  0  0  0  0  2  0  0  0  0  0  0
  186.1930  179.4130  144.8800 O   0  0  0  0  0  0  0  0  0  0  0  0
  186.0090  177.0080  146.2570 O   0  0  0  0  0  1  0  0  0  0  0  0
  185.4940  178.6190  146.2050 P   0  0  0  0  0  0  0  0  0  0  0  0
  185.8850  179.3160  147.4900 O   0  0  0  0  0  1  0  0  0  0  0  0
  183.8110  178.6560  146.0470 O   0  0  0  0  0  0  0  0  0  0  0  0
  1 11  1  0  0  0  0
  3 17  1  0  0  0  0
  4  7  1  0  0  0  0
  4  9  1  0  0  0  0
  5 15  1  6  0  0  0
  5  9  1  0  0  0  0
  7 13  2  0  0  0  0
  8 22  1  1  0  0  0
  8  2  1  0  0  0  0
  8 15  1  0  0  0  0
 10 14  1  0  0  0  0
 11  6  2  0  0  0  0
 12 10  2  0  0  0  0
 12 18  1  0  0  0  0
 13  6  1  0  0  0  0
 14  1  2  0  0  0  0
 14  7  1  0  0  0  0
 16 10  1  0  0  0  0
 17 18  1  0  0  0  0
 17  5  1  0  0  0  0
 18  4  2  0  0  0  0
 19  2  1  0  0  0  0
 19  3  1  0  0  0  0
 20 12  1  0  0  0  0
 21 20  2  0  0  0  0
 22 23  1  0  0  0  0
 23 24  1  0  0  0  0
 24 25  1  0  0  0  0
 25 27  1  0  0  0  0
 27 26  1  0  0  0  0
 27 28  1  0  0  0  0
 29 27  2  0  0  0  0
M  END
>  <MODEL>
7

>  <REMARK>
 VINA RESULT:      -6.6      4.452      8.683
  Name = 
  6 active torsions:
  status: ('A' for Active; 'I' for Inactive)
    1  A    between atoms: O_2  and  P_16
    2  A    between atoms: O_2  and  C_26
    3  A    between atoms: C_9  and  C_25
    4  A    between atoms: C_13  and  C_21
    5  A    between atoms: C_22  and  C_25
    6  A    between atoms: C_22  and  C_26
                            x       y       z     vdW  Elec       q    Type
                         _______ _______ _______ _____ _____    ______ ____

>  <TORSDO>
F 6

$$$$
=
 OpenBabel11042416303D

 29 32  0  0  1  0  0  0  0  0999 V2000
  195.6500  171.4240  145.1680 C   0  0  0  0  0  3  0  0  0  0  0  0
  189.3290  176.9730  144.5900 N   0  0  0  0  0  2  0  0  0  0  0  0
  191.7520  176.6950  144.2140 C   0  0  0  0  0  2  0  0  0  0  0  0
  192.4630  173.2160  144.7740 C   0  0  0  0  0  0  0  0  0  0  0  0
  190.5830  174.4640  144.4210 C   0  0  1  0  0  3  0  0  0  0  0  0
  193.9530  169.8420  144.6500 C   0  0  0  0  0  3  0  0  0  0  0  0
  193.3760  172.1710  144.8330 C   0  0  0  0  0  0  0  0  0  0  0  0
  189.0800  176.0780  145.7190 C   0  0  2  0  0  3  0  0  0  0  0  0
  191.1170  173.1400  144.4690 O   0  0  0  0  0  0  0  0  0  0  0  0
  195.1170  173.8170  145.3760 C   0  0  0  0  0  0  0  0  0  0  0  0
  195.2480  170.1460  144.9320 N   0  0  0  0  0  0  0  0  0  0  0  0
  194.1520  174.8580  145.3480 C   0  0  0  0  0  0  0  0  0  0  0  0
  192.9900  170.8500  144.5930 C   0  0  0  0  0  3  0  0  0  0  0  0
  194.7260  172.4770  145.1250 C   0  0  0  0  0  0  0  0  0  0  0  0
  189.4120  174.6140  145.3900 C   0  0  0  0  0  2  0  0  0  0  0  0
  196.8020  174.1800  145.7730 Cl  0  0  0  0  0  0  0  0  0  0  0  0
  191.6930  175.3540  144.7860 N   0  0  0  0  0  0  0  0  0  0  0  0
  192.8270  174.5130  144.9950 C   0  0  0  0  0  0  0  0  0  0  0  0
  190.6440  177.5730  144.7970 C   0  0  0  0  0  2  0  0  0  0  0  0
  194.5600  176.2200  145.7490 C   0  0  0  0  0  3  0  0  0  0  0  0
  194.1920  176.7930  146.8880 C   0  0  0  0  0  2  0  0  0  0  0  0
  187.6490  176.2220  146.2220 C   0  0  0  0  0  2  0  0  0  0  0  0
  187.3460  177.6430  146.6790 C   0  0  0  0  0  2  0  0  0  0  0  0
  186.1310  178.1790  145.9450 C   0  0  0  0  0  2  0  0  0  0  0  0
  185.9290  177.4580  144.7660 O   0  0  0  0  0  0  0  0  0  0  0  0
  185.5660  180.1650  144.2620 O   0  0  0  0  0  1  0  0  0  0  0  0
  185.5950  178.6190  143.5760 P   0  0  0  0  0  0  0  0  0  0  0  0
  186.6520  178.5670  142.4940 O   0  0  0  0  0  0  0  0  0  0  0  0
  184.0850  178.2900  142.8900 O   0  0  0  0  0  1  0  0  0  0  0  0
  2 19  1  0  0  0  0
  2  8  1  0  0  0  0
  3 17  1  0  0  0  0
  3 19  1  0  0  0  0
  4  7  2  0  0  0  0
  4 18  1  0  0  0  0
  5  9  1  0  0  0  0
  5 17  1  0  0  0  0
  5 15  1  1  0  0  0
  6 11  1  0  0  0  0
  7 14  1  0  0  0  0
  8 22  1  6  0  0  0
  9  4  1  0  0  0  0
 10 16  1  0  0  0  0
 11  1  2  0  0  0  0
 12 10  1  0  0  0  0
 12 20  1  0  0  0  0
 13  6  2  0  0  0  0
 13  7  1  0  0  0  0
 14  1  1  0  0  0  0
 14 10  2  0  0  0  0
 15  8  1  0  0  0  0
 17 18  1  0  0  0  0
 18 12  2  0  0  0  0
 20 21  2  0  0  0  0
 22 23  1  0  0  0  0
 24 23  1  0  0  0  0
 25 24  1  0  0  0  0
 27 26  1  0  0  0  0
 27 25  1  0  0  0  0
 28 27  2  0  0  0  0
 29 27  1  0  0  0  0
M  END
>  <MODEL>
8

>  <REMARK>
 VINA RESULT:      -6.6      4.608      8.897
  Name = 
  6 active torsions:
  status: ('A' for Active; 'I' for Inactive)
    1  A    between atoms: O_2  and  P_16
    2  A    between atoms: O_2  and  C_26
    3  A    between atoms: C_9  and  C_25
    4  A    between atoms: C_13  and  C_21
    5  A    between atoms: C_22  and  C_25
    6  A    between atoms: C_22  and  C_26
                            x       y       z     vdW  Elec       q    Type
                         _______ _______ _______ _____ _____    ______ ____

>  <TORSDO>
F 6

$$$$
=
 OpenBabel11042416303D

 29 32  0  0  1  0  0  0  0  0999 V2000
  195.5580  170.9040  145.5200 C   0  0  0  0  0  3  0  0  0  0  0  0
  190.0770  176.9320  143.3500 N   0  0  0  0  0  2  0  0  0  0  0  0
  192.4840  176.4020  143.4690 C   0  0  0  0  0  2  0  0  0  0  0  0
  192.7070  172.9370  144.3950 C   0  0  0  0  0  0  0  0  0  0  0  0
  191.0680  174.3150  143.6010 C   0  0  1  0  0  3  0  0  0  0  0  0
  193.8280  169.4440  144.7960 C   0  0  0  0  0  3  0  0  0  0  0  0
  193.4770  171.8220  144.7020 C   0  0  0  0  0  0  0  0  0  0  0  0
  189.5300  176.1670  144.4700 C   0  0  2  0  0  3  0  0  0  0  0  0
  191.4400  172.9560  143.8430 O   0  0  0  0  0  0  0  0  0  0  0  0
  195.2520  173.3450  145.4540 C   0  0  0  0  0  0  0  0  0  0  0  0
  195.0730  169.6520  145.3000 N   0  0  0  0  0  0  0  0  0  0  0  0
  194.4250  174.4630  145.1690 C   0  0  0  0  0  0  0  0  0  0  0  0
  193.0040  170.5260  144.4850 C   0  0  0  0  0  3  0  0  0  0  0  0
  194.7750  172.0290  145.2260 C   0  0  0  0  0  0  0  0  0  0  0  0
  189.7600  174.6550  144.3140 C   0  0  0  0  0  2  0  0  0  0  0  0
  196.8630  173.5870  146.1420 Cl  0  0  0  0  0  0  0  0  0  0  0  0
  192.1790  175.1290  144.1100 N   0  0  0  0  0  0  0  0  0  0  0  0
  193.1590  174.2100  144.5910 C   0  0  0  0  0  0  0  0  0  0  0  0
  191.3870  177.4260  143.7640 C   0  0  0  0  0  2  0  0  0  0  0  0
  194.8940  175.8120  145.5450 C   0  0  0  0  0  3  0  0  0  0  0  0
  194.3660  176.5260  146.5310 C   0  0  0  0  0  2  0  0  0  0  0  0
  188.0540  176.4850  144.6770 C   0  0  0  0  0  2  0  0  0  0  0  0
  187.5260  177.4510  143.6250 C   0  0  0  0  0  2  0  0  0  0  0  0
  186.1180  177.8890  143.9790 C   0  0  0  0  0  2  0  0  0  0  0  0
  186.1620  178.9560  144.8790 O   0  0  0  0  0  0  0  0  0  0  0  0
  185.5660  179.2520  147.5760 O   0  0  0  0  0  1  0  0  0  0  0  0
  185.0750  178.5510  146.1160 P   0  0  0  0  0  0  0  0  0  0  0  0
  183.6860  179.0380  145.7640 O   0  0  0  0  0  0  0  0  0  0  0  0
  185.0420  176.8700  146.2950 O   0  0  0  0  0  1  0  0  0  0  0  0
  2 19  1  0  0  0  0
  2  8  1  0  0  0  0
  3 19  1  0  0  0  0
  3 17  1  0  0  0  0
  4 18  2  0  0  0  0
  4  7  1  0  0  0  0
  5  9  1  0  0  0  0
  5 17  1  0  0  0  0
  5 15  1  1  0  0  0
  6 11  2  0  0  0  0
  7 14  1  0  0  0  0
  8 22  1  6  0  0  0
  9  4  1  0  0  0  0
 10 16  1  0  0  0  0
 11  1  1  0  0  0  0
 12 10  2  0  0  0  0
 12 20  1  0  0  0  0
 13  7  2  0  0  0  0
 13  6  1  0  0  0  0
 14 10  1  0  0  0  0
 14  1  2  0  0  0  0
 15  8  1  0  0  0  0
 17 18  1  0  0  0  0
 18 12  1  0  0  0  0
 20 21  2  0  0  0  0
 23 24  1  0  0  0  0
 23 22  1  0  0  0  0
 24 25  1  0  0  0  0
 25 27  1  0  0  0  0
 27 29  1  0  0  0  0
 27 26  1  0  0  0  0
 28 27  2  0  0  0  0
M  END
>  <MODEL>
9

>  <REMARK>
 VINA RESULT:      -6.5      4.784      9.256
  Name = 
  6 active torsions:
  status: ('A' for Active; 'I' for Inactive)
    1  A    between atoms: O_2  and  P_16
    2  A    between atoms: O_2  and  C_26
    3  A    between atoms: C_9  and  C_25
    4  A    between atoms: C_13  and  C_21
    5  A    between atoms: C_22  and  C_25
    6  A    between atoms: C_22  and  C_26
                            x       y       z     vdW  Elec       q    Type
                         _______ _______ _______ _____ _____    ______ ____

>  <TORSDO>
F 6

$$$$
