=
 OpenBabel11042414483D

 28 31  0  0  1  0  0  0  0  0999 V2000
  190.2820  177.1210  147.4540 N   0  0  0  0  0  0  0  0  0  0  0  0
  192.8610  175.9330  146.4870 C   0  0  0  0  0  3  0  0  0  0  0  0
  190.5120  175.1130  146.0600 C   0  0  0  0  0  0  0  0  0  0  0  0
  191.5690  178.0290  149.5770 Cl  0  0  0  0  0  0  0  0  0  0  0  0
  191.8480  174.9680  146.0200 C   0  0  0  0  0  3  0  0  0  0  0  0
  189.8520  176.3800  146.4730 C   0  0  0  0  0  0  0  0  0  0  0  0
  191.4260  176.8060  148.2960 C   0  0  2  0  0  3  0  0  0  0  0  0
  192.6790  176.7890  147.4890 C   0  0  0  0  0  3  0  0  0  0  0  0
  186.4090  176.7620  146.5690 C   0  0  0  0  0  2  0  0  0  0  0  0
  187.6870  177.4460  146.6750 N   0  0  0  0  0  2  0  0  0  0  0  0
  188.9340  177.7030  144.5770 C   0  0  0  0  0  2  0  0  0  0  0  0
  187.7480  177.8280  143.6320 C   0  0  0  0  0  2  0  0  0  0  0  0
  185.6620  177.7980  144.4010 C   0  0  1  0  0  3  0  0  0  0  0  0
  186.7620  178.6410  144.2010 O   0  0  0  0  0  0  0  0  0  0  0  0
  185.3790  177.6580  145.8930 C   0  0  0  0  0  2  0  0  0  0  0  0
  188.6030  176.7890  145.7540 C   0  0  1  0  0  3  0  0  0  0  0  0
  184.4430  178.3280  143.6990 C   0  0  0  0  0  0  0  0  0  0  0  0
  184.1820  178.0320  142.2580 C   0  0  0  0  0  1  0  0  0  0  0  0
  183.6390  179.0030  144.3210 O   0  0  0  0  0  0  0  0  0  0  0  0
  189.6680  174.0770  145.5320 N   0  0  0  0  0  2  0  0  0  0  0  0
  190.2590  171.9550  144.2400 C   0  0  0  0  0  3  0  0  0  0  0  0
  188.1890  173.8820  141.4730 C   0  0  0  0  0  3  0  0  0  0  0  0
  189.6380  172.6090  142.3020 N   0  0  0  0  0  0  0  0  0  0  0  0
  190.0540  171.5420  142.9560 N   0  0  0  0  0  2  0  0  0  0  0  0
  189.4890  173.6380  143.0810 C   0  0  0  0  0  0  0  0  0  0  0  0
  189.8920  173.3080  144.3440 C   0  0  0  0  0  0  0  0  0  0  0  0
  188.5650  174.5020  142.6350 N   0  0  0  0  0  0  0  0  0  0  0  0
  188.8080  172.6810  141.2870 N   0  0  0  0  0  0  0  0  0  0  0  0
  1  7  1  0  0  0  0
  2  8  2  0  0  0  0
  3  6  1  0  0  0  0
  5  3  2  0  0  0  0
  5  2  1  0  0  0  0
  6  1  2  0  0  0  0
  7  4  1  1  0  0  0
  8  7  1  0  0  0  0
  9 10  1  0  0  0  0
 11 16  1  0  0  0  0
 12 14  1  0  0  0  0
 12 11  1  0  0  0  0
 13 17  1  6  0  0  0
 13 15  1  0  0  0  0
 14 13  1  0  0  0  0
 15  9  1  0  0  0  0
 16  6  1  1  0  0  0
 16 10  1  0  0  0  0
 17 19  2  0  0  0  0
 18 17  1  0  0  0  0
 20  3  1  0  0  0  0
 21 26  2  0  0  0  0
 22 27  1  0  0  0  0
 23 24  1  0  0  0  0
 23 25  1  0  0  0  0
 24 21  1  0  0  0  0
 25 26  1  0  0  0  0
 26 20  1  0  0  0  0
 27 25  2  0  0  0  0
 28 22  2  0  0  0  0
 28 23  1  0  0  0  0
M  END
>  <MODEL>
1

>  <REMARK>
 VINA RESULT:      -7.7      0.000      0.000
  Name = 
  4 active torsions:
  status: ('A' for Active; 'I' for Inactive)
    1  A    between atoms: C_4  and  C_21
    2  A    between atoms: N_9  and  C_10
    3  A    between atoms: N_9  and  C_19
    4  A    between atoms: C_20  and  C_28
                            x       y       z     vdW  Elec       q    Type
                         _______ _______ _______ _____ _____    ______ ____

>  <TORSDO>
F 4

$$$$
=
 OpenBabel11042414483D

 28 31  0  0  1  0  0  0  0  0999 V2000
  187.2050  178.2790  146.9280 N   0  0  0  0  0  0  0  0  0  0  0  0
  184.3400  177.3960  146.8440 C   0  0  0  0  0  3  0  0  0  0  0  0
  186.1550  176.9570  145.1450 C   0  0  0  0  0  0  0  0  0  0  0  0
  186.4480  180.3920  148.3240 Cl  0  0  0  0  0  0  0  0  0  0  0  0
  184.8710  176.9440  145.5440 C   0  0  0  0  0  3  0  0  0  0  0  0
  187.2760  177.3160  146.0540 C   0  0  0  0  0  0  0  0  0  0  0  0
  186.0550  179.1500  147.1160 C   0  0  2  0  0  3  0  0  0  0  0  0
  184.8770  178.3650  147.5810 C   0  0  0  0  0  3  0  0  0  0  0  0
  190.5560  177.3060  144.9330 C   0  0  0  0  0  2  0  0  0  0  0  0
  189.6930  177.4640  146.0930 N   0  0  0  0  0  2  0  0  0  0  0  0
  188.6260  175.4130  146.9130 C   0  0  0  0  0  2  0  0  0  0  0  0
  189.7310  174.4310  146.5480 C   0  0  0  0  0  2  0  0  0  0  0  0
  191.6230  175.1310  145.6140 C   0  0  1  0  0  3  0  0  0  0  0  0
  190.9810  174.9800  146.8490 O   0  0  0  0  0  0  0  0  0  0  0  0
  191.8530  176.6110  145.3250 C   0  0  0  0  0  2  0  0  0  0  0  0
  188.5630  176.5630  145.9130 C   0  0  1  0  0  3  0  0  0  0  0  0
  192.9350  174.3980  145.5950 C   0  0  0  0  0  0  0  0  0  0  0  0
  194.2150  175.0790  145.9560 C   0  0  0  0  0  1  0  0  0  0  0  0
  192.9570  173.2160  145.2910 O   0  0  0  0  0  0  0  0  0  0  0  0
  186.5010  176.4500  143.8460 N   0  0  0  0  0  2  0  0  0  0  0  0
  187.4970  177.0890  141.5830 C   0  0  0  0  0  3  0  0  0  0  0  0
  183.7590  178.2720  141.0400 C   0  0  0  0  0  3  0  0  0  0  0  0
  185.8510  178.2420  140.8540 N   0  0  0  0  0  0  0  0  0  0  0  0
  187.0070  177.7290  140.4810 N   0  0  0  0  0  2  0  0  0  0  0  0
  185.5330  177.9140  142.0700 C   0  0  0  0  0  0  0  0  0  0  0  0
  186.5540  177.1920  142.6210 C   0  0  0  0  0  0  0  0  0  0  0  0
  184.2090  177.8910  142.2770 N   0  0  0  0  0  0  0  0  0  0  0  0
  184.7680  178.4360  140.1360 N   0  0  0  0  0  0  0  0  0  0  0  0
  1  7  1  0  0  0  0
  2  8  2  0  0  0  0
  3  5  2  0  0  0  0
  3  6  1  0  0  0  0
  5  2  1  0  0  0  0
  6  1  2  0  0  0  0
  7  8  1  0  0  0  0
  7  4  1  1  0  0  0
  9 15  1  0  0  0  0
  9 10  1  0  0  0  0
 12 14  1  0  0  0  0
 12 11  1  0  0  0  0
 13 17  1  1  0  0  0
 13 14  1  0  0  0  0
 15 13  1  0  0  0  0
 16  6  1  1  0  0  0
 16 10  1  0  0  0  0
 16 11  1  0  0  0  0
 17 18  1  0  0  0  0
 19 17  2  0  0  0  0
 20  3  1  0  0  0  0
 21 26  2  0  0  0  0
 22 27  1  0  0  0  0
 23 25  1  0  0  0  0
 24 23  1  0  0  0  0
 24 21  1  0  0  0  0
 25 27  2  0  0  0  0
 25 26  1  0  0  0  0
 26 20  1  0  0  0  0
 28 23  1  0  0  0  0
 28 22  2  0  0  0  0
M  END
>  <MODEL>
2

>  <REMARK>
 VINA RESULT:      -7.4      3.489      6.461
  Name = 
  4 active torsions:
  status: ('A' for Active; 'I' for Inactive)
    1  A    between atoms: C_4  and  C_21
    2  A    between atoms: N_9  and  C_10
    3  A    between atoms: N_9  and  C_19
    4  A    between atoms: C_20  and  C_28
                            x       y       z     vdW  Elec       q    Type
                         _______ _______ _______ _____ _____    ______ ____

>  <TORSDO>
F 4

$$$$
=
 OpenBabel11042414483D

 28 31  0  0  1  0  0  0  0  0999 V2000
  191.5310  176.4260  145.5350 N   0  0  0  0  0  0  0  0  0  0  0  0
  193.2110  175.8150  143.1250 C   0  0  0  0  0  3  0  0  0  0  0  0
  190.9140  174.9290  143.6890 C   0  0  0  0  0  0  0  0  0  0  0  0
  193.7560  176.8110  146.9100 Cl  0  0  0  0  0  0  0  0  0  0  0  0
  192.0420  174.9310  142.9560 C   0  0  0  0  0  3  0  0  0  0  0  0
  190.6260  175.9570  144.7240 C   0  0  0  0  0  0  0  0  0  0  0  0
  192.9210  175.9960  145.5700 C   0  0  2  0  0  3  0  0  0  0  0  0
  193.6030  176.3300  144.2890 C   0  0  0  0  0  3  0  0  0  0  0  0
  187.8060  176.1930  146.7250 C   0  0  0  0  0  2  0  0  0  0  0  0
  188.9770  176.8970  146.2280 N   0  0  0  0  0  2  0  0  0  0  0  0
  188.9100  177.5360  143.8600 C   0  0  0  0  0  2  0  0  0  0  0  0
  187.4100  177.7700  143.7390 C   0  0  0  0  0  2  0  0  0  0  0  0
  186.0700  177.5400  145.4980 C   0  0  1  0  0  3  0  0  0  0  0  0
  186.9360  178.4430  144.8690 O   0  0  0  0  0  0  0  0  0  0  0  0
  186.6280  177.1490  146.8620 C   0  0  0  0  0  2  0  0  0  0  0  0
  189.2130  176.4310  144.8680 C   0  0  1  0  0  3  0  0  0  0  0  0
  184.6980  178.1320  145.6590 C   0  0  0  0  0  0  0  0  0  0  0  0
  184.0850  178.9830  144.5950 C   0  0  0  0  0  1  0  0  0  0  0  0
  184.0620  177.9030  146.6750 O   0  0  0  0  0  0  0  0  0  0  0  0
  189.8590  174.0100  143.3660 N   0  0  0  0  0  2  0  0  0  0  0  0
  188.6470  174.8240  141.2710 C   0  0  0  0  0  3  0  0  0  0  0  0
  190.2050  171.4580  139.8910 C   0  0  0  0  0  3  0  0  0  0  0  0
  188.8420  173.0410  140.1080 N   0  0  0  0  0  0  0  0  0  0  0  0
  188.4530  174.2990  140.0260 N   0  0  0  0  0  2  0  0  0  0  0  0
  189.3380  172.7520  141.2730 C   0  0  0  0  0  0  0  0  0  0  0  0
  189.2260  173.8410  142.0920 C   0  0  0  0  0  0  0  0  0  0  0  0
  190.2350  171.7560  141.2280 N   0  0  0  0  0  0  0  0  0  0  0  0
  189.3860  172.2860  139.1810 N   0  0  0  0  0  0  0  0  0  0  0  0
  1  7  1  0  0  0  0
  2  8  2  0  0  0  0
  3  6  1  0  0  0  0
  5  2  1  0  0  0  0
  5  3  2  0  0  0  0
  6  1  2  0  0  0  0
  7  4  1  1  0  0  0
  8  7  1  0  0  0  0
  9 15  1  0  0  0  0
 10  9  1  0  0  0  0
 11 16  1  0  0  0  0
 12 11  1  0  0  0  0
 12 14  1  0  0  0  0
 13 17  1  1  0  0  0
 13 15  1  0  0  0  0
 14 13  1  0  0  0  0
 16  6  1  1  0  0  0
 16 10  1  0  0  0  0
 17 19  2  0  0  0  0
 18 17  1  0  0  0  0
 20  3  1  0  0  0  0
 21 26  2  0  0  0  0
 22 27  1  0  0  0  0
 23 25  1  0  0  0  0
 24 23  1  0  0  0  0
 24 21  1  0  0  0  0
 25 26  1  0  0  0  0
 26 20  1  0  0  0  0
 27 25  2  0  0  0  0
 28 22  2  0  0  0  0
 28 23  1  0  0  0  0
M  END
>  <MODEL>
3

>  <REMARK>
 VINA RESULT:      -7.1      1.895      2.591
  Name = 
  4 active torsions:
  status: ('A' for Active; 'I' for Inactive)
    1  A    between atoms: C_4  and  C_21
    2  A    between atoms: N_9  and  C_10
    3  A    between atoms: N_9  and  C_19
    4  A    between atoms: C_20  and  C_28
                            x       y       z     vdW  Elec       q    Type
                         _______ _______ _______ _____ _____    ______ ____

>  <TORSDO>
F 4

$$$$
=
 OpenBabel11042414483D

 28 31  0  0  1  0  0  0  0  0999 V2000
  188.1850  175.7040  140.9750 N   0  0  0  0  0  0  0  0  0  0  0  0
  186.1480  177.6680  139.9790 C   0  0  0  0  0  3  0  0  0  0  0  0
  186.4370  176.7780  142.3240 C   0  0  0  0  0  0  0  0  0  0  0  0
  188.2260  174.6200  138.5650 Cl  0  0  0  0  0  0  0  0  0  0  0  0
  185.7540  177.4550  141.3850 C   0  0  0  0  0  3  0  0  0  0  0  0
  187.8080  176.2480  142.0970 C   0  0  0  0  0  0  0  0  0  0  0  0
  187.3280  175.5070  139.8160 C   0  0  2  0  0  3  0  0  0  0  0  0
  186.8830  176.8180  139.2670 C   0  0  0  0  0  3  0  0  0  0  0  0
  189.7780  174.4960  144.3470 C   0  0  0  0  0  2  0  0  0  0  0  0
  189.7700  175.2410  143.0980 N   0  0  0  0  0  2  0  0  0  0  0  0
  189.4540  177.6650  143.3070 C   0  0  0  0  0  2  0  0  0  0  0  0
  190.1520  177.8620  144.6450 C   0  0  0  0  0  2  0  0  0  0  0  0
  191.0980  176.1530  145.7060 C   0  0  1  0  0  3  0  0  0  0  0  0
  191.3210  177.0970  144.6960 O   0  0  0  0  0  0  0  0  0  0  0  0
  191.0720  174.7490  145.1090 C   0  0  0  0  0  2  0  0  0  0  0  0
  188.7780  176.2990  143.2360 C   0  0  1  0  0  3  0  0  0  0  0  0
  192.1610  176.2360  146.7660 C   0  0  0  0  0  0  0  0  0  0  0  0
  193.5460  175.7300  146.5230 C   0  0  0  0  0  1  0  0  0  0  0  0
  191.8940  176.7400  147.8450 O   0  0  0  0  0  0  0  0  0  0  0  0
  185.9140  176.6910  143.6590 N   0  0  0  0  0  2  0  0  0  0  0  0
  184.2860  178.4450  144.5500 C   0  0  0  0  0  3  0  0  0  0  0  0
  186.7410  178.1630  147.6410 C   0  0  0  0  0  3  0  0  0  0  0  0
  185.4030  179.0320  146.2760 N   0  0  0  0  0  0  0  0  0  0  0  0
  184.2310  179.1910  145.6920 N   0  0  0  0  0  2  0  0  0  0  0  0
  186.1610  178.1890  145.6420 C   0  0  0  0  0  0  0  0  0  0  0  0
  185.5250  177.7820  144.5020 C   0  0  0  0  0  0  0  0  0  0  0  0
  187.0410  177.5710  146.4430 N   0  0  0  0  0  0  0  0  0  0  0  0
  185.6900  179.0290  147.5580 N   0  0  0  0  0  0  0  0  0  0  0  0
  1  6  2  0  0  0  0
  2  5  1  0  0  0  0
  3 20  1  0  0  0  0
  5  3  2  0  0  0  0
  6  3  1  0  0  0  0
  7  4  1  6  0  0  0
  7  1  1  0  0  0  0
  8  7  1  0  0  0  0
  8  2  2  0  0  0  0
  9 15  1  0  0  0  0
 10 16  1  0  0  0  0
 10  9  1  0  0  0  0
 11 12  1  0  0  0  0
 12 14  1  0  0  0  0
 13 17  1  1  0  0  0
 14 13  1  0  0  0  0
 15 13  1  0  0  0  0
 16  6  1  6  0  0  0
 16 11  1  0  0  0  0
 17 19  2  0  0  0  0
 18 17  1  0  0  0  0
 20 26  1  0  0  0  0
 21 24  1  0  0  0  0
 23 28  1  0  0  0  0
 24 23  1  0  0  0  0
 25 23  1  0  0  0  0
 25 27  2  0  0  0  0
 26 21  2  0  0  0  0
 26 25  1  0  0  0  0
 27 22  1  0  0  0  0
 28 22  2  0  0  0  0
M  END
>  <MODEL>
4

>  <REMARK>
 VINA RESULT:      -7.0      3.418      7.446
  Name = 
  4 active torsions:
  status: ('A' for Active; 'I' for Inactive)
    1  A    between atoms: C_4  and  C_21
    2  A    between atoms: N_9  and  C_10
    3  A    between atoms: N_9  and  C_19
    4  A    between atoms: C_20  and  C_28
                            x       y       z     vdW  Elec       q    Type
                         _______ _______ _______ _____ _____    ______ ____

>  <TORSDO>
F 4

$$$$
=
 OpenBabel11042414483D

 28 31  0  0  1  0  0  0  0  0999 V2000
  187.3800  178.0400  146.8150 N   0  0  0  0  0  0  0  0  0  0  0  0
  184.6700  177.9150  145.5340 C   0  0  0  0  0  3  0  0  0  0  0  0
  186.9300  177.8470  144.4090 C   0  0  0  0  0  0  0  0  0  0  0  0
  186.3230  179.4830  148.7620 Cl  0  0  0  0  0  0  0  0  0  0  0  0
  185.5890  177.9460  144.3800 C   0  0  0  0  0  3  0  0  0  0  0  0
  187.6870  177.5410  145.6520 C   0  0  0  0  0  0  0  0  0  0  0  0
  186.2940  178.9780  147.0580 C   0  0  2  0  0  3  0  0  0  0  0  0
  184.9800  178.3460  146.7540 C   0  0  0  0  0  3  0  0  0  0  0  0
  190.9680  177.1820  144.5950 C   0  0  0  0  0  2  0  0  0  0  0  0
  190.1050  177.4390  145.7370 N   0  0  0  0  0  2  0  0  0  0  0  0
  188.8160  175.5160  146.5500 C   0  0  0  0  0  2  0  0  0  0  0  0
  189.8200  174.4220  146.2140 C   0  0  0  0  0  2  0  0  0  0  0  0
  191.7910  174.9140  145.3120 C   0  0  1  0  0  3  0  0  0  0  0  0
  191.1150  174.8410  146.5350 O   0  0  0  0  0  0  0  0  0  0  0  0
  192.1790  176.3600  145.0170 C   0  0  0  0  0  2  0  0  0  0  0  0
  188.8910  176.6580  145.5410 C   0  0  1  0  0  3  0  0  0  0  0  0
  193.0210  174.0490  145.3220 C   0  0  0  0  0  0  0  0  0  0  0  0
  194.3510  174.5900  145.7340 C   0  0  0  0  0  1  0  0  0  0  0  0
  192.9300  172.8750  145.0020 O   0  0  0  0  0  0  0  0  0  0  0  0
  187.6710  177.8690  143.1790 N   0  0  0  0  0  2  0  0  0  0  0  0
  186.9950  177.4720  140.7490 C   0  0  0  0  0  3  0  0  0  0  0  0
  189.2490  174.2770  141.3590 C   0  0  0  0  0  3  0  0  0  0  0  0
  187.7050  175.4630  140.5720 N   0  0  0  0  0  0  0  0  0  0  0  0
  187.2110  176.4580  139.8610 N   0  0  0  0  0  2  0  0  0  0  0  0
  187.8930  175.7900  141.8150 C   0  0  0  0  0  0  0  0  0  0  0  0
  187.4360  177.0620  142.0190 C   0  0  0  0  0  0  0  0  0  0  0  0
  188.8770  175.0900  142.3980 N   0  0  0  0  0  0  0  0  0  0  0  0
  188.5670  174.5410  140.2080 N   0  0  0  0  0  0  0  0  0  0  0  0
  1  7  1  0  0  0  0
  2  8  2  0  0  0  0
  3  6  1  0  0  0  0
  5  3  2  0  0  0  0
  5  2  1  0  0  0  0
  6  1  2  0  0  0  0
  7  4  1  1  0  0  0
  8  7  1  0  0  0  0
  9 15  1  0  0  0  0
  9 10  1  0  0  0  0
 12 14  1  0  0  0  0
 12 11  1  0  0  0  0
 13 17  1  1  0  0  0
 13 14  1  0  0  0  0
 15 13  1  0  0  0  0
 16  6  1  1  0  0  0
 16 10  1  0  0  0  0
 16 11  1  0  0  0  0
 17 18  1  0  0  0  0
 19 17  2  0  0  0  0
 20  3  1  0  0  0  0
 21 26  2  0  0  0  0
 22 27  1  0  0  0  0
 23 25  1  0  0  0  0
 24 23  1  0  0  0  0
 24 21  1  0  0  0  0
 25 26  1  0  0  0  0
 25 27  2  0  0  0  0
 26 20  1  0  0  0  0
 28 23  1  0  0  0  0
 28 22  2  0  0  0  0
M  END
>  <MODEL>
5

>  <REMARK>
 VINA RESULT:      -6.9      2.976      5.992
  Name = 
  4 active torsions:
  status: ('A' for Active; 'I' for Inactive)
    1  A    between atoms: C_4  and  C_21
    2  A    between atoms: N_9  and  C_10
    3  A    between atoms: N_9  and  C_19
    4  A    between atoms: C_20  and  C_28
                            x       y       z     vdW  Elec       q    Type
                         _______ _______ _______ _____ _____    ______ ____

>  <TORSDO>
F 4

$$$$
=
 OpenBabel11042414483D

 28 31  0  0  1  0  0  0  0  0999 V2000
  187.5400  176.8920  140.8890 N   0  0  0  0  0  0  0  0  0  0  0  0
  185.0280  178.3860  141.5640 C   0  0  0  0  0  3  0  0  0  0  0  0
  186.3760  176.8540  143.0500 C   0  0  0  0  0  0  0  0  0  0  0  0
  186.7300  176.7910  138.3750 Cl  0  0  0  0  0  0  0  0  0  0  0  0
  185.2810  177.5850  142.7760 C   0  0  0  0  0  3  0  0  0  0  0  0
  187.5890  176.8670  142.1900 C   0  0  0  0  0  0  0  0  0  0  0  0
  186.3170  176.8730  140.1010 C   0  0  2  0  0  3  0  0  0  0  0  0
  185.5120  178.0990  140.3580 C   0  0  0  0  0  3  0  0  0  0  0  0
  190.0810  174.8810  143.5540 C   0  0  0  0  0  2  0  0  0  0  0  0
  189.6660  175.6380  142.3830 N   0  0  0  0  0  2  0  0  0  0  0  0
  189.7170  178.0790  142.6190 C   0  0  0  0  0  2  0  0  0  0  0  0
  190.8980  178.1810  143.5750 C   0  0  0  0  0  2  0  0  0  0  0  0
  191.9950  176.3650  144.2390 C   0  0  1  0  0  3  0  0  0  0  0  0
  191.9060  177.2910  143.1920 O   0  0  0  0  0  0  0  0  0  0  0  0
  191.5880  174.9810  143.7450 C   0  0  0  0  0  2  0  0  0  0  0  0
  188.9260  176.7970  142.8610 C   0  0  1  0  0  3  0  0  0  0  0  0
  193.3880  176.3170  144.8000 C   0  0  0  0  0  0  0  0  0  0  0  0
  193.6420  176.4170  146.2690 C   0  0  0  0  0  1  0  0  0  0  0  0
  194.3350  176.1810  144.0420 O   0  0  0  0  0  0  0  0  0  0  0  0
  186.4670  176.1510  144.3000 N   0  0  0  0  0  2  0  0  0  0  0  0
  187.9450  177.1520  146.1260 C   0  0  0  0  0  3  0  0  0  0  0  0
  184.4420  178.6590  147.1840 C   0  0  0  0  0  3  0  0  0  0  0  0
  186.3880  177.8970  147.3880 N   0  0  0  0  0  0  0  0  0  0  0  0
  187.6980  177.9140  147.2310 N   0  0  0  0  0  2  0  0  0  0  0  0
  185.7840  177.2560  146.4330 C   0  0  0  0  0  0  0  0  0  0  0  0
  186.7190  176.7220  145.5900 C   0  0  0  0  0  0  0  0  0  0  0  0
  184.5330  177.6900  146.2210 N   0  0  0  0  0  0  0  0  0  0  0  0
  185.6050  178.8330  147.8750 N   0  0  0  0  0  0  0  0  0  0  0  0
  1  6  2  0  0  0  0
  2  5  1  0  0  0  0
  3 20  1  0  0  0  0
  5  3  2  0  0  0  0
  6  3  1  0  0  0  0
  7  4  1  6  0  0  0
  7  8  1  0  0  0  0
  7  1  1  0  0  0  0
  8  2  2  0  0  0  0
  9 15  1  0  0  0  0
 10 16  1  0  0  0  0
 10  9  1  0  0  0  0
 11 16  1  0  0  0  0
 11 12  1  0  0  0  0
 13 17  1  6  0  0  0
 14 12  1  0  0  0  0
 14 13  1  0  0  0  0
 15 13  1  0  0  0  0
 16  6  1  6  0  0  0
 17 18  1  0  0  0  0
 19 17  2  0  0  0  0
 20 26  1  0  0  0  0
 21 24  1  0  0  0  0
 22 28  2  0  0  0  0
 23 28  1  0  0  0  0
 24 23  1  0  0  0  0
 25 23  1  0  0  0  0
 26 21  2  0  0  0  0
 26 25  1  0  0  0  0
 27 25  2  0  0  0  0
 27 22  1  0  0  0  0
M  END
>  <MODEL>
6

>  <REMARK>
 VINA RESULT:      -6.8      3.679      7.460
  Name = 
  4 active torsions:
  status: ('A' for Active; 'I' for Inactive)
    1  A    between atoms: C_4  and  C_21
    2  A    between atoms: N_9  and  C_10
    3  A    between atoms: N_9  and  C_19
    4  A    between atoms: C_20  and  C_28
                            x       y       z     vdW  Elec       q    Type
                         _______ _______ _______ _____ _____    ______ ____

>  <TORSDO>
F 4

$$$$
=
 OpenBabel11042414483D

 28 31  0  0  1  0  0  0  0  0999 V2000
  188.9770  174.3700  141.0600 N   0  0  0  0  0  0  0  0  0  0  0  0
  191.1010  172.5250  142.1020 C   0  0  0  0  0  3  0  0  0  0  0  0
  190.9240  175.0250  142.4050 C   0  0  0  0  0  0  0  0  0  0  0  0
  188.6350  172.7220  139.0210 Cl  0  0  0  0  0  0  0  0  0  0  0  0
  191.5890  173.8600  142.4980 C   0  0  0  0  0  3  0  0  0  0  0  0
  189.4960  175.1070  142.0000 C   0  0  0  0  0  0  0  0  0  0  0  0
  189.7130  173.4020  140.2600 C   0  0  2  0  0  3  0  0  0  0  0  0
  190.2330  172.3020  141.1190 C   0  0  0  0  0  3  0  0  0  0  0  0
  187.4630  177.8970  141.6840 C   0  0  0  0  0  2  0  0  0  0  0  0
  187.4870  176.4500  141.8360 N   0  0  0  0  0  2  0  0  0  0  0  0
  188.1730  175.6230  144.0420 C   0  0  0  0  0  2  0  0  0  0  0  0
  187.6150  176.7620  144.8850 C   0  0  0  0  0  2  0  0  0  0  0  0
  186.5080  178.4460  143.9470 C   0  0  1  0  0  3  0  0  0  0  0  0
  186.3520  177.1350  144.4140 O   0  0  0  0  0  0  0  0  0  0  0  0
  186.2820  178.4910  142.4390 C   0  0  0  0  0  2  0  0  0  0  0  0
  188.6320  176.1270  142.6760 C   0  0  1  0  0  3  0  0  0  0  0  0
  185.5520  179.3810  144.6340 C   0  0  0  0  0  0  0  0  0  0  0  0
  184.7020  178.9260  145.7750 C   0  0  0  0  0  1  0  0  0  0  0  0
  185.4770  180.5410  144.2630 O   0  0  0  0  0  0  0  0  0  0  0  0
  191.5450  176.2360  142.8650 N   0  0  0  0  0  2  0  0  0  0  0  0
  191.4450  176.4500  145.4080 C   0  0  0  0  0  3  0  0  0  0  0  0
  195.2970  175.6700  144.9430 C   0  0  0  0  0  3  0  0  0  0  0  0
  193.5490  176.4760  145.7830 N   0  0  0  0  0  0  0  0  0  0  0  0
  192.3840  176.4140  146.3980 N   0  0  0  0  0  2  0  0  0  0  0  0
  193.4270  176.4670  144.4900 C   0  0  0  0  0  0  0  0  0  0  0  0
  192.1000  176.4770  144.1640 C   0  0  0  0  0  0  0  0  0  0  0  0
  194.4960  175.9510  143.8670 N   0  0  0  0  0  0  0  0  0  0  0  0
  194.6950  175.9400  146.1370 N   0  0  0  0  0  0  0  0  0  0  0  0
  1  6  2  0  0  0  0
  2  5  1  0  0  0  0
  3  5  2  0  0  0  0
  3 20  1  0  0  0  0
  6  3  1  0  0  0  0
  7  4  1  6  0  0  0
  7  1  1  0  0  0  0
  7  8  1  0  0  0  0
  8  2  2  0  0  0  0
  9 10  1  0  0  0  0
  9 15  1  0  0  0  0
 10 16  1  0  0  0  0
 11 12  1  0  0  0  0
 13 14  1  0  0  0  0
 13 17  1  1  0  0  0
 14 12  1  0  0  0  0
 15 13  1  0  0  0  0
 16  6  1  6  0  0  0
 16 11  1  0  0  0  0
 17 18  1  0  0  0  0
 19 17  2  0  0  0  0
 20 26  1  0  0  0  0
 21 24  1  0  0  0  0
 22 28  2  0  0  0  0
 23 28  1  0  0  0  0
 23 24  1  0  0  0  0
 25 23  1  0  0  0  0
 26 25  1  0  0  0  0
 26 21  2  0  0  0  0
 27 25  2  0  0  0  0
 27 22  1  0  0  0  0
M  END
>  <MODEL>
7

>  <REMARK>
 VINA RESULT:      -6.8      3.391      5.577
  Name = 
  4 active torsions:
  status: ('A' for Active; 'I' for Inactive)
    1  A    between atoms: C_4  and  C_21
    2  A    between atoms: N_9  and  C_10
    3  A    between atoms: N_9  and  C_19
    4  A    between atoms: C_20  and  C_28
                            x       y       z     vdW  Elec       q    Type
                         _______ _______ _______ _____ _____    ______ ____

>  <TORSDO>
F 4

$$$$
=
 OpenBabel11042414483D

 28 31  0  0  1  0  0  0  0  0999 V2000
  191.9410  176.4930  145.5150 N   0  0  0  0  0  0  0  0  0  0  0  0
  193.6660  175.9630  143.1180 C   0  0  0  0  0  3  0  0  0  0  0  0
  191.4070  174.9740  143.6620 C   0  0  0  0  0  0  0  0  0  0  0  0
  194.1360  176.9750  146.9090 Cl  0  0  0  0  0  0  0  0  0  0  0  0
  192.5400  175.0270  142.9390 C   0  0  0  0  0  3  0  0  0  0  0  0
  191.0650  175.9850  144.6970 C   0  0  0  0  0  0  0  0  0  0  0  0
  193.3490  176.1260  145.5610 C   0  0  2  0  0  3  0  0  0  0  0  0
  194.0250  176.4920  144.2850 C   0  0  0  0  0  3  0  0  0  0  0  0
  188.2400  176.1480  146.6980 C   0  0  0  0  0  2  0  0  0  0  0  0
  189.3750  176.8920  146.1750 N   0  0  0  0  0  2  0  0  0  0  0  0
  189.2730  177.4510  143.7880 C   0  0  0  0  0  2  0  0  0  0  0  0
  187.7640  177.6080  143.6650 C   0  0  0  0  0  2  0  0  0  0  0  0
  186.4390  177.3700  145.4350 C   0  0  1  0  0  3  0  0  0  0  0  0
  187.2590  178.2930  144.7750 O   0  0  0  0  0  0  0  0  0  0  0  0
  187.0180  177.0500  146.8090 C   0  0  0  0  0  2  0  0  0  0  0  0
  189.6300  176.3950  144.8300 C   0  0  1  0  0  3  0  0  0  0  0  0
  185.0400  177.8990  145.5820 C   0  0  0  0  0  0  0  0  0  0  0  0
  184.4610  178.8590  144.5940 C   0  0  0  0  0  1  0  0  0  0  0  0
  184.3540  177.5280  146.5200 O   0  0  0  0  0  0  0  0  0  0  0  0
  190.3970  174.0080  143.3300 N   0  0  0  0  0  2  0  0  0  0  0  0
  190.5560  171.8180  142.0270 C   0  0  0  0  0  3  0  0  0  0  0  0
  188.2030  173.8810  139.6040 C   0  0  0  0  0  3  0  0  0  0  0  0
  189.6590  172.4930  140.2070 N   0  0  0  0  0  0  0  0  0  0  0  0
  190.0880  171.4030  140.8130 N   0  0  0  0  0  2  0  0  0  0  0  0
  189.7430  173.5450  140.9650 C   0  0  0  0  0  0  0  0  0  0  0  0
  190.3360  173.2010  142.1470 C   0  0  0  0  0  0  0  0  0  0  0  0
  188.8350  174.4830  140.6600 N   0  0  0  0  0  0  0  0  0  0  0  0
  188.6700  172.6240  139.3530 N   0  0  0  0  0  0  0  0  0  0  0  0
  1  7  1  0  0  0  0
  2  8  2  0  0  0  0
  3  6  1  0  0  0  0
  5  2  1  0  0  0  0
  5  3  2  0  0  0  0
  6  1  2  0  0  0  0
  7  4  1  1  0  0  0
  8  7  1  0  0  0  0
  9 15  1  0  0  0  0
 10  9  1  0  0  0  0
 11 16  1  0  0  0  0
 12 11  1  0  0  0  0
 12 14  1  0  0  0  0
 13 17  1  1  0  0  0
 13 15  1  0  0  0  0
 14 13  1  0  0  0  0
 16  6  1  1  0  0  0
 16 10  1  0  0  0  0
 17 19  2  0  0  0  0
 18 17  1  0  0  0  0
 20  3  1  0  0  0  0
 21 26  2  0  0  0  0
 22 27  1  0  0  0  0
 23 24  1  0  0  0  0
 23 25  1  0  0  0  0
 24 21  1  0  0  0  0
 25 26  1  0  0  0  0
 26 20  1  0  0  0  0
 27 25  2  0  0  0  0
 28 22  2  0  0  0  0
 28 23  1  0  0  0  0
M  END
>  <MODEL>
8

>  <REMARK>
 VINA RESULT:      -6.7      1.961      2.341
  Name = 
  4 active torsions:
  status: ('A' for Active; 'I' for Inactive)
    1  A    between atoms: C_4  and  C_21
    2  A    between atoms: N_9  and  C_10
    3  A    between atoms: N_9  and  C_19
    4  A    between atoms: C_20  and  C_28
                            x       y       z     vdW  Elec       q    Type
                         _______ _______ _______ _____ _____    ______ ____

>  <TORSDO>
F 4

$$$$
=
 OpenBabel11042414483D

 28 31  0  0  1  0  0  0  0  0999 V2000
  191.7180  175.5610  145.1130 N   0  0  0  0  0  0  0  0  0  0  0  0
  190.7310  175.3000  147.9340 C   0  0  0  0  0  3  0  0  0  0  0  0
  189.3710  175.6300  145.8320 C   0  0  0  0  0  0  0  0  0  0  0  0
  193.9510  176.6140  146.0590 Cl  0  0  0  0  0  0  0  0  0  0  0  0
  189.5010  175.5820  147.1700 C   0  0  0  0  0  3  0  0  0  0  0  0
  190.4690  175.2540  144.9030 C   0  0  0  0  0  0  0  0  0  0  0  0
  192.2060  176.3330  146.2460 C   0  0  2  0  0  3  0  0  0  0  0  0
  191.9590  175.6020  147.5210 C   0  0  0  0  0  3  0  0  0  0  0  0
  188.6900  175.2700  141.9290 C   0  0  0  0  0  2  0  0  0  0  0  0
  189.9940  175.4770  142.5390 N   0  0  0  0  0  2  0  0  0  0  0  0
  191.1360  173.4520  143.3240 C   0  0  0  0  0  2  0  0  0  0  0  0
  190.6050  172.4830  142.2770 C   0  0  0  0  0  2  0  0  0  0  0  0
  189.2570  173.1770  140.6510 C   0  0  1  0  0  3  0  0  0  0  0  0
  190.6060  173.0870  141.0170 O   0  0  0  0  0  0  0  0  0  0  0  0
  188.8420  174.6410  140.5500 C   0  0  0  0  0  2  0  0  0  0  0  0
  190.1060  174.5320  143.6420 C   0  0  1  0  0  3  0  0  0  0  0  0
  189.0060  172.4840  139.3410 C   0  0  0  0  0  0  0  0  0  0  0  0
  188.1920  173.1240  138.2650 C   0  0  0  0  0  1  0  0  0  0  0  0
  189.4880  171.3810  139.1450 O   0  0  0  0  0  0  0  0  0  0  0  0
  188.0840  175.8940  145.2520 N   0  0  0  0  0  2  0  0  0  0  0  0
  187.2200  177.9170  143.9560 C   0  0  0  0  0  3  0  0  0  0  0  0
  184.9210  178.1360  147.1700 C   0  0  0  0  0  3  0  0  0  0  0  0
  186.0410  178.7830  145.5160 N   0  0  0  0  0  0  0  0  0  0  0  0
  186.3100  178.8970  144.2290 N   0  0  0  0  0  2  0  0  0  0  0  0
  186.6410  177.7670  146.0580 C   0  0  0  0  0  0  0  0  0  0  0  0
  187.4430  177.1690  145.1250 C   0  0  0  0  0  0  0  0  0  0  0  0
  185.9850  177.2750  147.1180 N   0  0  0  0  0  0  0  0  0  0  0  0
  184.9170  179.0380  146.1470 N   0  0  0  0  0  0  0  0  0  0  0  0
  1  7  1  0  0  0  0
  3  5  2  0  0  0  0
  5  2  1  0  0  0  0
  6  1  2  0  0  0  0
  6  3  1  0  0  0  0
  7  4  1  6  0  0  0
  7  8  1  0  0  0  0
  8  2  2  0  0  0  0
  9 10  1  0  0  0  0
 10 16  1  0  0  0  0
 11 16  1  0  0  0  0
 12 11  1  0  0  0  0
 13 17  1  6  0  0  0
 13 14  1  0  0  0  0
 14 12  1  0  0  0  0
 15 13  1  0  0  0  0
 15  9  1  0  0  0  0
 16  6  1  1  0  0  0
 18 17  1  0  0  0  0
 19 17  2  0  0  0  0
 20  3  1  0  0  0  0
 21 24  1  0  0  0  0
 21 26  2  0  0  0  0
 23 25  1  0  0  0  0
 23 28  1  0  0  0  0
 24 23  1  0  0  0  0
 25 27  2  0  0  0  0
 26 20  1  0  0  0  0
 26 25  1  0  0  0  0
 27 22  1  0  0  0  0
 28 22  2  0  0  0  0
M  END
>  <MODEL>
9

>  <REMARK>
 VINA RESULT:      -6.6      3.143      5.983
  Name = 
  4 active torsions:
  status: ('A' for Active; 'I' for Inactive)
    1  A    between atoms: C_4  and  C_21
    2  A    between atoms: N_9  and  C_10
    3  A    between atoms: N_9  and  C_19
    4  A    between atoms: C_20  and  C_28
                            x       y       z     vdW  Elec       q    Type
                         _______ _______ _______ _____ _____    ______ ____

>  <TORSDO>
F 4

$$$$
