=
 OpenBabel11042418053D

 45 51  0  0  1  0  0  0  0  0999 V2000
  186.7080  176.6860  141.7960 C   0  0  2  0  0  3  0  0  0  0  0  0
  192.0470  170.8230  138.9490 C   0  0  0  0  0  3  0  0  0  0  0  0
  188.4570  175.7240  146.2750 N   0  0  0  0  0  0  0  0  0  0  0  0
  188.3800  174.2920  142.1500 C   0  0  2  0  0  3  0  0  0  0  0  0
  191.0990  170.1240  138.1970 C   0  0  0  0  0  3  0  0  0  0  0  0
  188.4950  176.7100  145.1930 C   0  0  1  0  0  3  0  0  0  0  0  0
  187.6900  177.1800  142.8590 C   0  0  0  0  0  2  0  0  0  0  0  0
  187.3950  176.0220  140.5920 C   0  0  0  0  0  2  0  0  0  0  0  0
  194.2810  173.5710  142.8010 C   0  0  0  0  0  3  0  0  0  0  0  0
  189.7650  170.5340  138.2010 C   0  0  0  0  0  3  0  0  0  0  0  0
  188.0310  172.0210  138.9520 O   0  0  0  0  0  1  0  0  0  0  0  0
  190.1840  177.3870  144.9760 S   0  0  0  0  0  0  0  0  0  0  0  0
  192.6260  172.6610  140.4850 N   0  0  0  0  0  2  0  0  0  0  0  0
  196.0170  175.2450  142.9990 C   0  0  0  0  0  3  0  0  0  0  0  0
  193.5400  176.1160  144.8750 C   0  0  0  0  0  2  0  0  0  0  0  0
  195.8080  173.9560  140.9570 C   0  0  0  0  0  0  0  0  0  0  0  0
  192.0320  176.5750  146.7870 C   0  0  0  0  0  3  0  0  0  0  0  0
  190.8250  176.0920  146.0500 C   0  0  1  0  0  3  0  0  0  0  0  0
  189.1300  174.4640  139.9100 O   0  0  0  0  0  0  0  0  0  0  0  0
  189.9390  173.5270  140.5660 C   0  0  2  0  0  3  0  0  0  0  0  0
  194.4500  174.8990  144.9190 C   0  0  0  0  0  2  0  0  0  0  0  0
  190.3240  172.3620  139.7000 C   0  0  0  0  0  0  0  0  0  0  0  0
  188.6330  175.2210  140.9780 C   0  0  2  0  0  3  0  0  0  0  0  0
  196.2540  173.6730  139.6710 O   0  0  0  0  0  1  0  0  0  0  0  0
  196.4560  174.9440  141.7070 C   0  0  0  0  0  3  0  0  0  0  0  0
  188.8880  174.9720  143.4080 C   0  0  0  0  0  2  0  0  0  0  0  0
  193.9960  172.2280  140.7060 C   0  0  0  0  0  2  0  0  0  0  0  0
  194.9300  174.5600  143.5490 C   0  0  0  0  0  0  0  0  0  0  0  0
  189.3690  171.6450  138.9520 C   0  0  0  0  0  0  0  0  0  0  0  0
  189.9470  174.5790  147.6420 F   0  0  0  0  0  0  0  0  0  0  0  0
  194.7170  173.2640  141.5050 C   0  0  0  0  0  0  0  0  0  0  0  0
  189.2360  173.1000  141.8330 C   0  0  0  0  0  2  0  0  0  0  0  0
  193.2580  176.5980  146.2630 C   0  0  0  0  0  0  0  0  0  0  0  0
  191.6660  171.9410  139.7030 C   0  0  0  0  0  0  0  0  0  0  0  0
  189.7100  175.7910  147.0170 C   0  0  2  0  0  3  0  0  0  0  0  0
  187.9550  176.0880  143.9020 C   0  0  1  0  0  3  0  0  0  0  0  0
  194.3070  177.0870  147.0320 O   0  0  0  0  0  1  0  0  0  0  0  0
  185.8870  177.8020  141.3270 C   0  0  0  0  0  0  0  0  0  0  0  0
  185.2360  178.6850  140.9550 N   0  0  0  0  0  0  0  0  0  0  0  0
  187.3980  176.1330  147.1840 C   0  0  0  0  0  2  0  0  0  0  0  0
  186.7040  177.3730  146.6470 C   0  0  2  0  0  3  0  0  0  0  0  0
  185.6160  179.1860  147.3430 C   0  0  0  0  0  2  0  0  0  0  0  0
  184.5210  178.2790  146.8340 C   0  0  0  0  0  2  0  0  0  0  0  0
  186.7540  178.4080  147.5930 O   0  0  0  0  0  0  0  0  0  0  0  0
  185.2560  177.0610  146.3580 C   0  0  0  0  0  2  0  0  0  0  0  0
  1 38  1  6  0  0  0
  1  7  1  0  0  0  0
  2 34  1  0  0  0  0
  3 35  1  0  0  0  0
  3 40  1  0  0  0  0
  4 32  1  6  0  0  0
  4 26  1  0  0  0  0
  5 10  1  0  0  0  0
  5  2  2  0  0  0  0
  6 12  1  6  0  0  0
  6  3  1  0  0  0  0
  8  1  1  0  0  0  0
  9 28  1  0  0  0  0
 10 29  2  0  0  0  0
 12 18  1  0  0  0  0
 13 27  1  0  0  0  0
 14 28  2  0  0  0  0
 15 21  1  0  0  0  0
 15 33  1  0  0  0  0
 16 31  1  0  0  0  0
 16 25  2  0  0  0  0
 18 17  1  1  0  0  0
 18 35  1  0  0  0  0
 19 20  1  0  0  0  0
 19 23  1  0  0  0  0
 20 32  1  1  0  0  0
 22 34  2  0  0  0  0
 22 20  1  0  0  0  0
 23  8  1  6  0  0  0
 23  4  1  0  0  0  0
 24 16  1  0  0  0  0
 25 14  1  0  0  0  0
 26 36  1  0  0  0  0
 27 31  1  0  0  0  0
 28 21  1  0  0  0  0
 29 11  1  0  0  0  0
 29 22  1  0  0  0  0
 31  9  2  0  0  0  0
 33 17  2  0  0  0  0
 33 37  1  0  0  0  0
 34 13  1  0  0  0  0
 35 30  1  6  0  0  0
 36  7  1  6  0  0  0
 36  6  1  0  0  0  0
 39 38  3  0  0  0  0
 41 40  1  1  0  0  0
 41 44  1  0  0  0  0
 42 44  1  0  0  0  0
 43 42  1  0  0  0  0
 45 41  1  0  0  0  0
 45 43  1  0  0  0  0
M  END
>  <MODEL>
1

>  <REMARK>
 VINA RESULT:     -10.1      0.000      0.000
  Name = 
  3 active torsions:
  status: ('A' for Active; 'I' for Inactive)
    1  A    between atoms: C_1  and  C_19
    2  A    between atoms: C_3  and  C_7
    3  A    between atoms: N_4  and  C_7
                            x       y       z     vdW  Elec       q    Type
                         _______ _______ _______ _____ _____    ______ ____

>  <TORSDO>
F 3

$$$$
=
 OpenBabel11042418053D

 45 51  0  0  1  0  0  0  0  0999 V2000
  187.7950  175.5870  141.2960 C   0  0  2  0  0  3  0  0  0  0  0  0
  193.8100  169.8050  140.1200 C   0  0  0  0  0  3  0  0  0  0  0  0
  189.0260  175.5150  146.0440 N   0  0  0  0  0  0  0  0  0  0  0  0
  189.5580  173.4300  142.2430 C   0  0  2  0  0  3  0  0  0  0  0  0
  193.0100  168.9170  139.3970 C   0  0  0  0  0  3  0  0  0  0  0  0
  189.1370  176.3120  144.8200 C   0  0  1  0  0  3  0  0  0  0  0  0
  188.6040  176.3270  142.3640 C   0  0  0  0  0  2  0  0  0  0  0  0
  188.6690  174.7950  140.3100 C   0  0  0  0  0  2  0  0  0  0  0  0
  195.3640  173.3190  143.6730 C   0  0  0  0  0  3  0  0  0  0  0  0
  191.6630  169.2090  139.1790 C   0  0  0  0  0  3  0  0  0  0  0  0
  189.7580  170.6490  139.4630 O   0  0  0  0  0  1  0  0  0  0  0  0
  190.7930  177.0830  144.6830 S   0  0  0  0  0  0  0  0  0  0  0  0
  194.0740  171.9090  141.3740 N   0  0  0  0  0  2  0  0  0  0  0  0
  196.9520  175.1420  143.7760 C   0  0  0  0  0  3  0  0  0  0  0  0
  194.2090  176.0970  145.1820 C   0  0  0  0  0  2  0  0  0  0  0  0
  197.0830  173.5260  141.9750 C   0  0  0  0  0  0  0  0  0  0  0  0
  192.4470  176.7330  146.8030 C   0  0  0  0  0  3  0  0  0  0  0  0
  191.3740  176.0370  146.0280 C   0  0  1  0  0  3  0  0  0  0  0  0
  190.5710  173.2970  140.1070 O   0  0  0  0  0  0  0  0  0  0  0  0
  191.3490  172.5510  141.0000 C   0  0  2  0  0  3  0  0  0  0  0  0
  195.1810  174.9830  145.5360 C   0  0  0  0  0  2  0  0  0  0  0  0
  191.9120  171.2970  140.3960 C   0  0  0  0  0  0  0  0  0  0  0  0
  189.8970  174.1740  140.9650 C   0  0  2  0  0  3  0  0  0  0  0  0
  197.7050  173.0750  140.8150 O   0  0  0  0  0  1  0  0  0  0  0  0
  197.5680  174.6720  142.6130 C   0  0  0  0  0  3  0  0  0  0  0  0
  189.8600  174.3460  143.4150 C   0  0  0  0  0  2  0  0  0  0  0  0
  195.4300  171.6340  141.8200 C   0  0  0  0  0  2  0  0  0  0  0  0
  195.8500  174.4670  144.3090 C   0  0  0  0  0  0  0  0  0  0  0  0
  191.1070  170.3900  139.6790 C   0  0  0  0  0  0  0  0  0  0  0  0
  190.4010  174.7360  147.7470 F   0  0  0  0  0  0  0  0  0  0  0  0
  195.9780  172.8430  142.5060 C   0  0  0  0  0  0  0  0  0  0  0  0
  190.5210  172.2780  142.2340 C   0  0  0  0  0  2  0  0  0  0  0  0
  193.7250  176.7730  146.4260 C   0  0  0  0  0  0  0  0  0  0  0  0
  193.2670  170.9950  140.6230 C   0  0  0  0  0  0  0  0  0  0  0  0
  190.1680  175.8060  146.9000 C   0  0  2  0  0  3  0  0  0  0  0  0
  188.8040  175.4450  143.6020 C   0  0  1  0  0  3  0  0  0  0  0  0
  194.6360  177.4660  147.2130 O   0  0  0  0  0  1  0  0  0  0  0  0
  186.9710  176.5400  140.5530 C   0  0  0  0  0  0  0  0  0  0  0  0
  186.3170  177.2930  139.9660 N   0  0  0  0  0  0  0  0  0  0  0  0
  187.8370  175.9770  146.7430 C   0  0  0  0  0  2  0  0  0  0  0  0
  187.1900  177.1140  145.9710 C   0  0  2  0  0  3  0  0  0  0  0  0
  185.8940  178.8970  146.2780 C   0  0  0  0  0  2  0  0  0  0  0  0
  184.9650  177.8740  145.6680 C   0  0  0  0  0  2  0  0  0  0  0  0
  187.0050  178.2260  146.8060 O   0  0  0  0  0  0  0  0  0  0  0  0
  185.8410  176.6760  145.4540 C   0  0  0  0  0  2  0  0  0  0  0  0
  1 38  1  6  0  0  0
  1  7  1  0  0  0  0
  2 34  1  0  0  0  0
  3 40  1  0  0  0  0
  3 35  1  0  0  0  0
  4 32  1  1  0  0  0
  4 26  1  0  0  0  0
  5  2  2  0  0  0  0
  6 12  1  6  0  0  0
  6  3  1  0  0  0  0
  8  1  1  0  0  0  0
  9 28  1  0  0  0  0
 10  5  1  0  0  0  0
 10 29  2  0  0  0  0
 11 29  1  0  0  0  0
 12 18  1  0  0  0  0
 13 27  1  0  0  0  0
 14 28  2  0  0  0  0
 15 21  1  0  0  0  0
 15 33  1  0  0  0  0
 16 31  1  0  0  0  0
 16 25  2  0  0  0  0
 18 17  1  1  0  0  0
 18 35  1  0  0  0  0
 19 23  1  0  0  0  0
 19 20  1  0  0  0  0
 20 32  1  1  0  0  0
 22 34  2  0  0  0  0
 22 20  1  0  0  0  0
 23  8  1  6  0  0  0
 23  4  1  0  0  0  0
 24 16  1  0  0  0  0
 25 14  1  0  0  0  0
 26 36  1  0  0  0  0
 27 31  1  0  0  0  0
 28 21  1  0  0  0  0
 29 22  1  0  0  0  0
 31  9  2  0  0  0  0
 33 17  2  0  0  0  0
 33 37  1  0  0  0  0
 34 13  1  0  0  0  0
 35 30  1  1  0  0  0
 36  7  1  6  0  0  0
 36  6  1  0  0  0  0
 39 38  3  0  0  0  0
 41 40  1  1  0  0  0
 41 44  1  0  0  0  0
 42 44  1  0  0  0  0
 43 42  1  0  0  0  0
 45 43  1  0  0  0  0
 45 41  1  0  0  0  0
M  END
>  <MODEL>
2

>  <REMARK>
 VINA RESULT:      -8.8      1.287      1.514
  Name = 
  3 active torsions:
  status: ('A' for Active; 'I' for Inactive)
    1  A    between atoms: C_1  and  C_19
    2  A    between atoms: C_3  and  C_7
    3  A    between atoms: N_4  and  C_7
                            x       y       z     vdW  Elec       q    Type
                         _______ _______ _______ _____ _____    ______ ____

>  <TORSDO>
F 3

$$$$
=
 OpenBabel11042418053D

 45 51  0  0  1  0  0  0  0  0999 V2000
  192.3780  176.1820  144.5110 C   0  0  2  0  0  3  0  0  0  0  0  0
  185.2710  177.8380  140.2980 C   0  0  0  0  0  3  0  0  0  0  0  0
  191.7660  171.5030  143.1740 N   0  0  0  0  0  0  0  0  0  0  0  0
  189.7900  175.3950  143.3530 C   0  0  2  0  0  3  0  0  0  0  0  0
  184.6600  178.5530  141.3310 C   0  0  0  0  0  3  0  0  0  0  0  0
  192.5600  172.7030  142.8990 C   0  0  1  0  0  3  0  0  0  0  0  0
  192.8280  175.1290  143.4970 C   0  0  0  0  0  2  0  0  0  0  0  0
  191.4290  177.2350  143.9160 C   0  0  0  0  0  2  0  0  0  0  0  0
  188.0830  174.2430  137.7380 C   0  0  0  0  0  3  0  0  0  0  0  0
  185.3080  178.6970  142.5590 C   0  0  0  0  0  3  0  0  0  0  0  0
  187.1850  178.2750  144.0010 O   0  0  0  0  0  1  0  0  0  0  0  0
  192.8720  172.8900  141.1030 S   0  0  0  0  0  0  0  0  0  0  0  0
  187.1710  176.5260  139.4380 N   0  0  0  0  0  2  0  0  0  0  0  0
  189.4150  174.1520  135.7200 C   0  0  0  0  0  3  0  0  0  0  0  0
  190.9950  172.5860  138.0580 C   0  0  0  0  0  2  0  0  0  0  0  0
  187.9050  176.0110  136.0880 C   0  0  0  0  0  0  0  0  0  0  0  0
  192.0000  170.8630  139.5280 C   0  0  0  0  0  3  0  0  0  0  0  0
  191.6490  171.6110  140.7730 C   0  0  1  0  0  3  0  0  0  0  0  0
  189.4920  177.5790  142.4900 O   0  0  0  0  0  0  0  0  0  0  0  0
  188.5270  176.7490  141.9060 C   0  0  2  0  0  3  0  0  0  0  0  0
  189.6490  172.3170  137.4050 C   0  0  0  0  0  2  0  0  0  0  0  0
  187.1970  177.4220  141.7190 C   0  0  0  0  0  0  0  0  0  0  0  0
  190.4760  176.6600  142.8740 C   0  0  2  0  0  3  0  0  0  0  0  0
  187.3600  177.2140  135.6510 O   0  0  0  0  0  1  0  0  0  0  0  0
  188.8530  175.3580  135.2930 C   0  0  0  0  0  3  0  0  0  0  0  0
  190.5390  174.2060  142.7760 C   0  0  0  0  0  2  0  0  0  0  0  0
  186.5270  176.1530  138.1900 C   0  0  0  0  0  2  0  0  0  0  0  0
  189.0310  173.5910  136.9420 C   0  0  0  0  0  0  0  0  0  0  0  0
  186.5700  178.1320  142.7620 C   0  0  0  0  0  0  0  0  0  0  0  0
  190.5740  169.8940  141.9960 F   0  0  0  0  0  0  0  0  0  0  0  0
  187.5160  175.4530  137.3150 C   0  0  0  0  0  0  0  0  0  0  0  0
  188.4270  175.4880  142.7320 C   0  0  0  0  0  2  0  0  0  0  0  0
  191.7180  171.2980  138.2990 C   0  0  0  0  0  0  0  0  0  0  0  0
  186.5380  177.2690  140.4860 C   0  0  0  0  0  0  0  0  0  0  0  0
  191.7050  170.6920  141.9660 C   0  0  2  0  0  3  0  0  0  0  0  0
  191.8690  173.9330  143.4940 C   0  0  1  0  0  3  0  0  0  0  0  0
  192.1080  170.5310  137.2090 O   0  0  0  0  0  1  0  0  0  0  0  0
  193.5470  176.8520  145.0780 C   0  0  0  0  0  0  0  0  0  0  0  0
  194.4720  177.3820  145.5290 N   0  0  0  0  0  0  0  0  0  0  0  0
  192.4930  170.7330  144.1710 C   0  0  0  0  0  2  0  0  0  0  0  0
  193.9500  171.1630  144.1970 C   0  0  2  0  0  3  0  0  0  0  0  0
  196.0010  170.3160  144.3630 C   0  0  0  0  0  2  0  0  0  0  0  0
  195.7400  170.9050  145.7290 C   0  0  0  0  0  2  0  0  0  0  0  0
  194.7710  170.1300  143.7200 O   0  0  0  0  0  0  0  0  0  0  0  0
  194.3610  171.4830  145.6140 C   0  0  0  0  0  2  0  0  0  0  0  0
  1 38  1  6  0  0  0
  2 34  2  0  0  0  0
  2  5  1  0  0  0  0
  3 40  1  0  0  0  0
  4 32  1  6  0  0  0
  5 10  2  0  0  0  0
  6 12  1  6  0  0  0
  6  3  1  0  0  0  0
  6 36  1  0  0  0  0
  7  1  1  0  0  0  0
  8  1  1  0  0  0  0
 10 29  1  0  0  0  0
 13 34  1  0  0  0  0
 14 28  1  0  0  0  0
 15 33  1  0  0  0  0
 16 31  2  0  0  0  0
 18 17  1  6  0  0  0
 18 12  1  0  0  0  0
 18 35  1  0  0  0  0
 19 23  1  0  0  0  0
 20 19  1  0  0  0  0
 20 32  1  1  0  0  0
 21 15  1  0  0  0  0
 22 20  1  0  0  0  0
 22 29  2  0  0  0  0
 23  4  1  0  0  0  0
 23  8  1  1  0  0  0
 24 16  1  0  0  0  0
 25 14  2  0  0  0  0
 25 16  1  0  0  0  0
 26  4  1  0  0  0  0
 27 13  1  0  0  0  0
 28 21  1  0  0  0  0
 28  9  2  0  0  0  0
 29 11  1  0  0  0  0
 31  9  1  0  0  0  0
 31 27  1  0  0  0  0
 33 17  2  0  0  0  0
 34 22  1  0  0  0  0
 35 30  1  1  0  0  0
 35  3  1  0  0  0  0
 36 26  1  6  0  0  0
 36  7  1  0  0  0  0
 37 33  1  0  0  0  0
 38 39  3  0  0  0  0
 41 40  1  1  0  0  0
 41 45  1  0  0  0  0
 42 43  1  0  0  0  0
 44 41  1  0  0  0  0
 44 42  1  0  0  0  0
 45 43  1  0  0  0  0
M  END
>  <MODEL>
3

>  <REMARK>
 VINA RESULT:      -8.7      3.381      8.426
  Name = 
  3 active torsions:
  status: ('A' for Active; 'I' for Inactive)
    1  A    between atoms: C_1  and  C_19
    2  A    between atoms: C_3  and  C_7
    3  A    between atoms: N_4  and  C_7
                            x       y       z     vdW  Elec       q    Type
                         _______ _______ _______ _____ _____    ______ ____

>  <TORSDO>
F 3

$$$$
=
 OpenBabel11042418053D

 45 51  0  0  1  0  0  0  0  0999 V2000
  191.8730  170.7590  142.0790 C   0  0  2  0  0  3  0  0  0  0  0  0
  186.5810  176.6830  139.2720 C   0  0  0  0  0  3  0  0  0  0  0  0
  194.3460  174.3840  144.2710 N   0  0  0  0  0  0  0  0  0  0  0  0
  191.2160  173.5310  141.3460 C   0  0  2  0  0  3  0  0  0  0  0  0
  186.6060  176.2720  137.9370 C   0  0  0  0  0  3  0  0  0  0  0  0
  193.4320  173.2690  144.5310 C   0  0  1  0  0  3  0  0  0  0  0  0
  192.0790  171.4650  143.4210 C   0  0  0  0  0  2  0  0  0  0  0  0
  190.5320  171.0990  141.4110 C   0  0  0  0  0  2  0  0  0  0  0  0
  188.1070  177.8020  144.1510 C   0  0  0  0  0  3  0  0  0  0  0  0
  187.4170  175.2040  137.5510 C   0  0  0  0  0  3  0  0  0  0  0  0
  189.0180  173.4890  138.0800 O   0  0  0  0  0  1  0  0  0  0  0  0
  192.1890  173.7160  145.8010 S   0  0  0  0  0  0  0  0  0  0  0  0
  187.3510  176.4400  141.5990 N   0  0  0  0  0  2  0  0  0  0  0  0
  187.1180  177.7770  146.3590 C   0  0  0  0  0  3  0  0  0  0  0  0
  190.0870  176.5260  146.5550 C   0  0  0  0  0  2  0  0  0  0  0  0
  185.6990  177.6490  144.3990 C   0  0  0  0  0  0  0  0  0  0  0  0
  192.5000  176.1450  146.9650 C   0  0  0  0  0  3  0  0  0  0  0  0
  192.6890  175.4400  145.6610 C   0  0  1  0  0  3  0  0  0  0  0  0
  188.9880  172.8930  140.8610 O   0  0  0  0  0  0  0  0  0  0  0  0
  189.0410  174.2920  140.8850 C   0  0  2  0  0  3  0  0  0  0  0  0
  189.6080  177.9120  146.1530 C   0  0  0  0  0  2  0  0  0  0  0  0
  188.1720  174.9390  139.8450 C   0  0  0  0  0  0  0  0  0  0  0  0
  190.1010  172.5440  141.6350 C   0  0  2  0  0  3  0  0  0  0  0  0
  184.4260  177.5510  143.8490 O   0  0  0  0  0  1  0  0  0  0  0  0
  185.8450  177.6850  145.7900 C   0  0  0  0  0  3  0  0  0  0  0  0
  191.8610  173.9130  142.6660 C   0  0  0  0  0  2  0  0  0  0  0  0
  186.6950  177.6420  142.0870 C   0  0  0  0  0  2  0  0  0  0  0  0
  188.2510  177.8370  145.5420 C   0  0  0  0  0  0  0  0  0  0  0  0
  188.2050  174.5380  138.4940 C   0  0  0  0  0  0  0  0  0  0  0  0
  194.5440  176.6350  144.8100 F   0  0  0  0  0  0  0  0  0  0  0  0
  186.8320  177.7090  143.5730 C   0  0  0  0  0  0  0  0  0  0  0  0
  190.4880  174.7130  140.7740 C   0  0  0  0  0  2  0  0  0  0  0  0
  191.3300  176.6300  147.3810 C   0  0  0  0  0  0  0  0  0  0  0  0
  187.3610  176.0220  140.2290 C   0  0  0  0  0  0  0  0  0  0  0  0
  194.1500  175.4010  145.2960 C   0  0  2  0  0  3  0  0  0  0  0  0
  192.7790  172.8140  143.2220 C   0  0  1  0  0  3  0  0  0  0  0  0
  191.2640  177.2520  148.6220 O   0  0  0  0  0  1  0  0  0  0  0  0
  191.9670  169.3110  142.2640 C   0  0  0  0  0  0  0  0  0  0  0  0
  192.0420  168.1660  142.4120 N   0  0  0  0  0  0  0  0  0  0  0  0
  195.6970  173.8700  144.4300 C   0  0  0  0  0  2  0  0  0  0  0  0
  196.6070  174.4660  143.3690 C   0  0  2  0  0  3  0  0  0  0  0  0
  197.4820  176.4120  142.7350 C   0  0  0  0  0  2  0  0  0  0  0  0
  196.3760  176.1690  141.7360 C   0  0  0  0  0  2  0  0  0  0  0  0
  197.2420  175.6160  143.8630 O   0  0  0  0  0  0  0  0  0  0  0  0
  195.7920  174.8540  142.1590 C   0  0  0  0  0  2  0  0  0  0  0  0
  1 38  1  1  0  0  0
  1  7  1  0  0  0  0
  2 34  1  0  0  0  0
  3 40  1  0  0  0  0
  3  6  1  0  0  0  0
  3 35  1  0  0  0  0
  4 32  1  1  0  0  0
  4 23  1  0  0  0  0
  4 26  1  0  0  0  0
  5  2  2  0  0  0  0
  6 12  1  1  0  0  0
  8  1  1  0  0  0  0
  9 28  1  0  0  0  0
 10  5  1  0  0  0  0
 10 29  2  0  0  0  0
 11 29  1  0  0  0  0
 13 27  1  0  0  0  0
 15 33  1  0  0  0  0
 16 25  2  0  0  0  0
 17 33  2  0  0  0  0
 18 12  1  0  0  0  0
 18 17  1  1  0  0  0
 19 20  1  0  0  0  0
 19 23  1  0  0  0  0
 20 32  1  6  0  0  0
 21 15  1  0  0  0  0
 22 34  2  0  0  0  0
 22 20  1  0  0  0  0
 23  8  1  6  0  0  0
 24 16  1  0  0  0  0
 25 14  1  0  0  0  0
 27 31  1  0  0  0  0
 28 21  1  0  0  0  0
 28 14  2  0  0  0  0
 29 22  1  0  0  0  0
 31  9  2  0  0  0  0
 31 16  1  0  0  0  0
 33 37  1  0  0  0  0
 34 13  1  0  0  0  0
 35 30  1  6  0  0  0
 35 18  1  0  0  0  0
 36 26  1  1  0  0  0
 36  7  1  0  0  0  0
 36  6  1  0  0  0  0
 38 39  3  0  0  0  0
 41 44  1  0  0  0  0
 41 40  1  1  0  0  0
 42 44  1  0  0  0  0
 43 45  1  0  0  0  0
 43 42  1  0  0  0  0
 45 41  1  0  0  0  0
M  END
>  <MODEL>
4

>  <REMARK>
 VINA RESULT:      -8.5      2.483      7.593
  Name = 
  3 active torsions:
  status: ('A' for Active; 'I' for Inactive)
    1  A    between atoms: C_1  and  C_19
    2  A    between atoms: C_3  and  C_7
    3  A    between atoms: N_4  and  C_7
                            x       y       z     vdW  Elec       q    Type
                         _______ _______ _______ _____ _____    ______ ____

>  <TORSDO>
F 3

$$$$
=
 OpenBabel11042418053D

 45 51  0  0  1  0  0  0  0  0999 V2000
  188.4660  175.1230  141.6790 C   0  0  2  0  0  3  0  0  0  0  0  0
  193.1070  170.0550  136.8040 C   0  0  0  0  0  3  0  0  0  0  0  0
  192.0480  174.7590  145.0090 N   0  0  0  0  0  0  0  0  0  0  0  0
  190.5330  173.0680  141.2780 C   0  0  2  0  0  3  0  0  0  0  0  0
  192.0750  169.1610  136.5100 C   0  0  0  0  0  3  0  0  0  0  0  0
  191.4590  175.6650  144.0200 C   0  0  1  0  0  3  0  0  0  0  0  0
  189.6940  175.8410  142.2400 C   0  0  0  0  0  2  0  0  0  0  0  0
  188.7010  174.5040  140.2920 C   0  0  0  0  0  2  0  0  0  0  0  0
  196.2020  173.3820  139.3990 C   0  0  0  0  0  3  0  0  0  0  0  0
  190.8110  169.3420  137.0740 C   0  0  0  0  0  3  0  0  0  0  0  0
  189.3070  170.5660  138.4960 O   0  0  0  0  0  1  0  0  0  0  0  0
  192.7580  176.5980  143.1250 S   0  0  0  0  0  0  0  0  0  0  0  0
  193.9300  172.0600  137.9760 N   0  0  0  0  0  2  0  0  0  0  0  0
  197.5350  175.3310  138.8710 C   0  0  0  0  0  3  0  0  0  0  0  0
  195.9410  175.8990  141.6190 C   0  0  0  0  0  2  0  0  0  0  0  0
  196.7370  173.8950  137.0900 C   0  0  0  0  0  0  0  0  0  0  0  0
  195.3000  176.2250  143.9900 C   0  0  0  0  0  3  0  0  0  0  0  0
  194.0040  175.5000  143.8200 C   0  0  1  0  0  3  0  0  0  0  0  0
  190.2480  173.2150  138.9320 O   0  0  0  0  0  0  0  0  0  0  0  0
  191.4090  172.4710  139.1800 C   0  0  2  0  0  3  0  0  0  0  0  0
  196.9890  174.8560  141.2660 C   0  0  0  0  0  2  0  0  0  0  0  0
  191.6030  171.3320  138.2210 C   0  0  0  0  0  0  0  0  0  0  0  0
  190.1100  173.9470  140.1170 C   0  0  2  0  0  3  0  0  0  0  0  0
  196.6550  173.6060  135.7320 O   0  0  0  0  0  1  0  0  0  0  0  0
  197.4480  175.0230  137.5110 C   0  0  0  0  0  3  0  0  0  0  0  0
  191.3840  173.9040  142.2160 C   0  0  0  0  0  2  0  0  0  0  0  0
  195.3220  171.8760  137.6010 C   0  0  0  0  0  2  0  0  0  0  0  0
  196.9140  174.5120  139.8180 C   0  0  0  0  0  0  0  0  0  0  0  0
  190.5700  170.4190  137.9330 C   0  0  0  0  0  0  0  0  0  0  0  0
  194.1460  173.9710  145.6180 F   0  0  0  0  0  0  0  0  0  0  0  0
  196.1110  173.0680  138.0360 C   0  0  0  0  0  0  0  0  0  0  0  0
  191.3800  172.0170  140.6210 C   0  0  0  0  0  2  0  0  0  0  0  0
  196.1760  176.4180  143.0020 C   0  0  0  0  0  0  0  0  0  0  0  0
  192.8780  171.1410  137.6600 C   0  0  0  0  0  0  0  0  0  0  0  0
  193.4610  175.0820  145.1610 C   0  0  2  0  0  3  0  0  0  0  0  0
  190.5560  174.8790  143.0660 C   0  0  1  0  0  3  0  0  0  0  0  0
  197.3430  177.1220  143.2680 O   0  0  0  0  0  1  0  0  0  0  0  0
  187.3400  176.0540  141.6070 C   0  0  0  0  0  0  0  0  0  0  0  0
  186.4500  176.7920  141.5500 N   0  0  0  0  0  0  0  0  0  0  0  0
  191.4040  175.0460  146.2810 C   0  0  0  0  0  2  0  0  0  0  0  0
  190.1850  175.9260  146.0590 C   0  0  2  0  0  3  0  0  0  0  0  0
  188.8820  177.3790  147.1290 C   0  0  0  0  0  2  0  0  0  0  0  0
  188.0550  176.1170  147.0810 C   0  0  0  0  0  2  0  0  0  0  0  0
  190.2240  177.0360  146.9150 O   0  0  0  0  0  0  0  0  0  0  0  0
  188.9300  175.1400  146.3540 C   0  0  0  0  0  2  0  0  0  0  0  0
  1 38  1  6  0  0  0
  1  7  1  0  0  0  0
  2 34  1  0  0  0  0
  3 35  1  0  0  0  0
  3 40  1  0  0  0  0
  4 32  1  6  0  0  0
  4 26  1  0  0  0  0
  5  2  2  0  0  0  0
  5 10  1  0  0  0  0
  6 12  1  6  0  0  0
  6  3  1  0  0  0  0
  7 36  1  0  0  0  0
  8  1  1  0  0  0  0
  9 28  1  0  0  0  0
 10 29  2  0  0  0  0
 12 18  1  0  0  0  0
 14 28  2  0  0  0  0
 15 33  1  0  0  0  0
 16 25  2  0  0  0  0
 16 31  1  0  0  0  0
 18 17  1  1  0  0  0
 18 35  1  0  0  0  0
 19 20  1  0  0  0  0
 19 23  1  0  0  0  0
 20 32  1  1  0  0  0
 21 15  1  0  0  0  0
 22 20  1  0  0  0  0
 23  8  1  1  0  0  0
 23  4  1  0  0  0  0
 24 16  1  0  0  0  0
 25 14  1  0  0  0  0
 27 13  1  0  0  0  0
 27 31  1  0  0  0  0
 28 21  1  0  0  0  0
 29 22  1  0  0  0  0
 29 11  1  0  0  0  0
 31  9  2  0  0  0  0
 33 37  1  0  0  0  0
 33 17  2  0  0  0  0
 34 13  1  0  0  0  0
 34 22  2  0  0  0  0
 35 30  1  6  0  0  0
 36 26  1  6  0  0  0
 36  6  1  0  0  0  0
 39 38  3  0  0  0  0
 41 40  1  1  0  0  0
 41 45  1  0  0  0  0
 41 44  1  0  0  0  0
 43 42  1  0  0  0  0
 44 42  1  0  0  0  0
 45 43  1  0  0  0  0
M  END
>  <MODEL>
5

>  <REMARK>
 VINA RESULT:      -8.0      2.325      3.425
  Name = 
  3 active torsions:
  status: ('A' for Active; 'I' for Inactive)
    1  A    between atoms: C_1  and  C_19
    2  A    between atoms: C_3  and  C_7
    3  A    between atoms: N_4  and  C_7
                            x       y       z     vdW  Elec       q    Type
                         _______ _______ _______ _____ _____    ______ ____

>  <TORSDO>
F 3

$$$$
=
 OpenBabel11042418053D

 45 51  0  0  1  0  0  0  0  0999 V2000
  195.5590  175.2010  143.4150 C   0  0  2  0  0  3  0  0  0  0  0  0
  187.6620  177.2890  145.4810 C   0  0  0  0  0  3  0  0  0  0  0  0
  193.6880  171.0910  141.5000 N   0  0  0  0  0  0  0  0  0  0  0  0
  192.7610  174.5290  144.0290 C   0  0  2  0  0  3  0  0  0  0  0  0
  187.9430  177.5980  146.8130 C   0  0  0  0  0  3  0  0  0  0  0  0
  194.2560  172.3940  141.1430 C   0  0  1  0  0  3  0  0  0  0  0  0
  195.1280  174.5480  142.1010 C   0  0  0  0  0  2  0  0  0  0  0  0
  194.5810  176.2790  143.9100 C   0  0  0  0  0  2  0  0  0  0  0  0
  187.7340  174.9250  140.8130 C   0  0  0  0  0  3  0  0  0  0  0  0
  189.2380  177.4380  147.3090 C   0  0  0  0  0  3  0  0  0  0  0  0
  191.5370  176.8030  147.0010 O   0  0  0  0  0  1  0  0  0  0  0  0
  193.3650  173.1360  139.7250 S   0  0  0  0  0  0  0  0  0  0  0  0
  188.3990  176.4940  143.2680 N   0  0  0  0  0  2  0  0  0  0  0  0
  187.4420  175.5740  138.5000 C   0  0  0  0  0  3  0  0  0  0  0  0
  189.9550  173.5570  138.6850 C   0  0  0  0  0  2  0  0  0  0  0  0
  186.7500  177.0740  140.2730 C   0  0  0  0  0  0  0  0  0  0  0  0
  191.4560  171.5890  138.5790 C   0  0  0  0  0  3  0  0  0  0  0  0
  192.0750  171.8930  139.9050 C   0  0  1  0  0  3  0  0  0  0  0  0
  192.2380  176.8290  144.2440 O   0  0  0  0  0  0  0  0  0  0  0  0
  191.0340  176.1140  144.2100 C   0  0  2  0  0  3  0  0  0  0  0  0
  188.4830  173.3560  139.0090 C   0  0  0  0  0  2  0  0  0  0  0  0
  189.9850  176.6710  145.1280 C   0  0  0  0  0  0  0  0  0  0  0  0
  193.1230  175.9440  143.6170 C   0  0  2  0  0  3  0  0  0  0  0  0
  186.1980  178.2890  140.6640 O   0  0  0  0  0  1  0  0  0  0  0  0
  186.8830  176.7870  138.9100 C   0  0  0  0  0  3  0  0  0  0  0  0
  192.8200  173.6500  142.7930 C   0  0  0  0  0  2  0  0  0  0  0  0
  187.0670  176.4440  142.6890 C   0  0  0  0  0  2  0  0  0  0  0  0
  187.8670  174.6400  139.4490 C   0  0  0  0  0  0  0  0  0  0  0  0
  190.2600  176.9710  146.4770 C   0  0  0  0  0  0  0  0  0  0  0  0
  191.8400  169.7910  140.9620 F   0  0  0  0  0  0  0  0  0  0  0  0
  187.1750  176.1410  141.2300 C   0  0  0  0  0  0  0  0  0  0  0  0
  191.3390  174.6610  144.4930 C   0  0  0  0  0  2  0  0  0  0  0  0
  190.5060  172.3380  138.0160 C   0  0  0  0  0  0  0  0  0  0  0  0
  188.6770  176.8240  144.6340 C   0  0  0  0  0  0  0  0  0  0  0  0
  192.7730  170.6730  140.4460 C   0  0  2  0  0  3  0  0  0  0  0  0
  194.2570  173.3140  142.3670 C   0  0  1  0  0  3  0  0  0  0  0  0
  190.0140  171.9720  136.7700 O   0  0  0  0  0  1  0  0  0  0  0  0
  196.8890  175.7890  143.2600 C   0  0  0  0  0  0  0  0  0  0  0  0
  197.9410  176.2540  143.1370 N   0  0  0  0  0  0  0  0  0  0  0  0
  194.7880  170.1400  141.5140 C   0  0  0  0  0  2  0  0  0  0  0  0
  195.0620  169.6850  142.9380 C   0  0  2  0  0  3  0  0  0  0  0  0
  194.4960  170.1460  145.0410 C   0  0  0  0  0  2  0  0  0  0  0  0
  195.8790  170.7360  144.8990 C   0  0  0  0  0  2  0  0  0  0  0  0
  193.9600  169.9650  143.7590 O   0  0  0  0  0  0  0  0  0  0  0  0
  196.2630  170.4180  143.4850 C   0  0  0  0  0  2  0  0  0  0  0  0
  1 38  1  6  0  0  0
  1  8  1  0  0  0  0
  2  5  1  0  0  0  0
  3 40  1  0  0  0  0
  4 26  1  6  0  0  0
  4 32  1  0  0  0  0
  5 10  2  0  0  0  0
  6 12  1  6  0  0  0
  6  3  1  0  0  0  0
  6 36  1  0  0  0  0
  7  1  1  0  0  0  0
  9 31  1  0  0  0  0
 12 18  1  0  0  0  0
 13 34  1  0  0  0  0
 14 25  2  0  0  0  0
 14 28  1  0  0  0  0
 15 21  1  0  0  0  0
 16 24  1  0  0  0  0
 16 31  2  0  0  0  0
 18 17  1  6  0  0  0
 18 35  1  0  0  0  0
 20 19  1  0  0  0  0
 20 32  1  1  0  0  0
 20 22  1  0  0  0  0
 21 28  1  0  0  0  0
 22 29  2  0  0  0  0
 23  8  1  1  0  0  0
 23  4  1  0  0  0  0
 23 19  1  0  0  0  0
 25 16  1  0  0  0  0
 27 13  1  0  0  0  0
 28  9  2  0  0  0  0
 29 11  1  0  0  0  0
 29 10  1  0  0  0  0
 31 27  1  0  0  0  0
 33 17  2  0  0  0  0
 33 15  1  0  0  0  0
 34 22  1  0  0  0  0
 34  2  2  0  0  0  0
 35 30  1  1  0  0  0
 35  3  1  0  0  0  0
 36  7  1  6  0  0  0
 36 26  1  0  0  0  0
 37 33  1  0  0  0  0
 39 38  3  0  0  0  0
 41 40  1  6  0  0  0
 41 45  1  0  0  0  0
 41 44  1  0  0  0  0
 43 42  1  0  0  0  0
 44 42  1  0  0  0  0
 45 43  1  0  0  0  0
M  END
>  <MODEL>
6

>  <REMARK>
 VINA RESULT:      -7.7      2.988      9.270
  Name = 
  3 active torsions:
  status: ('A' for Active; 'I' for Inactive)
    1  A    between atoms: C_1  and  C_19
    2  A    between atoms: C_3  and  C_7
    3  A    between atoms: N_4  and  C_7
                            x       y       z     vdW  Elec       q    Type
                         _______ _______ _______ _____ _____    ______ ____

>  <TORSDO>
F 3

$$$$
=
 OpenBabel11042418053D

 45 51  0  0  1  0  0  0  0  0999 V2000
  196.3720  174.8060  143.1730 C   0  0  2  0  0  3  0  0  0  0  0  0
  195.3200  173.3990  134.9330 C   0  0  0  0  0  3  0  0  0  0  0  0
  191.7620  176.4820  143.2040 N   0  0  0  0  0  0  0  0  0  0  0  0
  195.0590  175.3120  140.5890 C   0  0  2  0  0  3  0  0  0  0  0  0
  196.4940  174.0400  134.5310 C   0  0  0  0  0  3  0  0  0  0  0  0
  192.5940  175.3420  143.5960 C   0  0  1  0  0  3  0  0  0  0  0  0
  194.9290  174.4180  143.5050 C   0  0  0  0  0  2  0  0  0  0  0  0
  196.8960  174.1550  141.8830 C   0  0  0  0  0  2  0  0  0  0  0  0
  190.9120  172.2830  137.5240 C   0  0  0  0  0  3  0  0  0  0  0  0
  197.3130  174.6560  135.4790 C   0  0  0  0  0  3  0  0  0  0  0  0
  197.7910  175.2700  137.7540 O   0  0  0  0  0  1  0  0  0  0  0  0
  191.7260  173.7570  143.2910 S   0  0  0  0  0  0  0  0  0  0  0  0
  193.7560  172.7200  136.7110 N   0  0  0  0  0  2  0  0  0  0  0  0
  189.6910  170.2910  138.1550 C   0  0  0  0  0  3  0  0  0  0  0  0
  189.7390  172.3030  140.6790 C   0  0  0  0  0  2  0  0  0  0  0  0
  191.4270  170.1610  136.4690 C   0  0  0  0  0  0  0  0  0  0  0  0
  189.1610  173.9520  142.4350 C   0  0  0  0  0  3  0  0  0  0  0  0
  190.4840  174.6400  142.3320 C   0  0  1  0  0  3  0  0  0  0  0  0
  196.3630  173.6160  139.5750 O   0  0  0  0  0  0  0  0  0  0  0  0
  195.3470  173.9720  138.6800 C   0  0  2  0  0  3  0  0  0  0  0  0
  189.1420  172.4540  139.2880 C   0  0  0  0  0  2  0  0  0  0  0  0
  195.7910  173.9760  137.2460 C   0  0  0  0  0  0  0  0  0  0  0  0
  195.8290  174.0230  140.8030 C   0  0  2  0  0  3  0  0  0  0  0  0
  192.1660  169.4000  135.5690 O   0  0  0  0  0  1  0  0  0  0  0  0
  190.4390  169.5430  137.2420 C   0  0  0  0  0  3  0  0  0  0  0  0
  193.7560  175.2170  141.3620 C   0  0  0  0  0  2  0  0  0  0  0  0
  192.7370  172.2070  135.8100 C   0  0  0  0  0  2  0  0  0  0  0  0
  189.9250  171.6620  138.2980 C   0  0  0  0  0  0  0  0  0  0  0  0
  196.9670  174.6330  136.8330 C   0  0  0  0  0  0  0  0  0  0  0  0
  189.7670  176.8800  142.0840 F   0  0  0  0  0  0  0  0  0  0  0  0
  191.6660  171.5370  136.6070 C   0  0  0  0  0  0  0  0  0  0  0  0
  194.7800  175.3040  139.1140 C   0  0  0  0  0  2  0  0  0  0  0  0
  188.8190  172.8920  141.7000 C   0  0  0  0  0  0  0  0  0  0  0  0
  194.9620  173.3650  136.2870 C   0  0  0  0  0  0  0  0  0  0  0  0
  190.4070  176.0110  142.9500 C   0  0  2  0  0  3  0  0  0  0  0  0
  193.9420  175.4070  142.8740 C   0  0  1  0  0  3  0  0  0  0  0  0
  187.5680  172.3190  141.8910 O   0  0  0  0  0  1  0  0  0  0  0  0
  197.2480  174.4450  144.2870 C   0  0  0  0  0  0  0  0  0  0  0  0
  197.9410  174.1610  145.1690 N   0  0  0  0  0  0  0  0  0  0  0  0
  191.6980  177.3740  144.3520 C   0  0  0  0  0  2  0  0  0  0  0  0
  190.9060  176.7210  145.4720 C   0  0  2  0  0  3  0  0  0  0  0  0
  189.6900  177.2410  147.2620 C   0  0  0  0  0  2  0  0  0  0  0  0
  191.0060  176.7770  147.8400 C   0  0  0  0  0  2  0  0  0  0  0  0
  189.8940  177.5830  145.9190 O   0  0  0  0  0  0  0  0  0  0  0  0
  191.8210  176.4180  146.6340 C   0  0  0  0  0  2  0  0  0  0  0  0
  1  7  1  0  0  0  0
  1 38  1  1  0  0  0
  2 34  1  0  0  0  0
  3  6  1  0  0  0  0
  3 40  1  0  0  0  0
  4 32  1  6  0  0  0
  4 23  1  0  0  0  0
  4 26  1  0  0  0  0
  5  2  2  0  0  0  0
  5 10  1  0  0  0  0
  6 12  1  6  0  0  0
  8  1  1  0  0  0  0
  9 28  1  0  0  0  0
 10 29  2  0  0  0  0
 14 28  2  0  0  0  0
 15 33  1  0  0  0  0
 16 31  1  0  0  0  0
 16 25  2  0  0  0  0
 18 17  1  1  0  0  0
 18 35  1  0  0  0  0
 18 12  1  0  0  0  0
 19 23  1  0  0  0  0
 20 32  1  1  0  0  0
 20 19  1  0  0  0  0
 21 15  1  0  0  0  0
 22 20  1  0  0  0  0
 23  8  1  1  0  0  0
 24 16  1  0  0  0  0
 25 14  1  0  0  0  0
 27 31  1  0  0  0  0
 27 13  1  0  0  0  0
 28 21  1  0  0  0  0
 29 22  1  0  0  0  0
 29 11  1  0  0  0  0
 31  9  2  0  0  0  0
 33 37  1  0  0  0  0
 33 17  2  0  0  0  0
 34 13  1  0  0  0  0
 34 22  2  0  0  0  0
 35 30  1  6  0  0  0
 35  3  1  0  0  0  0
 36 26  1  6  0  0  0
 36  7  1  0  0  0  0
 36  6  1  0  0  0  0
 38 39  3  0  0  0  0
 41 40  1  6  0  0  0
 41 44  1  0  0  0  0
 41 45  1  0  0  0  0
 42 43  1  0  0  0  0
 44 42  1  0  0  0  0
 45 43  1  0  0  0  0
M  END
>  <MODEL>
7

>  <REMARK>
 VINA RESULT:      -7.6      3.162      7.253
  Name = 
  3 active torsions:
  status: ('A' for Active; 'I' for Inactive)
    1  A    between atoms: C_1  and  C_19
    2  A    between atoms: C_3  and  C_7
    3  A    between atoms: N_4  and  C_7
                            x       y       z     vdW  Elec       q    Type
                         _______ _______ _______ _____ _____    ______ ____

>  <TORSDO>
F 3

$$$$
=
 OpenBabel11042418053D

 45 51  0  0  1  0  0  0  0  0999 V2000
  195.7330  175.5130  143.5860 C   0  0  2  0  0  3  0  0  0  0  0  0
  187.4030  176.2730  142.5730 C   0  0  0  0  0  3  0  0  0  0  0  0
  195.0590  170.6650  143.2840 N   0  0  0  0  0  0  0  0  0  0  0  0
  192.9830  174.4800  143.7440 C   0  0  2  0  0  3  0  0  0  0  0  0
  187.2080  177.1300  143.6580 C   0  0  0  0  0  3  0  0  0  0  0  0
  195.5560  171.8240  142.5390 C   0  0  1  0  0  3  0  0  0  0  0  0
  195.8210  174.3210  142.6310 C   0  0  0  0  0  2  0  0  0  0  0  0
  194.5310  176.4300  143.3070 C   0  0  0  0  0  2  0  0  0  0  0  0
  189.2300  172.3850  139.5850 C   0  0  0  0  0  3  0  0  0  0  0  0
  188.2880  177.4900  144.4670 C   0  0  0  0  0  3  0  0  0  0  0  0
  190.6220  177.3570  145.0270 O   0  0  0  0  0  1  0  0  0  0  0  0
  195.0820  171.7250  140.7720 S   0  0  0  0  0  0  0  0  0  0  0  0
  188.8930  174.8890  141.1810 N   0  0  0  0  0  2  0  0  0  0  0  0
  189.6160  172.0020  137.2270 C   0  0  0  0  0  3  0  0  0  0  0  0
  192.1560  170.8800  138.8720 C   0  0  0  0  0  2  0  0  0  0  0  0
  188.2270  173.8560  137.9380 C   0  0  0  0  0  0  0  0  0  0  0  0
  193.8300  169.4460  140.0030 C   0  0  0  0  0  3  0  0  0  0  0  0
  193.9550  170.3770  141.1660 C   0  0  1  0  0  3  0  0  0  0  0  0
  192.1560  176.4860  142.7960 O   0  0  0  0  0  0  0  0  0  0  0  0
  191.1170  175.5470  142.7930 C   0  0  2  0  0  3  0  0  0  0  0  0
  190.6910  170.4720  138.8900 C   0  0  0  0  0  2  0  0  0  0  0  0
  189.7730  176.1450  143.0930 C   0  0  0  0  0  0  0  0  0  0  0  0
  193.2910  175.6680  142.8530 C   0  0  2  0  0  3  0  0  0  0  0  0
  187.4420  174.9560  137.6120 O   0  0  0  0  0  1  0  0  0  0  0  0
  188.8190  173.1070  136.9160 C   0  0  0  0  0  3  0  0  0  0  0  0
  193.5340  173.2340  143.0740 C   0  0  0  0  0  2  0  0  0  0  0  0
  187.8300  174.3020  140.3840 C   0  0  0  0  0  2  0  0  0  0  0  0
  189.8230  171.6380  138.5610 C   0  0  0  0  0  0  0  0  0  0  0  0
  189.5680  176.9980  144.1950 C   0  0  0  0  0  0  0  0  0  0  0  0
  193.6420  168.8550  142.9490 F   0  0  0  0  0  0  0  0  0  0  0  0
  188.4300  173.4950  139.2790 C   0  0  0  0  0  0  0  0  0  0  0  0
  191.4830  174.4350  143.7480 C   0  0  0  0  0  2  0  0  0  0  0  0
  193.0290  169.6680  138.9600 C   0  0  0  0  0  0  0  0  0  0  0  0
  188.6820  175.7760  142.2860 C   0  0  0  0  0  0  0  0  0  0  0  0
  194.5820  169.6660  142.3370 C   0  0  2  0  0  3  0  0  0  0  0  0
  195.0610  173.1160  143.1950 C   0  0  1  0  0  3  0  0  0  0  0  0
  193.0040  168.7440  137.9240 O   0  0  0  0  0  1  0  0  0  0  0  0
  196.9650  176.2980  143.5100 C   0  0  0  0  0  0  0  0  0  0  0  0
  197.9400  176.9190  143.4490 N   0  0  0  0  0  0  0  0  0  0  0  0
  196.2000  170.0870  143.9770 C   0  0  0  0  0  2  0  0  0  0  0  0
  196.0240  170.2340  145.4790 C   0  0  2  0  0  3  0  0  0  0  0  0
  196.4850  169.1840  147.3870 C   0  0  0  0  0  2  0  0  0  0  0  0
  195.0120  168.9270  147.1780 C   0  0  0  0  0  2  0  0  0  0  0  0
  197.0470  169.5560  146.1580 O   0  0  0  0  0  0  0  0  0  0  0  0
  194.7000  169.6410  145.8970 C   0  0  0  0  0  2  0  0  0  0  0  0
  1 38  1  6  0  0  0
  2  5  1  0  0  0  0
  3 40  1  0  0  0  0
  4 26  1  6  0  0  0
  4 32  1  0  0  0  0
  5 10  2  0  0  0  0
  6 12  1  6  0  0  0
  6 36  1  0  0  0  0
  6  3  1  0  0  0  0
  7  1  1  0  0  0  0
  8  1  1  0  0  0  0
 12 18  1  0  0  0  0
 13 34  1  0  0  0  0
 14 28  1  0  0  0  0
 15 21  1  0  0  0  0
 15 33  1  0  0  0  0
 16 31  2  0  0  0  0
 18 17  1  6  0  0  0
 18 35  1  0  0  0  0
 19 23  1  0  0  0  0
 20 19  1  0  0  0  0
 20 22  1  0  0  0  0
 20 32  1  1  0  0  0
 22 29  2  0  0  0  0
 23  8  1  1  0  0  0
 23  4  1  0  0  0  0
 24 16  1  0  0  0  0
 25 14  2  0  0  0  0
 25 16  1  0  0  0  0
 26 36  1  0  0  0  0
 27 13  1  0  0  0  0
 28 21  1  0  0  0  0
 28  9  2  0  0  0  0
 29 10  1  0  0  0  0
 29 11  1  0  0  0  0
 31  9  1  0  0  0  0
 31 27  1  0  0  0  0
 33 17  2  0  0  0  0
 34  2  2  0  0  0  0
 34 22  1  0  0  0  0
 35 30  1  1  0  0  0
 35  3  1  0  0  0  0
 36  7  1  6  0  0  0
 37 33  1  0  0  0  0
 39 38  3  0  0  0  0
 41 40  1  6  0  0  0
 41 45  1  0  0  0  0
 41 44  1  0  0  0  0
 43 42  1  0  0  0  0
 44 42  1  0  0  0  0
 45 43  1  0  0  0  0
M  END
>  <MODEL>
8

>  <REMARK>
 VINA RESULT:      -7.2      3.698      8.948
  Name = 
  3 active torsions:
  status: ('A' for Active; 'I' for Inactive)
    1  A    between atoms: C_1  and  C_19
    2  A    between atoms: C_3  and  C_7
    3  A    between atoms: N_4  and  C_7
                            x       y       z     vdW  Elec       q    Type
                         _______ _______ _______ _____ _____    ______ ____

>  <TORSDO>
F 3

$$$$
=
 OpenBabel11042418053D

 45 51  0  0  1  0  0  0  0  0999 V2000
  189.7010  175.2650  145.9600 C   0  0  2  0  0  3  0  0  0  0  0  0
  196.9770  176.0360  141.7830 C   0  0  0  0  0  3  0  0  0  0  0  0
  187.4860  176.7330  141.8380 N   0  0  0  0  0  0  0  0  0  0  0  0
  191.3670  176.3910  143.8120 C   0  0  2  0  0  3  0  0  0  0  0  0
  197.6210  176.7950  142.7630 C   0  0  0  0  0  3  0  0  0  0  0  0
  187.7450  175.5550  142.6700 C   0  0  1  0  0  3  0  0  0  0  0  0
  188.9530  174.7600  144.7250 C   0  0  0  0  0  2  0  0  0  0  0  0
  191.2130  174.9920  145.9110 C   0  0  0  0  0  2  0  0  0  0  0  0
  193.2730  174.1450  138.6070 C   0  0  0  0  0  3  0  0  0  0  0  0
  196.9360  177.1660  143.9210 C   0  0  0  0  0  3  0  0  0  0  0  0
  194.9410  177.1770  145.2640 O   0  0  0  0  0  1  0  0  0  0  0  0
  188.0870  174.0810  141.6380 S   0  0  0  0  0  0  0  0  0  0  0  0
  194.9720  174.8670  140.9590 N   0  0  0  0  0  2  0  0  0  0  0  0
  192.7500  172.0220  137.5710 C   0  0  0  0  0  3  0  0  0  0  0  0
  190.0160  173.3020  138.7130 C   0  0  0  0  0  2  0  0  0  0  0  0
  194.9450  172.3910  138.5300 C   0  0  0  0  0  0  0  0  0  0  0  0
  187.8160  174.4150  138.9600 C   0  0  0  0  0  3  0  0  0  0  0  0
  188.2390  175.1450  140.1940 C   0  0  1  0  0  3  0  0  0  0  0  0
  193.1970  175.0600  144.5110 O   0  0  0  0  0  0  0  0  0  0  0  0
  193.5130  175.6080  143.2610 C   0  0  2  0  0  3  0  0  0  0  0  0
  190.9850  173.7930  137.6490 C   0  0  0  0  0  2  0  0  0  0  0  0
  194.9560  176.0010  143.1310 C   0  0  0  0  0  0  0  0  0  0  0  0
  191.7980  175.1150  144.5090 C   0  0  2  0  0  3  0  0  0  0  0  0
  196.2200  171.9160  138.8170 O   0  0  0  0  0  1  0  0  0  0  0  0
  194.0370  171.5620  137.8630 C   0  0  0  0  0  3  0  0  0  0  0  0
  190.2060  176.0560  142.8930 C   0  0  0  0  0  2  0  0  0  0  0  0
  195.5130  174.5770  139.6410 C   0  0  0  0  0  2  0  0  0  0  0  0
  192.3660  173.3140  137.9410 C   0  0  0  0  0  0  0  0  0  0  0  0
  195.6060  176.7790  144.1090 C   0  0  0  0  0  0  0  0  0  0  0  0
  187.6170  177.3490  139.6020 F   0  0  0  0  0  0  0  0  0  0  0  0
  194.5650  173.6890  138.9030 C   0  0  0  0  0  0  0  0  0  0  0  0
  192.5730  176.7610  142.9980 C   0  0  0  0  0  2  0  0  0  0  0  0
  188.6070  173.5740  138.2910 C   0  0  0  0  0  0  0  0  0  0  0  0
  195.6460  175.6370  141.9600 C   0  0  0  0  0  0  0  0  0  0  0  0
  187.3130  176.3040  140.4560 C   0  0  2  0  0  3  0  0  0  0  0  0
  188.8850  175.8490  143.6480 C   0  0  1  0  0  3  0  0  0  0  0  0
  188.1040  172.9330  137.1660 O   0  0  0  0  0  1  0  0  0  0  0  0
  189.1380  174.6520  147.1630 C   0  0  0  0  0  0  0  0  0  0  0  0
  188.6910  174.1660  148.1130 N   0  0  0  0  0  0  0  0  0  0  0  0
  186.2160  177.2900  142.2760 C   0  0  0  0  0  2  0  0  0  0  0  0
  186.3880  177.9840  143.6170 C   0  0  2  0  0  3  0  0  0  0  0  0
  185.3060  178.3550  145.5250 C   0  0  0  0  0  2  0  0  0  0  0  0
  185.2050  179.6700  144.7890 C   0  0  0  0  0  2  0  0  0  0  0  0
  185.6090  177.3510  144.5960 O   0  0  0  0  0  0  0  0  0  0  0  0
  185.9410  179.4220  143.5070 C   0  0  0  0  0  2  0  0  0  0  0  0
  1 38  1  1  0  0  0
  2 34  2  0  0  0  0
  2  5  1  0  0  0  0
  3 40  1  0  0  0  0
  3  6  1  0  0  0  0
  4 26  1  6  0  0  0
  4 23  1  0  0  0  0
  5 10  2  0  0  0  0
  6 12  1  6  0  0  0
  6 36  1  0  0  0  0
  7  1  1  0  0  0  0
  8  1  1  0  0  0  0
  9 31  1  0  0  0  0
 10 29  1  0  0  0  0
 13 34  1  0  0  0  0
 14 25  2  0  0  0  0
 14 28  1  0  0  0  0
 16 24  1  0  0  0  0
 16 31  2  0  0  0  0
 18 17  1  6  0  0  0
 18 35  1  0  0  0  0
 18 12  1  0  0  0  0
 20 32  1  1  0  0  0
 20 19  1  0  0  0  0
 21 28  1  0  0  0  0
 21 15  1  0  0  0  0
 22 20  1  0  0  0  0
 22 29  2  0  0  0  0
 23 19  1  0  0  0  0
 23  8  1  1  0  0  0
 25 16  1  0  0  0  0
 27 13  1  0  0  0  0
 28  9  2  0  0  0  0
 29 11  1  0  0  0  0
 31 27  1  0  0  0  0
 32  4  1  0  0  0  0
 33 15  1  0  0  0  0
 33 17  2  0  0  0  0
 34 22  1  0  0  0  0
 35 30  1  6  0  0  0
 35  3  1  0  0  0  0
 36 26  1  6  0  0  0
 36  7  1  0  0  0  0
 37 33  1  0  0  0  0
 38 39  3  0  0  0  0
 41 40  1  6  0  0  0
 41 44  1  0  0  0  0
 43 42  1  0  0  0  0
 44 42  1  0  0  0  0
 45 41  1  0  0  0  0
 45 43  1  0  0  0  0
M  END
>  <MODEL>
9

>  <REMARK>
 VINA RESULT:      -7.2      2.537      6.444
  Name = 
  3 active torsions:
  status: ('A' for Active; 'I' for Inactive)
    1  A    between atoms: C_1  and  C_19
    2  A    between atoms: C_3  and  C_7
    3  A    between atoms: N_4  and  C_7
                            x       y       z     vdW  Elec       q    Type
                         _______ _______ _______ _____ _____    ______ ____

>  <TORSDO>
F 3

$$$$
