=
 OpenBabel11042419593D

 41 45  0  0  1  0  0  0  0  0999 V2000
  184.1800  178.2280  142.1340 C   0  0  1  0  0  3  0  0  0  0  0  0
  186.8530  177.8090  144.4910 C   0  0  0  0  0  0  0  0  0  0  0  0
  183.9010  179.0560  144.5490 N   0  0  0  0  0  2  0  0  0  0  0  0
  185.5810  178.5940  146.2760 C   0  0  2  0  0  3  0  0  0  0  0  0
  184.6000  178.6030  143.3410 C   0  0  2  0  0  0  0  0  0  0  0  0
  186.7130  177.7120  145.7980 C   0  0  0  0  0  0  0  0  0  0  0  0
  188.7830  176.2190  144.5220 C   0  0  0  0  0  0  0  0  0  0  0  0
  188.6510  176.1880  145.9600 N   0  0  0  0  0  0  0  0  0  0  0  0
  185.1860  179.3870  145.0080 C   0  0  1  0  0  0  0  0  0  0  0  0
  189.7430  175.6180  143.9680 O   0  0  0  0  0  0  0  0  0  0  0  0
  182.7210  178.1950  141.8410 C   0  0  0  0  0  1  0  0  0  0  0  0
  187.7740  177.0320  142.4230 N   0  0  0  0  0  0  0  0  0  0  0  0
  187.4420  176.6990  146.6320 C   0  0  0  0  0  2  0  0  0  0  0  0
  187.8110  177.0110  143.7240 C   0  0  0  0  0  0  0  0  0  0  0  0
  185.9090  178.7330  144.0070 N   0  0  0  0  0  0  0  0  0  0  0  0
  186.0520  179.4750  147.2500 O   0  0  0  0  0  1  0  0  0  0  0  0
  185.8770  177.8140  140.1520 C   0  0  0  0  0  3  0  0  0  0  0  0
  185.1040  177.9850  141.0610 C   0  0  0  0  0  0  0  0  0  0  0  0
  189.6640  175.4910  146.7490 C   0  0  2  0  0  3  0  0  0  0  0  0
  189.0100  174.5100  147.7120 C   0  0  0  0  0  1  0  0  0  0  0  0
  190.5420  176.4830  147.4990 C   0  0  0  0  0  2  0  0  0  0  0  0
  191.9370  176.2660  147.1590 N   0  0  0  0  0  2  0  0  0  0  0  0
  192.3690  176.4330  145.8380 N   0  0  0  0  0  0  0  0  0  0  0  0
  193.2580  174.1720  145.8460 C   0  0  0  0  0  1  0  0  0  0  0  0
  192.9880  175.4950  145.1910 C   0  0  0  0  0  0  0  0  0  0  0  0
  193.3920  175.7470  143.8770 O   0  0  0  0  0  0  0  0  0  0  0  0
  195.7470  174.3040  143.4840 O   0  0  0  0  0  1  0  0  0  0  0  0
  195.1260  176.3990  141.8010 O   0  0  0  0  0  0  0  0  0  0  0  0
  195.0420  175.8380  143.3930 P   0  0  0  0  0  0  0  0  0  0  0  0
  195.7870  176.7920  144.2980 O   0  0  0  0  0  1  0  0  0  0  0  0
  188.6210  176.2580  141.5200 C   0  0  0  0  0  2  0  0  0  0  0  0
  188.5630  173.0170  139.9200 N   0  0  0  0  0  0  0  0  0  0  0  0
  187.7420  173.9810  141.9580 C   0  0  0  0  0  2  0  0  0  0  0  0
  188.6060  174.4680  139.7690 C   0  0  0  0  0  2  0  0  0  0  0  0
  187.8520  175.0810  140.9320 C   0  0  2  0  0  3  0  0  0  0  0  0
  188.4980  172.8130  141.3640 C   0  0  0  0  0  2  0  0  0  0  0  0
  190.4070  173.3420  138.3210 C   0  0  0  0  0  1  0  0  0  0  0  0
  189.8200  172.4510  139.4110 C   0  0  1  0  0  3  0  0  0  0  0  0
  190.8520  172.3360  140.5350 C   0  0  0  0  0  2  0  0  0  0  0  0
  191.9930  173.3210  140.3440 C   0  0  0  0  0  2  0  0  0  0  0  0
  191.8700  174.3770  141.2470 O   0  0  0  0  0  1  0  0  0  0  0  0
  1 11  1  6  0  0  0
  2  6  2  0  0  0  0
  4 16  1  1  0  0  0
  5  1  1  6  0  0  0
  5 15  1  0  0  0  0
  5  3  1  0  0  0  0
  5  9  1  0  0  0  0
  6  4  1  0  0  0  0
  6 13  1  0  0  0  0
  7  8  1  0  0  0  0
  8 13  1  0  0  0  0
  8 19  1  0  0  0  0
  9  3  1  1  0  0  0
  9  4  1  0  0  0  0
 10  7  2  0  0  0  0
 12 14  2  0  0  0  0
 14  2  1  0  0  0  0
 14  7  1  0  0  0  0
 15  2  1  0  0  0  0
 15  9  1  0  0  0  0
 17 18  3  0  0  0  0
 18  1  1  0  0  0  0
 19 21  1  0  0  0  0
 19 20  1  1  0  0  0
 22 21  1  0  0  0  0
 23 22  1  0  0  0  0
 25 23  2  0  0  0  0
 25 24  1  0  0  0  0
 26 25  1  0  0  0  0
 28 29  2  0  0  0  0
 29 27  1  0  0  0  0
 29 26  1  0  0  0  0
 29 30  1  0  0  0  0
 31 12  1  0  0  0  0
 32 36  1  0  0  0  0
 34 32  1  0  0  0  0
 34 35  1  0  0  0  0
 35 31  1  1  0  0  0
 35 33  1  0  0  0  0
 36 33  1  0  0  0  0
 38 37  1  6  0  0  0
 38 32  1  0  0  0  0
 38 39  1  0  0  0  0
 40 39  1  0  0  0  0
 40 41  1  0  0  0  0
M  END
>  <MODEL>
1

>  <REMARK>
 VINA RESULT:      -7.2      0.000      0.000
  Name = 
  12 active torsions:
  status: ('A' for Active; 'I' for Inactive)
    1  A    between atoms: N_1  and  C_31
    2  A    between atoms: C_3  and  C_8
    3  A    between atoms: C_6  and  N_32
    4  A    between atoms: C_6  and  C_38
    5  A    between atoms: N_7  and  N_21
    6  A    between atoms: C_10  and  N_17
    7  A    between atoms: C_10  and  C_39
    8  A    between atoms: C_12  and  C_24
    9  A    between atoms: C_12  and  C_31
   10  A    between atoms: O_18  and  P_19
   11  A    between atoms: O_18  and  C_23
   12  A    between atoms: N_21  and  C_39
                            x       y       z     vdW  Elec       q    Type
                         _______ _______ _______ _____ _____    ______ ____

>  <TORSDO>
F 12

$$$$
=
 OpenBabel11042419593D

 41 45  0  0  1  0  0  0  0  0999 V2000
  196.0800  172.9370  143.1870 C   0  0  1  0  0  3  0  0  0  0  0  0
  193.4740  174.8000  144.8040 C   0  0  0  0  0  0  0  0  0  0  0  0
  196.5520  175.3030  144.0670 N   0  0  0  0  0  2  0  0  0  0  0  0
  194.7690  176.7280  144.9650 C   0  0  2  0  0  3  0  0  0  0  0  0
  195.8520  174.0220  143.9250 C   0  0  2  0  0  0  0  0  0  0  0  0
  193.3910  176.1140  144.8540 C   0  0  0  0  0  0  0  0  0  0  0  0
  190.9860  174.5900  144.6830 C   0  0  0  0  0  0  0  0  0  0  0  0
  190.9220  176.0260  144.8120 N   0  0  0  0  0  0  0  0  0  0  0  0
  195.6920  175.5010  145.1580 C   0  0  1  0  0  0  0  0  0  0  0  0
  189.9210  173.9130  144.6820 O   0  0  0  0  0  0  0  0  0  0  0  0
  197.2410  172.9120  142.2560 C   0  0  0  0  0  1  0  0  0  0  0  0
  192.4900  172.6560  144.3980 N   0  0  0  0  0  0  0  0  0  0  0  0
  192.1160  176.8690  144.6140 C   0  0  0  0  0  2  0  0  0  0  0  0
  192.3140  173.9280  144.6110 C   0  0  0  0  0  0  0  0  0  0  0  0
  194.8280  174.4320  144.9040 N   0  0  0  0  0  0  0  0  0  0  0  0
  194.8310  177.5410  146.0970 O   0  0  0  0  0  1  0  0  0  0  0  0
  194.6870  170.7130  143.4870 C   0  0  0  0  0  3  0  0  0  0  0  0
  195.3150  171.7350  143.3650 C   0  0  0  0  0  0  0  0  0  0  0  0
  189.6190  176.6660  144.9810 C   0  0  2  0  0  3  0  0  0  0  0  0
  189.5570  177.9690  144.1970 C   0  0  0  0  0  1  0  0  0  0  0  0
  189.3220  176.9050  146.4540 C   0  0  0  0  0  2  0  0  0  0  0  0
  188.0070  176.3860  146.7860 N   0  0  0  0  0  2  0  0  0  0  0  0
  186.9530  176.5130  145.8730 N   0  0  0  0  0  0  0  0  0  0  0  0
  185.9710  178.2550  147.2520 C   0  0  0  0  0  1  0  0  0  0  0  0
  185.9870  177.3610  146.0480 C   0  0  0  0  0  0  0  0  0  0  0  0
  184.9710  177.4190  145.0900 O   0  0  0  0  0  0  0  0  0  0  0  0
  186.4450  178.5900  143.0320 O   0  0  0  0  0  1  0  0  0  0  0  0
  183.7460  178.1310  142.6960 O   0  0  0  0  0  0  0  0  0  0  0  0
  184.9420  178.5660  143.8070 P   0  0  0  0  0  0  0  0  0  0  0  0
  184.6350  179.9400  144.3580 O   0  0  0  0  0  1  0  0  0  0  0  0
  191.4470  171.6690  144.1370 C   0  0  0  0  0  2  0  0  0  0  0  0
  189.8430  172.4120  140.9840 N   0  0  0  0  0  0  0  0  0  0  0  0
  192.0690  172.4690  141.8740 C   0  0  0  0  0  2  0  0  0  0  0  0
  189.8460  171.6230  142.2120 C   0  0  0  0  0  2  0  0  0  0  0  0
  191.2880  171.4320  142.6400 C   0  0  2  0  0  3  0  0  0  0  0  0
  191.0320  173.2500  141.0980 C   0  0  0  0  0  2  0  0  0  0  0  0
  187.6050  172.7460  141.9560 C   0  0  0  0  0  1  0  0  0  0  0  0
  188.6500  173.2710  140.9770 C   0  0  1  0  0  3  0  0  0  0  0  0
  189.0120  174.6980  141.3900 C   0  0  0  0  0  2  0  0  0  0  0  0
  187.7770  175.4910  141.7860 C   0  0  0  0  0  2  0  0  0  0  0  0
  187.4360  176.3840  140.7700 O   0  0  0  0  0  1  0  0  0  0  0  0
  1 11  1  1  0  0  0
  1 18  1  0  0  0  0
  2  6  2  0  0  0  0
  2 15  1  0  0  0  0
  4  9  1  0  0  0  0
  4 16  1  1  0  0  0
  5  1  1  1  0  0  0
  5  3  1  0  0  0  0
  5 15  1  0  0  0  0
  5  9  1  0  0  0  0
  6  4  1  0  0  0  0
  7  8  1  0  0  0  0
  8 19  1  0  0  0  0
  9  3  1  1  0  0  0
 10  7  2  0  0  0  0
 12 14  2  0  0  0  0
 13  8  1  0  0  0  0
 13  6  1  0  0  0  0
 14  7  1  0  0  0  0
 14  2  1  0  0  0  0
 15  9  1  0  0  0  0
 18 17  3  0  0  0  0
 19 20  1  6  0  0  0
 19 21  1  0  0  0  0
 21 22  1  0  0  0  0
 23 25  2  0  0  0  0
 23 22  1  0  0  0  0
 25 24  1  0  0  0  0
 26 25  1  0  0  0  0
 27 29  1  0  0  0  0
 28 29  2  0  0  0  0
 29 30  1  0  0  0  0
 29 26  1  0  0  0  0
 31 12  1  0  0  0  0
 32 36  1  0  0  0  0
 32 34  1  0  0  0  0
 33 35  1  0  0  0  0
 34 35  1  0  0  0  0
 35 31  1  1  0  0  0
 36 33  1  0  0  0  0
 38 32  1  0  0  0  0
 38 39  1  0  0  0  0
 38 37  1  1  0  0  0
 39 40  1  0  0  0  0
 41 40  1  0  0  0  0
M  END
>  <MODEL>
2

>  <REMARK>
 VINA RESULT:      -6.7      3.191      7.948
  Name = 
  12 active torsions:
  status: ('A' for Active; 'I' for Inactive)
    1  A    between atoms: N_1  and  C_31
    2  A    between atoms: C_3  and  C_8
    3  A    between atoms: C_6  and  N_32
    4  A    between atoms: C_6  and  C_38
    5  A    between atoms: N_7  and  N_21
    6  A    between atoms: C_10  and  N_17
    7  A    between atoms: C_10  and  C_39
    8  A    between atoms: C_12  and  C_24
    9  A    between atoms: C_12  and  C_31
   10  A    between atoms: O_18  and  P_19
   11  A    between atoms: O_18  and  C_23
   12  A    between atoms: N_21  and  C_39
                            x       y       z     vdW  Elec       q    Type
                         _______ _______ _______ _____ _____    ______ ____

>  <TORSDO>
F 12

$$$$
=
 OpenBabel11042419593D

 41 45  0  0  1  0  0  0  0  0999 V2000
  191.7950  170.0480  141.1310 C   0  0  1  0  0  3  0  0  0  0  0  0
  191.2540  173.1400  142.8700 C   0  0  0  0  0  0  0  0  0  0  0  0
  189.9300  171.6410  140.3660 N   0  0  0  0  0  2  0  0  0  0  0  0
  189.3430  173.6510  141.6430 C   0  0  2  0  0  3  0  0  0  0  0  0
  191.1560  171.2140  141.0500 C   0  0  2  0  0  0  0  0  0  0  0  0
  190.1100  173.7890  142.9390 C   0  0  0  0  0  0  0  0  0  0  0  0
  191.8630  173.8500  145.1890 C   0  0  0  0  0  0  0  0  0  0  0  0
  190.6360  174.6110  145.2090 N   0  0  0  0  0  0  0  0  0  0  0  0
  190.3480  172.9360  140.7080 C   0  0  1  0  0  0  0  0  0  0  0  0
  192.6710  173.9380  146.1540 O   0  0  0  0  0  0  0  0  0  0  0  0
  191.2280  168.8510  140.4520 C   0  0  0  0  0  1  0  0  0  0  0  0
  193.2030  172.2210  143.9110 N   0  0  0  0  0  0  0  0  0  0  0  0
  189.5760  174.3860  144.2090 C   0  0  0  0  0  2  0  0  0  0  0  0
  192.1790  173.0190  143.9980 C   0  0  0  0  0  0  0  0  0  0  0  0
  191.3690  172.5700  141.5890 N   0  0  0  0  0  0  0  0  0  0  0  0
  189.0510  174.9160  141.1330 O   0  0  0  0  0  1  0  0  0  0  0  0
  194.1830  169.8300  142.2380 C   0  0  0  0  0  3  0  0  0  0  0  0
  193.0890  169.9440  141.7440 C   0  0  0  0  0  0  0  0  0  0  0  0
  190.3740  175.5030  146.3360 C   0  0  2  0  0  3  0  0  0  0  0  0
  189.2700  174.9400  147.2190 C   0  0  0  0  0  1  0  0  0  0  0  0
  190.0180  176.9000  145.8480 C   0  0  0  0  0  2  0  0  0  0  0  0
  188.6450  177.2130  146.1980 N   0  0  0  0  0  2  0  0  0  0  0  0
  187.6620  177.2620  145.2020 N   0  0  0  0  0  0  0  0  0  0  0  0
  185.9400  176.9510  146.8870 C   0  0  0  0  0  1  0  0  0  0  0  0
  186.3990  177.1410  145.4720 C   0  0  0  0  0  0  0  0  0  0  0  0
  185.4850  177.1950  144.4160 O   0  0  0  0  0  0  0  0  0  0  0  0
  186.2940  178.7660  142.2570 O   0  0  0  0  0  0  0  0  0  0  0  0
  183.6110  178.5330  142.8550 O   0  0  0  0  0  1  0  0  0  0  0  0
  185.1660  178.6230  143.5100 P   0  0  0  0  0  0  0  0  0  0  0  0
  185.2580  179.8320  144.4130 O   0  0  0  0  0  1  0  0  0  0  0  0
  194.1830  171.9510  144.9600 C   0  0  0  0  0  2  0  0  0  0  0  0
  196.5610  174.5750  144.2330 N   0  0  0  0  0  0  0  0  0  0  0  0
  196.4050  172.7200  145.7460 C   0  0  0  0  0  2  0  0  0  0  0  0
  195.5050  173.6930  143.7420 C   0  0  0  0  0  2  0  0  0  0  0  0
  195.5740  172.4000  144.5290 C   0  0  2  0  0  3  0  0  0  0  0  0
  196.7150  174.1960  145.6340 C   0  0  0  0  0  2  0  0  0  0  0  0
  196.8020  176.7170  143.0430 C   0  0  0  0  0  1  0  0  0  0  0  0
  196.0880  175.9640  144.1610 C   0  0  1  0  0  3  0  0  0  0  0  0
  194.5860  176.0060  143.8750 C   0  0  0  0  0  2  0  0  0  0  0  0
  193.8550  176.8890  144.8730 C   0  0  0  0  0  2  0  0  0  0  0  0
  194.7390  177.3270  145.8600 O   0  0  0  0  0  1  0  0  0  0  0  0
  1 11  1  6  0  0  0
  1 18  1  0  0  0  0
  2  6  2  0  0  0  0
  2 14  1  0  0  0  0
  3  5  1  0  0  0  0
  4 16  1  6  0  0  0
  4  6  1  0  0  0  0
  5  1  1  6  0  0  0
  5 15  1  0  0  0  0
  6 13  1  0  0  0  0
  7  8  1  0  0  0  0
  7 10  2  0  0  0  0
  8 19  1  0  0  0  0
  9  3  1  6  0  0  0
  9  5  1  0  0  0  0
  9 15  1  0  0  0  0
  9  4  1  0  0  0  0
 12 14  2  0  0  0  0
 12 31  1  0  0  0  0
 13  8  1  0  0  0  0
 14  7  1  0  0  0  0
 15  2  1  0  0  0  0
 18 17  3  0  0  0  0
 19 20  1  6  0  0  0
 21 22  1  0  0  0  0
 21 19  1  0  0  0  0
 23 25  2  0  0  0  0
 23 22  1  0  0  0  0
 25 24  1  0  0  0  0
 26 25  1  0  0  0  0
 27 29  2  0  0  0  0
 28 29  1  0  0  0  0
 29 30  1  0  0  0  0
 29 26  1  0  0  0  0
 32 36  1  0  0  0  0
 34 32  1  0  0  0  0
 34 35  1  0  0  0  0
 35 31  1  1  0  0  0
 35 33  1  0  0  0  0
 36 33  1  0  0  0  0
 38 37  1  6  0  0  0
 38 32  1  0  0  0  0
 39 38  1  0  0  0  0
 39 40  1  0  0  0  0
 40 41  1  0  0  0  0
M  END
>  <MODEL>
3

>  <REMARK>
 VINA RESULT:      -6.6      3.301      8.108
  Name = 
  12 active torsions:
  status: ('A' for Active; 'I' for Inactive)
    1  A    between atoms: N_1  and  C_31
    2  A    between atoms: C_3  and  C_8
    3  A    between atoms: C_6  and  N_32
    4  A    between atoms: C_6  and  C_38
    5  A    between atoms: N_7  and  N_21
    6  A    between atoms: C_10  and  N_17
    7  A    between atoms: C_10  and  C_39
    8  A    between atoms: C_12  and  C_24
    9  A    between atoms: C_12  and  C_31
   10  A    between atoms: O_18  and  P_19
   11  A    between atoms: O_18  and  C_23
   12  A    between atoms: N_21  and  C_39
                            x       y       z     vdW  Elec       q    Type
                         _______ _______ _______ _____ _____    ______ ____

>  <TORSDO>
F 12

$$$$
=
 OpenBabel11042419593D

 41 45  0  0  1  0  0  0  0  0999 V2000
  196.4760  174.9070  143.9870 C   0  0  1  0  0  3  0  0  0  0  0  0
  193.5950  174.8180  141.8490 C   0  0  0  0  0  0  0  0  0  0  0  0
  196.7720  174.8950  141.4350 N   0  0  0  0  0  2  0  0  0  0  0  0
  194.8700  174.5940  139.9140 C   0  0  2  0  0  3  0  0  0  0  0  0
  196.0870  175.0610  142.7220 C   0  0  2  0  0  0  0  0  0  0  0  0
  193.5640  174.3270  140.6270 C   0  0  0  0  0  0  0  0  0  0  0  0
  191.2530  174.0550  142.2780 C   0  0  0  0  0  0  0  0  0  0  0  0
  191.2220  173.5900  140.9120 N   0  0  0  0  0  0  0  0  0  0  0  0
  195.6320  175.5140  140.8990 C   0  0  1  0  0  0  0  0  0  0  0  0
  190.2070  174.0000  142.9820 O   0  0  0  0  0  0  0  0  0  0  0  0
  197.8610  174.4500  144.2790 C   0  0  0  0  0  1  0  0  0  0  0  0
  192.6790  175.0050  144.0520 N   0  0  0  0  0  0  0  0  0  0  0  0
  192.4590  173.4440  140.1220 C   0  0  0  0  0  2  0  0  0  0  0  0
  192.5070  174.6450  142.8140 C   0  0  0  0  0  0  0  0  0  0  0  0
  194.8360  175.4510  142.0460 N   0  0  0  0  0  0  0  0  0  0  0  0
  194.6250  175.2840  138.7270 O   0  0  0  0  0  1  0  0  0  0  0  0
  194.9580  175.6370  146.0220 C   0  0  0  0  0  3  0  0  0  0  0  0
  195.6350  175.3030  145.0820 C   0  0  0  0  0  0  0  0  0  0  0  0
  189.9610  173.1010  140.3570 C   0  0  2  0  0  3  0  0  0  0  0  0
  190.1790  171.8000  139.5990 C   0  0  0  0  0  1  0  0  0  0  0  0
  189.3230  174.1510  139.4600 C   0  0  0  0  0  2  0  0  0  0  0  0
  188.0050  174.4960  139.9600 N   0  0  0  0  0  2  0  0  0  0  0  0
  187.8440  175.5950  140.8120 N   0  0  0  0  0  0  0  0  0  0  0  0
  186.7140  176.8060  139.0350 C   0  0  0  0  0  1  0  0  0  0  0  0
  187.2580  176.6860  140.4280 C   0  0  0  0  0  0  0  0  0  0  0  0
  187.1460  177.7390  141.3410 O   0  0  0  0  0  0  0  0  0  0  0  0
  185.9170  179.5250  143.0970 O   0  0  0  0  0  1  0  0  0  0  0  0
  184.5760  178.6800  140.8390 O   0  0  0  0  0  0  0  0  0  0  0  0
  185.6550  178.2180  142.0560 P   0  0  0  0  0  0  0  0  0  0  0  0
  185.0660  177.0630  142.8330 O   0  0  0  0  0  1  0  0  0  0  0  0
  191.7170  174.8510  145.1400 C   0  0  0  0  0  2  0  0  0  0  0  0
  189.3850  177.4400  146.1040 N   0  0  0  0  0  0  0  0  0  0  0  0
  190.9350  175.9780  147.2060 C   0  0  0  0  0  2  0  0  0  0  0  0
  190.2850  176.9040  145.0860 C   0  0  0  0  0  2  0  0  0  0  0  0
  191.4210  176.1950  145.7960 C   0  0  2  0  0  3  0  0  0  0  0  0
  189.5190  176.5100  147.2200 C   0  0  0  0  0  2  0  0  0  0  0  0
  187.8700  176.2900  144.5410 C   0  0  0  0  0  1  0  0  0  0  0  0
  188.0080  177.3840  145.5940 C   0  0  1  0  0  3  0  0  0  0  0  0
  187.0270  177.0780  146.7270 C   0  0  0  0  0  2  0  0  0  0  0  0
  185.6320  176.8000  146.1940 C   0  0  0  0  0  2  0  0  0  0  0  0
  184.9040  177.9880  146.1190 O   0  0  0  0  0  1  0  0  0  0  0  0
  1 11  1  6  0  0  0
  1 18  1  0  0  0  0
  2 15  1  0  0  0  0
  2 14  1  0  0  0  0
  3  5  1  0  0  0  0
  4 16  1  6  0  0  0
  4  6  1  0  0  0  0
  4  9  1  0  0  0  0
  5  1  1  1  0  0  0
  6  2  2  0  0  0  0
  7 14  1  0  0  0  0
  7 10  2  0  0  0  0
  8  7  1  0  0  0  0
  9  3  1  6  0  0  0
  9 15  1  0  0  0  0
  9  5  1  0  0  0  0
 12 31  1  0  0  0  0
 13  6  1  0  0  0  0
 13  8  1  0  0  0  0
 14 12  2  0  0  0  0
 15  5  1  0  0  0  0
 18 17  3  0  0  0  0
 19 20  1  6  0  0  0
 19  8  1  0  0  0  0
 21 22  1  0  0  0  0
 21 19  1  0  0  0  0
 22 23  1  0  0  0  0
 24 25  1  0  0  0  0
 25 23  2  0  0  0  0
 25 26  1  0  0  0  0
 26 29  1  0  0  0  0
 28 29  2  0  0  0  0
 29 30  1  0  0  0  0
 29 27  1  0  0  0  0
 32 36  1  0  0  0  0
 33 36  1  0  0  0  0
 34 35  1  0  0  0  0
 34 32  1  0  0  0  0
 35 31  1  6  0  0  0
 35 33  1  0  0  0  0
 38 37  1  6  0  0  0
 38 32  1  0  0  0  0
 38 39  1  0  0  0  0
 40 39  1  0  0  0  0
 41 40  1  0  0  0  0
M  END
>  <MODEL>
4

>  <REMARK>
 VINA RESULT:      -6.3      3.295      9.206
  Name = 
  12 active torsions:
  status: ('A' for Active; 'I' for Inactive)
    1  A    between atoms: N_1  and  C_31
    2  A    between atoms: C_3  and  C_8
    3  A    between atoms: C_6  and  N_32
    4  A    between atoms: C_6  and  C_38
    5  A    between atoms: N_7  and  N_21
    6  A    between atoms: C_10  and  N_17
    7  A    between atoms: C_10  and  C_39
    8  A    between atoms: C_12  and  C_24
    9  A    between atoms: C_12  and  C_31
   10  A    between atoms: O_18  and  P_19
   11  A    between atoms: O_18  and  C_23
   12  A    between atoms: N_21  and  C_39
                            x       y       z     vdW  Elec       q    Type
                         _______ _______ _______ _____ _____    ______ ____

>  <TORSDO>
F 12

$$$$
=
 OpenBabel11042419593D

 41 45  0  0  1  0  0  0  0  0999 V2000
  189.0060  174.2660  140.6910 C   0  0  1  0  0  3  0  0  0  0  0  0
  191.8420  174.1330  142.8850 C   0  0  0  0  0  0  0  0  0  0  0  0
  190.5730  172.2310  140.6400 N   0  0  0  0  0  2  0  0  0  0  0  0
  192.6580  172.1720  141.9310 C   0  0  2  0  0  3  0  0  0  0  0  0
  189.9430  173.4480  141.1660 C   0  0  2  0  0  0  0  0  0  0  0  0
  192.9540  173.4640  142.6580 C   0  0  0  0  0  0  0  0  0  0  0  0
  193.1030  175.9490  144.0540 C   0  0  0  0  0  0  0  0  0  0  0  0
  194.2960  175.1600  143.8540 N   0  0  0  0  0  0  0  0  0  0  0  0
  191.1110  172.1100  141.9300 C   0  0  1  0  0  0  0  0  0  0  0  0
  193.1590  177.0090  144.7350 O   0  0  0  0  0  0  0  0  0  0  0  0
  188.4210  174.0110  139.3470 C   0  0  0  0  0  1  0  0  0  0  0  0
  190.6990  176.1330  143.5330 N   0  0  0  0  0  0  0  0  0  0  0  0
  194.3220  174.0330  142.9030 C   0  0  0  0  0  2  0  0  0  0  0  0
  191.8130  175.4620  143.4990 C   0  0  0  0  0  0  0  0  0  0  0  0
  190.7590  173.3820  142.3920 N   0  0  0  0  0  0  0  0  0  0  0  0
  193.1670  171.0960  142.6580 O   0  0  0  0  0  1  0  0  0  0  0  0
  187.9430  176.1730  142.1780 C   0  0  0  0  0  3  0  0  0  0  0  0
  188.4440  175.3120  141.5000 C   0  0  0  0  0  0  0  0  0  0  0  0
  195.5430  175.5900  144.4840 C   0  0  2  0  0  3  0  0  0  0  0  0
  196.7160  175.3960  143.5340 C   0  0  0  0  0  1  0  0  0  0  0  0
  195.7740  174.8440  145.7900 C   0  0  0  0  0  2  0  0  0  0  0  0
  196.9200  173.9640  145.6630 N   0  0  0  0  0  2  0  0  0  0  0  0
  196.9230  172.7190  146.3040 N   0  0  0  0  0  0  0  0  0  0  0  0
  196.9300  171.6080  144.1440 C   0  0  0  0  0  1  0  0  0  0  0  0
  196.9230  171.6030  145.6440 C   0  0  0  0  0  0  0  0  0  0  0  0
  196.9180  170.4040  146.3630 O   0  0  0  0  0  0  0  0  0  0  0  0
  195.4210  168.4860  147.7280 O   0  0  0  0  0  1  0  0  0  0  0  0
  194.2470  169.9700  145.7200 O   0  0  0  0  0  1  0  0  0  0  0  0
  195.6750  169.2210  146.2260 P   0  0  0  0  0  0  0  0  0  0  0  0
  196.0760  168.1740  145.2120 O   0  0  0  0  0  0  0  0  0  0  0  0
  190.5170  177.4830  144.0590 C   0  0  0  0  0  2  0  0  0  0  0  0
  187.5290  177.1900  146.0730 N   0  0  0  0  0  0  0  0  0  0  0  0
  189.6070  176.0150  145.8390 C   0  0  0  0  0  2  0  0  0  0  0  0
  188.4470  178.0610  145.3450 C   0  0  0  0  0  2  0  0  0  0  0  0
  189.8310  177.4460  145.4200 C   0  0  2  0  0  3  0  0  0  0  0  0
  188.1050  175.8580  145.9170 C   0  0  0  0  0  2  0  0  0  0  0  0
  185.1070  176.8830  146.3980 C   0  0  0  0  0  1  0  0  0  0  0  0
  186.2180  177.2270  145.4110 C   0  0  1  0  0  3  0  0  0  0  0  0
  185.9370  178.6240  144.8520 C   0  0  0  0  0  2  0  0  0  0  0  0
  185.3100  178.5520  143.4700 C   0  0  0  0  0  2  0  0  0  0  0  0
  183.9190  178.5810  143.5730 O   0  0  0  0  0  1  0  0  0  0  0  0
  1 11  1  1  0  0  0
  1 18  1  0  0  0  0
  2 14  1  0  0  0  0
  3  5  1  0  0  0  0
  4  6  1  0  0  0  0
  4 16  1  1  0  0  0
  5  1  1  1  0  0  0
  5  9  1  0  0  0  0
  5 15  1  0  0  0  0
  6  2  2  0  0  0  0
  6 13  1  0  0  0  0
  7 10  2  0  0  0  0
  8  7  1  0  0  0  0
  8 19  1  0  0  0  0
  9  3  1  1  0  0  0
  9  4  1  0  0  0  0
  9 15  1  0  0  0  0
 12 31  1  0  0  0  0
 13  8  1  0  0  0  0
 14 12  2  0  0  0  0
 14  7  1  0  0  0  0
 15  2  1  0  0  0  0
 18 17  3  0  0  0  0
 19 20  1  6  0  0  0
 19 21  1  0  0  0  0
 22 21  1  0  0  0  0
 22 23  1  0  0  0  0
 24 25  1  0  0  0  0
 25 23  2  0  0  0  0
 25 26  1  0  0  0  0
 28 29  1  0  0  0  0
 29 26  1  0  0  0  0
 29 27  1  0  0  0  0
 30 29  2  0  0  0  0
 33 36  1  0  0  0  0
 34 35  1  0  0  0  0
 34 32  1  0  0  0  0
 35 31  1  6  0  0  0
 35 33  1  0  0  0  0
 36 32  1  0  0  0  0
 38 32  1  0  0  0  0
 38 37  1  1  0  0  0
 39 38  1  0  0  0  0
 40 41  1  0  0  0  0
 40 39  1  0  0  0  0
M  END
>  <MODEL>
5

>  <REMARK>
 VINA RESULT:      -6.3      3.359      7.243
  Name = 
  12 active torsions:
  status: ('A' for Active; 'I' for Inactive)
    1  A    between atoms: N_1  and  C_31
    2  A    between atoms: C_3  and  C_8
    3  A    between atoms: C_6  and  N_32
    4  A    between atoms: C_6  and  C_38
    5  A    between atoms: N_7  and  N_21
    6  A    between atoms: C_10  and  N_17
    7  A    between atoms: C_10  and  C_39
    8  A    between atoms: C_12  and  C_24
    9  A    between atoms: C_12  and  C_31
   10  A    between atoms: O_18  and  P_19
   11  A    between atoms: O_18  and  C_23
   12  A    between atoms: N_21  and  C_39
                            x       y       z     vdW  Elec       q    Type
                         _______ _______ _______ _____ _____    ______ ____

>  <TORSDO>
F 12

$$$$
=
 OpenBabel11042419593D

 41 45  0  0  1  0  0  0  0  0999 V2000
  186.5600  177.8850  144.8100 C   0  0  1  0  0  3  0  0  0  0  0  0
  188.5450  175.3340  143.2510 C   0  0  0  0  0  0  0  0  0  0  0  0
  186.5360  177.6230  142.2550 N   0  0  0  0  0  2  0  0  0  0  0  0
  188.0410  176.0690  141.1000 C   0  0  2  0  0  3  0  0  0  0  0  0
  186.7560  177.2490  143.6570 C   0  0  2  0  0  0  0  0  0  0  0  0
  189.0200  175.3780  142.0230 C   0  0  0  0  0  0  0  0  0  0  0  0
  190.5710  174.1080  144.0530 C   0  0  0  0  0  0  0  0  0  0  0  0
  191.0340  174.1080  142.6850 N   0  0  0  0  0  0  0  0  0  0  0  0
  186.7920  176.2690  141.9910 C   0  0  1  0  0  0  0  0  0  0  0  0
  191.2220  173.4830  144.9340 O   0  0  0  0  0  0  0  0  0  0  0  0
  186.0400  179.2790  144.8010 C   0  0  0  0  0  1  0  0  0  0  0  0
  188.8390  174.9480  145.5950 N   0  0  0  0  0  0  0  0  0  0  0  0
  190.4250  174.9860  141.6690 C   0  0  0  0  0  2  0  0  0  0  0  0
  189.3000  174.8010  144.3870 C   0  0  0  0  0  0  0  0  0  0  0  0
  187.2680  175.9240  143.2590 N   0  0  0  0  0  0  0  0  0  0  0  0
  187.7240  175.2250  140.0350 O   0  0  0  0  0  1  0  0  0  0  0  0
  186.8060  176.6650  147.1400 C   0  0  0  0  0  3  0  0  0  0  0  0
  186.7090  177.2130  146.0710 C   0  0  0  0  0  0  0  0  0  0  0  0
  192.2310  173.3440  142.3420 C   0  0  2  0  0  3  0  0  0  0  0  0
  193.0270  174.0550  141.2580 C   0  0  0  0  0  1  0  0  0  0  0  0
  191.8650  171.9320  141.9070 C   0  0  0  0  0  2  0  0  0  0  0  0
  192.6400  170.9640  142.6620 N   0  0  0  0  0  2  0  0  0  0  0  0
  193.4260  171.3850  143.7420 N   0  0  0  0  0  0  0  0  0  0  0  0
  193.4070  169.1260  144.6340 C   0  0  0  0  0  1  0  0  0  0  0  0
  193.8020  170.5720  144.6800 C   0  0  0  0  0  0  0  0  0  0  0  0
  194.5800  171.0770  145.7260 O   0  0  0  0  0  0  0  0  0  0  0  0
  196.8780  170.5250  144.2430 O   0  0  0  0  0  0  0  0  0  0  0  0
  196.9470  172.4550  146.2130 O   0  0  0  0  0  1  0  0  0  0  0  0
  196.2970  170.9590  145.7710 P   0  0  0  0  0  0  0  0  0  0  0  0
  196.7100  169.9160  146.7840 O   0  0  0  0  0  1  0  0  0  0  0  0
  189.4930  174.5230  146.8290 C   0  0  0  0  0  2  0  0  0  0  0  0
  192.5320  176.4780  146.9020 N   0  0  0  0  0  0  0  0  0  0  0  0
  190.1940  176.8860  146.5580 C   0  0  0  0  0  2  0  0  0  0  0  0
  191.8060  175.3050  147.3810 C   0  0  0  0  0  2  0  0  0  0  0  0
  190.3310  175.6530  147.4150 C   0  0  2  0  0  3  0  0  0  0  0  0
  191.5820  177.1470  146.0190 C   0  0  0  0  0  2  0  0  0  0  0  0
  193.8630  174.5180  146.2310 C   0  0  0  0  0  1  0  0  0  0  0  0
  193.6880  176.0280  146.1130 C   0  0  1  0  0  3  0  0  0  0  0  0
  193.4940  176.3690  144.6340 C   0  0  0  0  0  2  0  0  0  0  0  0
  194.7320  176.0310  143.8200 C   0  0  0  0  0  2  0  0  0  0  0  0
  195.8040  176.8250  144.2280 O   0  0  0  0  0  1  0  0  0  0  0  0
  1 11  1  6  0  0  0
  1 18  1  0  0  0  0
  2 15  1  0  0  0  0
  2 14  1  0  0  0  0
  3  5  1  0  0  0  0
  4 16  1  6  0  0  0
  4  9  1  0  0  0  0
  4  6  1  0  0  0  0
  5  1  1  1  0  0  0
  6  2  2  0  0  0  0
  7 14  1  0  0  0  0
  7 10  2  0  0  0  0
  8  7  1  0  0  0  0
  9  3  1  6  0  0  0
  9 15  1  0  0  0  0
  9  5  1  0  0  0  0
 12 31  1  0  0  0  0
 13  6  1  0  0  0  0
 13  8  1  0  0  0  0
 14 12  2  0  0  0  0
 15  5  1  0  0  0  0
 18 17  3  0  0  0  0
 19 20  1  6  0  0  0
 19  8  1  0  0  0  0
 21 19  1  0  0  0  0
 21 22  1  0  0  0  0
 22 23  1  0  0  0  0
 23 25  2  0  0  0  0
 24 25  1  0  0  0  0
 25 26  1  0  0  0  0
 26 29  1  0  0  0  0
 27 29  2  0  0  0  0
 29 28  1  0  0  0  0
 29 30  1  0  0  0  0
 32 34  1  0  0  0  0
 33 35  1  0  0  0  0
 34 35  1  0  0  0  0
 35 31  1  6  0  0  0
 36 33  1  0  0  0  0
 36 32  1  0  0  0  0
 38 37  1  6  0  0  0
 38 32  1  0  0  0  0
 39 38  1  0  0  0  0
 40 41  1  0  0  0  0
 40 39  1  0  0  0  0
M  END
>  <MODEL>
6

>  <REMARK>
 VINA RESULT:      -6.1      2.751      5.859
  Name = 
  12 active torsions:
  status: ('A' for Active; 'I' for Inactive)
    1  A    between atoms: N_1  and  C_31
    2  A    between atoms: C_3  and  C_8
    3  A    between atoms: C_6  and  N_32
    4  A    between atoms: C_6  and  C_38
    5  A    between atoms: N_7  and  N_21
    6  A    between atoms: C_10  and  N_17
    7  A    between atoms: C_10  and  C_39
    8  A    between atoms: C_12  and  C_24
    9  A    between atoms: C_12  and  C_31
   10  A    between atoms: O_18  and  P_19
   11  A    between atoms: O_18  and  C_23
   12  A    between atoms: N_21  and  C_39
                            x       y       z     vdW  Elec       q    Type
                         _______ _______ _______ _____ _____    ______ ____

>  <TORSDO>
F 12

$$$$
=
 OpenBabel11042419593D

 41 45  0  0  1  0  0  0  0  0999 V2000
  195.5370  170.3060  145.5500 C   0  0  1  0  0  3  0  0  0  0  0  0
  193.2940  172.7700  144.2190 C   0  0  0  0  0  0  0  0  0  0  0  0
  193.2160  169.6030  144.7020 N   0  0  0  0  0  2  0  0  0  0  0  0
  191.5410  171.2520  144.0030 C   0  0  2  0  0  3  0  0  0  0  0  0
  194.4030  170.4500  144.8670 C   0  0  2  0  0  0  0  0  0  0  0  0
  191.9790  172.6840  144.2140 C   0  0  0  0  0  0  0  0  0  0  0  0
  193.1900  175.2460  144.5460 C   0  0  0  0  0  0  0  0  0  0  0  0
  191.7530  175.1320  144.4660 N   0  0  0  0  0  0  0  0  0  0  0  0
  192.8670  170.5160  143.6950 C   0  0  1  0  0  0  0  0  0  0  0  0
  193.7250  176.3860  144.6190 O   0  0  0  0  0  0  0  0  0  0  0  0
  195.7460  169.0860  146.3770 C   0  0  0  0  0  1  0  0  0  0  0  0
  195.3090  173.9880  144.6450 N   0  0  0  0  0  0  0  0  0  0  0  0
  191.0780  173.8260  144.5850 C   0  0  0  0  0  2  0  0  0  0  0  0
  194.0180  174.0140  144.4840 C   0  0  0  0  0  0  0  0  0  0  0  0
  193.8260  171.4870  143.9920 N   0  0  0  0  0  0  0  0  0  0  0  0
  190.6980  171.1770  142.8940 O   0  0  0  0  0  1  0  0  0  0  0  0
  197.5430  171.9970  145.2490 C   0  0  0  0  0  3  0  0  0  0  0  0
  196.6240  171.2330  145.4030 C   0  0  0  0  0  0  0  0  0  0  0  0
  190.9460  176.3500  144.4280 C   0  0  2  0  0  3  0  0  0  0  0  0
  190.5790  176.7920  145.8360 C   0  0  0  0  0  1  0  0  0  0  0  0
  189.6990  176.1460  143.5800 C   0  0  0  0  0  2  0  0  0  0  0  0
  189.5260  177.2660  142.6730 N   0  0  0  0  0  2  0  0  0  0  0  0
  188.3630  178.0440  142.7340 N   0  0  0  0  0  0  0  0  0  0  0  0
  187.4250  176.7820  140.8820 C   0  0  0  0  0  1  0  0  0  0  0  0
  187.3670  177.8600  141.9240 C   0  0  0  0  0  0  0  0  0  0  0  0
  186.2460  178.6850  142.0490 O   0  0  0  0  0  0  0  0  0  0  0  0
  183.5990  178.6250  142.9280 O   0  0  0  0  0  0  0  0  0  0  0  0
  185.5540  177.3200  144.3730 O   0  0  0  0  0  1  0  0  0  0  0  0
  185.2140  178.6790  143.4270 P   0  0  0  0  0  0  0  0  0  0  0  0
  185.4490  179.9280  144.2460 O   0  0  0  0  0  1  0  0  0  0  0  0
  196.1650  175.1260  144.9650 C   0  0  0  0  0  2  0  0  0  0  0  0
  196.8570  175.1670  141.4170 N   0  0  0  0  0  0  0  0  0  0  0  0
  196.6750  176.7770  143.1860 C   0  0  0  0  0  2  0  0  0  0  0  0
  196.9320  174.4420  142.6820 C   0  0  0  0  0  2  0  0  0  0  0  0
  197.0830  175.4600  143.7950 C   0  0  2  0  0  3  0  0  0  0  0  0
  196.2430  176.4420  141.7760 C   0  0  0  0  0  2  0  0  0  0  0  0
  195.6310  173.0600  141.0680 C   0  0  0  0  0  1  0  0  0  0  0  0
  195.9590  174.4410  140.5080 C   0  0  1  0  0  3  0  0  0  0  0  0
  194.6450  175.2030  140.3270 C   0  0  0  0  0  2  0  0  0  0  0  0
  193.4450  174.2840  140.4810 C   0  0  0  0  0  2  0  0  0  0  0  0
  192.4580  174.9100  141.2420 O   0  0  0  0  0  1  0  0  0  0  0  0
  1 11  1  6  0  0  0
  2 14  1  0  0  0  0
  3  5  1  0  0  0  0
  4 16  1  6  0  0  0
  4  6  1  0  0  0  0
  5  1  1  6  0  0  0
  6  2  2  0  0  0  0
  6 13  1  0  0  0  0
  7 10  2  0  0  0  0
  8  7  1  0  0  0  0
  8 13  1  0  0  0  0
  9 15  1  0  0  0  0
  9  4  1  0  0  0  0
  9  3  1  6  0  0  0
  9  5  1  0  0  0  0
 12 31  1  0  0  0  0
 14  7  1  0  0  0  0
 14 12  2  0  0  0  0
 15  2  1  0  0  0  0
 15  5  1  0  0  0  0
 17 18  3  0  0  0  0
 18  1  1  0  0  0  0
 19  8  1  0  0  0  0
 19 20  1  1  0  0  0
 21 19  1  0  0  0  0
 22 23  1  0  0  0  0
 22 21  1  0  0  0  0
 24 25  1  0  0  0  0
 25 26  1  0  0  0  0
 25 23  2  0  0  0  0
 26 29  1  0  0  0  0
 27 29  2  0  0  0  0
 29 30  1  0  0  0  0
 29 28  1  0  0  0  0
 32 36  1  0  0  0  0
 32 34  1  0  0  0  0
 33 35  1  0  0  0  0
 34 35  1  0  0  0  0
 35 31  1  1  0  0  0
 36 33  1  0  0  0  0
 38 37  1  1  0  0  0
 38 32  1  0  0  0  0
 39 40  1  0  0  0  0
 39 38  1  0  0  0  0
 40 41  1  0  0  0  0
M  END
>  <MODEL>
7

>  <REMARK>
 VINA RESULT:      -6.1      4.003      9.004
  Name = 
  12 active torsions:
  status: ('A' for Active; 'I' for Inactive)
    1  A    between atoms: N_1  and  C_31
    2  A    between atoms: C_3  and  C_8
    3  A    between atoms: C_6  and  N_32
    4  A    between atoms: C_6  and  C_38
    5  A    between atoms: N_7  and  N_21
    6  A    between atoms: C_10  and  N_17
    7  A    between atoms: C_10  and  C_39
    8  A    between atoms: C_12  and  C_24
    9  A    between atoms: C_12  and  C_31
   10  A    between atoms: O_18  and  P_19
   11  A    between atoms: O_18  and  C_23
   12  A    between atoms: N_21  and  C_39
                            x       y       z     vdW  Elec       q    Type
                         _______ _______ _______ _____ _____    ______ ____

>  <TORSDO>
F 12

$$$$
=
 OpenBabel11042419593D

 41 45  0  0  1  0  0  0  0  0999 V2000
  192.7720  174.6950  145.7700 C   0  0  1  0  0  3  0  0  0  0  0  0
  189.3880  175.5700  144.9610 C   0  0  0  0  0  0  0  0  0  0  0  0
  191.5960  176.5860  147.0500 N   0  0  0  0  0  2  0  0  0  0  0  0
  189.3760  177.4020  146.3980 C   0  0  2  0  0  3  0  0  0  0  0  0
  191.7250  175.3960  146.2010 C   0  0  2  0  0  0  0  0  0  0  0  0
  188.8400  176.7550  145.1410 C   0  0  0  0  0  0  0  0  0  0  0  0
  188.0470  175.2010  142.8830 C   0  0  0  0  0  0  0  0  0  0  0  0
  187.4110  176.4710  143.1450 N   0  0  0  0  0  0  0  0  0  0  0  0
  190.2260  176.2800  147.0420 C   0  0  1  0  0  0  0  0  0  0  0  0
  187.6420  174.4830  141.9280 O   0  0  0  0  0  0  0  0  0  0  0  0
  194.1480  175.1270  146.1390 C   0  0  0  0  0  1  0  0  0  0  0  0
  189.8380  173.6600  143.5910 N   0  0  0  0  0  0  0  0  0  0  0  0
  187.9780  177.4280  144.1130 C   0  0  0  0  0  2  0  0  0  0  0  0
  189.1320  174.7360  143.7860 C   0  0  0  0  0  0  0  0  0  0  0  0
  190.2630  175.3140  146.0330 N   0  0  0  0  0  0  0  0  0  0  0  0
  188.3180  177.7300  147.2460 O   0  0  0  0  0  1  0  0  0  0  0  0
  192.4650  172.3910  144.5150 C   0  0  0  0  0  3  0  0  0  0  0  0
  192.6050  173.4510  145.0710 C   0  0  0  0  0  0  0  0  0  0  0  0
  186.2790  176.8810  142.3170 C   0  0  2  0  0  3  0  0  0  0  0  0
  186.7500  177.7450  141.1570 C   0  0  0  0  0  1  0  0  0  0  0  0
  185.2370  177.6130  143.1500 C   0  0  0  0  0  2  0  0  0  0  0  0
  184.3930  178.4220  142.2900 N   0  0  0  0  0  2  0  0  0  0  0  0
  183.0010  178.3860  142.4390 N   0  0  0  0  0  0  0  0  0  0  0  0
  182.7670  177.7850  140.0970 C   0  0  0  0  0  1  0  0  0  0  0  0
  182.2090  178.1010  141.4530 C   0  0  0  0  0  0  0  0  0  0  0  0
  180.8310  178.0930  141.6880 O   0  0  0  0  0  0  0  0  0  0  0  0
  179.1300  178.2950  139.4860 O   0  0  0  0  0  0  0  0  0  0  0  0
  178.4340  179.4940  141.8710 O   0  0  0  0  0  1  0  0  0  0  0  0
  179.7210  179.1060  140.8470 P   0  0  0  0  0  0  0  0  0  0  0  0
  180.4160  180.3770  140.4150 O   0  0  0  0  0  1  0  0  0  0  0  0
  189.7420  172.7560  142.4490 C   0  0  0  0  0  2  0  0  0  0  0  0
  191.6860  172.2380  139.4460 N   0  0  0  0  0  0  0  0  0  0  0  0
  191.4560  173.9480  141.1120 C   0  0  0  0  0  2  0  0  0  0  0  0
  191.0040  171.6460  140.5930 C   0  0  0  0  0  2  0  0  0  0  0  0
  191.0860  172.6300  141.7430 C   0  0  2  0  0  3  0  0  0  0  0  0
  191.5000  173.6740  139.6250 C   0  0  0  0  0  2  0  0  0  0  0  0
  191.3640  170.3740  137.8680 C   0  0  0  0  0  1  0  0  0  0  0  0
  191.0000  171.8140  138.2170 C   0  0  1  0  0  3  0  0  0  0  0  0
  189.4830  171.8890  138.3960 C   0  0  0  0  0  2  0  0  0  0  0  0
  188.8630  172.9090  137.4560 C   0  0  0  0  0  2  0  0  0  0  0  0
  188.1310  173.8480  138.1840 O   0  0  0  0  0  1  0  0  0  0  0  0
  1 11  1  1  0  0  0
  2  6  2  0  0  0  0
  2 15  1  0  0  0  0
  4  9  1  0  0  0  0
  4 16  1  1  0  0  0
  5  1  1  1  0  0  0
  5  9  1  0  0  0  0
  5  3  1  0  0  0  0
  6  4  1  0  0  0  0
  7  8  1  0  0  0  0
  7 14  1  0  0  0  0
  8 13  1  0  0  0  0
  9  3  1  1  0  0  0
 10  7  2  0  0  0  0
 12 14  2  0  0  0  0
 13  6  1  0  0  0  0
 14  2  1  0  0  0  0
 15  5  1  0  0  0  0
 15  9  1  0  0  0  0
 17 18  3  0  0  0  0
 18  1  1  0  0  0  0
 19 20  1  6  0  0  0
 19  8  1  0  0  0  0
 19 21  1  0  0  0  0
 22 23  1  0  0  0  0
 22 21  1  0  0  0  0
 24 25  1  0  0  0  0
 25 26  1  0  0  0  0
 25 23  2  0  0  0  0
 27 29  2  0  0  0  0
 29 26  1  0  0  0  0
 29 28  1  0  0  0  0
 30 29  1  0  0  0  0
 31 12  1  0  0  0  0
 32 36  1  0  0  0  0
 32 34  1  0  0  0  0
 33 35  1  0  0  0  0
 34 35  1  0  0  0  0
 35 31  1  6  0  0  0
 36 33  1  0  0  0  0
 38 37  1  1  0  0  0
 38 39  1  0  0  0  0
 38 32  1  0  0  0  0
 40 41  1  0  0  0  0
 40 39  1  0  0  0  0
M  END
>  <MODEL>
8

>  <REMARK>
 VINA RESULT:      -6.1      4.210      8.266
  Name = 
  12 active torsions:
  status: ('A' for Active; 'I' for Inactive)
    1  A    between atoms: N_1  and  C_31
    2  A    between atoms: C_3  and  C_8
    3  A    between atoms: C_6  and  N_32
    4  A    between atoms: C_6  and  C_38
    5  A    between atoms: N_7  and  N_21
    6  A    between atoms: C_10  and  N_17
    7  A    between atoms: C_10  and  C_39
    8  A    between atoms: C_12  and  C_24
    9  A    between atoms: C_12  and  C_31
   10  A    between atoms: O_18  and  P_19
   11  A    between atoms: O_18  and  C_23
   12  A    between atoms: N_21  and  C_39
                            x       y       z     vdW  Elec       q    Type
                         _______ _______ _______ _____ _____    ______ ____

>  <TORSDO>
F 12

$$$$
=
 OpenBabel11042419593D

 41 45  0  0  1  0  0  0  0  0999 V2000
  191.4740  176.1450  146.9540 C   0  0  1  0  0  3  0  0  0  0  0  0
  192.9510  175.8120  143.7010 C   0  0  0  0  0  0  0  0  0  0  0  0
  193.9860  176.5780  146.6350 N   0  0  0  0  0  2  0  0  0  0  0  0
  195.1130  176.1400  144.5010 C   0  0  2  0  0  3  0  0  0  0  0  0
  192.5780  176.4080  146.2580 C   0  0  2  0  0  0  0  0  0  0  0  0
  194.2110  175.5160  143.4590 C   0  0  0  0  0  0  0  0  0  0  0  0
  192.2040  174.5450  141.6790 C   0  0  0  0  0  0  0  0  0  0  0  0
  193.5990  174.2960  141.4000 N   0  0  0  0  0  0  0  0  0  0  0  0
  194.1480  177.0330  145.3180 C   0  0  1  0  0  0  0  0  0  0  0  0
  191.3250  174.1790  140.8520 O   0  0  0  0  0  0  0  0  0  0  0  0
  191.5670  175.9310  148.4240 C   0  0  0  0  0  1  0  0  0  0  0  0
  190.6120  175.4790  143.3150 N   0  0  0  0  0  0  0  0  0  0  0  0
  194.6390  174.5190  142.4210 C   0  0  0  0  0  2  0  0  0  0  0  0
  191.8350  175.2840  142.9150 C   0  0  0  0  0  0  0  0  0  0  0  0
  192.8950  176.6410  144.8370 N   0  0  0  0  0  0  0  0  0  0  0  0
  196.0700  176.9400  143.8750 O   0  0  0  0  0  1  0  0  0  0  0  0
  189.0760  176.2650  145.8550 C   0  0  0  0  0  3  0  0  0  0  0  0
  190.1740  176.1960  146.3460 C   0  0  0  0  0  0  0  0  0  0  0  0
  193.9660  173.6570  140.1370 C   0  0  2  0  0  3  0  0  0  0  0  0
  195.1430  172.7140  140.3370 C   0  0  0  0  0  1  0  0  0  0  0  0
  194.2820  174.7010  139.0750 C   0  0  0  0  0  2  0  0  0  0  0  0
  193.4310  174.5030  137.9160 N   0  0  0  0  0  2  0  0  0  0  0  0
  192.9630  173.2210  137.6020 N   0  0  0  0  0  0  0  0  0  0  0  0
  190.7630  174.1400  137.1380 C   0  0  0  0  0  1  0  0  0  0  0  0
  191.7360  173.0040  137.2410 C   0  0  0  0  0  0  0  0  0  0  0  0
  191.3500  171.6920  136.9510 O   0  0  0  0  0  0  0  0  0  0  0  0
  189.6880  169.5630  137.6490 O   0  0  0  0  0  0  0  0  0  0  0  0
  192.3370  169.5450  138.4210 O   0  0  0  0  0  1  0  0  0  0  0  0
  190.9830  170.5230  138.1610 P   0  0  0  0  0  0  0  0  0  0  0  0
  190.6160  171.2210  139.4500 O   0  0  0  0  0  1  0  0  0  0  0  0
  189.4000  174.9750  142.6760 C   0  0  0  0  0  2  0  0  0  0  0  0
  186.6650  177.2790  142.1490 N   0  0  0  0  0  0  0  0  0  0  0  0
  189.0400  177.4180  142.4530 C   0  0  0  0  0  2  0  0  0  0  0  0
  187.2150  175.9450  141.9290 C   0  0  0  0  0  2  0  0  0  0  0  0
  188.7250  176.0700  141.8580 C   0  0  2  0  0  3  0  0  0  0  0  0
  187.7050  177.9730  142.9000 C   0  0  0  0  0  2  0  0  0  0  0  0
  185.8470  176.9400  144.4470 C   0  0  0  0  0  1  0  0  0  0  0  0
  185.4630  177.1620  142.9870 C   0  0  1  0  0  3  0  0  0  0  0  0
  184.6250  178.4390  142.9070 C   0  0  0  0  0  2  0  0  0  0  0  0
  184.5410  179.1330  144.2560 C   0  0  0  0  0  2  0  0  0  0  0  0
  185.3540  180.2670  144.2620 O   0  0  0  0  0  1  0  0  0  0  0  0
  1 11  1  1  0  0  0
  2 15  1  0  0  0  0
  4 16  1  6  0  0  0
  4  9  1  0  0  0  0
  5  3  1  0  0  0  0
  5  1  1  1  0  0  0
  6  2  2  0  0  0  0
  6  4  1  0  0  0  0
  7 14  1  0  0  0  0
  8  7  1  0  0  0  0
  8 13  1  0  0  0  0
  9  5  1  0  0  0  0
  9  3  1  1  0  0  0
 10  7  2  0  0  0  0
 13  6  1  0  0  0  0
 14 12  2  0  0  0  0
 14  2  1  0  0  0  0
 15  9  1  0  0  0  0
 15  5  1  0  0  0  0
 17 18  3  0  0  0  0
 18  1  1  0  0  0  0
 19 20  1  1  0  0  0
 19  8  1  0  0  0  0
 21 19  1  0  0  0  0
 22 21  1  0  0  0  0
 23 22  1  0  0  0  0
 24 25  1  0  0  0  0
 25 23  2  0  0  0  0
 26 25  1  0  0  0  0
 26 29  1  0  0  0  0
 27 29  2  0  0  0  0
 29 28  1  0  0  0  0
 29 30  1  0  0  0  0
 31 12  1  0  0  0  0
 32 36  1  0  0  0  0
 32 38  1  0  0  0  0
 33 36  1  0  0  0  0
 34 32  1  0  0  0  0
 35 34  1  0  0  0  0
 35 33  1  0  0  0  0
 35 31  1  1  0  0  0
 38 37  1  1  0  0  0
 39 38  1  0  0  0  0
 39 40  1  0  0  0  0
 40 41  1  0  0  0  0
M  END
>  <MODEL>
9

>  <REMARK>
 VINA RESULT:      -6.0      3.054      7.950
  Name = 
  12 active torsions:
  status: ('A' for Active; 'I' for Inactive)
    1  A    between atoms: N_1  and  C_31
    2  A    between atoms: C_3  and  C_8
    3  A    between atoms: C_6  and  N_32
    4  A    between atoms: C_6  and  C_38
    5  A    between atoms: N_7  and  N_21
    6  A    between atoms: C_10  and  N_17
    7  A    between atoms: C_10  and  C_39
    8  A    between atoms: C_12  and  C_24
    9  A    between atoms: C_12  and  C_31
   10  A    between atoms: O_18  and  P_19
   11  A    between atoms: O_18  and  C_23
   12  A    between atoms: N_21  and  C_39
                            x       y       z     vdW  Elec       q    Type
                         _______ _______ _______ _____ _____    ______ ____

>  <TORSDO>
F 12

$$$$
