=
 OpenBabel11042416243D

 38 40  0  0  1  0  0  0  0  0999 V2000
  189.0360  175.1540  143.3560 C   0  0  0  0  0  0  0  0  0  0  0  0
  188.3940  176.1200  142.6800 C   0  0  0  0  0  3  0  0  0  0  0  0
  189.7120  175.4500  144.6460 C   0  0  0  0  0  0  0  0  0  0  0  0
  191.7010  175.9470  145.9810 C   0  0  0  0  0  0  0  0  0  0  0  0
  188.9140  175.3210  145.9360 C   0  0  0  0  0  2  0  0  0  0  0  0
  189.6460  175.7340  147.2070 C   0  0  0  0  0  3  0  0  0  0  0  0
  191.0250  175.7270  144.7290 C   0  0  0  0  0  0  0  0  0  0  0  0
  191.9710  175.7670  143.6720 N   0  0  0  0  0  0  0  0  0  0  0  0
  190.9590  175.9980  147.2540 C   0  0  0  0  0  0  0  0  0  0  0  0
  192.9880  176.1290  145.7230 C   0  0  0  0  0  3  0  0  0  0  0  0
  193.1060  176.0070  144.2550 C   0  0  0  0  0  0  0  0  0  0  0  0
  194.4190  175.7600  142.1490 C   0  0  0  0  0  3  0  0  0  0  0  0
  196.7800  176.2970  142.0850 C   0  0  0  0  0  3  0  0  0  0  0  0
  195.6150  175.8740  141.4360 C   0  0  0  0  0  3  0  0  0  0  0  0
  196.7520  176.5900  143.4500 C   0  0  0  0  0  3  0  0  0  0  0  0
  194.3770  176.0770  143.5140 C   0  0  0  0  0  0  0  0  0  0  0  0
  195.5530  176.4850  144.1630 C   0  0  0  0  0  3  0  0  0  0  0  0
  191.5230  177.6370  149.0430 C   0  0  0  0  0  1  0  0  0  0  0  0
  191.5380  176.3280  148.4880 O   0  0  0  0  0  0  0  0  0  0  0  0
  189.0270  173.7440  142.8470 C   0  0  0  0  0  2  0  0  0  0  0  0
  189.4970  172.8740  143.8290 O   0  0  0  0  0  0  0  0  0  0  0  0
  190.1550  171.9090  143.1390 N   0  0  0  0  0  2  0  0  0  0  0  0
  191.3050  171.5960  143.8780 N   0  0  0  0  0  2  0  0  0  0  0  0
  192.4300  172.1780  143.1610 C   0  0  0  0  0  2  0  0  0  0  0  0
  193.5920  172.3370  144.0810 C   0  0  0  0  0  3  0  0  0  0  0  0
  193.4120  172.6240  145.2530 O   0  0  0  0  0  0  0  0  0  0  0  0
  187.6910  175.9030  141.3790 C   0  0  0  0  0  2  0  0  0  0  0  0
  186.6920  177.0220  141.1440 C   0  0  0  0  0  2  0  0  0  0  0  0
  185.7610  177.0770  142.2540 N   0  0  0  0  0  2  0  0  0  0  0  0
  185.1000  178.3700  142.1850 C   0  0  0  0  0  2  0  0  0  0  0  0
  185.6960  179.3010  143.2280 C   0  0  0  0  0  2  0  0  0  0  0  0
  184.8980  178.5200  145.4960 C   0  0  0  0  0  0  0  0  0  0  0  0
  185.9010  178.5820  144.4760 N   0  0  0  0  0  2  0  0  0  0  0  0
  183.8210  179.1630  145.3720 O   0  0  0  0  0  0  0  0  0  0  0  0
  185.2360  176.3530  146.4130 O   0  0  0  0  0  1  0  0  0  0  0  0
  185.1270  177.7090  146.7290 C   0  0  1  0  0  3  0  0  0  0  0  0
  186.1830  179.4940  147.9530 O   0  0  0  0  0  1  0  0  0  0  0  0
  186.3550  178.1840  147.5000 C   0  0  0  0  0  2  0  0  0  0  0  0
  1  3  1  0  0  0  0
  2  1  2  0  0  0  0
  3  7  2  0  0  0  0
  3  5  1  0  0  0  0
  4  9  1  0  0  0  0
  5  6  1  0  0  0  0
  6  9  2  0  0  0  0
  7  4  1  0  0  0  0
  8 11  2  0  0  0  0
  8  7  1  0  0  0  0
  9 19  1  0  0  0  0
 10  4  2  0  0  0  0
 11 10  1  0  0  0  0
 12 16  1  0  0  0  0
 13 15  2  0  0  0  0
 14 13  1  0  0  0  0
 14 12  2  0  0  0  0
 15 17  1  0  0  0  0
 16 17  2  0  0  0  0
 16 11  1  0  0  0  0
 19 18  1  0  0  0  0
 20  1  1  0  0  0  0
 20 21  1  0  0  0  0
 22 21  1  0  0  0  0
 22 23  1  0  0  0  0
 24 23  1  0  0  0  0
 24 25  1  0  0  0  0
 25 26  2  0  0  0  0
 27  2  1  0  0  0  0
 28 27  1  0  0  0  0
 28 29  1  0  0  0  0
 30 29  1  0  0  0  0
 30 31  1  0  0  0  0
 31 33  1  0  0  0  0
 32 36  1  0  0  0  0
 33 32  1  0  0  0  0
 34 32  2  0  0  0  0
 36 35  1  6  0  0  0
 36 38  1  0  0  0  0
 38 37  1  0  0  0  0
M  END
>  <MODEL>
1

>  <REMARK>
 VINA RESULT:      -5.8      0.000      0.000
  Name = 
  17 active torsions:
  status: ('A' for Active; 'I' for Inactive)
    1  A    between atoms: C_1  and  C_11
    2  A    between atoms: C_3  and  C_38
    3  A    between atoms: N_4  and  C_23
    4  A    between atoms: C_5  and  C_6
    5  A    between atoms: C_5  and  N_7
    6  A    between atoms: C_6  and  C_21
    7  A    between atoms: N_7  and  C_31
    8  A    between atoms: C_11  and  C_27
    9  A    between atoms: N_18  and  N_20
   10  A    between atoms: N_18  and  O_36
   11  A    between atoms: C_19  and  C_32
   12  A    between atoms: N_20  and  C_32
   13  A    between atoms: C_23  and  C_31
   14  A    between atoms: C_24  and  C_38
   15  A    between atoms: O_26  and  C_28
   16  A    between atoms: C_27  and  O_36
   17  A    between atoms: C_30  and  C_35
                            x       y       z     vdW  Elec       q    Type
                         _______ _______ _______ _____ _____    ______ ____

>  <TORSDO>
F 17

$$$$
=
 OpenBabel11042416243D

 38 40  0  0  1  0  0  0  0  0999 V2000
  190.1420  174.1740  143.5890 C   0  0  0  0  0  0  0  0  0  0  0  0
  189.6930  172.9130  143.4890 C   0  0  0  0  0  3  0  0  0  0  0  0
  190.4010  174.7870  144.9170 C   0  0  0  0  0  0  0  0  0  0  0  0
  189.7640  176.2080  146.8050 C   0  0  0  0  0  0  0  0  0  0  0  0
  191.7840  174.6350  145.5350 C   0  0  0  0  0  3  0  0  0  0  0  0
  191.9440  175.2060  146.9390 C   0  0  0  0  0  3  0  0  0  0  0  0
  189.4960  175.5550  145.5500 C   0  0  0  0  0  0  0  0  0  0  0  0
  188.2060  175.9280  145.0930 N   0  0  0  0  0  0  0  0  0  0  0  0
  191.0230  175.9730  147.5370 C   0  0  0  0  0  0  0  0  0  0  0  0
  188.7020  176.9330  147.1230 C   0  0  0  0  0  2  0  0  0  0  0  0
  187.7480  176.7230  146.0130 C   0  0  0  0  0  0  0  0  0  0  0  0
  185.6800  177.6470  147.0560 C   0  0  0  0  0  3  0  0  0  0  0  0
  183.9860  178.7340  145.7070 C   0  0  0  0  0  3  0  0  0  0  0  0
  184.4600  178.3210  146.9570 C   0  0  0  0  0  3  0  0  0  0  0  0
  184.7240  178.4570  144.5540 C   0  0  0  0  0  3  0  0  0  0  0  0
  186.4390  177.3880  145.9050 C   0  0  0  0  0  0  0  0  0  0  0  0
  185.9500  177.7890  144.6530 C   0  0  0  0  0  3  0  0  0  0  0  0
  191.6250  177.8380  149.0750 C   0  0  0  0  0  1  0  0  0  0  0  0
  191.2920  176.4800  148.8160 O   0  0  0  0  0  0  0  0  0  0  0  0
  190.4480  174.9650  142.3520 C   0  0  0  0  0  2  0  0  0  0  0  0
  189.3120  175.6470  141.9210 O   0  0  0  0  0  0  0  0  0  0  0  0
  189.5820  176.9510  142.1780 N   0  0  0  0  0  2  0  0  0  0  0  0
  188.4350  177.6780  141.8290 N   0  0  0  0  0  2  0  0  0  0  0  0
  187.5290  176.7380  141.1850 C   0  0  0  0  0  2  0  0  0  0  0  0
  186.3570  177.4670  140.6210 C   0  0  0  0  0  3  0  0  0  0  0  0
  185.9070  178.4440  141.1970 O   0  0  0  0  0  0  0  0  0  0  0  0
  189.4090  172.2270  142.1920 C   0  0  0  0  0  2  0  0  0  0  0  0
  190.2880  170.9950  142.0620 C   0  0  0  0  0  2  0  0  0  0  0  0
  191.6680  171.4040  141.8930 N   0  0  0  0  0  2  0  0  0  0  0  0
  192.4830  170.4450  142.6230 C   0  0  0  0  0  2  0  0  0  0  0  0
  193.8660  171.0310  142.8560 C   0  0  0  0  0  2  0  0  0  0  0  0
  194.5170  173.4700  142.9740 C   0  0  0  0  0  0  0  0  0  0  0  0
  193.9480  172.3600  142.2710 N   0  0  0  0  0  2  0  0  0  0  0  0
  194.8970  173.3430  144.1690 O   0  0  0  0  0  0  0  0  0  0  0  0
  193.7910  174.8810  141.2040 O   0  0  0  0  0  1  0  0  0  0  0  0
  194.6460  174.7990  142.3040 C   0  0  1  0  0  3  0  0  0  0  0  0
  195.5930  176.4890  143.7350 O   0  0  0  0  0  1  0  0  0  0  0  0
  194.3910  175.9500  143.2730 C   0  0  0  0  0  2  0  0  0  0  0  0
  1  3  1  0  0  0  0
  2  1  2  0  0  0  0
  3  5  2  0  0  0  0
  3  7  1  0  0  0  0
  4 10  1  0  0  0  0
  4  9  1  0  0  0  0
  5  6  1  0  0  0  0
  6  9  2  0  0  0  0
  7  4  2  0  0  0  0
  8  7  1  0  0  0  0
  8 11  2  0  0  0  0
  9 19  1  0  0  0  0
 11 10  1  0  0  0  0
 13 14  2  0  0  0  0
 14 12  1  0  0  0  0
 15 17  2  0  0  0  0
 15 13  1  0  0  0  0
 16 11  1  0  0  0  0
 16 12  2  0  0  0  0
 17 16  1  0  0  0  0
 19 18  1  0  0  0  0
 20  1  1  0  0  0  0
 21 22  1  0  0  0  0
 21 20  1  0  0  0  0
 23 22  1  0  0  0  0
 24 23  1  0  0  0  0
 25 24  1  0  0  0  0
 25 26  2  0  0  0  0
 27  2  1  0  0  0  0
 28 27  1  0  0  0  0
 29 28  1  0  0  0  0
 29 30  1  0  0  0  0
 30 31  1  0  0  0  0
 32 34  2  0  0  0  0
 33 31  1  0  0  0  0
 33 32  1  0  0  0  0
 36 35  1  6  0  0  0
 36 32  1  0  0  0  0
 36 38  1  0  0  0  0
 38 37  1  0  0  0  0
M  END
>  <MODEL>
2

>  <REMARK>
 VINA RESULT:      -5.7      2.290      7.961
  Name = 
  17 active torsions:
  status: ('A' for Active; 'I' for Inactive)
    1  A    between atoms: C_1  and  C_11
    2  A    between atoms: C_3  and  C_38
    3  A    between atoms: N_4  and  C_23
    4  A    between atoms: C_5  and  C_6
    5  A    between atoms: C_5  and  N_7
    6  A    between atoms: C_6  and  C_21
    7  A    between atoms: N_7  and  C_31
    8  A    between atoms: C_11  and  C_27
    9  A    between atoms: N_18  and  N_20
   10  A    between atoms: N_18  and  O_36
   11  A    between atoms: C_19  and  C_32
   12  A    between atoms: N_20  and  C_32
   13  A    between atoms: C_23  and  C_31
   14  A    between atoms: C_24  and  C_38
   15  A    between atoms: O_26  and  C_28
   16  A    between atoms: C_27  and  O_36
   17  A    between atoms: C_30  and  C_35
                            x       y       z     vdW  Elec       q    Type
                         _______ _______ _______ _____ _____    ______ ____

>  <TORSDO>
F 17

$$$$
=
 OpenBabel11042416243D

 38 40  0  0  1  0  0  0  0  0999 V2000
  191.1310  175.0380  144.0520 C   0  0  0  0  0  0  0  0  0  0  0  0
  191.9320  176.1060  144.1920 C   0  0  0  0  0  3  0  0  0  0  0  0
  190.3610  174.8240  142.8000 C   0  0  0  0  0  0  0  0  0  0  0  0
  188.4230  175.2170  141.3590 C   0  0  0  0  0  0  0  0  0  0  0  0
  190.8290  173.7500  141.8280 C   0  0  0  0  0  3  0  0  0  0  0  0
  190.0460  173.6560  140.5240 C   0  0  0  0  0  3  0  0  0  0  0  0
  189.2110  175.4690  142.5380 C   0  0  1  0  0  3  0  0  0  0  0  0
  188.5350  176.4050  143.3620 N   0  0  0  0  0  0  0  0  0  0  0  0
  188.8990  174.3090  140.2990 C   0  0  0  0  0  0  0  0  0  0  0  0
  187.3290  175.9610  141.4330 C   0  0  0  0  0  3  0  0  0  0  0  0
  187.4470  176.6910  142.7130 C   0  0  0  0  0  0  0  0  0  0  0  0
  185.1160  177.5780  142.7340 C   0  0  0  0  0  3  0  0  0  0  0  0
  184.4430  179.2680  144.3330 C   0  0  0  0  0  3  0  0  0  0  0  0
  184.1310  178.4050  143.2770 C   0  0  0  0  0  3  0  0  0  0  0  0
  185.7460  179.3150  144.8350 C   0  0  0  0  0  3  0  0  0  0  0  0
  186.4200  177.6000  143.2490 C   0  0  0  0  0  0  0  0  0  0  0  0
  186.7320  178.4800  144.2970 C   0  0  0  0  0  3  0  0  0  0  0  0
  188.9100  173.9270  137.8380 C   0  0  0  0  0  1  0  0  0  0  0  0
  188.2390  174.1170  139.0760 O   0  0  0  0  0  0  0  0  0  0  0  0
  191.0510  174.0080  145.1390 C   0  0  0  0  0  2  0  0  0  0  0  0
  189.7920  174.0330  145.7360 O   0  0  0  0  0  0  0  0  0  0  0  0
  189.9760  174.7270  146.8860 N   0  0  0  0  0  2  0  0  0  0  0  0
  188.7020  174.9760  147.4160 N   0  0  0  0  0  2  0  0  0  0  0  0
  188.2280  176.2050  146.7960 C   0  0  0  0  0  2  0  0  0  0  0  0
  189.3390  177.1970  146.7210 C   0  0  0  0  0  3  0  0  0  0  0  0
  189.5520  177.9510  147.6560 O   0  0  0  0  0  0  0  0  0  0  0  0
  192.7380  176.3910  145.4180 C   0  0  0  0  0  2  0  0  0  0  0  0
  194.0600  177.0280  145.0250 C   0  0  0  0  0  2  0  0  0  0  0  0
  195.1110  176.0320  145.0890 N   0  0  0  0  0  2  0  0  0  0  0  0
  195.9270  176.2040  143.8970 C   0  0  0  0  0  2  0  0  0  0  0  0
  197.0670  175.2000  143.9130 C   0  0  0  0  0  2  0  0  0  0  0  0
  196.2210  172.8380  144.2230 C   0  0  0  0  0  0  0  0  0  0  0  0
  196.7200  174.0680  144.7590 N   0  0  0  0  0  2  0  0  0  0  0  0
  195.9900  172.7260  142.9900 O   0  0  0  0  0  0  0  0  0  0  0  0
  196.8030  171.7030  146.2290 O   0  0  0  0  0  1  0  0  0  0  0  0
  195.9480  171.6790  145.1260 C   0  0  1  0  0  3  0  0  0  0  0  0
  193.8000  170.6070  144.9350 O   0  0  0  0  0  1  0  0  0  0  0  0
  194.4910  171.6400  145.5740 C   0  0  0  0  0  2  0  0  0  0  0  0
  1  2  2  0  0  0  0
  1 20  1  0  0  0  0
  2 27  1  0  0  0  0
  3  1  1  0  0  0  0
  4 10  2  0  0  0  0
  5  3  2  0  0  0  0
  6  5  1  0  0  0  0
  7  4  1  1  0  0  0
  7  3  1  0  0  0  0
  7  8  1  0  0  0  0
  9  6  2  0  0  0  0
  9  4  1  0  0  0  0
 10 11  1  0  0  0  0
 11 16  1  0  0  0  0
 11  8  2  0  0  0  0
 12 16  2  0  0  0  0
 12 14  1  0  0  0  0
 13 15  1  0  0  0  0
 14 13  2  0  0  0  0
 16 17  1  0  0  0  0
 17 15  2  0  0  0  0
 18 19  1  0  0  0  0
 19  9  1  0  0  0  0
 20 21  1  0  0  0  0
 21 22  1  0  0  0  0
 22 23  1  0  0  0  0
 24 23  1  0  0  0  0
 25 24  1  0  0  0  0
 25 26  2  0  0  0  0
 28 29  1  0  0  0  0
 28 27  1  0  0  0  0
 30 31  1  0  0  0  0
 30 29  1  0  0  0  0
 31 33  1  0  0  0  0
 32 33  1  0  0  0  0
 32 36  1  0  0  0  0
 34 32  2  0  0  0  0
 36 38  1  0  0  0  0
 36 35  1  1  0  0  0
 37 38  1  0  0  0  0
M  END
>  <MODEL>
3

>  <REMARK>
 VINA RESULT:      -5.6      2.574      8.845
  Name = 
  17 active torsions:
  status: ('A' for Active; 'I' for Inactive)
    1  A    between atoms: C_1  and  C_11
    2  A    between atoms: C_3  and  C_38
    3  A    between atoms: N_4  and  C_23
    4  A    between atoms: C_5  and  C_6
    5  A    between atoms: C_5  and  N_7
    6  A    between atoms: C_6  and  C_21
    7  A    between atoms: N_7  and  C_31
    8  A    between atoms: C_11  and  C_27
    9  A    between atoms: N_18  and  N_20
   10  A    between atoms: N_18  and  O_36
   11  A    between atoms: C_19  and  C_32
   12  A    between atoms: N_20  and  C_32
   13  A    between atoms: C_23  and  C_31
   14  A    between atoms: C_24  and  C_38
   15  A    between atoms: O_26  and  C_28
   16  A    between atoms: C_27  and  O_36
   17  A    between atoms: C_30  and  C_35
                            x       y       z     vdW  Elec       q    Type
                         _______ _______ _______ _____ _____    ______ ____

>  <TORSDO>
F 17

$$$$
=
 OpenBabel11042416243D

 38 40  0  0  1  0  0  0  0  0999 V2000
  192.0100  174.9060  144.2260 C   0  0  0  0  0  0  0  0  0  0  0  0
  191.6730  174.3740  145.4110 C   0  0  0  0  0  3  0  0  0  0  0  0
  191.6270  174.2370  142.9560 C   0  0  0  0  0  0  0  0  0  0  0  0
  190.1100  173.8830  141.0690 C   0  0  0  0  0  0  0  0  0  0  0  0
  192.4530  173.0510  142.4770 C   0  0  0  0  0  2  0  0  0  0  0  0
  192.0590  172.4800  141.1200 C   0  0  0  0  0  3  0  0  0  0  0  0
  190.5240  174.5720  142.2640 C   0  0  0  0  0  0  0  0  0  0  0  0
  189.5540  175.5510  142.6000 N   0  0  0  0  0  0  0  0  0  0  0  0
  190.9480  172.8330  140.4610 C   0  0  0  0  0  0  0  0  0  0  0  0
  188.9600  174.4090  140.6730 C   0  0  0  0  0  3  0  0  0  0  0  0
  188.6530  175.4560  141.6700 C   0  0  0  0  0  0  0  0  0  0  0  0
  186.5950  176.2990  142.7990 C   0  0  0  0  0  3  0  0  0  0  0  0
  185.1390  177.8920  141.7000 C   0  0  0  0  0  3  0  0  0  0  0  0
  185.4580  177.1110  142.8150 C   0  0  0  0  0  3  0  0  0  0  0  0
  185.9480  177.8500  140.5620 C   0  0  0  0  0  3  0  0  0  0  0  0
  187.4260  176.2710  141.6690 C   0  0  0  0  0  0  0  0  0  0  0  0
  187.0920  177.0450  140.5480 C   0  0  0  0  0  3  0  0  0  0  0  0
  190.4350  170.8170  139.0910 C   0  0  0  0  0  1  0  0  0  0  0  0
  190.6620  172.2130  139.2360 O   0  0  0  0  0  0  0  0  0  0  0  0
  192.7260  176.2220  144.1660 C   0  0  0  0  0  2  0  0  0  0  0  0
  193.8770  176.1100  143.3880 O   0  0  0  0  0  0  0  0  0  0  0  0
  194.8880  176.4450  144.2280 N   0  0  0  0  0  2  0  0  0  0  0  0
  196.0780  176.3190  143.4980 N   0  0  0  0  0  2  0  0  0  0  0  0
  195.9240  175.1430  142.6550 C   0  0  0  0  0  2  0  0  0  0  0  0
  197.1240  174.2660  142.7830 C   0  0  0  0  0  3  0  0  0  0  0  0
  197.9410  174.2090  141.8780 O   0  0  0  0  0  0  0  0  0  0  0  0
  192.0190  174.9860  146.7300 C   0  0  0  0  0  2  0  0  0  0  0  0
  190.7860  175.6370  147.3320 C   0  0  0  0  0  2  0  0  0  0  0  0
  189.6160  174.8470  147.0010 N   0  0  0  0  0  2  0  0  0  0  0  0
  188.4560  175.6900  147.2490 C   0  0  0  0  0  2  0  0  0  0  0  0
  188.1830  176.5480  146.0250 C   0  0  0  0  0  2  0  0  0  0  0  0
  185.8140  177.3170  146.4510 C   0  0  0  0  0  0  0  0  0  0  0  0
  187.2160  177.5850  146.3510 N   0  0  0  0  0  2  0  0  0  0  0  0
  185.3610  176.1730  146.1780 O   0  0  0  0  0  0  0  0  0  0  0  0
  185.5430  179.4080  147.5490 O   0  0  0  0  0  1  0  0  0  0  0  0
  184.8680  178.3990  146.8600 C   0  0  1  0  0  3  0  0  0  0  0  0
  184.9530  179.7630  144.8770 O   0  0  0  0  0  1  0  0  0  0  0  0
  184.1120  178.9730  145.6660 C   0  0  0  0  0  2  0  0  0  0  0  0
  1  2  2  0  0  0  0
  2 27  1  0  0  0  0
  3  1  1  0  0  0  0
  4  7  1  0  0  0  0
  5  3  1  0  0  0  0
  6  5  1  0  0  0  0
  7  8  1  0  0  0  0
  7  3  2  0  0  0  0
  9  4  1  0  0  0  0
  9  6  2  0  0  0  0
 10  4  2  0  0  0  0
 10 11  1  0  0  0  0
 11  8  2  0  0  0  0
 12 14  1  0  0  0  0
 13 14  2  0  0  0  0
 15 13  1  0  0  0  0
 16 11  1  0  0  0  0
 16 12  2  0  0  0  0
 17 15  2  0  0  0  0
 17 16  1  0  0  0  0
 18 19  1  0  0  0  0
 19  9  1  0  0  0  0
 20  1  1  0  0  0  0
 21 20  1  0  0  0  0
 21 22  1  0  0  0  0
 23 22  1  0  0  0  0
 24 25  1  0  0  0  0
 24 23  1  0  0  0  0
 26 25  2  0  0  0  0
 27 28  1  0  0  0  0
 29 30  1  0  0  0  0
 29 28  1  0  0  0  0
 31 33  1  0  0  0  0
 31 30  1  0  0  0  0
 32 36  1  0  0  0  0
 33 32  1  0  0  0  0
 34 32  2  0  0  0  0
 36 35  1  6  0  0  0
 37 38  1  0  0  0  0
 38 36  1  0  0  0  0
M  END
>  <MODEL>
4

>  <REMARK>
 VINA RESULT:      -5.5      2.385      6.480
  Name = 
  17 active torsions:
  status: ('A' for Active; 'I' for Inactive)
    1  A    between atoms: C_1  and  C_11
    2  A    between atoms: C_3  and  C_38
    3  A    between atoms: N_4  and  C_23
    4  A    between atoms: C_5  and  C_6
    5  A    between atoms: C_5  and  N_7
    6  A    between atoms: C_6  and  C_21
    7  A    between atoms: N_7  and  C_31
    8  A    between atoms: C_11  and  C_27
    9  A    between atoms: N_18  and  N_20
   10  A    between atoms: N_18  and  O_36
   11  A    between atoms: C_19  and  C_32
   12  A    between atoms: N_20  and  C_32
   13  A    between atoms: C_23  and  C_31
   14  A    between atoms: C_24  and  C_38
   15  A    between atoms: O_26  and  C_28
   16  A    between atoms: C_27  and  O_36
   17  A    between atoms: C_30  and  C_35
                            x       y       z     vdW  Elec       q    Type
                         _______ _______ _______ _____ _____    ______ ____

>  <TORSDO>
F 17

$$$$
=
 OpenBabel11042416243D

 38 40  0  0  1  0  0  0  0  0999 V2000
  188.8420  176.1840  142.3970 C   0  0  0  0  0  0  0  0  0  0  0  0
  187.9990  176.5120  141.4050 C   0  0  0  0  0  3  0  0  0  0  0  0
  189.4350  174.8240  142.4730 C   0  0  0  0  0  0  0  0  0  0  0  0
  191.3460  173.3000  142.5700 C   0  0  0  0  0  0  0  0  0  0  0  0
  188.5170  173.6180  142.3280 C   0  0  0  0  0  3  0  0  0  0  0  0
  189.1820  172.2590  142.5140 C   0  0  0  0  0  3  0  0  0  0  0  0
  190.7600  174.6150  142.5650 C   0  0  0  0  0  0  0  0  0  0  0  0
  191.7910  175.5880  142.5800 N   0  0  0  0  0  0  0  0  0  0  0  0
  190.5080  172.0870  142.5960 C   0  0  0  0  0  0  0  0  0  0  0  0
  192.6630  173.4410  142.6040 C   0  0  0  0  0  2  0  0  0  0  0  0
  192.8930  174.9010  142.6100 C   0  0  0  0  0  0  0  0  0  0  0  0
  194.7830  175.9490  141.3640 C   0  0  0  0  0  3  0  0  0  0  0  0
  196.7140  176.8200  142.5380 C   0  0  0  0  0  3  0  0  0  0  0  0
  196.0220  176.5930  141.3440 C   0  0  0  0  0  3  0  0  0  0  0  0
  196.1750  176.3870  143.7510 C   0  0  0  0  0  3  0  0  0  0  0  0
  194.2220  175.5340  142.5810 C   0  0  0  0  0  0  0  0  0  0  0  0
  194.9290  175.7490  143.7740 C   0  0  0  0  0  3  0  0  0  0  0  0
  190.8280  169.7650  141.7540 C   0  0  0  0  0  1  0  0  0  0  0  0
  191.0140  170.7860  142.7250 O   0  0  0  0  0  0  0  0  0  0  0  0
  189.2480  177.2110  143.4120 C   0  0  0  0  0  2  0  0  0  0  0  0
  188.3710  177.1940  144.4940 O   0  0  0  0  0  0  0  0  0  0  0  0
  189.0220  176.4840  145.4470 N   0  0  0  0  0  2  0  0  0  0  0  0
  189.5480  177.4130  146.3560 N   0  0  0  0  0  2  0  0  0  0  0  0
  190.4790  176.6830  147.2040 C   0  0  0  0  0  2  0  0  0  0  0  0
  191.5480  176.0640  146.3700 C   0  0  0  0  0  3  0  0  0  0  0  0
  192.7060  176.4310  146.4850 O   0  0  0  0  0  0  0  0  0  0  0  0
  187.3630  177.8570  141.2590 C   0  0  0  0  0  2  0  0  0  0  0  0
  185.9890  177.7080  140.6300 C   0  0  0  0  0  2  0  0  0  0  0  0
  185.0780  178.6590  141.2340 N   0  0  0  0  0  2  0  0  0  0  0  0
  184.3270  177.9350  142.2480 C   0  0  0  0  0  2  0  0  0  0  0  0
  184.0030  178.8690  143.4020 C   0  0  0  0  0  2  0  0  0  0  0  0
  184.8390  178.7900  145.7860 C   0  0  0  0  0  0  0  0  0  0  0  0
  185.0830  178.8480  144.3760 N   0  0  0  0  0  2  0  0  0  0  0  0
  183.6630  178.8360  146.2330 O   0  0  0  0  0  0  0  0  0  0  0  0
  185.8980  179.7010  147.7100 O   0  0  0  0  0  1  0  0  0  0  0  0
  185.9820  178.6960  146.7440 C   0  0  1  0  0  3  0  0  0  0  0  0
  185.8010  176.3090  146.4740 O   0  0  0  0  0  1  0  0  0  0  0  0
  186.0580  177.3220  147.4030 C   0  0  0  0  0  2  0  0  0  0  0  0
  1  3  1  0  0  0  0
  1 20  1  0  0  0  0
  2  1  2  0  0  0  0
  3  7  1  0  0  0  0
  4  9  1  0  0  0  0
  4 10  1  0  0  0  0
  5  3  2  0  0  0  0
  5  6  1  0  0  0  0
  6  9  2  0  0  0  0
  7  4  2  0  0  0  0
  7  8  1  0  0  0  0
  8 11  2  0  0  0  0
  9 19  1  0  0  0  0
 10 11  1  0  0  0  0
 12 16  1  0  0  0  0
 13 15  2  0  0  0  0
 14 12  2  0  0  0  0
 14 13  1  0  0  0  0
 15 17  1  0  0  0  0
 16 11  1  0  0  0  0
 16 17  2  0  0  0  0
 18 19  1  0  0  0  0
 20 21  1  0  0  0  0
 21 22  1  0  0  0  0
 22 23  1  0  0  0  0
 23 24  1  0  0  0  0
 25 26  2  0  0  0  0
 25 24  1  0  0  0  0
 27  2  1  0  0  0  0
 28 29  1  0  0  0  0
 28 27  1  0  0  0  0
 29 30  1  0  0  0  0
 30 31  1  0  0  0  0
 31 33  1  0  0  0  0
 32 34  2  0  0  0  0
 32 36  1  0  0  0  0
 33 32  1  0  0  0  0
 36 38  1  0  0  0  0
 36 35  1  1  0  0  0
 37 38  1  0  0  0  0
M  END
>  <MODEL>
5

>  <REMARK>
 VINA RESULT:      -5.5      1.758      3.822
  Name = 
  17 active torsions:
  status: ('A' for Active; 'I' for Inactive)
    1  A    between atoms: C_1  and  C_11
    2  A    between atoms: C_3  and  C_38
    3  A    between atoms: N_4  and  C_23
    4  A    between atoms: C_5  and  C_6
    5  A    between atoms: C_5  and  N_7
    6  A    between atoms: C_6  and  C_21
    7  A    between atoms: N_7  and  C_31
    8  A    between atoms: C_11  and  C_27
    9  A    between atoms: N_18  and  N_20
   10  A    between atoms: N_18  and  O_36
   11  A    between atoms: C_19  and  C_32
   12  A    between atoms: N_20  and  C_32
   13  A    between atoms: C_23  and  C_31
   14  A    between atoms: C_24  and  C_38
   15  A    between atoms: O_26  and  C_28
   16  A    between atoms: C_27  and  O_36
   17  A    between atoms: C_30  and  C_35
                            x       y       z     vdW  Elec       q    Type
                         _______ _______ _______ _____ _____    ______ ____

>  <TORSDO>
F 17

$$$$
=
 OpenBabel11042416243D

 38 40  0  0  1  0  0  0  0  0999 V2000
  189.2450  173.9410  142.0790 C   0  0  0  0  0  0  0  0  0  0  0  0
  189.1470  174.4830  140.8550 C   0  0  0  0  0  3  0  0  0  0  0  0
  189.9630  174.6500  143.1690 C   0  0  0  0  0  0  0  0  0  0  0  0
  190.0510  176.2530  145.0150 C   0  0  0  0  0  0  0  0  0  0  0  0
  191.4730  174.4850  143.2790 C   0  0  0  0  0  3  0  0  0  0  0  0
  192.1230  175.1630  144.4780 C   0  0  0  0  0  3  0  0  0  0  0  0
  189.3500  175.5100  144.0010 C   0  0  0  0  0  0  0  0  0  0  0  0
  187.9880  175.9050  143.9880 N   0  0  0  0  0  0  0  0  0  0  0  0
  191.4820  176.0210  145.2830 C   0  0  0  0  0  0  0  0  0  0  0  0
  189.1790  177.0520  145.6120 C   0  0  0  0  0  2  0  0  0  0  0  0
  187.8930  176.7950  144.9290 C   0  0  0  0  0  0  0  0  0  0  0  0
  186.3120  178.6790  144.5180 C   0  0  0  0  0  3  0  0  0  0  0  0
  184.2100  178.8210  145.7130 C   0  0  0  0  0  3  0  0  0  0  0  0
  185.1000  179.3290  144.7610 C   0  0  0  0  0  3  0  0  0  0  0  0
  184.5400  177.6710  146.4340 C   0  0  0  0  0  3  0  0  0  0  0  0
  186.6390  177.5100  145.2200 C   0  0  0  0  0  0  0  0  0  0  0  0
  185.7500  177.0140  146.1860 C   0  0  0  0  0  3  0  0  0  0  0  0
  193.5760  176.4090  146.5760 C   0  0  0  0  0  1  0  0  0  0  0  0
  192.1910  176.6200  146.3350 O   0  0  0  0  0  0  0  0  0  0  0  0
  188.5760  172.6330  142.3810 C   0  0  0  0  0  2  0  0  0  0  0  0
  189.4960  171.7300  142.9080 O   0  0  0  0  0  0  0  0  0  0  0  0
  190.1230  171.2130  141.8220 N   0  0  0  0  0  2  0  0  0  0  0  0
  191.0560  170.2810  142.2990 N   0  0  0  0  0  2  0  0  0  0  0  0
  192.2290  171.0410  142.7070 C   0  0  0  0  0  2  0  0  0  0  0  0
  192.6460  170.6350  144.0790 C   0  0  0  0  0  3  0  0  0  0  0  0
  193.3380  171.3780  144.7550 O   0  0  0  0  0  0  0  0  0  0  0  0
  188.4420  173.8340  139.7080 C   0  0  0  0  0  2  0  0  0  0  0  0
  189.3490  173.8220  138.4900 C   0  0  0  0  0  2  0  0  0  0  0  0
  190.2940  172.7280  138.6050 N   0  0  0  0  0  2  0  0  0  0  0  0
  191.6170  173.2890  138.3810 C   0  0  0  0  0  2  0  0  0  0  0  0
  192.4910  173.0250  139.5960 C   0  0  0  0  0  2  0  0  0  0  0  0
  194.3700  174.6400  140.0930 C   0  0  0  0  0  0  0  0  0  0  0  0
  192.9850  174.2820  140.1360 N   0  0  0  0  0  2  0  0  0  0  0  0
  195.2260  173.8300  139.6480 O   0  0  0  0  0  0  0  0  0  0  0  0
  194.0940  176.3420  141.7300 O   0  0  0  0  0  1  0  0  0  0  0  0
  194.8180  175.9740  140.5940 C   0  0  1  0  0  3  0  0  0  0  0  0
  196.5880  175.5240  142.1660 O   0  0  0  0  0  1  0  0  0  0  0  0
  196.3170  175.9980  140.8790 C   0  0  0  0  0  2  0  0  0  0  0  0
  1 20  1  0  0  0  0
  1  3  1  0  0  0  0
  2  1  2  0  0  0  0
  3  5  2  0  0  0  0
  3  7  1  0  0  0  0
  4  9  1  0  0  0  0
  4 10  1  0  0  0  0
  5  6  1  0  0  0  0
  6  9  2  0  0  0  0
  7  4  2  0  0  0  0
  8  7  1  0  0  0  0
  8 11  2  0  0  0  0
  9 19  1  0  0  0  0
 11 16  1  0  0  0  0
 11 10  1  0  0  0  0
 12 14  2  0  0  0  0
 12 16  1  0  0  0  0
 13 15  2  0  0  0  0
 14 13  1  0  0  0  0
 16 17  2  0  0  0  0
 17 15  1  0  0  0  0
 19 18  1  0  0  0  0
 20 21  1  0  0  0  0
 22 23  1  0  0  0  0
 22 21  1  0  0  0  0
 23 24  1  0  0  0  0
 24 25  1  0  0  0  0
 25 26  2  0  0  0  0
 27  2  1  0  0  0  0
 28 29  1  0  0  0  0
 28 27  1  0  0  0  0
 30 29  1  0  0  0  0
 30 31  1  0  0  0  0
 31 33  1  0  0  0  0
 32 33  1  0  0  0  0
 32 36  1  0  0  0  0
 34 32  2  0  0  0  0
 36 38  1  0  0  0  0
 36 35  1  1  0  0  0
 38 37  1  0  0  0  0
M  END
>  <MODEL>
6

>  <REMARK>
 VINA RESULT:      -5.5      2.915      7.400
  Name = 
  17 active torsions:
  status: ('A' for Active; 'I' for Inactive)
    1  A    between atoms: C_1  and  C_11
    2  A    between atoms: C_3  and  C_38
    3  A    between atoms: N_4  and  C_23
    4  A    between atoms: C_5  and  C_6
    5  A    between atoms: C_5  and  N_7
    6  A    between atoms: C_6  and  C_21
    7  A    between atoms: N_7  and  C_31
    8  A    between atoms: C_11  and  C_27
    9  A    between atoms: N_18  and  N_20
   10  A    between atoms: N_18  and  O_36
   11  A    between atoms: C_19  and  C_32
   12  A    between atoms: N_20  and  C_32
   13  A    between atoms: C_23  and  C_31
   14  A    between atoms: C_24  and  C_38
   15  A    between atoms: O_26  and  C_28
   16  A    between atoms: C_27  and  O_36
   17  A    between atoms: C_30  and  C_35
                            x       y       z     vdW  Elec       q    Type
                         _______ _______ _______ _____ _____    ______ ____

>  <TORSDO>
F 17

$$$$
=
 OpenBabel11042416243D

 38 40  0  0  1  0  0  0  0  0999 V2000
  190.0830  174.0550  143.3740 C   0  0  0  0  0  0  0  0  0  0  0  0
  190.5480  174.6610  142.2710 C   0  0  0  0  0  3  0  0  0  0  0  0
  190.3340  174.6300  144.7210 C   0  0  0  0  0  0  0  0  0  0  0  0
  189.7330  176.0760  146.6010 C   0  0  0  0  0  0  0  0  0  0  0  0
  191.6730  174.3610  145.3930 C   0  0  0  0  0  2  0  0  0  0  0  0
  191.8180  174.9020  146.8110 C   0  0  0  0  0  3  0  0  0  0  0  0
  189.4680  175.4610  145.3270 C   0  0  0  0  0  0  0  0  0  0  0  0
  188.2320  175.9420  144.8230 N   0  0  0  0  0  0  0  0  0  0  0  0
  190.9370  175.7330  147.3810 C   0  0  0  0  0  0  0  0  0  0  0  0
  188.7200  176.8800  146.8850 C   0  0  0  0  0  3  0  0  0  0  0  0
  187.8000  176.7600  145.7340 C   0  0  0  0  0  0  0  0  0  0  0  0
  185.4710  177.3000  146.4430 C   0  0  0  0  0  3  0  0  0  0  0  0
  184.2130  179.0560  145.3480 C   0  0  0  0  0  3  0  0  0  0  0  0
  184.3070  178.0640  146.3290 C   0  0  0  0  0  3  0  0  0  0  0  0
  185.2770  179.2730  144.4690 C   0  0  0  0  0  3  0  0  0  0  0  0
  186.5540  177.5290  145.5820 C   0  0  0  0  0  0  0  0  0  0  0  0
  186.4470  178.5140  144.5880 C   0  0  0  0  0  3  0  0  0  0  0  0
  191.5790  177.5380  148.9730 C   0  0  0  0  0  1  0  0  0  0  0  0
  191.1910  176.2030  148.6780 O   0  0  0  0  0  0  0  0  0  0  0  0
  189.2470  172.8150  143.2580 C   0  0  0  0  0  2  0  0  0  0  0  0
  189.9730  171.7020  143.6770 O   0  0  0  0  0  0  0  0  0  0  0  0
  190.3130  171.0680  142.5280 N   0  0  0  0  0  2  0  0  0  0  0  0
  191.7010  170.8740  142.5680 N   0  0  0  0  0  2  0  0  0  0  0  0
  191.9250  169.4460  142.3950 C   0  0  0  0  0  2  0  0  0  0  0  0
  193.0160  168.9900  143.3040 C   0  0  0  0  0  3  0  0  0  0  0  0
  192.7540  168.6110  144.4340 O   0  0  0  0  0  0  0  0  0  0  0  0
  190.3380  174.1470  140.8830 C   0  0  0  0  0  2  0  0  0  0  0  0
  191.6670  173.7090  140.2920 C   0  0  0  0  0  2  0  0  0  0  0  0
  192.7470  174.1910  141.1300 N   0  0  0  0  0  2  0  0  0  0  0  0
  193.7220  174.8100  140.2450 C   0  0  0  0  0  2  0  0  0  0  0  0
  194.6480  175.7010  141.0550 C   0  0  0  0  0  2  0  0  0  0  0  0
  195.4680  175.4170  143.4290 C   0  0  0  0  0  0  0  0  0  0  0  0
  194.4030  175.5120  142.4760 N   0  0  0  0  0  2  0  0  0  0  0  0
  196.6680  175.4160  143.0470 O   0  0  0  0  0  0  0  0  0  0  0  0
  196.1960  174.6290  145.5500 O   0  0  0  0  0  1  0  0  0  0  0  0
  195.1650  175.2960  144.8870 C   0  0  1  0  0  3  0  0  0  0  0  0
  193.7220  177.2190  145.0360 O   0  0  0  0  0  1  0  0  0  0  0  0
  194.9030  176.6560  145.5260 C   0  0  0  0  0  2  0  0  0  0  0  0
  1  3  1  0  0  0  0
  2  1  2  0  0  0  0
  3  7  2  0  0  0  0
  3  5  1  0  0  0  0
  4 10  2  0  0  0  0
  4  9  1  0  0  0  0
  5  6  1  0  0  0  0
  6  9  2  0  0  0  0
  7  4  1  0  0  0  0
  8  7  1  0  0  0  0
  8 11  2  0  0  0  0
  9 19  1  0  0  0  0
 11 10  1  0  0  0  0
 13 14  2  0  0  0  0
 14 12  1  0  0  0  0
 15 17  2  0  0  0  0
 15 13  1  0  0  0  0
 16 11  1  0  0  0  0
 16 12  2  0  0  0  0
 17 16  1  0  0  0  0
 19 18  1  0  0  0  0
 20  1  1  0  0  0  0
 20 21  1  0  0  0  0
 22 23  1  0  0  0  0
 22 21  1  0  0  0  0
 24 23  1  0  0  0  0
 24 25  1  0  0  0  0
 25 26  2  0  0  0  0
 27  2  1  0  0  0  0
 28 27  1  0  0  0  0
 28 29  1  0  0  0  0
 30 31  1  0  0  0  0
 30 29  1  0  0  0  0
 31 33  1  0  0  0  0
 32 36  1  0  0  0  0
 33 32  1  0  0  0  0
 34 32  2  0  0  0  0
 36 38  1  0  0  0  0
 36 35  1  1  0  0  0
 37 38  1  0  0  0  0
M  END
>  <MODEL>
7

>  <REMARK>
 VINA RESULT:      -5.4      2.781      7.152
  Name = 
  17 active torsions:
  status: ('A' for Active; 'I' for Inactive)
    1  A    between atoms: C_1  and  C_11
    2  A    between atoms: C_3  and  C_38
    3  A    between atoms: N_4  and  C_23
    4  A    between atoms: C_5  and  C_6
    5  A    between atoms: C_5  and  N_7
    6  A    between atoms: C_6  and  C_21
    7  A    between atoms: N_7  and  C_31
    8  A    between atoms: C_11  and  C_27
    9  A    between atoms: N_18  and  N_20
   10  A    between atoms: N_18  and  O_36
   11  A    between atoms: C_19  and  C_32
   12  A    between atoms: N_20  and  C_32
   13  A    between atoms: C_23  and  C_31
   14  A    between atoms: C_24  and  C_38
   15  A    between atoms: O_26  and  C_28
   16  A    between atoms: C_27  and  O_36
   17  A    between atoms: C_30  and  C_35
                            x       y       z     vdW  Elec       q    Type
                         _______ _______ _______ _____ _____    ______ ____

>  <TORSDO>
F 17

$$$$
=
 OpenBabel11042416243D

 38 40  0  0  1  0  0  0  0  0999 V2000
  190.8080  174.6070  144.9920 C   0  0  0  0  0  0  0  0  0  0  0  0
  190.0750  173.4900  145.1180 C   0  0  0  0  0  3  0  0  0  0  0  0
  190.9300  175.5680  146.1180 C   0  0  0  0  0  0  0  0  0  0  0  0
  190.0480  177.3440  147.5510 C   0  0  0  0  0  0  0  0  0  0  0  0
  192.2870  175.7420  146.7870 C   0  0  0  0  0  2  0  0  0  0  0  0
  192.3110  176.6700  147.9950 C   0  0  0  0  0  3  0  0  0  0  0  0
  189.9180  176.3630  146.5060 C   0  0  0  0  0  0  0  0  0  0  0  0
  188.6210  176.4540  145.9370 N   0  0  0  0  0  0  0  0  0  0  0  0
  191.2840  177.4540  148.3490 C   0  0  0  0  0  0  0  0  0  0  0  0
  188.9000  177.9980  147.6420 C   0  0  0  0  0  3  0  0  0  0  0  0
  188.0340  177.4000  146.6050 C   0  0  0  0  0  0  0  0  0  0  0  0
  186.4660  178.9440  145.4300 C   0  0  0  0  0  3  0  0  0  0  0  0
  184.0680  178.6740  145.6360 C   0  0  0  0  0  3  0  0  0  0  0  0
  185.1700  179.3460  145.0990 C   0  0  0  0  0  3  0  0  0  0  0  0
  184.2620  177.6080  146.5180 C   0  0  0  0  0  3  0  0  0  0  0  0
  186.6690  177.8590  146.2950 C   0  0  0  0  0  0  0  0  0  0  0  0
  185.5600  177.1980  146.8440 C   0  0  0  0  0  3  0  0  0  0  0  0
  191.5710  177.8390  150.7930 C   0  0  0  0  0  1  0  0  0  0  0  0
  191.4300  178.3020  149.4560 O   0  0  0  0  0  0  0  0  0  0  0  0
  191.5680  174.8710  143.7260 C   0  0  0  0  0  2  0  0  0  0  0  0
  191.1360  176.0610  143.1430 O   0  0  0  0  0  0  0  0  0  0  0  0
  190.2420  175.6710  142.2010 N   0  0  0  0  0  2  0  0  0  0  0  0
  189.0930  176.4520  142.3850 N   0  0  0  0  0  2  0  0  0  0  0  0
  187.9710  175.5280  142.4620 C   0  0  0  0  0  2  0  0  0  0  0  0
  186.6870  176.2830  142.4110 C   0  0  0  0  0  3  0  0  0  0  0  0
  185.9320  176.2760  143.3700 O   0  0  0  0  0  0  0  0  0  0  0  0
  189.9040  172.4760  144.0330 C   0  0  0  0  0  2  0  0  0  0  0  0
  191.1600  171.6300  143.9200 C   0  0  0  0  0  2  0  0  0  0  0  0
  191.0960  170.8340  142.7100 N   0  0  0  0  0  2  0  0  0  0  0  0
  192.2100  171.2510  141.8730 C   0  0  0  0  0  2  0  0  0  0  0  0
  191.7790  171.2430  140.4160 C   0  0  0  0  0  2  0  0  0  0  0  0
  189.9170  172.6920  139.5120 C   0  0  0  0  0  0  0  0  0  0  0  0
  190.3720  171.5960  140.3120 N   0  0  0  0  0  2  0  0  0  0  0  0
  190.7430  173.4440  138.9280 O   0  0  0  0  0  0  0  0  0  0  0  0
  187.7830  172.6530  140.5600 O   0  0  0  0  0  1  0  0  0  0  0  0
  188.4550  172.9700  139.3780 C   0  0  1  0  0  3  0  0  0  0  0  0
  187.9230  174.5180  137.6100 O   0  0  0  0  0  1  0  0  0  0  0  0
  188.1880  174.4180  138.9780 C   0  0  0  0  0  2  0  0  0  0  0  0
  1  2  2  0  0  0  0
  1  3  1  0  0  0  0
  3  7  2  0  0  0  0
  3  5  1  0  0  0  0
  4 10  2  0  0  0  0
  4  9  1  0  0  0  0
  5  6  1  0  0  0  0
  6  9  2  0  0  0  0
  7  4  1  0  0  0  0
  8  7  1  0  0  0  0
  8 11  2  0  0  0  0
  9 19  1  0  0  0  0
 11 10  1  0  0  0  0
 12 16  1  0  0  0  0
 13 15  2  0  0  0  0
 14 12  2  0  0  0  0
 14 13  1  0  0  0  0
 15 17  1  0  0  0  0
 16 11  1  0  0  0  0
 16 17  2  0  0  0  0
 19 18  1  0  0  0  0
 20  1  1  0  0  0  0
 21 20  1  0  0  0  0
 22 23  1  0  0  0  0
 22 21  1  0  0  0  0
 23 24  1  0  0  0  0
 25 24  1  0  0  0  0
 25 26  2  0  0  0  0
 27  2  1  0  0  0  0
 28 27  1  0  0  0  0
 29 28  1  0  0  0  0
 30 29  1  0  0  0  0
 31 30  1  0  0  0  0
 32 33  1  0  0  0  0
 33 31  1  0  0  0  0
 34 32  2  0  0  0  0
 36 32  1  0  0  0  0
 36 35  1  1  0  0  0
 37 38  1  0  0  0  0
 38 36  1  0  0  0  0
M  END
>  <MODEL>
8

>  <REMARK>
 VINA RESULT:      -5.4      2.826      7.529
  Name = 
  17 active torsions:
  status: ('A' for Active; 'I' for Inactive)
    1  A    between atoms: C_1  and  C_11
    2  A    between atoms: C_3  and  C_38
    3  A    between atoms: N_4  and  C_23
    4  A    between atoms: C_5  and  C_6
    5  A    between atoms: C_5  and  N_7
    6  A    between atoms: C_6  and  C_21
    7  A    between atoms: N_7  and  C_31
    8  A    between atoms: C_11  and  C_27
    9  A    between atoms: N_18  and  N_20
   10  A    between atoms: N_18  and  O_36
   11  A    between atoms: C_19  and  C_32
   12  A    between atoms: N_20  and  C_32
   13  A    between atoms: C_23  and  C_31
   14  A    between atoms: C_24  and  C_38
   15  A    between atoms: O_26  and  C_28
   16  A    between atoms: C_27  and  O_36
   17  A    between atoms: C_30  and  C_35
                            x       y       z     vdW  Elec       q    Type
                         _______ _______ _______ _____ _____    ______ ____

>  <TORSDO>
F 17

$$$$
=
 OpenBabel11042416243D

 38 40  0  0  1  0  0  0  0  0999 V2000
  190.4580  174.2970  143.5210 C   0  0  0  0  0  0  0  0  0  0  0  0
  189.8030  173.1360  143.3640 C   0  0  0  0  0  3  0  0  0  0  0  0
  190.6470  174.8880  144.8710 C   0  0  0  0  0  0  0  0  0  0  0  0
  189.9200  176.2910  146.7380 C   0  0  0  0  0  0  0  0  0  0  0  0
  191.9900  174.7080  145.5660 C   0  0  0  0  0  2  0  0  0  0  0  0
  192.0740  175.2570  146.9850 C   0  0  0  0  0  3  0  0  0  0  0  0
  189.7180  175.6590  145.4610 C   0  0  0  0  0  0  0  0  0  0  0  0
  188.4620  176.0570  144.9350 N   0  0  0  0  0  0  0  0  0  0  0  0
  191.1300  176.0290  147.5390 C   0  0  0  0  0  0  0  0  0  0  0  0
  188.8510  177.0270  147.0040 C   0  0  0  0  0  3  0  0  0  0  0  0
  187.9610  176.8460  145.8380 C   0  0  0  0  0  0  0  0  0  0  0  0
  185.5970  177.2480  146.5220 C   0  0  0  0  0  3  0  0  0  0  0  0
  184.2380  178.9000  145.3850 C   0  0  0  0  0  3  0  0  0  0  0  0
  184.3870  177.9340  146.3850 C   0  0  0  0  0  3  0  0  0  0  0  0
  185.2920  179.1680  144.5090 C   0  0  0  0  0  3  0  0  0  0  0  0
  186.6690  177.5300  145.6630 C   0  0  0  0  0  0  0  0  0  0  0  0
  186.5080  178.4880  144.6500 C   0  0  0  0  0  3  0  0  0  0  0  0
  191.5920  177.8790  149.1430 C   0  0  0  0  0  1  0  0  0  0  0  0
  191.3310  176.5150  148.8400 O   0  0  0  0  0  0  0  0  0  0  0  0
  191.0660  174.9860  142.3360 C   0  0  0  0  0  2  0  0  0  0  0  0
  192.3730  174.5460  142.1390 O   0  0  0  0  0  0  0  0  0  0  0  0
  193.1340  175.6550  142.3160 N   0  0  0  0  0  2  0  0  0  0  0  0
  194.4390  175.2140  142.5730 N   0  0  0  0  0  2  0  0  0  0  0  0
  194.9190  175.9800  143.7130 C   0  0  0  0  0  2  0  0  0  0  0  0
  196.4010  176.1270  143.6400 C   0  0  0  0  0  3  0  0  0  0  0  0
  196.8960  177.1660  143.2350 O   0  0  0  0  0  0  0  0  0  0  0  0
  189.5730  172.4780  142.0420 C   0  0  0  0  0  2  0  0  0  0  0  0
  188.2780  172.9880  141.4350 C   0  0  0  0  0  2  0  0  0  0  0  0
  188.5560  173.5900  140.1460 N   0  0  0  0  0  2  0  0  0  0  0  0
  188.2400  172.5910  139.1380 C   0  0  0  0  0  2  0  0  0  0  0  0
  189.4060  172.4580  138.1730 C   0  0  0  0  0  2  0  0  0  0  0  0
  190.5620  170.2380  138.5240 C   0  0  0  0  0  0  0  0  0  0  0  0
  190.4540  171.6450  138.7690 N   0  0  0  0  0  2  0  0  0  0  0  0
  189.6920  169.6410  137.8360 O   0  0  0  0  0  0  0  0  0  0  0  0
  192.8630  169.6620  138.3550 O   0  0  0  0  0  1  0  0  0  0  0  0
  191.7000  169.4590  139.1000 C   0  0  1  0  0  3  0  0  0  0  0  0
  193.2890  169.7000  140.8940 O   0  0  0  0  0  1  0  0  0  0  0  0
  191.9340  169.7990  140.5680 C   0  0  0  0  0  2  0  0  0  0  0  0
  1  3  1  0  0  0  0
  2  1  2  0  0  0  0
  3  7  2  0  0  0  0
  3  5  1  0  0  0  0
  4 10  2  0  0  0  0
  4  9  1  0  0  0  0
  5  6  1  0  0  0  0
  6  9  2  0  0  0  0
  7  4  1  0  0  0  0
  8  7  1  0  0  0  0
  8 11  2  0  0  0  0
  9 19  1  0  0  0  0
 11 10  1  0  0  0  0
 13 14  2  0  0  0  0
 14 12  1  0  0  0  0
 15 17  2  0  0  0  0
 15 13  1  0  0  0  0
 16 11  1  0  0  0  0
 16 12  2  0  0  0  0
 17 16  1  0  0  0  0
 19 18  1  0  0  0  0
 20  1  1  0  0  0  0
 21 22  1  0  0  0  0
 21 20  1  0  0  0  0
 22 23  1  0  0  0  0
 23 24  1  0  0  0  0
 25 24  1  0  0  0  0
 26 25  2  0  0  0  0
 27  2  1  0  0  0  0
 28 27  1  0  0  0  0
 29 28  1  0  0  0  0
 30 29  1  0  0  0  0
 31 33  1  0  0  0  0
 31 30  1  0  0  0  0
 32 33  1  0  0  0  0
 32 36  1  0  0  0  0
 34 32  2  0  0  0  0
 36 35  1  6  0  0  0
 36 38  1  0  0  0  0
 38 37  1  0  0  0  0
M  END
>  <MODEL>
9

>  <REMARK>
 VINA RESULT:      -5.4      3.147      7.752
  Name = 
  17 active torsions:
  status: ('A' for Active; 'I' for Inactive)
    1  A    between atoms: C_1  and  C_11
    2  A    between atoms: C_3  and  C_38
    3  A    between atoms: N_4  and  C_23
    4  A    between atoms: C_5  and  C_6
    5  A    between atoms: C_5  and  N_7
    6  A    between atoms: C_6  and  C_21
    7  A    between atoms: N_7  and  C_31
    8  A    between atoms: C_11  and  C_27
    9  A    between atoms: N_18  and  N_20
   10  A    between atoms: N_18  and  O_36
   11  A    between atoms: C_19  and  C_32
   12  A    between atoms: N_20  and  C_32
   13  A    between atoms: C_23  and  C_31
   14  A    between atoms: C_24  and  C_38
   15  A    between atoms: O_26  and  C_28
   16  A    between atoms: C_27  and  O_36
   17  A    between atoms: C_30  and  C_35
                            x       y       z     vdW  Elec       q    Type
                         _______ _______ _______ _____ _____    ______ ____

>  <TORSDO>
F 17

$$$$
