=
 OpenBabel11042416413D

 55 61  0  0  1  0  0  0  0  0999 V2000
  193.6500  170.0130  144.6530 C   0  0  0  0  0  2  0  0  0  0  0  0
  192.2640  174.6830  144.6910 C   0  0  0  0  0  0  0  0  0  0  0  0
  191.9100  173.3810  144.4920 N   0  0  0  0  0  0  0  0  0  0  0  0
  193.5730  174.7960  145.1750 C   0  0  0  0  0  0  0  0  0  0  0  0
  194.0920  173.5140  145.2360 C   0  0  0  0  0  0  0  0  0  0  0  0
  193.0350  172.6980  144.7940 C   0  0  0  0  0  0  0  0  0  0  0  0
  196.4770  173.9650  146.0740 C   0  0  0  0  0  1  0  0  0  0  0  0
  196.9620  171.0620  145.8930 O   0  0  0  0  0  1  0  0  0  0  0  0
  193.3640  171.3830  144.7350 C   0  0  0  0  0  0  0  0  0  0  0  0
  194.6750  170.8580  145.1030 C   0  0  0  0  0  0  0  0  0  0  0  0
  195.4200  173.0190  145.6160 C   0  0  0  0  0  0  0  0  0  0  0  0
  195.7310  171.6080  145.5500 C   0  0  0  0  0  0  0  0  0  0  0  0
  194.2950  176.0730  145.4590 C   0  0  0  0  0  2  0  0  0  0  0  0
  193.8700  176.6240  146.8070 C   0  0  0  0  0  1  0  0  0  0  0  0
  190.6800  172.8890  143.8360 C   0  0  2  0  0  3  0  0  0  0  0  0
  189.7520  172.1580  144.8020 C   0  0  0  0  0  1  0  0  0  0  0  0
  190.9340  172.0530  142.5720 C   0  0  0  0  0  2  0  0  0  0  0  0
  188.4950  173.2610  139.9180 C   0  0  0  0  0  3  0  0  0  0  0  0
  190.3760  172.6330  141.2980 C   0  0  0  0  0  0  0  0  0  0  0  0
  189.3460  173.5410  138.8940 N   0  0  0  0  0  0  0  0  0  0  0  0
  188.9950  172.7990  141.1350 C   0  0  0  0  0  3  0  0  0  0  0  0
  191.2370  172.9380  140.2300 C   0  0  0  0  0  0  0  0  0  0  0  0
  190.6910  173.3930  139.0250 C   0  0  0  0  0  3  0  0  0  0  0  0
  192.6540  172.8170  140.3840 N   0  0  0  0  0  2  0  0  0  0  0  0
  193.3210  173.4260  141.3960 O   0  0  0  0  0  0  0  0  0  0  0  0
  193.6500  174.6920  140.9010 C   0  0  1  0  0  3  0  0  0  0  0  0
  195.7480  175.7810  140.9050 C   0  0  2  0  0  0  0  0  0  0  0  0
  196.2260  177.0570  141.2110 O   0  0  0  0  0  1  0  0  0  0  0  0
  195.2270  175.5080  139.5140 C   0  0  2  0  0  3  0  0  0  0  0  0
  194.6410  175.3850  141.8260 C   0  0  2  0  0  3  0  0  0  0  0  0
  194.1870  174.5720  139.6050 O   0  0  0  0  0  0  0  0  0  0  0  0
  195.9750  174.6480  141.8920 C   0  0  2  0  0  3  0  0  0  0  0  0
  196.7020  175.1010  142.9940 O   0  0  0  0  0  1  0  0  0  0  0  0
  196.3270  174.9470  138.6330 C   0  0  0  0  0  2  0  0  0  0  0  0
  195.7740  174.1990  137.5740 O   0  0  0  0  0  0  0  0  0  0  0  0
  196.5060  174.4320  136.3810 C   0  0  0  0  0  0  0  0  0  0  0  0
  197.5950  173.3800  136.2850 C   0  0  0  0  0  1  0  0  0  0  0  0
  195.6180  174.2710  135.1520 C   0  0  0  0  0  1  0  0  0  0  0  0
  197.4870  176.1900  135.0380 O   0  0  0  0  0  1  0  0  0  0  0  0
  197.1780  175.8130  136.3490 C   0  0  0  0  0  2  0  0  0  0  0  0
  191.3840  175.8540  144.3880 C   0  0  0  0  0  2  0  0  0  0  0  0
  190.4870  176.0500  145.4380 O   0  0  0  0  0  0  0  0  0  0  0  0
  190.1840  177.3700  145.3870 N   0  0  0  0  0  2  0  0  0  0  0  0
  188.9830  177.4940  144.5800 C   0  0  0  0  0  2  0  0  0  0  0  0
  187.8720  176.6220  145.1680 C   0  0  0  0  0  2  0  0  0  0  0  0
  186.5150  177.0970  144.8450 N   0  0  0  0  0  0  0  0  0  0  0  0
  185.2830  179.3900  144.1060 S   0  0  0  0  0  0  0  0  0  0  0  0
  184.6380  178.4360  145.4940 C   0  0  0  0  0  2  0  0  0  0  0  0
  185.8010  177.6280  146.0120 C   0  0  2  0  0  3  0  0  0  0  0  0
  186.5030  178.0710  143.7370 C   0  0  2  0  0  3  0  0  0  0  0  0
  184.7670  177.7400  142.1670 C   0  0  0  0  0  1  0  0  0  0  0  0
  186.1530  177.4180  142.4660 N   0  0  0  0  0  0  0  0  0  0  0  0
  186.9200  178.0060  141.3800 C   0  0  0  0  0  1  0  0  0  0  0  0
  186.6180  178.4580  146.7940 O   0  0  0  0  0  0  0  0  0  0  0  0
  185.7430  179.0840  147.6860 C   0  0  0  0  0  1  0  0  0  0  0  0
  1  9  1  0  0  0  0
  1 10  1  0  0  0  0
  2  4  2  0  0  0  0
  3  2  1  0  0  0  0
  3  6  1  0  0  0  0
  4  5  1  0  0  0  0
  4 13  1  0  0  0  0
  5 11  1  0  0  0  0
  6  5  2  0  0  0  0
  9  6  1  0  0  0  0
  9 10  2  0  0  0  0
 10 12  1  0  0  0  0
 11  7  1  0  0  0  0
 12 11  2  0  0  0  0
 12  8  1  0  0  0  0
 13 14  1  0  0  0  0
 15  3  1  0  0  0  0
 15 16  1  1  0  0  0
 17 15  1  0  0  0  0
 18 21  1  0  0  0  0
 19 17  1  0  0  0  0
 20 23  1  0  0  0  0
 20 18  2  0  0  0  0
 21 19  2  0  0  0  0
 22 24  1  0  0  0  0
 22 19  1  0  0  0  0
 23 22  2  0  0  0  0
 24 25  1  0  0  0  0
 26 25  1  1  0  0  0
 26 30  1  0  0  0  0
 27 28  1  1  0  0  0
 27 30  1  0  0  0  0
 27 32  1  0  0  0  0
 29 34  1  6  0  0  0
 29 31  1  0  0  0  0
 29 27  1  0  0  0  0
 30 32  1  0  0  0  0
 31 26  1  0  0  0  0
 32 33  1  0  0  0  0
 35 34  1  0  0  0  0
 36 35  1  0  0  0  0
 37 36  1  0  0  0  0
 38 36  1  0  0  0  0
 39 40  1  0  0  0  0
 40 36  1  0  0  0  0
 41  2  1  0  0  0  0
 41 42  1  0  0  0  0
 43 42  1  0  0  0  0
 44 45  1  0  0  0  0
 44 43  1  0  0  0  0
 46 45  1  0  0  0  0
 46 49  1  0  0  0  0
 47 48  1  0  0  0  0
 48 49  1  0  0  0  0
 49 54  1  0  0  0  0
 50 47  1  0  0  0  0
 50 46  1  0  0  0  0
 51 52  1  0  0  0  0
 52 50  1  0  0  0  0
 53 52  1  0  0  0  0
 54 55  1  0  0  0  0
M  END
>  <MODEL>
1

>  <REMARK>
 VINA RESULT:      -6.7      0.000      0.000
  Name = 
  19 active torsions:
  status: ('A' for Active; 'I' for Inactive)
    1  A    between atoms: C_2  and  O_46
    2  A    between atoms: O_4  and  C_23
    3  A    between atoms: C_5  and  N_10
    4  A    between atoms: C_5  and  C_50
    5  A    between atoms: C_7  and  O_35
    6  A    between atoms: C_7  and  C_49
    7  A    between atoms: C_9  and  C_54
    8  A    between atoms: N_11  and  C_32
    9  A    between atoms: C_13  and  C_50
   10  A    between atoms: C_15  and  C_21
   11  A    between atoms: N_18  and  C_39
   12  A    between atoms: N_18  and  O_46
   13  A    between atoms: O_20  and  N_48
   14  A    between atoms: O_20  and  C_54
   15  A    between atoms: C_26  and  C_51
   16  A    between atoms: C_32  and  C_34
   17  A    between atoms: N_33  and  C_45
   18  A    between atoms: C_34  and  N_48
   19  A    between atoms: O_35  and  C_51
                            x       y       z     vdW  Elec       q    Type
                         _______ _______ _______ _____ _____    ______ ____

>  <TORSDO>
F 19

$$$$
=
 OpenBabel11042416413D

 55 61  0  0  1  0  0  0  0  0999 V2000
  193.7100  170.0030  144.7070 C   0  0  0  0  0  2  0  0  0  0  0  0
  192.2870  174.6600  144.5760 C   0  0  0  0  0  0  0  0  0  0  0  0
  191.9400  173.3480  144.4400 N   0  0  0  0  0  0  0  0  0  0  0  0
  193.6050  174.8020  145.0270 C   0  0  0  0  0  0  0  0  0  0  0  0
  194.1360  173.5280  145.1310 C   0  0  0  0  0  0  0  0  0  0  0  0
  193.0760  172.6860  144.7470 C   0  0  0  0  0  0  0  0  0  0  0  0
  196.5350  174.0310  145.8980 C   0  0  0  0  0  1  0  0  0  0  0  0
  197.0390  171.1270  145.8300 O   0  0  0  0  0  1  0  0  0  0  0  0
  193.4140  171.3720  144.7360 C   0  0  0  0  0  0  0  0  0  0  0  0
  194.7370  170.8730  145.0980 C   0  0  0  0  0  0  0  0  0  0  0  0
  195.4760  173.0590  145.5020 C   0  0  0  0  0  0  0  0  0  0  0  0
  195.7960  171.6480  145.4910 C   0  0  0  0  0  0  0  0  0  0  0  0
  194.3240  176.0960  145.2410 C   0  0  0  0  0  2  0  0  0  0  0  0
  194.0410  176.6240  146.6340 C   0  0  0  0  0  1  0  0  0  0  0  0
  190.7000  172.8210  143.8320 C   0  0  2  0  0  3  0  0  0  0  0  0
  189.7810  172.1570  144.8550 C   0  0  0  0  0  1  0  0  0  0  0  0
  190.9350  171.9030  142.6230 C   0  0  0  0  0  2  0  0  0  0  0  0
  188.4830  173.5980  140.2630 C   0  0  0  0  0  3  0  0  0  0  0  0
  190.1650  172.2720  141.3800 C   0  0  0  0  0  0  0  0  0  0  0  0
  188.6330  172.8380  139.1450 N   0  0  0  0  0  0  0  0  0  0  0  0
  189.2440  173.3260  141.4000 C   0  0  0  0  0  3  0  0  0  0  0  0
  190.3110  171.5060  140.2110 C   0  0  0  0  0  0  0  0  0  0  0  0
  189.5230  171.8110  139.0960 C   0  0  0  0  0  3  0  0  0  0  0  0
  191.2750  170.4520  140.1510 N   0  0  0  0  0  2  0  0  0  0  0  0
  191.9050  170.1190  138.9970 O   0  0  0  0  0  0  0  0  0  0  0  0
  193.2590  170.0370  139.3360 C   0  0  1  0  0  3  0  0  0  0  0  0
  194.9440  171.6780  139.0970 C   0  0  2  0  0  0  0  0  0  0  0  0
  196.2600  171.7170  138.6300 O   0  0  0  0  0  1  0  0  0  0  0  0
  194.6890  171.3000  140.5350 C   0  0  2  0  0  3  0  0  0  0  0  0
  194.1140  170.7360  138.2880 C   0  0  2  0  0  3  0  0  0  0  0  0
  193.4700  170.6110  140.6040 O   0  0  0  0  0  0  0  0  0  0  0  0
  193.8320  172.2340  138.2230 C   0  0  2  0  0  3  0  0  0  0  0  0
  194.3570  172.7550  137.0400 O   0  0  0  0  0  1  0  0  0  0  0  0
  194.6110  172.5390  141.4070 C   0  0  0  0  0  2  0  0  0  0  0  0
  195.8710  173.1620  141.4890 O   0  0  0  0  0  0  0  0  0  0  0  0
  195.7370  174.5590  141.2790 C   0  0  0  0  0  0  0  0  0  0  0  0
  196.5150  175.2750  142.3680 C   0  0  0  0  0  1  0  0  0  0  0  0
  196.3460  174.9750  139.9450 C   0  0  0  0  0  1  0  0  0  0  0  0
  194.2100  176.3800  141.7360 O   0  0  0  0  0  1  0  0  0  0  0  0
  194.2790  175.0380  141.3470 C   0  0  0  0  0  2  0  0  0  0  0  0
  191.3920  175.8110  144.2430 C   0  0  0  0  0  2  0  0  0  0  0  0
  191.1680  175.8470  142.8670 O   0  0  0  0  0  0  0  0  0  0  0  0
  190.4500  176.9780  142.6670 N   0  0  0  0  0  2  0  0  0  0  0  0
  189.0650  176.6540  142.9620 C   0  0  0  0  0  2  0  0  0  0  0  0
  188.4370  177.7740  143.7930 C   0  0  0  0  0  2  0  0  0  0  0  0
  187.4710  177.2940  144.7970 N   0  0  0  0  0  0  0  0  0  0  0  0
  186.1750  178.2250  146.9830 S   0  0  0  0  0  0  0  0  0  0  0  0
  187.0730  176.6630  147.0730 C   0  0  0  0  0  2  0  0  0  0  0  0
  188.1170  176.7260  145.9870 C   0  0  2  0  0  3  0  0  0  0  0  0
  186.4880  178.3260  145.1780 C   0  0  2  0  0  3  0  0  0  0  0  0
  184.1500  178.6560  145.2820 C   0  0  0  0  0  1  0  0  0  0  0  0
  185.2240  178.1430  144.4480 N   0  0  0  0  0  0  0  0  0  0  0  0
  185.2130  178.9820  143.2600 C   0  0  0  0  0  1  0  0  0  0  0  0
  189.1870  177.5160  146.4310 O   0  0  0  0  0  0  0  0  0  0  0  0
  189.9400  176.6720  147.2510 C   0  0  0  0  0  1  0  0  0  0  0  0
  1  9  1  0  0  0  0
  1 10  1  0  0  0  0
  2  4  2  0  0  0  0
  3  2  1  0  0  0  0
  3  6  1  0  0  0  0
  4  5  1  0  0  0  0
  4 13  1  0  0  0  0
  5 11  1  0  0  0  0
  6  5  2  0  0  0  0
  9  6  1  0  0  0  0
  9 10  2  0  0  0  0
 10 12  1  0  0  0  0
 11  7  1  0  0  0  0
 12 11  2  0  0  0  0
 12  8  1  0  0  0  0
 13 14  1  0  0  0  0
 15  3  1  0  0  0  0
 15 16  1  1  0  0  0
 17 15  1  0  0  0  0
 18 21  1  0  0  0  0
 19 21  2  0  0  0  0
 19 17  1  0  0  0  0
 20 18  2  0  0  0  0
 22 19  1  0  0  0  0
 23 20  1  0  0  0  0
 23 22  2  0  0  0  0
 24 22  1  0  0  0  0
 25 24  1  0  0  0  0
 26 25  1  6  0  0  0
 26 31  1  0  0  0  0
 27 28  1  6  0  0  0
 27 29  1  0  0  0  0
 29 31  1  0  0  0  0
 29 34  1  1  0  0  0
 30 27  1  0  0  0  0
 30 26  1  0  0  0  0
 32 30  1  0  0  0  0
 32 27  1  0  0  0  0
 33 32  1  0  0  0  0
 34 35  1  0  0  0  0
 36 40  1  0  0  0  0
 36 35  1  0  0  0  0
 36 37  1  0  0  0  0
 38 36  1  0  0  0  0
 40 39  1  0  0  0  0
 41  2  1  0  0  0  0
 42 41  1  0  0  0  0
 43 42  1  0  0  0  0
 43 44  1  0  0  0  0
 44 45  1  0  0  0  0
 45 46  1  0  0  0  0
 46 50  1  0  0  0  0
 46 49  1  0  0  0  0
 47 48  1  0  0  0  0
 49 54  1  0  0  0  0
 49 48  1  0  0  0  0
 50 47  1  0  0  0  0
 52 50  1  0  0  0  0
 52 51  1  0  0  0  0
 53 52  1  0  0  0  0
 54 55  1  0  0  0  0
M  END
>  <MODEL>
2

>  <REMARK>
 VINA RESULT:      -6.6      1.912      3.239
  Name = 
  19 active torsions:
  status: ('A' for Active; 'I' for Inactive)
    1  A    between atoms: C_2  and  O_46
    2  A    between atoms: O_4  and  C_23
    3  A    between atoms: C_5  and  N_10
    4  A    between atoms: C_5  and  C_50
    5  A    between atoms: C_7  and  O_35
    6  A    between atoms: C_7  and  C_49
    7  A    between atoms: C_9  and  C_54
    8  A    between atoms: N_11  and  C_32
    9  A    between atoms: C_13  and  C_50
   10  A    between atoms: C_15  and  C_21
   11  A    between atoms: N_18  and  C_39
   12  A    between atoms: N_18  and  O_46
   13  A    between atoms: O_20  and  N_48
   14  A    between atoms: O_20  and  C_54
   15  A    between atoms: C_26  and  C_51
   16  A    between atoms: C_32  and  C_34
   17  A    between atoms: N_33  and  C_45
   18  A    between atoms: C_34  and  N_48
   19  A    between atoms: O_35  and  C_51
                            x       y       z     vdW  Elec       q    Type
                         _______ _______ _______ _____ _____    ______ ____

>  <TORSDO>
F 19

$$$$
=
 OpenBabel11042416413D

 55 61  0  0  1  0  0  0  0  0999 V2000
  193.5840  170.2100  144.6620 C   0  0  0  0  0  2  0  0  0  0  0  0
  192.1330  174.8600  144.6170 C   0  0  0  0  0  0  0  0  0  0  0  0
  191.7910  173.5490  144.4670 N   0  0  0  0  0  0  0  0  0  0  0  0
  193.4560  175.0040  145.0530 C   0  0  0  0  0  0  0  0  0  0  0  0
  193.9950  173.7310  145.1310 C   0  0  0  0  0  0  0  0  0  0  0  0
  192.9360  172.8890  144.7490 C   0  0  0  0  0  0  0  0  0  0  0  0
  196.4010  174.2370  145.8750 C   0  0  0  0  0  1  0  0  0  0  0  0
  196.9210  171.3370  145.7580 O   0  0  0  0  0  1  0  0  0  0  0  0
  193.2810  171.5770  144.7150 C   0  0  0  0  0  0  0  0  0  0  0  0
  194.6110  171.0800  145.0530 C   0  0  0  0  0  0  0  0  0  0  0  0
  195.3430  173.2640  145.4790 C   0  0  0  0  0  0  0  0  0  0  0  0
  195.6700  171.8560  145.4430 C   0  0  0  0  0  0  0  0  0  0  0  0
  194.1700  176.2980  145.2770 C   0  0  0  0  0  2  0  0  0  0  0  0
  193.9240  176.7920  146.6890 C   0  0  0  0  0  1  0  0  0  0  0  0
  190.5470  173.0220  143.8670 C   0  0  2  0  0  3  0  0  0  0  0  0
  189.6300  172.3690  144.8980 C   0  0  0  0  0  1  0  0  0  0  0  0
  190.7730  172.0960  142.6620 C   0  0  0  0  0  2  0  0  0  0  0  0
  188.5430  172.9860  139.7150 C   0  0  0  0  0  3  0  0  0  0  0  0
  190.2970  172.6400  141.3400 C   0  0  0  0  0  0  0  0  0  0  0  0
  189.4570  173.4870  138.8410 N   0  0  0  0  0  0  0  0  0  0  0  0
  188.9470  172.5510  140.9770 C   0  0  0  0  0  3  0  0  0  0  0  0
  191.2230  173.1690  140.4250 C   0  0  0  0  0  0  0  0  0  0  0  0
  190.7730  173.5880  139.1670 C   0  0  0  0  0  3  0  0  0  0  0  0
  192.6000  173.3100  140.7860 N   0  0  0  0  0  2  0  0  0  0  0  0
  193.1100  174.4860  141.2270 O   0  0  0  0  0  0  0  0  0  0  0  0
  194.0860  174.8310  140.2870 C   0  0  1  0  0  3  0  0  0  0  0  0
  196.4180  175.0680  140.5960 C   0  0  2  0  0  0  0  0  0  0  0  0
  197.3990  175.9910  140.2300 O   0  0  0  0  0  1  0  0  0  0  0  0
  196.0590  173.9610  139.6350 C   0  0  2  0  0  3  0  0  0  0  0  0
  195.1270  175.7490  140.9120 C   0  0  2  0  0  3  0  0  0  0  0  0
  194.6970  173.6670  139.7840 O   0  0  0  0  0  0  0  0  0  0  0  0
  195.9060  175.0590  142.0270 C   0  0  2  0  0  3  0  0  0  0  0  0
  196.5750  176.0170  142.7900 O   0  0  0  0  0  1  0  0  0  0  0  0
  196.8730  172.7140  139.9280 C   0  0  0  0  0  2  0  0  0  0  0  0
  196.2700  171.9640  140.9560 O   0  0  0  0  0  0  0  0  0  0  0  0
  196.4050  170.5770  140.6890 C   0  0  0  0  0  0  0  0  0  0  0  0
  195.2430  170.1530  139.8110 C   0  0  0  0  0  1  0  0  0  0  0  0
  197.6830  170.2890  139.9110 C   0  0  0  0  0  1  0  0  0  0  0  0
  196.9700  168.4700  141.7360 O   0  0  0  0  0  1  0  0  0  0  0  0
  196.3760  169.7160  141.9610 C   0  0  0  0  0  2  0  0  0  0  0  0
  191.2280  176.0110  144.3130 C   0  0  0  0  0  2  0  0  0  0  0  0
  190.5130  176.3610  145.4580 O   0  0  0  0  0  0  0  0  0  0  0  0
  189.8180  177.4680  145.1030 N   0  0  0  0  0  2  0  0  0  0  0  0
  188.8140  177.0430  144.1430 C   0  0  0  0  0  2  0  0  0  0  0  0
  187.6720  176.3320  144.8710 C   0  0  0  0  0  2  0  0  0  0  0  0
  186.3630  176.9870  144.6980 N   0  0  0  0  0  0  0  0  0  0  0  0
  185.3730  179.4440  144.1460 S   0  0  0  0  0  0  0  0  0  0  0  0
  184.7460  178.5260  145.5670 C   0  0  0  0  0  2  0  0  0  0  0  0
  185.8390  177.5590  145.9440 C   0  0  2  0  0  3  0  0  0  0  0  0
  186.3710  177.9970  143.6230 C   0  0  2  0  0  3  0  0  0  0  0  0
  184.4890  178.0020  142.1910 C   0  0  0  0  0  1  0  0  0  0  0  0
  185.8180  177.4420  142.3770 N   0  0  0  0  0  0  0  0  0  0  0  0
  186.5900  177.9170  141.2390 C   0  0  0  0  0  1  0  0  0  0  0  0
  186.8280  178.2480  146.6620 O   0  0  0  0  0  0  0  0  0  0  0  0
  186.2320  178.5570  147.8870 C   0  0  0  0  0  1  0  0  0  0  0  0
  1  9  1  0  0  0  0
  1 10  1  0  0  0  0
  2  4  2  0  0  0  0
  3  2  1  0  0  0  0
  3  6  1  0  0  0  0
  4  5  1  0  0  0  0
  4 13  1  0  0  0  0
  5 11  1  0  0  0  0
  6  5  2  0  0  0  0
  9  6  1  0  0  0  0
  9 10  2  0  0  0  0
 10 12  1  0  0  0  0
 11  7  1  0  0  0  0
 12 11  2  0  0  0  0
 12  8  1  0  0  0  0
 13 14  1  0  0  0  0
 15  3  1  0  0  0  0
 15 16  1  1  0  0  0
 17 15  1  0  0  0  0
 18 21  1  0  0  0  0
 19 17  1  0  0  0  0
 20 23  1  0  0  0  0
 20 18  2  0  0  0  0
 21 19  2  0  0  0  0
 22 24  1  0  0  0  0
 22 19  1  0  0  0  0
 23 22  2  0  0  0  0
 24 25  1  0  0  0  0
 26 30  1  0  0  0  0
 26 25  1  1  0  0  0
 27 28  1  6  0  0  0
 27 30  1  0  0  0  0
 27 32  1  0  0  0  0
 29 31  1  0  0  0  0
 29 34  1  1  0  0  0
 29 27  1  0  0  0  0
 30 32  1  0  0  0  0
 31 26  1  0  0  0  0
 32 33  1  0  0  0  0
 34 35  1  0  0  0  0
 36 35  1  0  0  0  0
 36 40  1  0  0  0  0
 37 36  1  0  0  0  0
 38 36  1  0  0  0  0
 39 40  1  0  0  0  0
 41  2  1  0  0  0  0
 41 42  1  0  0  0  0
 43 42  1  0  0  0  0
 44 45  1  0  0  0  0
 44 43  1  0  0  0  0
 46 45  1  0  0  0  0
 46 49  1  0  0  0  0
 47 48  1  0  0  0  0
 48 49  1  0  0  0  0
 49 54  1  0  0  0  0
 50 47  1  0  0  0  0
 50 46  1  0  0  0  0
 51 52  1  0  0  0  0
 52 50  1  0  0  0  0
 53 52  1  0  0  0  0
 54 55  1  0  0  0  0
M  END
>  <MODEL>
3

>  <REMARK>
 VINA RESULT:      -6.6      1.572      2.409
  Name = 
  19 active torsions:
  status: ('A' for Active; 'I' for Inactive)
    1  A    between atoms: C_2  and  O_46
    2  A    between atoms: O_4  and  C_23
    3  A    between atoms: C_5  and  N_10
    4  A    between atoms: C_5  and  C_50
    5  A    between atoms: C_7  and  O_35
    6  A    between atoms: C_7  and  C_49
    7  A    between atoms: C_9  and  C_54
    8  A    between atoms: N_11  and  C_32
    9  A    between atoms: C_13  and  C_50
   10  A    between atoms: C_15  and  C_21
   11  A    between atoms: N_18  and  C_39
   12  A    between atoms: N_18  and  O_46
   13  A    between atoms: O_20  and  N_48
   14  A    between atoms: O_20  and  C_54
   15  A    between atoms: C_26  and  C_51
   16  A    between atoms: C_32  and  C_34
   17  A    between atoms: N_33  and  C_45
   18  A    between atoms: C_34  and  N_48
   19  A    between atoms: O_35  and  C_51
                            x       y       z     vdW  Elec       q    Type
                         _______ _______ _______ _____ _____    ______ ____

>  <TORSDO>
F 19

$$$$
=
 OpenBabel11042416413D

 55 61  0  0  1  0  0  0  0  0999 V2000
  193.6380  170.0510  144.6360 C   0  0  0  0  0  2  0  0  0  0  0  0
  192.8000  174.8500  144.6470 C   0  0  0  0  0  0  0  0  0  0  0  0
  192.3030  173.5970  144.4400 N   0  0  0  0  0  0  0  0  0  0  0  0
  194.1030  174.8110  145.1590 C   0  0  0  0  0  0  0  0  0  0  0  0
  194.4690  173.4780  145.2300 C   0  0  0  0  0  0  0  0  0  0  0  0
  193.3350  172.7890  144.7660 C   0  0  0  0  0  0  0  0  0  0  0  0
  196.8720  173.6520  146.1210 C   0  0  0  0  0  1  0  0  0  0  0  0
  197.0220  170.7120  145.9490 O   0  0  0  0  0  1  0  0  0  0  0  0
  193.5100  171.4450  144.7130 C   0  0  0  0  0  0  0  0  0  0  0  0
  194.7440  170.7720  145.1090 C   0  0  0  0  0  0  0  0  0  0  0  0
  195.7230  172.8330  145.6390 C   0  0  0  0  0  0  0  0  0  0  0  0
  195.8690  171.3960  145.5790 C   0  0  0  0  0  0  0  0  0  0  0  0
  194.9620  175.9970  145.4600 C   0  0  0  0  0  2  0  0  0  0  0  0
  195.6910  176.4440  144.2080 C   0  0  0  0  0  1  0  0  0  0  0  0
  191.0390  173.2500  143.7570 C   0  0  2  0  0  3  0  0  0  0  0  0
  190.1250  172.3840  144.6190 C   0  0  0  0  0  1  0  0  0  0  0  0
  191.2270  172.6350  142.3610 C   0  0  0  0  0  2  0  0  0  0  0  0
  188.4870  174.6100  140.6160 C   0  0  0  0  0  3  0  0  0  0  0  0
  190.2880  173.1520  141.3020 C   0  0  0  0  0  0  0  0  0  0  0  0
  188.4490  173.9870  139.4080 N   0  0  0  0  0  0  0  0  0  0  0  0
  189.4040  174.2020  141.5840 C   0  0  0  0  0  3  0  0  0  0  0  0
  190.2370  172.5290  140.0440 C   0  0  0  0  0  0  0  0  0  0  0  0
  189.2970  172.9680  139.1050 C   0  0  0  0  0  3  0  0  0  0  0  0
  191.1570  171.4840  139.7160 N   0  0  0  0  0  2  0  0  0  0  0  0
  191.2500  170.9770  138.4610 O   0  0  0  0  0  0  0  0  0  0  0  0
  192.6060  171.0730  138.1340 C   0  0  1  0  0  3  0  0  0  0  0  0
  193.7520  172.8580  137.0900 C   0  0  2  0  0  0  0  0  0  0  0  0
  194.6900  172.9970  136.0650 O   0  0  0  0  0  1  0  0  0  0  0  0
  194.2370  172.5850  138.4930 C   0  0  2  0  0  3  0  0  0  0  0  0
  192.7820  171.7630  136.7880 C   0  0  2  0  0  3  0  0  0  0  0  0
  193.2920  171.7780  139.1410 O   0  0  0  0  0  0  0  0  0  0  0  0
  192.2990  173.2090  136.8180 C   0  0  2  0  0  3  0  0  0  0  0  0
  192.1470  173.6760  135.5120 O   0  0  0  0  0  1  0  0  0  0  0  0
  194.3970  173.8810  139.2650 C   0  0  0  0  0  2  0  0  0  0  0  0
  195.7230  174.3470  139.1730 O   0  0  0  0  0  0  0  0  0  0  0  0
  196.3590  174.2580  140.4380 C   0  0  0  0  0  0  0  0  0  0  0  0
  196.9760  175.6080  140.7510 C   0  0  0  0  0  1  0  0  0  0  0  0
  195.3480  173.9620  141.5410 C   0  0  0  0  0  1  0  0  0  0  0  0
  197.1830  172.1930  141.3940 O   0  0  0  0  0  1  0  0  0  0  0  0
  197.4770  173.2060  140.4750 C   0  0  0  0  0  2  0  0  0  0  0  0
  192.0690  176.1140  144.3260 C   0  0  0  0  0  2  0  0  0  0  0  0
  191.2740  176.4840  145.4110 O   0  0  0  0  0  0  0  0  0  0  0  0
  190.2450  177.1720  144.8620 N   0  0  0  0  0  2  0  0  0  0  0  0
  189.2030  177.2450  145.8720 C   0  0  0  0  0  2  0  0  0  0  0  0
  187.8820  176.7380  145.2900 C   0  0  0  0  0  2  0  0  0  0  0  0
  186.9490  177.8160  144.9160 N   0  0  0  0  0  0  0  0  0  0  0  0
  184.6040  178.1120  143.5990 S   0  0  0  0  0  0  0  0  0  0  0  0
  186.0110  179.1550  143.1660 C   0  0  0  0  0  2  0  0  0  0  0  0
  187.2360  178.3900  143.5960 C   0  0  2  0  0  3  0  0  0  0  0  0
  185.5370  177.4020  145.0100 C   0  0  2  0  0  3  0  0  0  0  0  0
  185.8930  178.7400  146.9260 C   0  0  0  0  0  1  0  0  0  0  0  0
  184.9380  177.8570  146.2750 N   0  0  0  0  0  0  0  0  0  0  0  0
  183.7790  178.6920  146.0020 C   0  0  0  0  0  1  0  0  0  0  0  0
  187.5110  177.4000  142.6410 O   0  0  0  0  0  0  0  0  0  0  0  0
  188.3850  178.0060  141.7360 C   0  0  0  0  0  1  0  0  0  0  0  0
  1  9  1  0  0  0  0
  1 10  1  0  0  0  0
  2  4  2  0  0  0  0
  3  2  1  0  0  0  0
  3  6  1  0  0  0  0
  4  5  1  0  0  0  0
  4 13  1  0  0  0  0
  5 11  1  0  0  0  0
  6  5  2  0  0  0  0
  9  6  1  0  0  0  0
  9 10  2  0  0  0  0
 10 12  1  0  0  0  0
 11  7  1  0  0  0  0
 12 11  2  0  0  0  0
 12  8  1  0  0  0  0
 14 13  1  0  0  0  0
 15  3  1  0  0  0  0
 15 16  1  1  0  0  0
 17 15  1  0  0  0  0
 18 21  1  0  0  0  0
 19 21  2  0  0  0  0
 19 17  1  0  0  0  0
 20 18  2  0  0  0  0
 22 19  1  0  0  0  0
 23 20  1  0  0  0  0
 23 22  2  0  0  0  0
 24 22  1  0  0  0  0
 25 24  1  0  0  0  0
 26 25  1  1  0  0  0
 26 31  1  0  0  0  0
 27 28  1  6  0  0  0
 27 29  1  0  0  0  0
 29 31  1  0  0  0  0
 29 34  1  1  0  0  0
 30 32  1  0  0  0  0
 30 27  1  0  0  0  0
 30 26  1  0  0  0  0
 32 27  1  0  0  0  0
 33 32  1  0  0  0  0
 35 34  1  0  0  0  0
 35 36  1  0  0  0  0
 36 40  1  0  0  0  0
 36 37  1  0  0  0  0
 36 38  1  0  0  0  0
 40 39  1  0  0  0  0
 41  2  1  0  0  0  0
 41 42  1  0  0  0  0
 43 42  1  0  0  0  0
 43 44  1  0  0  0  0
 45 44  1  0  0  0  0
 46 50  1  0  0  0  0
 46 45  1  0  0  0  0
 47 50  1  0  0  0  0
 48 49  1  0  0  0  0
 48 47  1  0  0  0  0
 49 46  1  0  0  0  0
 50 52  1  0  0  0  0
 52 51  1  0  0  0  0
 53 52  1  0  0  0  0
 54 49  1  0  0  0  0
 55 54  1  0  0  0  0
M  END
>  <MODEL>
4

>  <REMARK>
 VINA RESULT:      -6.3      1.848      3.449
  Name = 
  19 active torsions:
  status: ('A' for Active; 'I' for Inactive)
    1  A    between atoms: C_2  and  O_46
    2  A    between atoms: O_4  and  C_23
    3  A    between atoms: C_5  and  N_10
    4  A    between atoms: C_5  and  C_50
    5  A    between atoms: C_7  and  O_35
    6  A    between atoms: C_7  and  C_49
    7  A    between atoms: C_9  and  C_54
    8  A    between atoms: N_11  and  C_32
    9  A    between atoms: C_13  and  C_50
   10  A    between atoms: C_15  and  C_21
   11  A    between atoms: N_18  and  C_39
   12  A    between atoms: N_18  and  O_46
   13  A    between atoms: O_20  and  N_48
   14  A    between atoms: O_20  and  C_54
   15  A    between atoms: C_26  and  C_51
   16  A    between atoms: C_32  and  C_34
   17  A    between atoms: N_33  and  C_45
   18  A    between atoms: C_34  and  N_48
   19  A    between atoms: O_35  and  C_51
                            x       y       z     vdW  Elec       q    Type
                         _______ _______ _______ _____ _____    ______ ____

>  <TORSDO>
F 19

$$$$
=
 OpenBabel11042416413D

 55 61  0  0  1  0  0  0  0  0999 V2000
  184.6130  178.1350  143.1050 C   0  0  0  0  0  2  0  0  0  0  0  0
  189.0260  176.4960  144.3610 C   0  0  0  0  0  0  0  0  0  0  0  0
  188.1830  176.8730  143.3570 N   0  0  0  0  0  0  0  0  0  0  0  0
  188.4650  176.7290  145.6230 C   0  0  0  0  0  0  0  0  0  0  0  0
  187.1910  177.2270  145.4120 C   0  0  0  0  0  0  0  0  0  0  0  0
  187.0730  177.2790  144.0110 C   0  0  0  0  0  0  0  0  0  0  0  0
  186.3470  177.5150  147.8210 C   0  0  0  0  0  1  0  0  0  0  0  0
  183.7860  178.4380  146.6880 O   0  0  0  0  0  1  0  0  0  0  0  0
  185.8550  177.7040  143.5920 C   0  0  0  0  0  0  0  0  0  0  0  0
  184.7740  178.0830  144.4970 C   0  0  0  0  0  0  0  0  0  0  0  0
  186.1260  177.6030  146.3490 C   0  0  0  0  0  0  0  0  0  0  0  0
  184.8430  178.0630  145.8650 C   0  0  0  0  0  0  0  0  0  0  0  0
  189.0940  176.3940  146.9370 C   0  0  0  0  0  2  0  0  0  0  0  0
  188.9180  174.9180  147.2370 C   0  0  0  0  0  1  0  0  0  0  0  0
  188.3620  176.6230  141.9120 C   0  0  2  0  0  3  0  0  0  0  0  0
  187.9630  177.8220  141.0550 C   0  0  0  0  0  1  0  0  0  0  0  0
  187.6900  175.3370  141.4090 C   0  0  0  0  0  2  0  0  0  0  0  0
  188.0590  174.7470  137.6710 C   0  0  0  0  0  3  0  0  0  0  0  0
  188.1930  174.8280  140.0820 C   0  0  0  0  0  0  0  0  0  0  0  0
  189.0040  173.7690  137.6560 N   0  0  0  0  0  0  0  0  0  0  0  0
  187.6350  175.2910  138.8830 C   0  0  0  0  0  3  0  0  0  0  0  0
  189.1750  173.8250  140.0420 C   0  0  0  0  0  0  0  0  0  0  0  0
  189.5670  173.3040  138.8030 C   0  0  0  0  0  3  0  0  0  0  0  0
  189.7920  173.3650  141.2480 N   0  0  0  0  0  2  0  0  0  0  0  0
  189.4210  172.2070  141.8490 O   0  0  0  0  0  0  0  0  0  0  0  0
  190.5890  171.7200  142.4430 C   0  0  1  0  0  3  0  0  0  0  0  0
  192.2700  170.3520  141.4980 C   0  0  2  0  0  0  0  0  0  0  0  0
  192.9880  169.2180  141.8840 O   0  0  0  0  0  1  0  0  0  0  0  0
  192.7770  171.7140  141.9060 C   0  0  2  0  0  3  0  0  0  0  0  0
  190.8610  170.2920  141.9930 C   0  0  2  0  0  3  0  0  0  0  0  0
  191.6750  172.5540  142.1170 O   0  0  0  0  0  0  0  0  0  0  0  0
  191.1380  170.2060  140.4950 C   0  0  2  0  0  3  0  0  0  0  0  0
  191.0260  168.8790  140.0760 O   0  0  0  0  0  1  0  0  0  0  0  0
  193.6540  172.3040  140.8180 C   0  0  0  0  0  2  0  0  0  0  0  0
  192.8660  172.9810  139.8660 O   0  0  0  0  0  0  0  0  0  0  0  0
  193.6400  173.2690  138.7120 C   0  0  0  0  0  0  0  0  0  0  0  0
  193.0800  174.5250  138.0720 C   0  0  0  0  0  1  0  0  0  0  0  0
  195.0900  173.5620  139.0810 C   0  0  0  0  0  1  0  0  0  0  0  0
  192.2860  171.7050  137.4550 O   0  0  0  0  0  1  0  0  0  0  0  0
  193.5980  172.1450  137.6650 C   0  0  0  0  0  2  0  0  0  0  0  0
  190.3660  175.8670  144.1480 C   0  0  0  0  0  2  0  0  0  0  0  0
  191.3390  176.8610  144.0470 O   0  0  0  0  0  0  0  0  0  0  0  0
  192.2680  176.5260  144.9740 N   0  0  0  0  0  2  0  0  0  0  0  0
  193.4110  175.9980  144.2510 C   0  0  0  0  0  2  0  0  0  0  0  0
  194.6720  176.1320  145.1070 C   0  0  0  0  0  2  0  0  0  0  0  0
  195.8990  175.6800  144.4270 N   0  0  0  0  0  0  0  0  0  0  0  0
  196.6520  173.8220  142.6100 S   0  0  0  0  0  0  0  0  0  0  0  0
  197.5470  173.9610  144.1700 C   0  0  0  0  0  2  0  0  0  0  0  0
  196.5820  174.5940  145.1400 C   0  0  2  0  0  3  0  0  0  0  0  0
  195.6650  175.3130  143.0180 C   0  0  2  0  0  3  0  0  0  0  0  0
  197.0700  175.9210  141.2170 C   0  0  0  0  0  1  0  0  0  0  0  0
  196.0410  176.4140  142.1180 N   0  0  0  0  0  0  0  0  0  0  0  0
  194.9190  176.7550  141.2570 C   0  0  0  0  0  1  0  0  0  0  0  0
  195.6850  173.6160  145.5930 O   0  0  0  0  0  0  0  0  0  0  0  0
  196.4860  172.5220  145.9300 C   0  0  0  0  0  1  0  0  0  0  0  0
  1  9  1  0  0  0  0
  1 10  1  0  0  0  0
  2  4  2  0  0  0  0
  3  6  1  0  0  0  0
  3  2  1  0  0  0  0
  4 13  1  0  0  0  0
  5  4  1  0  0  0  0
  5 11  1  0  0  0  0
  6  5  2  0  0  0  0
  9  6  1  0  0  0  0
  9 10  2  0  0  0  0
 10 12  1  0  0  0  0
 11  7  1  0  0  0  0
 12 11  2  0  0  0  0
 12  8  1  0  0  0  0
 13 14  1  0  0  0  0
 15 16  1  6  0  0  0
 15  3  1  0  0  0  0
 17 15  1  0  0  0  0
 18 21  1  0  0  0  0
 19 17  1  0  0  0  0
 20 18  2  0  0  0  0
 20 23  1  0  0  0  0
 21 19  2  0  0  0  0
 22 19  1  0  0  0  0
 22 24  1  0  0  0  0
 23 22  2  0  0  0  0
 24 25  1  0  0  0  0
 26 25  1  6  0  0  0
 27 28  1  1  0  0  0
 27 29  1  0  0  0  0
 27 30  1  0  0  0  0
 29 34  1  6  0  0  0
 29 31  1  0  0  0  0
 30 26  1  0  0  0  0
 31 26  1  0  0  0  0
 32 27  1  0  0  0  0
 32 30  1  0  0  0  0
 33 32  1  0  0  0  0
 35 34  1  0  0  0  0
 36 38  1  0  0  0  0
 36 35  1  0  0  0  0
 37 36  1  0  0  0  0
 39 40  1  0  0  0  0
 40 36  1  0  0  0  0
 41  2  1  0  0  0  0
 42 41  1  0  0  0  0
 42 43  1  0  0  0  0
 44 43  1  0  0  0  0
 44 45  1  0  0  0  0
 46 45  1  0  0  0  0
 46 49  1  0  0  0  0
 47 50  1  0  0  0  0
 47 48  1  0  0  0  0
 48 49  1  0  0  0  0
 49 54  1  0  0  0  0
 50 46  1  0  0  0  0
 51 52  1  0  0  0  0
 52 50  1  0  0  0  0
 53 52  1  0  0  0  0
 54 55  1  0  0  0  0
M  END
>  <MODEL>
5

>  <REMARK>
 VINA RESULT:      -6.3      3.004      7.700
  Name = 
  19 active torsions:
  status: ('A' for Active; 'I' for Inactive)
    1  A    between atoms: C_2  and  O_46
    2  A    between atoms: O_4  and  C_23
    3  A    between atoms: C_5  and  N_10
    4  A    between atoms: C_5  and  C_50
    5  A    between atoms: C_7  and  O_35
    6  A    between atoms: C_7  and  C_49
    7  A    between atoms: C_9  and  C_54
    8  A    between atoms: N_11  and  C_32
    9  A    between atoms: C_13  and  C_50
   10  A    between atoms: C_15  and  C_21
   11  A    between atoms: N_18  and  C_39
   12  A    between atoms: N_18  and  O_46
   13  A    between atoms: O_20  and  N_48
   14  A    between atoms: O_20  and  C_54
   15  A    between atoms: C_26  and  C_51
   16  A    between atoms: C_32  and  C_34
   17  A    between atoms: N_33  and  C_45
   18  A    between atoms: C_34  and  N_48
   19  A    between atoms: O_35  and  C_51
                            x       y       z     vdW  Elec       q    Type
                         _______ _______ _______ _____ _____    ______ ____

>  <TORSDO>
F 19

$$$$
=
 OpenBabel11042416413D

 55 61  0  0  1  0  0  0  0  0999 V2000
  186.9080  177.4110  147.4180 C   0  0  0  0  0  2  0  0  0  0  0  0
  188.2380  175.8790  142.9890 C   0  0  0  0  0  0  0  0  0  0  0  0
  188.5050  175.8980  144.3260 N   0  0  0  0  0  0  0  0  0  0  0  0
  187.0100  176.4860  142.6970 C   0  0  0  0  0  0  0  0  0  0  0  0
  186.5000  176.9580  143.8950 C   0  0  0  0  0  0  0  0  0  0  0  0
  187.4620  176.5810  144.8470 C   0  0  0  0  0  0  0  0  0  0  0  0
  184.3160  178.0680  143.1200 C   0  0  0  0  0  1  0  0  0  0  0  0
  183.8600  178.8540  145.9240 O   0  0  0  0  0  1  0  0  0  0  0  0
  187.1660  177.0010  146.1030 C   0  0  0  0  0  0  0  0  0  0  0  0
  185.9640  177.7570  146.4410 C   0  0  0  0  0  0  0  0  0  0  0  0
  185.2800  177.7160  144.2010 C   0  0  0  0  0  0  0  0  0  0  0  0
  184.9910  178.1370  145.5540 C   0  0  0  0  0  0  0  0  0  0  0  0
  186.4290  176.6780  141.3340 C   0  0  0  0  0  2  0  0  0  0  0  0
  187.1340  177.8170  140.6230 C   0  0  0  0  0  1  0  0  0  0  0  0
  189.7710  175.5070  144.9810 C   0  0  2  0  0  3  0  0  0  0  0  0
  189.5490  174.8280  146.3300 C   0  0  0  0  0  1  0  0  0  0  0  0
  190.7960  176.6450  145.0970 C   0  0  0  0  0  2  0  0  0  0  0  0
  194.1770  176.1870  146.7740 C   0  0  0  0  0  3  0  0  0  0  0  0
  192.2120  176.2050  145.3690 C   0  0  0  0  0  0  0  0  0  0  0  0
  194.8660  175.5410  145.7950 N   0  0  0  0  0  0  0  0  0  0  0  0
  192.8400  176.5330  146.5770 C   0  0  0  0  0  3  0  0  0  0  0  0
  192.9390  175.5290  144.3750 C   0  0  0  0  0  0  0  0  0  0  0  0
  194.2800  175.2070  144.6140 C   0  0  0  0  0  3  0  0  0  0  0  0
  192.3090  175.1450  143.1500 N   0  0  0  0  0  2  0  0  0  0  0  0
  192.7620  175.5710  141.9440 O   0  0  0  0  0  0  0  0  0  0  0  0
  192.6320  174.4650  141.0990 C   0  0  1  0  0  3  0  0  0  0  0  0
  194.3270  173.2460  139.9890 C   0  0  2  0  0  0  0  0  0  0  0  0
  194.5330  172.7390  138.7050 O   0  0  0  0  0  1  0  0  0  0  0  0
  193.5610  172.4150  140.9910 C   0  0  2  0  0  3  0  0  0  0  0  0
  193.6170  174.5600  139.9430 C   0  0  2  0  0  3  0  0  0  0  0  0
  192.8430  173.2790  141.8290 O   0  0  0  0  0  0  0  0  0  0  0  0
  195.0660  174.5030  140.4160 C   0  0  2  0  0  3  0  0  0  0  0  0
  195.9080  174.9440  139.3940 O   0  0  0  0  0  1  0  0  0  0  0  0
  194.5110  171.5820  141.8300 C   0  0  0  0  0  2  0  0  0  0  0  0
  194.7640  172.2170  143.0620 O   0  0  0  0  0  0  0  0  0  0  0  0
  194.9040  171.2480  144.0890 C   0  0  0  0  0  0  0  0  0  0  0  0
  193.8680  171.5420  145.1570 C   0  0  0  0  0  1  0  0  0  0  0  0
  194.6200  169.8460  143.5630 C   0  0  0  0  0  1  0  0  0  0  0  0
  196.3320  172.2140  145.7880 O   0  0  0  0  0  1  0  0  0  0  0  0
  196.2890  171.2740  144.7530 C   0  0  0  0  0  2  0  0  0  0  0  0
  189.1580  175.3220  141.9500 C   0  0  0  0  0  2  0  0  0  0  0  0
  188.7680  174.0220  141.6260 O   0  0  0  0  0  0  0  0  0  0  0  0
  188.7890  173.9870  140.2720 N   0  0  0  0  0  2  0  0  0  0  0  0
  188.9540  172.5950  139.8920 C   0  0  0  0  0  2  0  0  0  0  0  0
  190.2600  172.4230  139.1160 C   0  0  0  0  0  2  0  0  0  0  0  0
  190.0880  171.7710  137.8050 N   0  0  0  0  0  0  0  0  0  0  0  0
  191.4270  171.5120  135.4680 S   0  0  0  0  0  0  0  0  0  0  0  0
  189.7010  172.0350  135.4560 C   0  0  0  0  0  2  0  0  0  0  0  0
  189.4470  172.6420  136.8120 C   0  0  2  0  0  3  0  0  0  0  0  0
  191.3480  171.2160  137.2760 C   0  0  2  0  0  3  0  0  0  0  0  0
  191.7460  169.1050  136.2880 C   0  0  0  0  0  1  0  0  0  0  0  0
  191.4390  169.7720  137.5440 N   0  0  0  0  0  0  0  0  0  0  0  0
  192.5800  169.4990  138.4030 C   0  0  0  0  0  1  0  0  0  0  0  0
  189.9740  173.9410  136.8340 O   0  0  0  0  0  0  0  0  0  0  0  0
  189.0160  174.7290  136.1920 C   0  0  0  0  0  1  0  0  0  0  0  0
  2  3  1  0  0  0  0
  3  6  1  0  0  0  0
  3 15  1  0  0  0  0
  4  2  2  0  0  0  0
  4  5  1  0  0  0  0
  5 11  2  0  0  0  0
  5  6  1  0  0  0  0
  6  9  2  0  0  0  0
  7 11  1  0  0  0  0
  9 10  1  0  0  0  0
  9  1  1  0  0  0  0
 10  1  1  0  0  0  0
 11 12  1  0  0  0  0
 12  8  1  0  0  0  0
 12 10  2  0  0  0  0
 13  4  1  0  0  0  0
 14 13  1  0  0  0  0
 15 17  1  0  0  0  0
 15 16  1  1  0  0  0
 17 19  1  0  0  0  0
 19 21  2  0  0  0  0
 20 18  2  0  0  0  0
 21 18  1  0  0  0  0
 22 23  2  0  0  0  0
 22 19  1  0  0  0  0
 23 20  1  0  0  0  0
 24 22  1  0  0  0  0
 25 24  1  0  0  0  0
 26 31  1  0  0  0  0
 26 25  1  1  0  0  0
 27 28  1  6  0  0  0
 27 32  1  0  0  0  0
 27 29  1  0  0  0  0
 29 31  1  0  0  0  0
 29 34  1  1  0  0  0
 30 27  1  0  0  0  0
 30 32  1  0  0  0  0
 30 26  1  0  0  0  0
 33 32  1  0  0  0  0
 34 35  1  0  0  0  0
 35 36  1  0  0  0  0
 36 40  1  0  0  0  0
 36 37  1  0  0  0  0
 38 36  1  0  0  0  0
 40 39  1  0  0  0  0
 41  2  1  0  0  0  0
 42 41  1  0  0  0  0
 43 42  1  0  0  0  0
 44 43  1  0  0  0  0
 45 44  1  0  0  0  0
 46 45  1  0  0  0  0
 47 50  1  0  0  0  0
 48 47  1  0  0  0  0
 48 49  1  0  0  0  0
 49 54  1  0  0  0  0
 49 46  1  0  0  0  0
 50 52  1  0  0  0  0
 50 46  1  0  0  0  0
 51 52  1  0  0  0  0
 52 53  1  0  0  0  0
 55 54  1  0  0  0  0
M  END
>  <MODEL>
6

>  <REMARK>
 VINA RESULT:      -6.3      2.958      8.437
  Name = 
  19 active torsions:
  status: ('A' for Active; 'I' for Inactive)
    1  A    between atoms: C_2  and  O_46
    2  A    between atoms: O_4  and  C_23
    3  A    between atoms: C_5  and  N_10
    4  A    between atoms: C_5  and  C_50
    5  A    between atoms: C_7  and  O_35
    6  A    between atoms: C_7  and  C_49
    7  A    between atoms: C_9  and  C_54
    8  A    between atoms: N_11  and  C_32
    9  A    between atoms: C_13  and  C_50
   10  A    between atoms: C_15  and  C_21
   11  A    between atoms: N_18  and  C_39
   12  A    between atoms: N_18  and  O_46
   13  A    between atoms: O_20  and  N_48
   14  A    between atoms: O_20  and  C_54
   15  A    between atoms: C_26  and  C_51
   16  A    between atoms: C_32  and  C_34
   17  A    between atoms: N_33  and  C_45
   18  A    between atoms: C_34  and  N_48
   19  A    between atoms: O_35  and  C_51
                            x       y       z     vdW  Elec       q    Type
                         _______ _______ _______ _____ _____    ______ ____

>  <TORSDO>
F 19

$$$$
=
 OpenBabel11042416413D

 55 61  0  0  1  0  0  0  0  0999 V2000
  188.7500  177.0550  147.2920 C   0  0  0  0  0  2  0  0  0  0  0  0
  187.7220  176.2350  142.6010 C   0  0  0  0  0  0  0  0  0  0  0  0
  188.6020  176.0710  143.6300 N   0  0  0  0  0  0  0  0  0  0  0  0
  186.5290  176.8290  143.0300 C   0  0  0  0  0  0  0  0  0  0  0  0
  186.6760  177.1030  144.3790 C   0  0  0  0  0  0  0  0  0  0  0  0
  187.9650  176.6290  144.6830 C   0  0  0  0  0  0  0  0  0  0  0  0
  184.4310  178.2260  144.9240 C   0  0  0  0  0  1  0  0  0  0  0  0
  185.4130  178.5780  147.6820 O   0  0  0  0  0  1  0  0  0  0  0  0
  188.3260  176.8510  145.9720 C   0  0  0  0  0  0  0  0  0  0  0  0
  187.4640  177.5010  146.9540 C   0  0  0  0  0  0  0  0  0  0  0  0
  185.7840  177.7590  145.3420 C   0  0  0  0  0  0  0  0  0  0  0  0
  186.1990  177.9670  146.7120 C   0  0  0  0  0  0  0  0  0  0  0  0
  185.3690  177.1950  142.1600 C   0  0  0  0  0  2  0  0  0  0  0  0
  185.6300  178.5220  141.4740 C   0  0  0  0  0  1  0  0  0  0  0  0
  190.0110  175.6390  143.5280 C   0  0  2  0  0  3  0  0  0  0  0  0
  190.3240  174.4390  144.4200 C   0  0  0  0  0  1  0  0  0  0  0  0
  191.0310  176.7670  143.7430 C   0  0  0  0  0  2  0  0  0  0  0  0
  193.1400  176.4360  146.8900 C   0  0  0  0  0  3  0  0  0  0  0  0
  192.1660  176.4350  144.6790 C   0  0  0  0  0  0  0  0  0  0  0  0
  194.3110  175.9790  146.3690 N   0  0  0  0  0  0  0  0  0  0  0  0
  192.0490  176.6740  146.0540 C   0  0  0  0  0  3  0  0  0  0  0  0
  193.3810  175.9540  144.1640 C   0  0  0  0  0  0  0  0  0  0  0  0
  194.4510  175.7340  145.0390 C   0  0  0  0  0  3  0  0  0  0  0  0
  193.5130  175.6610  142.7700 N   0  0  0  0  0  2  0  0  0  0  0  0
  194.4650  176.2450  141.9990 O   0  0  0  0  0  0  0  0  0  0  0  0
  194.2860  175.6950  140.7270 C   0  0  1  0  0  3  0  0  0  0  0  0
  195.1050  173.6480  139.8730 C   0  0  2  0  0  0  0  0  0  0  0  0
  195.7260  173.2170  138.6990 O   0  0  0  0  0  1  0  0  0  0  0  0
  193.5970  173.7050  139.9250 C   0  0  2  0  0  3  0  0  0  0  0  0
  195.5640  175.0170  140.2550 C   0  0  2  0  0  3  0  0  0  0  0  0
  193.2210  174.7740  140.7500 O   0  0  0  0  0  0  0  0  0  0  0  0
  195.9390  173.8260  141.1300 C   0  0  2  0  0  3  0  0  0  0  0  0
  197.2670  173.4700  140.8880 O   0  0  0  0  0  1  0  0  0  0  0  0
  193.0330  172.4160  140.4920 C   0  0  0  0  0  2  0  0  0  0  0  0
  192.2820  172.6770  141.6540 O   0  0  0  0  0  0  0  0  0  0  0  0
  192.5540  171.6940  142.6400 C   0  0  0  0  0  0  0  0  0  0  0  0
  193.5200  170.6860  142.0450 C   0  0  0  0  0  1  0  0  0  0  0  0
  193.2400  172.3080  143.8550 C   0  0  0  0  0  1  0  0  0  0  0  0
  190.3380  170.9020  142.0750 O   0  0  0  0  0  1  0  0  0  0  0  0
  191.2980  170.9340  143.0930 C   0  0  0  0  0  2  0  0  0  0  0  0
  188.0070  175.8720  141.1790 C   0  0  0  0  0  2  0  0  0  0  0  0
  187.9690  174.4850  141.0330 O   0  0  0  0  0  0  0  0  0  0  0  0
  188.2670  174.2700  139.7290 N   0  0  0  0  0  2  0  0  0  0  0  0
  189.4920  173.4910  139.7020 C   0  0  0  0  0  2  0  0  0  0  0  0
  189.2850  172.2310  138.8590 C   0  0  0  0  0  2  0  0  0  0  0  0
  190.1740  172.1510  137.6870 N   0  0  0  0  0  0  0  0  0  0  0  0
  190.0100  171.6110  135.0400 S   0  0  0  0  0  0  0  0  0  0  0  0
  191.2370  170.7600  136.0520 C   0  0  0  0  0  2  0  0  0  0  0  0
  190.7060  170.8010  137.4620 C   0  0  2  0  0  3  0  0  0  0  0  0
  189.5450  172.6750  136.4600 C   0  0  2  0  0  3  0  0  0  0  0  0
  190.5600  174.1000  134.8700 C   0  0  0  0  0  1  0  0  0  0  0  0
  189.9720  174.0590  136.1990 N   0  0  0  0  0  0  0  0  0  0  0  0
  188.8100  174.9300  136.1250 C   0  0  0  0  0  1  0  0  0  0  0  0
  189.7180  169.8170  137.6040 O   0  0  0  0  0  0  0  0  0  0  0  0
  190.4220  168.6290  137.8190 C   0  0  0  0  0  1  0  0  0  0  0  0
  2  4  2  0  0  0  0
  2  3  1  0  0  0  0
  3  6  1  0  0  0  0
  4  5  1  0  0  0  0
  5  6  2  0  0  0  0
  5 11  1  0  0  0  0
  6  9  1  0  0  0  0
  7 11  1  0  0  0  0
  9 10  2  0  0  0  0
  9  1  1  0  0  0  0
 10  1  1  0  0  0  0
 11 12  2  0  0  0  0
 12 10  1  0  0  0  0
 12  8  1  0  0  0  0
 13  4  1  0  0  0  0
 14 13  1  0  0  0  0
 15  3  1  0  0  0  0
 15 17  1  0  0  0  0
 15 16  1  1  0  0  0
 17 19  1  0  0  0  0
 19 21  1  0  0  0  0
 20 18  1  0  0  0  0
 21 18  2  0  0  0  0
 22 19  2  0  0  0  0
 22 23  1  0  0  0  0
 23 20  2  0  0  0  0
 24 22  1  0  0  0  0
 25 24  1  0  0  0  0
 26 31  1  0  0  0  0
 26 25  1  1  0  0  0
 27 28  1  6  0  0  0
 27 29  1  0  0  0  0
 27 30  1  0  0  0  0
 27 32  1  0  0  0  0
 29 34  1  1  0  0  0
 29 31  1  0  0  0  0
 30 26  1  0  0  0  0
 30 32  1  0  0  0  0
 33 32  1  0  0  0  0
 34 35  1  0  0  0  0
 35 36  1  0  0  0  0
 36 40  1  0  0  0  0
 36 38  1  0  0  0  0
 37 36  1  0  0  0  0
 39 40  1  0  0  0  0
 41  2  1  0  0  0  0
 42 41  1  0  0  0  0
 43 42  1  0  0  0  0
 44 43  1  0  0  0  0
 45 44  1  0  0  0  0
 46 45  1  0  0  0  0
 47 48  1  0  0  0  0
 47 50  1  0  0  0  0
 48 49  1  0  0  0  0
 49 54  1  0  0  0  0
 49 46  1  0  0  0  0
 50 46  1  0  0  0  0
 51 52  1  0  0  0  0
 52 50  1  0  0  0  0
 53 52  1  0  0  0  0
 54 55  1  0  0  0  0
M  END
>  <MODEL>
7

>  <REMARK>
 VINA RESULT:      -6.2      2.980      8.156
  Name = 
  19 active torsions:
  status: ('A' for Active; 'I' for Inactive)
    1  A    between atoms: C_2  and  O_46
    2  A    between atoms: O_4  and  C_23
    3  A    between atoms: C_5  and  N_10
    4  A    between atoms: C_5  and  C_50
    5  A    between atoms: C_7  and  O_35
    6  A    between atoms: C_7  and  C_49
    7  A    between atoms: C_9  and  C_54
    8  A    between atoms: N_11  and  C_32
    9  A    between atoms: C_13  and  C_50
   10  A    between atoms: C_15  and  C_21
   11  A    between atoms: N_18  and  C_39
   12  A    between atoms: N_18  and  O_46
   13  A    between atoms: O_20  and  N_48
   14  A    between atoms: O_20  and  C_54
   15  A    between atoms: C_26  and  C_51
   16  A    between atoms: C_32  and  C_34
   17  A    between atoms: N_33  and  C_45
   18  A    between atoms: C_34  and  N_48
   19  A    between atoms: O_35  and  C_51
                            x       y       z     vdW  Elec       q    Type
                         _______ _______ _______ _____ _____    ______ ____

>  <TORSDO>
F 19

$$$$
=
 OpenBabel11042416413D

 55 61  0  0  1  0  0  0  0  0999 V2000
  193.3510  169.7730  144.5310 C   0  0  0  0  0  2  0  0  0  0  0  0
  192.4060  174.5520  144.5480 C   0  0  0  0  0  0  0  0  0  0  0  0
  191.9250  173.2860  144.3860 N   0  0  0  0  0  0  0  0  0  0  0  0
  193.7400  174.5480  144.9760 C   0  0  0  0  0  0  0  0  0  0  0  0
  194.1400  173.2240  145.0370 C   0  0  0  0  0  0  0  0  0  0  0  0
  192.9940  172.5040  144.6530 C   0  0  0  0  0  0  0  0  0  0  0  0
  196.5900  173.4600  145.7690 C   0  0  0  0  0  1  0  0  0  0  0  0
  196.7960  170.5230  145.6160 O   0  0  0  0  0  1  0  0  0  0  0  0
  193.1960  171.1640  144.6020 C   0  0  0  0  0  0  0  0  0  0  0  0
  194.4680  170.5230  144.9240 C   0  0  0  0  0  0  0  0  0  0  0  0
  195.4320  172.6110  145.3700 C   0  0  0  0  0  0  0  0  0  0  0  0
  195.6060  171.1770  145.3150 C   0  0  0  0  0  0  0  0  0  0  0  0
  194.5890  175.7550  145.2090 C   0  0  0  0  0  2  0  0  0  0  0  0
  194.4230  176.2430  146.6350 C   0  0  0  0  0  1  0  0  0  0  0  0
  190.6290  172.9030  143.7890 C   0  0  2  0  0  3  0  0  0  0  0  0
  189.6890  172.2480  144.7980 C   0  0  0  0  0  1  0  0  0  0  0  0
  190.7500  172.0540  142.5140 C   0  0  0  0  0  2  0  0  0  0  0  0
  188.4630  173.3460  139.7660 C   0  0  0  0  0  3  0  0  0  0  0  0
  190.2600  172.7190  141.2530 C   0  0  0  0  0  0  0  0  0  0  0  0
  189.3740  173.7900  138.8590 N   0  0  0  0  0  0  0  0  0  0  0  0
  188.8900  172.8000  140.9760 C   0  0  0  0  0  3  0  0  0  0  0  0
  191.1840  173.1930  140.3070 C   0  0  0  0  0  0  0  0  0  0  0  0
  190.7100  173.7280  139.1030 C   0  0  0  0  0  3  0  0  0  0  0  0
  192.5870  173.1610  140.5830 N   0  0  0  0  0  2  0  0  0  0  0  0
  193.1730  174.0470  141.4270 O   0  0  0  0  0  0  0  0  0  0  0  0
  193.9410  174.8750  140.6030 C   0  0  1  0  0  3  0  0  0  0  0  0
  196.2930  175.0890  140.5010 C   0  0  2  0  0  0  0  0  0  0  0  0
  197.2130  176.1380  140.4470 O   0  0  0  0  0  1  0  0  0  0  0  0
  195.6910  174.5760  139.2160 C   0  0  2  0  0  3  0  0  0  0  0  0
  195.1290  175.4370  141.3700 C   0  0  2  0  0  3  0  0  0  0  0  0
  194.3800  174.1540  139.4760 O   0  0  0  0  0  0  0  0  0  0  0  0
  196.0970  174.3430  141.8110 C   0  0  2  0  0  3  0  0  0  0  0  0
  196.9540  174.8460  142.7910 O   0  0  0  0  0  1  0  0  0  0  0  0
  196.4940  173.4060  138.6800 C   0  0  0  0  0  2  0  0  0  0  0  0
  195.7480  172.6980  137.7170 O   0  0  0  0  0  0  0  0  0  0  0  0
  196.4700  172.6260  136.4980 C   0  0  0  0  0  0  0  0  0  0  0  0
  195.8960  173.6630  135.5500 C   0  0  0  0  0  1  0  0  0  0  0  0
  197.9390  172.9770  136.7090 C   0  0  0  0  0  1  0  0  0  0  0  0
  196.1690  170.2400  136.7620 O   0  0  0  0  0  1  0  0  0  0  0  0
  196.3660  171.2530  135.8180 C   0  0  0  0  0  2  0  0  0  0  0  0
  191.6280  175.7960  144.2620 C   0  0  0  0  0  2  0  0  0  0  0  0
  190.6130  175.9420  145.2090 O   0  0  0  0  0  0  0  0  0  0  0  0
  189.7690  176.8520  144.6670 N   0  0  0  0  0  2  0  0  0  0  0  0
  189.1350  176.2110  143.5290 C   0  0  0  0  0  2  0  0  0  0  0  0
  187.6280  176.1040  143.7680 C   0  0  0  0  0  2  0  0  0  0  0  0
  186.9360  177.4050  143.7670 N   0  0  0  0  0  0  0  0  0  0  0  0
  184.4150  178.3700  143.5800 S   0  0  0  0  0  0  0  0  0  0  0  0
  185.7080  179.0370  142.5150 C   0  0  0  0  0  2  0  0  0  0  0  0
  186.7570  177.9580  142.4190 C   0  0  2  0  0  3  0  0  0  0  0  0
  185.6510  177.3660  144.4900 C   0  0  2  0  0  3  0  0  0  0  0  0
  184.4710  178.1660  146.3760 C   0  0  0  0  0  1  0  0  0  0  0  0
  185.8010  177.8890  145.8570 N   0  0  0  0  0  0  0  0  0  0  0  0
  186.3360  176.8530  146.7270 C   0  0  0  0  0  1  0  0  0  0  0  0
  186.3250  176.9850  141.5050 O   0  0  0  0  0  0  0  0  0  0  0  0
  186.5790  177.5370  140.2470 C   0  0  0  0  0  1  0  0  0  0  0  0
  1  9  1  0  0  0  0
  1 10  1  0  0  0  0
  2  4  2  0  0  0  0
  3  2  1  0  0  0  0
  3  6  1  0  0  0  0
  4  5  1  0  0  0  0
  4 13  1  0  0  0  0
  5 11  1  0  0  0  0
  6  5  2  0  0  0  0
  9  6  1  0  0  0  0
  9 10  2  0  0  0  0
 10 12  1  0  0  0  0
 11  7  1  0  0  0  0
 12 11  2  0  0  0  0
 12  8  1  0  0  0  0
 13 14  1  0  0  0  0
 15  3  1  0  0  0  0
 15 16  1  1  0  0  0
 17 15  1  0  0  0  0
 18 21  1  0  0  0  0
 19 17  1  0  0  0  0
 20 23  1  0  0  0  0
 20 18  2  0  0  0  0
 21 19  2  0  0  0  0
 22 24  1  0  0  0  0
 22 19  1  0  0  0  0
 23 22  2  0  0  0  0
 24 25  1  0  0  0  0
 26 30  1  0  0  0  0
 26 25  1  1  0  0  0
 27 28  1  6  0  0  0
 27 30  1  0  0  0  0
 27 32  1  0  0  0  0
 29 34  1  1  0  0  0
 29 31  1  0  0  0  0
 29 27  1  0  0  0  0
 30 32  1  0  0  0  0
 31 26  1  0  0  0  0
 32 33  1  0  0  0  0
 35 34  1  0  0  0  0
 36 38  1  0  0  0  0
 36 35  1  0  0  0  0
 37 36  1  0  0  0  0
 40 36  1  0  0  0  0
 40 39  1  0  0  0  0
 41  2  1  0  0  0  0
 41 42  1  0  0  0  0
 43 42  1  0  0  0  0
 44 45  1  0  0  0  0
 44 43  1  0  0  0  0
 46 45  1  0  0  0  0
 46 50  1  0  0  0  0
 47 50  1  0  0  0  0
 48 47  1  0  0  0  0
 49 48  1  0  0  0  0
 49 46  1  0  0  0  0
 50 52  1  0  0  0  0
 52 51  1  0  0  0  0
 52 53  1  0  0  0  0
 54 49  1  0  0  0  0
 55 54  1  0  0  0  0
M  END
>  <MODEL>
8

>  <REMARK>
 VINA RESULT:      -6.2      1.302      2.243
  Name = 
  19 active torsions:
  status: ('A' for Active; 'I' for Inactive)
    1  A    between atoms: C_2  and  O_46
    2  A    between atoms: O_4  and  C_23
    3  A    between atoms: C_5  and  N_10
    4  A    between atoms: C_5  and  C_50
    5  A    between atoms: C_7  and  O_35
    6  A    between atoms: C_7  and  C_49
    7  A    between atoms: C_9  and  C_54
    8  A    between atoms: N_11  and  C_32
    9  A    between atoms: C_13  and  C_50
   10  A    between atoms: C_15  and  C_21
   11  A    between atoms: N_18  and  C_39
   12  A    between atoms: N_18  and  O_46
   13  A    between atoms: O_20  and  N_48
   14  A    between atoms: O_20  and  C_54
   15  A    between atoms: C_26  and  C_51
   16  A    between atoms: C_32  and  C_34
   17  A    between atoms: N_33  and  C_45
   18  A    between atoms: C_34  and  N_48
   19  A    between atoms: O_35  and  C_51
                            x       y       z     vdW  Elec       q    Type
                         _______ _______ _______ _____ _____    ______ ____

>  <TORSDO>
F 19

$$$$
=
 OpenBabel11042416413D

 55 61  0  0  1  0  0  0  0  0999 V2000
  195.0790  175.6680  144.9020 C   0  0  0  0  0  2  0  0  0  0  0  0
  193.7710  171.8660  142.1530 C   0  0  0  0  0  0  0  0  0  0  0  0
  193.7020  173.2120  142.3590 N   0  0  0  0  0  0  0  0  0  0  0  0
  194.6560  171.2490  143.0470 C   0  0  0  0  0  0  0  0  0  0  0  0
  195.1290  172.2390  143.8920 C   0  0  0  0  0  0  0  0  0  0  0  0
  194.5010  173.4090  143.4310 C   0  0  0  0  0  0  0  0  0  0  0  0
  196.6560  170.8900  145.4560 C   0  0  0  0  0  1  0  0  0  0  0  0
  197.1920  173.4020  146.9040 O   0  0  0  0  0  1  0  0  0  0  0  0
  194.8030  174.5050  144.1710 C   0  0  0  0  0  0  0  0  0  0  0  0
  195.6990  174.4830  145.3230 C   0  0  0  0  0  0  0  0  0  0  0  0
  196.0360  172.1820  145.0450 C   0  0  0  0  0  0  0  0  0  0  0  0
  196.3440  173.3740  145.8030 C   0  0  0  0  0  0  0  0  0  0  0  0
  194.9380  169.7840  143.1310 C   0  0  0  0  0  2  0  0  0  0  0  0
  193.9200  169.1080  144.0290 C   0  0  0  0  0  1  0  0  0  0  0  0
  192.7570  174.1560  141.7280 C   0  0  2  0  0  3  0  0  0  0  0  0
  193.4650  175.2860  140.9840 C   0  0  0  0  0  1  0  0  0  0  0  0
  191.6870  174.7080  142.6830 C   0  0  0  0  0  2  0  0  0  0  0  0
  189.2980  171.9030  143.6200 C   0  0  0  0  0  3  0  0  0  0  0  0
  190.4420  173.8680  142.8020 C   0  0  0  0  0  0  0  0  0  0  0  0
  188.2040  172.2400  142.8850 N   0  0  0  0  0  0  0  0  0  0  0  0
  190.4360  172.7090  143.5880 C   0  0  0  0  0  3  0  0  0  0  0  0
  189.2970  174.2020  142.0590 C   0  0  0  0  0  0  0  0  0  0  0  0
  188.1790  173.3610  142.1160 C   0  0  0  0  0  3  0  0  0  0  0  0
  189.2610  175.4030  141.2820 N   0  0  0  0  0  2  0  0  0  0  0  0
  188.1060  176.0730  141.0470 O   0  0  0  0  0  0  0  0  0  0  0  0
  188.2260  177.2630  141.7690 C   0  0  1  0  0  3  0  0  0  0  0  0
  186.7730  178.1490  143.4110 C   0  0  2  0  0  0  0  0  0  0  0  0
  186.2070  179.3930  143.6960 O   0  0  0  0  0  1  0  0  0  0  0  0
  188.1470  177.8290  143.9490 C   0  0  2  0  0  3  0  0  0  0  0  0
  186.8650  177.9240  141.9370 C   0  0  2  0  0  3  0  0  0  0  0  0
  188.8050  177.0030  143.0260 O   0  0  0  0  0  0  0  0  0  0  0  0
  185.9130  177.0730  142.7710 C   0  0  2  0  0  3  0  0  0  0  0  0
  184.6060  177.5330  142.5990 O   0  0  0  0  0  1  0  0  0  0  0  0
  188.0450  177.1070  145.2790 C   0  0  0  0  0  2  0  0  0  0  0  0
  188.8050  175.9220  145.2540 O   0  0  0  0  0  0  0  0  0  0  0  0
  189.6020  175.8310  146.4250 C   0  0  0  0  0  0  0  0  0  0  0  0
  189.6000  177.1900  147.1000 C   0  0  0  0  0  1  0  0  0  0  0  0
  189.0100  174.8370  147.4170 C   0  0  0  0  0  1  0  0  0  0  0  0
  191.9230  176.5170  146.4090 O   0  0  0  0  0  1  0  0  0  0  0  0
  191.0610  175.4520  146.1300 C   0  0  0  0  0  2  0  0  0  0  0  0
  192.9690  171.1240  141.1310 C   0  0  0  0  0  2  0  0  0  0  0  0
  191.8530  170.5500  141.7390 O   0  0  0  0  0  0  0  0  0  0  0  0
  191.0560  170.1790  140.7080 N   0  0  0  0  0  2  0  0  0  0  0  0
  190.7830  171.3790  139.9360 C   0  0  0  0  0  2  0  0  0  0  0  0
  189.7320  171.0790  138.8670 C   0  0  0  0  0  2  0  0  0  0  0  0
  190.1240  171.5130  137.5140 N   0  0  0  0  0  0  0  0  0  0  0  0
  191.9590  173.1220  136.3450 S   0  0  0  0  0  0  0  0  0  0  0  0
  190.2160  173.2940  135.9150 C   0  0  0  0  0  2  0  0  0  0  0  0
  189.4480  172.7450  137.0900 C   0  0  2  0  0  3  0  0  0  0  0  0
  191.5850  171.6400  137.3600 C   0  0  2  0  0  3  0  0  0  0  0  0
  192.9340  170.8860  135.5710 C   0  0  0  0  0  1  0  0  0  0  0  0
  192.1520  170.4450  136.7150 N   0  0  0  0  0  0  0  0  0  0  0  0
  193.1100  169.8090  137.6050 C   0  0  0  0  0  1  0  0  0  0  0  0
  189.4250  173.7090  138.1080 O   0  0  0  0  0  0  0  0  0  0  0  0
  188.1850  174.3400  137.9780 C   0  0  0  0  0  1  0  0  0  0  0  0
  1 10  1  0  0  0  0
  2  3  1  0  0  0  0
  2  4  2  0  0  0  0
  3  6  1  0  0  0  0
  4 13  1  0  0  0  0
  4  5  1  0  0  0  0
  5 11  1  0  0  0  0
  6  5  2  0  0  0  0
  6  9  1  0  0  0  0
  9  1  1  0  0  0  0
  9 10  2  0  0  0  0
 10 12  1  0  0  0  0
 11  7  1  0  0  0  0
 11 12  2  0  0  0  0
 12  8  1  0  0  0  0
 13 14  1  0  0  0  0
 15 16  1  1  0  0  0
 15  3  1  0  0  0  0
 15 17  1  0  0  0  0
 17 19  1  0  0  0  0
 19 21  2  0  0  0  0
 20 18  2  0  0  0  0
 21 18  1  0  0  0  0
 22 23  2  0  0  0  0
 22 19  1  0  0  0  0
 23 20  1  0  0  0  0
 24 22  1  0  0  0  0
 25 24  1  0  0  0  0
 26 25  1  1  0  0  0
 26 30  1  0  0  0  0
 26 31  1  0  0  0  0
 27 28  1  1  0  0  0
 27 29  1  0  0  0  0
 29 34  1  1  0  0  0
 30 32  1  0  0  0  0
 30 27  1  0  0  0  0
 31 29  1  0  0  0  0
 32 27  1  0  0  0  0
 33 32  1  0  0  0  0
 35 34  1  0  0  0  0
 35 36  1  0  0  0  0
 36 37  1  0  0  0  0
 36 38  1  0  0  0  0
 40 39  1  0  0  0  0
 40 36  1  0  0  0  0
 41 42  1  0  0  0  0
 41  2  1  0  0  0  0
 43 42  1  0  0  0  0
 44 43  1  0  0  0  0
 45 44  1  0  0  0  0
 46 45  1  0  0  0  0
 47 50  1  0  0  0  0
 48 47  1  0  0  0  0
 48 49  1  0  0  0  0
 49 46  1  0  0  0  0
 49 54  1  0  0  0  0
 50 46  1  0  0  0  0
 51 52  1  0  0  0  0
 52 50  1  0  0  0  0
 52 53  1  0  0  0  0
 55 54  1  0  0  0  0
M  END
>  <MODEL>
9

>  <REMARK>
 VINA RESULT:      -6.1      3.564      8.210
  Name = 
  19 active torsions:
  status: ('A' for Active; 'I' for Inactive)
    1  A    between atoms: C_2  and  O_46
    2  A    between atoms: O_4  and  C_23
    3  A    between atoms: C_5  and  N_10
    4  A    between atoms: C_5  and  C_50
    5  A    between atoms: C_7  and  O_35
    6  A    between atoms: C_7  and  C_49
    7  A    between atoms: C_9  and  C_54
    8  A    between atoms: N_11  and  C_32
    9  A    between atoms: C_13  and  C_50
   10  A    between atoms: C_15  and  C_21
   11  A    between atoms: N_18  and  C_39
   12  A    between atoms: N_18  and  O_46
   13  A    between atoms: O_20  and  N_48
   14  A    between atoms: O_20  and  C_54
   15  A    between atoms: C_26  and  C_51
   16  A    between atoms: C_32  and  C_34
   17  A    between atoms: N_33  and  C_45
   18  A    between atoms: C_34  and  N_48
   19  A    between atoms: O_35  and  C_51
                            x       y       z     vdW  Elec       q    Type
                         _______ _______ _______ _____ _____    ______ ____

>  <TORSDO>
F 19

$$$$
