=
 OpenBabel11042417483D

 25 29  0  0  1  0  0  0  0  0999 V2000
  189.4280  176.3950  144.5820 C   0  0  0  0  0  0  0  0  0  0  0  0
  186.8450  176.8510  144.7140 C   0  0  1  0  0  3  0  0  0  0  0  0
  189.4240  175.7520  143.3230 C   0  0  0  0  0  0  0  0  0  0  0  0
  190.6940  177.2090  146.5170 C   0  0  0  0  0  3  0  0  0  0  0  0
  189.5050  177.5160  147.1820 C   0  0  0  0  0  3  0  0  0  0  0  0
  186.1110  177.2350  142.4870 C   0  0  0  0  0  2  0  0  0  0  0  0
  185.0640  176.3570  146.2690 O   0  0  0  0  0  1  0  0  0  0  0  0
  186.9630  177.6080  147.0820 C   0  0  0  0  0  2  0  0  0  0  0  0
  186.0130  177.3170  145.9190 C   0  0  1  0  0  0  0  0  0  0  0  0
  184.5770  179.2060  146.0880 O   0  0  0  0  0  0  0  0  0  0  0  0
  188.2970  177.3050  146.5260 C   0  0  0  0  0  0  0  0  0  0  0  0
  186.7350  177.8660  143.6420 N   0  0  1  0  0  0  0  0  0  0  0  0
  185.3740  178.5490  145.4370 C   0  0  0  0  0  0  0  0  0  0  0  0
  187.7900  175.5920  141.4150 C   0  0  0  0  0  2  0  0  0  0  0  0
  190.6320  175.4890  142.6710 C   0  0  0  0  0  3  0  0  0  0  0  0
  185.8090  178.9110  144.0790 C   0  0  0  0  0  2  0  0  0  0  0  0
  187.1440  176.9360  141.4490 C   0  0  0  0  0  0  0  0  0  0  0  0
  187.4660  177.7900  140.6400 O   0  0  0  0  0  0  0  0  0  0  0  0
  190.6770  176.6610  145.2180 C   0  0  0  0  0  0  0  0  0  0  0  0
  191.8480  175.8120  143.2690 C   0  0  0  0  0  3  0  0  0  0  0  0
  188.2150  175.2440  142.7600 N   0  0  0  0  0  2  0  0  0  0  0  0
  188.2450  176.8040  145.2450 C   0  0  0  0  0  0  0  0  0  0  0  0
  191.8830  176.3780  144.5430 C   0  0  0  0  0  0  0  0  0  0  0  0
  193.1690  176.6620  145.1290 C   0  0  0  0  0  0  0  0  0  0  0  0
  194.2030  176.8900  145.5990 N   0  0  0  0  0  0  0  0  0  0  0  0
  1 19  2  0  0  0  0
  1 22  1  0  0  0  0
  2 22  1  1  0  0  0
  2  9  1  0  0  0  0
  3  1  1  0  0  0  0
  4  5  2  0  0  0  0
  9  7  1  1  0  0  0
  9  8  1  0  0  0  0
 11  8  1  0  0  0  0
 11  5  1  0  0  0  0
 12  6  1  6  0  0  0
 12 16  1  0  0  0  0
 12  2  1  0  0  0  0
 13  9  1  0  0  0  0
 13 10  2  0  0  0  0
 14 17  1  0  0  0  0
 14 21  1  0  0  0  0
 15 20  1  0  0  0  0
 15  3  2  0  0  0  0
 16 13  1  0  0  0  0
 17  6  1  0  0  0  0
 18 17  2  0  0  0  0
 19  4  1  0  0  0  0
 20 23  2  0  0  0  0
 21  3  1  0  0  0  0
 22 11  2  0  0  0  0
 23 24  1  0  0  0  0
 23 19  1  0  0  0  0
 24 25  3  0  0  0  0
M  END
>  <MODEL>
1

>  <REMARK>
 VINA RESULT:      -7.9      0.000      0.000
  Name = 
  1 active torsions:
  status: ('A' for Active; 'I' for Inactive)
    1  A    between atoms: C_4  and  C_25
                            x       y       z     vdW  Elec       q    Type
                         _______ _______ _______ _____ _____    ______ ____

>  <TORSDO>
F 1

$$$$
=
 OpenBabel11042417483D

 25 29  0  0  1  0  0  0  0  0999 V2000
  186.9080  176.6380  143.9020 C   0  0  0  0  0  0  0  0  0  0  0  0
  188.0170  176.1900  146.2410 C   0  0  1  0  0  3  0  0  0  0  0  0
  185.6590  177.0860  144.3890 C   0  0  0  0  0  0  0  0  0  0  0  0
  188.3630  176.1550  141.9890 C   0  0  0  0  0  3  0  0  0  0  0  0
  189.3160  175.5920  142.8410 C   0  0  0  0  0  3  0  0  0  0  0  0
  187.1310  177.8130  147.7330 C   0  0  0  0  0  2  0  0  0  0  0  0
  189.0780  174.3170  147.3370 O   0  0  0  0  0  1  0  0  0  0  0  0
  190.0010  175.0720  145.2370 C   0  0  0  0  0  2  0  0  0  0  0  0
  189.3240  175.4470  146.5570 C   0  0  1  0  0  0  0  0  0  0  0  0
  191.2150  176.2230  147.7730 O   0  0  0  0  0  0  0  0  0  0  0  0
  189.0790  175.5990  144.2110 C   0  0  0  0  0  0  0  0  0  0  0  0
  188.1430  177.5880  146.7080 N   0  0  1  0  0  0  0  0  0  0  0  0
  190.1140  176.4430  147.2920 C   0  0  0  0  0  0  0  0  0  0  0  0
  184.8040  177.8940  146.6150 C   0  0  0  0  0  2  0  0  0  0  0  0
  184.7410  177.6750  143.5150 C   0  0  0  0  0  3  0  0  0  0  0  0
  189.4340  177.7440  147.3780 C   0  0  0  0  0  2  0  0  0  0  0  0
  185.9960  178.6030  147.1640 C   0  0  0  0  0  0  0  0  0  0  0  0
  186.0480  179.8210  147.1380 O   0  0  0  0  0  0  0  0  0  0  0  0
  187.1630  176.6920  142.5000 C   0  0  0  0  0  0  0  0  0  0  0  0
  185.0240  177.7850  142.1550 C   0  0  0  0  0  3  0  0  0  0  0  0
  185.2580  176.8310  145.7350 N   0  0  0  0  0  2  0  0  0  0  0  0
  187.9340  176.1450  144.7460 C   0  0  0  0  0  0  0  0  0  0  0  0
  186.2170  177.2820  141.6370 C   0  0  0  0  0  0  0  0  0  0  0  0
  186.4450  177.3930  140.2170 C   0  0  0  0  0  0  0  0  0  0  0  0
  186.6280  177.4810  139.0770 N   0  0  0  0  0  0  0  0  0  0  0  0
  1  3  1  0  0  0  0
  1 22  1  0  0  0  0
  2 22  1  6  0  0  0
  2  9  1  0  0  0  0
  2 12  1  0  0  0  0
  3 21  1  0  0  0  0
  4 19  1  0  0  0  0
  4  5  2  0  0  0  0
  5 11  1  0  0  0  0
  8  9  1  0  0  0  0
  9 13  1  0  0  0  0
  9  7  1  1  0  0  0
 11 22  2  0  0  0  0
 11  8  1  0  0  0  0
 12 16  1  1  0  0  0
 12  6  1  0  0  0  0
 13 16  1  0  0  0  0
 13 10  2  0  0  0  0
 14 17  1  0  0  0  0
 15  3  2  0  0  0  0
 17  6  1  0  0  0  0
 18 17  2  0  0  0  0
 19  1  2  0  0  0  0
 20 15  1  0  0  0  0
 21 14  1  0  0  0  0
 23 20  2  0  0  0  0
 23 19  1  0  0  0  0
 24 23  1  0  0  0  0
 25 24  3  0  0  0  0
M  END
>  <MODEL>
2

>  <REMARK>
 VINA RESULT:      -7.8      2.668      5.529
  Name = 
  1 active torsions:
  status: ('A' for Active; 'I' for Inactive)
    1  A    between atoms: C_4  and  C_25
                            x       y       z     vdW  Elec       q    Type
                         _______ _______ _______ _____ _____    ______ ____

>  <TORSDO>
F 1

$$$$
=
 OpenBabel11042417483D

 25 29  0  0  1  0  0  0  0  0999 V2000
  188.1030  176.6650  144.2430 C   0  0  0  0  0  0  0  0  0  0  0  0
  190.4930  175.6230  143.9220 C   0  0  1  0  0  3  0  0  0  0  0  0
  187.6360  176.4300  142.9300 C   0  0  0  0  0  0  0  0  0  0  0  0
  187.6790  177.5370  146.4950 C   0  0  0  0  0  3  0  0  0  0  0  0
  189.0160  177.3310  146.8400 C   0  0  0  0  0  3  0  0  0  0  0  0
  190.2490  173.8310  142.3820 C   0  0  0  0  0  2  0  0  0  0  0  0
  192.7720  176.3640  144.2220 O   0  0  0  0  0  1  0  0  0  0  0  0
  191.2950  176.4450  146.1310 C   0  0  0  0  0  2  0  0  0  0  0  0
  191.7120  175.7140  144.8530 C   0  0  1  0  0  0  0  0  0  0  0  0
  192.9900  173.9450  145.7990 O   0  0  0  0  0  0  0  0  0  0  0  0
  189.8690  176.7540  145.9050 C   0  0  0  0  0  0  0  0  0  0  0  0
  190.1070  174.2010  143.7840 N   0  0  1  0  0  0  0  0  0  0  0  0
  192.0350  174.3090  145.1290 C   0  0  0  0  0  0  0  0  0  0  0  0
  188.3720  174.9660  141.0180 C   0  0  0  0  0  2  0  0  0  0  0  0
  186.2840  176.6140  142.6260 C   0  0  0  0  0  3  0  0  0  0  0  0
  191.0730  173.3810  144.5160 C   0  0  0  0  0  2  0  0  0  0  0  0
  188.9030  173.7690  141.7330 C   0  0  0  0  0  0  0  0  0  0  0  0
  188.2370  172.7490  141.7970 O   0  0  0  0  0  0  0  0  0  0  0  0
  187.2030  177.2010  145.2110 C   0  0  0  0  0  0  0  0  0  0  0  0
  185.3950  177.0750  143.5950 C   0  0  0  0  0  3  0  0  0  0  0  0
  188.5430  176.1310  141.8680 N   0  0  0  0  0  2  0  0  0  0  0  0
  189.4290  176.3830  144.6540 C   0  0  0  0  0  0  0  0  0  0  0  0
  185.8440  177.3880  144.8780 C   0  0  0  0  0  0  0  0  0  0  0  0
  184.8880  177.8920  145.8320 C   0  0  0  0  0  0  0  0  0  0  0  0
  184.1210  178.2970  146.5990 N   0  0  0  0  0  0  0  0  0  0  0  0
  1 22  2  0  0  0  0
  1 19  1  0  0  0  0
  2 22  1  1  0  0  0
  2  9  1  0  0  0  0
  3  1  1  0  0  0  0
  4  5  1  0  0  0  0
  9  7  1  6  0  0  0
  9 13  1  0  0  0  0
  9  8  1  0  0  0  0
 11  8  1  0  0  0  0
 11  5  2  0  0  0  0
 12  6  1  6  0  0  0
 12  2  1  0  0  0  0
 12 16  1  0  0  0  0
 13 10  2  0  0  0  0
 14 17  1  0  0  0  0
 14 21  1  0  0  0  0
 15  3  2  0  0  0  0
 15 20  1  0  0  0  0
 16 13  1  0  0  0  0
 17 18  2  0  0  0  0
 17  6  1  0  0  0  0
 19  4  2  0  0  0  0
 20 23  2  0  0  0  0
 21  3  1  0  0  0  0
 22 11  1  0  0  0  0
 23 19  1  0  0  0  0
 23 24  1  0  0  0  0
 24 25  3  0  0  0  0
M  END
>  <MODEL>
3

>  <REMARK>
 VINA RESULT:      -7.7      2.866      5.519
  Name = 
  1 active torsions:
  status: ('A' for Active; 'I' for Inactive)
    1  A    between atoms: C_4  and  C_25
                            x       y       z     vdW  Elec       q    Type
                         _______ _______ _______ _____ _____    ______ ____

>  <TORSDO>
F 1

$$$$
=
 OpenBabel11042417483D

 25 29  0  0  1  0  0  0  0  0999 V2000
  188.0620  176.2300  144.5880 C   0  0  0  0  0  0  0  0  0  0  0  0
  189.9330  174.5610  143.8060 C   0  0  1  0  0  3  0  0  0  0  0  0
  188.2820  176.0930  145.9790 C   0  0  0  0  0  0  0  0  0  0  0  0
  186.8090  177.2700  142.7560 C   0  0  0  0  0  3  0  0  0  0  0  0
  187.4400  176.4320  141.8330 C   0  0  0  0  0  3  0  0  0  0  0  0
  191.6990  174.7350  145.3850 C   0  0  0  0  0  2  0  0  0  0  0  0
  190.0380  172.5850  142.4200 O   0  0  0  0  0  1  0  0  0  0  0  0
  189.1770  174.6150  141.4350 C   0  0  0  0  0  2  0  0  0  0  0  0
  190.1700  173.9740  142.4060 C   0  0  1  0  0  0  0  0  0  0  0  0
  192.1420  174.0550  141.0780 O   0  0  0  0  0  0  0  0  0  0  0  0
  188.4040  175.5400  142.2880 C   0  0  0  0  0  0  0  0  0  0  0  0
  191.1230  175.3500  144.1960 N   0  0  1  0  0  0  0  0  0  0  0  0
  191.5480  174.3760  142.0960 C   0  0  0  0  0  0  0  0  0  0  0  0
  190.1500  175.1850  147.4010 C   0  0  0  0  0  2  0  0  0  0  0  0
  187.6600  176.9700  146.8720 C   0  0  0  0  0  3  0  0  0  0  0  0
  192.1350  175.2220  143.1470 C   0  0  0  0  0  2  0  0  0  0  0  0
  191.3530  175.5420  146.5950 C   0  0  0  0  0  0  0  0  0  0  0  0
  192.0440  176.4940  146.9160 O   0  0  0  0  0  0  0  0  0  0  0  0
  187.1140  177.1920  144.1300 C   0  0  0  0  0  0  0  0  0  0  0  0
  186.7860  177.9520  146.4120 C   0  0  0  0  0  3  0  0  0  0  0  0
  189.0260  174.9930  146.5020 N   0  0  0  0  0  2  0  0  0  0  0  0
  188.7500  175.4610  143.6180 C   0  0  0  0  0  0  0  0  0  0  0  0
  186.4920  178.0590  145.0530 C   0  0  0  0  0  0  0  0  0  0  0  0
  185.5550  179.0720  144.6350 C   0  0  0  0  0  0  0  0  0  0  0  0
  184.8010  179.8850  144.2990 N   0  0  0  0  0  0  0  0  0  0  0  0
  1  3  2  0  0  0  0
  2 22  1  6  0  0  0
  2 12  1  0  0  0  0
  3 21  1  0  0  0  0
  3 15  1  0  0  0  0
  4 19  1  0  0  0  0
  5 11  1  0  0  0  0
  5  4  2  0  0  0  0
  6 17  1  0  0  0  0
  8 11  1  0  0  0  0
  8  9  1  0  0  0  0
  9  7  1  1  0  0  0
  9  2  1  0  0  0  0
 10 13  2  0  0  0  0
 11 22  2  0  0  0  0
 12 16  1  6  0  0  0
 12  6  1  0  0  0  0
 13  9  1  0  0  0  0
 13 16  1  0  0  0  0
 17 18  2  0  0  0  0
 17 14  1  0  0  0  0
 19  1  1  0  0  0  0
 19 23  2  0  0  0  0
 20 15  2  0  0  0  0
 21 14  1  0  0  0  0
 22  1  1  0  0  0  0
 23 20  1  0  0  0  0
 24 23  1  0  0  0  0
 25 24  3  0  0  0  0
M  END
>  <MODEL>
4

>  <REMARK>
 VINA RESULT:      -7.4      2.926      6.324
  Name = 
  1 active torsions:
  status: ('A' for Active; 'I' for Inactive)
    1  A    between atoms: C_4  and  C_25
                            x       y       z     vdW  Elec       q    Type
                         _______ _______ _______ _____ _____    ______ ____

>  <TORSDO>
F 1

$$$$
=
 OpenBabel11042417483D

 25 29  0  0  1  0  0  0  0  0999 V2000
  188.2770  176.5740  143.0220 C   0  0  0  0  0  0  0  0  0  0  0  0
  186.9700  177.9810  144.8140 C   0  0  1  0  0  3  0  0  0  0  0  0
  189.4340  176.3390  143.8000 C   0  0  0  0  0  0  0  0  0  0  0  0
  187.0660  176.2510  140.9160 C   0  0  0  0  0  3  0  0  0  0  0  0
  186.0740  177.1400  141.3350 C   0  0  0  0  0  3  0  0  0  0  0  0
  187.5770  177.1060  146.9370 C   0  0  0  0  0  2  0  0  0  0  0  0
  185.9410  180.1650  144.9030 O   0  0  0  0  0  1  0  0  0  0  0  0
  185.1870  178.6260  143.2010 C   0  0  0  0  0  2  0  0  0  0  0  0
  185.6950  178.8190  144.6310 C   0  0  1  0  0  0  0  0  0  0  0  0
  183.6380  178.6660  145.8150 O   0  0  0  0  0  0  0  0  0  0  0  0
  186.1680  177.6980  142.6050 C   0  0  0  0  0  0  0  0  0  0  0  0
  186.6950  176.9080  145.7940 N   0  0  1  0  0  0  0  0  0  0  0  0
  184.7630  178.2390  145.6070 C   0  0  0  0  0  0  0  0  0  0  0  0
  189.9940  176.5120  146.2490 C   0  0  0  0  0  2  0  0  0  0  0  0
  190.3920  175.4180  143.3660 C   0  0  0  0  0  3  0  0  0  0  0  0
  185.3340  177.0760  146.3040 C   0  0  0  0  0  2  0  0  0  0  0  0
  188.7030  176.1240  146.8880 C   0  0  0  0  0  0  0  0  0  0  0  0
  188.5650  175.0070  147.3580 O   0  0  0  0  0  0  0  0  0  0  0  0
  188.1640  175.9470  141.7460 C   0  0  0  0  0  0  0  0  0  0  0  0
  190.2420  174.7590  142.1480 C   0  0  0  0  0  3  0  0  0  0  0  0
  189.7120  177.1220  144.9610 N   0  0  0  0  0  2  0  0  0  0  0  0
  187.2090  177.3970  143.4540 C   0  0  0  0  0  0  0  0  0  0  0  0
  189.1490  175.0280  141.3250 C   0  0  0  0  0  0  0  0  0  0  0  0
  189.0610  174.3420  140.0600 C   0  0  0  0  0  0  0  0  0  0  0  0
  188.9900  173.7910  139.0440 N   0  0  0  0  0  0  0  0  0  0  0  0
  1 22  1  0  0  0  0
  1  3  2  0  0  0  0
  2 22  1  6  0  0  0
  2 12  1  0  0  0  0
  3 21  1  0  0  0  0
  4  5  2  0  0  0  0
  4 19  1  0  0  0  0
  5 11  1  0  0  0  0
  8  9  1  0  0  0  0
  9  2  1  0  0  0  0
  9  7  1  1  0  0  0
  9 13  1  0  0  0  0
 11  8  1  0  0  0  0
 11 22  2  0  0  0  0
 12 16  1  1  0  0  0
 12  6  1  0  0  0  0
 13 10  2  0  0  0  0
 13 16  1  0  0  0  0
 14 17  1  0  0  0  0
 15  3  1  0  0  0  0
 17  6  1  0  0  0  0
 17 18  2  0  0  0  0
 19  1  1  0  0  0  0
 20 15  2  0  0  0  0
 21 14  1  0  0  0  0
 23 19  2  0  0  0  0
 23 20  1  0  0  0  0
 24 23  1  0  0  0  0
 25 24  3  0  0  0  0
M  END
>  <MODEL>
5

>  <REMARK>
 VINA RESULT:      -7.2      2.051      4.464
  Name = 
  1 active torsions:
  status: ('A' for Active; 'I' for Inactive)
    1  A    between atoms: C_4  and  C_25
                            x       y       z     vdW  Elec       q    Type
                         _______ _______ _______ _____ _____    ______ ____

>  <TORSDO>
F 1

$$$$
=
 OpenBabel11042417483D

 25 29  0  0  1  0  0  0  0  0999 V2000
  189.1960  176.3580  144.6640 C   0  0  0  0  0  0  0  0  0  0  0  0
  191.3950  175.0560  144.0540 C   0  0  1  0  0  3  0  0  0  0  0  0
  188.5320  176.1570  143.4320 C   0  0  0  0  0  0  0  0  0  0  0  0
  189.1780  177.2990  146.9270 C   0  0  0  0  0  3  0  0  0  0  0  0
  190.5200  176.9530  147.0950 C   0  0  0  0  0  3  0  0  0  0  0  0
  190.7540  173.2820  142.6110 C   0  0  0  0  0  2  0  0  0  0  0  0
  193.7600  175.5480  144.0250 O   0  0  0  0  0  1  0  0  0  0  0  0
  192.5740  175.8150  146.1120 C   0  0  0  0  0  2  0  0  0  0  0  0
  192.7320  175.0260  144.8100 C   0  0  1  0  0  0  0  0  0  0  0  0
  193.9320  173.1400  145.6250 O   0  0  0  0  0  0  0  0  0  0  0  0
  191.1710  176.2740  146.0710 C   0  0  0  0  0  0  0  0  0  0  0  0
  190.8450  173.6840  144.0090 N   0  0  1  0  0  0  0  0  0  0  0  0
  192.9390  173.5970  145.0800 C   0  0  0  0  0  0  0  0  0  0  0  0
  188.8400  174.5970  141.4800 C   0  0  0  0  0  2  0  0  0  0  0  0
  187.1790  176.4850  143.3080 C   0  0  0  0  0  3  0  0  0  0  0  0
  191.8080  172.7720  144.6260 C   0  0  0  0  0  2  0  0  0  0  0  0
  189.3330  173.3590  142.1500 C   0  0  0  0  0  0  0  0  0  0  0  0
  188.5780  172.4190  142.3310 O   0  0  0  0  0  0  0  0  0  0  0  0
  188.4980  177.0010  145.7290 C   0  0  0  0  0  0  0  0  0  0  0  0
  186.4850  177.0520  144.3740 C   0  0  0  0  0  3  0  0  0  0  0  0
  189.2490  175.7480  142.2670 N   0  0  0  0  0  2  0  0  0  0  0  0
  190.5280  175.9380  144.9010 C   0  0  0  0  0  0  0  0  0  0  0  0
  187.1350  177.3310  145.5760 C   0  0  0  0  0  0  0  0  0  0  0  0
  186.3770  177.9490  146.6360 C   0  0  0  0  0  0  0  0  0  0  0  0
  185.7680  178.4450  147.4860 N   0  0  0  0  0  0  0  0  0  0  0  0
  1 22  2  0  0  0  0
  1 19  1  0  0  0  0
  2  9  1  0  0  0  0
  2 22  1  1  0  0  0
  3  1  1  0  0  0  0
  4  5  1  0  0  0  0
  9  7  1  6  0  0  0
  9 13  1  0  0  0  0
  9  8  1  0  0  0  0
 11  8  1  0  0  0  0
 11  5  2  0  0  0  0
 12  6  1  6  0  0  0
 12  2  1  0  0  0  0
 12 16  1  0  0  0  0
 13 10  2  0  0  0  0
 14 17  1  0  0  0  0
 14 21  1  0  0  0  0
 15  3  2  0  0  0  0
 15 20  1  0  0  0  0
 16 13  1  0  0  0  0
 17 18  2  0  0  0  0
 17  6  1  0  0  0  0
 19  4  2  0  0  0  0
 20 23  2  0  0  0  0
 21  3  1  0  0  0  0
 22 11  1  0  0  0  0
 23 19  1  0  0  0  0
 23 24  1  0  0  0  0
 24 25  3  0  0  0  0
M  END
>  <MODEL>
6

>  <REMARK>
 VINA RESULT:      -7.1      3.185      5.734
  Name = 
  1 active torsions:
  status: ('A' for Active; 'I' for Inactive)
    1  A    between atoms: C_4  and  C_25
                            x       y       z     vdW  Elec       q    Type
                         _______ _______ _______ _____ _____    ______ ____

>  <TORSDO>
F 1

$$$$
=
 OpenBabel11042417483D

 25 29  0  0  1  0  0  0  0  0999 V2000
  186.3190  177.0510  144.4320 C   0  0  0  0  0  0  0  0  0  0  0  0
  188.1240  176.2390  146.1590 C   0  0  1  0  0  3  0  0  0  0  0  0
  185.3750  177.5150  145.3780 C   0  0  0  0  0  0  0  0  0  0  0  0
  186.9460  176.7180  142.0860 C   0  0  0  0  0  3  0  0  0  0  0  0
  188.0720  175.9900  142.4780 C   0  0  0  0  0  3  0  0  0  0  0  0
  187.9990  177.7150  148.0150 C   0  0  0  0  0  2  0  0  0  0  0  0
  189.2970  174.1770  146.6150 O   0  0  0  0  0  1  0  0  0  0  0  0
  189.4970  175.1280  144.4040 C   0  0  0  0  0  2  0  0  0  0  0  0
  189.3720  175.3770  145.9080 C   0  0  1  0  0  0  0  0  0  0  0  0
  191.6410  175.8670  146.4260 O   0  0  0  0  0  0  0  0  0  0  0  0
  188.3350  175.8400  143.8350 C   0  0  0  0  0  0  0  0  0  0  0  0
  188.5550  177.5560  146.6780 N   0  0  1  0  0  0  0  0  0  0  0  0
  190.4710  176.2180  146.3980 C   0  0  0  0  0  0  0  0  0  0  0  0
  185.4500  178.0900  147.8270 C   0  0  0  0  0  2  0  0  0  0  0  0
  184.2770  178.2690  144.9550 C   0  0  0  0  0  3  0  0  0  0  0  0
  190.0080  177.5410  146.8470 C   0  0  0  0  0  2  0  0  0  0  0  0
  186.8270  178.6440  147.9720 C   0  0  0  0  0  0  0  0  0  0  0  0
  186.9970  179.8500  148.0440 O   0  0  0  0  0  0  0  0  0  0  0  0
  186.0680  177.2640  143.0450 C   0  0  0  0  0  0  0  0  0  0  0  0
  184.0740  178.5300  143.6010 C   0  0  0  0  0  3  0  0  0  0  0  0
  185.4490  177.1190  146.7470 N   0  0  0  0  0  2  0  0  0  0  0  0
  187.5160  176.3890  144.7970 C   0  0  0  0  0  0  0  0  0  0  0  0
  184.9470  178.0190  142.6410 C   0  0  0  0  0  0  0  0  0  0  0  0
  184.6710  178.2930  141.2520 C   0  0  0  0  0  0  0  0  0  0  0  0
  184.4510  178.5120  140.1370 N   0  0  0  0  0  0  0  0  0  0  0  0
  1 22  1  0  0  0  0
  1  3  2  0  0  0  0
  2 22  1  6  0  0  0
  2 12  1  0  0  0  0
  3 21  1  0  0  0  0
  4  5  2  0  0  0  0
  4 19  1  0  0  0  0
  5 11  1  0  0  0  0
  8  9  1  0  0  0  0
  9  2  1  0  0  0  0
  9 13  1  0  0  0  0
  9  7  1  1  0  0  0
 11  8  1  0  0  0  0
 11 22  2  0  0  0  0
 12 16  1  1  0  0  0
 12  6  1  0  0  0  0
 13 10  2  0  0  0  0
 13 16  1  0  0  0  0
 14 17  1  0  0  0  0
 15  3  1  0  0  0  0
 17  6  1  0  0  0  0
 17 18  2  0  0  0  0
 19  1  1  0  0  0  0
 20 15  2  0  0  0  0
 21 14  1  0  0  0  0
 23 19  2  0  0  0  0
 23 20  1  0  0  0  0
 24 23  1  0  0  0  0
 25 24  3  0  0  0  0
M  END
>  <MODEL>
7

>  <REMARK>
 VINA RESULT:      -7.0      2.767      6.126
  Name = 
  1 active torsions:
  status: ('A' for Active; 'I' for Inactive)
    1  A    between atoms: C_4  and  C_25
                            x       y       z     vdW  Elec       q    Type
                         _______ _______ _______ _____ _____    ______ ____

>  <TORSDO>
F 1

$$$$
=
 OpenBabel11042417483D

 25 29  0  0  1  0  0  0  0  0999 V2000
  187.1020  177.5400  143.6270 C   0  0  0  0  0  0  0  0  0  0  0  0
  188.8810  176.6660  145.3510 C   0  0  1  0  0  3  0  0  0  0  0  0
  188.0010  177.7780  142.5610 C   0  0  0  0  0  0  0  0  0  0  0  0
  184.8050  177.5760  144.4800 C   0  0  0  0  0  3  0  0  0  0  0  0
  185.2630  177.2570  145.7610 C   0  0  0  0  0  3  0  0  0  0  0  0
  190.5390  175.5230  144.0930 C   0  0  0  0  0  2  0  0  0  0  0  0
  189.5690  177.2480  147.5930 O   0  0  0  0  0  1  0  0  0  0  0  0
  187.2520  176.6650  147.2340 C   0  0  0  0  0  2  0  0  0  0  0  0
  188.7160  176.4230  146.8590 C   0  0  1  0  0  0  0  0  0  0  0  0
  189.1230  174.4300  148.0930 O   0  0  0  0  0  0  0  0  0  0  0  0
  186.6220  177.0380  145.9520 C   0  0  0  0  0  0  0  0  0  0  0  0
  189.2220  175.3830  144.6990 N   0  0  1  0  0  0  0  0  0  0  0  0
  189.0750  175.0080  147.0180 C   0  0  0  0  0  0  0  0  0  0  0  0
  190.3570  177.0680  142.0310 C   0  0  0  0  0  2  0  0  0  0  0  0
  187.5080  178.0620  141.2850 C   0  0  0  0  0  3  0  0  0  0  0  0
  189.3630  174.3550  145.7310 C   0  0  0  0  0  2  0  0  0  0  0  0
  190.4040  175.6960  142.6130 C   0  0  0  0  0  0  0  0  0  0  0  0
  190.3200  174.7200  141.8870 O   0  0  0  0  0  0  0  0  0  0  0  0
  185.7040  177.7090  143.4030 C   0  0  0  0  0  0  0  0  0  0  0  0
  186.1370  178.1600  141.0580 C   0  0  0  0  0  3  0  0  0  0  0  0
  189.4070  177.8640  142.7890 N   0  0  0  0  0  2  0  0  0  0  0  0
  187.5230  177.1280  144.9150 C   0  0  0  0  0  0  0  0  0  0  0  0
  185.2320  178.0060  142.1070 C   0  0  0  0  0  0  0  0  0  0  0  0
  183.8250  178.1500  141.8230 C   0  0  0  0  0  0  0  0  0  0  0  0
  182.6960  178.2650  141.5940 N   0  0  0  0  0  0  0  0  0  0  0  0
  1 22  1  0  0  0  0
  2 22  1  6  0  0  0
  2  9  1  0  0  0  0
  3 21  1  0  0  0  0
  3  1  1  0  0  0  0
  4  5  2  0  0  0  0
  5 11  1  0  0  0  0
  9 13  1  0  0  0  0
  9  8  1  0  0  0  0
  9  7  1  1  0  0  0
 11  8  1  0  0  0  0
 12  6  1  1  0  0  0
 12  2  1  0  0  0  0
 12 16  1  0  0  0  0
 13 10  2  0  0  0  0
 14 17  1  0  0  0  0
 14 21  1  0  0  0  0
 15  3  2  0  0  0  0
 16 13  1  0  0  0  0
 17  6  1  0  0  0  0
 18 17  2  0  0  0  0
 19  1  2  0  0  0  0
 19  4  1  0  0  0  0
 20 15  1  0  0  0  0
 20 23  2  0  0  0  0
 22 11  2  0  0  0  0
 23 19  1  0  0  0  0
 24 23  1  0  0  0  0
 25 24  3  0  0  0  0
M  END
>  <MODEL>
8

>  <REMARK>
 VINA RESULT:      -7.0      2.496      5.328
  Name = 
  1 active torsions:
  status: ('A' for Active; 'I' for Inactive)
    1  A    between atoms: C_4  and  C_25
                            x       y       z     vdW  Elec       q    Type
                         _______ _______ _______ _____ _____    ______ ____

>  <TORSDO>
F 1

$$$$
=
 OpenBabel11042417483D

 25 29  0  0  1  0  0  0  0  0999 V2000
  187.4860  177.1730  143.7800 C   0  0  0  0  0  0  0  0  0  0  0  0
  189.6480  176.1720  144.8870 C   0  0  1  0  0  3  0  0  0  0  0  0
  187.7340  176.7050  142.4680 C   0  0  0  0  0  0  0  0  0  0  0  0
  186.0330  178.3930  145.3300 C   0  0  0  0  0  3  0  0  0  0  0  0
  186.9990  178.2930  146.3340 C   0  0  0  0  0  3  0  0  0  0  0  0
  190.1140  174.1400  143.7480 C   0  0  0  0  0  2  0  0  0  0  0  0
  191.5010  177.0280  146.1780 O   0  0  0  0  0  1  0  0  0  0  0  0
  189.2690  177.3780  147.0320 C   0  0  0  0  0  2  0  0  0  0  0  0
  190.2330  176.4580  146.2790 C   0  0  1  0  0  0  0  0  0  0  0  0
  190.7550  174.9160  148.0130 O   0  0  0  0  0  0  0  0  0  0  0  0
  188.1720  177.5960  146.0680 C   0  0  0  0  0  0  0  0  0  0  0  0
  189.3050  174.7350  144.8030 N   0  0  1  0  0  0  0  0  0  0  0  0
  190.2920  175.1300  146.9030 C   0  0  0  0  0  0  0  0  0  0  0  0
  189.2500  174.9680  141.4580 C   0  0  0  0  0  2  0  0  0  0  0  0
  186.7340  176.7910  141.4960 C   0  0  0  0  0  3  0  0  0  0  0  0
  189.7210  174.0810  146.0440 C   0  0  0  0  0  2  0  0  0  0  0  0
  189.2790  173.9260  142.5250 C   0  0  0  0  0  0  0  0  0  0  0  0
  188.6160  172.9090  142.4060 O   0  0  0  0  0  0  0  0  0  0  0  0
  186.2520  177.8320  144.0560 C   0  0  0  0  0  0  0  0  0  0  0  0
  185.5050  177.3770  141.7920 C   0  0  0  0  0  3  0  0  0  0  0  0
  189.0340  176.2640  142.0780 N   0  0  0  0  0  2  0  0  0  0  0  0
  188.4040  177.0080  144.8450 C   0  0  0  0  0  0  0  0  0  0  0  0
  185.2610  177.9150  143.0550 C   0  0  0  0  0  0  0  0  0  0  0  0
  183.9840  178.5400  143.2970 C   0  0  0  0  0  0  0  0  0  0  0  0
  182.9580  179.0410  143.4910 N   0  0  0  0  0  0  0  0  0  0  0  0
  1 19  2  0  0  0  0
  1 22  1  0  0  0  0
  2 22  1  1  0  0  0
  2  9  1  0  0  0  0
  3  1  1  0  0  0  0
  4  5  2  0  0  0  0
  9  7  1  6  0  0  0
  9 13  1  0  0  0  0
  9  8  1  0  0  0  0
 11  5  1  0  0  0  0
 11  8  1  0  0  0  0
 12  6  1  6  0  0  0
 12  2  1  0  0  0  0
 12 16  1  0  0  0  0
 13 10  2  0  0  0  0
 14 21  1  0  0  0  0
 14 17  1  0  0  0  0
 15 20  1  0  0  0  0
 15  3  2  0  0  0  0
 16 13  1  0  0  0  0
 17  6  1  0  0  0  0
 18 17  2  0  0  0  0
 19  4  1  0  0  0  0
 20 23  2  0  0  0  0
 21  3  1  0  0  0  0
 22 11  2  0  0  0  0
 23 24  1  0  0  0  0
 23 19  1  0  0  0  0
 24 25  3  0  0  0  0
M  END
>  <MODEL>
9

>  <REMARK>
 VINA RESULT:      -6.9      2.825      5.331
  Name = 
  1 active torsions:
  status: ('A' for Active; 'I' for Inactive)
    1  A    between atoms: C_4  and  C_25
                            x       y       z     vdW  Elec       q    Type
                         _______ _______ _______ _____ _____    ______ ____

>  <TORSDO>
F 1

$$$$
