=
 OpenBabel11042419163D

 43 49  0  0  1  0  0  0  0  0999 V2000
  186.7010  176.0000  142.7270 C   0  0  0  0  0  2  0  0  0  0  0  0
  188.0210  173.9270  142.0080 C   0  0  1  0  0  3  0  0  0  0  0  0
  193.2750  175.2100  145.1670 C   0  0  0  0  0  0  0  0  0  0  0  0
  195.5190  174.3960  145.7630 C   0  0  0  0  0  2  0  0  0  0  0  0
  189.7440  173.9750  140.0200 C   0  0  0  0  0  2  0  0  0  0  0  0
  194.2240  175.0180  146.0440 N   0  0  0  0  0  0  0  0  0  0  0  0
  196.4820  176.8610  142.8830 C   0  0  0  0  0  1  0  0  0  0  0  0
  194.6330  175.0760  143.0920 C   0  0  0  0  0  0  0  0  0  0  0  0
  194.9740  174.4340  141.7500 C   0  0  1  0  0  3  0  0  0  0  0  0
  189.8510  174.8200  144.9420 C   0  0  2  0  0  0  0  0  0  0  0  0
  187.8880  175.4400  142.0400 C   0  0  2  0  0  0  0  0  0  0  0  0
  190.1950  173.6940  145.6950 O   0  0  0  0  0  1  0  0  0  0  0  0
  189.7610  171.5690  139.6410 C   0  0  1  0  0  3  0  0  0  0  0  0
  192.9280  173.0790  141.1660 C   0  0  1  0  0  3  0  0  0  0  0  0
  196.3630  174.3780  141.5680 O   0  0  0  0  0  1  0  0  0  0  0  0
  192.2200  171.8460  141.4960 N   0  0  0  0  0  2  0  0  0  0  0  0
  190.8280  175.9980  144.8570 C   0  0  2  0  0  3  0  0  0  0  0  0
  190.3160  172.8920  139.1200 C   0  0  0  0  0  2  0  0  0  0  0  0
  188.5300  173.3430  140.6760 C   0  0  1  0  0  3  0  0  0  0  0  0
  192.2190  171.0210  140.2960 C   0  0  1  0  0  3  0  0  0  0  0  0
  196.4150  175.2910  144.9060 C   0  0  2  0  0  3  0  0  0  0  0  0
  192.0340  175.7470  145.6420 N   0  0  0  0  0  2  0  0  0  0  0  0
  193.1370  169.8350  140.5030 C   0  0  0  0  0  1  0  0  0  0  0  0
  192.2180  174.2290  141.7210 N   0  0  0  0  0  2  0  0  0  0  0  0
  189.6770  176.0320  145.8370 C   0  0  0  0  0  2  0  0  0  0  0  0
  190.8130  170.5030  139.9830 C   0  0  0  0  0  2  0  0  0  0  0  0
  189.0310  174.7770  142.8020 C   0  0  1  0  0  3  0  0  0  0  0  0
  188.2140  176.1560  140.8880 O   0  0  0  0  0  0  0  0  0  0  0  0
  188.8970  171.8870  140.8430 C   0  0  0  0  0  2  0  0  0  0  0  0
  187.6170  177.3380  141.0430 O   0  0  0  0  0  0  0  0  0  0  0  0
  195.1230  172.2550  140.7140 O   0  0  0  0  0  1  0  0  0  0  0  0
  195.6310  175.9780  143.7880 C   0  0  1  0  0  3  0  0  0  0  0  0
  188.6900  174.7050  144.1620 O   0  0  0  0  0  0  0  0  0  0  0  0
  192.3640  174.2310  143.0940 O   0  0  0  0  0  0  0  0  0  0  0  0
  186.4140  177.1030  141.7490 C   0  0  2  0  0  3  0  0  0  0  0  0
  197.4420  174.5290  144.3810 F   0  0  0  0  0  0  0  0  0  0  0  0
  194.3870  173.0200  141.6290 C   0  0  1  0  0  3  0  0  0  0  0  0
  193.4530  174.8430  143.7310 C   0  0  0  0  0  0  0  0  0  0  0  0
  184.6430  178.6660  142.1040 O   0  0  0  0  0  1  0  0  0  0  0  0
  185.9660  178.3810  142.4550 C   0  0  1  0  0  3  0  0  0  0  0  0
  185.8630  179.2760  144.7540 C   0  0  0  0  0  3  0  0  0  0  0  0
  186.0570  178.2430  143.9410 C   0  0  0  0  0  3  0  0  0  0  0  0
  185.5660  180.5410  144.2630 O   0  0  0  0  0  1  0  0  0  0  0  0
  2 11  1  0  0  0  0
  2 27  1  0  0  0  0
  3 22  1  0  0  0  0
  3  6  2  0  0  0  0
  4  6  1  0  0  0  0
  5 19  1  0  0  0  0
  7 32  1  0  0  0  0
  8 38  2  0  0  0  0
  8 32  1  0  0  0  0
  9  8  1  0  0  0  0
 10 12  1  0  0  0  0
 10 25  1  0  0  0  0
 11  1  1  0  0  0  0
 11 27  1  0  0  0  0
 13 26  1  0  0  0  0
 13 29  1  0  0  0  0
 14 16  1  0  0  0  0
 14 37  1  0  0  0  0
 14 24  1  0  0  0  0
 15  9  1  0  0  0  0
 17 10  1  0  0  0  0
 17 22  1  0  0  0  0
 17 25  1  0  0  0  0
 18 13  1  0  0  0  0
 18  5  1  0  0  0  0
 19 29  1  0  0  0  0
 19  2  1  0  0  0  0
 20 23  1  0  0  0  0
 20 16  1  0  0  0  0
 21  4  1  0  0  0  0
 24 34  1  0  0  0  0
 26 20  1  0  0  0  0
 27 33  1  0  0  0  0
 28 30  1  0  0  0  0
 28 11  1  0  0  0  0
 30 35  1  0  0  0  0
 31 37  1  0  0  0  0
 32 21  1  0  0  0  0
 33 10  1  0  0  0  0
 34 38  1  0  0  0  0
 35 40  1  0  0  0  0
 35  1  1  0  0  0  0
 36 21  1  0  0  0  0
 37  9  1  0  0  0  0
 38  3  1  0  0  0  0
 39 40  1  0  0  0  0
 40 42  1  0  0  0  0
 42 41  2  0  0  0  0
 43 41  1  0  0  0  0
M  END
>  <MODEL>
1

>  <REMARK>
 VINA RESULT:      -8.4      0.000      0.000
  Name = 
  2 active torsions:
  status: ('A' for Active; 'I' for Inactive)
    1  A    between atoms: C_10  and  C_24
    2  A    between atoms: C_10  and  C_40
                            x       y       z     vdW  Elec       q    Type
                         _______ _______ _______ _____ _____    ______ ____

>  <TORSDO>
F 2

$$$$
=
 OpenBabel11042419163D

 43 49  0  0  1  0  0  0  0  0999 V2000
  188.4800  177.1590  145.0610 C   0  0  0  0  0  2  0  0  0  0  0  0
  190.9990  177.1140  144.6050 C   0  0  1  0  0  3  0  0  0  0  0  0
  191.2820  171.2830  142.3360 C   0  0  0  0  0  0  0  0  0  0  0  0
  192.7470  169.5750  141.3390 C   0  0  0  0  0  2  0  0  0  0  0  0
  192.7170  176.0540  146.2940 C   0  0  0  0  0  2  0  0  0  0  0  0
  191.5100  170.3510  141.4490 N   0  0  0  0  0  0  0  0  0  0  0  0
  192.6910  168.2860  145.0310 C   0  0  0  0  0  1  0  0  0  0  0  0
  192.9890  170.6400  144.0210 C   0  0  0  0  0  0  0  0  0  0  0  0
  194.2340  170.9370  144.8510 C   0  0  1  0  0  3  0  0  0  0  0  0
  189.9490  174.4660  142.4500 C   0  0  2  0  0  0  0  0  0  0  0  0
  189.7990  176.5400  145.3370 C   0  0  2  0  0  0  0  0  0  0  0  0
  190.6200  174.5060  141.2240 O   0  0  0  0  0  1  0  0  0  0  0  0
  194.6770  177.2080  145.4200 C   0  0  1  0  0  3  0  0  0  0  0  0
  194.4700  173.4470  144.7470 C   0  0  1  0  0  3  0  0  0  0  0  0
  195.0560  169.8050  144.9340 O   0  0  0  0  0  1  0  0  0  0  0  0
  194.8800  174.5390  143.8700 N   0  0  0  0  0  2  0  0  0  0  0  0
  189.6070  173.1110  143.0790 C   0  0  2  0  0  3  0  0  0  0  0  0
  194.2080  176.2510  146.5130 C   0  0  0  0  0  2  0  0  0  0  0  0
  192.2820  177.2380  145.4500 C   0  0  1  0  0  3  0  0  0  0  0  0
  196.0250  175.1830  144.4980 C   0  0  1  0  0  3  0  0  0  0  0  0
  192.9170  168.5930  142.4980 C   0  0  2  0  0  3  0  0  0  0  0  0
  190.0480  172.0050  142.2340 N   0  0  0  0  0  2  0  0  0  0  0  0
  197.2730  174.8770  143.6960 C   0  0  0  0  0  1  0  0  0  0  0  0
  193.0140  173.4170  144.8650 N   0  0  0  0  0  2  0  0  0  0  0  0
  188.5660  173.8690  142.2860 C   0  0  0  0  0  2  0  0  0  0  0  0
  195.8420  176.7010  144.5560 C   0  0  0  0  0  2  0  0  0  0  0  0
  190.5230  175.6790  144.3080 C   0  0  1  0  0  3  0  0  0  0  0  0
  189.9450  176.1970  146.6810 O   0  0  0  0  0  0  0  0  0  0  0  0
  193.4700  177.5390  144.5660 C   0  0  0  0  0  2  0  0  0  0  0  0
  188.7010  176.1460  147.1560 O   0  0  0  0  0  0  0  0  0  0  0  0
  196.3860  172.0250  144.6550 O   0  0  0  0  0  1  0  0  0  0  0  0
  192.5120  169.2140  143.8350 C   0  0  1  0  0  3  0  0  0  0  0  0
  189.7990  175.6980  143.1060 O   0  0  0  0  0  0  0  0  0  0  0  0
  192.4740  172.9800  143.6720 O   0  0  0  0  0  0  0  0  0  0  0  0
  187.9560  177.1310  146.4680 C   0  0  2  0  0  3  0  0  0  0  0  0
  194.2310  168.1670  142.5380 F   0  0  0  0  0  0  0  0  0  0  0  0
  195.0410  172.1090  144.2690 C   0  0  1  0  0  3  0  0  0  0  0  0
  192.2830  171.6190  143.3900 C   0  0  0  0  0  0  0  0  0  0  0  0
  186.1370  176.3210  147.7870 O   0  0  0  0  0  1  0  0  0  0  0  0
  186.4690  176.7830  146.5100 C   0  0  1  0  0  3  0  0  0  0  0  0
  185.0400  178.1150  145.0000 C   0  0  0  0  0  3  0  0  0  0  0  0
  185.6220  177.9720  146.1860 C   0  0  0  0  0  3  0  0  0  0  0  0
  185.1910  177.1660  143.9980 O   0  0  0  0  0  1  0  0  0  0  0  0
  1 11  1  0  0  0  0
  1 35  1  0  0  0  0
  2 11  1  0  0  0  0
  2 19  1  0  0  0  0
  3 38  1  0  0  0  0
  4  6  1  0  0  0  0
  4 21  1  0  0  0  0
  5 18  1  0  0  0  0
  6  3  2  0  0  0  0
  8  9  1  0  0  0  0
  9 15  1  0  0  0  0
 10 17  1  0  0  0  0
 10 33  1  0  0  0  0
 11 28  1  0  0  0  0
 12 10  1  0  0  0  0
 13 18  1  0  0  0  0
 14 24  1  0  0  0  0
 16 20  1  0  0  0  0
 16 14  1  0  0  0  0
 19  5  1  0  0  0  0
 20 26  1  0  0  0  0
 21 36  1  0  0  0  0
 21 32  1  0  0  0  0
 22  3  1  0  0  0  0
 22 17  1  0  0  0  0
 23 20  1  0  0  0  0
 25 10  1  0  0  0  0
 25 17  1  0  0  0  0
 26 13  1  0  0  0  0
 27  2  1  0  0  0  0
 27 11  1  0  0  0  0
 28 30  1  0  0  0  0
 29 13  1  0  0  0  0
 29 19  1  0  0  0  0
 32  8  1  0  0  0  0
 32  7  1  0  0  0  0
 33 27  1  0  0  0  0
 34 24  1  0  0  0  0
 35 40  1  0  0  0  0
 35 30  1  0  0  0  0
 37 31  1  0  0  0  0
 37 14  1  0  0  0  0
 37  9  1  0  0  0  0
 38 34  1  0  0  0  0
 38  8  2  0  0  0  0
 40 39  1  0  0  0  0
 41 42  2  0  0  0  0
 42 40  1  0  0  0  0
 43 41  1  0  0  0  0
M  END
>  <MODEL>
2

>  <REMARK>
 VINA RESULT:      -8.3      2.713      5.736
  Name = 
  2 active torsions:
  status: ('A' for Active; 'I' for Inactive)
    1  A    between atoms: C_10  and  C_24
    2  A    between atoms: C_10  and  C_40
                            x       y       z     vdW  Elec       q    Type
                         _______ _______ _______ _____ _____    ______ ____

>  <TORSDO>
F 2

$$$$
=
 OpenBabel11042419163D

 43 49  0  0  1  0  0  0  0  0999 V2000
  195.9170  170.2890  143.7200 C   0  0  0  0  0  2  0  0  0  0  0  0
  194.4710  170.9860  141.7260 C   0  0  1  0  0  3  0  0  0  0  0  0
  192.1930  176.2620  144.2150 C   0  0  0  0  0  0  0  0  0  0  0  0
  190.7890  178.2410  143.8090 C   0  0  0  0  0  2  0  0  0  0  0  0
  191.8930  170.4670  141.6050 C   0  0  0  0  0  2  0  0  0  0  0  0
  191.9760  177.5470  144.3100 N   0  0  0  0  0  0  0  0  0  0  0  0
  188.2280  176.0390  145.7820 C   0  0  0  0  0  1  0  0  0  0  0  0
  189.8570  175.5000  143.8570 C   0  0  0  0  0  0  0  0  0  0  0  0
  188.7830  174.8130  143.0190 C   0  0  1  0  0  3  0  0  0  0  0  0
  194.7830  174.1380  143.3760 C   0  0  2  0  0  0  0  0  0  0  0  0
  194.5670  170.5920  143.1890 C   0  0  2  0  0  0  0  0  0  0  0  0
  194.9890  175.1770  142.4630 O   0  0  0  0  0  1  0  0  0  0  0  0
  191.6950  170.7260  139.1910 C   0  0  1  0  0  3  0  0  0  0  0  0
  190.0790  173.4490  141.3380 C   0  0  1  0  0  3  0  0  0  0  0  0
  187.5710  175.5120  143.0990 O   0  0  0  0  0  1  0  0  0  0  0  0
  190.8640  173.5590  140.1130 N   0  0  0  0  0  2  0  0  0  0  0  0
  193.9330  174.3900  144.6260 C   0  0  2  0  0  3  0  0  0  0  0  0
  190.9130  170.3570  140.4490 C   0  0  0  0  0  2  0  0  0  0  0  0
  193.2680  170.3930  140.9660 C   0  0  1  0  0  3  0  0  0  0  0  0
  190.1520  172.8170  139.0820 C   0  0  1  0  0  3  0  0  0  0  0  0
  189.5400  177.9120  144.6270 C   0  0  2  0  0  3  0  0  0  0  0  0
  193.4570  175.7690  144.6770 N   0  0  0  0  0  2  0  0  0  0  0  0
  189.5710  173.7910  138.0770 C   0  0  0  0  0  1  0  0  0  0  0  0
  190.9580  173.1960  142.4770 N   0  0  0  0  0  2  0  0  0  0  0  0
  195.4420  174.4520  144.7040 C   0  0  0  0  0  2  0  0  0  0  0  0
  191.0880  171.8560  138.3460 C   0  0  0  0  0  2  0  0  0  0  0  0
  194.1360  172.0090  142.8270 C   0  0  1  0  0  3  0  0  0  0  0  0
  193.5960  169.7360  143.7080 O   0  0  0  0  0  0  0  0  0  0  0  0
  193.1060  171.0670  139.6240 C   0  0  0  0  0  2  0  0  0  0  0  0
  194.1410  169.2350  144.8170 O   0  0  0  0  0  0  0  0  0  0  0  0
  188.0760  174.5920  140.7170 O   0  0  0  0  0  1  0  0  0  0  0  0
  189.4700  176.4290  144.9900 C   0  0  1  0  0  3  0  0  0  0  0  0
  195.2330  172.8710  142.9740 O   0  0  0  0  0  0  0  0  0  0  0  0
  191.6760  174.3420  142.7570 O   0  0  0  0  0  0  0  0  0  0  0  0
  195.5300  169.1150  144.5740 C   0  0  2  0  0  3  0  0  0  0  0  0
  188.4200  178.2910  143.9110 F   0  0  0  0  0  0  0  0  0  0  0  0
  189.2020  174.6880  141.5460 C   0  0  1  0  0  3  0  0  0  0  0  0
  191.1870  175.3440  143.6070 C   0  0  0  0  0  0  0  0  0  0  0  0
  196.7930  170.3850  146.1540 O   0  0  0  0  0  1  0  0  0  0  0  0
  196.2900  169.1060  145.8990 C   0  0  1  0  0  3  0  0  0  0  0  0
  195.8990  168.2630  148.1870 C   0  0  0  0  0  3  0  0  0  0  0  0
  195.4040  168.6970  147.0320 C   0  0  0  0  0  3  0  0  0  0  0  0
  197.2670  168.1660  148.4000 O   0  0  0  0  0  1  0  0  0  0  0  0
  1 35  1  0  0  0  0
  2 27  1  0  0  0  0
  2 11  1  0  0  0  0
  3  6  2  0  0  0  0
  3 22  1  0  0  0  0
  4  6  1  0  0  0  0
  4 21  1  0  0  0  0
  8 32  1  0  0  0  0
  9 15  1  0  0  0  0
  9  8  1  0  0  0  0
 10 17  1  0  0  0  0
 10 25  1  0  0  0  0
 11 28  1  0  0  0  0
 11  1  1  0  0  0  0
 12 10  1  0  0  0  0
 13 29  1  0  0  0  0
 13 18  1  0  0  0  0
 14 37  1  0  0  0  0
 14 24  1  0  0  0  0
 16 14  1  0  0  0  0
 17 22  1  0  0  0  0
 17 25  1  0  0  0  0
 18  5  1  0  0  0  0
 19  5  1  0  0  0  0
 19  2  1  0  0  0  0
 20 16  1  0  0  0  0
 21 32  1  0  0  0  0
 23 20  1  0  0  0  0
 24 34  1  0  0  0  0
 26 20  1  0  0  0  0
 26 13  1  0  0  0  0
 27 33  1  0  0  0  0
 27 11  1  0  0  0  0
 28 30  1  0  0  0  0
 29 19  1  0  0  0  0
 31 37  1  0  0  0  0
 32  7  1  0  0  0  0
 33 10  1  0  0  0  0
 34 38  1  0  0  0  0
 35 30  1  0  0  0  0
 35 40  1  0  0  0  0
 36 21  1  0  0  0  0
 37  9  1  0  0  0  0
 38  8  2  0  0  0  0
 38  3  1  0  0  0  0
 40 39  1  0  0  0  0
 40 42  1  0  0  0  0
 41 43  1  0  0  0  0
 42 41  2  0  0  0  0
M  END
>  <MODEL>
3

>  <REMARK>
 VINA RESULT:      -8.1      3.354      7.875
  Name = 
  2 active torsions:
  status: ('A' for Active; 'I' for Inactive)
    1  A    between atoms: C_10  and  C_24
    2  A    between atoms: C_10  and  C_40
                            x       y       z     vdW  Elec       q    Type
                         _______ _______ _______ _____ _____    ______ ____

>  <TORSDO>
F 2

$$$$
=
 OpenBabel11042419163D

 43 49  0  0  1  0  0  0  0  0999 V2000
  196.3140  173.3680  139.5560 C   0  0  0  0  0  2  0  0  0  0  0  0
  195.6920  173.7010  142.0170 C   0  0  1  0  0  3  0  0  0  0  0  0
  189.4880  174.0200  141.2210 C   0  0  0  0  0  0  0  0  0  0  0  0
  187.3160  174.2150  142.3610 C   0  0  0  0  0  2  0  0  0  0  0  0
  195.2260  176.0800  143.0420 C   0  0  0  0  0  2  0  0  0  0  0  0
  188.2400  173.6620  141.3680 N   0  0  0  0  0  0  0  0  0  0  0  0
  187.7900  177.9370  141.2580 C   0  0  0  0  0  1  0  0  0  0  0  0
  189.3920  176.2330  142.3440 C   0  0  0  0  0  0  0  0  0  0  0  0
  189.8280  177.2030  143.4380 C   0  0  1  0  0  3  0  0  0  0  0  0
  192.5640  172.5220  140.7590 C   0  0  2  0  0  0  0  0  0  0  0  0
  195.6850  174.2220  140.5910 C   0  0  2  0  0  0  0  0  0  0  0  0
  191.9630  171.6200  141.6420 O   0  0  0  0  0  1  0  0  0  0  0  0
  195.5710  175.4280  145.3640 C   0  0  1  0  0  3  0  0  0  0  0  0
  191.9730  176.2180  144.3280 C   0  0  1  0  0  3  0  0  0  0  0  0
  188.7340  177.9440  143.9070 O   0  0  0  0  0  1  0  0  0  0  0  0
  192.4960  175.1460  145.1690 N   0  0  0  0  0  2  0  0  0  0  0  0
  191.6890  173.4960  139.9630 C   0  0  2  0  0  3  0  0  0  0  0  0
  195.2700  176.6220  144.4610 C   0  0  0  0  0  2  0  0  0  0  0  0
  195.9750  174.7610  143.1000 C   0  0  1  0  0  3  0  0  0  0  0  0
  193.1670  175.7770  146.2970 C   0  0  1  0  0  3  0  0  0  0  0  0
  186.9240  175.6580  142.0430 C   0  0  2  0  0  3  0  0  0  0  0  0
  190.2730  173.3030  140.2600 N   0  0  0  0  0  2  0  0  0  0  0  0
  192.3560  175.5440  147.5540 C   0  0  0  0  0  1  0  0  0  0  0  0
  192.2200  175.9180  142.9200 N   0  0  0  0  0  2  0  0  0  0  0  0
  192.1740  172.2120  139.3270 C   0  0  0  0  0  2  0  0  0  0  0  0
  194.5670  175.1950  146.5030 C   0  0  0  0  0  2  0  0  0  0  0  0
  194.3630  173.8540  141.2540 C   0  0  1  0  0  3  0  0  0  0  0  0
  195.9450  175.5760  140.3800 O   0  0  0  0  0  0  0  0  0  0  0  0
  195.6760  174.2070  144.4720 C   0  0  0  0  0  2  0  0  0  0  0  0
  196.2950  175.6600  139.0970 O   0  0  0  0  0  0  0  0  0  0  0  0
  190.3790  177.2270  145.7920 O   0  0  0  0  0  1  0  0  0  0  0  0
  188.1180  176.4800  141.5610 C   0  0  1  0  0  3  0  0  0  0  0  0
  193.9660  172.5840  140.8070 O   0  0  0  0  0  0  0  0  0  0  0  0
  191.3940  174.8840  142.5270 O   0  0  0  0  0  0  0  0  0  0  0  0
  196.9830  174.4650  138.7800 C   0  0  2  0  0  3  0  0  0  0  0  0
  186.3630  176.2300  143.1700 F   0  0  0  0  0  0  0  0  0  0  0  0
  190.4900  176.4730  144.6160 C   0  0  1  0  0  3  0  0  0  0  0  0
  190.0930  175.1020  142.0510 C   0  0  0  0  0  0  0  0  0  0  0  0
  196.3530  172.9560  137.0390 O   0  0  0  0  0  1  0  0  0  0  0  0
  196.9190  174.2120  137.2740 C   0  0  1  0  0  3  0  0  0  0  0  0
  196.6110  176.0410  135.6440 C   0  0  0  0  0  3  0  0  0  0  0  0
  196.0970  175.2530  136.5820 C   0  0  0  0  0  3  0  0  0  0  0  0
  197.9410  175.9400  135.2590 O   0  0  0  0  0  1  0  0  0  0  0  0
  1 11  1  0  0  0  0
  2 19  1  0  0  0  0
  3  6  2  0  0  0  0
  3 38  1  0  0  0  0
  5 19  1  0  0  0  0
  5 18  1  0  0  0  0
  6  4  1  0  0  0  0
  7 32  1  0  0  0  0
  8  9  1  0  0  0  0
  9 15  1  0  0  0  0
  9 37  1  0  0  0  0
 10 33  1  0  0  0  0
 10 12  1  0  0  0  0
 11 27  1  0  0  0  0
 11  2  1  0  0  0  0
 13 26  1  0  0  0  0
 14 37  1  0  0  0  0
 14 16  1  0  0  0  0
 16 20  1  0  0  0  0
 17 22  1  0  0  0  0
 17 10  1  0  0  0  0
 18 13  1  0  0  0  0
 19 29  1  0  0  0  0
 20 26  1  0  0  0  0
 20 23  1  0  0  0  0
 21  4  1  0  0  0  0
 21 36  1  0  0  0  0
 22  3  1  0  0  0  0
 24 14  1  0  0  0  0
 25 17  1  0  0  0  0
 25 10  1  0  0  0  0
 27  2  1  0  0  0  0
 28 11  1  0  0  0  0
 29 13  1  0  0  0  0
 30 28  1  0  0  0  0
 32 21  1  0  0  0  0
 32  8  1  0  0  0  0
 33 27  1  0  0  0  0
 34 24  1  0  0  0  0
 35 30  1  0  0  0  0
 35  1  1  0  0  0  0
 37 31  1  0  0  0  0
 38  8  2  0  0  0  0
 38 34  1  0  0  0  0
 39 40  1  0  0  0  0
 40 35  1  0  0  0  0
 41 42  2  0  0  0  0
 42 40  1  0  0  0  0
 43 41  1  0  0  0  0
M  END
>  <MODEL>
4

>  <REMARK>
 VINA RESULT:      -7.9      3.126      8.554
  Name = 
  2 active torsions:
  status: ('A' for Active; 'I' for Inactive)
    1  A    between atoms: C_10  and  C_24
    2  A    between atoms: C_10  and  C_40
                            x       y       z     vdW  Elec       q    Type
                         _______ _______ _______ _____ _____    ______ ____

>  <TORSDO>
F 2

$$$$
=
 OpenBabel11042419163D

 43 49  0  0  1  0  0  0  0  0999 V2000
  186.9590  175.1660  142.9780 C   0  0  0  0  0  2  0  0  0  0  0  0
  188.3470  173.4660  141.6600 C   0  0  1  0  0  3  0  0  0  0  0  0
  193.7530  174.3450  144.6970 C   0  0  0  0  0  0  0  0  0  0  0  0
  196.0890  173.6010  144.9140 C   0  0  0  0  0  2  0  0  0  0  0  0
  189.8890  174.1660  139.6450 C   0  0  0  0  0  2  0  0  0  0  0  0
  194.7840  174.0180  145.4300 N   0  0  0  0  0  0  0  0  0  0  0  0
  196.6410  176.7910  142.7190 C   0  0  0  0  0  1  0  0  0  0  0  0
  194.9370  174.8600  142.5750 C   0  0  0  0  0  0  0  0  0  0  0  0
  195.2050  174.6140  141.0940 C   0  0  1  0  0  3  0  0  0  0  0  0
  190.3560  173.7350  144.6000 C   0  0  2  0  0  0  0  0  0  0  0  0
  188.1190  174.9030  142.0930 C   0  0  2  0  0  0  0  0  0  0  0  0
  190.8360  172.4880  145.0110 O   0  0  0  0  0  1  0  0  0  0  0  0
  190.0320  171.9450  138.6530 C   0  0  1  0  0  3  0  0  0  0  0  0
  193.2100  173.2820  140.3110 C   0  0  1  0  0  3  0  0  0  0  0  0
  196.5740  174.7240  140.8140 O   0  0  0  0  0  1  0  0  0  0  0  0
  192.6160  171.9500  140.3530 N   0  0  0  0  0  2  0  0  0  0  0  0
  191.2430  174.9750  144.7620 C   0  0  2  0  0  3  0  0  0  0  0  0
  190.4520  173.4000  138.4600 C   0  0  0  0  0  2  0  0  0  0  0  0
  188.7790  173.2860  140.1910 C   0  0  1  0  0  3  0  0  0  0  0  0
  192.5670  171.4610  138.9820 C   0  0  1  0  0  3  0  0  0  0  0  0
  196.8480  174.7580  144.2630 C   0  0  2  0  0  3  0  0  0  0  0  0
  192.5240  174.6360  145.3750 N   0  0  0  0  0  2  0  0  0  0  0  0
  193.5750  170.3440  138.8130 C   0  0  0  0  0  1  0  0  0  0  0  0
  192.4760  174.1880  141.1900 N   0  0  0  0  0  2  0  0  0  0  0  0
  190.1790  174.6600  145.7890 C   0  0  0  0  0  2  0  0  0  0  0  0
  191.1770  170.9210  138.6370 C   0  0  0  0  0  2  0  0  0  0  0  0
  189.3620  174.1680  142.5810 C   0  0  1  0  0  3  0  0  0  0  0  0
  188.2970  175.9150  141.1490 O   0  0  0  0  0  0  0  0  0  0  0  0
  189.2530  171.8720  139.9500 C   0  0  0  0  0  2  0  0  0  0  0  0
  187.6400  176.9630  141.6450 O   0  0  0  0  0  0  0  0  0  0  0  0
  195.4090  172.7910  139.5180 O   0  0  0  0  0  1  0  0  0  0  0  0
  195.9290  175.6380  143.4170 C   0  0  1  0  0  3  0  0  0  0  0  0
  189.1430  173.7240  143.8940 O   0  0  0  0  0  0  0  0  0  0  0  0
  192.7370  173.8520  142.5040 O   0  0  0  0  0  0  0  0  0  0  0  0
  186.5180  176.4530  142.3410 C   0  0  2  0  0  3  0  0  0  0  0  0
  197.8750  174.2450  143.4930 F   0  0  0  0  0  0  0  0  0  0  0  0
  194.7040  173.2320  140.6460 C   0  0  1  0  0  3  0  0  0  0  0  0
  193.8330  174.3720  143.2070 C   0  0  0  0  0  0  0  0  0  0  0  0
  187.1190  178.2930  143.7410 O   0  0  0  0  0  1  0  0  0  0  0  0
  186.0490  177.4670  143.3830 C   0  0  1  0  0  3  0  0  0  0  0  0
  184.0280  178.8580  143.6600 C   0  0  0  0  0  3  0  0  0  0  0  0
  184.9350  178.3150  142.8550 C   0  0  0  0  0  3  0  0  0  0  0  0
  184.0660  178.6660  145.0340 O   0  0  0  0  0  1  0  0  0  0  0  0
  2 11  1  0  0  0  0
  2 27  1  0  0  0  0
  3 22  1  0  0  0  0
  3  6  2  0  0  0  0
  4  6  1  0  0  0  0
  5 19  1  0  0  0  0
  7 32  1  0  0  0  0
  8 38  2  0  0  0  0
  8 32  1  0  0  0  0
  9  8  1  0  0  0  0
 10 17  1  0  0  0  0
 10 12  1  0  0  0  0
 10 25  1  0  0  0  0
 11 27  1  0  0  0  0
 11  1  1  0  0  0  0
 13 29  1  0  0  0  0
 14 16  1  0  0  0  0
 14 37  1  0  0  0  0
 14 24  1  0  0  0  0
 15  9  1  0  0  0  0
 17 22  1  0  0  0  0
 17 25  1  0  0  0  0
 18 13  1  0  0  0  0
 18  5  1  0  0  0  0
 19  2  1  0  0  0  0
 20 16  1  0  0  0  0
 21  4  1  0  0  0  0
 23 20  1  0  0  0  0
 24 34  1  0  0  0  0
 26 13  1  0  0  0  0
 26 20  1  0  0  0  0
 27 33  1  0  0  0  0
 28 30  1  0  0  0  0
 28 11  1  0  0  0  0
 29 19  1  0  0  0  0
 30 35  1  0  0  0  0
 31 37  1  0  0  0  0
 32 21  1  0  0  0  0
 33 10  1  0  0  0  0
 34 38  1  0  0  0  0
 35  1  1  0  0  0  0
 35 40  1  0  0  0  0
 36 21  1  0  0  0  0
 37  9  1  0  0  0  0
 38  3  1  0  0  0  0
 40 39  1  0  0  0  0
 41 43  1  0  0  0  0
 42 40  1  0  0  0  0
 42 41  2  0  0  0  0
M  END
>  <MODEL>
5

>  <REMARK>
 VINA RESULT:      -7.9      1.182      1.220
  Name = 
  2 active torsions:
  status: ('A' for Active; 'I' for Inactive)
    1  A    between atoms: C_10  and  C_24
    2  A    between atoms: C_10  and  C_40
                            x       y       z     vdW  Elec       q    Type
                         _______ _______ _______ _____ _____    ______ ____

>  <TORSDO>
F 2

$$$$
=
 OpenBabel11042419163D

 43 49  0  0  1  0  0  0  0  0999 V2000
  188.3220  177.1520  145.6650 C   0  0  0  0  0  2  0  0  0  0  0  0
  190.7670  176.9000  144.9470 C   0  0  1  0  0  3  0  0  0  0  0  0
  189.9240  172.1630  140.9370 C   0  0  0  0  0  0  0  0  0  0  0  0
  191.0180  170.6890  139.2990 C   0  0  0  0  0  2  0  0  0  0  0  0
  192.3720  175.1100  146.0170 C   0  0  0  0  0  2  0  0  0  0  0  0
  189.9390  171.5530  139.7820 N   0  0  0  0  0  0  0  0  0  0  0  0
  190.9520  168.2780  142.3790 C   0  0  0  0  0  1  0  0  0  0  0  0
  191.5890  170.7660  142.1370 C   0  0  0  0  0  0  0  0  0  0  0  0
  192.9120  170.5920  142.8780 C   0  0  1  0  0  3  0  0  0  0  0  0
  189.1610  175.2880  142.1940 C   0  0  2  0  0  0  0  0  0  0  0  0
  189.5290  176.2950  145.5860 C   0  0  2  0  0  0  0  0  0  0  0  0
  189.7590  175.6320  140.9780 O   0  0  0  0  0  1  0  0  0  0  0  0
  194.4460  176.1960  145.3450 C   0  0  1  0  0  3  0  0  0  0  0  0
  193.5650  172.9360  143.5470 C   0  0  1  0  0  3  0  0  0  0  0  0
  193.5310  169.3900  142.5100 O   0  0  0  0  0  1  0  0  0  0  0  0
  194.1050  174.1850  143.0200 N   0  0  0  0  0  2  0  0  0  0  0  0
  188.6290  173.8650  142.3970 C   0  0  2  0  0  3  0  0  0  0  0  0
  193.8840  175.0100  146.1250 C   0  0  0  0  0  2  0  0  0  0  0  0
  192.0980  176.5560  145.6430 C   0  0  1  0  0  3  0  0  0  0  0  0
  195.3760  174.4160  143.6910 C   0  0  1  0  0  3  0  0  0  0  0  0
  191.0840  169.3660  140.0640 C   0  0  2  0  0  3  0  0  0  0  0  0
  188.8280  173.0480  141.2030 N   0  0  0  0  0  2  0  0  0  0  0  0
  196.5060  174.2160  142.7020 C   0  0  0  0  0  1  0  0  0  0  0  0
  192.1340  173.0770  143.8070 N   0  0  0  0  0  2  0  0  0  0  0  0
  187.6890  174.9810  142.0010 C   0  0  0  0  0  2  0  0  0  0  0  0
  195.4580  175.8400  144.2440 C   0  0  0  0  0  2  0  0  0  0  0  0
  190.0370  175.7270  144.2660 C   0  0  1  0  0  3  0  0  0  0  0  0
  189.6910  175.5120  146.7290 O   0  0  0  0  0  0  0  0  0  0  0  0
  193.2670  176.9580  144.7760 C   0  0  0  0  0  2  0  0  0  0  0  0
  188.4850  175.4850  147.2960 O   0  0  0  0  0  0  0  0  0  0  0  0
  195.2020  171.3650  142.8030 O   0  0  0  0  0  1  0  0  0  0  0  0
  190.8670  169.5630  141.5630 C   0  0  1  0  0  3  0  0  0  0  0  0
  189.2600  176.2430  143.2180 O   0  0  0  0  0  0  0  0  0  0  0  0
  191.4600  173.1380  142.6020 O   0  0  0  0  0  0  0  0  0  0  0  0
  187.8810  176.7380  147.0400 C   0  0  2  0  0  3  0  0  0  0  0  0
  192.3070  168.7680  139.8240 F   0  0  0  0  0  0  0  0  0  0  0  0
  193.8710  171.7620  142.6120 C   0  0  1  0  0  3  0  0  0  0  0  0
  191.0260  171.9880  141.9280 C   0  0  0  0  0  0  0  0  0  0  0  0
  186.0240  175.8980  148.2850 O   0  0  0  0  0  1  0  0  0  0  0  0
  186.3610  176.6110  147.1310 C   0  0  1  0  0  3  0  0  0  0  0  0
  184.9480  178.3990  146.1800 C   0  0  0  0  0  3  0  0  0  0  0  0
  185.7040  177.9540  147.1780 C   0  0  0  0  0  3  0  0  0  0  0  0
  184.7300  177.6380  145.0390 O   0  0  0  0  0  1  0  0  0  0  0  0
  1 35  1  0  0  0  0
  2 11  1  0  0  0  0
  2 19  1  0  0  0  0
  3 22  1  0  0  0  0
  3 38  1  0  0  0  0
  4  6  1  0  0  0  0
  4 21  1  0  0  0  0
  5 18  1  0  0  0  0
  6  3  2  0  0  0  0
  8  9  1  0  0  0  0
 10 17  1  0  0  0  0
 10 33  1  0  0  0  0
 11  1  1  0  0  0  0
 11 28  1  0  0  0  0
 12 10  1  0  0  0  0
 13 18  1  0  0  0  0
 14 24  1  0  0  0  0
 15  9  1  0  0  0  0
 16 14  1  0  0  0  0
 16 20  1  0  0  0  0
 19  5  1  0  0  0  0
 20 26  1  0  0  0  0
 21 32  1  0  0  0  0
 22 17  1  0  0  0  0
 23 20  1  0  0  0  0
 25 10  1  0  0  0  0
 25 17  1  0  0  0  0
 26 13  1  0  0  0  0
 27  2  1  0  0  0  0
 27 11  1  0  0  0  0
 28 30  1  0  0  0  0
 29 13  1  0  0  0  0
 29 19  1  0  0  0  0
 32  8  1  0  0  0  0
 32  7  1  0  0  0  0
 33 27  1  0  0  0  0
 34 24  1  0  0  0  0
 35 40  1  0  0  0  0
 35 30  1  0  0  0  0
 36 21  1  0  0  0  0
 37 31  1  0  0  0  0
 37  9  1  0  0  0  0
 37 14  1  0  0  0  0
 38  8  2  0  0  0  0
 38 34  1  0  0  0  0
 40 42  1  0  0  0  0
 40 39  1  0  0  0  0
 41 42  2  0  0  0  0
 43 41  1  0  0  0  0
M  END
>  <MODEL>
6

>  <REMARK>
 VINA RESULT:      -7.7      2.549      5.835
  Name = 
  2 active torsions:
  status: ('A' for Active; 'I' for Inactive)
    1  A    between atoms: C_10  and  C_24
    2  A    between atoms: C_10  and  C_40
                            x       y       z     vdW  Elec       q    Type
                         _______ _______ _______ _____ _____    ______ ____

>  <TORSDO>
F 2

$$$$
=
 OpenBabel11042419163D

 43 49  0  0  1  0  0  0  0  0999 V2000
  186.8590  178.2980  145.7190 C   0  0  0  0  0  2  0  0  0  0  0  0
  189.3630  177.8230  145.9610 C   0  0  1  0  0  3  0  0  0  0  0  0
  189.9570  174.1550  140.9200 C   0  0  0  0  0  0  0  0  0  0  0  0
  191.5360  172.8830  139.5260 C   0  0  0  0  0  2  0  0  0  0  0  0
  190.2770  175.6330  147.1000 C   0  0  0  0  0  2  0  0  0  0  0  0
  190.4080  173.7890  139.7500 N   0  0  0  0  0  0  0  0  0  0  0  0
  190.0680  169.9510  141.6590 C   0  0  0  0  0  1  0  0  0  0  0  0
  190.8960  172.3100  142.2910 C   0  0  0  0  0  0  0  0  0  0  0  0
  191.7850  171.7940  143.4190 C   0  0  1  0  0  3  0  0  0  0  0  0
  188.9350  177.0490  142.5010 C   0  0  2  0  0  0  0  0  0  0  0  0
  187.9380  177.3000  145.9070 C   0  0  2  0  0  0  0  0  0  0  0  0
  189.9980  177.5310  141.7320 O   0  0  0  0  0  1  0  0  0  0  0  0
  192.5060  176.5000  147.5640 C   0  0  1  0  0  3  0  0  0  0  0  0
  192.2460  173.8320  144.8340 C   0  0  1  0  0  3  0  0  0  0  0  0
  192.4280  170.6080  143.0390 O   0  0  0  0  0  1  0  0  0  0  0  0
  193.0280  175.0630  144.8750 N   0  0  0  0  0  2  0  0  0  0  0  0
  188.2820  175.7130  142.1320 C   0  0  2  0  0  3  0  0  0  0  0  0
  191.6030  175.2830  147.7540 C   0  0  0  0  0  2  0  0  0  0  0  0
  190.2680  177.1480  147.0120 C   0  0  1  0  0  3  0  0  0  0  0  0
  193.9240  174.9610  146.0190 C   0  0  1  0  0  3  0  0  0  0  0  0
  191.2030  171.4410  139.9120 C   0  0  2  0  0  3  0  0  0  0  0  0
  188.9030  175.1260  140.9480 N   0  0  0  0  0  2  0  0  0  0  0  0
  195.3460  174.7890  145.5260 C   0  0  0  0  0  1  0  0  0  0  0  0
  190.8460  174.1360  144.5480 N   0  0  0  0  0  2  0  0  0  0  0  0
  187.6560  177.0160  141.6880 C   0  0  0  0  0  2  0  0  0  0  0  0
  193.8560  176.2180  146.8880 C   0  0  0  0  0  2  0  0  0  0  0  0
  188.9080  176.9320  144.7900 C   0  0  1  0  0  3  0  0  0  0  0  0
  187.5690  176.2920  146.7980 O   0  0  0  0  0  0  0  0  0  0  0  0
  191.7120  177.5300  146.7870 C   0  0  0  0  0  2  0  0  0  0  0  0
  186.2380  176.3380  146.8310 O   0  0  0  0  0  0  0  0  0  0  0  0
  193.9460  172.2070  144.4220 O   0  0  0  0  0  1  0  0  0  0  0  0
  190.4020  171.3690  141.2110 C   0  0  1  0  0  3  0  0  0  0  0  0
  188.6620  177.7570  143.6820 O   0  0  0  0  0  0  0  0  0  0  0  0
  190.7300  174.5350  143.2310 O   0  0  0  0  0  0  0  0  0  0  0  0
  185.8690  177.6940  146.6730 C   0  0  2  0  0  3  0  0  0  0  0  0
  192.3780  170.7220  140.0250 F   0  0  0  0  0  0  0  0  0  0  0  0
  192.8380  172.8330  143.8350 C   0  0  1  0  0  3  0  0  0  0  0  0
  190.5430  173.6210  142.1840 C   0  0  0  0  0  0  0  0  0  0  0  0
  183.5510  177.9150  147.2080 O   0  0  0  0  0  1  0  0  0  0  0  0
  184.4410  177.7850  146.1370 C   0  0  1  0  0  3  0  0  0  0  0  0
  184.2810  178.8190  143.9010 C   0  0  0  0  0  3  0  0  0  0  0  0
  184.2760  178.9570  145.2220 C   0  0  0  0  0  3  0  0  0  0  0  0
  184.4420  177.5780  143.3000 O   0  0  0  0  0  1  0  0  0  0  0  0
  1 11  1  0  0  0  0
  1 35  1  0  0  0  0
  2 19  1  0  0  0  0
  3 22  1  0  0  0  0
  3 38  1  0  0  0  0
  4  6  1  0  0  0  0
  4 21  1  0  0  0  0
  5 18  1  0  0  0  0
  6  3  2  0  0  0  0
  8  9  1  0  0  0  0
  9 37  1  0  0  0  0
 10 33  1  0  0  0  0
 11  2  1  0  0  0  0
 11 28  1  0  0  0  0
 12 10  1  0  0  0  0
 13 18  1  0  0  0  0
 14 16  1  0  0  0  0
 15  9  1  0  0  0  0
 16 20  1  0  0  0  0
 17 10  1  0  0  0  0
 19  5  1  0  0  0  0
 20 26  1  0  0  0  0
 21 36  1  0  0  0  0
 21 32  1  0  0  0  0
 22 17  1  0  0  0  0
 23 20  1  0  0  0  0
 24 14  1  0  0  0  0
 25 17  1  0  0  0  0
 25 10  1  0  0  0  0
 26 13  1  0  0  0  0
 27 11  1  0  0  0  0
 27  2  1  0  0  0  0
 28 30  1  0  0  0  0
 29 19  1  0  0  0  0
 29 13  1  0  0  0  0
 32  7  1  0  0  0  0
 32  8  1  0  0  0  0
 33 27  1  0  0  0  0
 34 24  1  0  0  0  0
 35 30  1  0  0  0  0
 37 31  1  0  0  0  0
 37 14  1  0  0  0  0
 38  8  2  0  0  0  0
 38 34  1  0  0  0  0
 40 35  1  0  0  0  0
 40 39  1  0  0  0  0
 41 42  2  0  0  0  0
 42 40  1  0  0  0  0
 43 41  1  0  0  0  0
M  END
>  <MODEL>
7

>  <REMARK>
 VINA RESULT:      -7.4      2.550      5.877
  Name = 
  2 active torsions:
  status: ('A' for Active; 'I' for Inactive)
    1  A    between atoms: C_10  and  C_24
    2  A    between atoms: C_10  and  C_40
                            x       y       z     vdW  Elec       q    Type
                         _______ _______ _______ _____ _____    ______ ____

>  <TORSDO>
F 2

$$$$
=
 OpenBabel11042419163D

 43 49  0  0  1  0  0  0  0  0999 V2000
  194.2850  172.5910  137.4970 C   0  0  0  0  0  2  0  0  0  0  0  0
  195.4850  172.4360  139.7540 C   0  0  1  0  0  3  0  0  0  0  0  0
  190.5080  173.6110  143.3700 C   0  0  0  0  0  0  0  0  0  0  0  0
  189.6950  173.7880  145.6850 C   0  0  0  0  0  2  0  0  0  0  0  0
  196.3510  174.5640  141.0370 C   0  0  0  0  0  2  0  0  0  0  0  0
  189.6070  173.3710  144.2840 N   0  0  0  0  0  0  0  0  0  0  0  0
  190.1960  177.5860  144.8980 C   0  0  0  0  0  1  0  0  0  0  0  0
  191.6700  175.5150  144.4620 C   0  0  0  0  0  0  0  0  0  0  0  0
  192.9150  176.1630  145.0610 C   0  0  1  0  0  3  0  0  0  0  0  0
  192.1170  171.9210  140.8250 C   0  0  2  0  0  0  0  0  0  0  0  0
  194.6860  173.2590  138.7580 C   0  0  2  0  0  0  0  0  0  0  0  0
  192.0340  170.9180  141.7950 O   0  0  0  0  0  1  0  0  0  0  0  0
  197.9410  173.3770  142.4510 C   0  0  1  0  0  3  0  0  0  0  0  0
  194.8280  174.7730  144.1820 C   0  0  1  0  0  3  0  0  0  0  0  0
  192.5860  176.8980  146.2090 O   0  0  0  0  0  1  0  0  0  0  0  0
  195.5010  173.4890  144.3490 N   0  0  0  0  0  2  0  0  0  0  0  0
  191.1910  173.1390  140.9180 C   0  0  2  0  0  3  0  0  0  0  0  0
  197.4180  174.7680  142.1000 C   0  0  0  0  0  2  0  0  0  0  0  0
  196.6320  173.1900  140.4550 C   0  0  1  0  0  3  0  0  0  0  0  0
  196.8610  173.7750  144.7840 C   0  0  1  0  0  3  0  0  0  0  0  0
  189.5380  175.3000  145.8480 C   0  0  2  0  0  3  0  0  0  0  0  0
  190.3000  173.0430  142.0710 N   0  0  0  0  0  2  0  0  0  0  0  0
  197.0200  173.3600  146.2320 C   0  0  0  0  0  1  0  0  0  0  0  0
  194.0360  174.7690  142.9550 N   0  0  0  0  0  2  0  0  0  0  0  0
  190.8410  171.9840  140.0070 C   0  0  0  0  0  2  0  0  0  0  0  0
  197.8840  173.0090  143.9420 C   0  0  0  0  0  2  0  0  0  0  0  0
  194.0580  172.9010  140.1010 C   0  0  1  0  0  3  0  0  0  0  0  0
  195.0540  174.5880  138.5530 O   0  0  0  0  0  0  0  0  0  0  0  0
  197.1640  172.3820  141.6140 C   0  0  0  0  0  2  0  0  0  0  0  0
  194.5070  174.9160  137.3820 O   0  0  0  0  0  0  0  0  0  0  0  0
  194.8330  175.6010  146.4220 O   0  0  0  0  0  1  0  0  0  0  0  0
  190.2930  176.0710  144.7660 C   0  0  1  0  0  3  0  0  0  0  0  0
  193.1870  171.8150  139.9230 O   0  0  0  0  0  0  0  0  0  0  0  0
  192.9400  173.9450  143.1270 O   0  0  0  0  0  0  0  0  0  0  0  0
  194.5310  173.7530  136.5770 C   0  0  2  0  0  3  0  0  0  0  0  0
  189.9820  175.6660  147.1050 F   0  0  0  0  0  0  0  0  0  0  0  0
  193.9860  175.1200  145.4140 C   0  0  1  0  0  3  0  0  0  0  0  0
  191.7340  174.4080  143.6720 C   0  0  0  0  0  0  0  0  0  0  0  0
  193.6460  172.8210  134.5640 O   0  0  0  0  0  1  0  0  0  0  0  0
  193.4600  173.8500  135.4920 C   0  0  1  0  0  3  0  0  0  0  0  0
  191.2520  174.7740  136.0970 C   0  0  0  0  0  3  0  0  0  0  0  0
  192.0860  173.7400  136.0720 C   0  0  0  0  0  3  0  0  0  0  0  0
  191.6150  176.0130  135.5870 O   0  0  0  0  0  1  0  0  0  0  0  0
  1 11  1  0  0  0  0
  2 27  1  0  0  0  0
  2 19  1  0  0  0  0
  3 38  1  0  0  0  0
  3  6  2  0  0  0  0
  4 21  1  0  0  0  0
  5 18  1  0  0  0  0
  6  4  1  0  0  0  0
  8 32  1  0  0  0  0
  8  9  1  0  0  0  0
  9 37  1  0  0  0  0
  9 15  1  0  0  0  0
 10 17  1  0  0  0  0
 10 12  1  0  0  0  0
 11  2  1  0  0  0  0
 11 27  1  0  0  0  0
 13 26  1  0  0  0  0
 14 16  1  0  0  0  0
 14 37  1  0  0  0  0
 16 20  1  0  0  0  0
 17 22  1  0  0  0  0
 18 13  1  0  0  0  0
 19  5  1  0  0  0  0
 19 29  1  0  0  0  0
 20 23  1  0  0  0  0
 21 36  1  0  0  0  0
 22  3  1  0  0  0  0
 24 34  1  0  0  0  0
 24 14  1  0  0  0  0
 25 10  1  0  0  0  0
 25 17  1  0  0  0  0
 26 20  1  0  0  0  0
 28 11  1  0  0  0  0
 29 13  1  0  0  0  0
 30 28  1  0  0  0  0
 32  7  1  0  0  0  0
 32 21  1  0  0  0  0
 33 27  1  0  0  0  0
 33 10  1  0  0  0  0
 34 38  1  0  0  0  0
 35 30  1  0  0  0  0
 35  1  1  0  0  0  0
 37 31  1  0  0  0  0
 38  8  2  0  0  0  0
 39 40  1  0  0  0  0
 40 42  1  0  0  0  0
 40 35  1  0  0  0  0
 42 41  2  0  0  0  0
 43 41  1  0  0  0  0
M  END
>  <MODEL>
8

>  <REMARK>
 VINA RESULT:      -7.1      3.588      7.314
  Name = 
  2 active torsions:
  status: ('A' for Active; 'I' for Inactive)
    1  A    between atoms: C_10  and  C_24
    2  A    between atoms: C_10  and  C_40
                            x       y       z     vdW  Elec       q    Type
                         _______ _______ _______ _____ _____    ______ ____

>  <TORSDO>
F 2

$$$$
=
 OpenBabel11042419163D

 43 49  0  0  1  0  0  0  0  0999 V2000
  190.6570  174.7240  146.5000 C   0  0  0  0  0  2  0  0  0  0  0  0
  189.8780  173.6680  144.3030 C   0  0  1  0  0  3  0  0  0  0  0  0
  195.5580  172.5470  141.9130 C   0  0  0  0  0  0  0  0  0  0  0  0
  196.7940  171.5560  140.0300 C   0  0  0  0  0  2  0  0  0  0  0  0
  189.7060  175.0410  142.0640 C   0  0  0  0  0  2  0  0  0  0  0  0
  196.5410  171.8240  141.4470 N   0  0  0  0  0  0  0  0  0  0  0  0
  196.9380  175.3190  138.9740 C   0  0  0  0  0  1  0  0  0  0  0  0
  195.0210  173.8390  139.8610 C   0  0  0  0  0  0  0  0  0  0  0  0
  194.0620  174.2590  138.7520 C   0  0  1  0  0  3  0  0  0  0  0  0
  193.2090  172.3870  144.4390 C   0  0  2  0  0  0  0  0  0  0  0  0
  190.6340  174.7730  145.0190 C   0  0  2  0  0  0  0  0  0  0  0  0
  193.2600  171.0470  144.0430 O   0  0  0  0  0  1  0  0  0  0  0  0
  188.1900  173.5010  140.9390 C   0  0  1  0  0  3  0  0  0  0  0  0
  191.7810  173.6260  139.6250 C   0  0  1  0  0  3  0  0  0  0  0  0
  194.7330  174.3460  137.5240 O   0  0  0  0  0  1  0  0  0  0  0  0
  190.9030  172.4840  139.8560 N   0  0  0  0  0  2  0  0  0  0  0  0
  194.3630  173.3260  144.0730 C   0  0  2  0  0  3  0  0  0  0  0  0
  188.9110  174.8370  140.7850 C   0  0  0  0  0  2  0  0  0  0  0  0
  189.0530  174.1240  143.0830 C   0  0  1  0  0  3  0  0  0  0  0  0
  189.7300  172.6700  139.0130 C   0  0  1  0  0  3  0  0  0  0  0  0
  197.2790  172.8000  139.2850 C   0  0  2  0  0  3  0  0  0  0  0  0
  195.4090  172.6230  143.3370 N   0  0  0  0  0  2  0  0  0  0  0  0
  189.7540  171.6540  137.8910 C   0  0  0  0  0  1  0  0  0  0  0  0
  192.3210  174.1090  140.8930 N   0  0  0  0  0  2  0  0  0  0  0  0
  194.3020  172.6910  145.4440 C   0  0  0  0  0  2  0  0  0  0  0  0
  188.4390  172.4840  139.8130 C   0  0  0  0  0  2  0  0  0  0  0  0
  191.4080  173.7770  144.1620 C   0  0  1  0  0  3  0  0  0  0  0  0
  190.5120  176.0760  144.5400 O   0  0  0  0  0  0  0  0  0  0  0  0
  188.5850  172.9310  142.2850 C   0  0  0  0  0  2  0  0  0  0  0  0
  190.8940  176.8500  145.5560 O   0  0  0  0  0  0  0  0  0  0  0  0
  192.3470  173.3270  137.3240 O   0  0  0  0  0  1  0  0  0  0  0  0
  196.5140  174.0530  139.7080 C   0  0  1  0  0  3  0  0  0  0  0  0
  191.9950  172.8150  144.9980 O   0  0  0  0  0  0  0  0  0  0  0  0
  193.2410  173.1950  141.3700 O   0  0  0  0  0  0  0  0  0  0  0  0
  190.4900  176.1970  146.7440 C   0  0  2  0  0  3  0  0  0  0  0  0
  197.1520  172.5880  137.9250 F   0  0  0  0  0  0  0  0  0  0  0  0
  192.8830  173.2820  138.6180 C   0  0  1  0  0  3  0  0  0  0  0  0
  194.5940  173.2320  141.0030 C   0  0  0  0  0  0  0  0  0  0  0  0
  192.6820  176.7520  147.5140 O   0  0  0  0  0  1  0  0  0  0  0  0
  191.3450  176.6760  147.9160 C   0  0  1  0  0  3  0  0  0  0  0  0
  191.1120  178.4200  149.6490 C   0  0  0  0  0  3  0  0  0  0  0  0
  190.9040  178.0210  148.3980 C   0  0  0  0  0  3  0  0  0  0  0  0
  191.7500  177.6050  150.5750 O   0  0  0  0  0  1  0  0  0  0  0  0
  1 35  1  0  0  0  0
  2 11  1  0  0  0  0
  3 22  1  0  0  0  0
  4  6  1  0  0  0  0
  5 19  1  0  0  0  0
  6  3  2  0  0  0  0
  7 32  1  0  0  0  0
  8 38  2  0  0  0  0
  9  8  1  0  0  0  0
 10 33  1  0  0  0  0
 10 25  1  0  0  0  0
 11  1  1  0  0  0  0
 12 10  1  0  0  0  0
 13 29  1  0  0  0  0
 14 16  1  0  0  0  0
 14 24  1  0  0  0  0
 15  9  1  0  0  0  0
 17 10  1  0  0  0  0
 17 25  1  0  0  0  0
 18 13  1  0  0  0  0
 18  5  1  0  0  0  0
 19  2  1  0  0  0  0
 20 26  1  0  0  0  0
 20 16  1  0  0  0  0
 21 32  1  0  0  0  0
 21  4  1  0  0  0  0
 22 17  1  0  0  0  0
 23 20  1  0  0  0  0
 24 34  1  0  0  0  0
 26 13  1  0  0  0  0
 27  2  1  0  0  0  0
 27 33  1  0  0  0  0
 27 11  1  0  0  0  0
 28 11  1  0  0  0  0
 28 30  1  0  0  0  0
 29 19  1  0  0  0  0
 30 35  1  0  0  0  0
 31 37  1  0  0  0  0
 32  8  1  0  0  0  0
 35 40  1  0  0  0  0
 36 21  1  0  0  0  0
 37  9  1  0  0  0  0
 37 14  1  0  0  0  0
 38 34  1  0  0  0  0
 38  3  1  0  0  0  0
 39 40  1  0  0  0  0
 40 42  1  0  0  0  0
 41 43  1  0  0  0  0
 42 41  2  0  0  0  0
M  END
>  <MODEL>
9

>  <REMARK>
 VINA RESULT:      -6.9      3.275      4.889
  Name = 
  2 active torsions:
  status: ('A' for Active; 'I' for Inactive)
    1  A    between atoms: C_10  and  C_24
    2  A    between atoms: C_10  and  C_40
                            x       y       z     vdW  Elec       q    Type
                         _______ _______ _______ _____ _____    ______ ____

>  <TORSDO>
F 2

$$$$
