=
 OpenBabel11042419573D

 41 43  0  0  1  0  0  0  0  0999 V2000
  189.0450  174.9300  142.1470 C   0  0  0  0  0  0  0  0  0  0  0  0
  189.6690  176.2350  144.2090 N   0  0  0  0  0  0  0  0  0  0  0  0
  190.3180  174.1490  145.2280 C   0  0  0  0  0  2  0  0  0  0  0  0
  189.8650  175.2470  143.2130 C   0  0  1  0  0  3  0  0  0  0  0  0
  189.2360  178.1910  143.0260 O   0  0  0  0  0  0  0  0  0  0  0  0
  187.8690  177.8340  144.8620 N   0  0  0  0  0  0  0  0  0  0  0  0
  189.6390  173.0720  143.0310 N   0  0  0  0  0  0  0  0  0  0  0  0
  188.3990  175.7480  141.4390 O   0  0  0  0  0  0  0  0  0  0  0  0
  188.9440  177.4540  144.0030 C   0  0  0  0  0  0  0  0  0  0  0  0
  189.5950  171.6650  143.3950 C   0  0  0  0  0  1  0  0  0  0  0  0
  190.2070  174.0610  143.7470 C   0  0  2  0  0  3  0  0  0  0  0  0
  188.9340  173.5930  142.0340 N   0  0  0  0  0  2  0  0  0  0  0  0
  189.9830  175.6380  145.5150 C   0  0  1  0  0  3  0  0  0  0  0  0
  187.4150  177.0050  145.9000 N   0  0  0  0  0  0  0  0  0  0  0  0
  186.4150  177.4020  146.8460 C   0  0  0  0  0  0  0  0  0  0  0  0
  185.9880  176.5400  147.6590 O   0  0  0  0  0  0  0  0  0  0  0  0
  185.8290  178.7590  146.8930 C   0  0  0  0  0  0  0  0  0  0  0  0
  186.2750  179.6590  147.7660 C   0  0  0  0  0  2  0  0  0  0  0  0
  184.7570  179.0340  146.0250 O   0  0  0  0  0  0  0  0  0  0  0  0
  184.2980  178.1770  143.7430 N   0  0  0  0  0  2  0  0  0  0  0  0
  184.8100  179.1780  144.6300 C   0  0  0  0  0  0  0  0  0  0  0  0
  185.3230  180.2260  144.1540 O   0  0  0  0  0  0  0  0  0  0  0  0
  184.3100  178.3210  142.2960 C   0  0  0  0  0  2  0  0  0  0  0  0
  185.5770  177.8620  140.2160 C   0  0  0  0  0  1  0  0  0  0  0  0
  185.6090  177.7780  141.7280 C   0  0  0  0  0  2  0  0  0  0  0  0
  191.1740  176.3550  146.1630 C   0  0  1  0  0  3  0  0  0  0  0  0
  191.1300  176.1560  147.5350 F   0  0  0  0  0  0  0  0  0  0  0  0
  194.6760  176.0700  146.3160 O   0  0  0  0  0  0  0  0  0  0  0  0
  192.5130  175.8350  145.6270 C   0  0  1  0  0  3  0  0  0  0  0  0
  193.1590  176.8380  144.7170 C   0  0  1  0  0  3  0  0  0  0  0  0
  194.4270  177.1480  145.4580 C   0  0  0  0  0  2  0  0  0  0  0  0
  193.4490  175.6390  146.7260 N   0  0  0  0  0  2  0  0  0  0  0  0
  193.4780  176.1640  143.3900 C   0  0  0  0  0  2  0  0  0  0  0  0
  193.7920  174.6930  143.6040 C   0  0  0  0  0  2  0  0  0  0  0  0
  196.0100  175.5660  142.4100 O   0  0  0  0  0  0  0  0  0  0  0  0
  195.3940  173.2190  142.0300 O   0  0  0  0  0  0  0  0  0  0  0  0
  195.4390  174.3280  143.0410 S   0  0  0  0  0  0  0  0  0  0  0  0
  196.1300  172.7030  145.1850 C   0  0  0  0  0  0  0  0  0  0  0  0
  196.4230  173.8500  144.3860 N   0  0  0  0  0  2  0  0  0  0  0  0
  196.9040  172.4360  146.3080 O   0  0  0  0  0  1  0  0  0  0  0  0
  195.1710  171.9350  144.8850 O   0  0  0  0  0  0  0  0  0  0  0  0
  2 13  1  0  0  0  0
  3 13  1  0  0  0  0
  4  1  1  1  0  0  0
  4 11  1  0  0  0  0
  4  2  1  0  0  0  0
  5  9  2  0  0  0  0
  6 14  2  0  0  0  0
  7 10  1  0  0  0  0
  7 11  1  0  0  0  0
  8  1  2  0  0  0  0
  9  2  1  0  0  0  0
  9  6  1  0  0  0  0
 11  3  1  1  0  0  0
 12  1  1  0  0  0  0
 12  7  1  0  0  0  0
 13 26  1  6  0  0  0
 14 15  1  0  0  0  0
 15 17  1  0  0  0  0
 15 16  2  0  0  0  0
 17 18  2  0  0  0  0
 19 17  1  0  0  0  0
 20 21  1  0  0  0  0
 21 19  1  0  0  0  0
 22 21  2  0  0  0  0
 23 20  1  0  0  0  0
 24 25  1  0  0  0  0
 25 23  1  0  0  0  0
 26 27  1  1  0  0  0
 28 32  1  0  0  0  0
 29 26  1  1  0  0  0
 29 32  1  0  0  0  0
 30 33  1  6  0  0  0
 30 31  1  0  0  0  0
 30 29  1  0  0  0  0
 31 28  1  0  0  0  0
 33 34  1  0  0  0  0
 35 37  2  0  0  0  0
 36 37  2  0  0  0  0
 37 34  1  0  0  0  0
 37 39  1  0  0  0  0
 38 40  1  0  0  0  0
 39 38  1  0  0  0  0
 41 38  2  0  0  0  0
M  END
>  <MODEL>
1

>  <REMARK>
 VINA RESULT:      -7.2      0.000      0.000
  Name = 
  12 active torsions:
  status: ('A' for Active; 'I' for Inactive)
    1  A    between atoms: C_1  and  N_29
    2  A    between atoms: C_1  and  C_38
    3  A    between atoms: N_2  and  N_15
    4  A    between atoms: O_3  and  C_12
    5  A    between atoms: O_3  and  C_31
    6  A    between atoms: C_12  and  C_27
    7  A    between atoms: N_13  and  S_33
    8  A    between atoms: C_14  and  C_24
    9  A    between atoms: C_17  and  C_34
   10  A    between atoms: C_19  and  S_33
   11  A    between atoms: C_19  and  C_34
   12  A    between atoms: C_24  and  C_37
                            x       y       z     vdW  Elec       q    Type
                         _______ _______ _______ _____ _____    ______ ____

>  <TORSDO>
F 12

$$$$
=
 OpenBabel11042419573D

 41 43  0  0  1  0  0  0  0  0999 V2000
  188.3580  174.9960  141.4100 C   0  0  0  0  0  0  0  0  0  0  0  0
  189.8610  176.3060  142.9500 N   0  0  0  0  0  0  0  0  0  0  0  0
  191.1460  174.2900  143.2700 C   0  0  0  0  0  2  0  0  0  0  0  0
  189.5860  175.3840  141.9110 C   0  0  1  0  0  3  0  0  0  0  0  0
  188.6820  178.2240  142.3670 O   0  0  0  0  0  0  0  0  0  0  0  0
  188.5470  177.6340  144.6030 N   0  0  0  0  0  2  0  0  0  0  0  0
  189.5030  173.2040  141.6660 N   0  0  0  0  0  0  0  0  0  0  0  0
  187.3600  175.7450  141.2300 O   0  0  0  0  0  0  0  0  0  0  0  0
  189.0270  177.4250  143.2750 C   0  0  0  0  0  0  0  0  0  0  0  0
  189.7920  171.7920  141.8610 C   0  0  0  0  0  1  0  0  0  0  0  0
  190.2700  174.2350  142.0680 C   0  0  2  0  0  3  0  0  0  0  0  0
  188.3290  173.6600  141.2440 N   0  0  0  0  0  2  0  0  0  0  0  0
  190.8770  175.7130  143.8310 C   0  0  1  0  0  3  0  0  0  0  0  0
  188.7960  176.7210  145.6390 N   0  0  0  0  0  2  0  0  0  0  0  0
  187.8840  176.4820  146.7180 C   0  0  0  0  0  0  0  0  0  0  0  0
  188.1460  175.5530  147.5250 O   0  0  0  0  0  0  0  0  0  0  0  0
  186.6310  177.2450  146.9090 C   0  0  0  0  0  0  0  0  0  0  0  0
  186.5280  178.1420  147.8860 C   0  0  0  0  0  2  0  0  0  0  0  0
  185.5510  176.9430  146.0610 O   0  0  0  0  0  0  0  0  0  0  0  0
  185.3010  177.9210  143.7960 N   0  0  0  0  0  2  0  0  0  0  0  0
  184.9040  177.8100  145.1680 C   0  0  0  0  0  0  0  0  0  0  0  0
  183.9450  178.5060  145.5950 O   0  0  0  0  0  0  0  0  0  0  0  0
  184.6220  178.7870  142.8440 C   0  0  0  0  0  2  0  0  0  0  0  0
  184.9000  178.2820  140.4340 C   0  0  0  0  0  1  0  0  0  0  0  0
  184.0950  177.9690  141.6780 C   0  0  0  0  0  2  0  0  0  0  0  0
  192.1570  176.5580  143.8220 C   0  0  1  0  0  3  0  0  0  0  0  0
  191.8530  177.8450  144.2400 F   0  0  0  0  0  0  0  0  0  0  0  0
  193.8950  176.4530  146.8770 O   0  0  0  0  0  0  0  0  0  0  0  0
  193.2320  175.9750  144.7470 C   0  0  1  0  0  3  0  0  0  0  0  0
  194.5130  176.7500  144.6470 C   0  0  1  0  0  3  0  0  0  0  0  0
  194.6580  177.2790  146.0440 C   0  0  0  0  0  2  0  0  0  0  0  0
  192.8100  176.0880  146.1360 N   0  0  0  0  0  2  0  0  0  0  0  0
  195.6470  175.7860  144.3300 C   0  0  0  0  0  2  0  0  0  0  0  0
  196.4970  176.3220  143.1910 C   0  0  0  0  0  2  0  0  0  0  0  0
  194.8390  176.8420  141.1700 O   0  0  0  0  0  0  0  0  0  0  0  0
  195.1340  174.4830  141.7860 O   0  0  0  0  0  0  0  0  0  0  0  0
  195.8250  175.8060  141.6270 S   0  0  0  0  0  0  0  0  0  0  0  0
  196.8620  175.3260  139.0960 C   0  0  0  0  0  0  0  0  0  0  0  0
  197.1020  175.6600  140.4630 N   0  0  0  0  0  2  0  0  0  0  0  0
  197.9410  175.1270  138.2410 O   0  0  0  0  0  0  0  0  0  0  0  0
  195.6830  175.2040  138.6570 O   0  0  0  0  0  1  0  0  0  0  0  0
  2  9  1  0  0  0  0
  2 13  1  0  0  0  0
  3 13  1  0  0  0  0
  4  1  1  1  0  0  0
  4 11  1  0  0  0  0
  4  2  1  0  0  0  0
  5  9  2  0  0  0  0
  6 14  1  0  0  0  0
  7 10  1  0  0  0  0
  7 11  1  0  0  0  0
  8  1  2  0  0  0  0
  9  6  1  0  0  0  0
 11  3  1  1  0  0  0
 12  1  1  0  0  0  0
 12  7  1  0  0  0  0
 13 26  1  6  0  0  0
 14 15  1  0  0  0  0
 15 17  1  0  0  0  0
 15 16  2  0  0  0  0
 17 18  2  0  0  0  0
 19 17  1  0  0  0  0
 20 21  1  0  0  0  0
 21 22  2  0  0  0  0
 21 19  1  0  0  0  0
 23 20  1  0  0  0  0
 24 25  1  0  0  0  0
 25 23  1  0  0  0  0
 26 27  1  1  0  0  0
 29 26  1  6  0  0  0
 29 32  1  0  0  0  0
 30 33  1  1  0  0  0
 30 29  1  0  0  0  0
 30 31  1  0  0  0  0
 31 28  1  0  0  0  0
 32 28  1  0  0  0  0
 34 33  1  0  0  0  0
 35 37  2  0  0  0  0
 37 36  2  0  0  0  0
 37 34  1  0  0  0  0
 38 39  1  0  0  0  0
 39 37  1  0  0  0  0
 40 38  2  0  0  0  0
 41 38  1  0  0  0  0
M  END
>  <MODEL>
2

>  <REMARK>
 VINA RESULT:      -7.1      2.012      2.697
  Name = 
  12 active torsions:
  status: ('A' for Active; 'I' for Inactive)
    1  A    between atoms: C_1  and  N_29
    2  A    between atoms: C_1  and  C_38
    3  A    between atoms: N_2  and  N_15
    4  A    between atoms: O_3  and  C_12
    5  A    between atoms: O_3  and  C_31
    6  A    between atoms: C_12  and  C_27
    7  A    between atoms: N_13  and  S_33
    8  A    between atoms: C_14  and  C_24
    9  A    between atoms: C_17  and  C_34
   10  A    between atoms: C_19  and  S_33
   11  A    between atoms: C_19  and  C_34
   12  A    between atoms: C_24  and  C_37
                            x       y       z     vdW  Elec       q    Type
                         _______ _______ _______ _____ _____    ______ ____

>  <TORSDO>
F 12

$$$$
=
 OpenBabel11042419573D

 41 43  0  0  1  0  0  0  0  0999 V2000
  190.2660  171.6050  141.1750 C   0  0  0  0  0  0  0  0  0  0  0  0
  190.3870  172.9350  143.3100 N   0  0  0  0  0  0  0  0  0  0  0  0
  188.9220  174.5530  142.2840 C   0  0  0  0  0  2  0  0  0  0  0  0
  189.7240  172.3570  142.2000 C   0  0  1  0  0  3  0  0  0  0  0  0
  191.5920  171.1860  144.2580 O   0  0  0  0  0  0  0  0  0  0  0  0
  192.7390  173.1920  144.0990 N   0  0  0  0  0  2  0  0  0  0  0  0
  188.9470  173.0210  140.2580 N   0  0  0  0  0  0  0  0  0  0  0  0
  191.1750  170.7400  141.2890 O   0  0  0  0  0  0  0  0  0  0  0  0
  191.5690  172.3950  143.9140 C   0  0  0  0  0  0  0  0  0  0  0  0
  188.3750  173.8810  139.2340 C   0  0  0  0  0  1  0  0  0  0  0  0
  188.9140  173.2390  141.5870 C   0  0  2  0  0  3  0  0  0  0  0  0
  189.7630  172.0090  139.9920 N   0  0  0  0  0  2  0  0  0  0  0  0
  189.9000  174.3130  143.4670 C   0  0  1  0  0  3  0  0  0  0  0  0
  192.8240  174.5130  143.6340 N   0  0  0  0  0  2  0  0  0  0  0  0
  193.3140  175.6000  144.4280 C   0  0  0  0  0  0  0  0  0  0  0  0
  193.4670  176.7210  143.8760 O   0  0  0  0  0  0  0  0  0  0  0  0
  193.6870  175.4650  145.8530 C   0  0  0  0  0  0  0  0  0  0  0  0
  192.7560  175.4880  146.8020 C   0  0  0  0  0  2  0  0  0  0  0  0
  195.0570  175.3690  146.1590 O   0  0  0  0  0  0  0  0  0  0  0  0
  196.1560  173.1530  145.9810 N   0  0  0  0  0  2  0  0  0  0  0  0
  196.0010  174.5160  145.5680 C   0  0  0  0  0  0  0  0  0  0  0  0
  196.7280  174.9710  144.6460 O   0  0  0  0  0  0  0  0  0  0  0  0
  197.1030  172.2410  145.3590 C   0  0  0  0  0  2  0  0  0  0  0  0
  195.0580  170.8900  145.7310 C   0  0  0  0  0  1  0  0  0  0  0  0
  196.4780  170.8650  145.2030 C   0  0  0  0  0  2  0  0  0  0  0  0
  189.1860  174.4840  144.8140 C   0  0  1  0  0  3  0  0  0  0  0  0
  190.0400  174.0890  145.8320 F   0  0  0  0  0  0  0  0  0  0  0  0
  189.8950  177.8190  145.6700 O   0  0  0  0  0  0  0  0  0  0  0  0
  188.7620  175.9370  145.0540 C   0  0  1  0  0  3  0  0  0  0  0  0
  188.4570  176.1810  146.5030 C   0  0  1  0  0  3  0  0  0  0  0  0
  189.4920  177.2070  146.8620 C   0  0  0  0  0  2  0  0  0  0  0  0
  189.8580  176.8380  144.7250 N   0  0  0  0  0  2  0  0  0  0  0  0
  187.0620  176.7790  146.6170 C   0  0  0  0  0  2  0  0  0  0  0  0
  186.2860  176.5660  145.3290 C   0  0  0  0  0  2  0  0  0  0  0  0
  185.9070  179.1800  145.6930 O   0  0  0  0  0  0  0  0  0  0  0  0
  184.4300  178.0560  144.0840 O   0  0  0  0  0  0  0  0  0  0  0  0
  185.8310  178.1320  144.6190 S   0  0  0  0  0  0  0  0  0  0  0  0
  187.0170  177.7580  142.1360 C   0  0  0  0  0  0  0  0  0  0  0  0
  186.9240  178.5300  143.3350 N   0  0  0  0  0  2  0  0  0  0  0  0
  187.9860  178.0760  141.1910 O   0  0  0  0  0  0  0  0  0  0  0  0
  186.2330  176.7880  141.9300 O   0  0  0  0  0  1  0  0  0  0  0  0
  1  8  2  0  0  0  0
  2 13  1  0  0  0  0
  2  9  1  0  0  0  0
  3 13  1  0  0  0  0
  4  1  1  6  0  0  0
  4  2  1  0  0  0  0
  7 11  1  0  0  0  0
  9  6  1  0  0  0  0
  9  5  2  0  0  0  0
 10  7  1  0  0  0  0
 11  4  1  0  0  0  0
 11  3  1  6  0  0  0
 12  7  1  0  0  0  0
 12  1  1  0  0  0  0
 13 26  1  1  0  0  0
 14  6  1  0  0  0  0
 14 15  1  0  0  0  0
 15 17  1  0  0  0  0
 16 15  2  0  0  0  0
 17 19  1  0  0  0  0
 17 18  2  0  0  0  0
 21 20  1  0  0  0  0
 21 19  1  0  0  0  0
 22 21  2  0  0  0  0
 23 20  1  0  0  0  0
 25 23  1  0  0  0  0
 25 24  1  0  0  0  0
 26 27  1  1  0  0  0
 28 31  1  0  0  0  0
 29 26  1  1  0  0  0
 29 30  1  0  0  0  0
 30 33  1  6  0  0  0
 30 31  1  0  0  0  0
 32 29  1  0  0  0  0
 32 28  1  0  0  0  0
 34 33  1  0  0  0  0
 36 37  2  0  0  0  0
 37 34  1  0  0  0  0
 37 35  2  0  0  0  0
 38 39  1  0  0  0  0
 39 37  1  0  0  0  0
 40 38  2  0  0  0  0
 41 38  1  0  0  0  0
M  END
>  <MODEL>
3

>  <REMARK>
 VINA RESULT:      -7.1      2.687      8.304
  Name = 
  12 active torsions:
  status: ('A' for Active; 'I' for Inactive)
    1  A    between atoms: C_1  and  N_29
    2  A    between atoms: C_1  and  C_38
    3  A    between atoms: N_2  and  N_15
    4  A    between atoms: O_3  and  C_12
    5  A    between atoms: O_3  and  C_31
    6  A    between atoms: C_12  and  C_27
    7  A    between atoms: N_13  and  S_33
    8  A    between atoms: C_14  and  C_24
    9  A    between atoms: C_17  and  C_34
   10  A    between atoms: C_19  and  S_33
   11  A    between atoms: C_19  and  C_34
   12  A    between atoms: C_24  and  C_37
                            x       y       z     vdW  Elec       q    Type
                         _______ _______ _______ _____ _____    ______ ____

>  <TORSDO>
F 12

$$$$
=
 OpenBabel11042419573D

 41 43  0  0  1  0  0  0  0  0999 V2000
  188.4180  174.9130  141.2370 C   0  0  0  0  0  0  0  0  0  0  0  0
  189.7270  176.4000  142.7910 N   0  0  0  0  0  0  0  0  0  0  0  0
  190.8560  174.4250  143.5910 C   0  0  0  0  0  2  0  0  0  0  0  0
  189.5720  175.3410  141.8640 C   0  0  1  0  0  3  0  0  0  0  0  0
  188.7400  178.2380  141.7630 O   0  0  0  0  0  0  0  0  0  0  0  0
  188.2400  177.9880  144.0110 N   0  0  0  0  0  2  0  0  0  0  0  0
  189.4270  173.1520  141.9210 N   0  0  0  0  0  0  0  0  0  0  0  0
  187.4940  175.6490  140.7980 O   0  0  0  0  0  0  0  0  0  0  0  0
  188.9070  177.5750  142.8180 C   0  0  0  0  0  0  0  0  0  0  0  0
  189.6190  171.7790  142.3590 C   0  0  0  0  0  1  0  0  0  0  0  0
  190.1710  174.2140  142.2880 C   0  0  2  0  0  3  0  0  0  0  0  0
  188.3530  173.5670  141.2600 N   0  0  0  0  0  2  0  0  0  0  0  0
  190.5710  175.9220  143.8960 C   0  0  1  0  0  3  0  0  0  0  0  0
  188.2880  177.2330  145.1920 N   0  0  0  0  0  2  0  0  0  0  0  0
  187.2000  177.1510  146.1220 C   0  0  0  0  0  0  0  0  0  0  0  0
  187.2980  176.3470  147.0850 O   0  0  0  0  0  0  0  0  0  0  0  0
  185.9520  177.9330  145.9860 C   0  0  0  0  0  0  0  0  0  0  0  0
  185.6220  178.8450  146.8970 C   0  0  0  0  0  2  0  0  0  0  0  0
  185.1140  177.6350  144.8970 O   0  0  0  0  0  0  0  0  0  0  0  0
  184.8100  177.6580  142.4360 N   0  0  0  0  0  2  0  0  0  0  0  0
  185.0190  178.3310  143.6830 C   0  0  0  0  0  0  0  0  0  0  0  0
  185.1200  179.5870  143.7010 O   0  0  0  0  0  0  0  0  0  0  0  0
  184.6730  178.3620  141.1700 C   0  0  0  0  0  2  0  0  0  0  0  0
  182.1950  178.3280  141.1380 C   0  0  0  0  0  1  0  0  0  0  0  0
  183.4480  177.8630  140.4250 C   0  0  0  0  0  2  0  0  0  0  0  0
  191.8750  176.7260  143.9670 C   0  0  1  0  0  3  0  0  0  0  0  0
  191.6200  177.9470  144.5730 F   0  0  0  0  0  0  0  0  0  0  0  0
  193.7790  176.2260  146.8800 O   0  0  0  0  0  0  0  0  0  0  0  0
  192.9560  175.9890  144.7650 C   0  0  1  0  0  3  0  0  0  0  0  0
  194.2830  176.6800  144.6470 C   0  0  1  0  0  3  0  0  0  0  0  0
  194.5500  177.0700  146.0710 C   0  0  0  0  0  2  0  0  0  0  0  0
  192.6280  176.0060  146.1840 N   0  0  0  0  0  2  0  0  0  0  0  0
  195.3210  175.6730  144.1750 C   0  0  0  0  0  2  0  0  0  0  0  0
  194.7220  174.2780  144.1220 C   0  0  0  0  0  2  0  0  0  0  0  0
  196.4930  173.7870  146.0530 O   0  0  0  0  0  0  0  0  0  0  0  0
  196.8440  172.6450  143.9070 O   0  0  0  0  0  0  0  0  0  0  0  0
  195.8150  173.1090  144.8970 S   0  0  0  0  0  0  0  0  0  0  0  0
  195.5220  170.5920  146.0340 C   0  0  0  0  0  0  0  0  0  0  0  0
  194.9040  171.7490  145.4690 N   0  0  0  0  0  2  0  0  0  0  0  0
  194.7370  169.4970  146.3790 O   0  0  0  0  0  1  0  0  0  0  0  0
  196.7730  170.5500  146.2150 O   0  0  0  0  0  0  0  0  0  0  0  0
  1 12  1  0  0  0  0
  2  9  1  0  0  0  0
  2 13  1  0  0  0  0
  3 13  1  0  0  0  0
  4  1  1  1  0  0  0
  4 11  1  0  0  0  0
  4  2  1  0  0  0  0
  5  9  2  0  0  0  0
  6 14  1  0  0  0  0
  7 11  1  0  0  0  0
  7 10  1  0  0  0  0
  8  1  2  0  0  0  0
  9  6  1  0  0  0  0
 11  3  1  1  0  0  0
 12  7  1  0  0  0  0
 13 26  1  6  0  0  0
 14 15  1  0  0  0  0
 15 16  2  0  0  0  0
 17 15  1  0  0  0  0
 17 18  2  0  0  0  0
 19 17  1  0  0  0  0
 20 21  1  0  0  0  0
 21 22  2  0  0  0  0
 21 19  1  0  0  0  0
 23 20  1  0  0  0  0
 25 24  1  0  0  0  0
 25 23  1  0  0  0  0
 26 27  1  1  0  0  0
 29 26  1  6  0  0  0
 29 32  1  0  0  0  0
 30 33  1  1  0  0  0
 30 29  1  0  0  0  0
 30 31  1  0  0  0  0
 31 28  1  0  0  0  0
 32 28  1  0  0  0  0
 34 33  1  0  0  0  0
 34 37  1  0  0  0  0
 36 37  2  0  0  0  0
 37 39  1  0  0  0  0
 37 35  2  0  0  0  0
 38 41  2  0  0  0  0
 38 40  1  0  0  0  0
 39 38  1  0  0  0  0
M  END
>  <MODEL>
4

>  <REMARK>
 VINA RESULT:      -7.0      1.605      1.894
  Name = 
  12 active torsions:
  status: ('A' for Active; 'I' for Inactive)
    1  A    between atoms: C_1  and  N_29
    2  A    between atoms: C_1  and  C_38
    3  A    between atoms: N_2  and  N_15
    4  A    between atoms: O_3  and  C_12
    5  A    between atoms: O_3  and  C_31
    6  A    between atoms: C_12  and  C_27
    7  A    between atoms: N_13  and  S_33
    8  A    between atoms: C_14  and  C_24
    9  A    between atoms: C_17  and  C_34
   10  A    between atoms: C_19  and  S_33
   11  A    between atoms: C_19  and  C_34
   12  A    between atoms: C_24  and  C_37
                            x       y       z     vdW  Elec       q    Type
                         _______ _______ _______ _____ _____    ______ ____

>  <TORSDO>
F 12

$$$$
=
 OpenBabel11042419573D

 41 43  0  0  1  0  0  0  0  0999 V2000
  192.5590  176.3550  146.7870 C   0  0  0  0  0  0  0  0  0  0  0  0
  190.8550  175.5040  145.1380 N   0  0  0  0  0  0  0  0  0  0  0  0
  192.6510  175.2410  143.5500 C   0  0  0  0  0  2  0  0  0  0  0  0
  192.1020  175.4910  145.8110 C   0  0  1  0  0  3  0  0  0  0  0  0
  189.2670  175.5790  146.8360 O   0  0  0  0  0  0  0  0  0  0  0  0
  188.8510  176.9860  145.0440 N   0  0  0  0  0  2  0  0  0  0  0  0
  194.1680  176.1050  145.3950 N   0  0  0  0  0  0  0  0  0  0  0  0
  191.8740  176.8430  147.7260 O   0  0  0  0  0  0  0  0  0  0  0  0
  189.6370  175.9980  145.7100 C   0  0  0  0  0  0  0  0  0  0  0  0
  195.3860  176.4020  144.6590 C   0  0  0  0  0  1  0  0  0  0  0  0
  193.1310  175.3680  144.9530 C   0  0  2  0  0  3  0  0  0  0  0  0
  193.8340  176.7060  146.5310 N   0  0  0  0  0  2  0  0  0  0  0  0
  191.1060  175.3020  143.7040 C   0  0  1  0  0  3  0  0  0  0  0  0
  189.2630  177.5820  143.8410 N   0  0  0  0  0  2  0  0  0  0  0  0
  188.3850  177.8100  142.7330 C   0  0  0  0  0  0  0  0  0  0  0  0
  188.8230  178.4640  141.7500 O   0  0  0  0  0  0  0  0  0  0  0  0
  186.9790  177.3520  142.6980 C   0  0  0  0  0  0  0  0  0  0  0  0
  186.6900  176.0690  142.5010 C   0  0  0  0  0  2  0  0  0  0  0  0
  185.9750  178.3290  142.8240 O   0  0  0  0  0  0  0  0  0  0  0  0
  184.8860  178.0820  145.0390 N   0  0  0  0  0  2  0  0  0  0  0  0
  185.4770  178.8860  144.0110 C   0  0  0  0  0  0  0  0  0  0  0  0
  185.5600  180.1330  144.1700 O   0  0  0  0  0  0  0  0  0  0  0  0
  184.3960  178.6340  146.2920 C   0  0  0  0  0  2  0  0  0  0  0  0
  186.1390  177.3150  147.4600 C   0  0  0  0  0  1  0  0  0  0  0  0
  185.5190  178.6890  147.3120 C   0  0  0  0  0  2  0  0  0  0  0  0
  190.4540  174.0010  143.2200 C   0  0  1  0  0  3  0  0  0  0  0  0
  189.1310  174.2530  142.8920 F   0  0  0  0  0  0  0  0  0  0  0  0
  190.4620  172.7650  139.9290 O   0  0  0  0  0  0  0  0  0  0  0  0
  191.1720  173.4250  141.9940 C   0  0  1  0  0  3  0  0  0  0  0  0
  191.1350  171.9250  141.9990 C   0  0  1  0  0  3  0  0  0  0  0  0
  190.3550  171.6360  140.7500 C   0  0  0  0  0  2  0  0  0  0  0  0
  190.4840  173.8320  140.7770 N   0  0  0  0  0  2  0  0  0  0  0  0
  192.5570  171.3990  141.8650 C   0  0  0  0  0  2  0  0  0  0  0  0
  192.8370  170.3480  142.9260 C   0  0  0  0  0  2  0  0  0  0  0  0
  194.1550  169.9630  145.2110 O   0  0  0  0  0  0  0  0  0  0  0  0
  192.8810  172.0520  145.0020 O   0  0  0  0  0  0  0  0  0  0  0  0
  193.7480  171.0650  144.2750 S   0  0  0  0  0  0  0  0  0  0  0  0
  196.0340  172.6250  144.5010 C   0  0  0  0  0  0  0  0  0  0  0  0
  195.1590  171.8660  143.6650 N   0  0  0  0  0  2  0  0  0  0  0  0
  197.0900  173.3250  143.9280 O   0  0  0  0  0  0  0  0  0  0  0  0
  195.8530  172.6740  145.7510 O   0  0  0  0  0  1  0  0  0  0  0  0
  1  8  2  0  0  0  0
  2  9  1  0  0  0  0
  2  4  1  0  0  0  0
  3 13  1  0  0  0  0
  4  1  1  6  0  0  0
  6  9  1  0  0  0  0
  7 12  1  0  0  0  0
  9  5  2  0  0  0  0
 10  7  1  0  0  0  0
 11  3  1  6  0  0  0
 11  7  1  0  0  0  0
 11  4  1  0  0  0  0
 12  1  1  0  0  0  0
 13 26  1  1  0  0  0
 13  2  1  0  0  0  0
 14  6  1  0  0  0  0
 15 14  1  0  0  0  0
 16 15  2  0  0  0  0
 17 15  1  0  0  0  0
 17 19  1  0  0  0  0
 18 17  2  0  0  0  0
 19 21  1  0  0  0  0
 20 23  1  0  0  0  0
 21 22  2  0  0  0  0
 21 20  1  0  0  0  0
 23 25  1  0  0  0  0
 25 24  1  0  0  0  0
 26 27  1  6  0  0  0
 28 31  1  0  0  0  0
 28 32  1  0  0  0  0
 29 30  1  0  0  0  0
 29 26  1  1  0  0  0
 30 33  1  6  0  0  0
 31 30  1  0  0  0  0
 32 29  1  0  0  0  0
 33 34  1  0  0  0  0
 34 37  1  0  0  0  0
 37 36  2  0  0  0  0
 37 35  2  0  0  0  0
 38 41  1  0  0  0  0
 39 37  1  0  0  0  0
 39 38  1  0  0  0  0
 40 38  2  0  0  0  0
M  END
>  <MODEL>
5

>  <REMARK>
 VINA RESULT:      -6.9      2.178      4.888
  Name = 
  12 active torsions:
  status: ('A' for Active; 'I' for Inactive)
    1  A    between atoms: C_1  and  N_29
    2  A    between atoms: C_1  and  C_38
    3  A    between atoms: N_2  and  N_15
    4  A    between atoms: O_3  and  C_12
    5  A    between atoms: O_3  and  C_31
    6  A    between atoms: C_12  and  C_27
    7  A    between atoms: N_13  and  S_33
    8  A    between atoms: C_14  and  C_24
    9  A    between atoms: C_17  and  C_34
   10  A    between atoms: C_19  and  S_33
   11  A    between atoms: C_19  and  C_34
   12  A    between atoms: C_24  and  C_37
                            x       y       z     vdW  Elec       q    Type
                         _______ _______ _______ _____ _____    ______ ____

>  <TORSDO>
F 12

$$$$
=
 OpenBabel11042419573D

 41 43  0  0  1  0  0  0  0  0999 V2000
  195.7820  174.8140  143.2120 C   0  0  0  0  0  0  0  0  0  0  0  0
  193.5570  175.6290  144.0670 N   0  0  0  0  0  0  0  0  0  0  0  0
  194.3310  175.1380  146.2970 C   0  0  0  0  0  2  0  0  0  0  0  0
  194.9690  175.5190  144.0790 C   0  0  1  0  0  3  0  0  0  0  0  0
  193.0320  176.2790  141.8960 O   0  0  0  0  0  0  0  0  0  0  0  0
  191.6620  174.6360  142.7850 N   0  0  0  0  0  0  0  0  0  0  0  0
  196.4920  174.3940  145.1890 N   0  0  0  0  0  0  0  0  0  0  0  0
  195.6220  174.7060  141.9660 O   0  0  0  0  0  0  0  0  0  0  0  0
  192.7530  175.5520  142.8830 C   0  0  0  0  0  0  0  0  0  0  0  0
  197.1490  173.6840  146.2740 C   0  0  0  0  0  1  0  0  0  0  0  0
  195.4370  175.2220  145.3050 C   0  0  2  0  0  3  0  0  0  0  0  0
  196.7240  174.1460  143.9050 N   0  0  0  0  0  2  0  0  0  0  0  0
  193.0720  175.4500  145.4430 C   0  0  1  0  0  3  0  0  0  0  0  0
  191.3670  173.7150  143.8010 N   0  0  0  0  0  0  0  0  0  0  0  0
  190.3920  172.6740  143.6650 C   0  0  0  0  0  0  0  0  0  0  0  0
  190.2930  171.8240  144.5880 O   0  0  0  0  0  0  0  0  0  0  0  0
  189.5220  172.5230  142.4780 C   0  0  0  0  0  0  0  0  0  0  0  0
  189.8520  171.6850  141.4990 C   0  0  0  0  0  2  0  0  0  0  0  0
  188.3760  173.3350  142.4060 O   0  0  0  0  0  0  0  0  0  0  0  0
  187.5550  175.6620  142.1610 N   0  0  0  0  0  2  0  0  0  0  0  0
  188.2070  174.4980  141.6400 C   0  0  0  0  0  0  0  0  0  0  0  0
  188.6470  174.5090  140.4600 O   0  0  0  0  0  0  0  0  0  0  0  0
  187.4000  176.8910  141.3970 C   0  0  0  0  0  2  0  0  0  0  0  0
  189.4750  177.8180  142.3890 C   0  0  0  0  0  1  0  0  0  0  0  0
  187.9970  178.0590  142.1620 C   0  0  0  0  0  2  0  0  0  0  0  0
  192.3730  176.7220  145.9380 C   0  0  1  0  0  3  0  0  0  0  0  0
  192.0650  177.5230  144.8490 F   0  0  0  0  0  0  0  0  0  0  0  0
  189.7640  174.5470  146.8440 O   0  0  0  0  0  0  0  0  0  0  0  0
  191.0840  176.4020  146.7040 C   0  0  1  0  0  3  0  0  0  0  0  0
  189.8720  176.6580  145.8560 C   0  0  1  0  0  3  0  0  0  0  0  0
  189.2730  175.2850  145.7610 C   0  0  0  0  0  2  0  0  0  0  0  0
  191.0400  174.9850  147.0370 N   0  0  0  0  0  2  0  0  0  0  0  0
  188.9340  177.5900  146.6090 C   0  0  0  0  0  2  0  0  0  0  0  0
  187.6750  177.8450  145.7980 C   0  0  0  0  0  2  0  0  0  0  0  0
  186.6860  178.9250  148.0250 O   0  0  0  0  0  0  0  0  0  0  0  0
  185.8420  176.7060  147.3970 O   0  0  0  0  0  0  0  0  0  0  0  0
  186.2770  178.0460  146.8780 S   0  0  0  0  0  0  0  0  0  0  0  0
  184.5610  178.3460  144.7150 C   0  0  0  0  0  0  0  0  0  0  0  0
  184.9710  178.7860  146.0100 N   0  0  0  0  0  2  0  0  0  0  0  0
  183.5730  179.0490  144.0350 O   0  0  0  0  0  0  0  0  0  0  0  0
  185.0910  177.3310  144.1790 O   0  0  0  0  0  1  0  0  0  0  0  0
  1 12  1  0  0  0  0
  2  4  1  0  0  0  0
  2 13  1  0  0  0  0
  4  1  1  6  0  0  0
  4 11  1  0  0  0  0
  5  9  2  0  0  0  0
  6  9  1  0  0  0  0
  6 14  2  0  0  0  0
  7 11  1  0  0  0  0
  7 10  1  0  0  0  0
  8  1  2  0  0  0  0
  9  2  1  0  0  0  0
 11  3  1  1  0  0  0
 12  7  1  0  0  0  0
 13 26  1  1  0  0  0
 13  3  1  0  0  0  0
 15 14  1  0  0  0  0
 15 16  2  0  0  0  0
 17 15  1  0  0  0  0
 18 17  2  0  0  0  0
 19 17  1  0  0  0  0
 21 20  1  0  0  0  0
 21 19  1  0  0  0  0
 22 21  2  0  0  0  0
 23 20  1  0  0  0  0
 23 25  1  0  0  0  0
 25 24  1  0  0  0  0
 26 27  1  6  0  0  0
 28 32  1  0  0  0  0
 29 26  1  6  0  0  0
 29 32  1  0  0  0  0
 30 33  1  1  0  0  0
 30 29  1  0  0  0  0
 31 30  1  0  0  0  0
 31 28  1  0  0  0  0
 34 33  1  0  0  0  0
 34 37  1  0  0  0  0
 37 36  2  0  0  0  0
 37 35  2  0  0  0  0
 38 39  1  0  0  0  0
 39 37  1  0  0  0  0
 40 38  2  0  0  0  0
 41 38  1  0  0  0  0
M  END
>  <MODEL>
6

>  <REMARK>
 VINA RESULT:      -6.9      2.869      7.361
  Name = 
  12 active torsions:
  status: ('A' for Active; 'I' for Inactive)
    1  A    between atoms: C_1  and  N_29
    2  A    between atoms: C_1  and  C_38
    3  A    between atoms: N_2  and  N_15
    4  A    between atoms: O_3  and  C_12
    5  A    between atoms: O_3  and  C_31
    6  A    between atoms: C_12  and  C_27
    7  A    between atoms: N_13  and  S_33
    8  A    between atoms: C_14  and  C_24
    9  A    between atoms: C_17  and  C_34
   10  A    between atoms: C_19  and  S_33
   11  A    between atoms: C_19  and  C_34
   12  A    between atoms: C_24  and  C_37
                            x       y       z     vdW  Elec       q    Type
                         _______ _______ _______ _____ _____    ______ ____

>  <TORSDO>
F 12

$$$$
=
 OpenBabel11042419573D

 41 43  0  0  1  0  0  0  0  0999 V2000
  193.0590  176.3700  143.5620 C   0  0  0  0  0  0  0  0  0  0  0  0
  190.8900  175.2910  144.2490 N   0  0  0  0  0  0  0  0  0  0  0  0
  191.8620  174.9210  146.4240 C   0  0  0  0  0  2  0  0  0  0  0  0
  192.0110  176.1370  144.4310 C   0  0  1  0  0  3  0  0  0  0  0  0
  189.9970  175.9240  142.1960 O   0  0  0  0  0  0  0  0  0  0  0  0
  190.1100  173.6380  142.5510 N   0  0  0  0  0  2  0  0  0  0  0  0
  193.9290  176.0690  145.4960 N   0  0  0  0  0  0  0  0  0  0  0  0
  192.9740  176.4820  142.3090 O   0  0  0  0  0  0  0  0  0  0  0  0
  190.3090  174.9870  142.9750 C   0  0  0  0  0  0  0  0  0  0  0  0
  194.9260  175.7350  146.5010 C   0  0  0  0  0  1  0  0  0  0  0  0
  192.5950  175.9420  145.6280 C   0  0  2  0  0  3  0  0  0  0  0  0
  194.2280  176.3480  144.2330 N   0  0  0  0  0  2  0  0  0  0  0  0
  190.6930  174.5190  145.4840 C   0  0  1  0  0  3  0  0  0  0  0  0
  190.5400  172.5440  143.3180 N   0  0  0  0  0  2  0  0  0  0  0  0
  191.8020  171.8930  143.1270 C   0  0  0  0  0  0  0  0  0  0  0  0
  192.1450  171.0040  143.9490 O   0  0  0  0  0  0  0  0  0  0  0  0
  192.7400  172.2390  142.0370 C   0  0  0  0  0  0  0  0  0  0  0  0
  193.7520  173.0740  142.2540 C   0  0  0  0  0  2  0  0  0  0  0  0
  192.4840  171.6970  140.7640 O   0  0  0  0  0  0  0  0  0  0  0  0
  190.3040  171.4450  139.6090 N   0  0  0  0  0  2  0  0  0  0  0  0
  191.5370  172.1400  139.8280 C   0  0  0  0  0  0  0  0  0  0  0  0
  191.7880  173.1830  139.1680 O   0  0  0  0  0  0  0  0  0  0  0  0
  189.2930  171.9060  138.6700 C   0  0  0  0  0  2  0  0  0  0  0  0
  188.4570  174.1570  139.2820 C   0  0  0  0  0  1  0  0  0  0  0  0
  188.2050  172.6690  139.4060 C   0  0  0  0  0  2  0  0  0  0  0  0
  189.3370  174.8540  146.1190 C   0  0  1  0  0  3  0  0  0  0  0  0
  189.4060  174.6160  147.4830 F   0  0  0  0  0  0  0  0  0  0  0  0
  188.2460  177.9920  147.2700 O   0  0  0  0  0  0  0  0  0  0  0  0
  188.9450  176.3180  145.8860 C   0  0  1  0  0  3  0  0  0  0  0  0
  187.4630  176.4580  145.6940 C   0  0  1  0  0  3  0  0  0  0  0  0
  187.0860  177.3210  146.8630 C   0  0  0  0  0  2  0  0  0  0  0  0
  189.2670  177.1140  147.0630 N   0  0  0  0  0  2  0  0  0  0  0  0
  187.2050  177.1980  144.3900 C   0  0  0  0  0  2  0  0  0  0  0  0
  185.8090  176.8940  143.8740 C   0  0  0  0  0  2  0  0  0  0  0  0
  185.7610  179.5450  143.6020 O   0  0  0  0  0  0  0  0  0  0  0  0
  184.0990  178.5530  145.1140 O   0  0  0  0  0  0  0  0  0  0  0  0
  184.8360  178.3820  143.8180 S   0  0  0  0  0  0  0  0  0  0  0  0
  184.1030  178.2840  141.1400 C   0  0  0  0  0  0  0  0  0  0  0  0
  183.7010  178.2870  142.5110 N   0  0  0  0  0  2  0  0  0  0  0  0
  183.1350  178.3070  140.1430 O   0  0  0  0  0  0  0  0  0  0  0  0
  185.3280  178.2670  140.8260 O   0  0  0  0  0  1  0  0  0  0  0  0
  1 12  1  0  0  0  0
  2  4  1  0  0  0  0
  2 13  1  0  0  0  0
  4  1  1  6  0  0  0
  4 11  1  0  0  0  0
  5  9  2  0  0  0  0
  6  9  1  0  0  0  0
  6 14  1  0  0  0  0
  7 11  1  0  0  0  0
  7 10  1  0  0  0  0
  8  1  2  0  0  0  0
  9  2  1  0  0  0  0
 11  3  1  6  0  0  0
 12  7  1  0  0  0  0
 13 26  1  1  0  0  0
 13  3  1  0  0  0  0
 15 14  1  0  0  0  0
 15 16  2  0  0  0  0
 17 18  2  0  0  0  0
 17 15  1  0  0  0  0
 19 17  1  0  0  0  0
 20 21  1  0  0  0  0
 21 19  1  0  0  0  0
 22 21  2  0  0  0  0
 23 25  1  0  0  0  0
 23 20  1  0  0  0  0
 24 25  1  0  0  0  0
 26 27  1  1  0  0  0
 29 26  1  1  0  0  0
 29 32  1  0  0  0  0
 30 33  1  6  0  0  0
 30 29  1  0  0  0  0
 30 31  1  0  0  0  0
 31 28  1  0  0  0  0
 32 28  1  0  0  0  0
 34 33  1  0  0  0  0
 35 37  2  0  0  0  0
 37 34  1  0  0  0  0
 37 36  2  0  0  0  0
 38 39  1  0  0  0  0
 39 37  1  0  0  0  0
 40 38  2  0  0  0  0
 41 38  1  0  0  0  0
M  END
>  <MODEL>
7

>  <REMARK>
 VINA RESULT:      -6.8      3.040      8.251
  Name = 
  12 active torsions:
  status: ('A' for Active; 'I' for Inactive)
    1  A    between atoms: C_1  and  N_29
    2  A    between atoms: C_1  and  C_38
    3  A    between atoms: N_2  and  N_15
    4  A    between atoms: O_3  and  C_12
    5  A    between atoms: O_3  and  C_31
    6  A    between atoms: C_12  and  C_27
    7  A    between atoms: N_13  and  S_33
    8  A    between atoms: C_14  and  C_24
    9  A    between atoms: C_17  and  C_34
   10  A    between atoms: C_19  and  S_33
   11  A    between atoms: C_19  and  C_34
   12  A    between atoms: C_24  and  C_37
                            x       y       z     vdW  Elec       q    Type
                         _______ _______ _______ _____ _____    ______ ____

>  <TORSDO>
F 12

$$$$
=
 OpenBabel11042419573D

 41 43  0  0  1  0  0  0  0  0999 V2000
  190.5080  171.3120  140.7000 C   0  0  0  0  0  0  0  0  0  0  0  0
  190.4080  173.1470  142.4220 N   0  0  0  0  0  0  0  0  0  0  0  0
  188.9980  174.3790  140.9030 C   0  0  0  0  0  2  0  0  0  0  0  0
  189.8600  172.2750  141.4510 C   0  0  1  0  0  3  0  0  0  0  0  0
  191.5700  171.7560  143.8800 O   0  0  0  0  0  0  0  0  0  0  0  0
  192.6760  173.7070  143.2980 N   0  0  0  0  0  2  0  0  0  0  0  0
  189.2380  172.3850  139.3490 N   0  0  0  0  0  0  0  0  0  0  0  0
  191.4250  170.5490  141.1040 O   0  0  0  0  0  0  0  0  0  0  0  0
  191.5470  172.8350  143.2350 C   0  0  0  0  0  0  0  0  0  0  0  0
  188.7360  172.9270  138.0970 C   0  0  0  0  0  1  0  0  0  0  0  0
  189.0840  172.9320  140.5700 C   0  0  2  0  0  3  0  0  0  0  0  0
  190.1000  171.3770  139.4180 N   0  0  0  0  0  2  0  0  0  0  0  0
  189.8750  174.4950  142.1800 C   0  0  1  0  0  3  0  0  0  0  0  0
  192.7670  174.8680  142.5160 N   0  0  0  0  0  2  0  0  0  0  0  0
  194.0060  175.5180  142.2080 C   0  0  0  0  0  0  0  0  0  0  0  0
  193.9900  176.4790  141.3950 O   0  0  0  0  0  0  0  0  0  0  0  0
  195.3090  175.0930  142.7650 C   0  0  0  0  0  0  0  0  0  0  0  0
  196.0190  174.1370  142.1730 C   0  0  0  0  0  2  0  0  0  0  0  0
  195.7310  175.6970  143.9630 O   0  0  0  0  0  0  0  0  0  0  0  0
  193.9980  176.4780  145.5560 N   0  0  0  0  0  2  0  0  0  0  0  0
  195.1010  175.6310  145.2150 C   0  0  0  0  0  0  0  0  0  0  0  0
  195.5250  174.7940  146.0560 O   0  0  0  0  0  0  0  0  0  0  0  0
  193.3080  176.4010  146.8340 C   0  0  0  0  0  2  0  0  0  0  0  0
  191.1820  175.6650  147.8750 C   0  0  0  0  0  1  0  0  0  0  0  0
  192.1640  175.4060  146.7510 C   0  0  0  0  0  2  0  0  0  0  0  0
  189.0420  174.9700  143.3780 C   0  0  1  0  0  3  0  0  0  0  0  0
  189.6580  174.5570  144.5490 F   0  0  0  0  0  0  0  0  0  0  0  0
  190.3960  178.2130  143.4940 O   0  0  0  0  0  0  0  0  0  0  0  0
  188.8960  176.4960  143.4010 C   0  0  1  0  0  3  0  0  0  0  0  0
  188.8820  177.0180  144.8080 C   0  0  1  0  0  3  0  0  0  0  0  0
  190.1100  177.8810  144.8240 C   0  0  0  0  0  2  0  0  0  0  0  0
  190.0480  177.1170  142.7620 N   0  0  0  0  0  2  0  0  0  0  0  0
  187.6380  177.8710  145.0040 C   0  0  0  0  0  2  0  0  0  0  0  0
  186.7360  177.7810  143.7850 C   0  0  0  0  0  2  0  0  0  0  0  0
  185.5660  180.1740  143.9020 O   0  0  0  0  0  0  0  0  0  0  0  0
  184.7250  178.4500  145.4360 O   0  0  0  0  0  0  0  0  0  0  0  0
  185.2450  178.7140  144.0530 S   0  0  0  0  0  0  0  0  0  0  0  0
  184.2960  178.2890  141.4770 C   0  0  0  0  0  0  0  0  0  0  0  0
  184.0510  178.2530  142.8840 N   0  0  0  0  0  2  0  0  0  0  0  0
  183.2610  178.0020  140.5950 O   0  0  0  0  0  0  0  0  0  0  0  0
  185.4400  178.5850  141.0280 O   0  0  0  0  0  1  0  0  0  0  0  0
  1  8  2  0  0  0  0
  2  9  1  0  0  0  0
  3 13  1  0  0  0  0
  4  1  1  6  0  0  0
  4  2  1  0  0  0  0
  7 12  1  0  0  0  0
  7 11  1  0  0  0  0
  9  6  1  0  0  0  0
  9  5  2  0  0  0  0
 10  7  1  0  0  0  0
 11  3  1  6  0  0  0
 11  4  1  0  0  0  0
 12  1  1  0  0  0  0
 13  2  1  0  0  0  0
 13 26  1  1  0  0  0
 14  6  1  0  0  0  0
 15 14  1  0  0  0  0
 15 17  1  0  0  0  0
 16 15  2  0  0  0  0
 17 19  1  0  0  0  0
 18 17  2  0  0  0  0
 19 21  1  0  0  0  0
 20 23  1  0  0  0  0
 21 20  1  0  0  0  0
 21 22  2  0  0  0  0
 25 23  1  0  0  0  0
 25 24  1  0  0  0  0
 26 27  1  1  0  0  0
 28 31  1  0  0  0  0
 29 26  1  1  0  0  0
 29 30  1  0  0  0  0
 30 31  1  0  0  0  0
 30 33  1  6  0  0  0
 32 29  1  0  0  0  0
 32 28  1  0  0  0  0
 34 37  1  0  0  0  0
 34 33  1  0  0  0  0
 35 37  2  0  0  0  0
 37 36  2  0  0  0  0
 38 39  1  0  0  0  0
 39 37  1  0  0  0  0
 40 38  2  0  0  0  0
 41 38  1  0  0  0  0
M  END
>  <MODEL>
8

>  <REMARK>
 VINA RESULT:      -6.8      2.952      8.541
  Name = 
  12 active torsions:
  status: ('A' for Active; 'I' for Inactive)
    1  A    between atoms: C_1  and  N_29
    2  A    between atoms: C_1  and  C_38
    3  A    between atoms: N_2  and  N_15
    4  A    between atoms: O_3  and  C_12
    5  A    between atoms: O_3  and  C_31
    6  A    between atoms: C_12  and  C_27
    7  A    between atoms: N_13  and  S_33
    8  A    between atoms: C_14  and  C_24
    9  A    between atoms: C_17  and  C_34
   10  A    between atoms: C_19  and  S_33
   11  A    between atoms: C_19  and  C_34
   12  A    between atoms: C_24  and  C_37
                            x       y       z     vdW  Elec       q    Type
                         _______ _______ _______ _____ _____    ______ ____

>  <TORSDO>
F 12

$$$$
=
 OpenBabel11042419573D

 41 43  0  0  1  0  0  0  0  0999 V2000
  190.4580  171.0200  140.1040 C   0  0  0  0  0  0  0  0  0  0  0  0
  190.3770  172.8700  141.8110 N   0  0  0  0  0  0  0  0  0  0  0  0
  189.1350  174.1770  140.2090 C   0  0  0  0  0  2  0  0  0  0  0  0
  189.8310  172.0260  140.8130 C   0  0  1  0  0  3  0  0  0  0  0  0
  191.3640  171.4190  143.3380 O   0  0  0  0  0  0  0  0  0  0  0  0
  192.6220  173.2930  142.8130 N   0  0  0  0  0  2  0  0  0  0  0  0
  189.3370  172.1600  138.6780 N   0  0  0  0  0  0  0  0  0  0  0  0
  191.3020  170.2030  140.5620 O   0  0  0  0  0  0  0  0  0  0  0  0
  191.4450  172.4930  142.6880 C   0  0  0  0  0  0  0  0  0  0  0  0
  188.9420  172.7230  137.3980 C   0  0  0  0  0  1  0  0  0  0  0  0
  189.1490  172.7240  139.8870 C   0  0  2  0  0  3  0  0  0  0  0  0
  190.1280  171.1010  138.8000 N   0  0  0  0  0  2  0  0  0  0  0  0
  189.9440  174.2470  141.5340 C   0  0  1  0  0  3  0  0  0  0  0  0
  192.8290  174.4410  142.0330 N   0  0  0  0  0  2  0  0  0  0  0  0
  193.6030  175.5640  142.4720 C   0  0  0  0  0  0  0  0  0  0  0  0
  193.8320  176.4880  141.6480 O   0  0  0  0  0  0  0  0  0  0  0  0
  194.1780  175.6770  143.8290 C   0  0  0  0  0  0  0  0  0  0  0  0
  195.3910  175.1970  144.0930 C   0  0  0  0  0  2  0  0  0  0  0  0
  193.3750  176.2540  144.8290 O   0  0  0  0  0  0  0  0  0  0  0  0
  191.6460  176.2500  146.6070 N   0  0  0  0  0  2  0  0  0  0  0  0
  192.6420  175.5850  145.8200 C   0  0  0  0  0  0  0  0  0  0  0  0
  192.8710  174.3620  146.0140 O   0  0  0  0  0  0  0  0  0  0  0  0
  190.8490  175.5680  147.6150 C   0  0  0  0  0  2  0  0  0  0  0  0
  188.3940  175.3010  147.4000 C   0  0  0  0  0  1  0  0  0  0  0  0
  189.7410  174.7700  146.9520 C   0  0  0  0  0  2  0  0  0  0  0  0
  189.0760  174.7810  142.6800 C   0  0  1  0  0  3  0  0  0  0  0  0
  189.5870  174.3250  143.8850 F   0  0  0  0  0  0  0  0  0  0  0  0
  190.1210  177.8900  143.9470 O   0  0  0  0  0  0  0  0  0  0  0  0
  189.0390  176.3140  142.7010 C   0  0  1  0  0  3  0  0  0  0  0  0
  188.0600  176.8190  143.7190 C   0  0  1  0  0  3  0  0  0  0  0  0
  188.9580  177.5700  144.6580 C   0  0  0  0  0  2  0  0  0  0  0  0
  190.3360  176.8380  143.1070 N   0  0  0  0  0  2  0  0  0  0  0  0
  187.0930  177.7770  143.0380 C   0  0  0  0  0  2  0  0  0  0  0  0
  185.6850  177.5790  143.5720 C   0  0  0  0  0  2  0  0  0  0  0  0
  183.6850  179.0380  144.5610 O   0  0  0  0  0  0  0  0  0  0  0  0
  185.7150  180.2460  143.8900 O   0  0  0  0  0  0  0  0  0  0  0  0
  185.1850  178.9940  144.5270 S   0  0  0  0  0  0  0  0  0  0  0  0
  185.4980  177.7480  146.9890 C   0  0  0  0  0  0  0  0  0  0  0  0
  185.8040  178.8560  146.1410 N   0  0  0  0  0  2  0  0  0  0  0  0
  185.9460  177.7520  148.3060 O   0  0  0  0  0  1  0  0  0  0  0  0
  184.8210  176.7710  146.5590 O   0  0  0  0  0  0  0  0  0  0  0  0
  1  8  2  0  0  0  0
  2  9  1  0  0  0  0
  3 13  1  0  0  0  0
  4  1  1  6  0  0  0
  4  2  1  0  0  0  0
  7 12  1  0  0  0  0
  7 11  1  0  0  0  0
  9  6  1  0  0  0  0
  9  5  2  0  0  0  0
 10  7  1  0  0  0  0
 11  3  1  6  0  0  0
 11  4  1  0  0  0  0
 12  1  1  0  0  0  0
 13  2  1  0  0  0  0
 13 26  1  1  0  0  0
 14 15  1  0  0  0  0
 14  6  1  0  0  0  0
 15 17  1  0  0  0  0
 16 15  2  0  0  0  0
 17 18  2  0  0  0  0
 17 19  1  0  0  0  0
 19 21  1  0  0  0  0
 20 23  1  0  0  0  0
 21 22  2  0  0  0  0
 21 20  1  0  0  0  0
 25 24  1  0  0  0  0
 25 23  1  0  0  0  0
 26 27  1  1  0  0  0
 28 31  1  0  0  0  0
 29 26  1  1  0  0  0
 29 32  1  0  0  0  0
 29 30  1  0  0  0  0
 30 33  1  6  0  0  0
 30 31  1  0  0  0  0
 32 28  1  0  0  0  0
 33 34  1  0  0  0  0
 34 37  1  0  0  0  0
 36 37  2  0  0  0  0
 37 35  2  0  0  0  0
 37 39  1  0  0  0  0
 38 40  1  0  0  0  0
 39 38  1  0  0  0  0
 41 38  2  0  0  0  0
M  END
>  <MODEL>
9

>  <REMARK>
 VINA RESULT:      -6.7      3.058      7.978
  Name = 
  12 active torsions:
  status: ('A' for Active; 'I' for Inactive)
    1  A    between atoms: C_1  and  N_29
    2  A    between atoms: C_1  and  C_38
    3  A    between atoms: N_2  and  N_15
    4  A    between atoms: O_3  and  C_12
    5  A    between atoms: O_3  and  C_31
    6  A    between atoms: C_12  and  C_27
    7  A    between atoms: N_13  and  S_33
    8  A    between atoms: C_14  and  C_24
    9  A    between atoms: C_17  and  C_34
   10  A    between atoms: C_19  and  S_33
   11  A    between atoms: C_19  and  C_34
   12  A    between atoms: C_24  and  C_37
                            x       y       z     vdW  Elec       q    Type
                         _______ _______ _______ _____ _____    ______ ____

>  <TORSDO>
F 12

$$$$
