=
 OpenBabel11042414223D

 27 30  0  0  1  0  0  0  0  0999 V2000
  193.1700  176.7580  147.1390 C   0  0  0  0  0  3  0  0  0  0  0  0
  194.0970  174.1470  144.1870 O   0  0  0  0  0  0  0  0  0  0  0  0
  193.6380  174.9100  145.1430 C   0  0  0  0  0  0  0  0  0  0  0  0
  190.0760  174.7540  144.8150 C   0  0  0  0  0  2  0  0  0  0  0  0
  189.1240  174.9710  145.9970 C   0  0  1  0  0  3  0  0  0  0  0  0
  191.3210  173.9780  145.2140 C   0  0  0  0  0  2  0  0  0  0  0  0
  192.1370  175.8700  146.7610 C   0  0  0  0  0  0  0  0  0  0  0  0
  195.7350  175.5450  144.8040 N   0  0  0  0  0  0  0  0  0  0  0  0
  194.6250  175.7640  145.5260 C   0  0  0  0  0  0  0  0  0  0  0  0
  194.4330  176.7140  146.5230 C   0  0  0  0  0  3  0  0  0  0  0  0
  189.7950  175.0070  147.3750 C   0  0  0  0  0  2  0  0  0  0  0  0
  190.8770  175.9840  147.4390 N   0  0  0  0  0  2  0  0  0  0  0  0
  192.3690  174.9200  145.7240 C   0  0  0  0  0  0  0  0  0  0  0  0
  195.3490  174.5290  143.9890 C   0  0  0  0  0  0  0  0  0  0  0  0
  186.5390  178.3670  145.4080 C   0  0  0  0  0  0  0  0  0  0  0  0
  186.5470  177.6750  146.6310 C   0  0  0  0  0  0  0  0  0  0  0  0
  188.2250  176.8390  144.5530 C   0  0  0  0  0  3  0  0  0  0  0  0
  185.6640  178.0980  147.7540 C   0  0  0  0  0  1  0  0  0  0  0  0
  188.2280  176.1490  145.7740 C   0  0  0  0  0  0  0  0  0  0  0  0
  187.3850  177.9400  144.3720 C   0  0  0  0  0  3  0  0  0  0  0  0
  187.3890  176.5730  146.8080 C   0  0  0  0  0  3  0  0  0  0  0  0
  185.6910  179.4700  145.2410 O   0  0  0  0  0  0  0  0  0  0  0  0
  184.5560  179.4450  144.3870 C   0  0  0  0  0  1  0  0  0  0  0  0
  196.2570  173.9340  142.9920 C   0  0  0  0  0  3  0  0  0  0  0  0
  196.3560  174.3210  141.7560 N   0  0  0  0  0  0  0  0  0  0  0  0
  195.5870  175.4030  141.1610 C   0  0  0  0  0  2  0  0  0  0  0  0
  196.3220  176.6470  141.2890 N   0  0  0  0  0  1  0  0  0  0  0  0
  2  3  1  0  0  0  0
  3  9  2  0  0  0  0
  3 13  1  0  0  0  0
  4  6  1  0  0  0  0
  4  5  1  0  0  0  0
  5 19  1  6  0  0  0
  5 11  1  0  0  0  0
  6 13  1  0  0  0  0
  7  1  1  0  0  0  0
  7 12  1  0  0  0  0
  8  9  1  0  0  0  0
  9 10  1  0  0  0  0
 10  1  2  0  0  0  0
 11 12  1  0  0  0  0
 13  7  2  0  0  0  0
 14  2  1  0  0  0  0
 14  8  2  0  0  0  0
 15 16  1  0  0  0  0
 16 21  2  0  0  0  0
 16 18  1  0  0  0  0
 17 19  2  0  0  0  0
 19 21  1  0  0  0  0
 20 17  1  0  0  0  0
 20 15  2  0  0  0  0
 22 15  1  0  0  0  0
 23 22  1  0  0  0  0
 24 14  1  0  0  0  0
 25 24  2  0  0  0  0
 26 27  1  0  0  0  0
 26 25  1  0  0  0  0
M  END
>  <MODEL>
1

>  <REMARK>
 VINA RESULT:      -7.5      0.000      0.000
  Name = 
  4 active torsions:
  status: ('A' for Active; 'I' for Inactive)
    1  A    between atoms: C_3  and  C_26
    2  A    between atoms: O_6  and  C_7
    3  A    between atoms: C_8  and  C_15
    4  A    between atoms: C_17  and  N_20
                            x       y       z     vdW  Elec       q    Type
                         _______ _______ _______ _____ _____    ______ ____

>  <TORSDO>
F 4

$$$$
=
 OpenBabel11042414223D

 27 30  0  0  1  0  0  0  0  0999 V2000
  193.2000  176.3990  146.7710 C   0  0  0  0  0  3  0  0  0  0  0  0
  194.3530  175.7420  142.9470 O   0  0  0  0  0  0  0  0  0  0  0  0
  193.8300  175.8690  144.1370 C   0  0  0  0  0  0  0  0  0  0  0  0
  190.2990  175.5630  143.6290 C   0  0  0  0  0  2  0  0  0  0  0  0
  189.3450  175.0620  144.7190 C   0  0  1  0  0  3  0  0  0  0  0  0
  191.6230  174.8140  143.6330 C   0  0  0  0  0  2  0  0  0  0  0  0
  192.2590  175.7310  145.9550 C   0  0  0  0  0  0  0  0  0  0  0  0
  195.8470  176.7850  144.2510 N   0  0  0  0  0  0  0  0  0  0  0  0
  194.7290  176.5010  144.9380 C   0  0  0  0  0  0  0  0  0  0  0  0
  194.4530  176.7940  146.2700 C   0  0  0  0  0  3  0  0  0  0  0  0
  190.0260  174.4590  145.9540 C   0  0  0  0  0  2  0  0  0  0  0  0
  191.0030  175.3670  146.5450 N   0  0  0  0  0  2  0  0  0  0  0  0
  192.5740  175.4640  144.5910 C   0  0  0  0  0  0  0  0  0  0  0  0
  195.5560  176.2890  143.0200 C   0  0  0  0  0  0  0  0  0  0  0  0
  186.4110  178.0540  145.7180 C   0  0  0  0  0  0  0  0  0  0  0  0
  186.9050  177.9430  144.4070 C   0  0  0  0  0  0  0  0  0  0  0  0
  187.8380  176.2050  146.3920 C   0  0  0  0  0  3  0  0  0  0  0  0
  186.4260  178.8550  143.3300 C   0  0  0  0  0  1  0  0  0  0  0  0
  188.3300  176.0990  145.0840 C   0  0  0  0  0  0  0  0  0  0  0  0
  186.8850  177.1770  146.7070 C   0  0  0  0  0  3  0  0  0  0  0  0
  187.8590  176.9690  144.0970 C   0  0  0  0  0  3  0  0  0  0  0  0
  185.4560  179.0340  146.0180 O   0  0  0  0  0  0  0  0  0  0  0  0
  184.0660  178.7510  146.1100 C   0  0  0  0  0  1  0  0  0  0  0  0
  196.5080  176.3690  141.8970 C   0  0  0  0  0  3  0  0  0  0  0  0
  197.4490  175.5040  141.6610 N   0  0  0  0  0  0  0  0  0  0  0  0
  197.7110  174.3220  142.4670 C   0  0  0  0  0  2  0  0  0  0  0  0
  197.0660  173.1710  141.8640 N   0  0  0  0  0  1  0  0  0  0  0  0
  2 14  1  0  0  0  0
  2  3  1  0  0  0  0
  3 13  2  0  0  0  0
  3  9  1  0  0  0  0
  4  6  1  0  0  0  0
  4  5  1  0  0  0  0
  5 19  1  1  0  0  0
  5 11  1  0  0  0  0
  6 13  1  0  0  0  0
  7 12  1  0  0  0  0
  7  1  2  0  0  0  0
  8  9  1  0  0  0  0
  9 10  2  0  0  0  0
 10  1  1  0  0  0  0
 11 12  1  0  0  0  0
 13  7  1  0  0  0  0
 14  8  2  0  0  0  0
 15 22  1  0  0  0  0
 15 20  1  0  0  0  0
 16 15  2  0  0  0  0
 17 20  2  0  0  0  0
 18 16  1  0  0  0  0
 19 17  1  0  0  0  0
 21 16  1  0  0  0  0
 21 19  2  0  0  0  0
 22 23  1  0  0  0  0
 24 14  1  0  0  0  0
 25 24  2  0  0  0  0
 25 26  1  0  0  0  0
 27 26  1  0  0  0  0
M  END
>  <MODEL>
2

>  <REMARK>
 VINA RESULT:      -7.1      1.258      1.976
  Name = 
  4 active torsions:
  status: ('A' for Active; 'I' for Inactive)
    1  A    between atoms: C_3  and  C_26
    2  A    between atoms: O_6  and  C_7
    3  A    between atoms: C_8  and  C_15
    4  A    between atoms: C_17  and  N_20
                            x       y       z     vdW  Elec       q    Type
                         _______ _______ _______ _____ _____    ______ ____

>  <TORSDO>
F 4

$$$$
=
 OpenBabel11042414223D

 27 30  0  0  1  0  0  0  0  0999 V2000
  192.2100  177.1690  144.0710 C   0  0  0  0  0  3  0  0  0  0  0  0
  192.6910  173.3310  145.2620 O   0  0  0  0  0  0  0  0  0  0  0  0
  192.4050  174.5770  144.9990 C   0  0  0  0  0  0  0  0  0  0  0  0
  189.0280  175.0030  146.1120 C   0  0  0  0  0  2  0  0  0  0  0  0
  188.4670  176.3570  146.5590 C   0  0  1  0  0  3  0  0  0  0  0  0
  190.4680  174.8000  146.5600 C   0  0  0  0  0  2  0  0  0  0  0  0
  191.3170  176.7230  145.0710 C   0  0  0  0  0  0  0  0  0  0  0  0
  194.1160  174.0510  143.6910 N   0  0  0  0  0  0  0  0  0  0  0  0
  193.2650  175.0260  144.0450 C   0  0  0  0  0  0  0  0  0  0  0  0
  193.2010  176.3220  143.5440 C   0  0  0  0  0  3  0  0  0  0  0  0
  189.5110  177.4670  146.7410 C   0  0  0  0  0  2  0  0  0  0  0  0
  190.3340  177.6520  145.5510 N   0  0  0  0  0  2  0  0  0  0  0  0
  191.4050  175.3820  145.5470 C   0  0  0  0  0  0  0  0  0  0  0  0
  193.7130  173.0210  144.4800 C   0  0  0  0  0  0  0  0  0  0  0  0
  185.1640  177.6460  144.1120 C   0  0  0  0  0  0  0  0  0  0  0  0
  185.1860  177.9200  145.4900 C   0  0  0  0  0  0  0  0  0  0  0  0
  187.3080  176.5180  144.3210 C   0  0  0  0  0  3  0  0  0  0  0  0
  184.0700  178.6650  146.1380 C   0  0  0  0  0  1  0  0  0  0  0  0
  187.3250  176.7930  145.6960 C   0  0  0  0  0  0  0  0  0  0  0  0
  186.2330  176.9410  143.5350 C   0  0  0  0  0  3  0  0  0  0  0  0
  186.2630  177.4940  146.2730 C   0  0  0  0  0  3  0  0  0  0  0  0
  184.0790  178.0760  143.3360 O   0  0  0  0  0  0  0  0  0  0  0  0
  184.1730  178.2890  141.9350 C   0  0  0  0  0  1  0  0  0  0  0  0
  194.3690  171.7010  144.4440 C   0  0  0  0  0  3  0  0  0  0  0  0
  195.5060  171.4240  145.0080 N   0  0  0  0  0  0  0  0  0  0  0  0
  196.3110  172.3720  145.7630 C   0  0  0  0  0  2  0  0  0  0  0  0
  197.3450  172.9200  144.9050 N   0  0  0  0  0  1  0  0  0  0  0  0
  1  7  1  0  0  0  0
  3  2  1  0  0  0  0
  3 13  1  0  0  0  0
  4  5  1  0  0  0  0
  4  6  1  0  0  0  0
  5 19  1  6  0  0  0
  5 11  1  0  0  0  0
  7 13  2  0  0  0  0
  7 12  1  0  0  0  0
  8  9  1  0  0  0  0
  8 14  2  0  0  0  0
  9  3  2  0  0  0  0
 10  9  1  0  0  0  0
 10  1  2  0  0  0  0
 12 11  1  0  0  0  0
 13  6  1  0  0  0  0
 14  2  1  0  0  0  0
 15 16  1  0  0  0  0
 16 18  1  0  0  0  0
 16 21  2  0  0  0  0
 17 19  2  0  0  0  0
 19 21  1  0  0  0  0
 20 15  2  0  0  0  0
 20 17  1  0  0  0  0
 22 15  1  0  0  0  0
 23 22  1  0  0  0  0
 24 14  1  0  0  0  0
 24 25  2  0  0  0  0
 25 26  1  0  0  0  0
 27 26  1  0  0  0  0
M  END
>  <MODEL>
3

>  <REMARK>
 VINA RESULT:      -7.1      2.133      2.688
  Name = 
  4 active torsions:
  status: ('A' for Active; 'I' for Inactive)
    1  A    between atoms: C_3  and  C_26
    2  A    between atoms: O_6  and  C_7
    3  A    between atoms: C_8  and  C_15
    4  A    between atoms: C_17  and  N_20
                            x       y       z     vdW  Elec       q    Type
                         _______ _______ _______ _____ _____    ______ ____

>  <TORSDO>
F 4

$$$$
=
 OpenBabel11042414223D

 27 30  0  0  1  0  0  0  0  0999 V2000
  189.5680  175.5340  147.2650 C   0  0  0  0  0  3  0  0  0  0  0  0
  188.8010  177.6310  143.8890 O   0  0  0  0  0  0  0  0  0  0  0  0
  189.2200  177.0000  144.9530 C   0  0  0  0  0  0  0  0  0  0  0  0
  192.6960  176.3850  144.3530 C   0  0  0  0  0  2  0  0  0  0  0  0
  193.7170  176.2250  145.4840 C   0  0  1  0  0  3  0  0  0  0  0  0
  191.6580  177.4540  144.6600 C   0  0  0  0  0  2  0  0  0  0  0  0
  190.6940  176.1080  146.6330 C   0  0  0  0  0  0  0  0  0  0  0  0
  187.0180  176.7340  144.9070 N   0  0  0  0  0  0  0  0  0  0  0  0
  188.1450  176.4510  145.5800 C   0  0  0  0  0  0  0  0  0  0  0  0
  188.2730  175.7000  146.7440 C   0  0  0  0  0  3  0  0  0  0  0  0
  193.2050  176.5980  146.8810 C   0  0  0  0  0  2  0  0  0  0  0  0
  191.9800  175.8860  147.2300 N   0  0  0  0  0  2  0  0  0  0  0  0
  190.5220  176.8570  145.4330 C   0  0  0  0  0  0  0  0  0  0  0  0
  187.4880  177.4710  143.8660 C   0  0  0  0  0  0  0  0  0  0  0  0
  195.5290  172.3180  145.3850 C   0  0  0  0  0  0  0  0  0  0  0  0
  194.1770  172.4910  145.0430 C   0  0  0  0  0  0  0  0  0  0  0  0
  195.7100  174.7060  145.8000 C   0  0  0  0  0  3  0  0  0  0  0  0
  193.3370  171.3290  144.6360 C   0  0  0  0  0  1  0  0  0  0  0  0
  194.3600  174.8740  145.4610 C   0  0  0  0  0  0  0  0  0  0  0  0
  196.2890  173.4360  145.7630 C   0  0  0  0  0  3  0  0  0  0  0  0
  193.6000  173.7640  145.0820 C   0  0  0  0  0  3  0  0  0  0  0  0
  196.0960  171.0380  145.3430 O   0  0  0  0  0  0  0  0  0  0  0  0
  197.4680  170.8130  145.0480 C   0  0  0  0  0  1  0  0  0  0  0  0
  186.5960  178.0220  142.8290 C   0  0  0  0  0  3  0  0  0  0  0  0
  185.7580  178.9960  143.0150 N   0  0  0  0  0  0  0  0  0  0  0  0
  185.5670  179.6980  144.2760 C   0  0  0  0  0  2  0  0  0  0  0  0
  184.3820  179.1880  144.9400 N   0  0  0  0  0  1  0  0  0  0  0  0
  2  3  1  0  0  0  0
  3 13  2  0  0  0  0
  3  9  1  0  0  0  0
  4  6  1  0  0  0  0
  4  5  1  0  0  0  0
  5 19  1  1  0  0  0
  5 11  1  0  0  0  0
  6 13  1  0  0  0  0
  7 12  1  0  0  0  0
  7  1  2  0  0  0  0
  8  9  1  0  0  0  0
  9 10  2  0  0  0  0
 10  1  1  0  0  0  0
 11 12  1  0  0  0  0
 13  7  1  0  0  0  0
 14  2  1  0  0  0  0
 14  8  2  0  0  0  0
 15 20  1  0  0  0  0
 16 21  1  0  0  0  0
 16 15  2  0  0  0  0
 18 16  1  0  0  0  0
 19 17  1  0  0  0  0
 20 17  2  0  0  0  0
 21 19  2  0  0  0  0
 22 15  1  0  0  0  0
 23 22  1  0  0  0  0
 24 25  2  0  0  0  0
 24 14  1  0  0  0  0
 25 26  1  0  0  0  0
 26 27  1  0  0  0  0
M  END
>  <MODEL>
4

>  <REMARK>
 VINA RESULT:      -7.1      2.997      8.406
  Name = 
  4 active torsions:
  status: ('A' for Active; 'I' for Inactive)
    1  A    between atoms: C_3  and  C_26
    2  A    between atoms: O_6  and  C_7
    3  A    between atoms: C_8  and  C_15
    4  A    between atoms: C_17  and  N_20
                            x       y       z     vdW  Elec       q    Type
                         _______ _______ _______ _____ _____    ______ ____

>  <TORSDO>
F 4

$$$$
=
 OpenBabel11042414223D

 27 30  0  0  1  0  0  0  0  0999 V2000
  188.9080  175.1970  142.3410 C   0  0  0  0  0  3  0  0  0  0  0  0
  187.2010  178.0700  144.6270 O   0  0  0  0  0  0  0  0  0  0  0  0
  187.8360  177.0910  144.0390 C   0  0  0  0  0  0  0  0  0  0  0  0
  190.6810  176.4560  146.1180 C   0  0  0  0  0  2  0  0  0  0  0  0
  191.3650  175.0870  146.1900 C   0  0  1  0  0  3  0  0  0  0  0  0
  189.1680  176.3380  146.0130 C   0  0  0  0  0  2  0  0  0  0  0  0
  189.3070  175.2170  143.6970 C   0  0  0  0  0  0  0  0  0  0  0  0
  186.5600  178.0210  142.4810 N   0  0  0  0  0  0  0  0  0  0  0  0
  187.4540  177.0510  142.7340 C   0  0  0  0  0  0  0  0  0  0  0  0
  187.9710  176.1190  141.8410 C   0  0  0  0  0  3  0  0  0  0  0  0
  190.6040  173.9410  145.5120 C   0  0  0  0  0  2  0  0  0  0  0  0
  190.2700  174.2430  144.1240 N   0  0  0  0  0  2  0  0  0  0  0  0
  188.7650  176.1990  144.5760 C   0  0  0  0  0  0  0  0  0  0  0  0
  186.4410  178.6210  143.6940 C   0  0  0  0  0  0  0  0  0  0  0  0
  195.4720  175.2420  144.8960 C   0  0  0  0  0  0  0  0  0  0  0  0
  194.9100  174.0390  145.3570 C   0  0  0  0  0  0  0  0  0  0  0  0
  193.3480  176.3610  145.2820 C   0  0  0  0  0  3  0  0  0  0  0  0
  195.7180  172.7890  145.4060 C   0  0  0  0  0  1  0  0  0  0  0  0
  192.7920  175.1590  145.7420 C   0  0  0  0  0  0  0  0  0  0  0  0
  194.6800  176.4020  144.8620 C   0  0  0  0  0  3  0  0  0  0  0  0
  193.5770  174.0030  145.7760 C   0  0  0  0  0  3  0  0  0  0  0  0
  196.8090  175.2680  144.4790 O   0  0  0  0  0  0  0  0  0  0  0  0
  197.2140  175.8030  143.2270 C   0  0  0  0  0  1  0  0  0  0  0  0
  185.5460  179.7700  143.9160 C   0  0  0  0  0  3  0  0  0  0  0  0
  184.4990  179.7560  144.6860 N   0  0  0  0  0  0  0  0  0  0  0  0
  184.0450  178.6030  145.4490 C   0  0  0  0  0  2  0  0  0  0  0  0
  184.5960  178.6620  146.7900 N   0  0  0  0  0  1  0  0  0  0  0  0
  1  7  1  0  0  0  0
  3 13  1  0  0  0  0
  3  2  1  0  0  0  0
  4  5  1  0  0  0  0
  5 19  1  6  0  0  0
  6  4  1  0  0  0  0
  7 12  1  0  0  0  0
  7 13  2  0  0  0  0
  8  9  1  0  0  0  0
  8 14  2  0  0  0  0
  9  3  2  0  0  0  0
 10  1  2  0  0  0  0
 10  9  1  0  0  0  0
 11  5  1  0  0  0  0
 12 11  1  0  0  0  0
 13  6  1  0  0  0  0
 14 24  1  0  0  0  0
 14  2  1  0  0  0  0
 15 16  1  0  0  0  0
 16 18  1  0  0  0  0
 16 21  2  0  0  0  0
 17 19  2  0  0  0  0
 19 21  1  0  0  0  0
 20 15  2  0  0  0  0
 20 17  1  0  0  0  0
 22 15  1  0  0  0  0
 23 22  1  0  0  0  0
 24 25  2  0  0  0  0
 25 26  1  0  0  0  0
 26 27  1  0  0  0  0
M  END
>  <MODEL>
5

>  <REMARK>
 VINA RESULT:      -7.0      2.953      8.555
  Name = 
  4 active torsions:
  status: ('A' for Active; 'I' for Inactive)
    1  A    between atoms: C_3  and  C_26
    2  A    between atoms: O_6  and  C_7
    3  A    between atoms: C_8  and  C_15
    4  A    between atoms: C_17  and  N_20
                            x       y       z     vdW  Elec       q    Type
                         _______ _______ _______ _____ _____    ______ ____

>  <TORSDO>
F 4

$$$$
=
 OpenBabel11042414223D

 27 30  0  0  1  0  0  0  0  0999 V2000
  193.2550  176.8320  146.9610 C   0  0  0  0  0  3  0  0  0  0  0  0
  194.3330  173.6230  144.7410 O   0  0  0  0  0  0  0  0  0  0  0  0
  193.8220  174.5850  145.4620 C   0  0  0  0  0  0  0  0  0  0  0  0
  190.3020  174.4490  144.8170 C   0  0  0  0  0  2  0  0  0  0  0  0
  189.2560  174.9400  145.8240 C   0  0  1  0  0  3  0  0  0  0  0  0
  191.4690  173.7480  145.4960 C   0  0  0  0  0  2  0  0  0  0  0  0
  192.2220  175.9080  146.6790 C   0  0  0  0  0  0  0  0  0  0  0  0
  195.9690  175.0810  145.2080 N   0  0  0  0  0  0  0  0  0  0  0  0
  194.8070  175.4770  145.7510 C   0  0  0  0  0  0  0  0  0  0  0  0
  194.5660  176.6250  146.4990 C   0  0  0  0  0  3  0  0  0  0  0  0
  189.7970  175.2570  147.2230 C   0  0  0  0  0  2  0  0  0  0  0  0
  190.9110  176.1970  147.1860 N   0  0  0  0  0  2  0  0  0  0  0  0
  192.5070  174.7520  145.8960 C   0  0  0  0  0  0  0  0  0  0  0  0
  195.6140  173.9230  144.5930 C   0  0  0  0  0  0  0  0  0  0  0  0
  186.9200  178.1600  144.1690 C   0  0  0  0  0  0  0  0  0  0  0  0
  187.9450  177.5580  143.4200 C   0  0  0  0  0  0  0  0  0  0  0  0
  187.4160  176.6590  146.0160 C   0  0  0  0  0  3  0  0  0  0  0  0
  188.2480  178.0170  142.0350 C   0  0  0  0  0  1  0  0  0  0  0  0
  188.4390  176.0630  145.2660 C   0  0  0  0  0  0  0  0  0  0  0  0
  186.6620  177.7010  145.4720 C   0  0  0  0  0  3  0  0  0  0  0  0
  188.6970  176.5160  143.9690 C   0  0  0  0  0  3  0  0  0  0  0  0
  186.1720  179.2040  143.6090 O   0  0  0  0  0  0  0  0  0  0  0  0
  185.0500  179.7820  144.2610 C   0  0  0  0  0  1  0  0  0  0  0  0
  196.5830  173.1040  143.8430 C   0  0  0  0  0  3  0  0  0  0  0  0
  197.2540  172.1080  144.3400 N   0  0  0  0  0  0  0  0  0  0  0  0
  197.1540  171.6460  145.7160 C   0  0  0  0  0  2  0  0  0  0  0  0
  196.2680  170.4990  145.7790 N   0  0  0  0  0  1  0  0  0  0  0  0
  2  3  1  0  0  0  0
  3  9  2  0  0  0  0
  3 13  1  0  0  0  0
  4  6  1  0  0  0  0
  4  5  1  0  0  0  0
  5 19  1  6  0  0  0
  5 11  1  0  0  0  0
  6 13  1  0  0  0  0
  7  1  1  0  0  0  0
  7 12  1  0  0  0  0
  8  9  1  0  0  0  0
  9 10  1  0  0  0  0
 10  1  2  0  0  0  0
 12 11  1  0  0  0  0
 13  7  2  0  0  0  0
 14  2  1  0  0  0  0
 14  8  2  0  0  0  0
 15 20  1  0  0  0  0
 16 21  1  0  0  0  0
 16 15  2  0  0  0  0
 18 16  1  0  0  0  0
 19 17  1  0  0  0  0
 20 17  2  0  0  0  0
 21 19  2  0  0  0  0
 22 15  1  0  0  0  0
 22 23  1  0  0  0  0
 24 25  2  0  0  0  0
 24 14  1  0  0  0  0
 25 26  1  0  0  0  0
 26 27  1  0  0  0  0
M  END
>  <MODEL>
6

>  <REMARK>
 VINA RESULT:      -7.0      1.614      2.608
  Name = 
  4 active torsions:
  status: ('A' for Active; 'I' for Inactive)
    1  A    between atoms: C_3  and  C_26
    2  A    between atoms: O_6  and  C_7
    3  A    between atoms: C_8  and  C_15
    4  A    between atoms: C_17  and  N_20
                            x       y       z     vdW  Elec       q    Type
                         _______ _______ _______ _____ _____    ______ ____

>  <TORSDO>
F 4

$$$$
=
 OpenBabel11042414223D

 27 30  0  0  1  0  0  0  0  0999 V2000
  189.0680  175.8510  147.1000 C   0  0  0  0  0  3  0  0  0  0  0  0
  188.5210  178.0540  143.7480 O   0  0  0  0  0  0  0  0  0  0  0  0
  188.8720  177.3730  144.8060 C   0  0  0  0  0  0  0  0  0  0  0  0
  192.2780  176.4390  144.2120 C   0  0  0  0  0  2  0  0  0  0  0  0
  193.2730  176.1700  145.3450 C   0  0  1  0  0  3  0  0  0  0  0  0
  191.3440  177.5980  144.5280 C   0  0  0  0  0  2  0  0  0  0  0  0
  190.2470  176.3240  146.4800 C   0  0  0  0  0  0  0  0  0  0  0  0
  186.6560  177.3160  144.7460 N   0  0  0  0  0  0  0  0  0  0  0  0
  187.7470  176.9200  145.4210 C   0  0  0  0  0  0  0  0  0  0  0  0
  187.7970  176.1460  146.5750 C   0  0  0  0  0  3  0  0  0  0  0  0
  192.7910  176.5730  146.7450 C   0  0  0  0  0  2  0  0  0  0  0  0
  191.5030  175.9750  147.0790 N   0  0  0  0  0  2  0  0  0  0  0  0
  190.1530  177.1010  145.2890 C   0  0  0  0  0  0  0  0  0  0  0  0
  187.1980  178.0180  143.7170 C   0  0  0  0  0  0  0  0  0  0  0  0
  194.7910  172.1390  145.2670 C   0  0  0  0  0  0  0  0  0  0  0  0
  195.6170  173.2090  145.6500 C   0  0  0  0  0  0  0  0  0  0  0  0
  192.9580  173.7000  144.9260 C   0  0  0  0  0  3  0  0  0  0  0  0
  197.0360  172.9770  146.0410 C   0  0  0  0  0  1  0  0  0  0  0  0
  193.7860  174.7650  145.3070 C   0  0  0  0  0  0  0  0  0  0  0  0
  193.4580  172.3960  144.9060 C   0  0  0  0  0  3  0  0  0  0  0  0
  195.1130  174.5130  145.6690 C   0  0  0  0  0  3  0  0  0  0  0  0
  195.3070  170.8370  145.2510 O   0  0  0  0  0  0  0  0  0  0  0  0
  194.5910  169.7200  145.7610 C   0  0  0  0  0  1  0  0  0  0  0  0
  186.3680  178.6630  142.6840 C   0  0  0  0  0  3  0  0  0  0  0  0
  186.2790  178.2650  141.4500 N   0  0  0  0  0  0  0  0  0  0  0  0
  186.9830  177.1190  140.8950 C   0  0  0  0  0  2  0  0  0  0  0  0
  186.7010  177.0190  139.4750 N   0  0  0  0  0  1  0  0  0  0  0  0
  2  3  1  0  0  0  0
  3 13  2  0  0  0  0
  3  9  1  0  0  0  0
  4  6  1  0  0  0  0
  4  5  1  0  0  0  0
  5 19  1  1  0  0  0
  5 11  1  0  0  0  0
  6 13  1  0  0  0  0
  7 12  1  0  0  0  0
  7  1  2  0  0  0  0
  8  9  1  0  0  0  0
  9 10  2  0  0  0  0
 10  1  1  0  0  0  0
 11 12  1  0  0  0  0
 13  7  1  0  0  0  0
 14  2  1  0  0  0  0
 14  8  2  0  0  0  0
 15 16  1  0  0  0  0
 16 21  2  0  0  0  0
 16 18  1  0  0  0  0
 17 19  2  0  0  0  0
 19 21  1  0  0  0  0
 20 17  1  0  0  0  0
 20 15  2  0  0  0  0
 22 15  1  0  0  0  0
 22 23  1  0  0  0  0
 24 14  1  0  0  0  0
 25 24  2  0  0  0  0
 26 25  1  0  0  0  0
 27 26  1  0  0  0  0
M  END
>  <MODEL>
7

>  <REMARK>
 VINA RESULT:      -6.9      3.332      8.071
  Name = 
  4 active torsions:
  status: ('A' for Active; 'I' for Inactive)
    1  A    between atoms: C_3  and  C_26
    2  A    between atoms: O_6  and  C_7
    3  A    between atoms: C_8  and  C_15
    4  A    between atoms: C_17  and  N_20
                            x       y       z     vdW  Elec       q    Type
                         _______ _______ _______ _____ _____    ______ ____

>  <TORSDO>
F 4

$$$$
=
 OpenBabel11042414223D

 27 30  0  0  1  0  0  0  0  0999 V2000
  188.8320  175.2770  142.1100 C   0  0  0  0  0  3  0  0  0  0  0  0
  186.9800  177.9290  144.5430 O   0  0  0  0  0  0  0  0  0  0  0  0
  187.6430  177.0000  143.9070 C   0  0  0  0  0  0  0  0  0  0  0  0
  190.2230  175.9930  146.1760 C   0  0  0  0  0  2  0  0  0  0  0  0
  190.8520  174.5960  146.1490 C   0  0  1  0  0  3  0  0  0  0  0  0
  188.7280  175.9570  145.9010 C   0  0  0  0  0  2  0  0  0  0  0  0
  189.0810  175.1170  143.4910 C   0  0  0  0  0  0  0  0  0  0  0  0
  186.5740  178.1660  142.3520 N   0  0  0  0  0  0  0  0  0  0  0  0
  187.4040  177.1340  142.5750 C   0  0  0  0  0  0  0  0  0  0  0  0
  187.9850  176.2920  141.6320 C   0  0  0  0  0  3  0  0  0  0  0  0
  190.1320  173.5750  145.2590 C   0  0  0  0  0  2  0  0  0  0  0  0
  189.9610  174.0560  143.8930 N   0  0  0  0  0  2  0  0  0  0  0  0
  188.4790  176.0100  144.4240 C   0  0  0  0  0  0  0  0  0  0  0  0
  186.3440  178.6220  143.6110 C   0  0  0  0  0  0  0  0  0  0  0  0
  195.0800  174.8220  145.3500 C   0  0  0  0  0  0  0  0  0  0  0  0
  194.3230  175.9900  145.5490 C   0  0  0  0  0  0  0  0  0  0  0  0
  193.0710  173.4900  145.6700 C   0  0  0  0  0  3  0  0  0  0  0  0
  194.9640  177.3340  145.4910 C   0  0  0  0  0  1  0  0  0  0  0  0
  192.3200  174.6570  145.8650 C   0  0  0  0  0  0  0  0  0  0  0  0
  194.4420  173.5720  145.4130 C   0  0  0  0  0  3  0  0  0  0  0  0
  192.9520  175.9020  145.8050 C   0  0  0  0  0  3  0  0  0  0  0  0
  196.4530  174.9210  145.0940 O   0  0  0  0  0  0  0  0  0  0  0  0
  197.0050  174.7810  143.7920 C   0  0  0  0  0  1  0  0  0  0  0  0
  185.4670  179.7760  143.8800 C   0  0  0  0  0  3  0  0  0  0  0  0
  184.4880  179.7790  144.7340 N   0  0  0  0  0  0  0  0  0  0  0  0
  184.1020  178.6440  145.5590 C   0  0  0  0  0  2  0  0  0  0  0  0
  184.6930  178.7810  146.8770 N   0  0  0  0  0  1  0  0  0  0  0  0
  1  7  1  0  0  0  0
  3 13  1  0  0  0  0
  3  2  1  0  0  0  0
  5 19  1  6  0  0  0
  5  4  1  0  0  0  0
  6  4  1  0  0  0  0
  7 12  1  0  0  0  0
  7 13  2  0  0  0  0
  8  9  1  0  0  0  0
  8 14  2  0  0  0  0
  9  3  2  0  0  0  0
 10  1  2  0  0  0  0
 10  9  1  0  0  0  0
 11  5  1  0  0  0  0
 12 11  1  0  0  0  0
 13  6  1  0  0  0  0
 14 24  1  0  0  0  0
 14  2  1  0  0  0  0
 15 20  2  0  0  0  0
 15 16  1  0  0  0  0
 16 21  2  0  0  0  0
 17 19  2  0  0  0  0
 18 16  1  0  0  0  0
 20 17  1  0  0  0  0
 21 19  1  0  0  0  0
 22 15  1  0  0  0  0
 23 22  1  0  0  0  0
 24 25  2  0  0  0  0
 25 26  1  0  0  0  0
 26 27  1  0  0  0  0
M  END
>  <MODEL>
8

>  <REMARK>
 VINA RESULT:      -6.9      2.952      8.462
  Name = 
  4 active torsions:
  status: ('A' for Active; 'I' for Inactive)
    1  A    between atoms: C_3  and  C_26
    2  A    between atoms: O_6  and  C_7
    3  A    between atoms: C_8  and  C_15
    4  A    between atoms: C_17  and  N_20
                            x       y       z     vdW  Elec       q    Type
                         _______ _______ _______ _____ _____    ______ ____

>  <TORSDO>
F 4

$$$$
=
 OpenBabel11042414223D

 27 30  0  0  1  0  0  0  0  0999 V2000
  191.0280  172.9920  143.9440 C   0  0  0  0  0  3  0  0  0  0  0  0
  194.3980  175.0240  144.8950 O   0  0  0  0  0  0  0  0  0  0  0  0
  193.2490  174.5250  144.5260 C   0  0  0  0  0  0  0  0  0  0  0  0
  191.0210  177.3250  144.4100 C   0  0  0  0  0  2  0  0  0  0  0  0
  189.7870  177.3660  143.5010 C   0  0  1  0  0  3  0  0  0  0  0  0
  192.2090  176.6540  143.7380 C   0  0  0  0  0  2  0  0  0  0  0  0
  191.0130  174.3750  143.6500 C   0  0  0  0  0  0  0  0  0  0  0  0
  194.4230  172.8290  145.3410 N   0  0  0  0  0  0  0  0  0  0  0  0
  193.2530  173.1910  144.7930 C   0  0  0  0  0  0  0  0  0  0  0  0
  192.1550  172.3810  144.5210 C   0  0  0  0  0  3  0  0  0  0  0  0
  189.7080  176.2420  142.4600 C   0  0  0  0  0  2  0  0  0  0  0  0
  189.8210  174.9190  143.0650 N   0  0  0  0  0  2  0  0  0  0  0  0
  192.1520  175.1730  143.9580 C   0  0  0  0  0  0  0  0  0  0  0  0
  195.0950  174.0090  145.3800 C   0  0  0  0  0  0  0  0  0  0  0  0
  186.1230  177.7500  145.7350 C   0  0  0  0  0  0  0  0  0  0  0  0
  186.2870  178.4110  144.5060 C   0  0  0  0  0  0  0  0  0  0  0  0
  188.3630  176.8300  145.5170 C   0  0  0  0  0  3  0  0  0  0  0  0
  185.1980  179.2580  143.9430 C   0  0  0  0  0  1  0  0  0  0  0  0
  188.5230  177.4930  144.2920 C   0  0  0  0  0  0  0  0  0  0  0  0
  187.1710  176.9590  146.2330 C   0  0  0  0  0  3  0  0  0  0  0  0
  187.4820  178.2800  143.7920 C   0  0  0  0  0  3  0  0  0  0  0  0
  184.9220  177.8880  146.4420 O   0  0  0  0  0  0  0  0  0  0  0  0
  184.8170  178.6490  147.6380 C   0  0  0  0  0  1  0  0  0  0  0  0
  196.4650  174.1160  145.9160 C   0  0  0  0  0  3  0  0  0  0  0  0
  197.5420  174.1650  145.1910 N   0  0  0  0  0  0  0  0  0  0  0  0
  197.5660  174.1230  143.7360 C   0  0  0  0  0  2  0  0  0  0  0  0
  197.6750  175.4720  143.2150 N   0  0  0  0  0  1  0  0  0  0  0  0
  1 10  1  0  0  0  0
  2 14  1  0  0  0  0
  3  9  1  0  0  0  0
  3  2  1  0  0  0  0
  5 19  1  1  0  0  0
  5  4  1  0  0  0  0
  6 13  1  0  0  0  0
  6  4  1  0  0  0  0
  7  1  2  0  0  0  0
  7 13  1  0  0  0  0
  8 14  2  0  0  0  0
  9  8  1  0  0  0  0
 10  9  2  0  0  0  0
 11 12  1  0  0  0  0
 11  5  1  0  0  0  0
 12  7  1  0  0  0  0
 13  3  2  0  0  0  0
 14 24  1  0  0  0  0
 15 20  1  0  0  0  0
 15 22  1  0  0  0  0
 16 15  2  0  0  0  0
 17 20  2  0  0  0  0
 18 16  1  0  0  0  0
 19 17  1  0  0  0  0
 21 19  2  0  0  0  0
 21 16  1  0  0  0  0
 22 23  1  0  0  0  0
 25 24  2  0  0  0  0
 26 25  1  0  0  0  0
 27 26  1  0  0  0  0
M  END
>  <MODEL>
9

>  <REMARK>
 VINA RESULT:      -6.6      2.111      3.183
  Name = 
  4 active torsions:
  status: ('A' for Active; 'I' for Inactive)
    1  A    between atoms: C_3  and  C_26
    2  A    between atoms: O_6  and  C_7
    3  A    between atoms: C_8  and  C_15
    4  A    between atoms: C_17  and  N_20
                            x       y       z     vdW  Elec       q    Type
                         _______ _______ _______ _____ _____    ______ ____

>  <TORSDO>
F 4

$$$$
