=
 OpenBabel11042418463D

 44 49  0  0  1  0  0  0  0  0999 V2000
  190.7860  175.8490  146.6750 C   0  0  2  0  0  3  0  0  0  0  0  0
  190.1630  172.7780  144.7990 C   0  0  0  0  0  3  0  0  0  0  0  0
  189.2300  173.3960  141.5340 C   0  0  0  0  0  3  0  0  0  0  0  0
  193.4710  172.1110  142.1710 C   0  0  0  0  0  0  0  0  0  0  0  0
  190.3070  177.2030  146.6900 N   0  0  0  0  0  0  0  0  0  0  0  0
  189.2590  177.3750  145.9740 C   0  0  0  0  0  3  0  0  0  0  0  0
  188.0500  175.0640  143.1630 C   0  0  0  0  0  3  0  0  0  0  0  0
  189.8010  175.1580  145.8050 C   0  0  0  0  0  0  0  0  0  0  0  0
  190.7390  175.2770  148.0820 C   0  0  0  0  0  1  0  0  0  0  0  0
  191.2880  172.5430  143.8850 C   0  0  0  0  0  0  0  0  0  0  0  0
  192.1690  171.8610  141.7130 C   0  0  0  0  0  0  0  0  0  0  0  0
  188.7590  176.2440  143.7530 C   0  0  2  0  0  3  0  0  0  0  0  0
  188.6510  174.2410  142.3450 C   0  0  0  0  0  0  0  0  0  0  0  0
  189.9820  173.9550  145.3320 C   0  0  0  0  0  0  0  0  0  0  0  0
  188.7740  176.1270  145.3000 C   0  0  2  0  0  3  0  0  0  0  0  0
  192.5910  172.7890  144.3260 C   0  0  0  0  0  3  0  0  0  0  0  0
  189.6650  172.0500  142.0180 C   0  0  0  0  0  2  0  0  0  0  0  0
  191.0650  172.1030  142.5630 C   0  0  0  0  0  0  0  0  0  0  0  0
  193.6740  172.5780  143.4760 C   0  0  0  0  0  3  0  0  0  0  0  0
  184.4930  178.1550  142.0480 C   0  0  0  0  0  3  0  0  0  0  0  0
  186.6120  177.6550  143.6850 C   0  0  0  0  0  2  0  0  0  0  0  0
  185.9110  177.9490  142.4180 C   0  0  0  0  0  0  0  0  0  0  0  0
  186.6650  177.9070  141.3840 C   0  0  0  0  0  0  0  0  0  0  0  0
  188.0810  177.6150  141.6610 C   0  0  0  0  0  2  0  0  0  0  0  0
  185.9810  178.0960  140.2070 O   0  0  0  0  0  0  0  0  0  0  0  0
  188.0720  177.5100  143.2060 C   0  0  2  0  0  3  0  0  0  0  0  0
  184.5980  178.2870  140.5100 C   0  0  0  0  0  3  0  0  0  0  0  0
  192.0140  171.3940  140.4020 O   0  0  0  0  0  0  0  0  0  0  0  0
  192.0860  173.9080  139.8160 O   0  0  0  0  0  1  0  0  0  0  0  0
  190.6230  172.3040  138.3790 N   0  0  0  0  0  1  0  0  0  0  0  0
  192.3090  172.4020  138.9840 P   0  0  2  0  0  0  0  0  0  0  0  0
  194.5460  171.8730  141.3100 O   0  0  0  0  0  0  0  0  0  0  0  0
  195.8380  172.4310  141.5100 C   0  0  0  0  0  2  0  0  0  0  0  0
  196.0370  173.5890  140.5490 C   0  0  0  0  0  2  0  0  0  0  0  0
  196.1380  174.9000  141.3130 C   0  0  0  0  0  2  0  0  0  0  0  0
  194.8030  175.6360  141.3090 C   0  0  0  0  0  2  0  0  0  0  0  0
  194.4800  176.5950  144.9700 C   0  0  1  0  0  3  0  0  0  0  0  0
  193.0850  176.2130  143.1060 C   0  0  0  0  0  0  0  0  0  0  0  0
  192.0800  176.1230  142.3520 O   0  0  0  0  0  0  0  0  0  0  0  0
  195.3350  176.2010  143.7510 C   0  0  0  0  0  2  0  0  0  0  0  0
  193.0110  176.5780  144.5310 C   0  0  0  0  0  2  0  0  0  0  0  0
  194.4050  175.9800  142.6680 N   0  0  0  0  0  0  0  0  0  0  0  0
  194.6810  175.6000  146.1010 C   0  0  0  0  0  2  0  0  0  0  0  0
  195.7980  174.6320  145.7630 C   0  0  0  0  0  1  0  0  0  0  0  0
  1  5  1  0  0  0  0
  1  9  1  1  0  0  0
  2 14  2  0  0  0  0
  3 17  1  0  0  0  0
  3 13  2  0  0  0  0
  4 19  1  0  0  0  0
  6  5  2  0  0  0  0
  8  1  1  0  0  0  0
 10 16  1  0  0  0  0
 10  2  1  0  0  0  0
 11  4  2  0  0  0  0
 11 18  1  0  0  0  0
 12  7  1  6  0  0  0
 12 15  1  0  0  0  0
 13  7  2  0  0  0  0
 14  8  2  0  0  0  0
 15  8  1  0  0  0  0
 15  6  1  1  0  0  0
 17 18  1  0  0  0  0
 18 10  2  0  0  0  0
 19 16  2  0  0  0  0
 20 22  1  0  0  0  0
 22 21  1  0  0  0  0
 23 24  1  0  0  0  0
 23 22  2  0  0  0  0
 25 27  1  0  0  0  0
 25 23  1  0  0  0  0
 26 24  1  6  0  0  0
 26 21  1  0  0  0  0
 26 12  1  0  0  0  0
 27 20  2  0  0  0  0
 28 11  1  0  0  0  0
 31 30  1  6  0  0  0
 31 29  1  0  0  0  0
 31 28  1  0  0  0  0
 32 33  1  0  0  0  0
 32  4  1  0  0  0  0
 34 35  1  0  0  0  0
 34 33  1  0  0  0  0
 36 35  1  0  0  0  0
 36 42  1  0  0  0  0
 37 43  1  1  0  0  0
 38 41  1  0  0  0  0
 39 38  2  0  0  0  0
 40 37  1  0  0  0  0
 41 37  1  0  0  0  0
 42 38  1  0  0  0  0
 42 40  1  0  0  0  0
 44 43  1  0  0  0  0
M  END
>  <MODEL>
1

>  <REMARK>
 VINA RESULT:      -7.4      0.000      0.000
  Name = 
  10 active torsions:
  status: ('A' for Active; 'I' for Inactive)
    1  A    between atoms: O_4  and  C_16
    2  A    between atoms: O_4  and  P_33
    3  A    between atoms: C_5  and  O_25
    4  A    between atoms: C_7  and  C_26
    5  A    between atoms: C_7  and  C_36
    6  A    between atoms: C_13  and  O_25
    7  A    between atoms: C_13  and  C_26
    8  A    between atoms: C_18  and  C_31
    9  A    between atoms: C_20  and  C_29
   10  A    between atoms: C_36  and  N_44
                            x       y       z     vdW  Elec       q    Type
                         _______ _______ _______ _____ _____    ______ ____

>  <TORSDO>
F 10

$$$$
=
 OpenBabel11042418463D

 44 49  0  0  1  0  0  0  0  0999 V2000
  190.2670  176.0950  146.3670 C   0  0  2  0  0  3  0  0  0  0  0  0
  190.1340  173.3560  143.9550 C   0  0  0  0  0  3  0  0  0  0  0  0
  188.9410  174.3670  140.8780 C   0  0  0  0  0  3  0  0  0  0  0  0
  193.3730  173.8270  141.2030 C   0  0  0  0  0  0  0  0  0  0  0  0
  189.5460  177.3060  146.6430 N   0  0  0  0  0  0  0  0  0  0  0  0
  188.4500  177.4010  145.9870 C   0  0  0  0  0  3  0  0  0  0  0  0
  187.5540  175.4530  142.8090 C   0  0  0  0  0  3  0  0  0  0  0  0
  189.3860  175.3980  145.3960 C   0  0  0  0  0  0  0  0  0  0  0  0
  190.3980  175.2780  147.6420 C   0  0  0  0  0  1  0  0  0  0  0  0
  191.2360  173.5120  142.9970 C   0  0  0  0  0  0  0  0  0  0  0  0
  192.1200  173.4190  140.7240 C   0  0  0  0  0  0  0  0  0  0  0  0
  188.0590  176.6190  143.6000 C   0  0  2  0  0  3  0  0  0  0  0  0
  188.2570  174.9240  141.8420 C   0  0  0  0  0  0  0  0  0  0  0  0
  189.7640  174.3590  144.7030 C   0  0  0  0  0  0  0  0  0  0  0  0
  188.1730  176.2270  145.0970 C   0  0  2  0  0  3  0  0  0  0  0  0
  192.4910  173.9190  143.4580 C   0  0  0  0  0  3  0  0  0  0  0  0
  189.6430  173.0640  141.0940 C   0  0  0  0  0  2  0  0  0  0  0  0
  191.0330  173.2860  141.6190 C   0  0  0  0  0  0  0  0  0  0  0  0
  193.5510  174.0780  142.5690 C   0  0  0  0  0  3  0  0  0  0  0  0
  183.5270  177.9520  142.0410 C   0  0  0  0  0  3  0  0  0  0  0  0
  185.6530  177.5190  143.6870 C   0  0  0  0  0  2  0  0  0  0  0  0
  184.9430  177.9650  142.4700 C   0  0  0  0  0  0  0  0  0  0  0  0
  185.7180  178.3400  141.5220 C   0  0  0  0  0  0  0  0  0  0  0  0
  187.1550  178.2920  141.8400 C   0  0  0  0  0  2  0  0  0  0  0  0
  185.0450  178.6670  140.3700 O   0  0  0  0  0  0  0  0  0  0  0  0
  187.1230  177.8080  143.3110 C   0  0  2  0  0  3  0  0  0  0  0  0
  183.6450  178.4820  140.5910 C   0  0  0  0  0  3  0  0  0  0  0  0
  191.9900  173.1780  139.3510 O   0  0  0  0  0  0  0  0  0  0  0  0
  193.2160  172.1170  137.3410 O   0  0  0  0  0  1  0  0  0  0  0  0
  190.6780  171.6480  137.6790 N   0  0  0  0  0  1  0  0  0  0  0  0
  192.1950  171.5780  138.6350 P   0  0  2  0  0  0  0  0  0  0  0  0
  194.4310  173.9600  140.2970 O   0  0  0  0  0  0  0  0  0  0  0  0
  195.7930  174.0160  140.6990 C   0  0  0  0  0  2  0  0  0  0  0  0
  196.2720  175.4550  140.6450 C   0  0  0  0  0  2  0  0  0  0  0  0
  197.1940  175.7500  141.8180 C   0  0  0  0  0  2  0  0  0  0  0  0
  196.4860  176.6030  142.8650 C   0  0  0  0  0  2  0  0  0  0  0  0
  196.3010  174.1700  145.7760 C   0  0  1  0  0  3  0  0  0  0  0  0
  195.1890  176.1030  145.0050 C   0  0  0  0  0  0  0  0  0  0  0  0
  194.4190  177.0950  144.9200 O   0  0  0  0  0  0  0  0  0  0  0  0
  196.9280  174.6370  144.4490 C   0  0  0  0  0  2  0  0  0  0  0  0
  195.1550  175.1310  146.1120 C   0  0  0  0  0  2  0  0  0  0  0  0
  196.1850  175.8110  144.0510 N   0  0  0  0  0  0  0  0  0  0  0  0
  195.7540  172.7600  145.6350 C   0  0  0  0  0  2  0  0  0  0  0  0
  196.8610  171.7400  145.8180 C   0  0  0  0  0  1  0  0  0  0  0  0
  1  5  1  0  0  0  0
  1  9  1  1  0  0  0
  2 14  2  0  0  0  0
  3 17  1  0  0  0  0
  3 13  2  0  0  0  0
  4 19  1  0  0  0  0
  6  5  2  0  0  0  0
  8  1  1  0  0  0  0
 10 16  1  0  0  0  0
 10  2  1  0  0  0  0
 11  4  2  0  0  0  0
 11 18  1  0  0  0  0
 12  7  1  6  0  0  0
 12 15  1  0  0  0  0
 13  7  2  0  0  0  0
 14  8  2  0  0  0  0
 15  8  1  0  0  0  0
 15  6  1  1  0  0  0
 17 18  1  0  0  0  0
 18 10  2  0  0  0  0
 19 16  2  0  0  0  0
 20 22  1  0  0  0  0
 22 21  1  0  0  0  0
 23 24  1  0  0  0  0
 23 22  2  0  0  0  0
 25 27  1  0  0  0  0
 25 23  1  0  0  0  0
 26 24  1  6  0  0  0
 26 12  1  0  0  0  0
 26 21  1  0  0  0  0
 27 20  2  0  0  0  0
 28 11  1  0  0  0  0
 30 31  1  0  0  0  0
 31 29  1  6  0  0  0
 31 28  1  0  0  0  0
 32 33  1  0  0  0  0
 32  4  1  0  0  0  0
 34 33  1  0  0  0  0
 34 35  1  0  0  0  0
 35 36  1  0  0  0  0
 36 42  1  0  0  0  0
 37 43  1  6  0  0  0
 37 41  1  0  0  0  0
 38 41  1  0  0  0  0
 39 38  2  0  0  0  0
 40 37  1  0  0  0  0
 42 40  1  0  0  0  0
 42 38  1  0  0  0  0
 43 44  1  0  0  0  0
M  END
>  <MODEL>
2

>  <REMARK>
 VINA RESULT:      -7.3      1.439      1.793
  Name = 
  10 active torsions:
  status: ('A' for Active; 'I' for Inactive)
    1  A    between atoms: O_4  and  C_16
    2  A    between atoms: O_4  and  P_33
    3  A    between atoms: C_5  and  O_25
    4  A    between atoms: C_7  and  C_26
    5  A    between atoms: C_7  and  C_36
    6  A    between atoms: C_13  and  O_25
    7  A    between atoms: C_13  and  C_26
    8  A    between atoms: C_18  and  C_31
    9  A    between atoms: C_20  and  C_29
   10  A    between atoms: C_36  and  N_44
                            x       y       z     vdW  Elec       q    Type
                         _______ _______ _______ _____ _____    ______ ____

>  <TORSDO>
F 10

$$$$
=
 OpenBabel11042418463D

 44 49  0  0  1  0  0  0  0  0999 V2000
  190.7420  175.9380  146.3220 C   0  0  2  0  0  3  0  0  0  0  0  0
  189.9640  172.8840  144.4780 C   0  0  0  0  0  3  0  0  0  0  0  0
  188.7020  173.5300  141.3320 C   0  0  0  0  0  3  0  0  0  0  0  0
  192.9980  172.2870  141.5220 C   0  0  0  0  0  0  0  0  0  0  0  0
  190.2530  177.2870  146.4030 N   0  0  0  0  0  0  0  0  0  0  0  0
  189.1360  177.4560  145.7980 C   0  0  0  0  0  3  0  0  0  0  0  0
  187.6750  175.1650  143.0930 C   0  0  0  0  0  3  0  0  0  0  0  0
  189.6810  175.2470  145.5460 C   0  0  0  0  0  0  0  0  0  0  0  0
  190.8430  175.3490  147.7190 C   0  0  0  0  0  1  0  0  0  0  0  0
  190.9940  172.6730  143.4520 C   0  0  0  0  0  0  0  0  0  0  0  0
  191.6590  172.0270  141.1940 C   0  0  0  0  0  0  0  0  0  0  0  0
  188.4270  176.3460  143.6240 C   0  0  2  0  0  3  0  0  0  0  0  0
  188.1990  174.3590  142.2080 C   0  0  0  0  0  0  0  0  0  0  0  0
  189.8260  174.0520  145.0420 C   0  0  0  0  0  0  0  0  0  0  0  0
  188.5990  176.2100  145.1600 C   0  0  2  0  0  3  0  0  0  0  0  0
  192.3330  172.9280  143.7630 C   0  0  0  0  0  3  0  0  0  0  0  0
  189.1970  172.1830  141.7510 C   0  0  0  0  0  2  0  0  0  0  0  0
  190.6440  172.2460  142.1540 C   0  0  0  0  0  0  0  0  0  0  0  0
  193.3270  172.7400  142.8060 C   0  0  0  0  0  3  0  0  0  0  0  0
  184.0550  178.1600  142.0930 C   0  0  0  0  0  3  0  0  0  0  0  0
  186.2170  177.6580  143.6700 C   0  0  0  0  0  2  0  0  0  0  0  0
  185.4860  177.9970  142.4320 C   0  0  0  0  0  0  0  0  0  0  0  0
  186.2250  178.0540  141.3890 C   0  0  0  0  0  0  0  0  0  0  0  0
  187.6570  177.8100  141.6300 C   0  0  0  0  0  2  0  0  0  0  0  0
  185.5170  178.2840  140.2340 O   0  0  0  0  0  0  0  0  0  0  0  0
  187.6750  177.6100  143.1650 C   0  0  2  0  0  3  0  0  0  0  0  0
  184.1310  178.3920  140.5640 C   0  0  0  0  0  3  0  0  0  0  0  0
  191.3780  171.5740  139.8990 O   0  0  0  0  0  0  0  0  0  0  0  0
  190.0380  169.7240  138.6960 O   0  0  0  0  0  1  0  0  0  0  0  0
  191.1600  169.2020  140.9870 N   0  0  0  0  0  1  0  0  0  0  0  0
  191.6160  169.8990  139.3980 P   0  0  2  0  0  0  0  0  0  0  0  0
  193.9840  172.0710  140.5550 O   0  0  0  0  0  0  0  0  0  0  0  0
  195.2850  172.6390  140.6330 C   0  0  0  0  0  2  0  0  0  0  0  0
  195.2850  173.9860  139.9350 C   0  0  0  0  0  2  0  0  0  0  0  0
  195.8110  175.0660  140.8670 C   0  0  0  0  0  2  0  0  0  0  0  0
  194.6790  175.9610  141.3580 C   0  0  0  0  0  2  0  0  0  0  0  0
  195.2440  175.8110  145.1110 C   0  0  1  0  0  3  0  0  0  0  0  0
  193.5260  176.3760  143.5960 C   0  0  0  0  0  0  0  0  0  0  0  0
  192.4370  176.7740  143.1050 O   0  0  0  0  0  0  0  0  0  0  0  0
  195.7350  175.6050  143.6650 C   0  0  0  0  0  2  0  0  0  0  0  0
  193.7920  176.2970  145.0430 C   0  0  0  0  0  2  0  0  0  0  0  0
  194.6240  175.9640  142.8140 N   0  0  0  0  0  0  0  0  0  0  0  0
  195.3040  174.5020  145.8810 C   0  0  0  0  0  2  0  0  0  0  0  0
  196.7180  173.9560  145.8910 C   0  0  0  0  0  1  0  0  0  0  0  0
  1  5  1  0  0  0  0
  1  9  1  1  0  0  0
  2 14  2  0  0  0  0
  3 17  1  0  0  0  0
  3 13  2  0  0  0  0
  4 19  1  0  0  0  0
  6  5  2  0  0  0  0
  8  1  1  0  0  0  0
 10 16  1  0  0  0  0
 10  2  1  0  0  0  0
 11  4  2  0  0  0  0
 11 18  1  0  0  0  0
 12  7  1  1  0  0  0
 12 15  1  0  0  0  0
 13  7  2  0  0  0  0
 14  8  2  0  0  0  0
 15  8  1  0  0  0  0
 15  6  1  6  0  0  0
 17 18  1  0  0  0  0
 18 10  2  0  0  0  0
 19 16  2  0  0  0  0
 20 22  1  0  0  0  0
 22 21  1  0  0  0  0
 23 24  1  0  0  0  0
 23 22  2  0  0  0  0
 25 27  1  0  0  0  0
 25 23  1  0  0  0  0
 26 24  1  6  0  0  0
 26 12  1  0  0  0  0
 26 21  1  0  0  0  0
 27 20  2  0  0  0  0
 28 11  1  0  0  0  0
 31 29  1  6  0  0  0
 31 28  1  0  0  0  0
 31 30  1  0  0  0  0
 32 33  1  0  0  0  0
 32  4  1  0  0  0  0
 34 33  1  0  0  0  0
 34 35  1  0  0  0  0
 35 36  1  0  0  0  0
 36 42  1  0  0  0  0
 37 43  1  1  0  0  0
 38 41  1  0  0  0  0
 39 38  2  0  0  0  0
 40 37  1  0  0  0  0
 41 37  1  0  0  0  0
 42 38  1  0  0  0  0
 42 40  1  0  0  0  0
 43 44  1  0  0  0  0
M  END
>  <MODEL>
3

>  <REMARK>
 VINA RESULT:      -7.1      1.062      1.213
  Name = 
  10 active torsions:
  status: ('A' for Active; 'I' for Inactive)
    1  A    between atoms: O_4  and  C_16
    2  A    between atoms: O_4  and  P_33
    3  A    between atoms: C_5  and  O_25
    4  A    between atoms: C_7  and  C_26
    5  A    between atoms: C_7  and  C_36
    6  A    between atoms: C_13  and  O_25
    7  A    between atoms: C_13  and  C_26
    8  A    between atoms: C_18  and  C_31
    9  A    between atoms: C_20  and  C_29
   10  A    between atoms: C_36  and  N_44
                            x       y       z     vdW  Elec       q    Type
                         _______ _______ _______ _____ _____    ______ ____

>  <TORSDO>
F 10

$$$$
=
 OpenBabel11042418463D

 44 49  0  0  1  0  0  0  0  0999 V2000
  189.7100  177.4280  145.9970 C   0  0  2  0  0  3  0  0  0  0  0  0
  192.1950  174.8630  146.7590 C   0  0  0  0  0  3  0  0  0  0  0  0
  192.5890  172.6040  144.1790 C   0  0  0  0  0  3  0  0  0  0  0  0
  195.7570  175.7440  144.5600 C   0  0  0  0  0  0  0  0  0  0  0  0
  188.5000  177.5430  145.2330 N   0  0  0  0  0  0  0  0  0  0  0  0
  188.0500  176.4150  144.8260 C   0  0  0  0  0  3  0  0  0  0  0  0
  190.0620  173.1640  144.5390 C   0  0  0  0  0  3  0  0  0  0  0  0
  189.9460  175.9620  146.0250 C   0  0  0  0  0  0  0  0  0  0  0  0
  189.4750  177.9510  147.4050 C   0  0  0  0  0  1  0  0  0  0  0  0
  193.4210  175.1490  146.0010 C   0  0  0  0  0  0  0  0  0  0  0  0
  195.3300  174.4130  144.6700 C   0  0  0  0  0  0  0  0  0  0  0  0
  189.4460  174.4380  144.0490 C   0  0  2  0  0  3  0  0  0  0  0  0
  191.3270  172.8950  144.3470 C   0  0  0  0  0  0  0  0  0  0  0  0
  191.0670  175.4240  146.4220 C   0  0  0  0  0  0  0  0  0  0  0  0
  188.8830  175.2430  145.2500 C   0  0  2  0  0  3  0  0  0  0  0  0
  193.8590  176.4710  145.8810 C   0  0  0  0  0  3  0  0  0  0  0  0
  193.5580  172.7260  145.3120 C   0  0  0  0  0  2  0  0  0  0  0  0
  194.1400  174.1110  145.3720 C   0  0  0  0  0  0  0  0  0  0  0  0
  195.0150  176.7670  145.1640 C   0  0  0  0  0  3  0  0  0  0  0  0
  188.7720  172.3910  139.5650 C   0  0  0  0  0  3  0  0  0  0  0  0
  188.7330  172.7290  142.2680 C   0  0  0  0  0  2  0  0  0  0  0  0
  188.5740  173.1030  140.8470 C   0  0  0  0  0  0  0  0  0  0  0  0
  188.3210  174.3440  140.6600 C   0  0  0  0  0  0  0  0  0  0  0  0
  188.1990  175.1450  141.8900 C   0  0  0  0  0  2  0  0  0  0  0  0
  188.2640  174.6920  139.3320 O   0  0  0  0  0  0  0  0  0  0  0  0
  188.4070  174.0600  142.9770 C   0  0  2  0  0  3  0  0  0  0  0  0
  188.5110  173.5250  138.5450 C   0  0  0  0  0  3  0  0  0  0  0  0
  196.1040  173.4240  144.0520 O   0  0  0  0  0  0  0  0  0  0  0  0
  196.8560  171.1440  145.0030 O   0  0  0  0  0  1  0  0  0  0  0  0
  197.1380  173.2880  146.4530 N   0  0  0  0  0  1  0  0  0  0  0  0
  197.5420  172.7250  144.7990 P   0  0  2  0  0  0  0  0  0  0  0  0
  196.9320  176.0200  143.8550 O   0  0  0  0  0  0  0  0  0  0  0  0
  196.9400  176.4680  142.5060 C   0  0  0  0  0  2  0  0  0  0  0  0
  197.6990  175.4700  141.6520 C   0  0  0  0  0  2  0  0  0  0  0  0
  196.8890  175.1050  140.4170 C   0  0  0  0  0  2  0  0  0  0  0  0
  196.4470  173.6460  140.4690 C   0  0  0  0  0  2  0  0  0  0  0  0
  192.6780  174.0970  140.3500 C   0  0  1  0  0  3  0  0  0  0  0  0
  194.2490  172.3740  140.7120 C   0  0  0  0  0  0  0  0  0  0  0  0
  194.7760  171.2490  140.9110 O   0  0  0  0  0  0  0  0  0  0  0  0
  194.1060  174.6680  140.2660 C   0  0  0  0  0  2  0  0  0  0  0  0
  192.7940  172.6000  140.6600 C   0  0  0  0  0  2  0  0  0  0  0  0
  194.9930  173.5540  140.5070 N   0  0  0  0  0  0  0  0  0  0  0  0
  191.8970  174.7840  141.4580 C   0  0  0  0  0  2  0  0  0  0  0  0
  192.7980  175.7220  142.2380 C   0  0  0  0  0  1  0  0  0  0  0  0
  1  8  1  0  0  0  0
  1  9  1  1  0  0  0
  3 13  2  0  0  0  0
  3 17  1  0  0  0  0
  4 11  2  0  0  0  0
  4 19  1  0  0  0  0
  5  1  1  0  0  0  0
  6  5  2  0  0  0  0
  8 14  2  0  0  0  0
 10  2  1  0  0  0  0
 11 18  1  0  0  0  0
 12  7  1  1  0  0  0
 12 15  1  0  0  0  0
 13  7  2  0  0  0  0
 14  2  2  0  0  0  0
 15  6  1  6  0  0  0
 15  8  1  0  0  0  0
 16 10  1  0  0  0  0
 17 18  1  0  0  0  0
 18 10  2  0  0  0  0
 19 16  2  0  0  0  0
 20 22  1  0  0  0  0
 21 26  1  0  0  0  0
 22 21  1  0  0  0  0
 23 22  2  0  0  0  0
 23 24  1  0  0  0  0
 25 23  1  0  0  0  0
 26 24  1  6  0  0  0
 26 12  1  0  0  0  0
 27 25  1  0  0  0  0
 27 20  2  0  0  0  0
 28 11  1  0  0  0  0
 28 31  1  0  0  0  0
 31 29  1  1  0  0  0
 31 30  1  0  0  0  0
 32  4  1  0  0  0  0
 33 32  1  0  0  0  0
 34 33  1  0  0  0  0
 35 36  1  0  0  0  0
 35 34  1  0  0  0  0
 36 42  1  0  0  0  0
 37 41  1  0  0  0  0
 37 43  1  1  0  0  0
 38 39  2  0  0  0  0
 40 37  1  0  0  0  0
 40 42  1  0  0  0  0
 41 38  1  0  0  0  0
 42 38  1  0  0  0  0
 43 44  1  0  0  0  0
M  END
>  <MODEL>
4

>  <REMARK>
 VINA RESULT:      -7.0      2.583      4.709
  Name = 
  10 active torsions:
  status: ('A' for Active; 'I' for Inactive)
    1  A    between atoms: O_4  and  C_16
    2  A    between atoms: O_4  and  P_33
    3  A    between atoms: C_5  and  O_25
    4  A    between atoms: C_7  and  C_26
    5  A    between atoms: C_7  and  C_36
    6  A    between atoms: C_13  and  O_25
    7  A    between atoms: C_13  and  C_26
    8  A    between atoms: C_18  and  C_31
    9  A    between atoms: C_20  and  C_29
   10  A    between atoms: C_36  and  N_44
                            x       y       z     vdW  Elec       q    Type
                         _______ _______ _______ _____ _____    ______ ____

>  <TORSDO>
F 10

$$$$
=
 OpenBabel11042418463D

 44 49  0  0  1  0  0  0  0  0999 V2000
  188.8820  176.0190  143.0840 C   0  0  2  0  0  3  0  0  0  0  0  0
  190.1400  172.9430  144.5970 C   0  0  0  0  0  3  0  0  0  0  0  0
  191.8850  170.9890  142.3500 C   0  0  0  0  0  3  0  0  0  0  0  0
  194.3490  173.3760  145.2260 C   0  0  0  0  0  0  0  0  0  0  0  0
  188.4280  176.4640  141.7960 N   0  0  0  0  0  0  0  0  0  0  0  0
  188.2460  175.5050  140.9660 C   0  0  0  0  0  3  0  0  0  0  0  0
  189.7400  171.9840  141.2380 C   0  0  0  0  0  3  0  0  0  0  0  0
  188.9360  174.5440  142.9260 C   0  0  0  0  0  0  0  0  0  0  0  0
  187.8600  176.3990  144.1430 C   0  0  0  0  0  1  0  0  0  0  0  0
  191.5880  173.0750  144.8090 C   0  0  0  0  0  0  0  0  0  0  0  0
  193.8470  172.1510  144.7640 C   0  0  0  0  0  0  0  0  0  0  0  0
  189.6650  173.4040  140.7710 C   0  0  2  0  0  3  0  0  0  0  0  0
  190.8220  171.4980  141.7870 C   0  0  0  0  0  0  0  0  0  0  0  0
  189.5170  173.7520  143.7850 C   0  0  0  0  0  0  0  0  0  0  0  0
  188.5380  174.1490  141.5350 C   0  0  2  0  0  3  0  0  0  0  0  0
  192.1050  174.2910  145.2670 C   0  0  0  0  0  3  0  0  0  0  0  0
  191.9390  170.7780  143.8300 C   0  0  0  0  0  2  0  0  0  0  0  0
  192.4600  172.0030  144.5260 C   0  0  0  0  0  0  0  0  0  0  0  0
  193.4740  174.4420  145.4710 C   0  0  0  0  0  3  0  0  0  0  0  0
  189.8690  170.5460  136.7040 C   0  0  0  0  0  3  0  0  0  0  0  0
  188.8640  172.0610  138.7310 C   0  0  0  0  0  2  0  0  0  0  0  0
  189.7780  171.6980  137.6290 C   0  0  0  0  0  0  0  0  0  0  0  0
  190.7840  172.4790  137.5070 C   0  0  0  0  0  0  0  0  0  0  0  0
  190.8150  173.6040  138.4570 C   0  0  0  0  0  2  0  0  0  0  0  0
  191.6680  172.0770  136.5350 O   0  0  0  0  0  0  0  0  0  0  0  0
  189.4980  173.3740  139.2400 C   0  0  2  0  0  3  0  0  0  0  0  0
  191.1760  170.8740  135.9420 C   0  0  0  0  0  3  0  0  0  0  0  0
  194.7590  171.1150  144.5340 O   0  0  0  0  0  0  0  0  0  0  0  0
  196.8850  170.1790  145.6610 O   0  0  0  0  0  1  0  0  0  0  0  0
  195.1630  168.5290  144.6170 N   0  0  0  0  0  1  0  0  0  0  0  0
  195.1740  169.9130  145.7580 P   0  0  2  0  0  0  0  0  0  0  0  0
  195.7240  173.5020  145.4450 O   0  0  0  0  0  0  0  0  0  0  0  0
  196.4360  174.7140  145.2310 C   0  0  0  0  0  2  0  0  0  0  0  0
  197.6570  174.4310  144.3750 C   0  0  0  0  0  2  0  0  0  0  0  0
  197.5000  175.0670  143.0020 C   0  0  0  0  0  2  0  0  0  0  0  0
  196.2020  175.8610  142.9160 C   0  0  0  0  0  2  0  0  0  0  0  0
  194.0370  173.3350  141.0840 C   0  0  1  0  0  3  0  0  0  0  0  0
  193.8260  175.4670  142.0720 C   0  0  0  0  0  0  0  0  0  0  0  0
  193.3560  176.5490  142.5110 O   0  0  0  0  0  0  0  0  0  0  0  0
  195.3970  173.7830  141.6510 C   0  0  0  0  0  2  0  0  0  0  0  0
  193.0290  174.4580  141.3540 C   0  0  0  0  0  2  0  0  0  0  0  0
  195.1760  175.0910  142.2240 N   0  0  0  0  0  0  0  0  0  0  0  0
  194.1400  173.0970  139.5870 C   0  0  0  0  0  2  0  0  0  0  0  0
  193.9160  171.6320  139.2660 C   0  0  0  0  0  1  0  0  0  0  0  0
  1  9  1  1  0  0  0
  2 10  1  0  0  0  0
  3 17  1  0  0  0  0
  4 32  1  0  0  0  0
  4 19  1  0  0  0  0
  5  1  1  0  0  0  0
  6  5  2  0  0  0  0
  7 13  2  0  0  0  0
  8  1  1  0  0  0  0
  8 14  2  0  0  0  0
 10 16  1  0  0  0  0
 11  4  2  0  0  0  0
 12  7  1  1  0  0  0
 12 15  1  0  0  0  0
 13  3  2  0  0  0  0
 14  2  2  0  0  0  0
 15  6  1  6  0  0  0
 15  8  1  0  0  0  0
 16 19  2  0  0  0  0
 17 18  1  0  0  0  0
 18 11  1  0  0  0  0
 18 10  2  0  0  0  0
 20 22  1  0  0  0  0
 21 26  1  0  0  0  0
 22 21  1  0  0  0  0
 23 22  2  0  0  0  0
 23 24  1  0  0  0  0
 25 23  1  0  0  0  0
 26 24  1  6  0  0  0
 26 12  1  0  0  0  0
 27 25  1  0  0  0  0
 27 20  2  0  0  0  0
 28 11  1  0  0  0  0
 28 31  1  0  0  0  0
 29 31  1  0  0  0  0
 31 30  1  6  0  0  0
 33 32  1  0  0  0  0
 34 33  1  0  0  0  0
 35 34  1  0  0  0  0
 36 35  1  0  0  0  0
 37 43  1  6  0  0  0
 37 41  1  0  0  0  0
 37 40  1  0  0  0  0
 38 42  1  0  0  0  0
 38 39  2  0  0  0  0
 40 42  1  0  0  0  0
 41 38  1  0  0  0  0
 42 36  1  0  0  0  0
 44 43  1  0  0  0  0
M  END
>  <MODEL>
5

>  <REMARK>
 VINA RESULT:      -6.4      3.102      5.401
  Name = 
  10 active torsions:
  status: ('A' for Active; 'I' for Inactive)
    1  A    between atoms: O_4  and  C_16
    2  A    between atoms: O_4  and  P_33
    3  A    between atoms: C_5  and  O_25
    4  A    between atoms: C_7  and  C_26
    5  A    between atoms: C_7  and  C_36
    6  A    between atoms: C_13  and  O_25
    7  A    between atoms: C_13  and  C_26
    8  A    between atoms: C_18  and  C_31
    9  A    between atoms: C_20  and  C_29
   10  A    between atoms: C_36  and  N_44
                            x       y       z     vdW  Elec       q    Type
                         _______ _______ _______ _____ _____    ______ ____

>  <TORSDO>
F 10

$$$$
=
 OpenBabel11042418463D

 44 49  0  0  1  0  0  0  0  0999 V2000
  186.9150  178.3280  147.0370 C   0  0  2  0  0  3  0  0  0  0  0  0
  188.3320  175.3450  145.4790 C   0  0  0  0  0  3  0  0  0  0  0  0
  188.4360  175.5800  142.0370 C   0  0  0  0  0  3  0  0  0  0  0  0
  192.3050  176.2620  144.1830 C   0  0  0  0  0  0  0  0  0  0  0  0
  185.9420  179.3360  146.7170 N   0  0  0  0  0  0  0  0  0  0  0  0
  185.2420  179.0520  145.6830 C   0  0  0  0  0  3  0  0  0  0  0  0
  186.1790  176.5210  142.9590 C   0  0  0  0  0  3  0  0  0  0  0  0
  186.6820  177.3000  145.9910 C   0  0  0  0  0  0  0  0  0  0  0  0
  186.6220  177.7560  148.4140 C   0  0  0  0  0  1  0  0  0  0  0  0
  189.6940  175.6500  145.0200 C   0  0  0  0  0  0  0  0  0  0  0  0
  191.4780  175.4800  143.3630 C   0  0  0  0  0  0  0  0  0  0  0  0
  186.0730  177.8760  143.5880 C   0  0  2  0  0  3  0  0  0  0  0  0
  187.3140  176.0660  142.4970 C   0  0  0  0  0  0  0  0  0  0  0  0
  187.5030  176.3100  145.7650 C   0  0  0  0  0  0  0  0  0  0  0  0
  185.5930  177.7350  145.0570 C   0  0  2  0  0  3  0  0  0  0  0  0
  190.5300  176.4290  145.8250 C   0  0  0  0  0  3  0  0  0  0  0  0
  189.1940  174.5470  142.8070 C   0  0  0  0  0  2  0  0  0  0  0  0
  190.1540  175.1930  143.7670 C   0  0  0  0  0  0  0  0  0  0  0  0
  191.8230  176.7350  145.4100 C   0  0  0  0  0  3  0  0  0  0  0  0
  181.5190  178.2950  141.6310 C   0  0  0  0  0  3  0  0  0  0  0  0
  183.7010  178.7790  143.1870 C   0  0  0  0  0  2  0  0  0  0  0  0
  182.9520  178.4810  141.9490 C   0  0  0  0  0  0  0  0  0  0  0  0
  183.6950  178.2070  140.9440 C   0  0  0  0  0  0  0  0  0  0  0  0
  185.1430  178.2800  141.2040 C   0  0  0  0  0  2  0  0  0  0  0  0
  182.9830  177.8480  139.8250 O   0  0  0  0  0  0  0  0  0  0  0  0
  185.1600  178.7280  142.6870 C   0  0  2  0  0  3  0  0  0  0  0  0
  181.5900  177.8920  140.1390 C   0  0  0  0  0  3  0  0  0  0  0  0
  192.0030  175.0280  142.1460 O   0  0  0  0  0  0  0  0  0  0  0  0
  194.3080  174.0140  141.5750 O   0  0  0  0  0  1  0  0  0  0  0  0
  192.2110  173.2490  140.2360 N   0  0  0  0  0  1  0  0  0  0  0  0
  192.7190  173.4270  141.9470 P   0  0  2  0  0  0  0  0  0  0  0  0
  193.6080  176.5400  143.7590 O   0  0  0  0  0  0  0  0  0  0  0  0
  194.7330  176.4930  144.6270 C   0  0  0  0  0  2  0  0  0  0  0  0
  195.9730  176.1560  143.8190 C   0  0  0  0  0  2  0  0  0  0  0  0
  196.6660  174.9340  144.4000 C   0  0  0  0  0  2  0  0  0  0  0  0
  196.0340  174.5280  145.7260 C   0  0  0  0  0  2  0  0  0  0  0  0
  196.0880  170.7370  145.9690 C   0  0  1  0  0  3  0  0  0  0  0  0
  194.5200  172.4740  145.6660 C   0  0  0  0  0  0  0  0  0  0  0  0
  193.4450  173.1150  145.5260 O   0  0  0  0  0  0  0  0  0  0  0  0
  196.8120  172.0960  145.9520 C   0  0  0  0  0  2  0  0  0  0  0  0
  194.5930  171.0060  145.7620 C   0  0  0  0  0  2  0  0  0  0  0  0
  195.7840  173.0920  145.7550 N   0  0  0  0  0  0  0  0  0  0  0  0
  196.6010  169.8500  144.8480 C   0  0  0  0  0  2  0  0  0  0  0  0
  195.7720  168.5840  144.7520 C   0  0  0  0  0  1  0  0  0  0  0  0
  1  9  1  1  0  0  0
  2 14  2  0  0  0  0
  3 13  2  0  0  0  0
  3 17  1  0  0  0  0
  4 19  1  0  0  0  0
  5  1  1  0  0  0  0
  6  5  2  0  0  0  0
  8  1  1  0  0  0  0
 10  2  1  0  0  0  0
 10 16  1  0  0  0  0
 11 18  1  0  0  0  0
 11  4  2  0  0  0  0
 12  7  1  6  0  0  0
 12 15  1  0  0  0  0
 13  7  2  0  0  0  0
 14  8  2  0  0  0  0
 15  6  1  1  0  0  0
 15  8  1  0  0  0  0
 17 18  1  0  0  0  0
 18 10  2  0  0  0  0
 19 16  2  0  0  0  0
 20 22  1  0  0  0  0
 22 21  1  0  0  0  0
 23 24  1  0  0  0  0
 23 22  2  0  0  0  0
 25 27  1  0  0  0  0
 25 23  1  0  0  0  0
 26 24  1  6  0  0  0
 26 21  1  0  0  0  0
 26 12  1  0  0  0  0
 27 20  2  0  0  0  0
 28 11  1  0  0  0  0
 29 31  1  0  0  0  0
 31 30  1  6  0  0  0
 31 28  1  0  0  0  0
 32  4  1  0  0  0  0
 32 33  1  0  0  0  0
 34 35  1  0  0  0  0
 34 33  1  0  0  0  0
 35 36  1  0  0  0  0
 36 42  1  0  0  0  0
 37 43  1  6  0  0  0
 38 42  1  0  0  0  0
 38 41  1  0  0  0  0
 39 38  2  0  0  0  0
 40 37  1  0  0  0  0
 41 37  1  0  0  0  0
 42 40  1  0  0  0  0
 44 43  1  0  0  0  0
M  END
>  <MODEL>
6

>  <REMARK>
 VINA RESULT:      -6.3      2.449      4.091
  Name = 
  10 active torsions:
  status: ('A' for Active; 'I' for Inactive)
    1  A    between atoms: O_4  and  C_16
    2  A    between atoms: O_4  and  P_33
    3  A    between atoms: C_5  and  O_25
    4  A    between atoms: C_7  and  C_26
    5  A    between atoms: C_7  and  C_36
    6  A    between atoms: C_13  and  O_25
    7  A    between atoms: C_13  and  C_26
    8  A    between atoms: C_18  and  C_31
    9  A    between atoms: C_20  and  C_29
   10  A    between atoms: C_36  and  N_44
                            x       y       z     vdW  Elec       q    Type
                         _______ _______ _______ _____ _____    ______ ____

>  <TORSDO>
F 10

$$$$
=
 OpenBabel11042418463D

 44 49  0  0  1  0  0  0  0  0999 V2000
  189.3870  173.6160  137.7530 C   0  0  2  0  0  3  0  0  0  0  0  0
  191.9600  173.1630  140.3040 C   0  0  0  0  0  3  0  0  0  0  0  0
  194.5770  175.3840  139.9440 C   0  0  0  0  0  3  0  0  0  0  0  0
  191.6040  176.3330  143.1530 C   0  0  0  0  0  0  0  0  0  0  0  0
  189.3090  174.0410  136.3830 N   0  0  0  0  0  0  0  0  0  0  0  0
  190.4550  174.1400  135.8200 C   0  0  0  0  0  3  0  0  0  0  0  0
  193.8260  174.4570  137.6190 C   0  0  0  0  0  3  0  0  0  0  0  0
  190.8450  173.4320  137.9600 C   0  0  0  0  0  0  0  0  0  0  0  0
  188.6590  172.2920  137.9170 C   0  0  0  0  0  1  0  0  0  0  0  0
  191.8550  174.2520  141.2840 C   0  0  0  0  0  0  0  0  0  0  0  0
  192.8800  175.9150  142.7480 C   0  0  0  0  0  0  0  0  0  0  0  0
  192.5990  174.9520  136.9170 C   0  0  2  0  0  3  0  0  0  0  0  0
  194.1930  174.9340  138.7790 C   0  0  0  0  0  0  0  0  0  0  0  0
  191.3870  173.2690  139.1370 C   0  0  0  0  0  0  0  0  0  0  0  0
  191.6030  173.7800  136.7140 C   0  0  2  0  0  3  0  0  0  0  0  0
  190.5910  174.6810  141.6970 C   0  0  0  0  0  3  0  0  0  0  0  0
  194.3540  174.5800  141.1850 C   0  0  0  0  0  2  0  0  0  0  0  0
  193.0110  174.8860  141.7860 C   0  0  0  0  0  0  0  0  0  0  0  0
  190.4650  175.7150  142.6220 C   0  0  0  0  0  3  0  0  0  0  0  0
  196.0670  177.8680  134.8620 C   0  0  0  0  0  3  0  0  0  0  0  0
  194.5970  175.6550  135.4620 C   0  0  0  0  0  2  0  0  0  0  0  0
  194.8460  177.0680  135.1090 C   0  0  0  0  0  0  0  0  0  0  0  0
  193.7990  177.8020  135.1300 C   0  0  0  0  0  0  0  0  0  0  0  0
  192.5510  177.0940  135.4600 C   0  0  0  0  0  2  0  0  0  0  0  0
  194.0620  179.1290  134.8860 O   0  0  0  0  0  0  0  0  0  0  0  0
  193.0620  175.6410  135.6190 C   0  0  2  0  0  3  0  0  0  0  0  0
  195.4670  179.2830  134.6770 C   0  0  0  0  0  3  0  0  0  0  0  0
  193.9890  176.5600  143.3070 O   0  0  0  0  0  0  0  0  0  0  0  0
  194.9730  177.5460  145.4810 O   0  0  0  0  0  1  0  0  0  0  0  0
  196.4390  175.9690  144.0170 N   0  0  0  0  0  1  0  0  0  0  0  0
  194.8060  175.9770  144.7590 P   0  0  2  0  0  0  0  0  0  0  0  0
  191.4990  177.3580  144.0990 O   0  0  0  0  0  0  0  0  0  0  0  0
  190.2590  177.7740  144.6560 C   0  0  0  0  0  2  0  0  0  0  0  0
  190.0820  177.1310  146.0190 C   0  0  0  0  0  2  0  0  0  0  0  0
  188.6870  176.5400  146.1480 C   0  0  0  0  0  2  0  0  0  0  0  0
  187.7670  177.4800  146.9180 C   0  0  0  0  0  2  0  0  0  0  0  0
  185.1430  178.1290  144.2500 C   0  0  1  0  0  3  0  0  0  0  0  0
  185.5990  178.7520  146.4790 C   0  0  0  0  0  0  0  0  0  0  0  0
  185.5100  179.2500  147.6320 O   0  0  0  0  0  0  0  0  0  0  0  0
  186.4550  177.4710  144.7170 C   0  0  0  0  0  2  0  0  0  0  0  0
  184.6100  178.9760  145.4110 C   0  0  0  0  0  2  0  0  0  0  0  0
  186.6570  177.9120  146.0780 N   0  0  0  0  0  0  0  0  0  0  0  0
  185.3980  179.0220  143.0470 C   0  0  0  0  0  2  0  0  0  0  0  0
  186.5150  178.4560  142.1930 C   0  0  0  0  0  1  0  0  0  0  0  0
  1  9  1  6  0  0  0
  1  8  1  0  0  0  0
  2 10  1  0  0  0  0
  3 17  1  0  0  0  0
  4 32  1  0  0  0  0
  5  1  1  0  0  0  0
  6  5  2  0  0  0  0
  7 13  2  0  0  0  0
  8 14  2  0  0  0  0
 10 16  2  0  0  0  0
 10 18  1  0  0  0  0
 11  4  1  0  0  0  0
 11 28  1  0  0  0  0
 12  7  1  6  0  0  0
 13  3  2  0  0  0  0
 14  2  2  0  0  0  0
 15  6  1  6  0  0  0
 15 12  1  0  0  0  0
 15  8  1  0  0  0  0
 16 19  1  0  0  0  0
 17 18  1  0  0  0  0
 18 11  2  0  0  0  0
 19  4  2  0  0  0  0
 20 22  1  0  0  0  0
 21 26  1  0  0  0  0
 22 23  2  0  0  0  0
 22 21  1  0  0  0  0
 23 24  1  0  0  0  0
 25 23  1  0  0  0  0
 26 24  1  1  0  0  0
 26 12  1  0  0  0  0
 27 20  2  0  0  0  0
 27 25  1  0  0  0  0
 28 31  1  0  0  0  0
 31 30  1  6  0  0  0
 31 29  1  0  0  0  0
 32 33  1  0  0  0  0
 33 34  1  0  0  0  0
 34 35  1  0  0  0  0
 35 36  1  0  0  0  0
 37 43  1  6  0  0  0
 37 40  1  0  0  0  0
 37 41  1  0  0  0  0
 38 39  2  0  0  0  0
 40 42  1  0  0  0  0
 41 38  1  0  0  0  0
 42 38  1  0  0  0  0
 42 36  1  0  0  0  0
 44 43  1  0  0  0  0
M  END
>  <MODEL>
7

>  <REMARK>
 VINA RESULT:      -6.3      4.117      8.538
  Name = 
  10 active torsions:
  status: ('A' for Active; 'I' for Inactive)
    1  A    between atoms: O_4  and  C_16
    2  A    between atoms: O_4  and  P_33
    3  A    between atoms: C_5  and  O_25
    4  A    between atoms: C_7  and  C_26
    5  A    between atoms: C_7  and  C_36
    6  A    between atoms: C_13  and  O_25
    7  A    between atoms: C_13  and  C_26
    8  A    between atoms: C_18  and  C_31
    9  A    between atoms: C_20  and  C_29
   10  A    between atoms: C_36  and  N_44
                            x       y       z     vdW  Elec       q    Type
                         _______ _______ _______ _____ _____    ______ ____

>  <TORSDO>
F 10

$$$$
=
 OpenBabel11042418463D

 44 49  0  0  1  0  0  0  0  0999 V2000
  189.8110  175.2900  143.7120 C   0  0  2  0  0  3  0  0  0  0  0  0
  191.0520  171.9540  144.5280 C   0  0  0  0  0  3  0  0  0  0  0  0
  192.5310  170.4010  141.8250 C   0  0  0  0  0  3  0  0  0  0  0  0
  195.3120  172.1470  144.8670 C   0  0  0  0  0  0  0  0  0  0  0  0
  189.2780  175.9770  142.5680 N   0  0  0  0  0  0  0  0  0  0  0  0
  188.9920  175.1930  141.5970 C   0  0  0  0  0  3  0  0  0  0  0  0
  190.3500  171.6420  141.0970 C   0  0  0  0  0  3  0  0  0  0  0  0
  189.7900  173.8680  143.2840 C   0  0  0  0  0  0  0  0  0  0  0  0
  188.8920  175.4960  144.9050 C   0  0  0  0  0  1  0  0  0  0  0  0
  192.5160  172.0050  144.6380 C   0  0  0  0  0  0  0  0  0  0  0  0
  194.7230  171.0430  144.2350 C   0  0  0  0  0  0  0  0  0  0  0  0
  190.3000  173.1260  140.9040 C   0  0  2  0  0  3  0  0  0  0  0  0
  191.4500  171.0340  141.4550 C   0  0  0  0  0  0  0  0  0  0  0  0
  190.4030  172.9160  143.9330 C   0  0  0  0  0  0  0  0  0  0  0  0
  189.2690  173.7470  141.8830 C   0  0  2  0  0  3  0  0  0  0  0  0
  193.1180  173.1000  145.2640 C   0  0  0  0  0  3  0  0  0  0  0  0
  192.6920  169.9190  143.2310 C   0  0  0  0  0  2  0  0  0  0  0  0
  193.3170  170.9790  144.0920 C   0  0  0  0  0  0  0  0  0  0  0  0
  194.5050  173.1730  145.3760 C   0  0  0  0  0  3  0  0  0  0  0  0
  189.6910  171.0060  136.4440 C   0  0  0  0  0  3  0  0  0  0  0  0
  189.1230  172.2940  138.7760 C   0  0  0  0  0  2  0  0  0  0  0  0
  189.8720  171.9830  137.5410 C   0  0  0  0  0  0  0  0  0  0  0  0
  190.9870  172.6040  137.4370 C   0  0  0  0  0  0  0  0  0  0  0  0
  191.2850  173.5320  138.5420 C   0  0  0  0  0  2  0  0  0  0  0  0
  191.7100  172.2380  136.3280 O   0  0  0  0  0  0  0  0  0  0  0  0
  190.0130  173.3830  139.4120 C   0  0  2  0  0  3  0  0  0  0  0  0
  190.9730  171.2470  135.6110 C   0  0  0  0  0  3  0  0  0  0  0  0
  195.5690  170.0420  143.7440 O   0  0  0  0  0  0  0  0  0  0  0  0
  195.6630  171.5690  141.6640 O   0  0  0  0  0  1  0  0  0  0  0  0
  195.7900  168.9870  141.3580 N   0  0  0  0  0  1  0  0  0  0  0  0
  196.5960  170.2640  142.3260 P   0  0  2  0  0  0  0  0  0  0  0  0
  196.7040  172.1930  144.9890 O   0  0  0  0  0  0  0  0  0  0  0  0
  197.4440  173.4060  144.9810 C   0  0  0  0  0  2  0  0  0  0  0  0
  197.6900  173.8320  143.5450 C   0  0  0  0  0  2  0  0  0  0  0  0
  197.3240  175.2970  143.3580 C   0  0  0  0  0  2  0  0  0  0  0  0
  195.9780  175.4360  142.6570 C   0  0  0  0  0  2  0  0  0  0  0  0
  193.9840  177.1660  145.3880 C   0  0  1  0  0  3  0  0  0  0  0  0
  193.6060  176.1140  143.3090 C   0  0  0  0  0  0  0  0  0  0  0  0
  193.0580  175.6740  142.2650 O   0  0  0  0  0  0  0  0  0  0  0  0
  195.3170  176.6500  144.8150 C   0  0  0  0  0  2  0  0  0  0  0  0
  192.8760  176.7890  144.3970 C   0  0  0  0  0  2  0  0  0  0  0  0
  194.9910  176.0190  143.5570 N   0  0  0  0  0  0  0  0  0  0  0  0
  193.7000  176.5190  146.7330 C   0  0  0  0  0  2  0  0  0  0  0  0
  192.2170  176.2430  146.8860 C   0  0  0  0  0  1  0  0  0  0  0  0
  1  9  1  1  0  0  0
  2 10  1  0  0  0  0
  3 17  1  0  0  0  0
  4 32  1  0  0  0  0
  4 19  1  0  0  0  0
  5  1  1  0  0  0  0
  6  5  2  0  0  0  0
  7 13  2  0  0  0  0
  8  1  1  0  0  0  0
  8 14  2  0  0  0  0
 10 16  1  0  0  0  0
 11  4  2  0  0  0  0
 12  7  1  6  0  0  0
 12 15  1  0  0  0  0
 13  3  2  0  0  0  0
 14  2  2  0  0  0  0
 15  6  1  6  0  0  0
 15  8  1  0  0  0  0
 16 19  2  0  0  0  0
 17 18  1  0  0  0  0
 18 11  1  0  0  0  0
 18 10  2  0  0  0  0
 20 22  1  0  0  0  0
 21 26  1  0  0  0  0
 22 21  1  0  0  0  0
 23 22  2  0  0  0  0
 23 24  1  0  0  0  0
 25 23  1  0  0  0  0
 26 24  1  6  0  0  0
 26 12  1  0  0  0  0
 27 25  1  0  0  0  0
 27 20  2  0  0  0  0
 28 11  1  0  0  0  0
 29 31  1  0  0  0  0
 31 30  1  6  0  0  0
 31 28  1  0  0  0  0
 33 32  1  0  0  0  0
 34 33  1  0  0  0  0
 35 34  1  0  0  0  0
 36 35  1  0  0  0  0
 36 42  1  0  0  0  0
 37 43  1  1  0  0  0
 38 42  1  0  0  0  0
 38 41  1  0  0  0  0
 39 38  2  0  0  0  0
 40 37  1  0  0  0  0
 41 37  1  0  0  0  0
 42 40  1  0  0  0  0
 43 44  1  0  0  0  0
M  END
>  <MODEL>
8

>  <REMARK>
 VINA RESULT:      -6.0      2.862      4.803
  Name = 
  10 active torsions:
  status: ('A' for Active; 'I' for Inactive)
    1  A    between atoms: O_4  and  C_16
    2  A    between atoms: O_4  and  P_33
    3  A    between atoms: C_5  and  O_25
    4  A    between atoms: C_7  and  C_26
    5  A    between atoms: C_7  and  C_36
    6  A    between atoms: C_13  and  O_25
    7  A    between atoms: C_13  and  C_26
    8  A    between atoms: C_18  and  C_31
    9  A    between atoms: C_20  and  C_29
   10  A    between atoms: C_36  and  N_44
                            x       y       z     vdW  Elec       q    Type
                         _______ _______ _______ _____ _____    ______ ____

>  <TORSDO>
F 10

$$$$
=
 OpenBabel11042418463D

 44 49  0  0  1  0  0  0  0  0999 V2000
  187.0940  176.4440  136.4760 C   0  0  2  0  0  3  0  0  0  0  0  0
  188.2160  173.6230  138.5040 C   0  0  0  0  0  3  0  0  0  0  0  0
  191.6560  173.3730  138.6230 C   0  0  0  0  0  3  0  0  0  0  0  0
  189.6750  175.1380  142.2280 C   0  0  0  0  0  0  0  0  0  0  0  0
  187.5450  177.1740  135.3230 N   0  0  0  0  0  0  0  0  0  0  0  0
  188.5190  176.6050  134.7170 C   0  0  0  0  0  3  0  0  0  0  0  0
  190.8550  173.9530  136.2040 C   0  0  0  0  0  3  0  0  0  0  0  0
  187.9760  175.2500  136.4790 C   0  0  0  0  0  0  0  0  0  0  0  0
  185.6440  176.0300  136.2800 C   0  0  0  0  0  1  0  0  0  0  0  0
  188.7290  174.1310  139.7830 C   0  0  0  0  0  0  0  0  0  0  0  0
  190.3640  174.0930  141.5960 C   0  0  0  0  0  0  0  0  0  0  0  0
  190.4290  175.3340  135.8110 C   0  0  2  0  0  3  0  0  0  0  0  0
  191.2590  173.6790  137.4170 C   0  0  0  0  0  0  0  0  0  0  0  0
  188.0640  174.4280  137.4890 C   0  0  0  0  0  0  0  0  0  0  0  0
  188.9510  175.3120  135.3420 C   0  0  2  0  0  3  0  0  0  0  0  0
  188.0550  175.1740  140.4260 C   0  0  0  0  0  3  0  0  0  0  0  0
  190.7520  172.6400  139.5620 C   0  0  0  0  0  2  0  0  0  0  0  0
  189.9070  173.6010  140.3510 C   0  0  0  0  0  0  0  0  0  0  0  0
  188.5250  175.6760  141.6370 C   0  0  0  0  0  3  0  0  0  0  0  0
  195.2500  175.7920  134.6700 C   0  0  0  0  0  3  0  0  0  0  0  0
  192.6690  174.9240  134.6190 C   0  0  0  0  0  2  0  0  0  0  0  0
  193.7740  175.9030  134.6770 C   0  0  0  0  0  0  0  0  0  0  0  0
  193.3940  177.1050  134.8980 C   0  0  0  0  0  0  0  0  0  0  0  0
  191.9370  177.2840  135.0120 C   0  0  0  0  0  2  0  0  0  0  0  0
  194.4390  177.9870  135.0360 O   0  0  0  0  0  0  0  0  0  0  0  0
  191.4350  175.8400  134.7600 C   0  0  2  0  0  3  0  0  0  0  0  0
  195.6650  177.2680  134.8860 C   0  0  0  0  0  3  0  0  0  0  0  0
  191.5070  173.5870  142.2250 O   0  0  0  0  0  0  0  0  0  0  0  0
  193.9330  172.7060  142.1380 O   0  0  0  0  0  1  0  0  0  0  0  0
  193.3780  174.7690  143.6250 N   0  0  0  0  0  1  0  0  0  0  0  0
  193.1250  174.2280  141.9340 P   0  0  2  0  0  0  0  0  0  0  0  0
  190.1500  175.6140  143.4540 O   0  0  0  0  0  0  0  0  0  0  0  0
  189.5560  175.2760  144.7010 C   0  0  0  0  0  2  0  0  0  0  0  0
  189.9340  176.3200  145.7350 C   0  0  0  0  0  2  0  0  0  0  0  0
  189.0370  177.5410  145.6070 C   0  0  0  0  0  2  0  0  0  0  0  0
  187.8500  177.4450  146.5600 C   0  0  0  0  0  2  0  0  0  0  0  0
  184.8030  177.9340  144.3440 C   0  0  1  0  0  3  0  0  0  0  0  0
  185.6830  178.7780  146.3640 C   0  0  0  0  0  0  0  0  0  0  0  0
  185.8240  179.4070  147.4460 O   0  0  0  0  0  0  0  0  0  0  0  0
  186.1560  177.2610  144.6450 C   0  0  0  0  0  2  0  0  0  0  0  0
  184.5220  178.9350  145.4700 C   0  0  0  0  0  2  0  0  0  0  0  0
  186.6200  177.8400  145.8840 N   0  0  0  0  0  0  0  0  0  0  0  0
  184.8630  178.6710  143.0160 C   0  0  0  0  0  2  0  0  0  0  0  0
  186.2250  178.4950  142.3730 C   0  0  0  0  0  1  0  0  0  0  0  0
  1  9  1  6  0  0  0
  1  8  1  0  0  0  0
  2 10  1  0  0  0  0
  3 17  1  0  0  0  0
  4 32  1  0  0  0  0
  5  1  1  0  0  0  0
  6  5  2  0  0  0  0
  7 13  2  0  0  0  0
  8 14  2  0  0  0  0
 10 18  2  0  0  0  0
 10 16  1  0  0  0  0
 11 28  1  0  0  0  0
 11  4  2  0  0  0  0
 12  7  1  6  0  0  0
 13  3  2  0  0  0  0
 14  2  2  0  0  0  0
 15  6  1  1  0  0  0
 15 12  1  0  0  0  0
 15  8  1  0  0  0  0
 16 19  2  0  0  0  0
 17 18  1  0  0  0  0
 18 11  1  0  0  0  0
 19  4  1  0  0  0  0
 20 22  1  0  0  0  0
 20 27  2  0  0  0  0
 21 22  1  0  0  0  0
 22 23  2  0  0  0  0
 23 24  1  0  0  0  0
 23 25  1  0  0  0  0
 26 21  1  1  0  0  0
 26 24  1  0  0  0  0
 26 12  1  0  0  0  0
 27 25  1  0  0  0  0
 31 29  1  1  0  0  0
 31 28  1  0  0  0  0
 31 30  1  0  0  0  0
 32 33  1  0  0  0  0
 33 34  1  0  0  0  0
 35 34  1  0  0  0  0
 35 36  1  0  0  0  0
 37 43  1  6  0  0  0
 37 40  1  0  0  0  0
 37 41  1  0  0  0  0
 38 39  2  0  0  0  0
 40 42  1  0  0  0  0
 41 38  1  0  0  0  0
 42 38  1  0  0  0  0
 42 36  1  0  0  0  0
 44 43  1  0  0  0  0
M  END
>  <MODEL>
9

>  <REMARK>
 VINA RESULT:      -5.9      4.451      8.525
  Name = 
  10 active torsions:
  status: ('A' for Active; 'I' for Inactive)
    1  A    between atoms: O_4  and  C_16
    2  A    between atoms: O_4  and  P_33
    3  A    between atoms: C_5  and  O_25
    4  A    between atoms: C_7  and  C_26
    5  A    between atoms: C_7  and  C_36
    6  A    between atoms: C_13  and  O_25
    7  A    between atoms: C_13  and  C_26
    8  A    between atoms: C_18  and  C_31
    9  A    between atoms: C_20  and  C_29
   10  A    between atoms: C_36  and  N_44
                            x       y       z     vdW  Elec       q    Type
                         _______ _______ _______ _____ _____    ______ ____

>  <TORSDO>
F 10

$$$$
