=
 OpenBabel11042419223D

 42 46  0  0  1  0  0  0  0  0999 V2000
  189.9070  172.8840  140.5590 C   0  0  0  0  0  0  0  0  0  0  0  0
  187.6780  175.8550  141.6080 C   0  0  0  0  0  3  0  0  0  0  0  0
  190.4160  173.7900  143.8880 N   0  0  0  0  0  0  0  0  0  0  0  0
  188.8250  173.8800  142.3110 C   0  0  0  0  0  0  0  0  0  0  0  0
  189.1870  174.4170  143.4980 C   0  0  0  0  0  0  0  0  0  0  0  0
  188.7260  175.6970  143.8450 C   0  0  0  0  0  0  0  0  0  0  0  0
  190.7640  172.9620  142.9710 N   0  0  0  0  0  0  0  0  0  0  0  0
  189.7700  172.9870  141.9450 C   0  0  0  0  0  0  0  0  0  0  0  0
  188.1790  174.5770  141.3290 C   0  0  0  0  0  0  0  0  0  0  0  0
  188.7840  173.9810  139.8640 S   0  0  0  0  0  0  0  0  0  0  0  0
  187.9180  176.3950  142.9000 C   0  0  0  0  0  3  0  0  0  0  0  0
  190.9580  172.2040  139.8520 N   0  0  0  0  0  0  0  0  0  0  0  0
  191.1980  170.8370  140.0540 C   0  0  0  0  0  0  0  0  0  0  0  0
  191.3950  169.7090  140.2210 N   0  0  0  0  0  0  0  0  0  0  0  0
  191.8400  172.9230  138.9410 C   0  0  0  0  0  2  0  0  0  0  0  0
  192.7040  173.9210  139.6970 C   0  0  0  0  0  2  0  0  0  0  0  0
  194.0570  173.3120  140.0220 C   0  0  0  0  0  2  0  0  0  0  0  0
  194.9240  172.8940  143.4660 C   0  0  0  0  0  0  0  0  0  0  0  0
  194.3760  174.1660  143.5340 C   0  0  2  0  0  3  0  0  0  0  0  0
  194.3240  173.4220  141.4830 C   0  0  0  0  0  0  0  0  0  0  0  0
  194.8850  172.4320  142.2050 N   0  0  0  0  0  0  0  0  0  0  0  0
  195.4940  172.0990  144.5900 C   0  0  0  0  0  1  0  0  0  0  0  0
  193.9850  174.5190  142.2560 C   0  0  0  0  0  3  0  0  0  0  0  0
  194.2340  175.0030  144.6970 N   0  0  2  0  0  0  0  0  0  0  0  0
  191.8560  175.5360  147.5770 C   0  0  0  0  0  1  0  0  0  0  0  0
  192.7630  175.9140  146.4240 C   0  0  1  0  0  3  0  0  0  0  0  0
  193.8630  176.6450  146.9080 O   0  0  0  0  0  0  0  0  0  0  0  0
  195.2050  176.0550  145.0040 C   0  0  0  0  0  2  0  0  0  0  0  0
  194.5130  177.1770  145.7790 C   0  0  0  0  0  2  0  0  0  0  0  0
  193.2510  174.6460  145.7230 C   0  0  0  0  0  2  0  0  0  0  0  0
  189.1570  176.3300  145.1340 C   0  0  2  0  0  3  0  0  0  0  0  0
  188.4590  175.2360  147.1480 O   0  0  0  0  0  1  0  0  0  0  0  0
  188.0830  176.2110  146.2230 C   0  0  1  0  0  3  0  0  0  0  0  0
  187.8200  177.5380  146.9290 C   0  0  0  0  0  2  0  0  0  0  0  0
  186.3890  177.7440  147.1080 N   0  0  0  0  0  2  0  0  0  0  0  0
  185.5630  178.3830  146.1330 C   0  0  0  0  0  0  0  0  0  0  0  0
  186.1500  178.9920  145.1010 C   0  0  0  0  0  3  0  0  0  0  0  0
  184.0730  178.3930  146.2920 C   0  0  0  0  0  1  0  0  0  0  0  0
  185.4020  179.6990  144.0160 C   0  0  0  0  0  2  0  0  0  0  0  0
  185.1760  178.7680  142.8380 C   0  0  0  0  0  1  0  0  0  0  0  0
  190.7900  177.6740  144.3350 O   0  0  0  0  0  1  0  0  0  0  0  0
  189.5710  177.7120  144.9250 N   0  0  0  0  0  2  0  0  0  0  0  0
  1  8  2  0  0  0  0
  2 11  1  0  0  0  0
  4  5  2  0  0  0  0
  5  6  1  0  0  0  0
  5  3  1  0  0  0  0
  6 31  1  0  0  0  0
  7  3  2  0  0  0  0
  8  4  1  0  0  0  0
  8  7  1  0  0  0  0
  9  2  2  0  0  0  0
  9  4  1  0  0  0  0
 10  1  1  0  0  0  0
 10  9  1  0  0  0  0
 11  6  2  0  0  0  0
 12 13  1  0  0  0  0
 12  1  1  0  0  0  0
 13 14  3  0  0  0  0
 15 16  1  0  0  0  0
 15 12  1  0  0  0  0
 16 17  1  0  0  0  0
 17 20  1  0  0  0  0
 18 19  1  0  0  0  0
 18 22  1  0  0  0  0
 19 23  1  6  0  0  0
 19 24  1  0  0  0  0
 20 21  1  0  0  0  0
 20 23  2  0  0  0  0
 21 18  2  0  0  0  0
 24 28  1  1  0  0  0
 24 30  1  0  0  0  0
 26 27  1  0  0  0  0
 26 25  1  1  0  0  0
 28 29  1  0  0  0  0
 29 27  1  0  0  0  0
 30 26  1  0  0  0  0
 31 42  1  6  0  0  0
 31 33  1  0  0  0  0
 33 34  1  0  0  0  0
 33 32  1  1  0  0  0
 34 35  1  0  0  0  0
 36 38  1  0  0  0  0
 36 35  1  0  0  0  0
 37 36  2  0  0  0  0
 39 37  1  0  0  0  0
 40 39  1  0  0  0  0
 41 42  1  0  0  0  0
M  END
>  <MODEL>
1

>  <REMARK>
 VINA RESULT:      -6.6      0.000      0.000
  Name = 
  14 active torsions:
  status: ('A' for Active; 'I' for Inactive)
    1  A    between atoms: N_1  and  C_10
    2  A    between atoms: N_3  and  C_4
    3  A    between atoms: N_3  and  C_6
    4  A    between atoms: N_3  and  C_9
    5  A    between atoms: C_9  and  C_29
    6  A    between atoms: C_13  and  C_32
    7  A    between atoms: C_19  and  C_23
    8  A    between atoms: C_19  and  N_33
    9  A    between atoms: C_20  and  C_36
   10  A    between atoms: C_22  and  C_31
   11  A    between atoms: C_23  and  C_31
   12  A    between atoms: C_29  and  C_32
   13  A    between atoms: C_30  and  N_33
   14  A    between atoms: C_31  and  N_39
                            x       y       z     vdW  Elec       q    Type
                         _______ _______ _______ _____ _____    ______ ____

>  <TORSDO>
F 14

$$$$
=
 OpenBabel11042419223D

 42 46  0  0  1  0  0  0  0  0999 V2000
  193.6340  176.0900  145.1540 C   0  0  0  0  0  0  0  0  0  0  0  0
  189.8810  175.7540  145.9910 C   0  0  0  0  0  3  0  0  0  0  0  0
  191.6280  176.4010  142.3180 N   0  0  0  0  0  0  0  0  0  0  0  0
  191.5200  176.7070  144.5360 C   0  0  0  0  0  0  0  0  0  0  0  0
  190.7460  176.5590  143.4370 C   0  0  0  0  0  0  0  0  0  0  0  0
  189.4370  176.0720  143.5760 C   0  0  0  0  0  0  0  0  0  0  0  0
  192.8400  176.4250  142.7420 N   0  0  0  0  0  0  0  0  0  0  0  0
  192.8140  176.6230  144.1580 C   0  0  0  0  0  0  0  0  0  0  0  0
  191.1770  176.2400  145.7740 C   0  0  0  0  0  0  0  0  0  0  0  0
  192.6240  175.7390  146.4970 S   0  0  0  0  0  0  0  0  0  0  0  0
  188.9920  175.7170  144.8840 C   0  0  0  0  0  3  0  0  0  0  0  0
  194.9990  175.6630  145.0010 N   0  0  0  0  0  0  0  0  0  0  0  0
  195.8820  176.3570  144.1600 C   0  0  0  0  0  0  0  0  0  0  0  0
  196.6110  176.9280  143.4660 N   0  0  0  0  0  0  0  0  0  0  0  0
  195.4940  174.4690  145.6740 C   0  0  0  0  0  2  0  0  0  0  0  0
  195.9700  173.4350  144.6630 C   0  0  0  0  0  2  0  0  0  0  0  0
  195.2210  172.1270  144.8480 C   0  0  0  0  0  2  0  0  0  0  0  0
  191.7680  172.3300  143.9390 C   0  0  0  0  0  0  0  0  0  0  0  0
  192.3190  172.2110  142.6710 C   0  0  0  0  0  0  0  0  0  0  0  0
  193.8890  172.2100  144.1890 C   0  0  0  0  0  0  0  0  0  0  0  0
  192.7340  172.3210  144.8740 N   0  0  0  0  0  2  0  0  0  0  0  0
  190.3240  172.4560  144.2830 C   0  0  0  0  0  1  0  0  0  0  0  0
  193.6910  172.1340  142.8210 C   0  0  0  0  0  3  0  0  0  0  0  0
  191.6270  172.1830  141.4090 N   0  0  0  0  0  0  0  0  0  0  0  0
  190.3660  169.6810  138.8820 C   0  0  0  0  0  1  0  0  0  0  0  0
  191.0580  170.9300  139.3890 C   0  0  1  0  0  3  0  0  0  0  0  0
  190.3700  172.0700  138.9330 O   0  0  0  0  0  0  0  0  0  0  0  0
  191.2370  173.4160  140.7240 C   0  0  0  0  0  2  0  0  0  0  0  0
  191.1970  173.1720  139.2160 C   0  0  0  0  0  2  0  0  0  0  0  0
  191.0830  170.9150  140.9160 C   0  0  0  0  0  2  0  0  0  0  0  0
  188.5810  175.8540  142.3650 C   0  0  2  0  0  3  0  0  0  0  0  0
  187.0120  176.9170  140.9000 O   0  0  0  0  0  1  0  0  0  0  0  0
  188.0700  177.1730  141.7740 C   0  0  1  0  0  3  0  0  0  0  0  0
  187.6390  178.1660  142.8500 C   0  0  0  0  0  2  0  0  0  0  0  0
  186.1860  178.2340  142.9260 N   0  0  0  0  0  2  0  0  0  0  0  0
  185.4600  178.0960  144.1500 C   0  0  0  0  0  0  0  0  0  0  0  0
  185.8270  177.1390  145.0040 C   0  0  0  0  0  3  0  0  0  0  0  0
  184.2940  178.9900  144.4430 C   0  0  0  0  0  1  0  0  0  0  0  0
  185.1500  176.8880  146.3140 C   0  0  0  0  0  2  0  0  0  0  0  0
  186.1380  177.0400  147.4560 C   0  0  0  0  0  1  0  0  0  0  0  0
  187.8150  173.7460  142.0760 O   0  0  0  0  0  1  0  0  0  0  0  0
  187.4930  174.9270  142.6550 N   0  0  0  0  0  2  0  0  0  0  0  0
  1 10  1  0  0  0  0
  3  7  2  0  0  0  0
  3  5  1  0  0  0  0
  4  9  2  0  0  0  0
  5  6  2  0  0  0  0
  5  4  1  0  0  0  0
  6 11  1  0  0  0  0
  7  8  1  0  0  0  0
  8  4  1  0  0  0  0
  8  1  2  0  0  0  0
  9  2  1  0  0  0  0
  9 10  1  0  0  0  0
 11  2  2  0  0  0  0
 12  1  1  0  0  0  0
 12 15  1  0  0  0  0
 13 12  1  0  0  0  0
 14 13  3  0  0  0  0
 16 17  1  0  0  0  0
 16 15  1  0  0  0  0
 18 22  1  0  0  0  0
 18 21  1  0  0  0  0
 19 23  1  0  0  0  0
 19 18  2  0  0  0  0
 20 17  1  0  0  0  0
 20 21  1  0  0  0  0
 23 20  2  0  0  0  0
 24 19  1  0  0  0  0
 26 25  1  1  0  0  0
 26 30  1  0  0  0  0
 27 29  1  0  0  0  0
 27 26  1  0  0  0  0
 28 24  1  0  0  0  0
 29 28  1  0  0  0  0
 30 24  1  0  0  0  0
 31 42  1  1  0  0  0
 31  6  1  0  0  0  0
 33 32  1  6  0  0  0
 33 31  1  0  0  0  0
 33 34  1  0  0  0  0
 34 35  1  0  0  0  0
 35 36  1  0  0  0  0
 36 38  1  0  0  0  0
 36 37  2  0  0  0  0
 37 39  1  0  0  0  0
 39 40  1  0  0  0  0
 41 42  1  0  0  0  0
M  END
>  <MODEL>
2

>  <REMARK>
 VINA RESULT:      -6.3      2.804      5.625
  Name = 
  14 active torsions:
  status: ('A' for Active; 'I' for Inactive)
    1  A    between atoms: N_1  and  C_10
    2  A    between atoms: N_3  and  C_4
    3  A    between atoms: N_3  and  C_6
    4  A    between atoms: N_3  and  C_9
    5  A    between atoms: C_9  and  C_29
    6  A    between atoms: C_13  and  C_32
    7  A    between atoms: C_19  and  C_23
    8  A    between atoms: C_19  and  N_33
    9  A    between atoms: C_20  and  C_36
   10  A    between atoms: C_22  and  C_31
   11  A    between atoms: C_23  and  C_31
   12  A    between atoms: C_29  and  C_32
   13  A    between atoms: C_30  and  N_33
   14  A    between atoms: C_31  and  N_39
                            x       y       z     vdW  Elec       q    Type
                         _______ _______ _______ _____ _____    ______ ____

>  <TORSDO>
F 14

$$$$
=
 OpenBabel11042419223D

 42 46  0  0  1  0  0  0  0  0999 V2000
  190.9130  171.5750  141.1720 C   0  0  0  0  0  0  0  0  0  0  0  0
  192.0790  175.1310  142.1160 C   0  0  0  0  0  3  0  0  0  0  0  0
  189.5230  172.6510  144.1850 N   0  0  0  0  0  0  0  0  0  0  0  0
  190.3440  173.4960  142.2770 C   0  0  0  0  0  0  0  0  0  0  0  0
  190.0380  173.8300  143.5510 C   0  0  0  0  0  0  0  0  0  0  0  0
  190.6920  174.9160  144.1560 C   0  0  0  0  0  0  0  0  0  0  0  0
  189.5560  171.6840  143.3420 N   0  0  0  0  0  0  0  0  0  0  0  0
  190.0710  172.1830  142.1060 C   0  0  0  0  0  0  0  0  0  0  0  0
  191.3900  174.0340  141.5820 C   0  0  0  0  0  0  0  0  0  0  0  0
  191.9920  172.7850  140.6100 S   0  0  0  0  0  0  0  0  0  0  0  0
  191.6870  175.6010  143.3980 C   0  0  0  0  0  3  0  0  0  0  0  0
  191.0370  170.1640  140.9250 N   0  0  0  0  0  0  0  0  0  0  0  0
  190.7610  169.6250  139.6600 C   0  0  0  0  0  0  0  0  0  0  0  0
  190.5340  169.1800  138.6160 N   0  0  0  0  0  0  0  0  0  0  0  0
  191.4040  169.2430  141.9930 C   0  0  0  0  0  2  0  0  0  0  0  0
  192.7750  169.5860  142.5580 C   0  0  0  0  0  2  0  0  0  0  0  0
  192.6650  169.9680  144.0240 C   0  0  0  0  0  2  0  0  0  0  0  0
  195.4640  171.8300  145.2430 C   0  0  0  0  0  0  0  0  0  0  0  0
  194.8180  172.8410  144.5470 C   0  0  0  0  0  0  0  0  0  0  0  0
  193.7150  170.9660  144.3670 C   0  0  0  0  0  0  0  0  0  0  0  0
  194.7810  170.6770  145.1390 N   0  0  0  0  0  2  0  0  0  0  0  0
  196.7350  171.9380  146.0120 C   0  0  0  0  0  1  0  0  0  0  0  0
  193.6850  172.2930  143.9750 C   0  0  0  0  0  3  0  0  0  0  0  0
  195.2250  174.2160  144.4120 N   0  0  0  0  0  0  0  0  0  0  0  0
  194.6500  177.5570  146.0660 C   0  0  0  0  0  1  0  0  0  0  0  0
  194.7890  176.5640  144.9300 C   0  0  1  0  0  3  0  0  0  0  0  0
  195.9090  176.8960  144.1450 O   0  0  0  0  0  0  0  0  0  0  0  0
  196.1150  174.6450  143.3310 C   0  0  0  0  0  2  0  0  0  0  0  0
  195.8280  176.1060  142.9840 C   0  0  0  0  0  2  0  0  0  0  0  0
  194.9540  175.1560  145.5010 C   0  0  0  0  0  2  0  0  0  0  0  0
  190.4020  175.2710  145.5830 C   0  0  2  0  0  3  0  0  0  0  0  0
  188.5020  175.2040  147.0390 O   0  0  0  0  0  1  0  0  0  0  0  0
  188.9350  175.6630  145.7950 C   0  0  1  0  0  3  0  0  0  0  0  0
  188.7120  177.1680  145.6780 C   0  0  0  0  0  2  0  0  0  0  0  0
  187.5220  177.5650  146.4190 N   0  0  0  0  0  2  0  0  0  0  0  0
  186.2760  177.8720  145.7910 C   0  0  0  0  0  0  0  0  0  0  0  0
  186.2690  178.7490  144.7840 C   0  0  0  0  0  3  0  0  0  0  0  0
  185.0070  177.2430  146.2800 C   0  0  0  0  0  1  0  0  0  0  0  0
  185.0340  179.1580  144.0460 C   0  0  0  0  0  2  0  0  0  0  0  0
  184.9250  178.3950  142.7380 C   0  0  0  0  0  1  0  0  0  0  0  0
  191.6060  176.0060  147.3510 O   0  0  0  0  0  1  0  0  0  0  0  0
  191.3170  176.3010  146.0600 N   0  0  0  0  0  2  0  0  0  0  0  0
  1  8  2  0  0  0  0
  2 11  1  0  0  0  0
  4  5  2  0  0  0  0
  5  6  1  0  0  0  0
  5  3  1  0  0  0  0
  6 31  1  0  0  0  0
  7  3  2  0  0  0  0
  8  4  1  0  0  0  0
  8  7  1  0  0  0  0
  9  2  2  0  0  0  0
  9  4  1  0  0  0  0
 10  1  1  0  0  0  0
 10  9  1  0  0  0  0
 11  6  2  0  0  0  0
 12  1  1  0  0  0  0
 12 15  1  0  0  0  0
 13 12  1  0  0  0  0
 14 13  3  0  0  0  0
 15 16  1  0  0  0  0
 16 17  1  0  0  0  0
 17 20  1  0  0  0  0
 18 22  1  0  0  0  0
 19 18  2  0  0  0  0
 20 21  1  0  0  0  0
 21 18  1  0  0  0  0
 23 20  2  0  0  0  0
 23 19  1  0  0  0  0
 24 19  1  0  0  0  0
 24 30  1  0  0  0  0
 26 30  1  0  0  0  0
 26 25  1  1  0  0  0
 27 26  1  0  0  0  0
 28 24  1  0  0  0  0
 29 28  1  0  0  0  0
 29 27  1  0  0  0  0
 31 33  1  0  0  0  0
 31 42  1  6  0  0  0
 33 32  1  1  0  0  0
 34 33  1  0  0  0  0
 34 35  1  0  0  0  0
 36 38  1  0  0  0  0
 36 35  1  0  0  0  0
 37 36  2  0  0  0  0
 39 37  1  0  0  0  0
 40 39  1  0  0  0  0
 42 41  1  0  0  0  0
M  END
>  <MODEL>
3

>  <REMARK>
 VINA RESULT:      -6.2      1.988      2.656
  Name = 
  14 active torsions:
  status: ('A' for Active; 'I' for Inactive)
    1  A    between atoms: N_1  and  C_10
    2  A    between atoms: N_3  and  C_4
    3  A    between atoms: N_3  and  C_6
    4  A    between atoms: N_3  and  C_9
    5  A    between atoms: C_9  and  C_29
    6  A    between atoms: C_13  and  C_32
    7  A    between atoms: C_19  and  C_23
    8  A    between atoms: C_19  and  N_33
    9  A    between atoms: C_20  and  C_36
   10  A    between atoms: C_22  and  C_31
   11  A    between atoms: C_23  and  C_31
   12  A    between atoms: C_29  and  C_32
   13  A    between atoms: C_30  and  N_33
   14  A    between atoms: C_31  and  N_39
                            x       y       z     vdW  Elec       q    Type
                         _______ _______ _______ _____ _____    ______ ____

>  <TORSDO>
F 14

$$$$
=
 OpenBabel11042419223D

 42 46  0  0  1  0  0  0  0  0999 V2000
  189.7360  172.5840  140.6180 C   0  0  0  0  0  0  0  0  0  0  0  0
  187.9430  175.8430  141.6460 C   0  0  0  0  0  3  0  0  0  0  0  0
  190.8900  173.8030  143.6750 N   0  0  0  0  0  0  0  0  0  0  0  0
  189.0550  173.8620  142.3880 C   0  0  0  0  0  0  0  0  0  0  0  0
  189.6580  174.4930  143.4210 C   0  0  0  0  0  0  0  0  0  0  0  0
  189.3580  175.8400  143.6770 C   0  0  0  0  0  0  0  0  0  0  0  0
  191.0100  172.8500  142.8240 N   0  0  0  0  0  0  0  0  0  0  0  0
  189.8540  172.8510  141.9830 C   0  0  0  0  0  0  0  0  0  0  0  0
  188.2960  174.5020  141.4490 C   0  0  0  0  0  0  0  0  0  0  0  0
  188.5880  173.6950  139.9890 S   0  0  0  0  0  0  0  0  0  0  0  0
  188.4460  176.4990  142.8010 C   0  0  0  0  0  3  0  0  0  0  0  0
  190.5940  171.7360  139.8350 N   0  0  0  0  0  0  0  0  0  0  0  0
  190.7430  170.3760  140.1430 C   0  0  0  0  0  0  0  0  0  0  0  0
  190.8640  169.2530  140.3990 N   0  0  0  0  0  0  0  0  0  0  0  0
  191.3770  172.2730  138.7290 C   0  0  0  0  0  2  0  0  0  0  0  0
  191.9110  173.6580  139.0650 C   0  0  0  0  0  2  0  0  0  0  0  0
  193.4150  173.7110  138.8600 C   0  0  0  0  0  2  0  0  0  0  0  0
  195.3160  175.7820  141.0700 C   0  0  0  0  0  0  0  0  0  0  0  0
  194.6590  175.0060  142.0130 C   0  0  2  0  0  3  0  0  0  0  0  0
  194.0560  174.4290  139.9950 C   0  0  0  0  0  0  0  0  0  0  0  0
  194.9510  175.4220  139.8270 N   0  0  0  0  0  0  0  0  0  0  0  0
  196.2950  176.8750  141.3290 C   0  0  0  0  0  1  0  0  0  0  0  0
  193.8400  174.1270  141.3290 C   0  0  0  0  0  3  0  0  0  0  0  0
  194.7730  175.0770  143.4460 N   0  0  2  0  0  0  0  0  0  0  0  0
  196.8880  173.6660  146.2340 C   0  0  0  0  0  1  0  0  0  0  0  0
  195.6220  174.0770  145.5080 C   0  0  1  0  0  3  0  0  0  0  0  0
  194.9840  175.1110  146.2170 O   0  0  0  0  0  0  0  0  0  0  0  0
  193.8420  175.8750  144.2460 C   0  0  0  0  0  2  0  0  0  0  0  0
  193.7100  175.2600  145.6400 C   0  0  0  0  0  2  0  0  0  0  0  0
  195.9740  174.5530  144.1000 C   0  0  0  0  0  2  0  0  0  0  0  0
  190.0530  176.5700  144.7870 C   0  0  2  0  0  3  0  0  0  0  0  0
  189.9910  177.0480  147.1330 O   0  0  0  0  0  1  0  0  0  0  0  0
  189.5380  176.1470  146.1680 C   0  0  1  0  0  3  0  0  0  0  0  0
  188.0160  176.0410  146.2140 C   0  0  0  0  0  2  0  0  0  0  0  0
  187.4590  177.0930  147.0550 N   0  0  0  0  0  2  0  0  0  0  0  0
  186.6050  178.1240  146.5530 C   0  0  0  0  0  0  0  0  0  0  0  0
  186.4820  178.2620  145.2310 C   0  0  0  0  0  3  0  0  0  0  0  0
  185.8940  179.0440  147.4970 C   0  0  0  0  0  1  0  0  0  0  0  0
  185.6260  179.3000  144.5790 C   0  0  0  0  0  2  0  0  0  0  0  0
  185.6680  179.1470  143.0690 C   0  0  0  0  0  1  0  0  0  0  0  0
  191.1110  178.3890  143.9590 O   0  0  0  0  0  1  0  0  0  0  0  0
  189.9740  178.0130  144.5920 N   0  0  0  0  0  2  0  0  0  0  0  0
  1  8  2  0  0  0  0
  2 11  1  0  0  0  0
  4  5  2  0  0  0  0
  5  3  1  0  0  0  0
  5  6  1  0  0  0  0
  6 31  1  0  0  0  0
  7  3  2  0  0  0  0
  8  4  1  0  0  0  0
  8  7  1  0  0  0  0
  9  2  2  0  0  0  0
  9  4  1  0  0  0  0
 10  1  1  0  0  0  0
 10  9  1  0  0  0  0
 11  6  2  0  0  0  0
 12 13  1  0  0  0  0
 12  1  1  0  0  0  0
 13 14  3  0  0  0  0
 15 16  1  0  0  0  0
 15 12  1  0  0  0  0
 17 16  1  0  0  0  0
 17 20  1  0  0  0  0
 18 22  1  0  0  0  0
 18 19  1  0  0  0  0
 19 23  1  1  0  0  0
 19 24  1  0  0  0  0
 20 23  2  0  0  0  0
 21 20  1  0  0  0  0
 21 18  2  0  0  0  0
 24 30  1  6  0  0  0
 24 28  1  0  0  0  0
 26 27  1  0  0  0  0
 26 25  1  1  0  0  0
 28 29  1  0  0  0  0
 29 27  1  0  0  0  0
 30 26  1  0  0  0  0
 31 42  1  6  0  0  0
 31 33  1  0  0  0  0
 33 34  1  0  0  0  0
 33 32  1  1  0  0  0
 34 35  1  0  0  0  0
 36 35  1  0  0  0  0
 36 38  1  0  0  0  0
 37 36  2  0  0  0  0
 39 37  1  0  0  0  0
 40 39  1  0  0  0  0
 41 42  1  0  0  0  0
M  END
>  <MODEL>
4

>  <REMARK>
 VINA RESULT:      -6.2      1.370      1.984
  Name = 
  14 active torsions:
  status: ('A' for Active; 'I' for Inactive)
    1  A    between atoms: N_1  and  C_10
    2  A    between atoms: N_3  and  C_4
    3  A    between atoms: N_3  and  C_6
    4  A    between atoms: N_3  and  C_9
    5  A    between atoms: C_9  and  C_29
    6  A    between atoms: C_13  and  C_32
    7  A    between atoms: C_19  and  C_23
    8  A    between atoms: C_19  and  N_33
    9  A    between atoms: C_20  and  C_36
   10  A    between atoms: C_22  and  C_31
   11  A    between atoms: C_23  and  C_31
   12  A    between atoms: C_29  and  C_32
   13  A    between atoms: C_30  and  N_33
   14  A    between atoms: C_31  and  N_39
                            x       y       z     vdW  Elec       q    Type
                         _______ _______ _______ _____ _____    ______ ____

>  <TORSDO>
F 14

$$$$
=
 OpenBabel11042419223D

 42 46  0  0  1  0  0  0  0  0999 V2000
  191.4500  172.3500  143.3770 C   0  0  0  0  0  0  0  0  0  0  0  0
  192.6600  174.9340  145.9750 C   0  0  0  0  0  3  0  0  0  0  0  0
  194.9300  172.4590  143.5910 N   0  0  0  0  0  0  0  0  0  0  0  0
  193.1200  172.8780  144.8470 C   0  0  0  0  0  0  0  0  0  0  0  0
  194.4460  173.1300  144.7630 C   0  0  0  0  0  0  0  0  0  0  0  0
  194.9710  174.2810  145.3730 C   0  0  0  0  0  0  0  0  0  0  0  0
  193.9420  171.8790  143.0130 N   0  0  0  0  0  0  0  0  0  0  0  0
  192.7650  172.1200  143.7880 C   0  0  0  0  0  0  0  0  0  0  0  0
  192.2090  173.7710  145.3380 C   0  0  0  0  0  0  0  0  0  0  0  0
  190.8050  173.5510  144.4190 S   0  0  0  0  0  0  0  0  0  0  0  0
  194.0610  175.1600  146.0300 C   0  0  0  0  0  3  0  0  0  0  0  0
  190.8400  171.8810  142.1620 N   0  0  0  0  0  0  0  0  0  0  0  0
  190.6880  170.5090  141.9120 C   0  0  0  0  0  0  0  0  0  0  0  0
  190.5640  169.3770  141.7050 N   0  0  0  0  0  0  0  0  0  0  0  0
  190.4060  172.8140  141.1290 C   0  0  0  0  0  2  0  0  0  0  0  0
  188.9040  173.0460  141.2050 C   0  0  0  0  0  2  0  0  0  0  0  0
  188.5220  174.3030  140.4420 C   0  0  0  0  0  2  0  0  0  0  0  0
  187.2230  177.1800  142.1220 C   0  0  0  0  0  0  0  0  0  0  0  0
  187.3980  176.3500  143.2190 C   0  0  2  0  0  3  0  0  0  0  0  0
  187.9920  175.3260  141.3850 C   0  0  0  0  0  0  0  0  0  0  0  0
  187.5960  176.5530  140.9930 N   0  0  0  0  0  0  0  0  0  0  0  0
  186.7000  178.5750  142.1240 C   0  0  0  0  0  1  0  0  0  0  0  0
  187.8940  175.1460  142.7540 C   0  0  0  0  0  3  0  0  0  0  0  0
  187.1150  176.6430  144.6000 N   0  0  2  0  0  0  0  0  0  0  0  0
  184.4140  178.2270  146.7050 C   0  0  0  0  0  1  0  0  0  0  0  0
  185.8200  177.9400  146.2170 C   0  0  1  0  0  3  0  0  0  0  0  0
  186.5560  177.3120  147.2390 O   0  0  0  0  0  0  0  0  0  0  0  0
  188.0760  176.3290  145.6590 C   0  0  0  0  0  2  0  0  0  0  0  0
  187.8980  177.3110  146.8170 C   0  0  0  0  0  2  0  0  0  0  0  0
  185.7580  177.0320  144.9890 C   0  0  0  0  0  2  0  0  0  0  0  0
  196.4290  174.6020  145.2480 C   0  0  2  0  0  3  0  0  0  0  0  0
  196.9540  174.5760  142.9110 O   0  0  0  0  0  1  0  0  0  0  0  0
  196.7330  175.4290  143.9940 C   0  0  1  0  0  3  0  0  0  0  0  0
  195.6220  176.4230  143.6670 C   0  0  0  0  0  2  0  0  0  0  0  0
  195.0030  176.0910  142.3900 N   0  0  0  0  0  2  0  0  0  0  0  0
  193.5910  175.9520  142.2190 C   0  0  0  0  0  0  0  0  0  0  0  0
  192.7810  176.7380  142.9330 C   0  0  0  0  0  3  0  0  0  0  0  0
  193.0400  174.9210  141.2810 C   0  0  0  0  0  1  0  0  0  0  0  0
  191.2890  176.6900  142.8500 C   0  0  0  0  0  2  0  0  0  0  0  0
  190.6860  177.9310  143.4840 C   0  0  0  0  0  1  0  0  0  0  0  0
  197.1170  172.9020  146.5710 O   0  0  0  0  0  1  0  0  0  0  0  0
  197.2380  173.3910  145.3130 N   0  0  0  0  0  2  0  0  0  0  0  0
  1  8  2  0  0  0  0
  1 10  1  0  0  0  0
  2 11  1  0  0  0  0
  3  5  1  0  0  0  0
  4  9  1  0  0  0  0
  5  4  2  0  0  0  0
  5  6  1  0  0  0  0
  6 11  2  0  0  0  0
  7  3  2  0  0  0  0
  7  8  1  0  0  0  0
  8  4  1  0  0  0  0
  9  2  2  0  0  0  0
 10  9  1  0  0  0  0
 12  1  1  0  0  0  0
 13 12  1  0  0  0  0
 14 13  3  0  0  0  0
 15 16  1  0  0  0  0
 15 12  1  0  0  0  0
 17 16  1  0  0  0  0
 17 20  1  0  0  0  0
 18 22  1  0  0  0  0
 18 19  1  0  0  0  0
 19 23  1  6  0  0  0
 19 24  1  0  0  0  0
 20 23  2  0  0  0  0
 21 20  1  0  0  0  0
 21 18  2  0  0  0  0
 24 30  1  1  0  0  0
 24 28  1  0  0  0  0
 26 25  1  1  0  0  0
 26 27  1  0  0  0  0
 28 29  1  0  0  0  0
 29 27  1  0  0  0  0
 30 26  1  0  0  0  0
 31 42  1  6  0  0  0
 31  6  1  0  0  0  0
 33 32  1  6  0  0  0
 33 31  1  0  0  0  0
 34 33  1  0  0  0  0
 35 34  1  0  0  0  0
 36 35  1  0  0  0  0
 36 37  2  0  0  0  0
 38 36  1  0  0  0  0
 39 37  1  0  0  0  0
 39 40  1  0  0  0  0
 42 41  1  0  0  0  0
M  END
>  <MODEL>
5

>  <REMARK>
 VINA RESULT:      -6.1      2.294      6.984
  Name = 
  14 active torsions:
  status: ('A' for Active; 'I' for Inactive)
    1  A    between atoms: N_1  and  C_10
    2  A    between atoms: N_3  and  C_4
    3  A    between atoms: N_3  and  C_6
    4  A    between atoms: N_3  and  C_9
    5  A    between atoms: C_9  and  C_29
    6  A    between atoms: C_13  and  C_32
    7  A    between atoms: C_19  and  C_23
    8  A    between atoms: C_19  and  N_33
    9  A    between atoms: C_20  and  C_36
   10  A    between atoms: C_22  and  C_31
   11  A    between atoms: C_23  and  C_31
   12  A    between atoms: C_29  and  C_32
   13  A    between atoms: C_30  and  N_33
   14  A    between atoms: C_31  and  N_39
                            x       y       z     vdW  Elec       q    Type
                         _______ _______ _______ _____ _____    ______ ____

>  <TORSDO>
F 14

$$$$
=
 OpenBabel11042419223D

 42 46  0  0  1  0  0  0  0  0999 V2000
  192.2670  172.4470  140.3990 C   0  0  0  0  0  0  0  0  0  0  0  0
  195.1080  171.6300  142.8790 C   0  0  0  0  0  3  0  0  0  0  0  0
  193.6450  175.3270  141.8050 N   0  0  0  0  0  0  0  0  0  0  0  0
  194.2130  173.2110  141.3270 C   0  0  0  0  0  0  0  0  0  0  0  0
  194.5810  174.2750  142.0770 C   0  0  0  0  0  0  0  0  0  0  0  0
  195.3260  174.0680  143.2480 C   0  0  0  0  0  0  0  0  0  0  0  0
  192.7690  174.8930  140.9730 N   0  0  0  0  0  0  0  0  0  0  0  0
  193.0990  173.5430  140.6380 C   0  0  0  0  0  0  0  0  0  0  0  0
  194.3630  171.9130  141.7280 C   0  0  0  0  0  0  0  0  0  0  0  0
  193.0230  171.0810  141.1110 S   0  0  0  0  0  0  0  0  0  0  0  0
  195.6330  172.7250  143.6160 C   0  0  0  0  0  3  0  0  0  0  0  0
  190.9190  172.4910  139.8980 N   0  0  0  0  0  0  0  0  0  0  0  0
  190.6230  173.1100  138.6740 C   0  0  0  0  0  0  0  0  0  0  0  0
  190.3790  173.6190  137.6640 N   0  0  0  0  0  0  0  0  0  0  0  0
  189.8120  171.9390  140.6690 C   0  0  0  0  0  2  0  0  0  0  0  0
  189.4870  172.8260  141.8620 C   0  0  0  0  0  2  0  0  0  0  0  0
  188.1350  173.4930  141.6750 C   0  0  0  0  0  2  0  0  0  0  0  0
  188.9520  176.8070  142.7420 C   0  0  0  0  0  0  0  0  0  0  0  0
  187.6230  176.7730  143.1390 C   0  0  2  0  0  3  0  0  0  0  0  0
  188.1840  174.8890  142.1890 C   0  0  0  0  0  0  0  0  0  0  0  0
  189.3000  175.6440  142.1640 N   0  0  0  0  0  0  0  0  0  0  0  0
  189.9090  177.9380  142.9000 C   0  0  0  0  0  1  0  0  0  0  0  0
  187.1160  175.5360  142.7860 C   0  0  0  0  0  3  0  0  0  0  0  0
  186.8720  177.8140  143.7900 N   0  0  2  0  0  0  0  0  0  0  0  0
  185.8780  178.8950  147.2660 C   0  0  0  0  0  1  0  0  0  0  0  0
  185.7000  178.5770  145.7950 C   0  0  1  0  0  3  0  0  0  0  0  0
  185.3640  179.7500  145.0950 O   0  0  0  0  0  0  0  0  0  0  0  0
  186.1800  178.8510  143.0220 C   0  0  0  0  0  2  0  0  0  0  0  0
  184.9650  179.3440  143.8080 C   0  0  0  0  0  2  0  0  0  0  0  0
  186.9980  177.9940  145.2380 C   0  0  0  0  0  2  0  0  0  0  0  0
  195.7010  175.2300  144.1180 C   0  0  2  0  0  3  0  0  0  0  0  0
  195.2870  175.3060  146.4760 O   0  0  0  0  0  1  0  0  0  0  0  0
  194.6760  175.4710  145.2320 C   0  0  1  0  0  3  0  0  0  0  0  0
  194.0280  176.8500  145.1390 C   0  0  0  0  0  2  0  0  0  0  0  0
  192.6130  176.7260  144.8170 N   0  0  0  0  0  2  0  0  0  0  0  0
  191.7780  175.6950  145.3480 C   0  0  0  0  0  0  0  0  0  0  0  0
  191.1290  175.9260  146.4910 C   0  0  0  0  0  3  0  0  0  0  0  0
  191.6660  174.3750  144.6480 C   0  0  0  0  0  1  0  0  0  0  0  0
  190.2290  174.9320  147.1530 C   0  0  0  0  0  2  0  0  0  0  0  0
  188.7750  175.2640  146.8670 C   0  0  0  0  0  1  0  0  0  0  0  0
  197.2400  176.7490  143.4580 O   0  0  0  0  0  1  0  0  0  0  0  0
  195.9310  176.4280  143.3190 N   0  0  0  0  0  2  0  0  0  0  0  0
  1  8  2  0  0  0  0
  1 10  1  0  0  0  0
  2 11  1  0  0  0  0
  3  5  1  0  0  0  0
  4  9  1  0  0  0  0
  4  5  2  0  0  0  0
  5  6  1  0  0  0  0
  6 11  2  0  0  0  0
  6 31  1  0  0  0  0
  7  3  2  0  0  0  0
  8  7  1  0  0  0  0
  8  4  1  0  0  0  0
  9  2  2  0  0  0  0
 10  9  1  0  0  0  0
 12  1  1  0  0  0  0
 12 15  1  0  0  0  0
 13 12  1  0  0  0  0
 14 13  3  0  0  0  0
 15 16  1  0  0  0  0
 17 16  1  0  0  0  0
 17 20  1  0  0  0  0
 18 22  1  0  0  0  0
 18 19  1  0  0  0  0
 19 23  1  6  0  0  0
 19 24  1  0  0  0  0
 20 23  2  0  0  0  0
 21 20  1  0  0  0  0
 21 18  2  0  0  0  0
 24 28  1  6  0  0  0
 24 30  1  0  0  0  0
 26 25  1  1  0  0  0
 27 26  1  0  0  0  0
 28 29  1  0  0  0  0
 29 27  1  0  0  0  0
 30 26  1  0  0  0  0
 31 42  1  6  0  0  0
 31 33  1  0  0  0  0
 33 32  1  1  0  0  0
 34 33  1  0  0  0  0
 35 34  1  0  0  0  0
 35 36  1  0  0  0  0
 36 37  2  0  0  0  0
 37 39  1  0  0  0  0
 38 36  1  0  0  0  0
 40 39  1  0  0  0  0
 42 41  1  0  0  0  0
M  END
>  <MODEL>
6

>  <REMARK>
 VINA RESULT:      -6.0      2.195      6.614
  Name = 
  14 active torsions:
  status: ('A' for Active; 'I' for Inactive)
    1  A    between atoms: N_1  and  C_10
    2  A    between atoms: N_3  and  C_4
    3  A    between atoms: N_3  and  C_6
    4  A    between atoms: N_3  and  C_9
    5  A    between atoms: C_9  and  C_29
    6  A    between atoms: C_13  and  C_32
    7  A    between atoms: C_19  and  C_23
    8  A    between atoms: C_19  and  N_33
    9  A    between atoms: C_20  and  C_36
   10  A    between atoms: C_22  and  C_31
   11  A    between atoms: C_23  and  C_31
   12  A    between atoms: C_29  and  C_32
   13  A    between atoms: C_30  and  N_33
   14  A    between atoms: C_31  and  N_39
                            x       y       z     vdW  Elec       q    Type
                         _______ _______ _______ _____ _____    ______ ____

>  <TORSDO>
F 14

$$$$
=
 OpenBabel11042419223D

 42 46  0  0  1  0  0  0  0  0999 V2000
  189.5340  172.8680  140.0560 C   0  0  0  0  0  0  0  0  0  0  0  0
  187.8240  176.0230  141.4760 C   0  0  0  0  0  3  0  0  0  0  0  0
  190.3180  173.3820  143.4160 N   0  0  0  0  0  0  0  0  0  0  0  0
  188.6920  173.8470  141.9440 C   0  0  0  0  0  0  0  0  0  0  0  0
  189.1810  174.2140  143.1500 C   0  0  0  0  0  0  0  0  0  0  0  0
  188.9330  175.5110  143.6290 C   0  0  0  0  0  0  0  0  0  0  0  0
  190.4980  172.6000  142.4150 N   0  0  0  0  0  0  0  0  0  0  0  0
  189.4750  172.8620  141.4510 C   0  0  0  0  0  0  0  0  0  0  0  0
  188.1150  174.7170  141.0630 C   0  0  0  0  0  0  0  0  0  0  0  0
  188.5600  174.1760  139.5210 S   0  0  0  0  0  0  0  0  0  0  0  0
  188.1980  176.4020  142.7930 C   0  0  0  0  0  3  0  0  0  0  0  0
  190.4400  172.1100  139.2360 N   0  0  0  0  0  0  0  0  0  0  0  0
  190.0340  170.9140  138.6270 C   0  0  0  0  0  0  0  0  0  0  0  0
  189.6980  169.9270  138.1230 N   0  0  0  0  0  0  0  0  0  0  0  0
  191.8230  172.5330  139.0530 C   0  0  0  0  0  2  0  0  0  0  0  0
  192.7530  171.3310  138.9880 C   0  0  0  0  0  2  0  0  0  0  0  0
  193.0070  170.7800  140.3810 C   0  0  0  0  0  2  0  0  0  0  0  0
  195.6970  172.8630  141.4830 C   0  0  0  0  0  0  0  0  0  0  0  0
  195.0100  172.7430  142.6820 C   0  0  2  0  0  3  0  0  0  0  0  0
  193.9780  171.6500  141.1000 C   0  0  0  0  0  0  0  0  0  0  0  0
  195.0660  172.1830  140.5100 N   0  0  0  0  0  0  0  0  0  0  0  0
  196.9550  173.6220  141.2390 C   0  0  0  0  0  1  0  0  0  0  0  0
  193.8950  171.9610  142.4460 C   0  0  0  0  0  3  0  0  0  0  0  0
  195.3550  173.3200  143.9560 N   0  0  2  0  0  0  0  0  0  0  0  0
  194.5120  176.3320  146.0660 C   0  0  0  0  0  1  0  0  0  0  0  0
  195.3910  175.3000  145.3890 C   0  0  1  0  0  3  0  0  0  0  0  0
  196.0450  174.5240  146.3640 O   0  0  0  0  0  0  0  0  0  0  0  0
  196.3500  172.6990  144.8310 C   0  0  0  0  0  2  0  0  0  0  0  0
  197.0230  173.7750  145.6840 C   0  0  0  0  0  2  0  0  0  0  0  0
  194.5310  174.4010  144.5020 C   0  0  0  0  0  2  0  0  0  0  0  0
  189.5090  175.9530  144.9400 C   0  0  2  0  0  3  0  0  0  0  0  0
  188.9870  174.9620  147.0580 O   0  0  0  0  0  1  0  0  0  0  0  0
  188.4970  175.8350  146.0850 C   0  0  1  0  0  3  0  0  0  0  0  0
  188.1610  177.1880  146.7080 C   0  0  0  0  0  2  0  0  0  0  0  0
  186.7280  177.2950  146.9490 N   0  0  0  0  0  2  0  0  0  0  0  0
  185.8510  178.0570  146.1170 C   0  0  0  0  0  0  0  0  0  0  0  0
  186.3530  178.6410  145.0270 C   0  0  0  0  0  3  0  0  0  0  0  0
  184.4080  178.2170  146.4860 C   0  0  0  0  0  1  0  0  0  0  0  0
  185.5450  179.4670  144.0780 C   0  0  0  0  0  2  0  0  0  0  0  0
  185.2030  178.6600  142.8380 C   0  0  0  0  0  1  0  0  0  0  0  0
  191.3730  177.1620  144.5130 O   0  0  0  0  0  1  0  0  0  0  0  0
  190.0650  177.2980  144.8390 N   0  0  0  0  0  2  0  0  0  0  0  0
  1  8  2  0  0  0  0
  2 11  1  0  0  0  0
  4  5  2  0  0  0  0
  5  3  1  0  0  0  0
  5  6  1  0  0  0  0
  6 31  1  0  0  0  0
  7  3  2  0  0  0  0
  8  4  1  0  0  0  0
  8  7  1  0  0  0  0
  9  2  2  0  0  0  0
  9  4  1  0  0  0  0
 10  1  1  0  0  0  0
 10  9  1  0  0  0  0
 11  6  2  0  0  0  0
 12  1  1  0  0  0  0
 13 12  1  0  0  0  0
 14 13  3  0  0  0  0
 15 12  1  0  0  0  0
 16 15  1  0  0  0  0
 16 17  1  0  0  0  0
 17 20  1  0  0  0  0
 18 19  1  0  0  0  0
 19 23  1  6  0  0  0
 19 24  1  0  0  0  0
 20 23  2  0  0  0  0
 21 20  1  0  0  0  0
 21 18  2  0  0  0  0
 22 18  1  0  0  0  0
 24 30  1  1  0  0  0
 24 28  1  0  0  0  0
 26 25  1  1  0  0  0
 26 27  1  0  0  0  0
 28 29  1  0  0  0  0
 29 27  1  0  0  0  0
 30 26  1  0  0  0  0
 31 42  1  6  0  0  0
 31 33  1  0  0  0  0
 33 34  1  0  0  0  0
 33 32  1  1  0  0  0
 34 35  1  0  0  0  0
 36 38  1  0  0  0  0
 36 35  1  0  0  0  0
 37 36  2  0  0  0  0
 39 37  1  0  0  0  0
 40 39  1  0  0  0  0
 41 42  1  0  0  0  0
M  END
>  <MODEL>
7

>  <REMARK>
 VINA RESULT:      -5.8      1.283      1.792
  Name = 
  14 active torsions:
  status: ('A' for Active; 'I' for Inactive)
    1  A    between atoms: N_1  and  C_10
    2  A    between atoms: N_3  and  C_4
    3  A    between atoms: N_3  and  C_6
    4  A    between atoms: N_3  and  C_9
    5  A    between atoms: C_9  and  C_29
    6  A    between atoms: C_13  and  C_32
    7  A    between atoms: C_19  and  C_23
    8  A    between atoms: C_19  and  N_33
    9  A    between atoms: C_20  and  C_36
   10  A    between atoms: C_22  and  C_31
   11  A    between atoms: C_23  and  C_31
   12  A    between atoms: C_29  and  C_32
   13  A    between atoms: C_30  and  N_33
   14  A    between atoms: C_31  and  N_39
                            x       y       z     vdW  Elec       q    Type
                         _______ _______ _______ _____ _____    ______ ____

>  <TORSDO>
F 14

$$$$
=
 OpenBabel11042419223D

 42 46  0  0  1  0  0  0  0  0999 V2000
  193.0060  173.8170  139.2560 C   0  0  0  0  0  0  0  0  0  0  0  0
  195.8160  176.0260  140.7110 C   0  0  0  0  0  3  0  0  0  0  0  0
  193.2960  173.4560  142.7130 N   0  0  0  0  0  0  0  0  0  0  0  0
  193.7130  174.9620  141.1050 C   0  0  0  0  0  0  0  0  0  0  0  0
  194.0210  174.6480  142.3840 C   0  0  0  0  0  0  0  0  0  0  0  0
  195.2350  175.0960  142.9310 C   0  0  0  0  0  0  0  0  0  0  0  0
  192.6310  173.0810  141.6810 N   0  0  0  0  0  0  0  0  0  0  0  0
  192.8670  174.0220  140.6300 C   0  0  0  0  0  0  0  0  0  0  0  0
  194.5920  175.5410  140.2340 C   0  0  0  0  0  0  0  0  0  0  0  0
  194.2430  174.8770  138.7160 S   0  0  0  0  0  0  0  0  0  0  0  0
  196.1130  175.8390  142.0880 C   0  0  0  0  0  3  0  0  0  0  0  0
  192.4270  172.7480  138.4880 N   0  0  0  0  0  0  0  0  0  0  0  0
  193.1520  171.5760  138.2200 C   0  0  0  0  0  0  0  0  0  0  0  0
  193.7500  170.6100  138.0000 N   0  0  0  0  0  0  0  0  0  0  0  0
  191.0900  172.8660  137.9220 C   0  0  0  0  0  2  0  0  0  0  0  0
  190.1960  171.7310  138.4000 C   0  0  0  0  0  2  0  0  0  0  0  0
  188.8750  172.2770  138.9150 C   0  0  0  0  0  2  0  0  0  0  0  0
  189.3420  172.9920  142.3870 C   0  0  0  0  0  0  0  0  0  0  0  0
  189.1940  174.2890  141.9170 C   0  0  2  0  0  3  0  0  0  0  0  0
  189.0620  172.8610  140.2710 C   0  0  0  0  0  0  0  0  0  0  0  0
  189.2530  172.1120  141.3750 N   0  0  0  0  0  0  0  0  0  0  0  0
  189.5720  172.5670  143.7960 C   0  0  0  0  0  1  0  0  0  0  0  0
  189.0130  174.2160  140.5480 C   0  0  0  0  0  3  0  0  0  0  0  0
  189.2280  175.5110  142.6780 N   0  0  2  0  0  0  0  0  0  0  0  0
  186.8500  178.0260  144.1790 C   0  0  0  0  0  1  0  0  0  0  0  0
  188.0560  177.5270  143.4080 C   0  0  1  0  0  3  0  0  0  0  0  0
  189.2340  177.9140  144.0720 O   0  0  0  0  0  0  0  0  0  0  0  0
  190.4950  176.1410  143.0530 C   0  0  0  0  0  2  0  0  0  0  0  0
  190.2940  177.6510  143.1850 C   0  0  0  0  0  2  0  0  0  0  0  0
  187.9970  176.0040  143.3010 C   0  0  0  0  0  2  0  0  0  0  0  0
  195.6170  174.7160  144.3300 C   0  0  2  0  0  3  0  0  0  0  0  0
  194.6110  176.8500  144.7490 O   0  0  0  0  0  1  0  0  0  0  0  0
  195.0150  175.6670  145.3710 C   0  0  1  0  0  3  0  0  0  0  0  0
  193.8470  175.0400  146.1270 C   0  0  0  0  0  2  0  0  0  0  0  0
  192.6370  175.8300  145.9400 N   0  0  0  0  0  2  0  0  0  0  0  0
  191.5130  175.7570  146.8190 C   0  0  0  0  0  0  0  0  0  0  0  0
  190.4560  175.0330  146.4440 C   0  0  0  0  0  3  0  0  0  0  0  0
  191.5160  176.5060  148.1160 C   0  0  0  0  0  1  0  0  0  0  0  0
  189.2180  174.8780  147.2680 C   0  0  0  0  0  2  0  0  0  0  0  0
  188.1900  175.9250  146.8760 C   0  0  0  0  0  1  0  0  0  0  0  0
  197.3690  173.2880  144.3850 O   0  0  0  0  0  1  0  0  0  0  0  0
  197.0650  174.6060  144.4640 N   0  0  0  0  0  2  0  0  0  0  0  0
  1  8  2  0  0  0  0
  2 11  1  0  0  0  0
  4  5  2  0  0  0  0
  5  3  1  0  0  0  0
  5  6  1  0  0  0  0
  6 31  1  0  0  0  0
  7  3  2  0  0  0  0
  8  4  1  0  0  0  0
  8  7  1  0  0  0  0
  9  2  2  0  0  0  0
  9  4  1  0  0  0  0
 10  1  1  0  0  0  0
 10  9  1  0  0  0  0
 11  6  2  0  0  0  0
 12  1  1  0  0  0  0
 13 12  1  0  0  0  0
 14 13  3  0  0  0  0
 15 16  1  0  0  0  0
 15 12  1  0  0  0  0
 16 17  1  0  0  0  0
 17 20  1  0  0  0  0
 18 22  1  0  0  0  0
 19 23  1  6  0  0  0
 19 18  1  0  0  0  0
 19 24  1  0  0  0  0
 20 23  2  0  0  0  0
 20 21  1  0  0  0  0
 21 18  2  0  0  0  0
 24 28  1  1  0  0  0
 24 30  1  0  0  0  0
 26 27  1  0  0  0  0
 26 25  1  1  0  0  0
 28 29  1  0  0  0  0
 29 27  1  0  0  0  0
 30 26  1  0  0  0  0
 31 42  1  6  0  0  0
 31 33  1  0  0  0  0
 33 32  1  6  0  0  0
 33 34  1  0  0  0  0
 35 34  1  0  0  0  0
 35 36  1  0  0  0  0
 36 38  1  0  0  0  0
 37 36  2  0  0  0  0
 37 39  1  0  0  0  0
 40 39  1  0  0  0  0
 41 42  1  0  0  0  0
M  END
>  <MODEL>
8

>  <REMARK>
 VINA RESULT:      -5.7      2.249      5.776
  Name = 
  14 active torsions:
  status: ('A' for Active; 'I' for Inactive)
    1  A    between atoms: N_1  and  C_10
    2  A    between atoms: N_3  and  C_4
    3  A    between atoms: N_3  and  C_6
    4  A    between atoms: N_3  and  C_9
    5  A    between atoms: C_9  and  C_29
    6  A    between atoms: C_13  and  C_32
    7  A    between atoms: C_19  and  C_23
    8  A    between atoms: C_19  and  N_33
    9  A    between atoms: C_20  and  C_36
   10  A    between atoms: C_22  and  C_31
   11  A    between atoms: C_23  and  C_31
   12  A    between atoms: C_29  and  C_32
   13  A    between atoms: C_30  and  N_33
   14  A    between atoms: C_31  and  N_39
                            x       y       z     vdW  Elec       q    Type
                         _______ _______ _______ _____ _____    ______ ____

>  <TORSDO>
F 14

$$$$
=
 OpenBabel11042419223D

 42 46  0  0  1  0  0  0  0  0999 V2000
  195.3630  175.3560  143.2890 C   0  0  0  0  0  0  0  0  0  0  0  0
  193.4670  176.0170  146.5840 C   0  0  0  0  0  3  0  0  0  0  0  0
  191.9250  175.6520  142.7830 N   0  0  0  0  0  0  0  0  0  0  0  0
  193.5120  176.3280  144.2150 C   0  0  0  0  0  0  0  0  0  0  0  0
  192.1730  176.1840  144.0910 C   0  0  0  0  0  0  0  0  0  0  0  0
  191.3850  176.0340  145.2440 C   0  0  0  0  0  0  0  0  0  0  0  0
  193.0500  175.4690  142.1930 N   0  0  0  0  0  0  0  0  0  0  0  0
  194.0920  175.8930  143.0750 C   0  0  0  0  0  0  0  0  0  0  0  0
  194.1870  176.1560  145.3910 C   0  0  0  0  0  0  0  0  0  0  0  0
  195.6750  175.4640  144.9730 S   0  0  0  0  0  0  0  0  0  0  0  0
  192.0480  176.0040  146.5060 C   0  0  0  0  0  3  0  0  0  0  0  0
  196.1470  174.6120  142.3390 N   0  0  0  0  0  0  0  0  0  0  0  0
  196.4210  175.1310  141.0650 C   0  0  0  0  0  0  0  0  0  0  0  0
  196.6470  175.5590  140.0140 N   0  0  0  0  0  0  0  0  0  0  0  0
  196.6390  173.2770  142.6520 C   0  0  0  0  0  2  0  0  0  0  0  0
  195.4940  172.3540  143.0400 C   0  0  0  0  0  2  0  0  0  0  0  0
  195.1950  171.3770  141.9160 C   0  0  0  0  0  2  0  0  0  0  0  0
  191.8430  170.1540  141.6820 C   0  0  0  0  0  0  0  0  0  0  0  0
  191.5870  171.5110  141.5520 C   0  0  0  0  0  0  0  0  0  0  0  0
  193.7260  171.1580  141.8120 C   0  0  0  0  0  0  0  0  0  0  0  0
  193.1600  169.9360  141.8340 N   0  0  0  0  0  2  0  0  0  0  0  0
  190.8470  169.0460  141.6670 C   0  0  0  0  0  1  0  0  0  0  0  0
  192.7990  172.1710  141.6360 C   0  0  0  0  0  3  0  0  0  0  0  0
  190.3120  172.1540  141.3740 N   0  0  0  0  0  0  0  0  0  0  0  0
  188.2010  173.6320  138.6180 C   0  0  0  0  0  1  0  0  0  0  0  0
  188.8750  173.5490  139.9730 C   0  0  1  0  0  3  0  0  0  0  0  0
  187.8990  173.4760  140.9840 O   0  0  0  0  0  0  0  0  0  0  0  0
  189.4330  172.4340  142.5110 C   0  0  0  0  0  2  0  0  0  0  0  0
  188.5750  173.6610  142.2030 C   0  0  0  0  0  2  0  0  0  0  0  0
  189.7680  172.3110  140.0230 C   0  0  0  0  0  2  0  0  0  0  0  0
  189.9060  175.8230  145.1240 C   0  0  2  0  0  3  0  0  0  0  0  0
  190.0400  178.2130  145.0190 O   0  0  0  0  0  1  0  0  0  0  0  0
  189.1470  177.1430  144.9400 C   0  0  1  0  0  3  0  0  0  0  0  0
  188.3760  177.1920  143.6240 C   0  0  0  0  0  2  0  0  0  0  0  0
  186.9760  176.8540  143.8430 N   0  0  0  0  0  2  0  0  0  0  0  0
  186.0620  177.7130  144.5280 C   0  0  0  0  0  0  0  0  0  0  0  0
  185.4710  177.2620  145.6370 C   0  0  0  0  0  3  0  0  0  0  0  0
  185.7550  179.0760  143.9880 C   0  0  0  0  0  1  0  0  0  0  0  0
  184.4950  178.0570  146.4430 C   0  0  0  0  0  2  0  0  0  0  0  0
  185.1850  178.6720  147.6490 C   0  0  0  0  0  1  0  0  0  0  0  0
  188.3650  175.7580  146.7790 O   0  0  0  0  0  1  0  0  0  0  0  0
  189.3960  175.0530  146.2520 N   0  0  0  0  0  2  0  0  0  0  0  0
  1 10  1  0  0  0  0
  3  5  1  0  0  0  0
  4  9  1  0  0  0  0
  5  4  2  0  0  0  0
  5  6  1  0  0  0  0
  6 11  2  0  0  0  0
  7  3  2  0  0  0  0
  7  8  1  0  0  0  0
  8  1  2  0  0  0  0
  8  4  1  0  0  0  0
  9  2  2  0  0  0  0
 10  9  1  0  0  0  0
 11  2  1  0  0  0  0
 12 15  1  0  0  0  0
 12  1  1  0  0  0  0
 13 12  1  0  0  0  0
 14 13  3  0  0  0  0
 15 16  1  0  0  0  0
 17 16  1  0  0  0  0
 18 21  1  0  0  0  0
 19 23  1  0  0  0  0
 19 18  2  0  0  0  0
 20 21  1  0  0  0  0
 20 17  1  0  0  0  0
 22 18  1  0  0  0  0
 23 20  2  0  0  0  0
 24 19  1  0  0  0  0
 24 28  1  0  0  0  0
 26 25  1  6  0  0  0
 26 30  1  0  0  0  0
 26 27  1  0  0  0  0
 27 29  1  0  0  0  0
 29 28  1  0  0  0  0
 30 24  1  0  0  0  0
 31  6  1  0  0  0  0
 31 42  1  1  0  0  0
 33 32  1  6  0  0  0
 33 31  1  0  0  0  0
 34 35  1  0  0  0  0
 34 33  1  0  0  0  0
 35 36  1  0  0  0  0
 36 37  2  0  0  0  0
 37 39  1  0  0  0  0
 38 36  1  0  0  0  0
 39 40  1  0  0  0  0
 42 41  1  0  0  0  0
M  END
>  <MODEL>
9

>  <REMARK>
 VINA RESULT:      -5.7      2.478      5.417
  Name = 
  14 active torsions:
  status: ('A' for Active; 'I' for Inactive)
    1  A    between atoms: N_1  and  C_10
    2  A    between atoms: N_3  and  C_4
    3  A    between atoms: N_3  and  C_6
    4  A    between atoms: N_3  and  C_9
    5  A    between atoms: C_9  and  C_29
    6  A    between atoms: C_13  and  C_32
    7  A    between atoms: C_19  and  C_23
    8  A    between atoms: C_19  and  N_33
    9  A    between atoms: C_20  and  C_36
   10  A    between atoms: C_22  and  C_31
   11  A    between atoms: C_23  and  C_31
   12  A    between atoms: C_29  and  C_32
   13  A    between atoms: C_30  and  N_33
   14  A    between atoms: C_31  and  N_39
                            x       y       z     vdW  Elec       q    Type
                         _______ _______ _______ _____ _____    ______ ____

>  <TORSDO>
F 14

$$$$
