=
 OpenBabel11042419043D

 43 47  0  0  1  0  0  0  0  0999 V2000
  189.3170  177.1600  143.8190 N   0  0  0  0  0  0  0  0  0  0  0  0
  191.6270  177.4940  143.0780 C   0  0  0  0  0  1  0  0  0  0  0  0
  190.6000  176.4850  143.5610 C   0  0  2  0  0  3  0  0  0  0  0  0
  188.3040  176.6930  142.9030 C   0  0  0  0  0  0  0  0  0  0  0  0
  188.4750  174.8570  141.0600 C   0  0  0  0  0  3  0  0  0  0  0  0
  192.3820  174.0100  141.8190 S   0  0  0  0  0  1  0  0  0  0  0  0
  188.8500  175.7800  142.1210 C   0  0  0  0  0  0  0  0  0  0  0  0
  189.6030  174.1650  140.8050 C   0  0  0  0  0  0  0  0  0  0  0  0
  190.2000  175.5950  142.4420 C   0  0  0  0  0  0  0  0  0  0  0  0
  190.7060  174.6350  141.6980 C   0  0  0  0  0  0  0  0  0  0  0  0
  182.9500  178.4330  142.6800 N   0  0  0  0  0  0  0  0  0  0  0  0
  186.2560  177.3920  141.6420 C   0  0  0  0  0  3  0  0  0  0  0  0
  184.8340  177.7590  144.0610 C   0  0  0  0  0  3  0  0  0  0  0  0
  186.1700  177.3250  144.0760 C   0  0  0  0  0  3  0  0  0  0  0  0
  182.6530  178.5830  141.3640 C   0  0  0  0  0  0  0  0  0  0  0  0
  186.8920  177.1410  142.8730 C   0  0  0  0  0  0  0  0  0  0  0  0
  183.9490  178.1950  140.3470 S   0  0  0  0  0  0  0  0  0  0  0  0
  184.9330  177.8210  141.6530 C   0  0  0  0  0  0  0  0  0  0  0  0
  184.2290  178.0060  142.8310 C   0  0  0  0  0  0  0  0  0  0  0  0
  180.3550  179.1290  141.6640 C   0  0  0  0  0  3  0  0  0  0  0  0
  181.3800  179.0200  140.8840 N   0  0  0  0  0  0  0  0  0  0  0  0
  178.1950  179.7830  138.8480 C   0  0  0  0  0  2  0  0  0  0  0  0
  178.1690  178.3730  140.8140 C   0  0  0  0  0  2  0  0  0  0  0  0
  179.0400  179.5790  141.1230 C   0  0  2  0  0  3  0  0  0  0  0  0
  177.9240  178.3720  139.3160 C   0  0  0  0  0  2  0  0  0  0  0  0
  179.2390  180.3200  139.8110 C   0  0  2  0  0  3  0  0  0  0  0  0
  177.8260  182.3100  140.5220 C   0  0  0  0  0  1  0  0  0  0  0  0
  179.1740  181.8440  139.9940 C   0  0  2  0  0  3  0  0  0  0  0  0
  179.4980  182.5680  138.6990 C   0  0  0  0  0  2  0  0  0  0  0  0
  179.1130  184.0320  138.8020 C   0  0  0  0  0  1  0  0  0  0  0  0
  189.7090  173.0870  139.7890 C   0  0  0  0  0  0  0  0  0  0  0  0
  189.9450  171.2880  141.4330 O   0  0  0  0  0  1  0  0  0  0  0  0
  189.6380  173.3840  138.5340 N   0  0  0  0  0  2  0  0  0  0  0  0
  189.8790  171.7110  140.1490 N   0  0  0  0  0  2  0  0  0  0  0  0
  189.1510  178.1450  144.7380 O   0  0  0  0  0  0  0  0  0  0  0  0
  189.6530  177.6220  145.9360 C   0  0  0  0  0  2  0  0  0  0  0  0
  188.5830  176.7980  146.6290 C   0  0  0  0  0  2  0  0  0  0  0  0
  189.0860  175.3900  146.8830 C   0  0  0  0  0  2  0  0  0  0  0  0
  190.8140  173.6950  145.4040 O   0  0  0  0  0  0  0  0  0  0  0  0
  191.3470  174.5250  146.1910 C   0  0  0  0  0  0  0  0  0  0  0  0
  193.6480  173.7220  145.5550 C   0  0  0  0  0  1  0  0  0  0  0  0
  190.5360  175.4040  146.9690 N   0  0  0  0  0  2  0  0  0  0  0  0
  192.7670  174.5940  146.3130 N   0  0  0  0  0  2  0  0  0  0  0  0
  1 35  1  0  0  0  0
  3  2  1  6  0  0  0
  3  1  1  0  0  0  0
  4  1  1  0  0  0  0
  5  7  1  0  0  0  0
  7  9  1  0  0  0  0
  7  4  2  0  0  0  0
  8  5  2  0  0  0  0
  8 10  1  0  0  0  0
  9  3  1  0  0  0  0
 10  6  1  0  0  0  0
 10  9  2  0  0  0  0
 11 19  1  0  0  0  0
 12 18  2  0  0  0  0
 12 16  1  0  0  0  0
 13 14  1  0  0  0  0
 15 11  2  0  0  0  0
 16  4  1  0  0  0  0
 16 14  2  0  0  0  0
 17 15  1  0  0  0  0
 17 18  1  0  0  0  0
 18 19  1  0  0  0  0
 19 13  2  0  0  0  0
 21 15  1  0  0  0  0
 21 20  2  0  0  0  0
 22 25  1  0  0  0  0
 22 26  1  0  0  0  0
 23 24  1  0  0  0  0
 24 20  1  6  0  0  0
 25 23  1  0  0  0  0
 26 28  1  1  0  0  0
 26 24  1  0  0  0  0
 28 27  1  6  0  0  0
 29 30  1  0  0  0  0
 29 28  1  0  0  0  0
 31 34  1  0  0  0  0
 31  8  1  0  0  0  0
 33 31  2  0  0  0  0
 34 32  1  0  0  0  0
 35 36  1  0  0  0  0
 36 37  1  0  0  0  0
 37 38  1  0  0  0  0
 38 42  1  0  0  0  0
 39 40  2  0  0  0  0
 40 43  1  0  0  0  0
 40 42  1  0  0  0  0
 41 43  1  0  0  0  0
M  END
>  <MODEL>
1

>  <REMARK>
 VINA RESULT:      -7.5      0.000      0.000
  Name = 
  11 active torsions:
  status: ('A' for Active; 'I' for Inactive)
    1  A    between atoms: N_3  and  O_19
    2  A    between atoms: C_4  and  C_26
    3  A    between atoms: C_8  and  C_31
    4  A    between atoms: C_11  and  C_27
    5  A    between atoms: O_19  and  C_36
    6  A    between atoms: C_21  and  C_30
    7  A    between atoms: C_23  and  N_43
    8  A    between atoms: N_24  and  C_41
    9  A    between atoms: C_26  and  C_29
   10  A    between atoms: C_33  and  C_36
   11  A    between atoms: C_33  and  C_41
                            x       y       z     vdW  Elec       q    Type
                         _______ _______ _______ _____ _____    ______ ____

>  <TORSDO>
F 11

$$$$
=
 OpenBabel11042419043D

 43 47  0  0  1  0  0  0  0  0999 V2000
  188.2710  176.5450  146.1720 N   0  0  0  0  0  0  0  0  0  0  0  0
  186.1170  176.6420  147.3330 C   0  0  0  0  0  1  0  0  0  0  0  0
  187.0710  177.3680  146.4010 C   0  0  2  0  0  3  0  0  0  0  0  0
  188.3510  176.1390  144.7890 C   0  0  0  0  0  0  0  0  0  0  0  0
  186.7740  176.7450  142.8030 C   0  0  0  0  0  3  0  0  0  0  0  0
  184.2960  179.0520  145.0600 S   0  0  0  0  0  1  0  0  0  0  0  0
  187.3160  176.6550  144.1510 C   0  0  0  0  0  0  0  0  0  0  0  0
  185.6890  177.5330  142.9320 C   0  0  0  0  0  0  0  0  0  0  0  0
  186.5120  177.3950  145.0260 C   0  0  0  0  0  0  0  0  0  0  0  0
  185.5280  177.9550  144.3570 C   0  0  0  0  0  0  0  0  0  0  0  0
  192.4760  173.0900  142.4580 N   0  0  0  0  0  0  0  0  0  0  0  0
  190.5460  175.9290  143.6020 C   0  0  0  0  0  3  0  0  0  0  0  0
  190.3450  173.1070  143.6290 C   0  0  0  0  0  3  0  0  0  0  0  0
  189.3380  173.9010  144.2010 C   0  0  0  0  0  3  0  0  0  0  0  0
  193.3860  173.9790  141.9850 C   0  0  0  0  0  0  0  0  0  0  0  0
  189.4260  175.3130  144.1910 C   0  0  0  0  0  0  0  0  0  0  0  0
  192.9490  175.5880  142.2780 S   0  0  0  0  0  0  0  0  0  0  0  0
  191.5300  175.1220  143.0410 C   0  0  0  0  0  0  0  0  0  0  0  0
  191.4410  173.7400  143.0470 C   0  0  0  0  0  0  0  0  0  0  0  0
  195.4230  174.4760  140.8570 C   0  0  0  0  0  3  0  0  0  0  0  0
  194.5880  173.6000  141.3130 N   0  0  0  0  0  0  0  0  0  0  0  0
  197.4760  174.4310  137.8900 C   0  0  0  0  0  2  0  0  0  0  0  0
  197.6950  175.1550  140.1890 C   0  0  0  0  0  2  0  0  0  0  0  0
  196.6630  174.0410  140.1530 C   0  0  2  0  0  3  0  0  0  0  0  0
  197.9410  175.5810  138.7530 C   0  0  0  0  0  2  0  0  0  0  0  0
  196.3660  173.7700  138.6860 C   0  0  2  0  0  3  0  0  0  0  0  0
  197.4330  171.6890  137.6930 C   0  0  0  0  0  1  0  0  0  0  0  0
  196.2150  172.2690  138.3960 C   0  0  2  0  0  3  0  0  0  0  0  0
  194.9670  171.9900  137.5780 C   0  0  0  0  0  2  0  0  0  0  0  0
  193.9910  173.1470  137.6900 C   0  0  0  0  0  1  0  0  0  0  0  0
  184.8030  177.9240  141.8060 C   0  0  0  0  0  0  0  0  0  0  0  0
  186.5860  177.8790  140.1270 O   0  0  0  0  0  1  0  0  0  0  0  0
  183.5450  178.1230  142.0230 N   0  0  0  0  0  2  0  0  0  0  0  0
  185.2910  178.0820  140.4680 N   0  0  0  0  0  2  0  0  0  0  0  0
  189.1250  176.1610  147.1550 O   0  0  0  0  0  0  0  0  0  0  0  0
  190.1010  177.1630  147.2080 C   0  0  0  0  0  2  0  0  0  0  0  0
  191.3770  176.6110  147.8180 C   0  0  0  0  0  2  0  0  0  0  0  0
  192.4180  176.3830  146.7400 C   0  0  0  0  0  2  0  0  0  0  0  0
  194.6690  175.1670  145.5150 O   0  0  0  0  0  0  0  0  0  0  0  0
  193.7320  174.4100  145.8900 C   0  0  0  0  0  0  0  0  0  0  0  0
  194.9780  172.3800  145.0690 C   0  0  0  0  0  1  0  0  0  0  0  0
  192.5680  174.9560  146.5090 N   0  0  0  0  0  2  0  0  0  0  0  0
  193.8250  172.9980  145.6990 N   0  0  0  0  0  2  0  0  0  0  0  0
  1  3  1  0  0  0  0
  1 35  1  0  0  0  0
  3  2  1  1  0  0  0
  4  1  1  0  0  0  0
  5  8  2  0  0  0  0
  5  7  1  0  0  0  0
  7  4  2  0  0  0  0
  7  9  1  0  0  0  0
  8 10  1  0  0  0  0
  9  3  1  0  0  0  0
 10  9  2  0  0  0  0
 10  6  1  0  0  0  0
 11 19  1  0  0  0  0
 12 16  1  0  0  0  0
 13 14  1  0  0  0  0
 15 17  1  0  0  0  0
 15 11  2  0  0  0  0
 16 14  2  0  0  0  0
 16  4  1  0  0  0  0
 17 18  1  0  0  0  0
 18 19  1  0  0  0  0
 18 12  2  0  0  0  0
 19 13  2  0  0  0  0
 20 21  2  0  0  0  0
 21 15  1  0  0  0  0
 22 26  1  0  0  0  0
 22 25  1  0  0  0  0
 24 23  1  0  0  0  0
 24 20  1  1  0  0  0
 25 23  1  0  0  0  0
 26 28  1  1  0  0  0
 26 24  1  0  0  0  0
 28 27  1  6  0  0  0
 29 30  1  0  0  0  0
 29 28  1  0  0  0  0
 31 33  2  0  0  0  0
 31  8  1  0  0  0  0
 32 34  1  0  0  0  0
 34 31  1  0  0  0  0
 35 36  1  0  0  0  0
 36 37  1  0  0  0  0
 38 37  1  0  0  0  0
 39 40  2  0  0  0  0
 40 42  1  0  0  0  0
 41 43  1  0  0  0  0
 42 38  1  0  0  0  0
 43 40  1  0  0  0  0
M  END
>  <MODEL>
2

>  <REMARK>
 VINA RESULT:      -7.1      4.156     10.899
  Name = 
  11 active torsions:
  status: ('A' for Active; 'I' for Inactive)
    1  A    between atoms: N_3  and  O_19
    2  A    between atoms: C_4  and  C_26
    3  A    between atoms: C_8  and  C_31
    4  A    between atoms: C_11  and  C_27
    5  A    between atoms: O_19  and  C_36
    6  A    between atoms: C_21  and  C_30
    7  A    between atoms: C_23  and  N_43
    8  A    between atoms: N_24  and  C_41
    9  A    between atoms: C_26  and  C_29
   10  A    between atoms: C_33  and  C_36
   11  A    between atoms: C_33  and  C_41
                            x       y       z     vdW  Elec       q    Type
                         _______ _______ _______ _____ _____    ______ ____

>  <TORSDO>
F 11

$$$$
=
 OpenBabel11042419043D

 43 47  0  0  1  0  0  0  0  0999 V2000
  196.0900  174.3350  141.5810 N   0  0  0  0  0  0  0  0  0  0  0  0
  197.7690  175.5480  140.2740 C   0  0  0  0  0  1  0  0  0  0  0  0
  197.0790  174.2130  140.4960 C   0  0  2  0  0  3  0  0  0  0  0  0
  194.7520  174.1390  141.0720 C   0  0  0  0  0  0  0  0  0  0  0  0
  193.9850  173.5430  138.6530 C   0  0  0  0  0  3  0  0  0  0  0  0
  197.7610  173.4310  137.1410 S   0  0  0  0  0  1  0  0  0  0  0  0
  194.8400  173.8910  139.7780 C   0  0  0  0  0  0  0  0  0  0  0  0
  194.8390  173.3660  137.6250 C   0  0  0  0  0  0  0  0  0  0  0  0
  196.1750  173.9150  139.3570 C   0  0  0  0  0  0  0  0  0  0  0  0
  196.2440  173.5980  138.0820 C   0  0  0  0  0  0  0  0  0  0  0  0
  190.0300  174.4050  144.1330 N   0  0  0  0  0  0  0  0  0  0  0  0
  192.8340  175.3990  142.0730 C   0  0  0  0  0  3  0  0  0  0  0  0
  191.8110  173.0230  143.2200 C   0  0  0  0  0  3  0  0  0  0  0  0
  192.9840  172.9970  142.4500 C   0  0  0  0  0  3  0  0  0  0  0  0
  189.6470  175.7080  144.1300 C   0  0  0  0  0  0  0  0  0  0  0  0
  193.5070  174.1790  141.8740 C   0  0  0  0  0  0  0  0  0  0  0  0
  190.6890  176.6990  143.2370 S   0  0  0  0  0  0  0  0  0  0  0  0
  191.6740  175.4000  142.8400 C   0  0  0  0  0  0  0  0  0  0  0  0
  191.1650  174.2440  143.4080 C   0  0  0  0  0  0  0  0  0  0  0  0
  188.2390  177.4570  144.9190 C   0  0  0  0  0  3  0  0  0  0  0  0
  188.4870  176.1940  144.8070 N   0  0  0  0  0  0  0  0  0  0  0  0
  185.0930  176.7340  146.5310 C   0  0  0  0  0  2  0  0  0  0  0  0
  187.2060  177.7420  147.1380 C   0  0  0  0  0  2  0  0  0  0  0  0
  187.0210  177.9260  145.6420 C   0  0  2  0  0  3  0  0  0  0  0  0
  186.1630  176.7390  147.5970 C   0  0  0  0  0  2  0  0  0  0  0  0
  185.8190  177.0830  145.2450 C   0  0  2  0  0  3  0  0  0  0  0  0
  185.6120  177.9420  142.8620 C   0  0  0  0  0  1  0  0  0  0  0  0
  184.9310  177.7950  144.2150 C   0  0  2  0  0  3  0  0  0  0  0  0
  184.4870  179.1570  144.7190 C   0  0  0  0  0  2  0  0  0  0  0  0
  185.3810  180.2460  144.1550 C   0  0  0  0  0  1  0  0  0  0  0  0
  194.4250  172.9850  136.2520 C   0  0  0  0  0  0  0  0  0  0  0  0
  194.7090  175.2360  135.3280 O   0  0  0  0  0  1  0  0  0  0  0  0
  194.1050  171.7600  135.9980 N   0  0  0  0  0  2  0  0  0  0  0  0
  194.3750  173.9320  135.1780 N   0  0  0  0  0  2  0  0  0  0  0  0
  196.4030  174.6710  142.8570 O   0  0  0  0  0  0  0  0  0  0  0  0
  196.7990  173.4750  143.4680 C   0  0  0  0  0  2  0  0  0  0  0  0
  196.0570  173.2920  144.7780 C   0  0  0  0  0  2  0  0  0  0  0  0
  195.5710  174.6300  145.2990 C   0  0  0  0  0  2  0  0  0  0  0  0
  194.1060  176.6480  146.6530 O   0  0  0  0  0  0  0  0  0  0  0  0
  193.5050  175.5710  146.3890 C   0  0  0  0  0  0  0  0  0  0  0  0
  191.3920  176.4320  147.4570 C   0  0  0  0  0  1  0  0  0  0  0  0
  194.1840  174.5120  145.7150 N   0  0  0  0  0  2  0  0  0  0  0  0
  192.1380  175.3970  146.7620 N   0  0  0  0  0  2  0  0  0  0  0  0
  1 35  1  0  0  0  0
  3  2  1  6  0  0  0
  3  1  1  0  0  0  0
  4  1  1  0  0  0  0
  4 16  1  0  0  0  0
  5  7  1  0  0  0  0
  6 10  1  0  0  0  0
  7  4  2  0  0  0  0
  8 10  1  0  0  0  0
  8  5  2  0  0  0  0
  9  7  1  0  0  0  0
  9  3  1  0  0  0  0
 10  9  2  0  0  0  0
 12 18  1  0  0  0  0
 13 19  1  0  0  0  0
 14 13  2  0  0  0  0
 15 11  2  0  0  0  0
 15 21  1  0  0  0  0
 16 12  2  0  0  0  0
 16 14  1  0  0  0  0
 17 15  1  0  0  0  0
 18 17  1  0  0  0  0
 18 19  2  0  0  0  0
 19 11  1  0  0  0  0
 21 20  2  0  0  0  0
 22 25  1  0  0  0  0
 23 25  1  0  0  0  0
 24 20  1  6  0  0  0
 24 23  1  0  0  0  0
 26 28  1  6  0  0  0
 26 24  1  0  0  0  0
 26 22  1  0  0  0  0
 28 27  1  6  0  0  0
 28 29  1  0  0  0  0
 30 29  1  0  0  0  0
 31  8  1  0  0  0  0
 33 31  2  0  0  0  0
 34 32  1  0  0  0  0
 34 31  1  0  0  0  0
 35 36  1  0  0  0  0
 36 37  1  0  0  0  0
 37 38  1  0  0  0  0
 38 42  1  0  0  0  0
 40 39  2  0  0  0  0
 40 43  1  0  0  0  0
 42 40  1  0  0  0  0
 43 41  1  0  0  0  0
M  END
>  <MODEL>
3

>  <REMARK>
 VINA RESULT:      -7.0      4.952      7.684
  Name = 
  11 active torsions:
  status: ('A' for Active; 'I' for Inactive)
    1  A    between atoms: N_3  and  O_19
    2  A    between atoms: C_4  and  C_26
    3  A    between atoms: C_8  and  C_31
    4  A    between atoms: C_11  and  C_27
    5  A    between atoms: O_19  and  C_36
    6  A    between atoms: C_21  and  C_30
    7  A    between atoms: C_23  and  N_43
    8  A    between atoms: N_24  and  C_41
    9  A    between atoms: C_26  and  C_29
   10  A    between atoms: C_33  and  C_36
   11  A    between atoms: C_33  and  C_41
                            x       y       z     vdW  Elec       q    Type
                         _______ _______ _______ _____ _____    ______ ____

>  <TORSDO>
F 11

$$$$
=
 OpenBabel11042419043D

 43 47  0  0  1  0  0  0  0  0999 V2000
  196.6420  173.7660  144.1100 N   0  0  0  0  0  0  0  0  0  0  0  0
  197.8790  172.1980  142.6920 C   0  0  0  0  0  1  0  0  0  0  0  0
  197.4800  172.5540  144.1130 C   0  0  2  0  0  3  0  0  0  0  0  0
  195.3060  173.4600  144.5650 C   0  0  1  0  0  3  0  0  0  0  0  0
  194.3360  171.1940  145.4130 C   0  0  0  0  0  3  0  0  0  0  0  0
  197.8270  169.1580  144.9390 S   0  0  0  0  0  1  0  0  0  0  0  0
  195.2590  172.1740  144.8610 C   0  0  0  0  0  0  0  0  0  0  0  0
  195.0600  170.0600  145.4910 C   0  0  1  0  0  3  0  0  0  0  0  0
  196.4980  171.5650  144.6260 C   0  0  0  0  0  0  0  0  0  0  0  0
  196.4480  170.3030  144.9920 C   0  0  0  0  0  0  0  0  0  0  0  0
  191.0180  177.0860  145.0230 N   0  0  0  0  0  0  0  0  0  0  0  0
  192.8710  174.0320  144.4460 C   0  0  0  0  0  3  0  0  0  0  0  0
  193.4120  176.7030  145.2090 C   0  0  0  0  0  3  0  0  0  0  0  0
  194.4540  175.7690  145.0850 C   0  0  0  0  0  3  0  0  0  0  0  0
  189.8960  176.3890  144.7080 C   0  0  0  0  0  0  0  0  0  0  0  0
  194.1960  174.4320  144.7010 C   0  0  0  0  0  0  0  0  0  0  0  0
  190.2090  174.7700  144.3270 S   0  0  0  0  0  0  0  0  0  0  0  0
  191.8560  174.9730  144.5750 C   0  0  0  0  0  0  0  0  0  0  0  0
  192.1100  176.2840  144.9450 C   0  0  0  0  0  0  0  0  0  0  0  0
  187.6540  176.5240  143.9180 C   0  0  0  0  0  3  0  0  0  0  0  0
  188.5860  176.9600  144.7000 N   0  0  0  0  0  0  0  0  0  0  0  0
  185.5320  179.3510  144.6440 C   0  0  0  0  0  2  0  0  0  0  0  0
  186.1270  178.0310  142.7060 C   0  0  0  0  0  2  0  0  0  0  0  0
  186.3010  177.1520  143.9330 C   0  0  2  0  0  3  0  0  0  0  0  0
  185.9580  179.4560  143.1980 C   0  0  0  0  0  2  0  0  0  0  0  0
  186.1590  178.0620  145.1430 C   0  0  2  0  0  3  0  0  0  0  0  0
  184.0730  178.1330  146.5930 C   0  0  0  0  0  1  0  0  0  0  0  0
  185.3640  177.3940  146.2750 C   0  0  2  0  0  3  0  0  0  0  0  0
  186.2050  177.2620  147.5330 C   0  0  0  0  0  2  0  0  0  0  0  0
  186.6930  178.6250  147.9880 C   0  0  0  0  0  1  0  0  0  0  0  0
  194.5380  168.7710  146.0100 C   0  0  0  0  0  0  0  0  0  0  0  0
  196.0290  168.7230  147.9530 O   0  0  0  0  0  1  0  0  0  0  0  0
  193.5860  168.1670  145.3800 N   0  0  0  0  0  2  0  0  0  0  0  0
  195.0470  168.1660  147.2050 N   0  0  0  0  0  2  0  0  0  0  0  0
  197.0610  174.9750  143.6570 O   0  0  0  0  0  0  0  0  0  0  0  0
  197.0560  174.8690  142.2610 C   0  0  0  0  0  2  0  0  0  0  0  0
  196.0490  175.8390  141.6720 C   0  0  0  0  0  2  0  0  0  0  0  0
  195.2340  175.1580  140.5900 C   0  0  0  0  0  2  0  0  0  0  0  0
  192.9410  174.4280  139.0870 O   0  0  0  0  0  0  0  0  0  0  0  0
  192.8750  174.3140  140.3420 C   0  0  0  0  0  0  0  0  0  0  0  0
  190.5100  173.4580  140.1870 C   0  0  0  0  0  1  0  0  0  0  0  0
  193.9900  174.6680  141.1590 N   0  0  0  0  0  2  0  0  0  0  0  0
  191.6830  173.8290  140.9600 N   0  0  0  0  0  2  0  0  0  0  0  0
  1  3  1  0  0  0  0
  1  4  1  0  0  0  0
  3  2  1  6  0  0  0
  3  9  1  0  0  0  0
  4 16  1  1  0  0  0
  4  7  1  0  0  0  0
  5  8  1  0  0  0  0
  6 10  1  0  0  0  0
  7  5  2  0  0  0  0
  8 31  1  1  0  0  0
  9  7  1  0  0  0  0
  9 10  2  0  0  0  0
 10  8  1  0  0  0  0
 12 18  2  0  0  0  0
 12 16  1  0  0  0  0
 14 13  1  0  0  0  0
 15 11  2  0  0  0  0
 16 14  2  0  0  0  0
 17 18  1  0  0  0  0
 17 15  1  0  0  0  0
 18 19  1  0  0  0  0
 19 11  1  0  0  0  0
 19 13  2  0  0  0  0
 20 21  2  0  0  0  0
 21 15  1  0  0  0  0
 22 26  1  0  0  0  0
 23 25  1  0  0  0  0
 23 24  1  0  0  0  0
 24 20  1  6  0  0  0
 24 26  1  0  0  0  0
 25 22  1  0  0  0  0
 26 28  1  1  0  0  0
 28 27  1  1  0  0  0
 28 29  1  0  0  0  0
 29 30  1  0  0  0  0
 31 34  1  0  0  0  0
 33 31  2  0  0  0  0
 34 32  1  0  0  0  0
 35  1  1  0  0  0  0
 36 35  1  0  0  0  0
 37 36  1  0  0  0  0
 38 42  1  0  0  0  0
 38 37  1  0  0  0  0
 39 40  2  0  0  0  0
 40 43  1  0  0  0  0
 40 42  1  0  0  0  0
 41 43  1  0  0  0  0
M  END
>  <MODEL>
4

>  <REMARK>
 VINA RESULT:      -6.9      5.063      8.547
  Name = 
  11 active torsions:
  status: ('A' for Active; 'I' for Inactive)
    1  A    between atoms: N_3  and  O_19
    2  A    between atoms: C_4  and  C_26
    3  A    between atoms: C_8  and  C_31
    4  A    between atoms: C_11  and  C_27
    5  A    between atoms: O_19  and  C_36
    6  A    between atoms: C_21  and  C_30
    7  A    between atoms: C_23  and  N_43
    8  A    between atoms: N_24  and  C_41
    9  A    between atoms: C_26  and  C_29
   10  A    between atoms: C_33  and  C_36
   11  A    between atoms: C_33  and  C_41
                            x       y       z     vdW  Elec       q    Type
                         _______ _______ _______ _____ _____    ______ ____

>  <TORSDO>
F 11

$$$$
=
 OpenBabel11042419043D

 43 47  0  0  1  0  0  0  0  0999 V2000
  195.9810  172.9330  143.5270 N   0  0  0  0  0  0  0  0  0  0  0  0
  196.4580  170.9920  142.1120 C   0  0  0  0  0  1  0  0  0  0  0  0
  196.7660  171.6910  143.4250 C   0  0  2  0  0  3  0  0  0  0  0  0
  195.0320  172.8460  144.6120 C   0  0  1  0  0  3  0  0  0  0  0  0
  194.6660  170.9150  146.3250 C   0  0  0  0  0  3  0  0  0  0  0  0
  197.5920  168.5530  144.7690 S   0  0  0  0  0  1  0  0  0  0  0  0
  195.1800  171.6680  145.1910 C   0  0  0  0  0  0  0  0  0  0  0  0
  195.3830  169.7740  146.3210 C   0  0  1  0  0  3  0  0  0  0  0  0
  196.1820  170.9250  144.5550 C   0  0  0  0  0  0  0  0  0  0  0  0
  196.3590  169.7860  145.1890 C   0  0  0  0  0  0  0  0  0  0  0  0
  191.3650  176.8710  146.0600 N   0  0  0  0  0  0  0  0  0  0  0  0
  192.8260  174.0110  144.3930 C   0  0  0  0  0  3  0  0  0  0  0  0
  193.5420  175.8490  146.4210 C   0  0  0  0  0  3  0  0  0  0  0  0
  194.4280  174.8320  146.0330 C   0  0  0  0  0  3  0  0  0  0  0  0
  190.2730  176.6920  145.2730 C   0  0  0  0  0  0  0  0  0  0  0  0
  194.0830  173.9080  145.0180 C   0  0  0  0  0  0  0  0  0  0  0  0
  190.4300  175.3790  144.2170 S   0  0  0  0  0  0  0  0  0  0  0  0
  191.9650  175.0270  144.7930 C   0  0  0  0  0  0  0  0  0  0  0  0
  192.3060  175.9340  145.7830 C   0  0  0  0  0  0  0  0  0  0  0  0
  188.0620  177.1840  146.0060 C   0  0  0  0  0  3  0  0  0  0  0  0
  189.1110  177.5210  145.3300 N   0  0  0  0  0  0  0  0  0  0  0  0
  184.5800  177.7080  146.7910 C   0  0  0  0  0  2  0  0  0  0  0  0
  186.7050  178.6810  147.4160 C   0  0  0  0  0  2  0  0  0  0  0  0
  186.8650  178.0730  146.0330 C   0  0  2  0  0  3  0  0  0  0  0  0
  185.3920  178.1680  147.9790 C   0  0  0  0  0  2  0  0  0  0  0  0
  185.6050  177.2640  145.7640 C   0  0  2  0  0  3  0  0  0  0  0  0
  186.0200  176.6860  143.3240 C   0  0  0  0  0  1  0  0  0  0  0  0
  185.1230  177.4140  144.3140 C   0  0  2  0  0  3  0  0  0  0  0  0
  185.0050  178.8770  143.9220 C   0  0  0  0  0  2  0  0  0  0  0  0
  186.1270  179.2630  142.9760 C   0  0  0  0  0  1  0  0  0  0  0  0
  195.2180  168.6810  147.3130 C   0  0  0  0  0  0  0  0  0  0  0  0
  197.5770  168.6560  147.9720 O   0  0  0  0  0  1  0  0  0  0  0  0
  194.0500  168.1660  147.5070 N   0  0  0  0  0  2  0  0  0  0  0  0
  196.3160  168.1750  148.0810 N   0  0  0  0  0  2  0  0  0  0  0  0
  196.0900  173.9710  142.6600 O   0  0  0  0  0  0  0  0  0  0  0  0
  197.1180  174.7720  143.1690 C   0  0  0  0  0  2  0  0  0  0  0  0
  196.7180  176.2340  143.1010 C   0  0  0  0  0  2  0  0  0  0  0  0
  196.3130  176.6040  141.6870 C   0  0  0  0  0  2  0  0  0  0  0  0
  195.5530  175.4120  139.2280 O   0  0  0  0  0  0  0  0  0  0  0  0
  196.7790  175.4070  139.5210 C   0  0  0  0  0  0  0  0  0  0  0  0
  197.3370  174.2120  137.3750 C   0  0  0  0  0  1  0  0  0  0  0  0
  197.2310  175.9860  140.7460 N   0  0  0  0  0  2  0  0  0  0  0  0
  197.7310  174.8240  138.6320 N   0  0  0  0  0  2  0  0  0  0  0  0
  1  4  1  0  0  0  0
  3  2  1  6  0  0  0
  3  1  1  0  0  0  0
  3  9  1  0  0  0  0
  4 16  1  1  0  0  0
  4  7  1  0  0  0  0
  6 10  1  0  0  0  0
  7  5  2  0  0  0  0
  8  5  1  0  0  0  0
  8 31  1  1  0  0  0
  9 10  2  0  0  0  0
  9  7  1  0  0  0  0
 10  8  1  0  0  0  0
 12 18  2  0  0  0  0
 12 16  1  0  0  0  0
 14 13  1  0  0  0  0
 15 21  1  0  0  0  0
 15 11  2  0  0  0  0
 16 14  2  0  0  0  0
 17 18  1  0  0  0  0
 17 15  1  0  0  0  0
 18 19  1  0  0  0  0
 19 11  1  0  0  0  0
 19 13  2  0  0  0  0
 21 20  2  0  0  0  0
 22 25  1  0  0  0  0
 23 25  1  0  0  0  0
 24 20  1  1  0  0  0
 24 23  1  0  0  0  0
 26 28  1  6  0  0  0
 26 24  1  0  0  0  0
 26 22  1  0  0  0  0
 28 27  1  6  0  0  0
 29 28  1  0  0  0  0
 30 29  1  0  0  0  0
 31 33  2  0  0  0  0
 31 34  1  0  0  0  0
 32 34  1  0  0  0  0
 35 36  1  0  0  0  0
 35  1  1  0  0  0  0
 37 36  1  0  0  0  0
 38 37  1  0  0  0  0
 39 40  2  0  0  0  0
 40 42  1  0  0  0  0
 41 43  1  0  0  0  0
 42 38  1  0  0  0  0
 43 40  1  0  0  0  0
M  END
>  <MODEL>
5

>  <REMARK>
 VINA RESULT:      -6.9      5.392      9.051
  Name = 
  11 active torsions:
  status: ('A' for Active; 'I' for Inactive)
    1  A    between atoms: N_3  and  O_19
    2  A    between atoms: C_4  and  C_26
    3  A    between atoms: C_8  and  C_31
    4  A    between atoms: C_11  and  C_27
    5  A    between atoms: O_19  and  C_36
    6  A    between atoms: C_21  and  C_30
    7  A    between atoms: C_23  and  N_43
    8  A    between atoms: N_24  and  C_41
    9  A    between atoms: C_26  and  C_29
   10  A    between atoms: C_33  and  C_36
   11  A    between atoms: C_33  and  C_41
                            x       y       z     vdW  Elec       q    Type
                         _______ _______ _______ _____ _____    ______ ____

>  <TORSDO>
F 11

$$$$
=
 OpenBabel11042419043D

 43 47  0  0  1  0  0  0  0  0999 V2000
  194.2190  171.5080  140.4830 N   0  0  0  0  0  0  0  0  0  0  0  0
  195.3720  169.4300  139.8930 C   0  0  0  0  0  1  0  0  0  0  0  0
  195.3840  170.6590  140.7850 C   0  0  2  0  0  3  0  0  0  0  0  0
  193.3250  171.5650  141.6160 C   0  0  1  0  0  3  0  0  0  0  0  0
  193.5920  170.4890  143.9760 C   0  0  0  0  0  3  0  0  0  0  0  0
  197.1950  168.7880  143.1430 S   0  0  0  0  0  1  0  0  0  0  0  0
  193.8510  170.8400  142.5880 C   0  0  0  0  0  0  0  0  0  0  0  0
  194.6570  169.7440  144.3360 C   0  0  1  0  0  3  0  0  0  0  0  0
  195.0640  170.2720  142.1820 C   0  0  0  0  0  0  0  0  0  0  0  0
  195.6020  169.6130  143.1860 C   0  0  0  0  0  0  0  0  0  0  0  0
  188.5370  174.5130  141.9650 N   0  0  0  0  0  0  0  0  0  0  0  0
  191.9210  173.3950  142.5910 C   0  0  0  0  0  3  0  0  0  0  0  0
  189.7630  172.7070  140.8940 C   0  0  0  0  0  3  0  0  0  0  0  0
  190.9730  171.9970  140.8360 C   0  0  0  0  0  3  0  0  0  0  0  0
  188.7350  175.4480  142.9290 C   0  0  0  0  0  0  0  0  0  0  0  0
  192.0580  172.3290  141.6810 C   0  0  0  0  0  0  0  0  0  0  0  0
  190.2820  175.3730  143.6120 S   0  0  0  0  0  0  0  0  0  0  0  0
  190.7130  174.0830  142.6310 C   0  0  0  0  0  0  0  0  0  0  0  0
  189.6500  173.7530  141.8060 C   0  0  0  0  0  0  0  0  0  0  0  0
  186.4820  176.1240  143.2990 C   0  0  0  0  0  3  0  0  0  0  0  0
  187.7450  176.3990  143.3240 N   0  0  0  0  0  0  0  0  0  0  0  0
  185.7120  179.3200  144.7860 C   0  0  0  0  0  2  0  0  0  0  0  0
  185.3820  178.2310  142.6510 C   0  0  0  0  0  2  0  0  0  0  0  0
  185.4790  177.1470  143.7110 C   0  0  2  0  0  3  0  0  0  0  0  0
  185.8410  179.5270  143.2950 C   0  0  0  0  0  2  0  0  0  0  0  0
  185.9240  177.8310  144.9940 C   0  0  2  0  0  3  0  0  0  0  0  0
  184.0470  178.1690  146.6740 C   0  0  0  0  0  1  0  0  0  0  0  0
  185.1940  177.2760  146.2260 C   0  0  2  0  0  3  0  0  0  0  0  0
  186.1550  177.0540  147.3810 C   0  0  0  0  0  2  0  0  0  0  0  0
  187.4750  176.5050  146.8710 C   0  0  0  0  0  1  0  0  0  0  0  0
  194.8470  169.1580  145.6870 C   0  0  0  0  0  0  0  0  0  0  0  0
  196.6330  170.7090  146.3240 O   0  0  0  0  0  1  0  0  0  0  0  0
  194.1100  168.1670  146.0630 N   0  0  0  0  0  2  0  0  0  0  0  0
  195.8230  169.6620  146.6080 N   0  0  0  0  0  2  0  0  0  0  0  0
  193.9900  172.0790  139.2740 O   0  0  0  0  0  0  0  0  0  0  0  0
  195.0120  173.0220  139.1120 C   0  0  0  0  0  2  0  0  0  0  0  0
  194.4670  174.4200  139.3440 C   0  0  0  0  0  2  0  0  0  0  0  0
  195.4760  175.2560  140.1080 C   0  0  0  0  0  2  0  0  0  0  0  0
  195.4210  174.2620  142.7640 O   0  0  0  0  0  0  0  0  0  0  0  0
  194.8300  175.3530  142.5400 C   0  0  0  0  0  0  0  0  0  0  0  0
  194.1420  175.5330  144.9560 C   0  0  0  0  0  1  0  0  0  0  0  0
  194.8140  175.9080  141.2250 N   0  0  0  0  0  2  0  0  0  0  0  0
  194.1700  176.0470  143.5980 N   0  0  0  0  0  2  0  0  0  0  0  0
  1  3  1  0  0  0  0
  1  4  1  0  0  0  0
  3  2  1  6  0  0  0
  3  9  1  0  0  0  0
  4 16  1  1  0  0  0
  4  7  1  0  0  0  0
  5  8  1  0  0  0  0
  6 10  1  0  0  0  0
  7  5  2  0  0  0  0
  8 31  1  1  0  0  0
  9  7  1  0  0  0  0
  9 10  2  0  0  0  0
 10  8  1  0  0  0  0
 11 15  2  0  0  0  0
 12 18  1  0  0  0  0
 13 19  1  0  0  0  0
 14 13  2  0  0  0  0
 14 16  1  0  0  0  0
 15 21  1  0  0  0  0
 15 17  1  0  0  0  0
 16 12  2  0  0  0  0
 18 17  1  0  0  0  0
 19 11  1  0  0  0  0
 19 18  2  0  0  0  0
 20 21  2  0  0  0  0
 22 26  1  0  0  0  0
 23 25  1  0  0  0  0
 23 24  1  0  0  0  0
 24 20  1  6  0  0  0
 24 26  1  0  0  0  0
 25 22  1  0  0  0  0
 26 28  1  1  0  0  0
 28 27  1  1  0  0  0
 28 29  1  0  0  0  0
 30 29  1  0  0  0  0
 31 33  2  0  0  0  0
 31 34  1  0  0  0  0
 32 34  1  0  0  0  0
 35  1  1  0  0  0  0
 36 35  1  0  0  0  0
 36 37  1  0  0  0  0
 37 38  1  0  0  0  0
 38 42  1  0  0  0  0
 40 39  2  0  0  0  0
 40 43  1  0  0  0  0
 42 40  1  0  0  0  0
 43 41  1  0  0  0  0
M  END
>  <MODEL>
6

>  <REMARK>
 VINA RESULT:      -6.8      4.819      8.179
  Name = 
  11 active torsions:
  status: ('A' for Active; 'I' for Inactive)
    1  A    between atoms: N_3  and  O_19
    2  A    between atoms: C_4  and  C_26
    3  A    between atoms: C_8  and  C_31
    4  A    between atoms: C_11  and  C_27
    5  A    between atoms: O_19  and  C_36
    6  A    between atoms: C_21  and  C_30
    7  A    between atoms: C_23  and  N_43
    8  A    between atoms: N_24  and  C_41
    9  A    between atoms: C_26  and  C_29
   10  A    between atoms: C_33  and  C_36
   11  A    between atoms: C_33  and  C_41
                            x       y       z     vdW  Elec       q    Type
                         _______ _______ _______ _____ _____    ______ ____

>  <TORSDO>
F 11

$$$$
=
 OpenBabel11042419043D

 43 47  0  0  1  0  0  0  0  0999 V2000
  188.1220  175.9990  141.9080 N   0  0  0  0  0  0  0  0  0  0  0  0
  187.0190  177.9160  140.8560 C   0  0  0  0  0  1  0  0  0  0  0  0
  186.8320  176.6880  141.7310 C   0  0  2  0  0  3  0  0  0  0  0  0
  188.5380  176.0480  143.2900 C   0  0  1  0  0  3  0  0  0  0  0  0
  187.2960  177.0610  145.3460 C   0  0  0  0  0  3  0  0  0  0  0  0
  184.0690  178.2910  143.1930 S   0  0  0  0  0  1  0  0  0  0  0  0
  187.6090  176.6910  143.9740 C   0  0  0  0  0  0  0  0  0  0  0  0
  186.0920  177.6610  145.2640 C   0  0  1  0  0  3  0  0  0  0  0  0
  186.5680  177.1020  143.1330 C   0  0  0  0  0  0  0  0  0  0  0  0
  185.6240  177.6780  143.8440 C   0  0  0  0  0  0  0  0  0  0  0  0
  193.2030  173.6810  145.3840 N   0  0  0  0  0  0  0  0  0  0  0  0
  190.0140  174.0710  143.7190 C   0  0  0  0  0  3  0  0  0  0  0  0
  191.9080  175.7100  145.0360 C   0  0  0  0  0  3  0  0  0  0  0  0
  190.7340  176.2630  144.5000 C   0  0  0  0  0  3  0  0  0  0  0  0
  193.1150  172.3550  145.1030 C   0  0  0  0  0  0  0  0  0  0  0  0
  189.7780  175.4530  143.8420 C   0  0  0  0  0  0  0  0  0  0  0  0
  191.7040  171.9510  144.2600 S   0  0  0  0  0  0  0  0  0  0  0  0
  191.1830  173.5450  144.2580 C   0  0  0  0  0  0  0  0  0  0  0  0
  192.1150  174.3380  144.9070 C   0  0  0  0  0  0  0  0  0  0  0  0
  194.1250  170.2020  144.9910 C   0  0  0  0  0  3  0  0  0  0  0  0
  194.1100  171.4000  145.4770 N   0  0  0  0  0  0  0  0  0  0  0  0
  196.5070  169.0480  147.4420 C   0  0  0  0  0  2  0  0  0  0  0  0
  194.5620  168.1660  146.3060 C   0  0  0  0  0  2  0  0  0  0  0  0
  195.1740  169.2300  145.4120 C   0  0  2  0  0  3  0  0  0  0  0  0
  195.2150  168.2990  147.6700 C   0  0  0  0  0  2  0  0  0  0  0  0
  196.2390  169.9330  146.2390 C   0  0  2  0  0  3  0  0  0  0  0  0
  197.5700  171.7030  144.9920 C   0  0  0  0  0  1  0  0  0  0  0  0
  197.4970  170.2430  145.4150 C   0  0  2  0  0  3  0  0  0  0  0  0
  197.5880  169.3480  144.1910 C   0  0  0  0  0  2  0  0  0  0  0  0
  197.5920  170.1840  142.9240 C   0  0  0  0  0  1  0  0  0  0  0  0
  185.3500  178.2060  146.4290 C   0  0  0  0  0  0  0  0  0  0  0  0
  187.3480  178.5110  147.8110 O   0  0  0  0  0  1  0  0  0  0  0  0
  184.0670  178.3460  146.3600 N   0  0  0  0  0  2  0  0  0  0  0  0
  186.0080  178.5970  147.6400 N   0  0  0  0  0  2  0  0  0  0  0  0
  188.8450  175.4720  140.8880 O   0  0  0  0  0  0  0  0  0  0  0  0
  188.1780  174.2940  140.5320 C   0  0  0  0  0  2  0  0  0  0  0  0
  188.3190  174.0490  139.0410 C   0  0  0  0  0  2  0  0  0  0  0  0
  189.1980  172.8400  138.7880 C   0  0  0  0  0  2  0  0  0  0  0  0
  190.9160  171.6050  140.6770 O   0  0  0  0  0  0  0  0  0  0  0  0
  191.3990  172.5320  139.9720 C   0  0  0  0  0  0  0  0  0  0  0  0
  193.6380  172.2920  141.1020 C   0  0  0  0  0  1  0  0  0  0  0  0
  190.5890  173.2000  139.0050 N   0  0  0  0  0  2  0  0  0  0  0  0
  192.7620  172.9250  140.1320 N   0  0  0  0  0  2  0  0  0  0  0  0
  1  4  1  0  0  0  0
  3  2  1  6  0  0  0
  3  1  1  0  0  0  0
  3  9  1  0  0  0  0
  4 16  1  1  0  0  0
  4  7  1  0  0  0  0
  6 10  1  0  0  0  0
  7  5  2  0  0  0  0
  8  5  1  0  0  0  0
  8 31  1  1  0  0  0
  9 10  2  0  0  0  0
  9  7  1  0  0  0  0
 10  8  1  0  0  0  0
 12 16  2  0  0  0  0
 12 18  1  0  0  0  0
 14 13  2  0  0  0  0
 15 11  2  0  0  0  0
 15 21  1  0  0  0  0
 16 14  1  0  0  0  0
 17 15  1  0  0  0  0
 18 17  1  0  0  0  0
 18 19  2  0  0  0  0
 19 13  1  0  0  0  0
 19 11  1  0  0  0  0
 20 21  2  0  0  0  0
 22 25  1  0  0  0  0
 23 25  1  0  0  0  0
 24 20  1  1  0  0  0
 24 26  1  0  0  0  0
 24 23  1  0  0  0  0
 26 28  1  6  0  0  0
 26 22  1  0  0  0  0
 28 27  1  6  0  0  0
 29 28  1  0  0  0  0
 30 29  1  0  0  0  0
 31 34  1  0  0  0  0
 33 31  2  0  0  0  0
 34 32  1  0  0  0  0
 35  1  1  0  0  0  0
 36 35  1  0  0  0  0
 37 36  1  0  0  0  0
 38 42  1  0  0  0  0
 38 37  1  0  0  0  0
 40 43  1  0  0  0  0
 40 39  2  0  0  0  0
 42 40  1  0  0  0  0
 43 41  1  0  0  0  0
M  END
>  <MODEL>
7

>  <REMARK>
 VINA RESULT:      -6.8      4.680     12.408
  Name = 
  11 active torsions:
  status: ('A' for Active; 'I' for Inactive)
    1  A    between atoms: N_3  and  O_19
    2  A    between atoms: C_4  and  C_26
    3  A    between atoms: C_8  and  C_31
    4  A    between atoms: C_11  and  C_27
    5  A    between atoms: O_19  and  C_36
    6  A    between atoms: C_21  and  C_30
    7  A    between atoms: C_23  and  N_43
    8  A    between atoms: N_24  and  C_41
    9  A    between atoms: C_26  and  C_29
   10  A    between atoms: C_33  and  C_36
   11  A    between atoms: C_33  and  C_41
                            x       y       z     vdW  Elec       q    Type
                         _______ _______ _______ _____ _____    ______ ____

>  <TORSDO>
F 11

$$$$
=
 OpenBabel11042419043D

 43 47  0  0  1  0  0  0  0  0999 V2000
  188.7000  176.3020  145.8560 N   0  0  0  0  0  0  0  0  0  0  0  0
  186.8640  177.0840  147.2750 C   0  0  0  0  0  1  0  0  0  0  0  0
  187.7770  177.4210  146.1090 C   0  0  2  0  0  3  0  0  0  0  0  0
  188.4400  175.7110  144.5640 C   0  0  0  0  0  0  0  0  0  0  0  0
  186.7150  176.4270  142.7460 C   0  0  0  0  0  3  0  0  0  0  0  0
  185.2600  179.5550  144.9050 S   0  0  0  0  0  1  0  0  0  0  0  0
  187.4520  176.3810  143.9990 C   0  0  0  0  0  0  0  0  0  0  0  0
  185.8750  177.4720  142.8900 C   0  0  0  0  0  0  0  0  0  0  0  0
  187.0030  177.4070  144.8410 C   0  0  0  0  0  0  0  0  0  0  0  0
  186.0680  178.1030  144.2320 C   0  0  0  0  0  0  0  0  0  0  0  0
  191.2030  171.4070  142.2020 N   0  0  0  0  0  0  0  0  0  0  0  0
  189.3810  174.5100  142.5780 C   0  0  0  0  0  3  0  0  0  0  0  0
  190.3760  172.4460  144.2390 C   0  0  0  0  0  3  0  0  0  0  0  0
  189.6830  173.5360  144.7900 C   0  0  0  0  0  3  0  0  0  0  0  0
  191.2160  171.6500  140.8660 C   0  0  0  0  0  0  0  0  0  0  0  0
  189.1780  174.5730  143.9690 C   0  0  0  0  0  0  0  0  0  0  0  0
  190.4390  173.0950  140.4520 S   0  0  0  0  0  0  0  0  0  0  0  0
  190.0690  173.4210  142.0550 C   0  0  0  0  0  0  0  0  0  0  0  0
  190.5580  172.4040  142.8580 C   0  0  0  0  0  0  0  0  0  0  0  0
  191.5590  169.5150  139.8690 C   0  0  0  0  0  3  0  0  0  0  0  0
  191.8230  170.7800  139.9090 N   0  0  0  0  0  0  0  0  0  0  0  0
  193.9270  169.0830  137.1810 C   0  0  0  0  0  2  0  0  0  0  0  0
  193.5640  168.1660  139.3890 C   0  0  0  0  0  2  0  0  0  0  0  0
  192.2210  168.6380  138.8600 C   0  0  2  0  0  3  0  0  0  0  0  0
  194.6300  168.7350  138.4720 C   0  0  0  0  0  2  0  0  0  0  0  0
  192.5050  169.4230  137.5890 C   0  0  2  0  0  3  0  0  0  0  0  0
  192.0330  168.2790  135.3690 C   0  0  0  0  0  1  0  0  0  0  0  0
  191.4700  169.1380  136.4920 C   0  0  2  0  0  3  0  0  0  0  0  0
  190.9050  170.4270  135.9200 C   0  0  0  0  0  2  0  0  0  0  0  0
  189.6900  170.8700  136.7150 C   0  0  0  0  0  1  0  0  0  0  0  0
  184.9150  177.9210  141.8500 C   0  0  0  0  0  0  0  0  0  0  0  0
  186.5660  177.9130  140.0410 O   0  0  0  0  0  1  0  0  0  0  0  0
  183.6810  178.1320  142.1690 N   0  0  0  0  0  2  0  0  0  0  0  0
  185.3050  178.1240  140.4870 N   0  0  0  0  0  2  0  0  0  0  0  0
  189.6060  175.8490  146.7590 O   0  0  0  0  0  0  0  0  0  0  0  0
  190.7390  176.6520  146.5820 C   0  0  0  0  0  2  0  0  0  0  0  0
  191.9370  176.0130  147.2580 C   0  0  0  0  0  2  0  0  0  0  0  0
  193.1340  176.0240  146.3270 C   0  0  0  0  0  2  0  0  0  0  0  0
  194.5860  176.3690  143.9150 O   0  0  0  0  0  0  0  0  0  0  0  0
  193.5300  175.6810  143.8640 C   0  0  0  0  0  0  0  0  0  0  0  0
  193.8500  175.2850  141.3970 C   0  0  0  0  0  1  0  0  0  0  0  0
  192.7490  175.4720  145.0400 N   0  0  0  0  0  2  0  0  0  0  0  0
  193.1050  175.1030  142.6300 N   0  0  0  0  0  2  0  0  0  0  0  0
  1  3  1  0  0  0  0
  1 35  1  0  0  0  0
  3  2  1  1  0  0  0
  4  1  1  0  0  0  0
  5  8  2  0  0  0  0
  5  7  1  0  0  0  0
  7  4  2  0  0  0  0
  7  9  1  0  0  0  0
  8 10  1  0  0  0  0
  9  3  1  0  0  0  0
 10  9  2  0  0  0  0
 10  6  1  0  0  0  0
 11 19  1  0  0  0  0
 12 16  1  0  0  0  0
 13 14  1  0  0  0  0
 15 11  2  0  0  0  0
 16  4  1  0  0  0  0
 16 14  2  0  0  0  0
 17 15  1  0  0  0  0
 17 18  1  0  0  0  0
 18 12  2  0  0  0  0
 18 19  1  0  0  0  0
 19 13  2  0  0  0  0
 20 21  2  0  0  0  0
 21 15  1  0  0  0  0
 22 26  1  0  0  0  0
 22 25  1  0  0  0  0
 24 23  1  0  0  0  0
 24 20  1  1  0  0  0
 25 23  1  0  0  0  0
 26 28  1  6  0  0  0
 26 24  1  0  0  0  0
 28 27  1  6  0  0  0
 29 28  1  0  0  0  0
 29 30  1  0  0  0  0
 31 33  2  0  0  0  0
 31  8  1  0  0  0  0
 32 34  1  0  0  0  0
 34 31  1  0  0  0  0
 36 35  1  0  0  0  0
 36 37  1  0  0  0  0
 38 37  1  0  0  0  0
 40 39  2  0  0  0  0
 40 42  1  0  0  0  0
 41 43  1  0  0  0  0
 42 38  1  0  0  0  0
 43 40  1  0  0  0  0
M  END
>  <MODEL>
8

>  <REMARK>
 VINA RESULT:      -6.7      4.109     10.303
  Name = 
  11 active torsions:
  status: ('A' for Active; 'I' for Inactive)
    1  A    between atoms: N_3  and  O_19
    2  A    between atoms: C_4  and  C_26
    3  A    between atoms: C_8  and  C_31
    4  A    between atoms: C_11  and  C_27
    5  A    between atoms: O_19  and  C_36
    6  A    between atoms: C_21  and  C_30
    7  A    between atoms: C_23  and  N_43
    8  A    between atoms: N_24  and  C_41
    9  A    between atoms: C_26  and  C_29
   10  A    between atoms: C_33  and  C_36
   11  A    between atoms: C_33  and  C_41
                            x       y       z     vdW  Elec       q    Type
                         _______ _______ _______ _____ _____    ______ ____

>  <TORSDO>
F 11

$$$$
=
 OpenBabel11042419043D

 43 47  0  0  1  0  0  0  0  0999 V2000
  195.7430  172.4900  141.6780 N   0  0  0  0  0  0  0  0  0  0  0  0
  197.9410  171.7460  140.8960 C   0  0  0  0  0  1  0  0  0  0  0  0
  196.4790  171.9340  140.5300 C   0  0  2  0  0  3  0  0  0  0  0  0
  195.2570  173.8160  141.3750 C   0  0  0  0  0  0  0  0  0  0  0  0
  195.4500  175.1710  139.1560 C   0  0  0  0  0  3  0  0  0  0  0  0
  197.4790  172.2500  137.1770 S   0  0  0  0  0  1  0  0  0  0  0  0
  195.6170  174.1110  140.1390 C   0  0  0  0  0  0  0  0  0  0  0  0
  196.0650  174.7020  138.0520 C   0  0  0  0  0  0  0  0  0  0  0  0
  196.3400  173.0560  139.5680 C   0  0  0  0  0  0  0  0  0  0  0  0
  196.6280  173.3430  138.3170 C   0  0  0  0  0  0  0  0  0  0  0  0
  192.1680  177.0880  144.7650 N   0  0  0  0  0  0  0  0  0  0  0  0
  193.0730  174.7810  142.1290 C   0  0  0  0  0  3  0  0  0  0  0  0
  194.3690  176.2320  144.1830 C   0  0  0  0  0  3  0  0  0  0  0  0
  195.1040  175.4050  143.3190 C   0  0  0  0  0  3  0  0  0  0  0  0
  190.8830  176.9670  144.3440 C   0  0  0  0  0  0  0  0  0  0  0  0
  194.4670  174.6770  142.2860 C   0  0  0  0  0  0  0  0  0  0  0  0
  190.7170  175.9160  143.0280 S   0  0  0  0  0  0  0  0  0  0  0  0
  192.3660  175.6060  142.9960 C   0  0  0  0  0  0  0  0  0  0  0  0
  192.9900  176.3230  144.0040 C   0  0  0  0  0  0  0  0  0  0  0  0
  188.6200  177.1010  145.0720 C   0  0  0  0  0  3  0  0  0  0  0  0
  189.7840  177.6510  144.9480 N   0  0  0  0  0  0  0  0  0  0  0  0
  185.1030  177.4060  145.8170 C   0  0  0  0  0  2  0  0  0  0  0  0
  187.1730  177.2550  147.0600 C   0  0  0  0  0  2  0  0  0  0  0  0
  187.4950  177.8510  145.7000 C   0  0  2  0  0  3  0  0  0  0  0  0
  185.7600  176.7070  146.9840 C   0  0  0  0  0  2  0  0  0  0  0  0
  186.2380  177.7130  144.8560 C   0  0  2  0  0  3  0  0  0  0  0  0
  184.5710  179.4930  144.1420 C   0  0  0  0  0  1  0  0  0  0  0  0
  185.9860  178.9560  143.9900 C   0  0  2  0  0  3  0  0  0  0  0  0
  186.2750  178.6730  142.5260 C   0  0  0  0  0  2  0  0  0  0  0  0
  185.9270  177.2350  142.1860 C   0  0  0  0  0  1  0  0  0  0  0  0
  196.1490  175.4410  136.7660 C   0  0  0  0  0  0  0  0  0  0  0  0
  193.7760  175.1620  136.2240 O   0  0  0  0  0  1  0  0  0  0  0  0
  197.2780  175.9430  136.3910 N   0  0  0  0  0  2  0  0  0  0  0  0
  195.0100  175.6290  135.9180 N   0  0  0  0  0  2  0  0  0  0  0  0
  195.6220  171.8640  142.8750 O   0  0  0  0  0  0  0  0  0  0  0  0
  194.6720  170.8560  142.6710 C   0  0  0  0  0  2  0  0  0  0  0  0
  193.4460  171.1200  143.5260 C   0  0  0  0  0  2  0  0  0  0  0  0
  192.2290  170.4460  142.9230 C   0  0  0  0  0  2  0  0  0  0  0  0
  191.3890  171.4510  140.4070 O   0  0  0  0  0  0  0  0  0  0  0  0
  190.8020  171.8890  141.4330 C   0  0  0  0  0  0  0  0  0  0  0  0
  189.3280  173.3640  140.0190 C   0  0  0  0  0  1  0  0  0  0  0  0
  191.1780  171.4300  142.7310 N   0  0  0  0  0  2  0  0  0  0  0  0
  189.7530  172.8500  141.3090 N   0  0  0  0  0  2  0  0  0  0  0  0
  1 35  1  0  0  0  0
  3  2  1  1  0  0  0
  3  1  1  0  0  0  0
  4  1  1  0  0  0  0
  4 16  1  0  0  0  0
  5  7  1  0  0  0  0
  6 10  1  0  0  0  0
  7  4  2  0  0  0  0
  8 10  1  0  0  0  0
  8  5  2  0  0  0  0
  9  7  1  0  0  0  0
  9  3  1  0  0  0  0
 10  9  2  0  0  0  0
 12 16  2  0  0  0  0
 12 18  1  0  0  0  0
 14 13  2  0  0  0  0
 15 11  2  0  0  0  0
 15 21  1  0  0  0  0
 16 14  1  0  0  0  0
 17 15  1  0  0  0  0
 18 17  1  0  0  0  0
 18 19  2  0  0  0  0
 19 13  1  0  0  0  0
 19 11  1  0  0  0  0
 21 20  2  0  0  0  0
 22 25  1  0  0  0  0
 24 20  1  6  0  0  0
 24 23  1  0  0  0  0
 25 23  1  0  0  0  0
 26 28  1  1  0  0  0
 26 24  1  0  0  0  0
 26 22  1  0  0  0  0
 28 27  1  6  0  0  0
 29 28  1  0  0  0  0
 30 29  1  0  0  0  0
 31  8  1  0  0  0  0
 33 31  2  0  0  0  0
 34 32  1  0  0  0  0
 34 31  1  0  0  0  0
 36 35  1  0  0  0  0
 36 37  1  0  0  0  0
 38 37  1  0  0  0  0
 39 40  2  0  0  0  0
 40 42  1  0  0  0  0
 41 43  1  0  0  0  0
 42 38  1  0  0  0  0
 43 40  1  0  0  0  0
M  END
>  <MODEL>
9

>  <REMARK>
 VINA RESULT:      -6.7      4.803      8.295
  Name = 
  11 active torsions:
  status: ('A' for Active; 'I' for Inactive)
    1  A    between atoms: N_3  and  O_19
    2  A    between atoms: C_4  and  C_26
    3  A    between atoms: C_8  and  C_31
    4  A    between atoms: C_11  and  C_27
    5  A    between atoms: O_19  and  C_36
    6  A    between atoms: C_21  and  C_30
    7  A    between atoms: C_23  and  N_43
    8  A    between atoms: N_24  and  C_41
    9  A    between atoms: C_26  and  C_29
   10  A    between atoms: C_33  and  C_36
   11  A    between atoms: C_33  and  C_41
                            x       y       z     vdW  Elec       q    Type
                         _______ _______ _______ _____ _____    ______ ____

>  <TORSDO>
F 11

$$$$
