=
 OpenBabel11042417323D

 39 42  0  0  1  0  0  0  0  0999 V2000
  188.4710  176.6740  144.8120 C   0  0  2  0  0  3  0  0  0  0  0  0
  188.3230  174.8170  143.1430 C   0  0  0  0  0  3  0  0  0  0  0  0
  190.3690  176.1080  143.2390 C   0  0  0  0  0  3  0  0  0  0  0  0
  189.0720  175.8530  143.7080 C   0  0  0  0  0  0  0  0  0  0  0  0
  190.1640  174.2840  141.6510 C   0  0  0  0  0  0  0  0  0  0  0  0
  188.8670  174.0340  142.1200 C   0  0  0  0  0  3  0  0  0  0  0  0
  190.9110  175.3260  142.2150 C   0  0  0  0  0  3  0  0  0  0  0  0
  190.8750  171.9110  139.0990 C   0  0  0  0  0  0  0  0  0  0  0  0
  189.5330  170.1530  138.2460 O   0  0  0  0  0  0  0  0  0  0  0  0
  192.1870  171.8240  136.5210 C   0  0  0  0  0  3  0  0  0  0  0  0
  191.3390  170.8410  136.8550 C   0  0  0  0  0  0  0  0  0  0  0  0
  190.5190  170.9200  138.0800 C   0  0  0  0  0  0  0  0  0  0  0  0
  190.7470  173.4550  140.5820 C   0  0  0  0  0  0  0  0  0  0  0  0
  192.2300  173.4280  137.3640 S   0  0  0  0  0  0  0  0  0  0  0  0
  191.3090  169.3880  135.8750 Cl  0  0  0  0  0  0  0  0  0  0  0  0
  192.1320  172.6970  139.0260 C   0  0  1  0  0  3  0  0  0  0  0  0
  191.8940  173.7150  140.0380 N   0  0  0  0  0  0  0  0  0  0  0  0
  190.0680  172.3450  140.0040 N   0  0  0  0  0  0  0  0  0  0  0  0
  190.9620  175.2420  146.8380 C   0  0  1  0  0  3  0  0  0  0  0  0
  190.9680  176.6780  147.0760 N   0  0  0  0  0  2  0  0  0  0  0  0
  188.8060  176.0980  146.1930 C   0  0  2  0  0  3  0  0  0  0  0  0
  189.5710  177.0820  147.0630 C   0  0  0  0  0  2  0  0  0  0  0  0
  189.7120  174.8980  146.0540 C   0  0  0  0  0  2  0  0  0  0  0  0
  193.2080  175.5690  146.0870 O   0  0  0  0  0  0  0  0  0  0  0  0
  192.1830  174.8330  146.0840 C   0  0  0  0  0  0  0  0  0  0  0  0
  192.1730  173.6050  145.3530 N   0  0  0  0  0  2  0  0  0  0  0  0
  193.3120  173.1470  144.5720 C   0  0  0  0  0  3  0  0  0  0  0  0
  192.8340  172.3200  143.3940 C   0  0  0  0  0  1  0  0  0  0  0  0
  194.2120  172.2980  145.4450 C   0  0  0  0  0  1  0  0  0  0  0  0
  187.0860  176.8310  144.6380 O   0  0  0  0  0  0  0  0  0  0  0  0
  186.9270  178.0400  143.9530 C   0  0  1  0  0  3  0  0  0  0  0  0
  186.0190  177.8210  142.7530 C   0  0  0  0  0  2  0  0  0  0  0  0
  188.0260  178.1880  141.5240 O   0  0  0  0  0  0  0  0  0  0  0  0
  186.1510  177.7270  140.2350 N   0  0  0  0  0  1  0  0  0  0  0  0
  186.7950  177.9330  141.4860 C   0  0  0  0  0  0  0  0  0  0  0  0
  186.3370  179.0330  144.8420 N   0  0  0  0  0  2  0  0  0  0  0  0
  184.0290  178.5930  145.7380 C   0  0  0  0  0  1  0  0  0  0  0  0
  186.0950  178.5410  147.4650 S   0  0  0  0  0  0  0  0  0  0  0  0
  185.4960  178.7000  145.9490 C   0  0  0  0  0  0  0  0  0  0  0  0
  1 30  1  6  0  0  0
  2  4  1  0  0  0  0
  3  4  2  0  0  0  0
  4  1  1  0  0  0  0
  5  6  1  0  0  0  0
  5  7  2  0  0  0  0
  6  2  2  0  0  0  0
  7  3  1  0  0  0  0
  8 18  2  0  0  0  0
 10 11  2  0  0  0  0
 10 14  1  0  0  0  0
 11 12  1  0  0  0  0
 12  9  2  0  0  0  0
 12  8  1  0  0  0  0
 13  5  1  0  0  0  0
 15 11  1  0  0  0  0
 16 14  1  6  0  0  0
 16  8  1  0  0  0  0
 16 17  1  0  0  0  0
 17 13  2  0  0  0  0
 18 13  1  0  0  0  0
 19 25  1  6  0  0  0
 19 20  1  0  0  0  0
 21  1  1  6  0  0  0
 21 22  1  0  0  0  0
 22 20  1  0  0  0  0
 23 21  1  0  0  0  0
 23 19  1  0  0  0  0
 25 24  2  0  0  0  0
 26 25  1  0  0  0  0
 27 26  1  0  0  0  0
 27 29  1  0  0  0  0
 28 27  1  0  0  0  0
 31 32  1  6  0  0  0
 31 30  1  0  0  0  0
 31 36  1  0  0  0  0
 34 35  1  0  0  0  0
 35 33  2  0  0  0  0
 35 32  1  0  0  0  0
 36 39  1  0  0  0  0
 37 39  1  0  0  0  0
 39 38  2  0  0  0  0
M  END
>  <MODEL>
1

>  <REMARK>
 VINA RESULT:      -6.5      0.000      0.000
  Name = 
  11 active torsions:
  status: ('A' for Active; 'I' for Inactive)
    1  A    between atoms: C_2  and  C_7
    2  A    between atoms: C_3  and  N_13
    3  A    between atoms: C_10  and  C_24
    4  A    between atoms: C_10  and  C_32
    5  A    between atoms: C_14  and  C_33
    6  A    between atoms: N_19  and  C_24
    7  A    between atoms: N_19  and  C_28
    8  A    between atoms: O_21  and  C_24
    9  A    between atoms: O_21  and  C_33
   10  A    between atoms: C_23  and  C_27
   11  A    between atoms: C_26  and  C_33
                            x       y       z     vdW  Elec       q    Type
                         _______ _______ _______ _____ _____    ______ ____

>  <TORSDO>
F 11

$$$$
=
 OpenBabel11042417323D

 39 42  0  0  1  0  0  0  0  0999 V2000
  187.4480  176.7130  144.4030 C   0  0  2  0  0  3  0  0  0  0  0  0
  187.3280  174.7540  142.8540 C   0  0  0  0  0  3  0  0  0  0  0  0
  189.3470  176.0900  142.8530 C   0  0  0  0  0  3  0  0  0  0  0  0
  188.0590  175.8380  143.3470 C   0  0  0  0  0  0  0  0  0  0  0  0
  189.1700  174.1670  141.3820 C   0  0  0  0  0  0  0  0  0  0  0  0
  187.8810  173.9200  141.8760 C   0  0  0  0  0  3  0  0  0  0  0  0
  189.8980  175.2570  141.8750 C   0  0  0  0  0  3  0  0  0  0  0  0
  190.4360  171.4710  139.4390 C   0  0  0  0  0  0  0  0  0  0  0  0
  190.5470  169.1580  139.9450 O   0  0  0  0  0  0  0  0  0  0  0  0
  190.4620  170.6130  136.6760 C   0  0  0  0  0  3  0  0  0  0  0  0
  190.7330  169.7210  137.6380 C   0  0  0  0  0  0  0  0  0  0  0  0
  190.5710  170.0610  139.0660 C   0  0  0  0  0  0  0  0  0  0  0  0
  189.7620  173.2870  140.3610 C   0  0  0  0  0  0  0  0  0  0  0  0
  189.6420  172.1970  136.9920 S   0  0  0  0  0  0  0  0  0  0  0  0
  191.4110  168.1700  137.1810 Cl  0  0  0  0  0  0  0  0  0  0  0  0
  190.6470  172.5680  138.4610 C   0  0  1  0  0  3  0  0  0  0  0  0
  190.1190  173.7100  139.1900 N   0  0  0  0  0  0  0  0  0  0  0  0
  189.9260  171.8850  140.5470 N   0  0  0  0  0  0  0  0  0  0  0  0
  190.2040  175.7380  146.3550 C   0  0  1  0  0  3  0  0  0  0  0  0
  190.0980  177.1880  146.4310 N   0  0  0  0  0  2  0  0  0  0  0  0
  187.9370  176.3340  145.8060 C   0  0  2  0  0  3  0  0  0  0  0  0
  188.6730  177.4730  146.4930 C   0  0  0  0  0  2  0  0  0  0  0  0
  188.9350  175.2040  145.7240 C   0  0  0  0  0  2  0  0  0  0  0  0
  192.2500  176.2080  145.2130 O   0  0  0  0  0  0  0  0  0  0  0  0
  191.3970  175.3430  145.5500 C   0  0  0  0  0  0  0  0  0  0  0  0
  191.5540  173.9780  145.1590 N   0  0  0  0  0  2  0  0  0  0  0  0
  192.6730  173.5160  144.3520 C   0  0  0  0  0  3  0  0  0  0  0  0
  192.1810  172.5620  143.2810 C   0  0  0  0  0  1  0  0  0  0  0  0
  193.6690  172.7980  145.2390 C   0  0  0  0  0  1  0  0  0  0  0  0
  186.0450  176.7080  144.3250 O   0  0  0  0  0  0  0  0  0  0  0  0
  185.6920  177.9630  143.8160 C   0  0  1  0  0  3  0  0  0  0  0  0
  185.9980  179.0290  144.8560 C   0  0  0  0  0  2  0  0  0  0  0  0
  183.7900  178.8690  145.7370 O   0  0  0  0  0  0  0  0  0  0  0  0
  185.4820  178.9550  147.3260 N   0  0  0  0  0  1  0  0  0  0  0  0
  185.0210  178.9540  145.9800 C   0  0  0  0  0  0  0  0  0  0  0  0
  186.4500  178.2290  142.6010 N   0  0  0  0  0  2  0  0  0  0  0  0
  186.8810  177.4730  140.2420 C   0  0  0  0  0  1  0  0  0  0  0  0
  184.4030  178.3190  140.8730 S   0  0  0  0  0  0  0  0  0  0  0  0
  185.9500  177.9730  141.2860 C   0  0  0  0  0  0  0  0  0  0  0  0
  1 30  1  1  0  0  0
  2  4  1  0  0  0  0
  3  4  2  0  0  0  0
  4  1  1  0  0  0  0
  5  7  2  0  0  0  0
  5  6  1  0  0  0  0
  6  2  2  0  0  0  0
  7  3  1  0  0  0  0
  8 18  2  0  0  0  0
 10 14  1  0  0  0  0
 10 11  2  0  0  0  0
 11 12  1  0  0  0  0
 12  8  1  0  0  0  0
 12  9  2  0  0  0  0
 13 18  1  0  0  0  0
 13  5  1  0  0  0  0
 15 11  1  0  0  0  0
 16 14  1  6  0  0  0
 16 17  1  0  0  0  0
 16  8  1  0  0  0  0
 17 13  2  0  0  0  0
 19 25  1  6  0  0  0
 19 20  1  0  0  0  0
 20 22  1  0  0  0  0
 21  1  1  6  0  0  0
 21 22  1  0  0  0  0
 23 21  1  0  0  0  0
 23 19  1  0  0  0  0
 24 25  2  0  0  0  0
 26 25  1  0  0  0  0
 27 26  1  0  0  0  0
 27 29  1  0  0  0  0
 28 27  1  0  0  0  0
 31 30  1  0  0  0  0
 31 32  1  1  0  0  0
 32 35  1  0  0  0  0
 33 35  2  0  0  0  0
 35 34  1  0  0  0  0
 36 31  1  0  0  0  0
 37 39  1  0  0  0  0
 38 39  2  0  0  0  0
 39 36  1  0  0  0  0
M  END
>  <MODEL>
2

>  <REMARK>
 VINA RESULT:      -6.3      1.814      2.717
  Name = 
  11 active torsions:
  status: ('A' for Active; 'I' for Inactive)
    1  A    between atoms: C_2  and  C_7
    2  A    between atoms: C_3  and  N_13
    3  A    between atoms: C_10  and  C_24
    4  A    between atoms: C_10  and  C_32
    5  A    between atoms: C_14  and  C_33
    6  A    between atoms: N_19  and  C_24
    7  A    between atoms: N_19  and  C_28
    8  A    between atoms: O_21  and  C_24
    9  A    between atoms: O_21  and  C_33
   10  A    between atoms: C_23  and  C_27
   11  A    between atoms: C_26  and  C_33
                            x       y       z     vdW  Elec       q    Type
                         _______ _______ _______ _____ _____    ______ ____

>  <TORSDO>
F 11

$$$$
=
 OpenBabel11042417323D

 39 42  0  0  1  0  0  0  0  0999 V2000
  193.3180  173.1940  144.3900 C   0  0  2  0  0  3  0  0  0  0  0  0
  191.3590  174.1620  145.6070 C   0  0  0  0  0  3  0  0  0  0  0  0
  191.7210  174.8300  143.3080 C   0  0  0  0  0  3  0  0  0  0  0  0
  192.1090  174.0830  144.4300 C   0  0  0  0  0  0  0  0  0  0  0  0
  189.8310  175.7220  144.5430 C   0  0  0  0  0  0  0  0  0  0  0  0
  190.2240  174.9770  145.6640 C   0  0  0  0  0  3  0  0  0  0  0  0
  190.5870  175.6450  143.3670 C   0  0  0  0  0  3  0  0  0  0  0  0
  186.7950  177.4760  143.9460 C   0  0  0  0  0  0  0  0  0  0  0  0
  185.3730  177.4440  142.0500 O   0  0  0  0  0  0  0  0  0  0  0  0
  184.4210  178.2620  145.4020 C   0  0  0  0  0  3  0  0  0  0  0  0
  184.3930  178.2580  144.0620 C   0  0  0  0  0  0  0  0  0  0  0  0
  185.5140  177.7080  143.2740 C   0  0  0  0  0  0  0  0  0  0  0  0
  188.6310  176.5730  144.5930 C   0  0  0  0  0  0  0  0  0  0  0  0
  185.6760  177.3850  146.3720 S   0  0  0  0  0  0  0  0  0  0  0  0
  183.0500  179.0350  143.2470 Cl  0  0  0  0  0  0  0  0  0  0  0  0
  187.0550  177.9470  145.3290 C   0  0  1  0  0  3  0  0  0  0  0  0
  188.2840  177.2380  145.6490 N   0  0  0  0  0  0  0  0  0  0  0  0
  187.7100  176.6800  143.5110 N   0  0  0  0  0  0  0  0  0  0  0  0
  191.0320  171.1510  142.6700 C   0  0  1  0  0  3  0  0  0  0  0  0
  192.1090  171.4830  141.7490 N   0  0  0  0  0  2  0  0  0  0  0  0
  192.9540  171.7600  143.9850 C   0  0  2  0  0  3  0  0  0  0  0  0
  193.3260  171.4510  142.5440 C   0  0  0  0  0  2  0  0  0  0  0  0
  191.4600  171.5580  144.0650 C   0  0  0  0  0  2  0  0  0  0  0  0
  188.8570  172.0310  143.1280 O   0  0  0  0  0  0  0  0  0  0  0  0
  189.7760  171.8560  142.2810 C   0  0  0  0  0  0  0  0  0  0  0  0
  189.6230  172.3200  140.9380 N   0  0  0  0  0  2  0  0  0  0  0  0
  188.4210  172.9930  140.4710 C   0  0  0  0  0  3  0  0  0  0  0  0
  188.2170  172.7240  138.9930 C   0  0  0  0  0  1  0  0  0  0  0  0
  188.5610  174.4850  140.6920 C   0  0  0  0  0  1  0  0  0  0  0  0
  194.0190  173.2260  145.6070 O   0  0  0  0  0  0  0  0  0  0  0  0
  195.1000  174.0880  145.3960 C   0  0  1  0  0  3  0  0  0  0  0  0
  194.8990  175.3540  146.2130 C   0  0  0  0  0  2  0  0  0  0  0  0
  194.8200  176.3980  144.0730 O   0  0  0  0  0  0  0  0  0  0  0  0
  194.8300  177.8550  145.8810 N   0  0  0  0  0  1  0  0  0  0  0  0
  194.8560  176.5470  145.3210 C   0  0  0  0  0  0  0  0  0  0  0  0
  196.3360  173.4310  145.8020 N   0  0  0  0  0  2  0  0  0  0  0  0
  197.9170  173.8430  143.8900 C   0  0  0  0  0  1  0  0  0  0  0  0
  197.6580  171.3230  144.8060 S   0  0  0  0  0  0  0  0  0  0  0  0
  197.3000  172.9200  144.8770 C   0  0  0  0  0  0  0  0  0  0  0  0
  1  4  1  0  0  0  0
  1 30  1  1  0  0  0
  2  6  1  0  0  0  0
  3  7  2  0  0  0  0
  3  4  1  0  0  0  0
  4  2  2  0  0  0  0
  5 13  1  0  0  0  0
  5  6  2  0  0  0  0
  7  5  1  0  0  0  0
  9 12  2  0  0  0  0
 10 14  1  0  0  0  0
 11 10  2  0  0  0  0
 12  8  1  0  0  0  0
 12 11  1  0  0  0  0
 13 17  2  0  0  0  0
 15 11  1  0  0  0  0
 16  8  1  6  0  0  0
 16 17  1  0  0  0  0
 16 14  1  0  0  0  0
 18  8  2  0  0  0  0
 18 13  1  0  0  0  0
 19 25  1  6  0  0  0
 19 23  1  0  0  0  0
 20 22  1  0  0  0  0
 20 19  1  0  0  0  0
 21 23  1  0  0  0  0
 21  1  1  6  0  0  0
 22 21  1  0  0  0  0
 25 24  2  0  0  0  0
 26 25  1  0  0  0  0
 27 29  1  0  0  0  0
 27 26  1  0  0  0  0
 28 27  1  0  0  0  0
 31 30  1  0  0  0  0
 31 36  1  0  0  0  0
 31 32  1  1  0  0  0
 33 35  2  0  0  0  0
 35 34  1  0  0  0  0
 35 32  1  0  0  0  0
 37 39  1  0  0  0  0
 38 39  2  0  0  0  0
 39 36  1  0  0  0  0
M  END
>  <MODEL>
3

>  <REMARK>
 VINA RESULT:      -6.3      3.704      8.649
  Name = 
  11 active torsions:
  status: ('A' for Active; 'I' for Inactive)
    1  A    between atoms: C_2  and  C_7
    2  A    between atoms: C_3  and  N_13
    3  A    between atoms: C_10  and  C_24
    4  A    between atoms: C_10  and  C_32
    5  A    between atoms: C_14  and  C_33
    6  A    between atoms: N_19  and  C_24
    7  A    between atoms: N_19  and  C_28
    8  A    between atoms: O_21  and  C_24
    9  A    between atoms: O_21  and  C_33
   10  A    between atoms: C_23  and  C_27
   11  A    between atoms: C_26  and  C_33
                            x       y       z     vdW  Elec       q    Type
                         _______ _______ _______ _____ _____    ______ ____

>  <TORSDO>
F 11

$$$$
=
 OpenBabel11042417323D

 39 42  0  0  1  0  0  0  0  0999 V2000
  189.5780  175.3690  144.6470 C   0  0  2  0  0  3  0  0  0  0  0  0
  190.4720  174.8150  142.3790 C   0  0  0  0  0  3  0  0  0  0  0  0
  189.2890  173.0880  143.5940 C   0  0  0  0  0  3  0  0  0  0  0  0
  189.7810  174.3990  143.5200 C   0  0  0  0  0  0  0  0  0  0  0  0
  190.1720  172.6200  141.3820 C   0  0  0  0  0  0  0  0  0  0  0  0
  190.6660  173.9310  141.3130 C   0  0  0  0  0  3  0  0  0  0  0  0
  189.4840  172.2040  142.5290 C   0  0  0  0  0  3  0  0  0  0  0  0
  190.5320  171.0160  138.2280 C   0  0  0  0  0  0  0  0  0  0  0  0
  190.4050  171.9230  136.0430 O   0  0  0  0  0  0  0  0  0  0  0  0
  192.1700  168.9640  137.0120 C   0  0  0  0  0  3  0  0  0  0  0  0
  191.5000  169.8160  136.2240 C   0  0  0  0  0  0  0  0  0  0  0  0
  190.7860  170.9800  136.7860 C   0  0  0  0  0  0  0  0  0  0  0  0
  190.3620  171.6880  140.2590 C   0  0  0  0  0  0  0  0  0  0  0  0
  192.4890  169.2770  138.7690 S   0  0  0  0  0  0  0  0  0  0  0  0
  191.3740  169.4560  134.5130 Cl  0  0  0  0  0  0  0  0  0  0  0  0
  190.7950  169.8460  139.1040 C   0  0  1  0  0  3  0  0  0  0  0  0
  190.6890  170.4450  140.4250 N   0  0  0  0  0  0  0  0  0  0  0  0
  190.2750  172.0880  138.8950 N   0  0  0  0  0  0  0  0  0  0  0  0
  192.3360  175.3370  146.8270 C   0  0  1  0  0  3  0  0  0  0  0  0
  191.4340  176.3920  147.2690 N   0  0  0  0  0  2  0  0  0  0  0  0
  190.1450  174.8320  145.9670 C   0  0  2  0  0  3  0  0  0  0  0  0
  190.0920  175.8610  147.0840 C   0  0  0  0  0  2  0  0  0  0  0  0
  191.6060  174.4880  145.8070 C   0  0  0  0  0  2  0  0  0  0  0  0
  194.1610  176.8810  146.8080 O   0  0  0  0  0  0  0  0  0  0  0  0
  193.5730  175.9230  146.2340 C   0  0  0  0  0  0  0  0  0  0  0  0
  194.0770  175.3940  145.0060 N   0  0  0  0  0  2  0  0  0  0  0  0
  195.2610  175.9250  144.3490 C   0  0  0  0  0  3  0  0  0  0  0  0
  195.0140  176.0530  142.8580 C   0  0  0  0  0  1  0  0  0  0  0  0
  196.4280  174.9890  144.5820 C   0  0  0  0  0  1  0  0  0  0  0  0
  188.2270  175.7330  144.7740 O   0  0  0  0  0  0  0  0  0  0  0  0
  188.1120  176.9790  144.1490 C   0  0  1  0  0  3  0  0  0  0  0  0
  187.1660  176.8610  142.9650 C   0  0  0  0  0  2  0  0  0  0  0  0
  186.9510  177.8310  140.7990 O   0  0  0  0  0  0  0  0  0  0  0  0
  188.9780  178.2270  141.8600 N   0  0  0  0  0  1  0  0  0  0  0  0
  187.6780  177.6530  141.8100 C   0  0  0  0  0  0  0  0  0  0  0  0
  187.5930  177.9560  145.0980 N   0  0  0  0  0  2  0  0  0  0  0  0
  185.6390  179.4920  144.7180 C   0  0  0  0  0  1  0  0  0  0  0  0
  185.2290  177.2430  146.1400 S   0  0  0  0  0  0  0  0  0  0  0  0
  186.1990  178.2310  145.2660 C   0  0  0  0  0  0  0  0  0  0  0  0
  1 30  1  1  0  0  0
  2  4  1  0  0  0  0
  4  3  2  0  0  0  0
  4  1  1  0  0  0  0
  5  7  2  0  0  0  0
  6  5  1  0  0  0  0
  6  2  2  0  0  0  0
  7  3  1  0  0  0  0
  8 18  2  0  0  0  0
  9 12  2  0  0  0  0
 10 14  1  0  0  0  0
 11 12  1  0  0  0  0
 11 10  2  0  0  0  0
 12  8  1  0  0  0  0
 13 17  2  0  0  0  0
 13  5  1  0  0  0  0
 14 16  1  0  0  0  0
 15 11  1  0  0  0  0
 16  8  1  6  0  0  0
 16 17  1  0  0  0  0
 18 13  1  0  0  0  0
 19 25  1  6  0  0  0
 19 20  1  0  0  0  0
 21  1  1  6  0  0  0
 21 22  1  0  0  0  0
 22 20  1  0  0  0  0
 23 21  1  0  0  0  0
 23 19  1  0  0  0  0
 25 24  2  0  0  0  0
 26 25  1  0  0  0  0
 27 29  1  0  0  0  0
 27 26  1  0  0  0  0
 28 27  1  0  0  0  0
 31 32  1  6  0  0  0
 31 30  1  0  0  0  0
 31 36  1  0  0  0  0
 33 35  2  0  0  0  0
 35 34  1  0  0  0  0
 35 32  1  0  0  0  0
 36 39  1  0  0  0  0
 37 39  1  0  0  0  0
 39 38  2  0  0  0  0
M  END
>  <MODEL>
4

>  <REMARK>
 VINA RESULT:      -6.3      1.918      2.329
  Name = 
  11 active torsions:
  status: ('A' for Active; 'I' for Inactive)
    1  A    between atoms: C_2  and  C_7
    2  A    between atoms: C_3  and  N_13
    3  A    between atoms: C_10  and  C_24
    4  A    between atoms: C_10  and  C_32
    5  A    between atoms: C_14  and  C_33
    6  A    between atoms: N_19  and  C_24
    7  A    between atoms: N_19  and  C_28
    8  A    between atoms: O_21  and  C_24
    9  A    between atoms: O_21  and  C_33
   10  A    between atoms: C_23  and  C_27
   11  A    between atoms: C_26  and  C_33
                            x       y       z     vdW  Elec       q    Type
                         _______ _______ _______ _____ _____    ______ ____

>  <TORSDO>
F 11

$$$$
=
 OpenBabel11042417323D

 39 42  0  0  1  0  0  0  0  0999 V2000
  188.6520  176.9290  144.4680 C   0  0  2  0  0  3  0  0  0  0  0  0
  189.2390  175.6710  142.3880 C   0  0  0  0  0  3  0  0  0  0  0  0
  189.2940  174.4820  144.4960 C   0  0  0  0  0  3  0  0  0  0  0  0
  189.0710  175.6650  143.7750 C   0  0  0  0  0  0  0  0  0  0  0  0
  189.8400  173.3180  142.4380 C   0  0  0  0  0  0  0  0  0  0  0  0
  189.6200  174.5020  141.7210 C   0  0  0  0  0  3  0  0  0  0  0  0
  189.6760  173.3160  143.8280 C   0  0  0  0  0  3  0  0  0  0  0  0
  190.8520  170.8100  140.1280 C   0  0  0  0  0  0  0  0  0  0  0  0
  191.3610  170.9900  137.8210 O   0  0  0  0  0  0  0  0  0  0  0  0
  192.5670  168.4800  140.0690 C   0  0  0  0  0  3  0  0  0  0  0  0
  192.1930  169.0440  138.9120 C   0  0  0  0  0  0  0  0  0  0  0  0
  191.4610  170.3250  138.8860 C   0  0  0  0  0  0  0  0  0  0  0  0
  190.2300  172.0810  141.7400 C   0  0  0  0  0  0  0  0  0  0  0  0
  192.4550  169.3250  141.6680 S   0  0  0  0  0  0  0  0  0  0  0  0
  192.4750  168.1690  137.4200 Cl  0  0  0  0  0  0  0  0  0  0  0  0
  190.7850  169.9710  141.3510 C   0  0  1  0  0  3  0  0  0  0  0  0
  190.3990  170.9520  142.3530 N   0  0  0  0  0  0  0  0  0  0  0  0
  190.5260  172.0370  140.3480 N   0  0  0  0  0  0  0  0  0  0  0  0
  191.9690  176.8170  145.6290 C   0  0  1  0  0  3  0  0  0  0  0  0
  192.0100  176.9660  144.1810 N   0  0  0  0  0  2  0  0  0  0  0  0
  189.8630  177.7490  144.9300 C   0  0  2  0  0  3  0  0  0  0  0  0
  190.9250  177.8760  143.8510 C   0  0  0  0  0  2  0  0  0  0  0  0
  190.5470  177.0650  146.0880 C   0  0  0  0  0  2  0  0  0  0  0  0
  192.2850  175.0590  147.2180 O   0  0  0  0  0  0  0  0  0  0  0  0
  192.4170  175.4500  146.0260 C   0  0  0  0  0  0  0  0  0  0  0  0
  193.0050  174.5950  145.0430 N   0  0  0  0  0  2  0  0  0  0  0  0
  193.4920  173.2600  145.3540 C   0  0  0  0  0  3  0  0  0  0  0  0
  194.9850  173.2990  145.6130 C   0  0  0  0  0  1  0  0  0  0  0  0
  193.2120  172.3390  144.1850 C   0  0  0  0  0  1  0  0  0  0  0  0
  187.7700  176.6650  145.5290 O   0  0  0  0  0  0  0  0  0  0  0  0
  186.4850  176.7900  144.9890 C   0  0  1  0  0  3  0  0  0  0  0  0
  185.4650  176.7760  146.1170 C   0  0  0  0  0  2  0  0  0  0  0  0
  184.3470  178.8600  146.4090 O   0  0  0  0  0  0  0  0  0  0  0  0
  186.2970  178.6050  147.6440 N   0  0  0  0  0  1  0  0  0  0  0  0
  185.3300  178.1350  146.7130 C   0  0  0  0  0  0  0  0  0  0  0  0
  186.3850  178.0420  144.2510 N   0  0  0  0  0  2  0  0  0  0  0  0
  186.6230  178.2470  141.7560 C   0  0  0  0  0  1  0  0  0  0  0  0
  184.1430  178.2910  142.8040 S   0  0  0  0  0  0  0  0  0  0  0  0
  185.7670  178.1540  142.9660 C   0  0  0  0  0  0  0  0  0  0  0  0
  1 30  1  1  0  0  0
  2  4  1  0  0  0  0
  4  1  1  0  0  0  0
  4  3  2  0  0  0  0
  5  7  2  0  0  0  0
  6  2  2  0  0  0  0
  6  5  1  0  0  0  0
  7  3  1  0  0  0  0
  8 18  2  0  0  0  0
  9 12  2  0  0  0  0
 10 14  1  0  0  0  0
 11 10  2  0  0  0  0
 12 11  1  0  0  0  0
 12  8  1  0  0  0  0
 13 17  2  0  0  0  0
 13  5  1  0  0  0  0
 15 11  1  0  0  0  0
 16  8  1  6  0  0  0
 16 14  1  0  0  0  0
 16 17  1  0  0  0  0
 18 13  1  0  0  0  0
 19 25  1  6  0  0  0
 19 23  1  0  0  0  0
 20 19  1  0  0  0  0
 21  1  1  6  0  0  0
 21 23  1  0  0  0  0
 22 20  1  0  0  0  0
 22 21  1  0  0  0  0
 25 24  2  0  0  0  0
 26 27  1  0  0  0  0
 26 25  1  0  0  0  0
 27 28  1  0  0  0  0
 29 27  1  0  0  0  0
 31 30  1  0  0  0  0
 31 32  1  1  0  0  0
 32 35  1  0  0  0  0
 33 35  2  0  0  0  0
 35 34  1  0  0  0  0
 36 31  1  0  0  0  0
 37 39  1  0  0  0  0
 38 39  2  0  0  0  0
 39 36  1  0  0  0  0
M  END
>  <MODEL>
5

>  <REMARK>
 VINA RESULT:      -6.2      2.209      3.157
  Name = 
  11 active torsions:
  status: ('A' for Active; 'I' for Inactive)
    1  A    between atoms: C_2  and  C_7
    2  A    between atoms: C_3  and  N_13
    3  A    between atoms: C_10  and  C_24
    4  A    between atoms: C_10  and  C_32
    5  A    between atoms: C_14  and  C_33
    6  A    between atoms: N_19  and  C_24
    7  A    between atoms: N_19  and  C_28
    8  A    between atoms: O_21  and  C_24
    9  A    between atoms: O_21  and  C_33
   10  A    between atoms: C_23  and  C_27
   11  A    between atoms: C_26  and  C_33
                            x       y       z     vdW  Elec       q    Type
                         _______ _______ _______ _____ _____    ______ ____

>  <TORSDO>
F 11

$$$$
=
 OpenBabel11042417323D

 39 42  0  0  1  0  0  0  0  0999 V2000
  188.1570  176.5810  144.6240 C   0  0  2  0  0  3  0  0  0  0  0  0
  187.7610  174.7610  142.9550 C   0  0  0  0  0  3  0  0  0  0  0  0
  189.9340  175.8280  142.9880 C   0  0  0  0  0  3  0  0  0  0  0  0
  188.6330  175.7090  143.4980 C   0  0  0  0  0  0  0  0  0  0  0  0
  189.4870  174.0460  141.4020 C   0  0  0  0  0  0  0  0  0  0  0  0
  188.1860  173.9320  141.9120 C   0  0  0  0  0  3  0  0  0  0  0  0
  190.3570  174.9990  141.9450 C   0  0  0  0  0  3  0  0  0  0  0  0
  191.1940  172.4330  138.7310 C   0  0  0  0  0  0  0  0  0  0  0  0
  193.2090  173.0330  137.6370 O   0  0  0  0  0  0  0  0  0  0  0  0
  191.8180  169.7430  137.8650 C   0  0  0  0  0  3  0  0  0  0  0  0
  192.5230  170.7690  137.3670 C   0  0  0  0  0  0  0  0  0  0  0  0
  192.3620  172.1380  137.8960 C   0  0  0  0  0  0  0  0  0  0  0  0
  189.9440  173.1680  140.3120 C   0  0  0  0  0  0  0  0  0  0  0  0
  190.8140  169.8650  139.3680 S   0  0  0  0  0  0  0  0  0  0  0  0
  193.5580  170.4840  135.9810 Cl  0  0  0  0  0  0  0  0  0  0  0  0
  190.0830  171.4630  138.9020 C   0  0  1  0  0  3  0  0  0  0  0  0
  189.3520  172.0550  140.0110 N   0  0  0  0  0  0  0  0  0  0  0  0
  191.1160  173.4280  139.5460 N   0  0  0  0  0  0  0  0  0  0  0  0
  190.8470  175.3310  146.5120 C   0  0  1  0  0  3  0  0  0  0  0  0
  190.7750  176.7680  146.7390 N   0  0  0  0  0  2  0  0  0  0  0  0
  188.6080  176.0430  145.9870 C   0  0  2  0  0  3  0  0  0  0  0  0
  189.3570  177.0830  146.8040 C   0  0  0  0  0  2  0  0  0  0  0  0
  189.5780  174.9010  145.8040 C   0  0  0  0  0  2  0  0  0  0  0  0
  192.2890  173.7910  145.3890 O   0  0  0  0  0  0  0  0  0  0  0  0
  192.0460  174.9910  145.6910 C   0  0  0  0  0  0  0  0  0  0  0  0
  192.9170  176.0390  145.2620 N   0  0  0  0  0  2  0  0  0  0  0  0
  194.1200  175.7900  144.4820 C   0  0  0  0  0  3  0  0  0  0  0  0
  195.2140  176.7570  144.8930 C   0  0  0  0  0  1  0  0  0  0  0  0
  193.8140  175.9790  143.0110 C   0  0  0  0  0  1  0  0  0  0  0  0
  186.7660  176.7690  144.5740 O   0  0  0  0  0  0  0  0  0  0  0  0
  186.5740  177.9970  143.9330 C   0  0  1  0  0  3  0  0  0  0  0  0
  185.4420  177.8660  142.9270 C   0  0  0  0  0  2  0  0  0  0  0  0
  185.1630  178.2930  140.6000 O   0  0  0  0  0  0  0  0  0  0  0  0
  187.3520  177.9230  141.2790 N   0  0  0  0  0  1  0  0  0  0  0  0
  185.9580  178.0330  141.5390 C   0  0  0  0  0  0  0  0  0  0  0  0
  186.2410  179.0170  144.9200 N   0  0  0  0  0  2  0  0  0  0  0  0
  183.9880  178.6660  145.9810 C   0  0  0  0  0  1  0  0  0  0  0  0
  186.1580  178.6630  147.5750 S   0  0  0  0  0  0  0  0  0  0  0  0
  185.4660  178.7560  146.0940 C   0  0  0  0  0  0  0  0  0  0  0  0
  1 30  1  1  0  0  0
  2  4  1  0  0  0  0
  3  4  2  0  0  0  0
  4  1  1  0  0  0  0
  5  6  1  0  0  0  0
  5  7  2  0  0  0  0
  6  2  2  0  0  0  0
  7  3  1  0  0  0  0
  8 18  2  0  0  0  0
  9 12  2  0  0  0  0
 10 14  1  0  0  0  0
 11 10  2  0  0  0  0
 11 12  1  0  0  0  0
 12  8  1  0  0  0  0
 13  5  1  0  0  0  0
 15 11  1  0  0  0  0
 16  8  1  1  0  0  0
 16 14  1  0  0  0  0
 16 17  1  0  0  0  0
 17 13  2  0  0  0  0
 18 13  1  0  0  0  0
 19 25  1  6  0  0  0
 19 20  1  0  0  0  0
 20 22  1  0  0  0  0
 21  1  1  6  0  0  0
 21 22  1  0  0  0  0
 23 21  1  0  0  0  0
 23 19  1  0  0  0  0
 24 25  2  0  0  0  0
 26 25  1  0  0  0  0
 27 28  1  0  0  0  0
 27 26  1  0  0  0  0
 29 27  1  0  0  0  0
 31 32  1  6  0  0  0
 31 30  1  0  0  0  0
 31 36  1  0  0  0  0
 33 35  2  0  0  0  0
 34 35  1  0  0  0  0
 35 32  1  0  0  0  0
 36 39  1  0  0  0  0
 37 39  1  0  0  0  0
 39 38  2  0  0  0  0
M  END
>  <MODEL>
6

>  <REMARK>
 VINA RESULT:      -6.1      1.718      2.033
  Name = 
  11 active torsions:
  status: ('A' for Active; 'I' for Inactive)
    1  A    between atoms: C_2  and  C_7
    2  A    between atoms: C_3  and  N_13
    3  A    between atoms: C_10  and  C_24
    4  A    between atoms: C_10  and  C_32
    5  A    between atoms: C_14  and  C_33
    6  A    between atoms: N_19  and  C_24
    7  A    between atoms: N_19  and  C_28
    8  A    between atoms: O_21  and  C_24
    9  A    between atoms: O_21  and  C_33
   10  A    between atoms: C_23  and  C_27
   11  A    between atoms: C_26  and  C_33
                            x       y       z     vdW  Elec       q    Type
                         _______ _______ _______ _____ _____    ______ ____

>  <TORSDO>
F 11

$$$$
=
 OpenBabel11042417323D

 39 42  0  0  1  0  0  0  0  0999 V2000
  188.7710  177.7470  144.1600 C   0  0  2  0  0  3  0  0  0  0  0  0
  189.9840  175.9870  142.8620 C   0  0  0  0  0  3  0  0  0  0  0  0
  191.2740  177.8100  143.7970 C   0  0  0  0  0  3  0  0  0  0  0  0
  190.0400  177.1750  143.5960 C   0  0  0  0  0  0  0  0  0  0  0  0
  192.3910  176.0620  142.5370 C   0  0  0  0  0  0  0  0  0  0  0  0
  191.1550  175.4310  142.3350 C   0  0  0  0  0  3  0  0  0  0  0  0
  192.4430  177.2540  143.2690 C   0  0  0  0  0  3  0  0  0  0  0  0
  194.9680  174.6210  140.5550 C   0  0  0  0  0  0  0  0  0  0  0  0
  194.9560  174.0050  138.2660 O   0  0  0  0  0  0  0  0  0  0  0  0
  197.8330  174.8500  140.2210 C   0  0  0  0  0  3  0  0  0  0  0  0
  197.1070  174.2760  139.2510 C   0  0  0  0  0  0  0  0  0  0  0  0
  195.6320  174.2820  139.2930 C   0  0  0  0  0  0  0  0  0  0  0  0
  193.6280  175.4750  141.9950 C   0  0  0  0  0  0  0  0  0  0  0  0
  197.1130  175.8950  141.5140 S   0  0  0  0  0  0  0  0  0  0  0  0
  197.9410  173.3970  137.9840 Cl  0  0  0  0  0  0  0  0  0  0  0  0
  195.7210  174.7670  141.8260 C   0  0  1  0  0  3  0  0  0  0  0  0
  194.7220  175.3840  142.6830 N   0  0  0  0  0  0  0  0  0  0  0  0
  193.7490  175.0270  140.6500 N   0  0  0  0  0  0  0  0  0  0  0  0
  189.2220  175.5780  146.8890 C   0  0  1  0  0  3  0  0  0  0  0  0
  188.8380  176.8800  147.4160 N   0  0  0  0  0  2  0  0  0  0  0  0
  188.0930  176.7740  145.1310 C   0  0  2  0  0  3  0  0  0  0  0  0
  187.8380  177.3950  146.4940 C   0  0  0  0  0  2  0  0  0  0  0  0
  188.9890  175.5870  145.3930 C   0  0  0  0  0  2  0  0  0  0  0  0
  191.0600  175.2910  148.3910 O   0  0  0  0  0  0  0  0  0  0  0  0
  190.6540  175.2930  147.1960 C   0  0  0  0  0  0  0  0  0  0  0  0
  191.5590  175.0320  146.1220 N   0  0  0  0  0  2  0  0  0  0  0  0
  192.9740  174.7710  146.3330 C   0  0  0  0  0  3  0  0  0  0  0  0
  193.7740  176.0420  146.1190 C   0  0  0  0  0  1  0  0  0  0  0  0
  193.4430  173.7160  145.3530 C   0  0  0  0  0  1  0  0  0  0  0  0
  187.8960  178.1560  143.1400 O   0  0  0  0  0  0  0  0  0  0  0  0
  186.6150  177.8120  143.5840 C   0  0  1  0  0  3  0  0  0  0  0  0
  185.8340  179.0800  143.8900 C   0  0  0  0  0  2  0  0  0  0  0  0
  183.4510  179.0430  143.8770 O   0  0  0  0  0  0  0  0  0  0  0  0
  184.4420  178.0630  145.7340 N   0  0  0  0  0  1  0  0  0  0  0  0
  184.5100  178.7440  144.4870 C   0  0  0  0  0  0  0  0  0  0  0  0
  185.9270  177.0490  142.5500 N   0  0  0  0  0  2  0  0  0  0  0  0
  187.0620  177.1470  140.3080 C   0  0  0  0  0  1  0  0  0  0  0  0
  184.6360  178.2900  140.5560 S   0  0  0  0  0  0  0  0  0  0  0  0
  185.8910  177.4380  141.1740 C   0  0  0  0  0  0  0  0  0  0  0  0
  1 30  1  6  0  0  0
  2  4  1  0  0  0  0
  4  3  2  0  0  0  0
  4  1  1  0  0  0  0
  5  7  2  0  0  0  0
  6  5  1  0  0  0  0
  6  2  2  0  0  0  0
  7  3  1  0  0  0  0
  8 18  2  0  0  0  0
  9 12  2  0  0  0  0
 10 14  1  0  0  0  0
 11 12  1  0  0  0  0
 11 10  2  0  0  0  0
 12  8  1  0  0  0  0
 13  5  1  0  0  0  0
 13 17  2  0  0  0  0
 14 16  1  0  0  0  0
 15 11  1  0  0  0  0
 16  8  1  6  0  0  0
 16 17  1  0  0  0  0
 18 13  1  0  0  0  0
 19 25  1  6  0  0  0
 19 20  1  0  0  0  0
 21  1  1  6  0  0  0
 21 23  1  0  0  0  0
 21 22  1  0  0  0  0
 22 20  1  0  0  0  0
 23 19  1  0  0  0  0
 25 24  2  0  0  0  0
 26 27  1  0  0  0  0
 26 25  1  0  0  0  0
 28 27  1  0  0  0  0
 29 27  1  0  0  0  0
 30 31  1  0  0  0  0
 31 32  1  6  0  0  0
 32 35  1  0  0  0  0
 33 35  2  0  0  0  0
 35 34  1  0  0  0  0
 36 31  1  0  0  0  0
 37 39  1  0  0  0  0
 38 39  2  0  0  0  0
 39 36  1  0  0  0  0
M  END
>  <MODEL>
7

>  <REMARK>
 VINA RESULT:      -6.1      3.398      4.269
  Name = 
  11 active torsions:
  status: ('A' for Active; 'I' for Inactive)
    1  A    between atoms: C_2  and  C_7
    2  A    between atoms: C_3  and  N_13
    3  A    between atoms: C_10  and  C_24
    4  A    between atoms: C_10  and  C_32
    5  A    between atoms: C_14  and  C_33
    6  A    between atoms: N_19  and  C_24
    7  A    between atoms: N_19  and  C_28
    8  A    between atoms: O_21  and  C_24
    9  A    between atoms: O_21  and  C_33
   10  A    between atoms: C_23  and  C_27
   11  A    between atoms: C_26  and  C_33
                            x       y       z     vdW  Elec       q    Type
                         _______ _______ _______ _____ _____    ______ ____

>  <TORSDO>
F 11

$$$$
=
 OpenBabel11042417323D

 39 42  0  0  1  0  0  0  0  0999 V2000
  193.7140  172.9230  144.2310 C   0  0  2  0  0  3  0  0  0  0  0  0
  192.4150  174.5050  142.7940 C   0  0  0  0  0  3  0  0  0  0  0  0
  191.4570  173.8390  144.9150 C   0  0  0  0  0  3  0  0  0  0  0  0
  192.5000  173.7710  143.9810 C   0  0  0  0  0  0  0  0  0  0  0  0
  190.2540  175.3810  143.4780 C   0  0  0  0  0  0  0  0  0  0  0  0
  191.2970  175.3080  142.5440 C   0  0  0  0  0  3  0  0  0  0  0  0
  190.3410  174.6410  144.6630 C   0  0  0  0  0  3  0  0  0  0  0  0
  187.4740  177.1480  142.1370 C   0  0  0  0  0  0  0  0  0  0  0  0
  186.5910  177.1420  139.9380 O   0  0  0  0  0  0  0  0  0  0  0  0
  184.8040  177.9220  142.9390 C   0  0  0  0  0  3  0  0  0  0  0  0
  185.1230  177.9330  141.6370 C   0  0  0  0  0  0  0  0  0  0  0  0
  186.4100  177.3910  141.1590 C   0  0  0  0  0  0  0  0  0  0  0  0
  189.0810  176.2340  143.2260 C   0  0  0  0  0  0  0  0  0  0  0  0
  185.7660  177.0310  144.1900 S   0  0  0  0  0  0  0  0  0  0  0  0
  184.0360  178.7240  140.5120 Cl  0  0  0  0  0  0  0  0  0  0  0  0
  187.3670  177.6030  143.5460 C   0  0  1  0  0  3  0  0  0  0  0  0
  188.4720  176.8870  144.1640 N   0  0  0  0  0  0  0  0  0  0  0  0
  188.4710  176.3550  141.9440 N   0  0  0  0  0  0  0  0  0  0  0  0
  191.9840  170.2410  142.7580 C   0  0  1  0  0  3  0  0  0  0  0  0
  193.3550  170.2090  142.2660 N   0  0  0  0  0  2  0  0  0  0  0  0
  193.3540  171.4360  144.3350 C   0  0  2  0  0  3  0  0  0  0  0  0
  194.1860  170.5710  143.4030 C   0  0  0  0  0  2  0  0  0  0  0  0
  191.9210  171.2140  143.9160 C   0  0  0  0  0  2  0  0  0  0  0  0
  190.9440  169.9620  140.6240 O   0  0  0  0  0  0  0  0  0  0  0  0
  191.0500  170.6570  141.6710 C   0  0  0  0  0  0  0  0  0  0  0  0
  190.2860  171.8540  141.8280 N   0  0  0  0  0  2  0  0  0  0  0  0
  189.3730  172.3430  140.8060 C   0  0  0  0  0  3  0  0  0  0  0  0
  190.0720  173.3680  139.9350 C   0  0  0  0  0  1  0  0  0  0  0  0
  188.1740  172.9860  141.4700 C   0  0  0  0  0  1  0  0  0  0  0  0
  194.4240  173.3650  145.3600 O   0  0  0  0  0  0  0  0  0  0  0  0
  194.8440  174.6640  145.0550 C   0  0  1  0  0  3  0  0  0  0  0  0
  194.7430  175.5290  146.3010 C   0  0  0  0  0  2  0  0  0  0  0  0
  192.8020  176.5820  147.1980 O   0  0  0  0  0  0  0  0  0  0  0  0
  193.3190  177.1650  145.0110 N   0  0  0  0  0  1  0  0  0  0  0  0
  193.5660  176.4390  146.2080 C   0  0  0  0  0  0  0  0  0  0  0  0
  196.2240  174.6350  144.5880 N   0  0  0  0  0  2  0  0  0  0  0  0
  196.3540  176.4260  142.8280 C   0  0  0  0  0  1  0  0  0  0  0  0
  197.2660  173.9690  142.2100 S   0  0  0  0  0  0  0  0  0  0  0  0
  196.6220  175.0350  143.2730 C   0  0  0  0  0  0  0  0  0  0  0  0
  1 30  1  1  0  0  0
  2  4  1  0  0  0  0
  4  1  1  0  0  0  0
  4  3  2  0  0  0  0
  5  7  2  0  0  0  0
  6  2  2  0  0  0  0
  6  5  1  0  0  0  0
  7  3  1  0  0  0  0
  9 12  2  0  0  0  0
 10 14  1  0  0  0  0
 11 10  2  0  0  0  0
 12 11  1  0  0  0  0
 12  8  1  0  0  0  0
 13  5  1  0  0  0  0
 13 17  2  0  0  0  0
 15 11  1  0  0  0  0
 16  8  1  6  0  0  0
 16 17  1  0  0  0  0
 16 14  1  0  0  0  0
 18  8  2  0  0  0  0
 18 13  1  0  0  0  0
 19 25  1  6  0  0  0
 19 23  1  0  0  0  0
 20 19  1  0  0  0  0
 20 22  1  0  0  0  0
 21  1  1  6  0  0  0
 22 21  1  0  0  0  0
 23 21  1  0  0  0  0
 24 25  2  0  0  0  0
 25 26  1  0  0  0  0
 27 29  1  0  0  0  0
 27 26  1  0  0  0  0
 28 27  1  0  0  0  0
 31 30  1  0  0  0  0
 31 32  1  1  0  0  0
 34 35  1  0  0  0  0
 35 32  1  0  0  0  0
 35 33  2  0  0  0  0
 36 31  1  0  0  0  0
 37 39  1  0  0  0  0
 38 39  2  0  0  0  0
 39 36  1  0  0  0  0
M  END
>  <MODEL>
8

>  <REMARK>
 VINA RESULT:      -6.0      3.367      7.939
  Name = 
  11 active torsions:
  status: ('A' for Active; 'I' for Inactive)
    1  A    between atoms: C_2  and  C_7
    2  A    between atoms: C_3  and  N_13
    3  A    between atoms: C_10  and  C_24
    4  A    between atoms: C_10  and  C_32
    5  A    between atoms: C_14  and  C_33
    6  A    between atoms: N_19  and  C_24
    7  A    between atoms: N_19  and  C_28
    8  A    between atoms: O_21  and  C_24
    9  A    between atoms: O_21  and  C_33
   10  A    between atoms: C_23  and  C_27
   11  A    between atoms: C_26  and  C_33
                            x       y       z     vdW  Elec       q    Type
                         _______ _______ _______ _____ _____    ______ ____

>  <TORSDO>
F 11

$$$$
=
 OpenBabel11042417323D

 39 42  0  0  1  0  0  0  0  0999 V2000
  193.7420  172.9410  144.0410 C   0  0  2  0  0  3  0  0  0  0  0  0
  191.5170  173.4920  145.0400 C   0  0  0  0  0  3  0  0  0  0  0  0
  192.0990  174.5010  142.9170 C   0  0  0  0  0  3  0  0  0  0  0  0
  192.4270  173.6630  143.9930 C   0  0  0  0  0  0  0  0  0  0  0  0
  189.9490  174.9850  143.9360 C   0  0  0  0  0  0  0  0  0  0  0  0
  190.2820  174.1490  145.0110 C   0  0  0  0  0  3  0  0  0  0  0  0
  190.8650  175.1580  142.8910 C   0  0  0  0  0  3  0  0  0  0  0  0
  186.8970  176.6780  144.6190 C   0  0  0  0  0  0  0  0  0  0  0  0
  185.9770  177.3680  146.6900 O   0  0  0  0  0  0  0  0  0  0  0  0
  185.2920  178.8010  143.4830 C   0  0  0  0  0  3  0  0  0  0  0  0
  185.0910  178.4420  144.7580 C   0  0  0  0  0  0  0  0  0  0  0  0
  185.9890  177.4860  145.4360 C   0  0  0  0  0  0  0  0  0  0  0  0
  188.6460  175.6690  143.8940 C   0  0  0  0  0  0  0  0  0  0  0  0
  186.7890  178.3730  142.5550 S   0  0  0  0  0  0  0  0  0  0  0  0
  183.6600  179.0320  145.5820 Cl  0  0  0  0  0  0  0  0  0  0  0  0
  186.8090  176.6510  143.1370 C   0  0  1  0  0  3  0  0  0  0  0  0
  188.0550  175.9880  142.7860 N   0  0  0  0  0  0  0  0  0  0  0  0
  187.9610  176.1040  145.0640 N   0  0  0  0  0  0  0  0  0  0  0  0
  192.3660  170.3110  142.1560 C   0  0  1  0  0  3  0  0  0  0  0  0
  193.7390  170.5050  141.7110 N   0  0  0  0  0  2  0  0  0  0  0  0
  193.5580  171.4230  143.9280 C   0  0  2  0  0  3  0  0  0  0  0  0
  194.5020  170.7970  142.9140 C   0  0  0  0  0  2  0  0  0  0  0  0
  192.1690  171.0990  143.4350 C   0  0  0  0  0  2  0  0  0  0  0  0
  191.4030  170.2170  139.9700 O   0  0  0  0  0  0  0  0  0  0  0  0
  191.4080  170.7660  141.1060 C   0  0  0  0  0  0  0  0  0  0  0  0
  190.5070  171.8350  141.4000 N   0  0  0  0  0  2  0  0  0  0  0  0
  189.5610  172.3550  140.4250 C   0  0  0  0  0  3  0  0  0  0  0  0
  190.2010  173.4740  139.6260 C   0  0  0  0  0  1  0  0  0  0  0  0
  188.3410  172.8910  141.1440 C   0  0  0  0  0  1  0  0  0  0  0  0
  194.4770  173.2900  145.1860 O   0  0  0  0  0  0  0  0  0  0  0  0
  194.9650  174.5780  144.9420 C   0  0  1  0  0  3  0  0  0  0  0  0
  194.8180  175.4160  146.2020 C   0  0  0  0  0  2  0  0  0  0  0  0
  192.8810  176.7130  145.7080 O   0  0  0  0  0  0  0  0  0  0  0  0
  194.8640  177.9130  145.8380 N   0  0  0  0  0  1  0  0  0  0  0  0
  194.1250  176.6990  145.8950 C   0  0  0  0  0  0  0  0  0  0  0  0
  196.3690  174.5060  144.5590 N   0  0  0  0  0  2  0  0  0  0  0  0
  197.3140  174.0210  142.2800 C   0  0  0  0  0  1  0  0  0  0  0  0
  197.0800  176.5950  143.0380 S   0  0  0  0  0  0  0  0  0  0  0  0
  196.8740  174.9930  143.3130 C   0  0  0  0  0  0  0  0  0  0  0  0
  1 30  1  1  0  0  0
  3  4  1  0  0  0  0
  4  1  1  0  0  0  0
  4  2  2  0  0  0  0
  5  6  2  0  0  0  0
  6  2  1  0  0  0  0
  7  3  2  0  0  0  0
  7  5  1  0  0  0  0
  8 18  2  0  0  0  0
  8 12  1  0  0  0  0
 10 11  2  0  0  0  0
 11 12  1  0  0  0  0
 11 15  1  0  0  0  0
 12  9  2  0  0  0  0
 13  5  1  0  0  0  0
 13 18  1  0  0  0  0
 14 10  1  0  0  0  0
 16 14  1  6  0  0  0
 16  8  1  0  0  0  0
 17 16  1  0  0  0  0
 17 13  2  0  0  0  0
 19 25  1  6  0  0  0
 19 23  1  0  0  0  0
 20 19  1  0  0  0  0
 20 22  1  0  0  0  0
 21  1  1  6  0  0  0
 22 21  1  0  0  0  0
 23 21  1  0  0  0  0
 24 25  2  0  0  0  0
 25 26  1  0  0  0  0
 27 29  1  0  0  0  0
 27 26  1  0  0  0  0
 28 27  1  0  0  0  0
 31 30  1  0  0  0  0
 31 32  1  1  0  0  0
 33 35  2  0  0  0  0
 34 35  1  0  0  0  0
 35 32  1  0  0  0  0
 36 31  1  0  0  0  0
 37 39  1  0  0  0  0
 38 39  2  0  0  0  0
 39 36  1  0  0  0  0
M  END
>  <MODEL>
9

>  <REMARK>
 VINA RESULT:      -6.0      3.770      8.494
  Name = 
  11 active torsions:
  status: ('A' for Active; 'I' for Inactive)
    1  A    between atoms: C_2  and  C_7
    2  A    between atoms: C_3  and  N_13
    3  A    between atoms: C_10  and  C_24
    4  A    between atoms: C_10  and  C_32
    5  A    between atoms: C_14  and  C_33
    6  A    between atoms: N_19  and  C_24
    7  A    between atoms: N_19  and  C_28
    8  A    between atoms: O_21  and  C_24
    9  A    between atoms: O_21  and  C_33
   10  A    between atoms: C_23  and  C_27
   11  A    between atoms: C_26  and  C_33
                            x       y       z     vdW  Elec       q    Type
                         _______ _______ _______ _____ _____    ______ ____

>  <TORSDO>
F 11

$$$$
