=
 OpenBabel11042414193D

 27 30  0  0  1  0  0  0  0  0999 V2000
  189.7730  172.8220  143.1890 C   0  0  0  0  0  3  0  0  0  0  0  0
  188.6550  172.5730  142.3870 C   0  0  0  0  0  3  0  0  0  0  0  0
  187.8170  173.6250  142.0060 C   0  0  0  0  0  3  0  0  0  0  0  0
  188.0990  174.9300  142.4210 C   0  0  0  0  0  0  0  0  0  0  0  0
  189.2240  175.1830  143.2300 C   0  0  0  0  0  0  0  0  0  0  0  0
  189.5390  176.5820  143.6910 C   0  0  2  0  0  3  0  0  0  0  0  0
  187.2350  175.9700  142.0610 O   0  0  0  0  0  0  0  0  0  0  0  0
  187.5640  177.3410  142.2810 C   0  0  0  0  0  2  0  0  0  0  0  0
  190.0560  174.1240  143.6100 C   0  0  0  0  0  3  0  0  0  0  0  0
  188.3320  177.5270  143.5950 C   0  0  1  0  0  3  0  0  0  0  0  0
  196.4260  176.4670  143.5180 C   0  0  0  0  0  1  0  0  0  0  0  0
  193.1290  176.6510  143.6820 C   0  0  0  0  0  0  0  0  0  0  0  0
  191.9060  176.9010  143.2950 C   0  0  0  0  0  0  0  0  0  0  0  0
  192.7110  176.1430  146.0610 C   0  0  0  0  0  2  0  0  0  0  0  0
  195.2670  175.5880  143.5810 N   0  0  0  0  0  0  0  0  0  0  0  0
  193.5170  176.2470  145.0060 C   0  0  0  0  0  0  0  0  0  0  0  0
  194.2140  176.2130  142.7560 C   0  0  0  0  0  2  0  0  0  0  0  0
  190.6840  177.1420  142.9150 C   0  0  0  0  0  3  0  0  0  0  0  0
  194.7810  175.6210  144.9030 N   0  0  0  0  0  0  0  0  0  0  0  0
  195.3910  174.8350  145.9660 C   0  0  0  0  0  1  0  0  0  0  0  0
  185.3580  178.0010  145.8800 C   0  0  0  0  0  0  0  0  0  0  0  0
  186.9870  176.7470  147.0690 C   0  0  0  0  0  3  0  0  0  0  0  0
  187.8490  176.7880  145.9710 C   0  0  0  0  0  3  0  0  0  0  0  0
  183.7890  178.7740  145.8440 Cl  0  0  0  0  0  0  0  0  0  0  0  0
  187.4460  177.4490  144.8040 C   0  0  0  0  0  0  0  0  0  0  0  0
  185.7700  177.3510  147.0030 N   0  0  0  0  0  0  0  0  0  0  0  0
  186.1920  178.0620  144.7610 C   0  0  0  0  0  3  0  0  0  0  0  0
  1  9  1  0  0  0  0
  2  1  2  0  0  0  0
  3  2  1  0  0  0  0
  3  4  2  0  0  0  0
  4  5  1  0  0  0  0
  5  9  2  0  0  0  0
  5  6  1  0  0  0  0
  6 18  1  6  0  0  0
  7  8  1  0  0  0  0
  7  4  1  0  0  0  0
  8 10  1  0  0  0  0
 10  6  1  0  0  0  0
 10 25  1  1  0  0  0
 11 15  1  0  0  0  0
 12 16  1  0  0  0  0
 13 12  2  0  0  0  0
 15 19  1  0  0  0  0
 16 14  2  0  0  0  0
 17 15  1  0  0  0  0
 17 12  1  0  0  0  0
 18 13  2  0  0  0  0
 19 16  1  0  0  0  0
 19 20  1  0  0  0  0
 21 26  1  0  0  0  0
 23 22  1  0  0  0  0
 24 21  1  0  0  0  0
 25 23  2  0  0  0  0
 26 22  2  0  0  0  0
 27 25  1  0  0  0  0
 27 21  2  0  0  0  0
M  END
>  <MODEL>
1

>  <REMARK>
 VINA RESULT:      -8.2      0.000      0.000
  Name = 
  2 active torsions:
  status: ('A' for Active; 'I' for Inactive)
    1  A    between atoms: C_12  and  C_27
    2  A    between atoms: C_17  and  C_23
                            x       y       z     vdW  Elec       q    Type
                         _______ _______ _______ _____ _____    ______ ____

>  <TORSDO>
F 2

$$$$
=
 OpenBabel11042414193D

 27 30  0  0  1  0  0  0  0  0999 V2000
  188.7720  173.4920  142.5530 C   0  0  0  0  0  3  0  0  0  0  0  0
  189.1240  172.3440  143.2700 C   0  0  0  0  0  3  0  0  0  0  0  0
  189.6910  172.4590  144.5430 C   0  0  0  0  0  3  0  0  0  0  0  0
  189.9030  173.7210  145.1040 C   0  0  0  0  0  0  0  0  0  0  0  0
  189.5510  174.8790  144.3830 C   0  0  0  0  0  0  0  0  0  0  0  0
  189.7780  176.2470  144.9700 C   0  0  2  0  0  3  0  0  0  0  0  0
  190.5020  173.8240  146.3640 O   0  0  0  0  0  0  0  0  0  0  0  0
  190.5680  175.0600  147.0750 C   0  0  0  0  0  2  0  0  0  0  0  0
  188.9860  174.7560  143.1080 C   0  0  0  0  0  3  0  0  0  0  0  0
  190.7930  176.2410  146.1230 C   0  0  1  0  0  3  0  0  0  0  0  0
  183.8320  178.6880  142.4850 C   0  0  0  0  0  1  0  0  0  0  0  0
  186.7380  177.6600  143.6820 C   0  0  0  0  0  0  0  0  0  0  0  0
  187.6130  177.2510  144.5630 C   0  0  0  0  0  0  0  0  0  0  0  0
  188.2380  178.0300  141.7570 C   0  0  0  0  0  2  0  0  0  0  0  0
  184.7250  177.5410  142.3990 N   0  0  0  0  0  0  0  0  0  0  0  0
  187.0300  178.0000  142.3160 C   0  0  0  0  0  0  0  0  0  0  0  0
  185.2840  177.3340  143.7510 C   0  0  0  0  0  2  0  0  0  0  0  0
  188.4880  176.8370  145.4340 C   0  0  0  0  0  3  0  0  0  0  0  0
  185.8180  177.9140  141.5920 N   0  0  0  0  0  0  0  0  0  0  0  0
  185.7350  177.9160  140.1380 C   0  0  0  0  0  1  0  0  0  0  0  0
  193.7690  176.4160  143.7990 C   0  0  0  0  0  0  0  0  0  0  0  0
  194.5880  176.5110  146.0260 C   0  0  0  0  0  3  0  0  0  0  0  0
  193.2880  176.4250  146.5290 C   0  0  0  0  0  3  0  0  0  0  0  0
  194.0900  176.3960  142.0790 Cl  0  0  0  0  0  0  0  0  0  0  0  0
  192.2100  176.3370  145.6390 C   0  0  0  0  0  0  0  0  0  0  0  0
  194.8010  176.5020  144.6820 N   0  0  0  0  0  0  0  0  0  0  0  0
  192.4540  176.3300  144.2640 C   0  0  0  0  0  3  0  0  0  0  0  0
  1  9  2  0  0  0  0
  1  2  1  0  0  0  0
  2  3  2  0  0  0  0
  3  4  1  0  0  0  0
  4  7  1  0  0  0  0
  5  6  1  0  0  0  0
  5  4  2  0  0  0  0
  6 18  1  1  0  0  0
  6 10  1  0  0  0  0
  7  8  1  0  0  0  0
  9  5  1  0  0  0  0
 10 25  1  6  0  0  0
 10  8  1  0  0  0  0
 12 17  1  0  0  0  0
 12 13  2  0  0  0  0
 13 18  2  0  0  0  0
 14 16  2  0  0  0  0
 15 11  1  0  0  0  0
 15 17  1  0  0  0  0
 16 12  1  0  0  0  0
 19 16  1  0  0  0  0
 19 15  1  0  0  0  0
 20 19  1  0  0  0  0
 21 27  2  0  0  0  0
 21 26  1  0  0  0  0
 22 23  1  0  0  0  0
 24 21  1  0  0  0  0
 25 23  2  0  0  0  0
 26 22  2  0  0  0  0
 27 25  1  0  0  0  0
M  END
>  <MODEL>
2

>  <REMARK>
 VINA RESULT:      -7.5      3.123      7.012
  Name = 
  2 active torsions:
  status: ('A' for Active; 'I' for Inactive)
    1  A    between atoms: C_12  and  C_27
    2  A    between atoms: C_17  and  C_23
                            x       y       z     vdW  Elec       q    Type
                         _______ _______ _______ _____ _____    ______ ____

>  <TORSDO>
F 2

$$$$
=
 OpenBabel11042414193D

 27 30  0  0  1  0  0  0  0  0999 V2000
  193.6010  176.4090  145.0510 C   0  0  0  0  0  3  0  0  0  0  0  0
  193.6890  176.8230  146.3840 C   0  0  0  0  0  3  0  0  0  0  0  0
  192.6460  176.5470  147.2740 C   0  0  0  0  0  3  0  0  0  0  0  0
  191.5170  175.8500  146.8350 C   0  0  0  0  0  0  0  0  0  0  0  0
  191.4250  175.4330  145.4920 C   0  0  0  0  0  0  0  0  0  0  0  0
  190.2130  174.6870  145.0010 C   0  0  2  0  0  3  0  0  0  0  0  0
  190.4660  175.6090  147.7260 O   0  0  0  0  0  0  0  0  0  0  0  0
  189.3800  174.7410  147.4030 C   0  0  0  0  0  2  0  0  0  0  0  0
  192.4720  175.7170  144.6060 C   0  0  0  0  0  3  0  0  0  0  0  0
  188.9960  174.8550  145.9230 C   0  0  1  0  0  3  0  0  0  0  0  0
  190.7480  169.8850  140.0890 C   0  0  0  0  0  1  0  0  0  0  0  0
  190.3480  172.1430  142.4710 C   0  0  0  0  0  0  0  0  0  0  0  0
  190.4360  172.6870  143.6570 C   0  0  0  0  0  0  0  0  0  0  0  0
  188.7880  173.7320  141.4060 C   0  0  0  0  0  2  0  0  0  0  0  0
  191.1920  171.2290  140.4300 N   0  0  0  0  0  0  0  0  0  0  0  0
  189.5850  172.6650  141.3700 C   0  0  0  0  0  0  0  0  0  0  0  0
  191.3960  171.2520  141.8930 C   0  0  0  0  0  2  0  0  0  0  0  0
  190.5250  173.2380  144.8330 C   0  0  0  0  0  3  0  0  0  0  0  0
  190.1160  172.1050  140.1850 N   0  0  0  0  0  0  0  0  0  0  0  0
  189.8040  172.5840  138.8460 C   0  0  0  0  0  1  0  0  0  0  0  0
  186.6810  177.8130  146.3490 C   0  0  0  0  0  0  0  0  0  0  0  0
  187.5090  177.8620  144.1240 C   0  0  0  0  0  3  0  0  0  0  0  0
  188.2580  176.7060  144.3560 C   0  0  0  0  0  3  0  0  0  0  0  0
  185.6690  178.5160  147.5920 Cl  0  0  0  0  0  0  0  0  0  0  0  0
  188.2140  176.1000  145.6180 C   0  0  0  0  0  0  0  0  0  0  0  0
  186.7400  178.3860  145.1160 N   0  0  0  0  0  0  0  0  0  0  0  0
  187.4170  176.6570  146.6200 C   0  0  0  0  0  3  0  0  0  0  0  0
  1  2  1  0  0  0  0
  2  3  2  0  0  0  0
  4  3  1  0  0  0  0
  4  7  1  0  0  0  0
  5  4  2  0  0  0  0
  6 18  1  1  0  0  0
  6  5  1  0  0  0  0
  6 10  1  0  0  0  0
  8  7  1  0  0  0  0
  9  1  2  0  0  0  0
  9  5  1  0  0  0  0
 10 25  1  1  0  0  0
 10  8  1  0  0  0  0
 11 15  1  0  0  0  0
 12 13  2  0  0  0  0
 13 18  2  0  0  0  0
 15 17  1  0  0  0  0
 16 14  2  0  0  0  0
 16 12  1  0  0  0  0
 17 12  1  0  0  0  0
 19 15  1  0  0  0  0
 19 16  1  0  0  0  0
 20 19  1  0  0  0  0
 21 27  1  0  0  0  0
 21 24  1  0  0  0  0
 22 23  2  0  0  0  0
 22 26  1  0  0  0  0
 23 25  1  0  0  0  0
 25 27  2  0  0  0  0
 26 21  2  0  0  0  0
M  END
>  <MODEL>
3

>  <REMARK>
 VINA RESULT:      -7.4      2.892      5.439
  Name = 
  2 active torsions:
  status: ('A' for Active; 'I' for Inactive)
    1  A    between atoms: C_12  and  C_27
    2  A    between atoms: C_17  and  C_23
                            x       y       z     vdW  Elec       q    Type
                         _______ _______ _______ _____ _____    ______ ____

>  <TORSDO>
F 2

$$$$
=
 OpenBabel11042414193D

 27 30  0  0  1  0  0  0  0  0999 V2000
  193.4440  176.7130  145.0330 C   0  0  0  0  0  3  0  0  0  0  0  0
  193.5600  176.8860  146.4160 C   0  0  0  0  0  3  0  0  0  0  0  0
  192.5470  176.4300  147.2660 C   0  0  0  0  0  3  0  0  0  0  0  0
  191.4210  175.7950  146.7360 C   0  0  0  0  0  0  0  0  0  0  0  0
  191.3010  175.6220  145.3430 C   0  0  0  0  0  0  0  0  0  0  0  0
  190.0910  174.9450  144.7550 C   0  0  2  0  0  3  0  0  0  0  0  0
  190.3990  175.3740  147.5940 O   0  0  0  0  0  0  0  0  0  0  0  0
  189.3220  174.5520  147.1460 C   0  0  0  0  0  2  0  0  0  0  0  0
  192.3180  176.0830  144.4980 C   0  0  0  0  0  3  0  0  0  0  0  0
  188.8960  174.9180  145.7200 C   0  0  1  0  0  3  0  0  0  0  0  0
  190.1710  170.9860  139.1160 C   0  0  0  0  0  1  0  0  0  0  0  0
  189.9950  172.8290  141.8560 C   0  0  0  0  0  0  0  0  0  0  0  0
  190.2110  173.1890  143.0940 C   0  0  0  0  0  0  0  0  0  0  0  0
  188.2640  174.4790  141.2460 C   0  0  0  0  0  2  0  0  0  0  0  0
  190.6090  172.2840  139.6110 N   0  0  0  0  0  0  0  0  0  0  0  0
  189.0850  173.4740  140.9490 C   0  0  0  0  0  0  0  0  0  0  0  0
  190.9920  172.0930  141.0250 C   0  0  0  0  0  2  0  0  0  0  0  0
  190.4270  173.5570  144.3240 C   0  0  0  0  0  3  0  0  0  0  0  0
  189.4830  173.1300  139.6360 N   0  0  0  0  0  0  0  0  0  0  0  0
  188.9920  173.7920  138.4350 C   0  0  0  0  0  1  0  0  0  0  0  0
  187.0990  177.9470  144.3460 C   0  0  0  0  0  0  0  0  0  0  0  0
  186.8080  177.9440  146.7030 C   0  0  0  0  0  3  0  0  0  0  0  0
  187.5570  176.7710  146.8140 C   0  0  0  0  0  3  0  0  0  0  0  0
  186.8130  178.7090  142.7970 Cl  0  0  0  0  0  0  0  0  0  0  0  0
  188.0820  176.1770  145.6590 C   0  0  0  0  0  0  0  0  0  0  0  0
  186.5980  178.5050  145.4810 N   0  0  0  0  0  0  0  0  0  0  0  0
  187.8520  176.7720  144.4170 C   0  0  0  0  0  3  0  0  0  0  0  0
  1  2  1  0  0  0  0
  2  3  2  0  0  0  0
  4  3  1  0  0  0  0
  4  7  1  0  0  0  0
  5  4  2  0  0  0  0
  6 18  1  1  0  0  0
  6  5  1  0  0  0  0
  6 10  1  0  0  0  0
  8  7  1  0  0  0  0
  9  1  2  0  0  0  0
  9  5  1  0  0  0  0
 10 25  1  1  0  0  0
 10  8  1  0  0  0  0
 11 15  1  0  0  0  0
 12 13  2  0  0  0  0
 13 18  2  0  0  0  0
 15 19  1  0  0  0  0
 15 17  1  0  0  0  0
 16 14  2  0  0  0  0
 16 12  1  0  0  0  0
 17 12  1  0  0  0  0
 19 16  1  0  0  0  0
 20 19  1  0  0  0  0
 21 27  2  0  0  0  0
 21 26  1  0  0  0  0
 22 23  1  0  0  0  0
 24 21  1  0  0  0  0
 25 23  2  0  0  0  0
 26 22  2  0  0  0  0
 27 25  1  0  0  0  0
M  END
>  <MODEL>
4

>  <REMARK>
 VINA RESULT:      -7.4      2.981      5.457
  Name = 
  2 active torsions:
  status: ('A' for Active; 'I' for Inactive)
    1  A    between atoms: C_12  and  C_27
    2  A    between atoms: C_17  and  C_23
                            x       y       z     vdW  Elec       q    Type
                         _______ _______ _______ _____ _____    ______ ____

>  <TORSDO>
F 2

$$$$
=
 OpenBabel11042414193D

 27 30  0  0  1  0  0  0  0  0999 V2000
  188.5030  173.3590  142.2820 C   0  0  0  0  0  3  0  0  0  0  0  0
  188.9940  172.1820  142.8560 C   0  0  0  0  0  3  0  0  0  0  0  0
  189.9630  172.2440  143.8620 C   0  0  0  0  0  3  0  0  0  0  0  0
  190.4380  173.4830  144.3010 C   0  0  0  0  0  0  0  0  0  0  0  0
  189.9460  174.6700  143.7240 C   0  0  0  0  0  0  0  0  0  0  0  0
  190.4510  176.0130  144.1810 C   0  0  2  0  0  3  0  0  0  0  0  0
  191.4310  173.5310  145.2850 O   0  0  0  0  0  0  0  0  0  0  0  0
  191.8180  174.7520  145.9150 C   0  0  0  0  0  2  0  0  0  0  0  0
  188.9780  174.6000  142.7150 C   0  0  0  0  0  3  0  0  0  0  0  0
  191.7920  175.9230  144.9260 C   0  0  1  0  0  3  0  0  0  0  0  0
  184.2480  178.9850  143.7830 C   0  0  0  0  0  1  0  0  0  0  0  0
  187.2880  177.6970  143.9610 C   0  0  0  0  0  0  0  0  0  0  0  0
  188.3640  177.1940  144.5070 C   0  0  0  0  0  0  0  0  0  0  0  0
  188.1060  178.0070  141.6540 C   0  0  0  0  0  2  0  0  0  0  0  0
  184.9640  177.7750  143.4060 N   0  0  0  0  0  0  0  0  0  0  0  0
  187.1470  178.0550  142.5760 C   0  0  0  0  0  0  0  0  0  0  0  0
  185.9130  177.4840  144.5000 C   0  0  0  0  0  2  0  0  0  0  0  0
  189.4370  176.6870  145.0430 C   0  0  0  0  0  3  0  0  0  0  0  0
  185.7620  178.0860  142.2880 N   0  0  0  0  0  0  0  0  0  0  0  0
  185.2110  178.1380  140.9400 C   0  0  0  0  0  1  0  0  0  0  0  0
  195.3250  175.5630  143.6320 C   0  0  0  0  0  0  0  0  0  0  0  0
  193.9640  176.2730  141.8210 C   0  0  0  0  0  3  0  0  0  0  0  0
  192.8380  176.2870  142.6460 C   0  0  0  0  0  3  0  0  0  0  0  0
  196.9050  175.1230  144.2430 Cl  0  0  0  0  0  0  0  0  0  0  0  0
  192.9670  175.9250  143.9930 C   0  0  0  0  0  0  0  0  0  0  0  0
  195.1750  175.9170  142.3270 N   0  0  0  0  0  0  0  0  0  0  0  0
  194.2220  175.5630  144.4890 C   0  0  0  0  0  3  0  0  0  0  0  0
  1  9  2  0  0  0  0
  1  2  1  0  0  0  0
  2  3  2  0  0  0  0
  3  4  1  0  0  0  0
  4  7  1  0  0  0  0
  5  6  1  0  0  0  0
  5  4  2  0  0  0  0
  6 10  1  0  0  0  0
  6 18  1  1  0  0  0
  7  8  1  0  0  0  0
  9  5  1  0  0  0  0
 10 25  1  6  0  0  0
 10  8  1  0  0  0  0
 12 17  1  0  0  0  0
 12 13  2  0  0  0  0
 13 18  2  0  0  0  0
 14 16  2  0  0  0  0
 15 11  1  0  0  0  0
 15 17  1  0  0  0  0
 16 12  1  0  0  0  0
 19 16  1  0  0  0  0
 19 15  1  0  0  0  0
 20 19  1  0  0  0  0
 21 24  1  0  0  0  0
 21 27  1  0  0  0  0
 22 26  1  0  0  0  0
 22 23  2  0  0  0  0
 23 25  1  0  0  0  0
 25 27  2  0  0  0  0
 26 21  2  0  0  0  0
M  END
>  <MODEL>
5

>  <REMARK>
 VINA RESULT:      -7.4      3.311      7.372
  Name = 
  2 active torsions:
  status: ('A' for Active; 'I' for Inactive)
    1  A    between atoms: C_12  and  C_27
    2  A    between atoms: C_17  and  C_23
                            x       y       z     vdW  Elec       q    Type
                         _______ _______ _______ _____ _____    ______ ____

>  <TORSDO>
F 2

$$$$
=
 OpenBabel11042414193D

 27 30  0  0  1  0  0  0  0  0999 V2000
  188.6360  173.6410  143.1780 C   0  0  0  0  0  3  0  0  0  0  0  0
  188.2070  173.2390  141.9090 C   0  0  0  0  0  3  0  0  0  0  0  0
  187.8220  174.1940  140.9630 C   0  0  0  0  0  3  0  0  0  0  0  0
  187.8690  175.5540  141.2820 C   0  0  0  0  0  0  0  0  0  0  0  0
  188.2990  175.9620  142.5600 C   0  0  0  0  0  0  0  0  0  0  0  0
  188.3500  177.4230  142.9220 C   0  0  2  0  0  3  0  0  0  0  0  0
  187.4500  176.4980  140.3390 O   0  0  0  0  0  0  0  0  0  0  0  0
  187.6540  177.8980  140.5230 C   0  0  0  0  0  2  0  0  0  0  0  0
  188.6800  175.0000  143.5020 C   0  0  0  0  0  3  0  0  0  0  0  0
  187.4930  178.2970  141.9940 C   0  0  1  0  0  3  0  0  0  0  0  0
  194.1930  176.8670  146.5320 C   0  0  0  0  0  1  0  0  0  0  0  0
  191.3580  177.2620  144.8770 C   0  0  0  0  0  0  0  0  0  0  0  0
  190.5600  177.5920  143.8950 C   0  0  0  0  0  0  0  0  0  0  0  0
  189.6810  176.7690  146.6190 C   0  0  0  0  0  2  0  0  0  0  0  0
  193.1460  176.0640  145.9170 N   0  0  0  0  0  0  0  0  0  0  0  0
  190.9370  176.8270  146.1810 C   0  0  0  0  0  0  0  0  0  0  0  0
  192.7490  176.7600  144.6760 C   0  0  0  0  0  2  0  0  0  0  0  0
  189.7600  177.9120  142.9190 C   0  0  0  0  0  3  0  0  0  0  0  0
  192.0180  176.1220  146.7590 N   0  0  0  0  0  0  0  0  0  0  0  0
  191.9060  175.2930  147.9520 C   0  0  0  0  0  1  0  0  0  0  0  0
  184.4380  178.5300  144.2090 C   0  0  0  0  0  0  0  0  0  0  0  0
  183.6880  178.3410  141.9640 C   0  0  0  0  0  3  0  0  0  0  0  0
  185.0060  178.2840  141.5060 C   0  0  0  0  0  3  0  0  0  0  0  0
  184.0630  178.6700  145.9120 Cl  0  0  0  0  0  0  0  0  0  0  0  0
  186.0580  178.3560  142.4280 C   0  0  0  0  0  0  0  0  0  0  0  0
  183.4320  178.4600  143.2940 N   0  0  0  0  0  0  0  0  0  0  0  0
  185.7700  178.4780  143.7900 C   0  0  0  0  0  3  0  0  0  0  0  0
  1  9  1  0  0  0  0
  2  1  2  0  0  0  0
  3  4  2  0  0  0  0
  3  2  1  0  0  0  0
  4  5  1  0  0  0  0
  5  6  1  0  0  0  0
  5  9  2  0  0  0  0
  6 18  1  6  0  0  0
  7  8  1  0  0  0  0
  7  4  1  0  0  0  0
  8 10  1  0  0  0  0
 10 25  1  1  0  0  0
 10  6  1  0  0  0  0
 12 16  1  0  0  0  0
 13 12  2  0  0  0  0
 15 11  1  0  0  0  0
 15 19  1  0  0  0  0
 16 14  2  0  0  0  0
 16 19  1  0  0  0  0
 17 12  1  0  0  0  0
 17 15  1  0  0  0  0
 18 13  2  0  0  0  0
 19 20  1  0  0  0  0
 21 24  1  0  0  0  0
 22 26  1  0  0  0  0
 23 22  2  0  0  0  0
 23 25  1  0  0  0  0
 25 27  2  0  0  0  0
 26 21  2  0  0  0  0
 27 21  1  0  0  0  0
M  END
>  <MODEL>
6

>  <REMARK>
 VINA RESULT:      -7.3      1.961      2.810
  Name = 
  2 active torsions:
  status: ('A' for Active; 'I' for Inactive)
    1  A    between atoms: C_12  and  C_27
    2  A    between atoms: C_17  and  C_23
                            x       y       z     vdW  Elec       q    Type
                         _______ _______ _______ _____ _____    ______ ____

>  <TORSDO>
F 2

$$$$
=
 OpenBabel11042414193D

 27 30  0  0  1  0  0  0  0  0999 V2000
  194.8160  170.8840  145.7140 C   0  0  0  0  0  3  0  0  0  0  0  0
  196.1730  171.1650  145.9000 C   0  0  0  0  0  3  0  0  0  0  0  0
  196.6330  172.4830  145.8270 C   0  0  0  0  0  3  0  0  0  0  0  0
  195.7360  173.5250  145.5750 C   0  0  0  0  0  0  0  0  0  0  0  0
  194.3680  173.2450  145.3860 C   0  0  0  0  0  0  0  0  0  0  0  0
  193.3890  174.3540  145.1070 C   0  0  2  0  0  3  0  0  0  0  0  0
  196.2130  174.8360  145.4710 O   0  0  0  0  0  0  0  0  0  0  0  0
  195.3360  175.9600  145.4110 C   0  0  0  0  0  2  0  0  0  0  0  0
  193.9160  171.9220  145.4570 C   0  0  0  0  0  3  0  0  0  0  0  0
  194.0690  175.6390  144.6100 C   0  0  1  0  0  3  0  0  0  0  0  0
  187.4780  177.3730  146.9590 C   0  0  0  0  0  1  0  0  0  0  0  0
  190.3870  176.0550  146.1020 C   0  0  0  0  0  0  0  0  0  0  0  0
  191.4830  175.3520  146.2170 C   0  0  0  0  0  0  0  0  0  0  0  0
  190.8830  177.2450  143.9980 C   0  0  0  0  0  2  0  0  0  0  0  0
  188.0230  176.4000  146.0230 N   0  0  0  0  0  0  0  0  0  0  0  0
  190.0770  176.9400  145.0130 C   0  0  0  0  0  0  0  0  0  0  0  0
  189.0920  175.6740  146.7380 C   0  0  0  0  0  2  0  0  0  0  0  0
  192.5740  174.6490  146.3210 C   0  0  0  0  0  3  0  0  0  0  0  0
  188.6730  177.1150  144.9980 N   0  0  0  0  0  0  0  0  0  0  0  0
  187.9380  177.7150  143.8930 C   0  0  0  0  0  1  0  0  0  0  0  0
  193.6250  174.8990  140.9300 C   0  0  0  0  0  0  0  0  0  0  0  0
  195.5650  176.2490  141.1640 C   0  0  0  0  0  3  0  0  0  0  0  0
  195.3910  176.2940  142.5490 C   0  0  0  0  0  3  0  0  0  0  0  0
  192.5290  174.0110  139.8960 Cl  0  0  0  0  0  0  0  0  0  0  0  0
  194.3040  175.6270  143.1280 C   0  0  0  0  0  0  0  0  0  0  0  0
  194.6880  175.5560  140.3890 N   0  0  0  0  0  0  0  0  0  0  0  0
  193.4170  174.9220  142.3110 C   0  0  0  0  0  3  0  0  0  0  0  0
  1  2  1  0  0  0  0
  3  2  2  0  0  0  0
  4  3  1  0  0  0  0
  5  9  1  0  0  0  0
  5  4  2  0  0  0  0
  6  5  1  0  0  0  0
  6 18  1  1  0  0  0
  7  4  1  0  0  0  0
  8  7  1  0  0  0  0
  9  1  2  0  0  0  0
 10 25  1  6  0  0  0
 10  6  1  0  0  0  0
 10  8  1  0  0  0  0
 12 13  2  0  0  0  0
 12 17  1  0  0  0  0
 13 18  2  0  0  0  0
 14 16  2  0  0  0  0
 15 17  1  0  0  0  0
 15 11  1  0  0  0  0
 16 12  1  0  0  0  0
 19 16  1  0  0  0  0
 19 15  1  0  0  0  0
 20 19  1  0  0  0  0
 21 27  1  0  0  0  0
 22 23  2  0  0  0  0
 23 25  1  0  0  0  0
 24 21  1  0  0  0  0
 26 21  2  0  0  0  0
 26 22  1  0  0  0  0
 27 25  2  0  0  0  0
M  END
>  <MODEL>
7

>  <REMARK>
 VINA RESULT:      -7.2      3.804      7.661
  Name = 
  2 active torsions:
  status: ('A' for Active; 'I' for Inactive)
    1  A    between atoms: C_12  and  C_27
    2  A    between atoms: C_17  and  C_23
                            x       y       z     vdW  Elec       q    Type
                         _______ _______ _______ _____ _____    ______ ____

>  <TORSDO>
F 2

$$$$
=
 OpenBabel11042414193D

 27 30  0  0  1  0  0  0  0  0999 V2000
  192.5370  173.8090  140.8260 C   0  0  0  0  0  3  0  0  0  0  0  0
  192.9580  172.5850  141.3550 C   0  0  0  0  0  3  0  0  0  0  0  0
  192.3760  172.0910  142.5260 C   0  0  0  0  0  3  0  0  0  0  0  0
  191.3680  172.8160  143.1670 C   0  0  0  0  0  0  0  0  0  0  0  0
  190.9430  174.0500  142.6370 C   0  0  0  0  0  0  0  0  0  0  0  0
  189.8630  174.8470  143.3190 C   0  0  2  0  0  3  0  0  0  0  0  0
  190.8170  172.3270  144.3560 O   0  0  0  0  0  0  0  0  0  0  0  0
  189.6590  172.9110  144.9540 C   0  0  0  0  0  2  0  0  0  0  0  0
  191.5330  174.5400  141.4660 C   0  0  0  0  0  3  0  0  0  0  0  0
  189.6510  174.4340  144.7840 C   0  0  1  0  0  3  0  0  0  0  0  0
  183.9120  178.1970  142.4000 C   0  0  0  0  0  1  0  0  0  0  0  0
  186.6990  176.5040  142.9480 C   0  0  0  0  0  0  0  0  0  0  0  0
  187.6370  175.6140  142.7570 C   0  0  0  0  0  0  0  0  0  0  0  0
  187.3520  177.3130  145.1860 C   0  0  0  0  0  2  0  0  0  0  0  0
  185.3540  178.3990  142.3900 N   0  0  0  0  0  0  0  0  0  0  0  0
  186.5800  177.3530  144.1010 C   0  0  0  0  0  0  0  0  0  0  0  0
  185.9530  177.1660  141.8380 C   0  0  0  0  0  2  0  0  0  0  0  0
  188.5780  174.7340  142.5700 C   0  0  0  0  0  3  0  0  0  0  0  0
  185.7830  178.4610  143.7300 N   0  0  0  0  0  0  0  0  0  0  0  0
  185.6530  179.6750  144.5240 C   0  0  0  0  0  1  0  0  0  0  0  0
  192.6250  176.3960  146.0480 C   0  0  0  0  0  0  0  0  0  0  0  0
  191.2880  175.8250  147.9260 C   0  0  0  0  0  3  0  0  0  0  0  0
  190.3740  175.1660  147.1000 C   0  0  0  0  0  3  0  0  0  0  0  0
  194.0570  177.1650  145.4010 Cl  0  0  0  0  0  0  0  0  0  0  0  0
  190.5970  175.1300  145.7180 C   0  0  0  0  0  0  0  0  0  0  0  0
  192.3870  176.4200  147.3880 N   0  0  0  0  0  0  0  0  0  0  0  0
  191.7330  175.7480  145.1900 C   0  0  0  0  0  3  0  0  0  0  0  0
  1  2  2  0  0  0  0
  1  9  1  0  0  0  0
  2  3  1  0  0  0  0
  3  4  2  0  0  0  0
  4  7  1  0  0  0  0
  5  4  1  0  0  0  0
  5  6  1  0  0  0  0
  6 18  1  6  0  0  0
  6 10  1  0  0  0  0
  7  8  1  0  0  0  0
  9  5  2  0  0  0  0
 10  8  1  0  0  0  0
 10 25  1  1  0  0  0
 12 16  1  0  0  0  0
 13 12  2  0  0  0  0
 15 11  1  0  0  0  0
 15 19  1  0  0  0  0
 16 14  2  0  0  0  0
 17 15  1  0  0  0  0
 17 12  1  0  0  0  0
 18 13  2  0  0  0  0
 19 16  1  0  0  0  0
 19 20  1  0  0  0  0
 21 26  1  0  0  0  0
 23 22  1  0  0  0  0
 24 21  1  0  0  0  0
 25 23  2  0  0  0  0
 26 22  2  0  0  0  0
 27 25  1  0  0  0  0
 27 21  2  0  0  0  0
M  END
>  <MODEL>
8

>  <REMARK>
 VINA RESULT:      -7.1      3.213      6.545
  Name = 
  2 active torsions:
  status: ('A' for Active; 'I' for Inactive)
    1  A    between atoms: C_12  and  C_27
    2  A    between atoms: C_17  and  C_23
                            x       y       z     vdW  Elec       q    Type
                         _______ _______ _______ _____ _____    ______ ____

>  <TORSDO>
F 2

$$$$
=
 OpenBabel11042414193D

 27 30  0  0  1  0  0  0  0  0999 V2000
  194.8730  175.0520  146.0490 C   0  0  0  0  0  3  0  0  0  0  0  0
  195.5110  175.2810  144.8260 C   0  0  0  0  0  3  0  0  0  0  0  0
  194.7670  175.6760  143.7100 C   0  0  0  0  0  3  0  0  0  0  0  0
  193.3850  175.8500  143.8150 C   0  0  0  0  0  0  0  0  0  0  0  0
  192.7390  175.6190  145.0460 C   0  0  0  0  0  0  0  0  0  0  0  0
  191.2490  175.7950  145.1760 C   0  0  2  0  0  3  0  0  0  0  0  0
  192.6470  176.2130  142.6840 O   0  0  0  0  0  0  0  0  0  0  0  0
  191.2740  176.5950  142.7630 C   0  0  0  0  0  2  0  0  0  0  0  0
  193.4900  175.2200  146.1580 C   0  0  0  0  0  3  0  0  0  0  0  0
  190.5260  175.7760  143.8210 C   0  0  1  0  0  3  0  0  0  0  0  0
  185.8750  179.3360  147.6380 C   0  0  0  0  0  1  0  0  0  0  0  0
  188.4470  177.7220  146.3300 C   0  0  0  0  0  0  0  0  0  0  0  0
  189.6950  177.3960  146.1150 C   0  0  0  0  0  0  0  0  0  0  0  0
  187.3680  176.4230  144.5300 C   0  0  0  0  0  2  0  0  0  0  0  0
  186.4690  178.0060  147.6410 N   0  0  0  0  0  0  0  0  0  0  0  0
  187.3180  177.2240  145.5930 C   0  0  0  0  0  0  0  0  0  0  0  0
  187.9340  178.1950  147.6490 C   0  0  0  0  0  2  0  0  0  0  0  0
  190.9350  177.0610  145.9000 C   0  0  0  0  0  3  0  0  0  0  0  0
  186.1720  177.4070  146.4010 N   0  0  0  0  0  0  0  0  0  0  0  0
  184.8800  176.7910  146.1350 C   0  0  0  0  0  1  0  0  0  0  0  0
  189.3770  172.9090  141.6410 C   0  0  0  0  0  0  0  0  0  0  0  0
  190.0990  171.9960  143.7110 C   0  0  0  0  0  3  0  0  0  0  0  0
  190.4140  173.2700  144.1860 C   0  0  0  0  0  3  0  0  0  0  0  0
  188.7090  172.6660  140.0430 Cl  0  0  0  0  0  0  0  0  0  0  0  0
  190.2070  174.3830  143.3610 C   0  0  0  0  0  0  0  0  0  0  0  0
  189.5880  171.8420  142.4590 N   0  0  0  0  0  0  0  0  0  0  0  0
  189.6820  174.2000  142.0800 C   0  0  0  0  0  3  0  0  0  0  0  0
  1  9  1  0  0  0  0
  2  1  2  0  0  0  0
  3  4  2  0  0  0  0
  3  2  1  0  0  0  0
  4  5  1  0  0  0  0
  5  6  1  0  0  0  0
  5  9  2  0  0  0  0
  6 18  1  6  0  0  0
  7  8  1  0  0  0  0
  7  4  1  0  0  0  0
  8 10  1  0  0  0  0
 10 25  1  6  0  0  0
 10  6  1  0  0  0  0
 11 15  1  0  0  0  0
 12 17  1  0  0  0  0
 13 12  2  0  0  0  0
 14 16  2  0  0  0  0
 15 17  1  0  0  0  0
 16 12  1  0  0  0  0
 16 19  1  0  0  0  0
 18 13  2  0  0  0  0
 19 15  1  0  0  0  0
 20 19  1  0  0  0  0
 21 27  2  0  0  0  0
 21 26  1  0  0  0  0
 22 23  1  0  0  0  0
 24 21  1  0  0  0  0
 25 23  2  0  0  0  0
 26 22  2  0  0  0  0
 27 25  1  0  0  0  0
M  END
>  <MODEL>
9

>  <REMARK>
 VINA RESULT:      -6.7      3.097      6.774
  Name = 
  2 active torsions:
  status: ('A' for Active; 'I' for Inactive)
    1  A    between atoms: C_12  and  C_27
    2  A    between atoms: C_17  and  C_23
                            x       y       z     vdW  Elec       q    Type
                         _______ _______ _______ _____ _____    ______ ____

>  <TORSDO>
F 2

$$$$
