=
 OpenBabel11042415153D

 45 48  0  0  1  0  0  0  0  0999 V2000
  189.2760  172.3730  136.1100 F   0  0  0  0  0  0  0  0  0  0  0  0
  191.6940  170.5520  142.0180 C   0  0  2  0  0  3  0  0  0  0  0  0
  190.5310  175.1770  144.7830 C   0  0  0  0  0  2  0  0  0  0  0  0
  186.3750  177.5840  140.3170 C   0  0  0  0  0  3  0  0  0  0  0  0
  189.8580  172.3180  138.4190 C   0  0  0  0  0  3  0  0  0  0  0  0
  188.2080  174.5430  138.8590 C   0  0  0  0  0  0  0  0  0  0  0  0
  190.4310  172.2700  140.8200 N   0  0  0  0  0  2  0  0  0  0  0  0
  192.8210  170.1270  144.6230 O   0  0  0  0  0  0  0  0  0  0  0  0
  190.5980  176.1590  143.6200 C   0  0  0  0  0  2  0  0  0  0  0  0
  193.4330  174.2220  144.1280 C   0  0  1  0  0  3  0  0  0  0  0  0
  194.3760  171.8950  144.4640 C   0  0  0  0  0  0  0  0  0  0  0  0
  187.6620  176.0200  141.7960 S   0  0  0  0  0  0  0  0  0  0  0  0
  187.1120  176.4090  140.2530 C   0  0  0  0  0  0  0  0  0  0  0  0
  191.3190  171.1290  140.6640 C   0  0  0  0  0  2  0  0  0  0  0  0
  194.9660  175.8670  144.6100 C   0  0  0  0  0  2  0  0  0  0  0  0
  192.7430  174.2060  145.5040 C   0  0  0  0  0  2  0  0  0  0  0  0
  187.3660  175.6910  139.0390 N   0  0  0  0  0  2  0  0  0  0  0  0
  195.2190  171.3470  145.2230 O   0  0  0  0  0  0  0  0  0  0  0  0
  196.1680  174.9260  144.4350 C   0  0  0  0  0  2  0  0  0  0  0  0
  193.8860  175.5150  143.7710 O   0  0  0  0  0  0  0  0  0  0  0  0
  190.4280  177.5790  144.0830 C   0  0  0  0  0  0  0  0  0  0  0  0
  188.1210  177.1330  144.5610 O   0  0  0  0  0  0  0  0  0  0  0  0
  186.2920  178.1180  141.5650 N   0  0  0  0  0  0  0  0  0  0  0  0
  189.1240  178.1070  144.6120 C   0  0  0  0  0  2  0  0  0  0  0  0
  191.7400  175.3370  145.6920 C   0  0  0  0  0  2  0  0  0  0  0  0
  191.4750  178.3960  144.0370 C   0  0  0  0  0  2  0  0  0  0  0  0
  188.9160  173.9610  139.9220 C   0  0  0  0  0  3  0  0  0  0  0  0
  187.0340  177.7560  143.9350 C   0  0  1  0  0  3  0  0  0  0  0  0
  186.9540  177.3820  142.4850 C   0  0  0  0  0  0  0  0  0  0  0  0
  193.2450  171.1090  143.9560 C   0  0  0  0  0  0  0  0  0  0  0  0
  188.3370  174.0000  137.5760 C   0  0  0  0  0  3  0  0  0  0  0  0
  189.1580  172.8910  137.3550 C   0  0  0  0  0  0  0  0  0  0  0  0
  192.6810  171.4100  142.6730 N   0  0  0  0  0  2  0  0  0  0  0  0
  195.8190  173.7160  143.6870 N   0  0  0  0  0  2  0  0  0  0  0  0
  189.7390  172.8520  139.7110 C   0  0  0  0  0  0  0  0  0  0  0  0
  194.5490  173.2700  144.0990 N   0  0  0  0  0  0  0  0  0  0  0  0
  193.4570  169.0070  141.1660 O   0  0  0  0  0  0  0  0  0  0  0  0
  191.6180  168.1660  142.2460 O   0  0  0  0  0  1  0  0  0  0  0  0
  192.2400  169.1740  141.8140 C   0  0  0  0  0  0  0  0  0  0  0  0
  185.7350  177.4490  144.6790 C   0  0  0  0  0  2  0  0  0  0  0  0
  185.2590  178.6140  145.5410 C   0  0  2  0  0  3  0  0  0  0  0  0
  185.7090  179.8140  145.0180 F   0  0  0  0  0  0  0  0  0  0  0  0
  186.0170  177.0970  147.4840 C   0  0  0  0  0  1  0  0  0  0  0  0
  185.7570  178.4590  146.9420 C   0  0  0  0  0  0  0  0  0  0  0  0
  185.9410  179.4380  147.6480 O   0  0  0  0  0  0  0  0  0  0  0  0
  1 32  1  0  0  0  0
  2 39  1  6  0  0  0
  2 33  1  0  0  0  0
  3 25  1  0  0  0  0
  4 23  1  0  0  0  0
  5 35  1  0  0  0  0
  6 17  1  0  0  0  0
  6 27  1  0  0  0  0
  9 21  1  0  0  0  0
  9  3  1  0  0  0  0
 10 16  1  1  0  0  0
 11 18  2  0  0  0  0
 12 29  1  0  0  0  0
 13  4  2  0  0  0  0
 13 12  1  0  0  0  0
 14  7  1  0  0  0  0
 14  2  1  0  0  0  0
 16 25  1  0  0  0  0
 17 13  1  0  0  0  0
 19 15  1  0  0  0  0
 20 10  1  0  0  0  0
 20 15  1  0  0  0  0
 21 24  1  0  0  0  0
 22 24  1  0  0  0  0
 23 29  2  0  0  0  0
 26 21  2  0  0  0  0
 28 22  1  0  0  0  0
 28 40  1  1  0  0  0
 29 28  1  0  0  0  0
 30 11  1  0  0  0  0
 30  8  2  0  0  0  0
 31  6  2  0  0  0  0
 32 31  1  0  0  0  0
 32  5  2  0  0  0  0
 33 30  1  0  0  0  0
 34 36  1  0  0  0  0
 34 19  1  0  0  0  0
 35 27  2  0  0  0  0
 35  7  1  0  0  0  0
 36 10  1  0  0  0  0
 36 11  1  0  0  0  0
 37 39  2  0  0  0  0
 39 38  1  0  0  0  0
 40 41  1  0  0  0  0
 41 42  1  6  0  0  0
 41 44  1  0  0  0  0
 44 43  1  0  0  0  0
 44 45  2  0  0  0  0
M  END
>  <MODEL>
1

>  <REMARK>
 VINA RESULT:      -8.8      0.000      0.000
  Name = 
  4 active torsions:
  status: ('A' for Active; 'I' for Inactive)
    1  A    between atoms: C_2  and  C_26
    2  A    between atoms: C_2  and  C_35
    3  A    between atoms: CA_3  and  C_22
    4  A    between atoms: C_25  and  C_26
                            x       y       z     vdW  Elec       q    Type
                         _______ _______ _______ _____ _____    ______ ____

>  <TORSDO>
F 4

$$$$
=
 OpenBabel11042415153D

 45 48  0  0  1  0  0  0  0  0999 V2000
  187.7940  175.0770  135.4860 F   0  0  0  0  0  0  0  0  0  0  0  0
  190.3990  171.1110  140.1300 C   0  0  2  0  0  3  0  0  0  0  0  0
  189.7550  174.4670  144.4550 C   0  0  0  0  0  2  0  0  0  0  0  0
  185.5480  178.5420  141.5040 C   0  0  0  0  0  3  0  0  0  0  0  0
  188.5010  174.1560  137.5670 C   0  0  0  0  0  3  0  0  0  0  0  0
  187.0550  176.1500  138.9080 C   0  0  0  0  0  0  0  0  0  0  0  0
  189.2050  173.2090  139.7350 N   0  0  0  0  0  2  0  0  0  0  0  0
  191.6370  169.7110  142.3070 O   0  0  0  0  0  0  0  0  0  0  0  0
  189.8300  175.8000  143.7210 C   0  0  0  0  0  2  0  0  0  0  0  0
  192.5320  173.6690  143.2680 C   0  0  1  0  0  3  0  0  0  0  0  0
  193.3120  171.3350  142.6690 C   0  0  0  0  0  0  0  0  0  0  0  0
  186.7930  176.4830  142.2140 S   0  0  0  0  0  0  0  0  0  0  0  0
  186.1870  177.4340  140.9640 C   0  0  0  0  0  0  0  0  0  0  0  0
  189.9930  172.1590  139.1080 C   0  0  0  0  0  2  0  0  0  0  0  0
  194.2120  174.9450  144.1820 C   0  0  0  0  0  2  0  0  0  0  0  0
  191.9240  173.1890  144.5970 C   0  0  0  0  0  2  0  0  0  0  0  0
  186.3150  177.1950  139.5560 N   0  0  0  0  0  2  0  0  0  0  0  0
  194.1520  170.5050  143.1090 O   0  0  0  0  0  0  0  0  0  0  0  0
  195.3270  174.0730  143.5840 C   0  0  0  0  0  2  0  0  0  0  0  0
  193.0630  174.9780  143.3630 O   0  0  0  0  0  0  0  0  0  0  0  0
  189.7970  176.9610  144.6750 C   0  0  0  0  0  0  0  0  0  0  0  0
  187.4930  176.4900  145.1470 O   0  0  0  0  0  0  0  0  0  0  0  0
  185.5770  178.5890  142.8640 N   0  0  0  0  0  0  0  0  0  0  0  0
  188.5700  177.3260  145.4620 C   0  0  0  0  0  2  0  0  0  0  0  0
  191.0230  174.2230  145.2600 C   0  0  0  0  0  2  0  0  0  0  0  0
  190.9000  177.6850  144.8410 C   0  0  0  0  0  2  0  0  0  0  0  0
  187.7760  175.1860  139.6300 C   0  0  0  0  0  3  0  0  0  0  0  0
  186.4240  177.3520  144.8770 C   0  0  1  0  0  3  0  0  0  0  0  0
  186.2330  177.5350  143.4010 C   0  0  0  0  0  0  0  0  0  0  0  0
  192.0960  170.8460  142.0060 C   0  0  0  0  0  0  0  0  0  0  0  0
  187.0680  176.1050  137.5100 C   0  0  0  0  0  3  0  0  0  0  0  0
  187.7880  175.1120  136.8400 C   0  0  0  0  0  0  0  0  0  0  0  0
  191.4840  171.6210  140.9670 N   0  0  0  0  0  2  0  0  0  0  0  0
  194.8430  173.2370  142.4830 N   0  0  0  0  0  2  0  0  0  0  0  0
  188.4980  174.1890  138.9690 C   0  0  0  0  0  0  0  0  0  0  0  0
  193.5690  172.7370  142.8080 N   0  0  0  0  0  0  0  0  0  0  0  0
  191.9930  169.8900  138.6500 O   0  0  0  0  0  0  0  0  0  0  0  0
  190.1460  168.8160  139.4820 O   0  0  0  0  0  1  0  0  0  0  0  0
  190.8240  169.8750  139.4010 C   0  0  0  0  0  0  0  0  0  0  0  0
  185.1500  176.8630  145.5640 C   0  0  0  0  0  2  0  0  0  0  0  0
  184.5780  177.8830  146.5430 C   0  0  2  0  0  3  0  0  0  0  0  0
  184.2180  179.0410  145.8750 F   0  0  0  0  0  0  0  0  0  0  0  0
  186.0930  179.5980  147.7340 C   0  0  0  0  0  1  0  0  0  0  0  0
  185.5820  178.2050  147.6010 C   0  0  0  0  0  0  0  0  0  0  0  0
  185.9970  177.3340  148.3500 O   0  0  0  0  0  0  0  0  0  0  0  0
  1 32  1  0  0  0  0
  2 39  1  6  0  0  0
  2 33  1  0  0  0  0
  3 25  1  0  0  0  0
  4 23  1  0  0  0  0
  5 35  1  0  0  0  0
  6 17  1  0  0  0  0
  6 27  1  0  0  0  0
  9  3  1  0  0  0  0
  9 21  1  0  0  0  0
 10 20  1  0  0  0  0
 10 16  1  1  0  0  0
 11 36  1  0  0  0  0
 11 18  2  0  0  0  0
 12 29  1  0  0  0  0
 13  4  2  0  0  0  0
 13 12  1  0  0  0  0
 14  7  1  0  0  0  0
 14  2  1  0  0  0  0
 16 25  1  0  0  0  0
 17 13  1  0  0  0  0
 19 15  1  0  0  0  0
 20 15  1  0  0  0  0
 21 26  2  0  0  0  0
 21 24  1  0  0  0  0
 22 24  1  0  0  0  0
 23 29  2  0  0  0  0
 28 22  1  0  0  0  0
 28 40  1  6  0  0  0
 29 28  1  0  0  0  0
 30  8  2  0  0  0  0
 30 11  1  0  0  0  0
 31  6  2  0  0  0  0
 32 31  1  0  0  0  0
 32  5  2  0  0  0  0
 33 30  1  0  0  0  0
 34 36  1  0  0  0  0
 34 19  1  0  0  0  0
 35 27  2  0  0  0  0
 35  7  1  0  0  0  0
 36 10  1  0  0  0  0
 37 39  2  0  0  0  0
 39 38  1  0  0  0  0
 40 41  1  0  0  0  0
 41 42  1  6  0  0  0
 41 44  1  0  0  0  0
 44 43  1  0  0  0  0
 44 45  2  0  0  0  0
M  END
>  <MODEL>
2

>  <REMARK>
 VINA RESULT:      -8.6      1.547      1.930
  Name = 
  4 active torsions:
  status: ('A' for Active; 'I' for Inactive)
    1  A    between atoms: C_2  and  C_26
    2  A    between atoms: C_2  and  C_35
    3  A    between atoms: CA_3  and  C_22
    4  A    between atoms: C_25  and  C_26
                            x       y       z     vdW  Elec       q    Type
                         _______ _______ _______ _____ _____    ______ ____

>  <TORSDO>
F 4

$$$$
=
 OpenBabel11042415153D

 45 48  0  0  1  0  0  0  0  0999 V2000
  197.2930  175.9460  143.8710 F   0  0  0  0  0  0  0  0  0  0  0  0
  194.4230  174.8840  137.9790 C   0  0  2  0  0  3  0  0  0  0  0  0
  189.2050  174.5340  139.7180 C   0  0  0  0  0  2  0  0  0  0  0  0
  190.3110  177.1240  145.6400 C   0  0  0  0  0  3  0  0  0  0  0  0
  195.6910  175.6310  142.1360 C   0  0  0  0  0  3  0  0  0  0  0  0
  193.6590  176.3950  143.9120 C   0  0  0  0  0  0  0  0  0  0  0  0
  194.0140  175.3280  140.3490 N   0  0  0  0  0  2  0  0  0  0  0  0
  192.9300  174.2210  135.6200 O   0  0  0  0  0  0  0  0  0  0  0  0
  189.4690  174.0140  141.1250 C   0  0  0  0  0  2  0  0  0  0  0  0
  190.8130  172.1290  138.5390 C   0  0  1  0  0  3  0  0  0  0  0  0
  192.2010  172.1240  136.4210 C   0  0  0  0  0  0  0  0  0  0  0  0
  190.4150  176.6270  143.1840 S   0  0  0  0  0  0  0  0  0  0  0  0
  191.2330  176.8600  144.6370 C   0  0  0  0  0  0  0  0  0  0  0  0
  195.0110  174.9030  139.3800 C   0  0  0  0  0  2  0  0  0  0  0  0
  189.6760  170.1530  138.8450 C   0  0  0  0  0  2  0  0  0  0  0  0
  189.6660  172.8950  137.8580 C   0  0  0  0  0  2  0  0  0  0  0  0
  192.6480  176.7780  144.8550 N   0  0  0  0  0  2  0  0  0  0  0  0
  192.1260  171.6080  135.2740 O   0  0  0  0  0  0  0  0  0  0  0  0
  190.6150  169.3620  137.9220 C   0  0  0  0  0  2  0  0  0  0  0  0
  190.3410  171.2080  139.5070 O   0  0  0  0  0  0  0  0  0  0  0  0
  188.1900  173.6980  141.8500 C   0  0  0  0  0  0  0  0  0  0  0  0
  187.7080  176.0430  141.9910 O   0  0  0  0  0  0  0  0  0  0  0  0
  189.0170  177.1190  145.2180 N   0  0  0  0  0  0  0  0  0  0  0  0
  187.2280  174.7640  142.2930 C   0  0  0  0  0  2  0  0  0  0  0  0
  188.6310  173.4340  138.8370 C   0  0  0  0  0  2  0  0  0  0  0  0
  187.8900  172.4270  142.0940 C   0  0  0  0  0  2  0  0  0  0  0  0
  193.3520  176.0420  142.5880 C   0  0  0  0  0  3  0  0  0  0  0  0
  187.5930  176.7700  143.1810 C   0  0  1  0  0  3  0  0  0  0  0  0
  188.9080  176.8520  143.8970 C   0  0  0  0  0  0  0  0  0  0  0  0
  192.8830  173.4140  136.5870 C   0  0  0  0  0  0  0  0  0  0  0  0
  194.9920  176.3590  144.3350 C   0  0  0  0  0  3  0  0  0  0  0  0
  196.0060  175.9780  143.4520 C   0  0  0  0  0  0  0  0  0  0  0  0
  193.5590  173.7150  137.8140 N   0  0  0  0  0  2  0  0  0  0  0  0
  191.8840  170.0580  137.6980 N   0  0  0  0  0  2  0  0  0  0  0  0
  194.3590  175.6610  141.6970 C   0  0  0  0  0  0  0  0  0  0  0  0
  191.6340  171.4340  137.5410 N   0  0  0  0  0  0  0  0  0  0  0  0
  195.7280  175.9320  136.1290 O   0  0  0  0  0  0  0  0  0  0  0  0
  196.3450  173.8830  136.9510 O   0  0  0  0  0  1  0  0  0  0  0  0
  195.5470  174.8580  136.9910 C   0  0  0  0  0  0  0  0  0  0  0  0
  186.9990  178.1530  142.9140 C   0  0  0  0  0  2  0  0  0  0  0  0
  185.4840  178.1890  143.0880 C   0  0  2  0  0  3  0  0  0  0  0  0
  184.8740  178.5670  141.9060 F   0  0  0  0  0  0  0  0  0  0  0  0
  184.2900  178.6680  145.3240 C   0  0  0  0  0  1  0  0  0  0  0  0
  185.1100  179.1440  144.1750 C   0  0  0  0  0  0  0  0  0  0  0  0
  185.4610  180.3130  144.1240 O   0  0  0  0  0  0  0  0  0  0  0  0
  2 39  1  6  0  0  0
  2 14  1  0  0  0  0
  3  9  1  0  0  0  0
  5 32  1  0  0  0  0
  6 31  1  0  0  0  0
  6 17  1  0  0  0  0
  7 35  1  0  0  0  0
  8 30  2  0  0  0  0
  9 21  1  0  0  0  0
 10 16  1  6  0  0  0
 10 20  1  0  0  0  0
 11 30  1  0  0  0  0
 11 36  1  0  0  0  0
 12 29  1  0  0  0  0
 12 13  1  0  0  0  0
 13 17  1  0  0  0  0
 13  4  2  0  0  0  0
 14  7  1  0  0  0  0
 15 20  1  0  0  0  0
 16 25  1  0  0  0  0
 18 11  2  0  0  0  0
 19 15  1  0  0  0  0
 21 26  2  0  0  0  0
 21 24  1  0  0  0  0
 22 24  1  0  0  0  0
 22 28  1  0  0  0  0
 23  4  1  0  0  0  0
 25  3  1  0  0  0  0
 27  6  2  0  0  0  0
 28 40  1  6  0  0  0
 28 29  1  0  0  0  0
 29 23  2  0  0  0  0
 30 33  1  0  0  0  0
 32  1  1  0  0  0  0
 32 31  2  0  0  0  0
 33  2  1  0  0  0  0
 34 19  1  0  0  0  0
 35  5  2  0  0  0  0
 35 27  1  0  0  0  0
 36 34  1  0  0  0  0
 36 10  1  0  0  0  0
 37 39  2  0  0  0  0
 38 39  1  0  0  0  0
 40 41  1  0  0  0  0
 41 42  1  6  0  0  0
 41 44  1  0  0  0  0
 44 43  1  0  0  0  0
 45 44  2  0  0  0  0
M  END
>  <MODEL>
3

>  <REMARK>
 VINA RESULT:      -7.8      3.981      6.862
  Name = 
  4 active torsions:
  status: ('A' for Active; 'I' for Inactive)
    1  A    between atoms: C_2  and  C_26
    2  A    between atoms: C_2  and  C_35
    3  A    between atoms: CA_3  and  C_22
    4  A    between atoms: C_25  and  C_26
                            x       y       z     vdW  Elec       q    Type
                         _______ _______ _______ _____ _____    ______ ____

>  <TORSDO>
F 4

$$$$
=
 OpenBabel11042415153D

 45 48  0  0  1  0  0  0  0  0999 V2000
  197.8010  174.0050  146.0430 F   0  0  0  0  0  0  0  0  0  0  0  0
  196.0410  173.6500  139.6520 C   0  0  2  0  0  3  0  0  0  0  0  0
  190.5930  174.1500  140.3260 C   0  0  0  0  0  2  0  0  0  0  0  0
  190.8930  176.3120  146.5110 C   0  0  0  0  0  3  0  0  0  0  0  0
  196.5510  174.0280  144.0150 C   0  0  0  0  0  3  0  0  0  0  0  0
  194.3560  175.0730  145.4140 C   0  0  0  0  0  0  0  0  0  0  0  0
  195.2410  174.0800  141.9230 N   0  0  0  0  0  2  0  0  0  0  0  0
  194.9650  173.3350  137.0100 O   0  0  0  0  0  0  0  0  0  0  0  0
  190.4810  173.5460  141.7200 C   0  0  0  0  0  2  0  0  0  0  0  0
  191.9920  171.5440  139.3210 C   0  0  1  0  0  3  0  0  0  0  0  0
  193.7580  171.3710  137.5130 C   0  0  0  0  0  0  0  0  0  0  0  0
  191.4070  175.8860  144.0930 S   0  0  0  0  0  0  0  0  0  0  0  0
  191.9430  175.9260  145.6880 C   0  0  0  0  0  0  0  0  0  0  0  0
  196.3300  173.5210  141.1370 C   0  0  0  0  0  2  0  0  0  0  0  0
  190.5100  169.7860  139.2690 C   0  0  0  0  0  2  0  0  0  0  0  0
  191.1460  172.5200  138.4840 C   0  0  0  0  0  2  0  0  0  0  0  0
  193.2520  175.5930  146.1680 N   0  0  0  0  0  2  0  0  0  0  0  0
  193.8310  170.9130  136.3420 O   0  0  0  0  0  0  0  0  0  0  0  0
  191.4750  168.8760  138.4940 C   0  0  0  0  0  2  0  0  0  0  0  0
  191.1920  170.6870  140.1160 O   0  0  0  0  0  0  0  0  0  0  0  0
  189.0490  173.4320  142.1620 C   0  0  0  0  0  0  0  0  0  0  0  0
  188.9360  175.8190  142.3650 O   0  0  0  0  0  0  0  0  0  0  0  0
  189.7280  176.5450  145.8480 N   0  0  0  0  0  0  0  0  0  0  0  0
  188.2040  174.6320  142.4830 C   0  0  0  0  0  2  0  0  0  0  0  0
  190.0370  173.1960  139.2800 C   0  0  0  0  0  2  0  0  0  0  0  0
  188.5030  172.2240  142.2590 C   0  0  0  0  0  2  0  0  0  0  0  0
  194.2680  174.8230  144.0350 C   0  0  0  0  0  3  0  0  0  0  0  0
  188.7040  176.5150  143.5570 C   0  0  1  0  0  3  0  0  0  0  0  0
  189.8440  176.3450  144.5160 C   0  0  0  0  0  0  0  0  0  0  0  0
  194.5940  172.5160  137.8930 C   0  0  0  0  0  0  0  0  0  0  0  0
  195.5530  174.7930  146.0820 C   0  0  0  0  0  3  0  0  0  0  0  0
  196.6480  174.2720  145.3870 C   0  0  0  0  0  0  0  0  0  0  0  0
  195.0490  172.6550  139.2450 N   0  0  0  0  0  2  0  0  0  0  0  0
  192.8590  169.3490  138.5650 N   0  0  0  0  0  2  0  0  0  0  0  0
  195.3580  174.3040  143.3310 C   0  0  0  0  0  0  0  0  0  0  0  0
  192.8730  170.7510  138.4550 N   0  0  0  0  0  0  0  0  0  0  0  0
  197.9410  172.2210  138.8980 O   0  0  0  0  0  1  0  0  0  0  0  0
  197.8270  174.4160  138.2460 O   0  0  0  0  0  0  0  0  0  0  0  0
  197.3210  173.4640  138.8990 C   0  0  0  0  0  0  0  0  0  0  0  0
  188.4100  177.9880  143.2730 C   0  0  0  0  0  2  0  0  0  0  0  0
  186.9840  178.3860  143.6410 C   0  0  2  0  0  3  0  0  0  0  0  0
  186.5730  177.7050  144.7740 F   0  0  0  0  0  0  0  0  0  0  0  0
  184.6460  177.6970  142.7970 C   0  0  0  0  0  1  0  0  0  0  0  0
  186.0540  178.0880  142.5100 C   0  0  0  0  0  0  0  0  0  0  0  0
  186.4430  178.1500  141.3530 O   0  0  0  0  0  0  0  0  0  0  0  0
  2 39  1  6  0  0  0
  2 14  1  0  0  0  0
  3  9  1  0  0  0  0
  5 32  1  0  0  0  0
  6 31  1  0  0  0  0
  6 17  1  0  0  0  0
  7 35  1  0  0  0  0
  8 30  2  0  0  0  0
  9 21  1  0  0  0  0
 10 16  1  6  0  0  0
 10 20  1  0  0  0  0
 11 30  1  0  0  0  0
 11 36  1  0  0  0  0
 12 29  1  0  0  0  0
 12 13  1  0  0  0  0
 13 17  1  0  0  0  0
 13  4  2  0  0  0  0
 14  7  1  0  0  0  0
 15 20  1  0  0  0  0
 16 25  1  0  0  0  0
 18 11  2  0  0  0  0
 19 34  1  0  0  0  0
 19 15  1  0  0  0  0
 21 26  2  0  0  0  0
 21 24  1  0  0  0  0
 22 24  1  0  0  0  0
 22 28  1  0  0  0  0
 23  4  1  0  0  0  0
 25  3  1  0  0  0  0
 27  6  2  0  0  0  0
 28 40  1  6  0  0  0
 28 29  1  0  0  0  0
 29 23  2  0  0  0  0
 30 33  1  0  0  0  0
 32  1  1  0  0  0  0
 32 31  2  0  0  0  0
 33  2  1  0  0  0  0
 35  5  2  0  0  0  0
 35 27  1  0  0  0  0
 36 34  1  0  0  0  0
 36 10  1  0  0  0  0
 37 39  1  0  0  0  0
 38 39  2  0  0  0  0
 40 41  1  0  0  0  0
 41 42  1  1  0  0  0
 44 43  1  0  0  0  0
 44 41  1  0  0  0  0
 45 44  2  0  0  0  0
M  END
>  <MODEL>
4

>  <REMARK>
 VINA RESULT:      -7.2      3.830      6.945
  Name = 
  4 active torsions:
  status: ('A' for Active; 'I' for Inactive)
    1  A    between atoms: C_2  and  C_26
    2  A    between atoms: C_2  and  C_35
    3  A    between atoms: CA_3  and  C_22
    4  A    between atoms: C_25  and  C_26
                            x       y       z     vdW  Elec       q    Type
                         _______ _______ _______ _____ _____    ______ ____

>  <TORSDO>
F 4

$$$$
=
 OpenBabel11042415153D

 45 48  0  0  1  0  0  0  0  0999 V2000
  186.9910  175.6670  142.3160 F   0  0  0  0  0  0  0  0  0  0  0  0
  190.8150  171.8510  138.4570 C   0  0  2  0  0  3  0  0  0  0  0  0
  195.6880  173.1460  140.6840 C   0  0  0  0  0  2  0  0  0  0  0  0
  193.2230  175.8880  146.1070 C   0  0  0  0  0  3  0  0  0  0  0  0
  188.8480  174.5110  141.3720 C   0  0  0  0  0  3  0  0  0  0  0  0
  190.3930  175.2350  143.5980 C   0  0  0  0  0  0  0  0  0  0  0  0
  190.7820  173.3050  140.4230 N   0  0  0  0  0  2  0  0  0  0  0  0
  192.7310  170.4650  136.8310 O   0  0  0  0  0  0  0  0  0  0  0  0
  195.3520  174.5530  141.1620 C   0  0  0  0  0  2  0  0  0  0  0  0
  194.8310  173.9380  137.7860 C   0  0  1  0  0  3  0  0  0  0  0  0
  193.7870  172.4240  136.0450 C   0  0  0  0  0  0  0  0  0  0  0  0
  193.5750  174.3920  144.1240 S   0  0  0  0  0  0  0  0  0  0  0  0
  192.5310  175.3570  145.0270 C   0  0  0  0  0  0  0  0  0  0  0  0
  190.0480  172.9090  139.2320 C   0  0  0  0  0  2  0  0  0  0  0  0
  196.3240  175.4290  136.8680 C   0  0  0  0  0  2  0  0  0  0  0  0
  195.8640  172.8690  138.1840 C   0  0  0  0  0  2  0  0  0  0  0  0
  191.1530  175.6380  144.7460 N   0  0  0  0  0  2  0  0  0  0  0  0
  194.1340  171.9090  134.9480 O   0  0  0  0  0  0  0  0  0  0  0  0
  195.7200  175.3080  135.4610 C   0  0  0  0  0  2  0  0  0  0  0  0
  195.3560  175.2500  137.8810 O   0  0  0  0  0  0  0  0  0  0  0  0
  196.5550  175.2450  141.7380 C   0  0  0  0  0  0  0  0  0  0  0  0
  196.4830  173.7700  143.6270 O   0  0  0  0  0  0  0  0  0  0  0  0
  194.5320  175.5190  146.1610 N   0  0  0  0  0  0  0  0  0  0  0  0
  197.1870  174.8240  143.0350 C   0  0  0  0  0  2  0  0  0  0  0  0
  196.6080  173.1940  139.4730 C   0  0  0  0  0  2  0  0  0  0  0  0
  197.0930  176.2590  141.0670 C   0  0  0  0  0  2  0  0  0  0  0  0
  190.9520  174.4690  142.5630 C   0  0  0  0  0  3  0  0  0  0  0  0
  196.2670  174.1680  144.9520 C   0  0  1  0  0  3  0  0  0  0  0  0
  194.8800  174.7070  145.1380 C   0  0  0  0  0  0  0  0  0  0  0  0
  192.8200  171.7210  136.8970 C   0  0  0  0  0  0  0  0  0  0  0  0
  189.0560  175.6350  143.5050 C   0  0  0  0  0  3  0  0  0  0  0  0
  188.2850  175.2750  142.3970 C   0  0  0  0  0  0  0  0  0  0  0  0
  191.9300  172.4660  137.7380 N   0  0  0  0  0  2  0  0  0  0  0  0
  194.3730  174.7350  135.4840 N   0  0  0  0  0  2  0  0  0  0  0  0
  190.1880  174.1030  141.4510 C   0  0  0  0  0  0  0  0  0  0  0  0
  194.3310  173.6930  136.4280 N   0  0  0  0  0  0  0  0  0  0  0  0
  189.5940  169.8300  137.6540 O   0  0  0  0  0  1  0  0  0  0  0  0
  189.3130  171.8400  136.5870 O   0  0  0  0  0  0  0  0  0  0  0  0
  189.8730  171.1820  137.5050 C   0  0  0  0  0  0  0  0  0  0  0  0
  196.5710  173.0230  145.9170 C   0  0  0  0  0  2  0  0  0  0  0  0
  195.9760  171.6940  145.4620 C   0  0  2  0  0  3  0  0  0  0  0  0
  194.7800  171.4550  146.1150 F   0  0  0  0  0  0  0  0  0  0  0  0
  196.6540  169.6280  146.8490 C   0  0  0  0  0  1  0  0  0  0  0  0
  196.9300  170.5770  145.7360 C   0  0  0  0  0  0  0  0  0  0  0  0
  197.9410  170.4440  145.0620 O   0  0  0  0  0  0  0  0  0  0  0  0
  1 32  1  0  0  0  0
  2 39  1  6  0  0  0
  2 14  1  0  0  0  0
  3  9  1  0  0  0  0
  4 23  1  0  0  0  0
  5 35  2  0  0  0  0
  5 32  1  0  0  0  0
  6 17  1  0  0  0  0
  7 35  1  0  0  0  0
  8 30  2  0  0  0  0
  9 21  1  0  0  0  0
 10 20  1  0  0  0  0
 10 16  1  6  0  0  0
 11 36  1  0  0  0  0
 11 30  1  0  0  0  0
 12 13  1  0  0  0  0
 12 29  1  0  0  0  0
 13  4  2  0  0  0  0
 14  7  1  0  0  0  0
 15 20  1  0  0  0  0
 16 25  1  0  0  0  0
 17 13  1  0  0  0  0
 18 11  2  0  0  0  0
 19 34  1  0  0  0  0
 19 15  1  0  0  0  0
 21 24  1  0  0  0  0
 22 28  1  0  0  0  0
 24 22  1  0  0  0  0
 25  3  1  0  0  0  0
 26 21  2  0  0  0  0
 27  6  2  0  0  0  0
 28 29  1  0  0  0  0
 28 40  1  1  0  0  0
 29 23  2  0  0  0  0
 30 33  1  0  0  0  0
 31  6  1  0  0  0  0
 32 31  2  0  0  0  0
 33  2  1  0  0  0  0
 34 36  1  0  0  0  0
 35 27  1  0  0  0  0
 36 10  1  0  0  0  0
 38 39  2  0  0  0  0
 39 37  1  0  0  0  0
 41 44  1  0  0  0  0
 41 40  1  0  0  0  0
 41 42  1  1  0  0  0
 44 43  1  0  0  0  0
 45 44  2  0  0  0  0
M  END
>  <MODEL>
5

>  <REMARK>
 VINA RESULT:      -7.1      4.392      8.149
  Name = 
  4 active torsions:
  status: ('A' for Active; 'I' for Inactive)
    1  A    between atoms: C_2  and  C_26
    2  A    between atoms: C_2  and  C_35
    3  A    between atoms: CA_3  and  C_22
    4  A    between atoms: C_25  and  C_26
                            x       y       z     vdW  Elec       q    Type
                         _______ _______ _______ _____ _____    ______ ____

>  <TORSDO>
F 4

$$$$
=
 OpenBabel11042415153D

 45 48  0  0  1  0  0  0  0  0999 V2000
  196.9890  176.9230  143.8470 F   0  0  0  0  0  0  0  0  0  0  0  0
  190.7830  176.0900  146.0510 C   0  0  2  0  0  3  0  0  0  0  0  0
  188.8270  173.2160  141.7740 C   0  0  0  0  0  2  0  0  0  0  0  0
  194.6920  171.7670  139.2200 C   0  0  0  0  0  3  0  0  0  0  0  0
  194.7240  176.2250  144.0770 C   0  0  0  0  0  3  0  0  0  0  0  0
  195.1110  174.3780  142.0020 C   0  0  0  0  0  0  0  0  0  0  0  0
  192.3840  175.4710  144.3090 N   0  0  0  0  0  2  0  0  0  0  0  0
  187.9970  175.7390  146.6440 O   0  0  0  0  0  0  0  0  0  0  0  0
  189.7350  173.7800  140.6880 C   0  0  0  0  0  2  0  0  0  0  0  0
  187.9070  176.1140  142.4920 C   0  0  1  0  0  3  0  0  0  0  0  0
  187.2340  176.9690  144.7790 C   0  0  0  0  0  0  0  0  0  0  0  0
  192.8320  172.2460  140.8340 S   0  0  0  0  0  0  0  0  0  0  0  0
  194.4140  172.5410  140.3390 C   0  0  0  0  0  0  0  0  0  0  0  0
  192.1040  176.4180  145.3770 C   0  0  0  0  0  2  0  0  0  0  0  0
  186.6160  177.0050  140.8100 C   0  0  0  0  0  2  0  0  0  0  0  0
  187.0990  174.8160  142.6740 C   0  0  0  0  0  2  0  0  0  0  0  0
  195.3470  173.4560  140.9280 N   0  0  0  0  0  2  0  0  0  0  0  0
  186.1720  177.3440  145.3440 O   0  0  0  0  0  0  0  0  0  0  0  0
  186.1780  178.2090  141.6580 C   0  0  0  0  0  2  0  0  0  0  0  0
  187.9120  176.5580  141.1470 O   0  0  0  0  0  0  0  0  0  0  0  0
  189.3650  173.2560  139.3280 C   0  0  0  0  0  0  0  0  0  0  0  0
  190.1890  171.0930  139.9510 O   0  0  0  0  0  0  0  0  0  0  0  0
  193.6490  170.9960  138.8080 N   0  0  0  0  0  0  0  0  0  0  0  0
  189.5740  171.8230  138.9290 C   0  0  0  0  0  2  0  0  0  0  0  0
  187.4130  173.7560  141.6260 C   0  0  0  0  0  2  0  0  0  0  0  0
  188.8170  174.0900  138.4490 C   0  0  0  0  0  2  0  0  0  0  0  0
  193.8630  174.4850  142.6360 C   0  0  0  0  0  3  0  0  0  0  0  0
  191.2620  170.4330  139.3390 C   0  0  1  0  0  3  0  0  0  0  0  0
  192.5540  171.1540  139.5850 C   0  0  0  0  0  0  0  0  0  0  0  0
  188.2960  176.3480  145.5810 C   0  0  0  0  0  0  0  0  0  0  0  0
  196.1600  175.2050  142.4180 C   0  0  0  0  0  3  0  0  0  0  0  0
  195.9680  176.1270  143.4520 C   0  0  0  0  0  0  0  0  0  0  0  0
  189.6680  176.5050  145.1990 N   0  0  0  0  0  2  0  0  0  0  0  0
  187.0530  178.4180  142.8130 N   0  0  0  0  0  2  0  0  0  0  0  0
  193.6620  175.4020  143.6710 C   0  0  0  0  0  0  0  0  0  0  0  0
  187.3900  177.1710  143.3690 N   0  0  0  0  0  0  0  0  0  0  0  0
  190.0660  178.0080  147.4760 O   0  0  0  0  0  0  0  0  0  0  0  0
  191.2720  176.2860  148.3910 O   0  0  0  0  0  1  0  0  0  0  0  0
  190.7340  176.7950  147.3710 C   0  0  0  0  0  0  0  0  0  0  0  0
  191.3260  168.9740  139.7880 C   0  0  0  0  0  2  0  0  0  0  0  0
  191.1530  168.8120  141.2950 C   0  0  2  0  0  3  0  0  0  0  0  0
  190.4930  169.9080  141.8230 F   0  0  0  0  0  0  0  0  0  0  0  0
  192.6690  169.1300  143.3580 C   0  0  0  0  0  1  0  0  0  0  0  0
  192.4840  168.6600  141.9560 C   0  0  0  0  0  0  0  0  0  0  0  0
  193.4250  168.1660  141.3540 O   0  0  0  0  0  0  0  0  0  0  0  0
  2 39  1  1  0  0  0
  4 13  2  0  0  0  0
  6 31  2  0  0  0  0
  6 27  1  0  0  0  0
  7 14  1  0  0  0  0
  9  3  1  0  0  0  0
 10 16  1  6  0  0  0
 10 36  1  0  0  0  0
 11 18  2  0  0  0  0
 11 30  1  0  0  0  0
 13 12  1  0  0  0  0
 13 17  1  0  0  0  0
 14  2  1  0  0  0  0
 15 20  1  0  0  0  0
 15 19  1  0  0  0  0
 17  6  1  0  0  0  0
 19 34  1  0  0  0  0
 20 10  1  0  0  0  0
 21  9  1  0  0  0  0
 23  4  1  0  0  0  0
 23 29  2  0  0  0  0
 24 21  1  0  0  0  0
 24 22  1  0  0  0  0
 25  3  1  0  0  0  0
 25 16  1  0  0  0  0
 26 21  2  0  0  0  0
 27 35  2  0  0  0  0
 28 29  1  0  0  0  0
 28 40  1  1  0  0  0
 28 22  1  0  0  0  0
 29 12  1  0  0  0  0
 30  8  2  0  0  0  0
 31 32  1  0  0  0  0
 32  1  1  0  0  0  0
 32  5  2  0  0  0  0
 33 30  1  0  0  0  0
 33  2  1  0  0  0  0
 34 36  1  0  0  0  0
 35  5  1  0  0  0  0
 35  7  1  0  0  0  0
 36 11  1  0  0  0  0
 39 37  2  0  0  0  0
 39 38  1  0  0  0  0
 40 41  1  0  0  0  0
 41 42  1  1  0  0  0
 41 44  1  0  0  0  0
 44 43  1  0  0  0  0
 45 44  2  0  0  0  0
M  END
>  <MODEL>
6

>  <REMARK>
 VINA RESULT:      -7.1      3.237      8.949
  Name = 
  4 active torsions:
  status: ('A' for Active; 'I' for Inactive)
    1  A    between atoms: C_2  and  C_26
    2  A    between atoms: C_2  and  C_35
    3  A    between atoms: CA_3  and  C_22
    4  A    between atoms: C_25  and  C_26
                            x       y       z     vdW  Elec       q    Type
                         _______ _______ _______ _____ _____    ______ ____

>  <TORSDO>
F 4

$$$$
=
 OpenBabel11042415153D

 45 48  0  0  1  0  0  0  0  0999 V2000
  189.0690  170.4750  138.5080 F   0  0  0  0  0  0  0  0  0  0  0  0
  187.6080  176.6080  140.5880 C   0  0  2  0  0  3  0  0  0  0  0  0
  191.1010  176.8270  144.8460 C   0  0  0  0  0  2  0  0  0  0  0  0
  194.6780  171.6400  143.0280 C   0  0  0  0  0  3  0  0  0  0  0  0
  189.0770  172.5520  139.6740 C   0  0  0  0  0  3  0  0  0  0  0  0
  191.5160  171.8420  140.8620 C   0  0  0  0  0  0  0  0  0  0  0  0
  189.1170  174.7060  140.8810 N   0  0  0  0  0  2  0  0  0  0  0  0
  187.0560  179.1350  141.8310 O   0  0  0  0  0  0  0  0  0  0  0  0
  191.1490  175.3410  145.1770 C   0  0  0  0  0  2  0  0  0  0  0  0
  187.9910  176.7820  145.1440 C   0  0  1  0  0  3  0  0  0  0  0  0
  186.3240  178.2030  143.8730 C   0  0  0  0  0  0  0  0  0  0  0  0
  193.2740  173.7180  142.9830 S   0  0  0  0  0  0  0  0  0  0  0  0
  193.5500  172.1600  142.4090 C   0  0  0  0  0  0  0  0  0  0  0  0
  187.8450  175.1320  140.3190 C   0  0  0  0  0  2  0  0  0  0  0  0
  187.3830  176.4730  147.3410 C   0  0  0  0  0  2  0  0  0  0  0  0
  188.9250  177.9820  145.3810 C   0  0  0  0  0  2  0  0  0  0  0  0
  192.7560  171.4360  141.4590 N   0  0  0  0  0  2  0  0  0  0  0  0
  185.5410  179.1540  144.1330 O   0  0  0  0  0  0  0  0  0  0  0  0
  185.9050  176.7960  147.0730 C   0  0  0  0  0  2  0  0  0  0  0  0
  188.0070  175.8690  146.2270 O   0  0  0  0  0  0  0  0  0  0  0  0
  191.9630  175.0730  146.4110 C   0  0  0  0  0  0  0  0  0  0  0  0
  193.9560  175.6410  145.2040 O   0  0  0  0  0  0  0  0  0  0  0  0
  195.2570  172.4860  143.9240 N   0  0  0  0  0  0  0  0  0  0  0  0
  193.4540  175.2540  146.4520 C   0  0  0  0  0  2  0  0  0  0  0  0
  190.3030  177.5860  145.8950 C   0  0  0  0  0  2  0  0  0  0  0  0
  191.3390  174.6760  147.5160 C   0  0  0  0  0  2  0  0  0  0  0  0
  190.9110  173.0740  141.1600 C   0  0  0  0  0  3  0  0  0  0  0  0
  195.0170  174.7650  144.9460 C   0  0  1  0  0  3  0  0  0  0  0  0
  194.5990  173.6630  144.0200 C   0  0  0  0  0  0  0  0  0  0  0  0
  186.9040  178.0950  142.5280 C   0  0  0  0  0  0  0  0  0  0  0  0
  190.8860  170.9720  139.9660 C   0  0  0  0  0  3  0  0  0  0  0  0
  189.6700  171.3240  139.3740 C   0  0  0  0  0  0  0  0  0  0  0  0
  187.2190  176.8070  141.9840 N   0  0  0  0  0  2  0  0  0  0  0  0
  185.5670  176.6990  145.6510 N   0  0  0  0  0  2  0  0  0  0  0  0
  189.6970  173.4350  140.5710 C   0  0  0  0  0  0  0  0  0  0  0  0
  186.6200  177.2370  144.8890 N   0  0  0  0  0  0  0  0  0  0  0  0
  186.7700  177.1180  138.2940 O   0  0  0  0  0  0  0  0  0  0  0  0
  185.4160  177.4580  140.1130 O   0  0  0  0  0  1  0  0  0  0  0  0
  186.5360  177.0940  139.6630 C   0  0  0  0  0  0  0  0  0  0  0  0
  196.2300  175.5290  144.4160 C   0  0  0  0  0  2  0  0  0  0  0  0
  195.8590  176.5670  143.3610 C   0  0  2  0  0  3  0  0  0  0  0  0
  194.4910  176.5770  143.1580 F   0  0  0  0  0  0  0  0  0  0  0  0
  197.6980  175.3140  142.0570 C   0  0  0  0  0  1  0  0  0  0  0  0
  196.5570  176.2700  142.0740 C   0  0  0  0  0  0  0  0  0  0  0  0
  196.2060  176.8140  141.0370 O   0  0  0  0  0  0  0  0  0  0  0  0
  1 32  1  0  0  0  0
  2 39  1  6  0  0  0
  2 33  1  0  0  0  0
  3  9  1  0  0  0  0
  3 25  1  0  0  0  0
  4 23  1  0  0  0  0
  5 35  1  0  0  0  0
  6 27  1  0  0  0  0
  6 17  1  0  0  0  0
  8 30  2  0  0  0  0
  9 21  1  0  0  0  0
 10 16  1  1  0  0  0
 10 20  1  0  0  0  0
 11 18  2  0  0  0  0
 11 36  1  0  0  0  0
 12 29  1  0  0  0  0
 13 12  1  0  0  0  0
 13  4  2  0  0  0  0
 14  2  1  0  0  0  0
 14  7  1  0  0  0  0
 16 25  1  0  0  0  0
 17 13  1  0  0  0  0
 19 15  1  0  0  0  0
 20 15  1  0  0  0  0
 21 24  1  0  0  0  0
 21 26  2  0  0  0  0
 22 24  1  0  0  0  0
 23 29  2  0  0  0  0
 28 40  1  6  0  0  0
 28 22  1  0  0  0  0
 29 28  1  0  0  0  0
 30 11  1  0  0  0  0
 31  6  2  0  0  0  0
 32  5  2  0  0  0  0
 32 31  1  0  0  0  0
 33 30  1  0  0  0  0
 34 19  1  0  0  0  0
 35  7  1  0  0  0  0
 35 27  2  0  0  0  0
 36 10  1  0  0  0  0
 36 34  1  0  0  0  0
 37 39  2  0  0  0  0
 39 38  1  0  0  0  0
 41 42  1  6  0  0  0
 41 40  1  0  0  0  0
 43 44  1  0  0  0  0
 44 41  1  0  0  0  0
 45 44  2  0  0  0  0
M  END
>  <MODEL>
7

>  <REMARK>
 VINA RESULT:      -7.0      3.068      8.134
  Name = 
  4 active torsions:
  status: ('A' for Active; 'I' for Inactive)
    1  A    between atoms: C_2  and  C_26
    2  A    between atoms: C_2  and  C_35
    3  A    between atoms: CA_3  and  C_22
    4  A    between atoms: C_25  and  C_26
                            x       y       z     vdW  Elec       q    Type
                         _______ _______ _______ _____ _____    ______ ____

>  <TORSDO>
F 4

$$$$
=
 OpenBabel11042415153D

 45 48  0  0  1  0  0  0  0  0999 V2000
  187.1160  176.9510  144.6080 F   0  0  0  0  0  0  0  0  0  0  0  0
  193.6710  175.9530  144.9410 C   0  0  2  0  0  3  0  0  0  0  0  0
  194.1050  172.3130  140.8250 C   0  0  0  0  0  2  0  0  0  0  0  0
  188.1910  173.5180  138.2580 C   0  0  0  0  0  3  0  0  0  0  0  0
  189.3410  176.2290  144.1560 C   0  0  0  0  0  3  0  0  0  0  0  0
  188.4880  175.2520  141.6690 C   0  0  0  0  0  0  0  0  0  0  0  0
  191.6430  175.4890  143.6560 N   0  0  0  0  0  2  0  0  0  0  0  0
  196.4330  175.1730  144.9700 O   0  0  0  0  0  0  0  0  0  0  0  0
  192.7110  171.7040  140.9140 C   0  0  0  0  0  2  0  0  0  0  0  0
  194.5900  171.6100  143.8310 C   0  0  1  0  0  3  0  0  0  0  0  0
  196.0010  172.9100  145.4840 C   0  0  0  0  0  0  0  0  0  0  0  0
  190.4190  173.7900  139.3790 S   0  0  0  0  0  0  0  0  0  0  0  0
  188.7600  174.0760  139.3950 C   0  0  0  0  0  0  0  0  0  0  0  0
  192.1520  175.9530  144.9370 C   0  0  0  0  0  2  0  0  0  0  0  0
  194.7720  169.3360  144.1220 C   0  0  0  0  0  2  0  0  0  0  0  0
  195.6560  171.7390  142.7280 C   0  0  0  0  0  2  0  0  0  0  0  0
  188.0090  174.7530  140.4120 N   0  0  0  0  0  2  0  0  0  0  0  0
  197.0920  172.7430  146.0910 O   0  0  0  0  0  0  0  0  0  0  0  0
  195.2650  169.4680  145.5710 C   0  0  0  0  0  2  0  0  0  0  0  0
  193.8920  170.3800  143.7600 O   0  0  0  0  0  0  0  0  0  0  0  0
  192.5450  170.5570  139.9560 C   0  0  0  0  0  0  0  0  0  0  0  0
  192.5770  172.1010  138.1220 O   0  0  0  0  0  0  0  0  0  0  0  0
  189.0830  172.8900  137.4450 N   0  0  0  0  0  0  0  0  0  0  0  0
  192.4990  170.7470  138.4670 C   0  0  0  0  0  2  0  0  0  0  0  0
  195.1510  171.3400  141.3470 C   0  0  0  0  0  2  0  0  0  0  0  0
  192.4500  169.3240  140.4450 C   0  0  0  0  0  2  0  0  0  0  0  0
  189.8310  175.1280  142.0600 C   0  0  0  0  0  3  0  0  0  0  0  0
  191.5180  172.3170  137.2330 C   0  0  1  0  0  3  0  0  0  0  0  0
  190.3460  172.9440  137.9270 C   0  0  0  0  0  0  0  0  0  0  0  0
  195.5690  174.2710  145.1400 C   0  0  0  0  0  0  0  0  0  0  0  0
  187.5800  175.8690  142.5360 C   0  0  0  0  0  3  0  0  0  0  0  0
  188.0030  176.3560  143.7760 C   0  0  0  0  0  0  0  0  0  0  0  0
  194.1720  174.5860  145.0780 N   0  0  0  0  0  2  0  0  0  0  0  0
  194.9700  170.7860  146.1370 N   0  0  0  0  0  2  0  0  0  0  0  0
  190.2640  175.6130  143.2970 C   0  0  0  0  0  0  0  0  0  0  0  0
  195.1970  171.7700  145.1570 N   0  0  0  0  0  0  0  0  0  0  0  0
  194.9410  177.9150  145.8120 O   0  0  0  0  0  0  0  0  0  0  0  0
  193.8060  176.5490  147.2610 O   0  0  0  0  0  1  0  0  0  0  0  0
  194.1440  176.8090  146.0750 C   0  0  0  0  0  0  0  0  0  0  0  0
  191.9800  173.1400  136.0320 C   0  0  0  0  0  2  0  0  0  0  0  0
  191.5090  174.5900  136.0930 C   0  0  2  0  0  3  0  0  0  0  0  0
  190.9230  174.9560  134.8940 F   0  0  0  0  0  0  0  0  0  0  0  0
  192.8560  176.7270  135.5720 C   0  0  0  0  0  1  0  0  0  0  0  0
  192.6600  175.4970  136.3880 C   0  0  0  0  0  0  0  0  0  0  0  0
  193.4470  175.2310  137.2840 O   0  0  0  0  0  0  0  0  0  0  0  0
  2 33  1  0  0  0  0
  2 39  1  1  0  0  0
  3  9  1  0  0  0  0
  3 25  1  0  0  0  0
  4 13  2  0  0  0  0
  6 27  2  0  0  0  0
  6 31  1  0  0  0  0
  7 14  1  0  0  0  0
  8 30  2  0  0  0  0
 10 16  1  6  0  0  0
 10 36  1  0  0  0  0
 11 18  2  0  0  0  0
 12 13  1  0  0  0  0
 13 17  1  0  0  0  0
 14  2  1  0  0  0  0
 15 19  1  0  0  0  0
 17  6  1  0  0  0  0
 19 34  1  0  0  0  0
 20 10  1  0  0  0  0
 20 15  1  0  0  0  0
 21 26  2  0  0  0  0
 21  9  1  0  0  0  0
 22 24  1  0  0  0  0
 23 29  2  0  0  0  0
 23  4  1  0  0  0  0
 24 21  1  0  0  0  0
 25 16  1  0  0  0  0
 27 35  1  0  0  0  0
 28 40  1  6  0  0  0
 28 29  1  0  0  0  0
 28 22  1  0  0  0  0
 29 12  1  0  0  0  0
 30 11  1  0  0  0  0
 31 32  2  0  0  0  0
 32  5  1  0  0  0  0
 32  1  1  0  0  0  0
 33 30  1  0  0  0  0
 35  7  1  0  0  0  0
 35  5  2  0  0  0  0
 36 11  1  0  0  0  0
 36 34  1  0  0  0  0
 37 39  2  0  0  0  0
 39 38  1  0  0  0  0
 40 41  1  0  0  0  0
 41 42  1  6  0  0  0
 41 44  1  0  0  0  0
 43 44  1  0  0  0  0
 44 45  2  0  0  0  0
M  END
>  <MODEL>
8

>  <REMARK>
 VINA RESULT:      -7.0      2.847      7.573
  Name = 
  4 active torsions:
  status: ('A' for Active; 'I' for Inactive)
    1  A    between atoms: C_2  and  C_26
    2  A    between atoms: C_2  and  C_35
    3  A    between atoms: CA_3  and  C_22
    4  A    between atoms: C_25  and  C_26
                            x       y       z     vdW  Elec       q    Type
                         _______ _______ _______ _____ _____    ______ ____

>  <TORSDO>
F 4

$$$$
=
 OpenBabel11042415153D

 45 48  0  0  1  0  0  0  0  0999 V2000
  187.1420  176.8680  144.5000 F   0  0  0  0  0  0  0  0  0  0  0  0
  193.6800  175.7880  144.8930 C   0  0  2  0  0  3  0  0  0  0  0  0
  194.0790  172.0220  140.8880 C   0  0  0  0  0  2  0  0  0  0  0  0
  188.1940  173.2340  138.2590 C   0  0  0  0  0  3  0  0  0  0  0  0
  189.3580  176.1020  144.0790 C   0  0  0  0  0  3  0  0  0  0  0  0
  188.5010  175.0630  141.6190 C   0  0  0  0  0  0  0  0  0  0  0  0
  191.6510  175.3140  143.6130 N   0  0  0  0  0  2  0  0  0  0  0  0
  196.4300  174.9710  144.9560 O   0  0  0  0  0  0  0  0  0  0  0  0
  192.6760  171.4360  140.9880 C   0  0  0  0  0  2  0  0  0  0  0  0
  194.5420  171.4020  143.9140 C   0  0  1  0  0  3  0  0  0  0  0  0
  195.9650  172.7300  145.5350 C   0  0  0  0  0  0  0  0  0  0  0  0
  190.4200  173.5080  139.3820 S   0  0  0  0  0  0  0  0  0  0  0  0
  188.7650  173.8170  139.3820 C   0  0  0  0  0  0  0  0  0  0  0  0
  192.1620  175.8100  144.8810 C   0  0  0  0  0  2  0  0  0  0  0  0
  194.6910  169.1350  144.2730 C   0  0  0  0  0  2  0  0  0  0  0  0
  195.6140  171.4830  142.8130 C   0  0  0  0  0  2  0  0  0  0  0  0
  188.0200  174.5340  140.3750 N   0  0  0  0  0  2  0  0  0  0  0  0
  197.0510  172.5660  146.1520 O   0  0  0  0  0  0  0  0  0  0  0  0
  195.1800  169.3030  145.7200 C   0  0  0  0  0  2  0  0  0  0  0  0
  193.8270  170.1800  143.8770 O   0  0  0  0  0  0  0  0  0  0  0  0
  192.4980  170.2640  140.0640 C   0  0  0  0  0  0  0  0  0  0  0  0
  192.5600  171.7520  138.1850 O   0  0  0  0  0  0  0  0  0  0  0  0
  189.0800  172.5700  137.4690 N   0  0  0  0  0  0  0  0  0  0  0  0
  192.4610  170.4100  138.5690 C   0  0  0  0  0  2  0  0  0  0  0  0
  195.1090  171.0500  141.4430 C   0  0  0  0  0  2  0  0  0  0  0  0
  192.3840  169.0470  140.5880 C   0  0  0  0  0  2  0  0  0  0  0  0
  189.8400  174.9320  142.0200 C   0  0  0  0  0  3  0  0  0  0  0  0
  191.5070  171.9560  137.2850 C   0  0  1  0  0  3  0  0  0  0  0  0
  190.3410  172.6200  137.9550 C   0  0  0  0  0  0  0  0  0  0  0  0
  195.5530  174.0860  145.1490 C   0  0  0  0  0  0  0  0  0  0  0  0
  187.5980  175.7180  142.4630 C   0  0  0  0  0  3  0  0  0  0  0  0
  188.0230  176.2360  143.6900 C   0  0  0  0  0  0  0  0  0  0  0  0
  194.1610  174.4190  145.0720 N   0  0  0  0  0  2  0  0  0  0  0  0
  194.9010  170.6410  146.2460 N   0  0  0  0  0  2  0  0  0  0  0  0
  190.2750  175.4480  143.2440 C   0  0  0  0  0  0  0  0  0  0  0  0
  195.1460  171.5930  145.2380 N   0  0  0  0  0  0  0  0  0  0  0  0
  194.9410  177.7800  145.7070 O   0  0  0  0  0  0  0  0  0  0  0  0
  193.8430  176.4290  147.1980 O   0  0  0  0  0  1  0  0  0  0  0  0
  194.1610  176.6700  146.0030 C   0  0  0  0  0  0  0  0  0  0  0  0
  191.9860  172.7380  136.0620 C   0  0  0  0  0  2  0  0  0  0  0  0
  192.3440  171.8330  134.8870 C   0  0  2  0  0  3  0  0  0  0  0  0
  191.6470  170.6400  134.9690 F   0  0  0  0  0  0  0  0  0  0  0  0
  194.7750  172.6770  135.0580 C   0  0  0  0  0  1  0  0  0  0  0  0
  193.8130  171.5560  134.8750 C   0  0  0  0  0  0  0  0  0  0  0  0
  194.2300  170.4200  134.7050 O   0  0  0  0  0  0  0  0  0  0  0  0
  2 33  1  0  0  0  0
  2 39  1  1  0  0  0
  3  9  1  0  0  0  0
  3 25  1  0  0  0  0
  4 13  2  0  0  0  0
  6 27  2  0  0  0  0
  6 31  1  0  0  0  0
  7 14  1  0  0  0  0
  8 30  2  0  0  0  0
 10 16  1  6  0  0  0
 10 36  1  0  0  0  0
 11 18  2  0  0  0  0
 12 13  1  0  0  0  0
 13 17  1  0  0  0  0
 14  2  1  0  0  0  0
 15 19  1  0  0  0  0
 17  6  1  0  0  0  0
 19 34  1  0  0  0  0
 20 10  1  0  0  0  0
 20 15  1  0  0  0  0
 21 26  2  0  0  0  0
 21  9  1  0  0  0  0
 22 24  1  0  0  0  0
 23 29  2  0  0  0  0
 23  4  1  0  0  0  0
 24 21  1  0  0  0  0
 25 16  1  0  0  0  0
 27 35  1  0  0  0  0
 28 40  1  6  0  0  0
 28 29  1  0  0  0  0
 28 22  1  0  0  0  0
 29 12  1  0  0  0  0
 30 11  1  0  0  0  0
 31 32  2  0  0  0  0
 32  5  1  0  0  0  0
 32  1  1  0  0  0  0
 33 30  1  0  0  0  0
 35  7  1  0  0  0  0
 35  5  2  0  0  0  0
 36 11  1  0  0  0  0
 36 34  1  0  0  0  0
 37 39  2  0  0  0  0
 39 38  1  0  0  0  0
 41 42  1  1  0  0  0
 41 40  1  0  0  0  0
 44 41  1  0  0  0  0
 44 43  1  0  0  0  0
 45 44  2  0  0  0  0
M  END
>  <MODEL>
9

>  <REMARK>
 VINA RESULT:      -6.7      2.872      8.191
  Name = 
  4 active torsions:
  status: ('A' for Active; 'I' for Inactive)
    1  A    between atoms: C_2  and  C_26
    2  A    between atoms: C_2  and  C_35
    3  A    between atoms: CA_3  and  C_22
    4  A    between atoms: C_25  and  C_26
                            x       y       z     vdW  Elec       q    Type
                         _______ _______ _______ _____ _____    ______ ____

>  <TORSDO>
F 4

$$$$
