=
 OpenBabel11042419273D

 40 45  0  0  1  0  0  0  0  0999 V2000
  189.6090  175.6510  144.8350 C   0  0  2  0  0  0  0  0  0  0  0  0
  188.1050  177.6790  144.3830 O   0  0  0  0  0  0  0  0  0  0  0  0
  189.1630  174.9090  143.5390 C   0  0  1  0  0  3  0  0  0  0  0  0
  190.0570  177.9380  145.5270 O   0  0  0  0  0  0  0  0  0  0  0  0
  189.2800  177.1470  144.9330 C   0  0  0  0  0  0  0  0  0  0  0  0
  191.6110  175.8370  146.1470 C   0  0  1  0  0  3  0  0  0  0  0  0
  187.1580  176.9020  143.6600 C   0  0  2  0  0  3  0  0  0  0  0  0
  187.7170  176.5370  142.2790 C   0  0  0  0  0  2  0  0  0  0  0  0
  190.4650  174.8420  145.8720 C   0  0  1  0  0  0  0  0  0  0  0  0
  189.0790  175.8460  142.3430 C   0  0  0  0  0  2  0  0  0  0  0  0
  190.8160  175.3340  147.2840 C   0  0  0  0  0  2  0  0  0  0  0  0
  188.9570  175.0240  146.0030 C   0  0  0  0  0  2  0  0  0  0  0  0
  191.9220  173.0770  140.2220 N   0  0  0  0  0  0  0  0  0  0  0  0
  190.8950  173.0080  141.1040 C   0  0  0  0  0  0  0  0  0  0  0  0
  189.8630  173.6020  143.1300 C   0  0  2  0  0  3  0  0  0  0  0  0
  189.7130  172.1270  141.1160 C   0  0  0  0  0  3  0  0  0  0  0  0
  190.9670  173.8100  142.1740 C   0  0  0  0  0  0  0  0  0  0  0  0
  192.3860  174.7120  142.1490 S   0  0  0  0  0  0  0  0  0  0  0  0
  194.0020  174.3250  139.9450 N   0  0  0  0  0  1  0  0  0  0  0  0
  188.9580  172.5850  142.3910 C   0  0  0  0  0  3  0  0  0  0  0  0
  192.8190  173.9950  140.6650 C   0  0  0  0  0  0  0  0  0  0  0  0
  194.4020  173.5960  145.6110 N   0  0  0  0  0  0  0  0  0  0  0  0
  192.9240  175.1340  145.9900 C   0  0  0  0  0  0  0  0  0  0  0  0
  195.0820  174.7070  145.9640 C   0  0  0  0  0  2  0  0  0  0  0  0
  193.0960  173.8490  145.6290 N   0  0  0  0  0  0  0  0  0  0  0  0
  194.1590  175.7010  146.2090 C   0  0  0  0  0  0  0  0  0  0  0  0
  194.4520  177.0750  146.7110 C   0  0  0  0  0  2  0  0  0  0  0  0
  194.9780  177.9500  145.5910 C   0  0  0  0  0  1  0  0  0  0  0  0
  185.8890  177.6360  143.5220 N   0  0  0  0  0  0  0  0  0  0  0  0
  186.0540  179.0960  143.6170 C   0  0  0  0  0  2  0  0  0  0  0  0
  185.5300  179.6800  144.9180 C   0  0  0  0  0  2  0  0  0  0  0  0
  184.2120  178.6140  145.5850 S   0  0  0  0  0  0  0  0  0  0  0  0
  185.8780  177.0030  147.0960 C   0  0  0  0  0  1  0  0  0  0  0  0
  185.0760  178.2940  147.1660 C   0  0  1  0  0  3  0  0  0  0  0  0
  185.9340  179.4100  147.5250 N   0  0  0  0  0  2  0  0  0  0  0  0
  187.0380  178.8550  148.2840 C   0  0  0  0  0  1  0  0  0  0  0  0
  185.1450  177.2730  142.3050 C   0  0  0  0  0  2  0  0  0  0  0  0
  184.3860  178.4570  141.6970 C   0  0  0  0  0  2  0  0  0  0  0  0
  182.2160  178.0460  140.5210 C   0  0  0  0  0  1  0  0  0  0  0  0
  182.8830  178.2950  141.8640 C   0  0  0  0  0  2  0  0  0  0  0  0
  1  5  1  0  0  0  0
  1  9  1  0  0  0  0
  1 12  1  1  0  0  0
  2  5  1  0  0  0  0
  3 10  1  6  0  0  0
  3  1  1  0  0  0  0
  5  4  2  0  0  0  0
  6 23  1  1  0  0  0
  6 11  1  0  0  0  0
  7 29  1  6  0  0  0
  7  2  1  0  0  0  0
  8 10  1  0  0  0  0
  8  7  1  0  0  0  0
  9 12  1  6  0  0  0
  9  6  1  0  0  0  0
  9 11  1  0  0  0  0
 13 21  2  0  0  0  0
 13 14  1  0  0  0  0
 14 16  1  0  0  0  0
 14 17  2  0  0  0  0
 15 20  1  6  0  0  0
 15  3  1  0  0  0  0
 16 20  2  0  0  0  0
 17 15  1  0  0  0  0
 18 17  1  0  0  0  0
 19 21  1  0  0  0  0
 21 18  1  0  0  0  0
 22 25  2  0  0  0  0
 22 24  1  0  0  0  0
 23 26  2  0  0  0  0
 24 26  1  0  0  0  0
 25 23  1  0  0  0  0
 26 27  1  0  0  0  0
 28 27  1  0  0  0  0
 29 30  1  0  0  0  0
 30 31  1  0  0  0  0
 31 32  1  0  0  0  0
 32 34  1  0  0  0  0
 34 33  1  6  0  0  0
 34 35  1  0  0  0  0
 35 36  1  0  0  0  0
 37 29  1  0  0  0  0
 38 40  1  0  0  0  0
 38 37  1  0  0  0  0
 39 40  1  0  0  0  0
M  END
>  <MODEL>
1

>  <REMARK>
 VINA RESULT:      -7.3      0.000      0.000
  Name = 
  12 active torsions:
  status: ('A' for Active; 'I' for Inactive)
    1  A    between atoms: C_5  and  C_15
    2  A    between atoms: C_7  and  C_10
    3  A    between atoms: C_7  and  S_36
    4  A    between atoms: C_10  and  N_28
    5  A    between atoms: C_11  and  C_16
    6  A    between atoms: C_12  and  N_28
    7  A    between atoms: C_12  and  C_30
    8  A    between atoms: N_13  and  C_35
    9  A    between atoms: C_19  and  C_37
   10  A    between atoms: C_24  and  N_28
   11  A    between atoms: C_29  and  C_30
   12  A    between atoms: C_35  and  S_36
                            x       y       z     vdW  Elec       q    Type
                         _______ _______ _______ _____ _____    ______ ____

>  <TORSDO>
F 12

$$$$
=
 OpenBabel11042419273D

 40 45  0  0  1  0  0  0  0  0999 V2000
  189.1150  175.8630  144.3810 C   0  0  2  0  0  0  0  0  0  0  0  0
  187.8980  178.0740  143.9230 O   0  0  0  0  0  0  0  0  0  0  0  0
  188.6070  175.1980  143.0660 C   0  0  1  0  0  3  0  0  0  0  0  0
  189.8400  178.0660  145.1120 O   0  0  0  0  0  0  0  0  0  0  0  0
  188.9810  177.3880  144.4910 C   0  0  0  0  0  0  0  0  0  0  0  0
  191.0940  175.7750  145.7390 C   0  0  1  0  0  3  0  0  0  0  0  0
  186.8740  177.4330  143.1700 C   0  0  2  0  0  3  0  0  0  0  0  0
  187.4140  177.0120  141.7960 C   0  0  0  0  0  2  0  0  0  0  0  0
  189.8350  174.9400  145.4260 C   0  0  1  0  0  0  0  0  0  0  0  0
  188.6730  176.1500  141.8810 C   0  0  0  0  0  2  0  0  0  0  0  0
  190.2140  175.3690  146.8520 C   0  0  0  0  0  2  0  0  0  0  0  0
  188.3610  175.3140  145.5270 C   0  0  0  0  0  2  0  0  0  0  0  0
  191.2550  173.0700  139.8370 N   0  0  0  0  0  0  0  0  0  0  0  0
  190.1850  173.1250  140.6670 C   0  0  0  0  0  0  0  0  0  0  0  0
  189.1410  173.8150  142.6560 C   0  0  2  0  0  3  0  0  0  0  0  0
  188.8940  172.4160  140.5990 C   0  0  0  0  0  3  0  0  0  0  0  0
  190.3110  173.8880  141.7600 C   0  0  0  0  0  0  0  0  0  0  0  0
  191.8390  174.5850  141.8280 S   0  0  0  0  0  0  0  0  0  0  0  0
  193.4980  174.0230  139.6950 N   0  0  0  0  0  1  0  0  0  0  0  0
  188.1440  172.9480  141.8480 C   0  0  0  0  0  3  0  0  0  0  0  0
  192.2460  173.8460  140.3480 C   0  0  0  0  0  0  0  0  0  0  0  0
  193.5910  173.2220  145.1580 N   0  0  0  0  0  0  0  0  0  0  0  0
  192.3080  174.9100  145.6020 C   0  0  0  0  0  0  0  0  0  0  0  0
  194.3800  174.1780  145.6920 C   0  0  0  0  0  2  0  0  0  0  0  0
  192.3370  173.6590  145.1060 N   0  0  0  0  0  0  0  0  0  0  0  0
  193.5820  175.2640  145.9820 C   0  0  0  0  0  0  0  0  0  0  0  0
  194.0110  176.5200  146.6630 C   0  0  0  0  0  2  0  0  0  0  0  0
  194.6930  177.4530  145.6820 C   0  0  0  0  0  1  0  0  0  0  0  0
  185.7150  178.3270  143.0130 N   0  0  0  0  0  0  0  0  0  0  0  0
  184.8950  178.0050  141.8340 C   0  0  0  0  0  2  0  0  0  0  0  0
  183.4060  178.2020  142.0600 C   0  0  0  0  0  2  0  0  0  0  0  0
  182.5180  178.0640  140.4760 S   0  0  0  0  0  0  0  0  0  0  0  0
  180.9820  179.1880  142.4840 C   0  0  0  0  0  1  0  0  0  0  0  0
  180.8680  178.3610  141.2120 C   0  0  1  0  0  3  0  0  0  0  0  0
  179.9830  179.0070  140.2590 N   0  0  0  0  0  2  0  0  0  0  0  0
  180.0560  180.4310  140.5270 C   0  0  0  0  0  1  0  0  0  0  0  0
  184.8800  178.4020  144.2230 C   0  0  0  0  0  2  0  0  0  0  0  0
  185.3180  179.5160  145.1790 C   0  0  0  0  0  2  0  0  0  0  0  0
  184.5460  178.4280  147.2960 C   0  0  0  0  0  1  0  0  0  0  0  0
  185.7460  178.9530  146.5260 C   0  0  0  0  0  2  0  0  0  0  0  0
  1  5  1  0  0  0  0
  1  9  1  0  0  0  0
  1 12  1  1  0  0  0
  2  5  1  0  0  0  0
  3 10  1  6  0  0  0
  3  1  1  0  0  0  0
  5  4  2  0  0  0  0
  6 23  1  1  0  0  0
  6 11  1  0  0  0  0
  7 29  1  6  0  0  0
  7  2  1  0  0  0  0
  8 10  1  0  0  0  0
  8  7  1  0  0  0  0
  9 12  1  6  0  0  0
  9  6  1  0  0  0  0
  9 11  1  0  0  0  0
 13 21  2  0  0  0  0
 13 14  1  0  0  0  0
 14 17  2  0  0  0  0
 15 20  1  6  0  0  0
 15  3  1  0  0  0  0
 16 14  1  0  0  0  0
 16 20  2  0  0  0  0
 17 18  1  0  0  0  0
 17 15  1  0  0  0  0
 19 21  1  0  0  0  0
 21 18  1  0  0  0  0
 22 24  1  0  0  0  0
 23 26  2  0  0  0  0
 24 26  1  0  0  0  0
 25 22  2  0  0  0  0
 25 23  1  0  0  0  0
 26 27  1  0  0  0  0
 28 27  1  0  0  0  0
 29 37  1  0  0  0  0
 30 31  1  0  0  0  0
 30 29  1  0  0  0  0
 32 34  1  0  0  0  0
 32 31  1  0  0  0  0
 34 33  1  1  0  0  0
 35 36  1  0  0  0  0
 35 34  1  0  0  0  0
 37 38  1  0  0  0  0
 38 40  1  0  0  0  0
 40 39  1  0  0  0  0
M  END
>  <MODEL>
2

>  <REMARK>
 VINA RESULT:      -7.0      1.705      3.433
  Name = 
  12 active torsions:
  status: ('A' for Active; 'I' for Inactive)
    1  A    between atoms: C_5  and  C_15
    2  A    between atoms: C_7  and  C_10
    3  A    between atoms: C_7  and  S_36
    4  A    between atoms: C_10  and  N_28
    5  A    between atoms: C_11  and  C_16
    6  A    between atoms: C_12  and  N_28
    7  A    between atoms: C_12  and  C_30
    8  A    between atoms: N_13  and  C_35
    9  A    between atoms: C_19  and  C_37
   10  A    between atoms: C_24  and  N_28
   11  A    between atoms: C_29  and  C_30
   12  A    between atoms: C_35  and  S_36
                            x       y       z     vdW  Elec       q    Type
                         _______ _______ _______ _____ _____    ______ ____

>  <TORSDO>
F 12

$$$$
=
 OpenBabel11042419273D

 40 45  0  0  1  0  0  0  0  0999 V2000
  192.4060  175.0640  144.8410 C   0  0  2  0  0  0  0  0  0  0  0  0
  190.4710  176.6480  144.2740 O   0  0  0  0  0  0  0  0  0  0  0  0
  191.7150  173.8280  144.1890 C   0  0  1  0  0  3  0  0  0  0  0  0
  192.5990  177.4480  144.4040 O   0  0  0  0  0  0  0  0  0  0  0  0
  191.8410  176.4480  144.4920 C   0  0  0  0  0  0  0  0  0  0  0  0
  194.6510  175.8700  145.1220 C   0  0  1  0  0  3  0  0  0  0  0  0
  189.5100  175.5990  144.3110 C   0  0  2  0  0  3  0  0  0  0  0  0
  189.6460  174.7140  143.0650 C   0  0  0  0  0  2  0  0  0  0  0  0
  193.6970  174.8020  145.6950 C   0  0  1  0  0  0  0  0  0  0  0  0
  191.0610  174.1740  142.8590 C   0  0  0  0  0  2  0  0  0  0  0  0
  194.3870  175.8560  146.5750 C   0  0  0  0  0  2  0  0  0  0  0  0
  192.3110  174.9550  146.3110 C   0  0  0  0  0  2  0  0  0  0  0  0
  193.6870  170.9860  141.0270 N   0  0  0  0  0  0  0  0  0  0  0  0
  192.9830  171.2150  142.1620 C   0  0  0  0  0  0  0  0  0  0  0  0
  192.4840  172.5020  144.0640 C   0  0  2  0  0  3  0  0  0  0  0  0
  192.0240  170.3510  142.8740 C   0  0  0  0  0  3  0  0  0  0  0  0
  193.2160  172.3750  142.7900 C   0  0  0  0  0  0  0  0  0  0  0  0
  194.3910  173.2650  141.9800 S   0  0  0  0  0  0  0  0  0  0  0  0
  195.3540  172.1290  139.6570 N   0  0  0  0  0  1  0  0  0  0  0  0
  191.5960  171.2330  144.0760 C   0  0  0  0  0  3  0  0  0  0  0  0
  194.5010  172.0480  140.7940 C   0  0  0  0  0  0  0  0  0  0  0  0
  197.6750  173.9140  144.7740 N   0  0  0  0  0  0  0  0  0  0  0  0
  195.9510  175.2250  144.7530 C   0  0  0  0  0  0  0  0  0  0  0  0
  197.8450  174.7610  143.7370 C   0  0  0  0  0  3  0  0  0  0  0  0
  196.5320  174.1940  145.3930 N   0  0  0  0  0  2  0  0  0  0  0  0
  196.7560  175.6060  143.7040 C   0  0  0  0  0  0  0  0  0  0  0  0
  196.5580  176.7590  142.7790 C   0  0  0  0  0  2  0  0  0  0  0  0
  196.5540  176.2900  141.3370 C   0  0  0  0  0  1  0  0  0  0  0  0
  188.1490  176.1510  144.4020 N   0  0  0  0  0  0  0  0  0  0  0  0
  188.0810  177.3900  145.1940 C   0  0  0  0  0  2  0  0  0  0  0  0
  187.3060  177.2370  146.4910 C   0  0  0  0  0  2  0  0  0  0  0  0
  185.5580  176.8770  146.1260 S   0  0  0  0  0  0  0  0  0  0  0  0
  185.8260  179.2700  147.4880 C   0  0  0  0  0  1  0  0  0  0  0  0
  184.9990  178.5980  146.4020 C   0  0  1  0  0  3  0  0  0  0  0  0
  185.0520  179.3650  145.1700 N   0  0  0  0  0  2  0  0  0  0  0  0
  184.3360  178.5930  144.1720 C   0  0  0  0  0  1  0  0  0  0  0  0
  187.5150  176.3370  143.0870 C   0  0  0  0  0  2  0  0  0  0  0  0
  187.6120  177.7790  142.5780 C   0  0  0  0  0  2  0  0  0  0  0  0
  185.9860  177.6300  140.6820 C   0  0  0  0  0  1  0  0  0  0  0  0
  187.4400  177.8460  141.0690 C   0  0  0  0  0  2  0  0  0  0  0  0
  1  9  1  0  0  0  0
  1 12  1  1  0  0  0
  2  7  1  0  0  0  0
  2  5  1  0  0  0  0
  3 10  1  6  0  0  0
  3  1  1  0  0  0  0
  4  5  2  0  0  0  0
  5  1  1  0  0  0  0
  6 23  1  1  0  0  0
  6  9  1  0  0  0  0
  6 11  1  0  0  0  0
  7 29  1  6  0  0  0
  8  7  1  0  0  0  0
  9 12  1  1  0  0  0
  9 11  1  0  0  0  0
 10  8  1  0  0  0  0
 13 14  1  0  0  0  0
 14 17  2  0  0  0  0
 14 16  1  0  0  0  0
 15 20  1  6  0  0  0
 15  3  1  0  0  0  0
 16 20  2  0  0  0  0
 17 15  1  0  0  0  0
 18 17  1  0  0  0  0
 19 21  1  0  0  0  0
 21 13  2  0  0  0  0
 21 18  1  0  0  0  0
 22 25  1  0  0  0  0
 23 25  1  0  0  0  0
 24 22  2  0  0  0  0
 26 24  1  0  0  0  0
 26 23  2  0  0  0  0
 27 26  1  0  0  0  0
 28 27  1  0  0  0  0
 29 30  1  0  0  0  0
 30 31  1  0  0  0  0
 32 34  1  0  0  0  0
 32 31  1  0  0  0  0
 34 33  1  1  0  0  0
 35 34  1  0  0  0  0
 36 35  1  0  0  0  0
 37 29  1  0  0  0  0
 38 37  1  0  0  0  0
 39 40  1  0  0  0  0
 40 38  1  0  0  0  0
M  END
>  <MODEL>
3

>  <REMARK>
 VINA RESULT:      -6.6      2.276      3.205
  Name = 
  12 active torsions:
  status: ('A' for Active; 'I' for Inactive)
    1  A    between atoms: C_5  and  C_15
    2  A    between atoms: C_7  and  C_10
    3  A    between atoms: C_7  and  S_36
    4  A    between atoms: C_10  and  N_28
    5  A    between atoms: C_11  and  C_16
    6  A    between atoms: C_12  and  N_28
    7  A    between atoms: C_12  and  C_30
    8  A    between atoms: N_13  and  C_35
    9  A    between atoms: C_19  and  C_37
   10  A    between atoms: C_24  and  N_28
   11  A    between atoms: C_29  and  C_30
   12  A    between atoms: C_35  and  S_36
                            x       y       z     vdW  Elec       q    Type
                         _______ _______ _______ _____ _____    ______ ____

>  <TORSDO>
F 12

$$$$
=
 OpenBabel11042419273D

 40 45  0  0  1  0  0  0  0  0999 V2000
  192.2610  175.3710  144.9600 C   0  0  2  0  0  0  0  0  0  0  0  0
  190.6800  177.3860  144.8270 O   0  0  0  0  0  0  0  0  0  0  0  0
  191.2210  174.3900  144.3400 C   0  0  1  0  0  3  0  0  0  0  0  0
  192.9320  177.6900  144.6710 O   0  0  0  0  0  0  0  0  0  0  0  0
  191.9850  176.8730  144.8070 C   0  0  0  0  0  0  0  0  0  0  0  0
  194.6470  175.6410  144.9340 C   0  0  1  0  0  3  0  0  0  0  0  0
  189.5200  176.5710  144.9430 C   0  0  2  0  0  3  0  0  0  0  0  0
  189.2730  175.8150  143.6300 C   0  0  0  0  0  2  0  0  0  0  0  0
  193.5650  174.7480  145.5740 C   0  0  1  0  0  0  0  0  0  0  0  0
  190.4830  175.0080  143.1610 C   0  0  0  0  0  2  0  0  0  0  0  0
  194.5950  175.5290  146.4050 C   0  0  0  0  0  2  0  0  0  0  0  0
  192.3510  175.1300  146.4150 C   0  0  0  0  0  2  0  0  0  0  0  0
  192.1530  171.5800  140.7070 N   0  0  0  0  0  0  0  0  0  0  0  0
  191.6360  171.8230  141.9350 C   0  0  0  0  0  0  0  0  0  0  0  0
  191.6410  172.9500  143.9970 C   0  0  2  0  0  3  0  0  0  0  0  0
  190.5740  171.1160  142.6750 C   0  0  0  0  0  3  0  0  0  0  0  0
  192.1950  172.8170  142.6370 C   0  0  0  0  0  0  0  0  0  0  0  0
  193.4620  173.5120  141.7780 S   0  0  0  0  0  0  0  0  0  0  0  0
  193.9010  172.4770  139.2580 N   0  0  0  0  0  1  0  0  0  0  0  0
  190.4840  171.9200  143.9980 C   0  0  0  0  0  3  0  0  0  0  0  0
  193.1670  172.4530  140.4780 C   0  0  0  0  0  0  0  0  0  0  0  0
  196.9480  173.0640  143.8560 N   0  0  0  0  0  0  0  0  0  0  0  0
  195.7000  174.7740  144.3150 C   0  0  0  0  0  0  0  0  0  0  0  0
  197.3870  174.0810  143.0860 C   0  0  0  0  0  3  0  0  0  0  0  0
  195.9290  173.4790  144.6030 N   0  0  0  0  0  2  0  0  0  0  0  0
  196.6050  175.1820  143.3620 C   0  0  0  0  0  0  0  0  0  0  0  0
  196.7850  176.5560  142.8080 C   0  0  0  0  0  2  0  0  0  0  0  0
  196.0990  176.6810  141.4630 C   0  0  0  0  0  1  0  0  0  0  0  0
  188.3480  177.3890  145.2910 N   0  0  0  0  0  0  0  0  0  0  0  0
  187.1470  177.0360  144.5160 C   0  0  0  0  0  2  0  0  0  0  0  0
  186.5750  178.2000  143.7250 C   0  0  0  0  0  2  0  0  0  0  0  0
  185.1200  177.6460  142.7790 S   0  0  0  0  0  0  0  0  0  0  0  0
  187.0600  177.3550  140.8280 C   0  0  0  0  0  1  0  0  0  0  0  0
  185.8050  178.1490  141.1580 C   0  0  1  0  0  3  0  0  0  0  0  0
  184.8140  178.0000  140.1070 N   0  0  0  0  0  2  0  0  0  0  0  0
  183.5300  178.3180  140.7020 C   0  0  0  0  0  1  0  0  0  0  0  0
  188.0550  177.3890  146.7340 C   0  0  0  0  0  2  0  0  0  0  0  0
  186.6820  176.7940  147.0630 C   0  0  0  0  0  2  0  0  0  0  0  0
  184.8490  178.4970  147.0380 C   0  0  0  0  0  1  0  0  0  0  0  0
  185.8510  177.7510  147.9030 C   0  0  0  0  0  2  0  0  0  0  0  0
  1  9  1  0  0  0  0
  1 12  1  1  0  0  0
  2  7  1  0  0  0  0
  3 10  1  6  0  0  0
  3  1  1  0  0  0  0
  4  5  2  0  0  0  0
  5  2  1  0  0  0  0
  5  1  1  0  0  0  0
  6 23  1  6  0  0  0
  6  9  1  0  0  0  0
  6 11  1  0  0  0  0
  7 29  1  6  0  0  0
  8  7  1  0  0  0  0
  9 11  1  1  0  0  0
  9 12  1  0  0  0  0
 10  8  1  0  0  0  0
 13 14  1  0  0  0  0
 14 17  2  0  0  0  0
 14 16  1  0  0  0  0
 15 20  1  6  0  0  0
 15  3  1  0  0  0  0
 16 20  2  0  0  0  0
 17 15  1  0  0  0  0
 18 17  1  0  0  0  0
 19 21  1  0  0  0  0
 21 13  2  0  0  0  0
 21 18  1  0  0  0  0
 22 25  1  0  0  0  0
 23 25  1  0  0  0  0
 24 26  1  0  0  0  0
 24 22  2  0  0  0  0
 26 23  2  0  0  0  0
 27 26  1  0  0  0  0
 28 27  1  0  0  0  0
 29 37  1  0  0  0  0
 30 29  1  0  0  0  0
 31 30  1  0  0  0  0
 32 31  1  0  0  0  0
 34 33  1  6  0  0  0
 34 32  1  0  0  0  0
 35 36  1  0  0  0  0
 35 34  1  0  0  0  0
 37 38  1  0  0  0  0
 38 40  1  0  0  0  0
 39 40  1  0  0  0  0
M  END
>  <MODEL>
4

>  <REMARK>
 VINA RESULT:      -6.6      2.079      3.949
  Name = 
  12 active torsions:
  status: ('A' for Active; 'I' for Inactive)
    1  A    between atoms: C_5  and  C_15
    2  A    between atoms: C_7  and  C_10
    3  A    between atoms: C_7  and  S_36
    4  A    between atoms: C_10  and  N_28
    5  A    between atoms: C_11  and  C_16
    6  A    between atoms: C_12  and  N_28
    7  A    between atoms: C_12  and  C_30
    8  A    between atoms: N_13  and  C_35
    9  A    between atoms: C_19  and  C_37
   10  A    between atoms: C_24  and  N_28
   11  A    between atoms: C_29  and  C_30
   12  A    between atoms: C_35  and  S_36
                            x       y       z     vdW  Elec       q    Type
                         _______ _______ _______ _____ _____    ______ ____

>  <TORSDO>
F 12

$$$$
=
 OpenBabel11042419273D

 40 45  0  0  1  0  0  0  0  0999 V2000
  193.2820  175.0000  144.3700 C   0  0  2  0  0  0  0  0  0  0  0  0
  192.2080  177.1800  145.1890 O   0  0  0  0  0  0  0  0  0  0  0  0
  192.0670  174.6250  143.4690 C   0  0  1  0  0  3  0  0  0  0  0  0
  194.4730  177.0150  145.0260 O   0  0  0  0  0  0  0  0  0  0  0  0
  193.3610  176.4480  144.8720 C   0  0  0  0  0  0  0  0  0  0  0  0
  195.6660  174.7200  144.3020 C   0  0  1  0  0  3  0  0  0  0  0  0
  190.8890  176.6700  145.0320 C   0  0  2  0  0  3  0  0  0  0  0  0
  190.5210  176.6080  143.5430 C   0  0  0  0  0  2  0  0  0  0  0  0
  194.3870  173.9060  144.5840 C   0  0  1  0  0  0  0  0  0  0  0  0
  191.5300  175.8260  142.7040 C   0  0  0  0  0  2  0  0  0  0  0  0
  195.5400  174.0180  145.5940 C   0  0  0  0  0  2  0  0  0  0  0  0
  193.2650  174.1580  145.5840 C   0  0  0  0  0  2  0  0  0  0  0  0
  192.1560  173.4520  138.9320 N   0  0  0  0  0  0  0  0  0  0  0  0
  191.7840  173.2460  140.2190 C   0  0  0  0  0  0  0  0  0  0  0  0
  192.1590  173.4080  142.5330 C   0  0  2  0  0  3  0  0  0  0  0  0
  190.6520  172.4770  140.7680 C   0  0  0  0  0  3  0  0  0  0  0  0
  192.5810  173.7600  141.1640 C   0  0  0  0  0  0  0  0  0  0  0  0
  193.9030  174.5350  140.4720 S   0  0  0  0  0  0  0  0  0  0  0  0
  193.9490  174.5740  137.7130 N   0  0  0  0  0  1  0  0  0  0  0  0
  190.8190  172.6680  142.2980 C   0  0  0  0  0  3  0  0  0  0  0  0
  193.3100  174.1680  138.9190 C   0  0  0  0  0  0  0  0  0  0  0  0
  197.4560  172.3790  142.2020 N   0  0  0  0  0  0  0  0  0  0  0  0
  196.5140  173.9830  143.3120 C   0  0  0  0  0  0  0  0  0  0  0  0
  197.9410  173.5340  141.7000 C   0  0  0  0  0  3  0  0  0  0  0  0
  196.5950  172.6460  143.1800 N   0  0  0  0  0  2  0  0  0  0  0  0
  197.3530  174.5700  142.3930 C   0  0  0  0  0  0  0  0  0  0  0  0
  197.6560  176.0230  142.2360 C   0  0  0  0  0  2  0  0  0  0  0  0
  196.4680  176.7530  141.6420 C   0  0  0  0  0  1  0  0  0  0  0  0
  189.9230  177.5040  145.7650 N   0  0  0  0  0  0  0  0  0  0  0  0
  188.6360  177.6440  145.0650 C   0  0  0  0  0  2  0  0  0  0  0  0
  187.4330  177.5530  145.9890 C   0  0  0  0  0  2  0  0  0  0  0  0
  185.9710  177.0130  145.0460 S   0  0  0  0  0  0  0  0  0  0  0  0
  185.0890  179.0030  146.7540 C   0  0  0  0  0  1  0  0  0  0  0  0
  185.0570  178.5800  145.2930 C   0  0  1  0  0  3  0  0  0  0  0  0
  185.5900  179.6320  144.4450 N   0  0  0  0  0  2  0  0  0  0  0  0
  185.5860  179.1110  143.0900 C   0  0  0  0  0  1  0  0  0  0  0  0
  189.7170  177.0600  147.1530 C   0  0  0  0  0  2  0  0  0  0  0  0
  190.3130  175.6760  147.4290 C   0  0  0  0  0  2  0  0  0  0  0  0
  189.5450  173.7840  145.9840 C   0  0  0  0  0  1  0  0  0  0  0  0
  189.2730  174.5810  147.2490 C   0  0  0  0  0  2  0  0  0  0  0  0
  1  9  1  0  0  0  0
  1  5  1  0  0  0  0
  1 12  1  1  0  0  0
  3 10  1  6  0  0  0
  3  1  1  0  0  0  0
  5  4  2  0  0  0  0
  5  2  1  0  0  0  0
  6 23  1  6  0  0  0
  6  9  1  0  0  0  0
  6 11  1  0  0  0  0
  7  2  1  0  0  0  0
  7 29  1  1  0  0  0
  8  7  1  0  0  0  0
  9 12  1  6  0  0  0
  9 11  1  0  0  0  0
 10  8  1  0  0  0  0
 13 14  1  0  0  0  0
 14 16  1  0  0  0  0
 14 17  2  0  0  0  0
 15 20  1  6  0  0  0
 15  3  1  0  0  0  0
 16 20  2  0  0  0  0
 17 15  1  0  0  0  0
 18 17  1  0  0  0  0
 19 21  1  0  0  0  0
 21 13  2  0  0  0  0
 21 18  1  0  0  0  0
 22 25  1  0  0  0  0
 24 22  2  0  0  0  0
 24 26  1  0  0  0  0
 25 23  1  0  0  0  0
 26 23  2  0  0  0  0
 27 26  1  0  0  0  0
 28 27  1  0  0  0  0
 29 37  1  0  0  0  0
 30 29  1  0  0  0  0
 30 31  1  0  0  0  0
 32 34  1  0  0  0  0
 32 31  1  0  0  0  0
 34 33  1  1  0  0  0
 35 34  1  0  0  0  0
 36 35  1  0  0  0  0
 37 38  1  0  0  0  0
 39 40  1  0  0  0  0
 40 38  1  0  0  0  0
M  END
>  <MODEL>
5

>  <REMARK>
 VINA RESULT:      -6.4      2.508      4.455
  Name = 
  12 active torsions:
  status: ('A' for Active; 'I' for Inactive)
    1  A    between atoms: C_5  and  C_15
    2  A    between atoms: C_7  and  C_10
    3  A    between atoms: C_7  and  S_36
    4  A    between atoms: C_10  and  N_28
    5  A    between atoms: C_11  and  C_16
    6  A    between atoms: C_12  and  N_28
    7  A    between atoms: C_12  and  C_30
    8  A    between atoms: N_13  and  C_35
    9  A    between atoms: C_19  and  C_37
   10  A    between atoms: C_24  and  N_28
   11  A    between atoms: C_29  and  C_30
   12  A    between atoms: C_35  and  S_36
                            x       y       z     vdW  Elec       q    Type
                         _______ _______ _______ _____ _____    ______ ____

>  <TORSDO>
F 12

$$$$
=
 OpenBabel11042419273D

 40 45  0  0  1  0  0  0  0  0999 V2000
  190.9590  173.6960  142.9140 C   0  0  2  0  0  0  0  0  0  0  0  0
  189.2380  174.6050  144.5850 O   0  0  0  0  0  0  0  0  0  0  0  0
  192.0600  174.7100  143.3480 C   0  0  1  0  0  3  0  0  0  0  0  0
  189.1880  172.4120  143.9750 O   0  0  0  0  0  0  0  0  0  0  0  0
  189.7550  173.5280  143.8510 C   0  0  0  0  0  0  0  0  0  0  0  0
  190.8760  171.4270  142.1320 C   0  0  1  0  0  3  0  0  0  0  0  0
  189.8030  175.9110  144.5620 C   0  0  2  0  0  3  0  0  0  0  0  0
  191.1250  175.9290  145.3400 C   0  0  0  0  0  2  0  0  0  0  0  0
  191.2310  172.8410  141.6270 C   0  0  1  0  0  0  0  0  0  0  0  0
  192.1230  174.8760  144.8590 C   0  0  0  0  0  2  0  0  0  0  0  0
  190.1860  171.9500  140.9360 C   0  0  0  0  0  2  0  0  0  0  0  0
  190.3950  174.1160  141.6150 C   0  0  0  0  0  2  0  0  0  0  0  0
  196.5740  174.9710  144.5820 N   0  0  0  0  0  0  0  0  0  0  0  0
  195.5510  175.1790  143.7180 C   0  0  0  0  0  0  0  0  0  0  0  0
  193.4830  174.5810  142.7770 C   0  0  2  0  0  3  0  0  0  0  0  0
  195.4220  176.1520  142.6170 C   0  0  0  0  0  3  0  0  0  0  0  0
  194.5050  174.3490  143.8140 C   0  0  0  0  0  0  0  0  0  0  0  0
  194.7610  173.2050  145.0190 S   0  0  0  0  0  0  0  0  0  0  0  0
  197.1290  173.4570  146.4150 N   0  0  0  0  0  1  0  0  0  0  0  0
  194.0090  175.8460  142.0550 C   0  0  0  0  0  3  0  0  0  0  0  0
  196.2670  173.9140  145.3770 C   0  0  0  0  0  0  0  0  0  0  0  0
  193.3580  169.2210  140.6940 N   0  0  0  0  0  0  0  0  0  0  0  0
  191.9950  170.4890  141.8030 C   0  0  0  0  0  0  0  0  0  0  0  0
  193.7150  169.1310  141.9930 C   0  0  0  0  0  2  0  0  0  0  0  0
  192.3160  170.0390  140.5760 N   0  0  0  0  0  0  0  0  0  0  0  0
  192.8600  169.9330  142.7180 C   0  0  0  0  0  0  0  0  0  0  0  0
  192.8270  170.0750  144.2030 C   0  0  0  0  0  2  0  0  0  0  0  0
  193.5980  168.9490  144.8630 C   0  0  0  0  0  1  0  0  0  0  0  0
  188.8600  176.8890  145.1290 N   0  0  0  0  0  0  0  0  0  0  0  0
  188.3000  177.8010  144.1180 C   0  0  0  0  0  2  0  0  0  0  0  0
  188.5640  177.3570  142.6900 C   0  0  0  0  0  2  0  0  0  0  0  0
  187.1420  176.4040  142.0680 S   0  0  0  0  0  0  0  0  0  0  0  0
  185.5980  178.1010  140.5220 C   0  0  0  0  0  1  0  0  0  0  0  0
  186.0350  177.8580  141.9590 C   0  0  1  0  0  3  0  0  0  0  0  0
  184.8800  177.6970  142.8240 N   0  0  0  0  0  2  0  0  0  0  0  0
  183.7290  178.1530  142.0670 C   0  0  0  0  0  1  0  0  0  0  0  0
  187.7870  176.2630  145.9180 C   0  0  0  0  0  2  0  0  0  0  0  0
  186.8200  177.2850  146.5230 C   0  0  0  0  0  2  0  0  0  0  0  0
  184.4200  177.9900  146.4550 C   0  0  0  0  0  1  0  0  0  0  0  0
  185.3780  176.8110  146.4190 C   0  0  0  0  0  2  0  0  0  0  0  0
  1 12  1  6  0  0  0
  1  3  1  0  0  0  0
  1  5  1  0  0  0  0
  3 10  1  1  0  0  0
  5  4  2  0  0  0  0
  5  2  1  0  0  0  0
  6 23  1  6  0  0  0
  7  2  1  0  0  0  0
  7 29  1  1  0  0  0
  7  8  1  0  0  0  0
  9 11  1  1  0  0  0
  9  6  1  0  0  0  0
  9  1  1  0  0  0  0
 10  8  1  0  0  0  0
 11  6  1  0  0  0  0
 12  9  1  0  0  0  0
 13 21  2  0  0  0  0
 14 17  2  0  0  0  0
 14 13  1  0  0  0  0
 15 20  1  1  0  0  0
 15  3  1  0  0  0  0
 15 17  1  0  0  0  0
 16 14  1  0  0  0  0
 17 18  1  0  0  0  0
 18 21  1  0  0  0  0
 20 16  2  0  0  0  0
 21 19  1  0  0  0  0
 22 24  1  0  0  0  0
 23 26  2  0  0  0  0
 24 26  1  0  0  0  0
 25 22  2  0  0  0  0
 25 23  1  0  0  0  0
 26 27  1  0  0  0  0
 27 28  1  0  0  0  0
 29 37  1  0  0  0  0
 30 29  1  0  0  0  0
 31 30  1  0  0  0  0
 32 31  1  0  0  0  0
 34 33  1  6  0  0  0
 34 32  1  0  0  0  0
 34 35  1  0  0  0  0
 36 35  1  0  0  0  0
 37 38  1  0  0  0  0
 40 39  1  0  0  0  0
 40 38  1  0  0  0  0
M  END
>  <MODEL>
6

>  <REMARK>
 VINA RESULT:      -6.2      2.771      5.590
  Name = 
  12 active torsions:
  status: ('A' for Active; 'I' for Inactive)
    1  A    between atoms: C_5  and  C_15
    2  A    between atoms: C_7  and  C_10
    3  A    between atoms: C_7  and  S_36
    4  A    between atoms: C_10  and  N_28
    5  A    between atoms: C_11  and  C_16
    6  A    between atoms: C_12  and  N_28
    7  A    between atoms: C_12  and  C_30
    8  A    between atoms: N_13  and  C_35
    9  A    between atoms: C_19  and  C_37
   10  A    between atoms: C_24  and  N_28
   11  A    between atoms: C_29  and  C_30
   12  A    between atoms: C_35  and  S_36
                            x       y       z     vdW  Elec       q    Type
                         _______ _______ _______ _____ _____    ______ ____

>  <TORSDO>
F 12

$$$$
=
 OpenBabel11042419273D

 40 45  0  0  1  0  0  0  0  0999 V2000
  191.3490  175.8880  143.9800 C   0  0  2  0  0  0  0  0  0  0  0  0
  193.6350  175.8870  145.1430 O   0  0  0  0  0  0  0  0  0  0  0  0
  191.4230  174.3740  143.6190 C   0  0  1  0  0  3  0  0  0  0  0  0
  192.0070  177.3250  145.8280 O   0  0  0  0  0  0  0  0  0  0  0  0
  192.3360  176.4050  145.0350 C   0  0  0  0  0  0  0  0  0  0  0  0
  189.6400  177.4690  144.5680 C   0  0  1  0  0  3  0  0  0  0  0  0
  194.1240  174.8260  144.3320 C   0  0  2  0  0  3  0  0  0  0  0  0
  193.4860  173.4970  144.7580 C   0  0  0  0  0  2  0  0  0  0  0  0
  190.1930  176.7300  143.3320 C   0  0  1  0  0  0  0  0  0  0  0  0
  191.9590  173.5360  144.7700 C   0  0  0  0  0  2  0  0  0  0  0  0
  190.0850  178.2610  143.4050 C   0  0  0  0  0  2  0  0  0  0  0  0
  191.6090  176.6910  142.7660 C   0  0  0  0  0  2  0  0  0  0  0  0
  188.9370  174.1430  139.6520 N   0  0  0  0  0  0  0  0  0  0  0  0
  189.0450  174.1570  141.0030 C   0  0  0  0  0  0  0  0  0  0  0  0
  190.2010  173.6800  142.9920 C   0  0  2  0  0  3  0  0  0  0  0  0
  188.0510  174.5180  142.0300 C   0  0  0  0  0  3  0  0  0  0  0  0
  190.2030  173.7240  141.5180 C   0  0  0  0  0  0  0  0  0  0  0  0
  191.2510  173.2340  140.2980 S   0  0  0  0  0  0  0  0  0  0  0  0
  190.3120  173.5540  137.7230 N   0  0  0  0  0  1  0  0  0  0  0  0
  188.8370  174.3170  143.3520 C   0  0  0  0  0  3  0  0  0  0  0  0
  190.0940  173.6670  139.1250 C   0  0  0  0  0  0  0  0  0  0  0  0
  186.0550  177.3330  144.0890 N   0  0  0  0  0  0  0  0  0  0  0  0
  188.1540  177.2920  144.6250 C   0  0  0  0  0  0  0  0  0  0  0  0
  186.1290  176.7920  145.3230 C   0  0  0  0  0  2  0  0  0  0  0  0
  187.2780  177.6390  143.6640 N   0  0  0  0  0  0  0  0  0  0  0  0
  187.4580  176.7560  145.6850 C   0  0  0  0  0  0  0  0  0  0  0  0
  188.0050  176.3180  147.0020 C   0  0  0  0  0  2  0  0  0  0  0  0
  188.9000  175.1070  146.8320 C   0  0  0  0  0  1  0  0  0  0  0  0
  195.5910  174.7430  144.4220 N   0  0  0  0  0  0  0  0  0  0  0  0
  196.2670  175.9630  143.9510 C   0  0  0  0  0  2  0  0  0  0  0  0
  197.2660  175.7080  142.8360 C   0  0  0  0  0  2  0  0  0  0  0  0
  196.4770  176.0050  141.2210 S   0  0  0  0  0  0  0  0  0  0  0  0
  194.9670  173.7090  140.8970 C   0  0  0  0  0  1  0  0  0  0  0  0
  196.3910  174.2310  140.7780 C   0  0  1  0  0  3  0  0  0  0  0  0
  196.9080  174.0050  139.4390 N   0  0  0  0  0  2  0  0  0  0  0  0
  196.7350  175.2490  138.7140 C   0  0  0  0  0  1  0  0  0  0  0  0
  196.0640  174.3700  145.7650 C   0  0  0  0  0  2  0  0  0  0  0  0
  197.2070  173.3500  145.7310 C   0  0  0  0  0  2  0  0  0  0  0  0
  196.7850  171.2670  144.4110 C   0  0  0  0  0  1  0  0  0  0  0  0
  196.6770  171.9250  145.7770 C   0  0  0  0  0  2  0  0  0  0  0  0
  1 12  1  6  0  0  0
  1  5  1  0  0  0  0
  3  1  1  0  0  0  0
  3 10  1  1  0  0  0
  5  2  1  0  0  0  0
  5  4  2  0  0  0  0
  6 23  1  6  0  0  0
  7 29  1  1  0  0  0
  7  8  1  0  0  0  0
  7  2  1  0  0  0  0
  8 10  1  0  0  0  0
  9 12  1  6  0  0  0
  9 11  1  0  0  0  0
  9  1  1  0  0  0  0
  9  6  1  0  0  0  0
 11  6  1  0  0  0  0
 13 14  1  0  0  0  0
 14 17  2  0  0  0  0
 14 16  1  0  0  0  0
 15 20  1  1  0  0  0
 15  3  1  0  0  0  0
 16 20  2  0  0  0  0
 17 15  1  0  0  0  0
 18 17  1  0  0  0  0
 19 21  1  0  0  0  0
 21 13  2  0  0  0  0
 21 18  1  0  0  0  0
 22 24  1  0  0  0  0
 23 26  2  0  0  0  0
 24 26  1  0  0  0  0
 25 22  2  0  0  0  0
 25 23  1  0  0  0  0
 26 27  1  0  0  0  0
 28 27  1  0  0  0  0
 29 37  1  0  0  0  0
 30 29  1  0  0  0  0
 31 30  1  0  0  0  0
 32 31  1  0  0  0  0
 34 33  1  6  0  0  0
 34 32  1  0  0  0  0
 35 34  1  0  0  0  0
 36 35  1  0  0  0  0
 38 37  1  0  0  0  0
 38 40  1  0  0  0  0
 39 40  1  0  0  0  0
M  END
>  <MODEL>
7

>  <REMARK>
 VINA RESULT:      -6.1      3.055      8.432
  Name = 
  12 active torsions:
  status: ('A' for Active; 'I' for Inactive)
    1  A    between atoms: C_5  and  C_15
    2  A    between atoms: C_7  and  C_10
    3  A    between atoms: C_7  and  S_36
    4  A    between atoms: C_10  and  N_28
    5  A    between atoms: C_11  and  C_16
    6  A    between atoms: C_12  and  N_28
    7  A    between atoms: C_12  and  C_30
    8  A    between atoms: N_13  and  C_35
    9  A    between atoms: C_19  and  C_37
   10  A    between atoms: C_24  and  N_28
   11  A    between atoms: C_29  and  C_30
   12  A    between atoms: C_35  and  S_36
                            x       y       z     vdW  Elec       q    Type
                         _______ _______ _______ _____ _____    ______ ____

>  <TORSDO>
F 12

$$$$
=
 OpenBabel11042419273D

 40 45  0  0  1  0  0  0  0  0999 V2000
  192.2540  175.6110  144.3280 C   0  0  2  0  0  0  0  0  0  0  0  0
  194.4520  175.5390  145.6480 O   0  0  0  0  0  0  0  0  0  0  0  0
  192.2340  174.0720  144.0870 C   0  0  1  0  0  3  0  0  0  0  0  0
  192.8980  177.1390  146.1060 O   0  0  0  0  0  0  0  0  0  0  0  0
  193.2070  176.1390  145.4090 C   0  0  0  0  0  0  0  0  0  0  0  0
  190.6350  177.3510  144.6740 C   0  0  1  0  0  3  0  0  0  0  0  0
  194.9100  174.3850  144.9540 C   0  0  2  0  0  3  0  0  0  0  0  0
  194.1470  173.1430  145.4320 C   0  0  0  0  0  2  0  0  0  0  0  0
  191.2100  176.4790  143.5400 C   0  0  1  0  0  0  0  0  0  0  0  0
  192.6290  173.2920  145.3330 C   0  0  0  0  0  2  0  0  0  0  0  0
  191.2140  178.0150  143.4900 C   0  0  0  0  0  2  0  0  0  0  0  0
  192.6520  176.2940  143.0800 C   0  0  0  0  0  2  0  0  0  0  0  0
  189.8790  173.8760  140.0400 N   0  0  0  0  0  0  0  0  0  0  0  0
  189.9410  173.9090  141.3930 C   0  0  0  0  0  0  0  0  0  0  0  0
  191.0070  173.4180  143.4290 C   0  0  2  0  0  3  0  0  0  0  0  0
  188.9280  174.3290  142.3790 C   0  0  0  0  0  3  0  0  0  0  0  0
  191.0610  173.4370  141.9550 C   0  0  0  0  0  0  0  0  0  0  0  0
  192.1290  172.8820  140.7810 S   0  0  0  0  0  0  0  0  0  0  0  0
  191.2940  173.1970  138.1690 N   0  0  0  0  0  1  0  0  0  0  0  0
  189.6590  174.1180  143.7310 C   0  0  0  0  0  3  0  0  0  0  0  0
  191.0330  173.3430  139.5610 C   0  0  0  0  0  0  0  0  0  0  0  0
  187.0880  177.4620  143.9660 N   0  0  0  0  0  0  0  0  0  0  0  0
  189.1400  177.2850  144.6390 C   0  0  0  0  0  0  0  0  0  0  0  0
  187.0430  176.9580  145.2170 C   0  0  0  0  0  2  0  0  0  0  0  0
  188.3540  177.6650  143.6140 N   0  0  0  0  0  0  0  0  0  0  0  0
  188.3400  176.8360  145.6660 C   0  0  0  0  0  0  0  0  0  0  0  0
  188.7680  176.4020  147.0280 C   0  0  0  0  0  2  0  0  0  0  0  0
  189.0190  174.9080  147.0560 C   0  0  0  0  0  1  0  0  0  0  0  0
  196.3580  174.2060  145.1530 N   0  0  0  0  0  0  0  0  0  0  0  0
  196.6950  172.9360  145.8180 C   0  0  0  0  0  2  0  0  0  0  0  0
  197.5620  172.0210  144.9690 C   0  0  0  0  0  2  0  0  0  0  0  0
  196.6410  170.5030  144.5620 S   0  0  0  0  0  0  0  0  0  0  0  0
  195.1350  169.3880  146.5970 C   0  0  0  0  0  1  0  0  0  0  0  0
  196.5210  169.9400  146.2990 C   0  0  1  0  0  3  0  0  0  0  0  0
  197.5410  168.9490  146.5950 N   0  0  0  0  0  2  0  0  0  0  0  0
  197.1860  168.3600  147.8730 C   0  0  0  0  0  1  0  0  0  0  0  0
  197.1330  174.3670  143.9130 C   0  0  0  0  0  2  0  0  0  0  0  0
  196.8540  175.6960  143.2050 C   0  0  0  0  0  2  0  0  0  0  0  0
  196.2270  175.8060  140.7850 C   0  0  0  0  0  1  0  0  0  0  0  0
  197.3730  175.6820  141.7750 C   0  0  0  0  0  2  0  0  0  0  0  0
  1 12  1  6  0  0  0
  1  5  1  0  0  0  0
  3  1  1  0  0  0  0
  3 10  1  1  0  0  0
  5  2  1  0  0  0  0
  5  4  2  0  0  0  0
  6 23  1  6  0  0  0
  7 29  1  1  0  0  0
  7  8  1  0  0  0  0
  7  2  1  0  0  0  0
  9 12  1  6  0  0  0
  9  1  1  0  0  0  0
  9  6  1  0  0  0  0
 10  8  1  0  0  0  0
 11  9  1  0  0  0  0
 11  6  1  0  0  0  0
 13 14  1  0  0  0  0
 14 17  2  0  0  0  0
 14 16  1  0  0  0  0
 15 20  1  6  0  0  0
 15  3  1  0  0  0  0
 16 20  2  0  0  0  0
 17 15  1  0  0  0  0
 18 17  1  0  0  0  0
 19 21  1  0  0  0  0
 21 13  2  0  0  0  0
 21 18  1  0  0  0  0
 22 24  1  0  0  0  0
 23 26  2  0  0  0  0
 24 26  1  0  0  0  0
 25 22  2  0  0  0  0
 25 23  1  0  0  0  0
 26 27  1  0  0  0  0
 27 28  1  0  0  0  0
 29 30  1  0  0  0  0
 31 30  1  0  0  0  0
 32 31  1  0  0  0  0
 32 34  1  0  0  0  0
 34 35  1  0  0  0  0
 34 33  1  6  0  0  0
 35 36  1  0  0  0  0
 37 29  1  0  0  0  0
 38 37  1  0  0  0  0
 39 40  1  0  0  0  0
 40 38  1  0  0  0  0
M  END
>  <MODEL>
8

>  <REMARK>
 VINA RESULT:      -6.1      3.233      8.538
  Name = 
  12 active torsions:
  status: ('A' for Active; 'I' for Inactive)
    1  A    between atoms: C_5  and  C_15
    2  A    between atoms: C_7  and  C_10
    3  A    between atoms: C_7  and  S_36
    4  A    between atoms: C_10  and  N_28
    5  A    between atoms: C_11  and  C_16
    6  A    between atoms: C_12  and  N_28
    7  A    between atoms: C_12  and  C_30
    8  A    between atoms: N_13  and  C_35
    9  A    between atoms: C_19  and  C_37
   10  A    between atoms: C_24  and  N_28
   11  A    between atoms: C_29  and  C_30
   12  A    between atoms: C_35  and  S_36
                            x       y       z     vdW  Elec       q    Type
                         _______ _______ _______ _____ _____    ______ ____

>  <TORSDO>
F 12

$$$$
=
 OpenBabel11042419273D

 40 45  0  0  1  0  0  0  0  0999 V2000
  193.4100  174.7060  144.3790 C   0  0  2  0  0  0  0  0  0  0  0  0
  192.3960  177.0390  144.7110 O   0  0  0  0  0  0  0  0  0  0  0  0
  192.1360  174.1450  143.6790 C   0  0  1  0  0  3  0  0  0  0  0  0
  194.6450  176.8000  144.4440 O   0  0  0  0  0  0  0  0  0  0  0  0
  193.5250  176.2320  144.5070 C   0  0  0  0  0  0  0  0  0  0  0  0
  195.7840  174.3770  144.2240 C   0  0  1  0  0  3  0  0  0  0  0  0
  191.0690  176.5280  144.7710 C   0  0  2  0  0  3  0  0  0  0  0  0
  190.6000  176.1130  143.3700 C   0  0  0  0  0  2  0  0  0  0  0  0
  194.5270  173.6780  144.7800 C   0  0  1  0  0  0  0  0  0  0  0  0
  191.5480  175.1330  142.6820 C   0  0  0  0  0  2  0  0  0  0  0  0
  195.7460  174.0130  145.6540 C   0  0  0  0  0  2  0  0  0  0  0  0
  193.4760  174.1860  145.7610 C   0  0  0  0  0  2  0  0  0  0  0  0
  192.0570  171.9080  139.5620 N   0  0  0  0  0  0  0  0  0  0  0  0
  191.7160  172.0330  140.8670 C   0  0  0  0  0  0  0  0  0  0  0  0
  192.1620  172.7350  143.0650 C   0  0  2  0  0  3  0  0  0  0  0  0
  190.5770  171.4620  141.6090 C   0  0  0  0  0  3  0  0  0  0  0  0
  192.5560  172.7290  141.6440 C   0  0  0  0  0  0  0  0  0  0  0  0
  193.8810  173.2640  140.7580 S   0  0  0  0  0  0  0  0  0  0  0  0
  193.8490  172.6340  138.0710 N   0  0  0  0  0  1  0  0  0  0  0  0
  190.7930  172.0110  143.0440 C   0  0  0  0  0  3  0  0  0  0  0  0
  193.2320  172.5550  139.3520 C   0  0  0  0  0  0  0  0  0  0  0  0
  197.3550  171.5570  142.5900 N   0  0  0  0  0  0  0  0  0  0  0  0
  196.5610  173.4070  143.3890 C   0  0  0  0  0  0  0  0  0  0  0  0
  197.9410  172.5590  141.9010 C   0  0  0  0  0  3  0  0  0  0  0  0
  196.5220  172.0650  143.4930 N   0  0  0  0  0  2  0  0  0  0  0  0
  197.4490  173.7480  142.3940 C   0  0  0  0  0  0  0  0  0  0  0  0
  197.8790  175.1180  141.9910 C   0  0  0  0  0  2  0  0  0  0  0  0
  196.9880  175.6540  140.8890 C   0  0  0  0  0  1  0  0  0  0  0  0
  190.1560  177.5330  145.3400 N   0  0  0  0  0  0  0  0  0  0  0  0
  189.0580  177.8950  144.4300 C   0  0  0  0  0  2  0  0  0  0  0  0
  187.6910  177.4620  144.9290 C   0  0  0  0  0  2  0  0  0  0  0  0
  186.4290  178.6580  144.3860 S   0  0  0  0  0  0  0  0  0  0  0  0
  184.4210  177.9300  142.6270 C   0  0  0  0  0  1  0  0  0  0  0  0
  185.8760  177.6440  142.9650 C   0  0  1  0  0  3  0  0  0  0  0  0
  186.7240  177.8680  141.8070 N   0  0  0  0  0  2  0  0  0  0  0  0
  187.2590  176.5730  141.4310 C   0  0  0  0  0  1  0  0  0  0  0  0
  189.6330  177.1500  146.6620 C   0  0  0  0  0  2  0  0  0  0  0  0
  190.3730  175.9550  147.2710 C   0  0  0  0  0  2  0  0  0  0  0  0
  189.3240  174.0020  146.1130 C   0  0  0  0  0  1  0  0  0  0  0  0
  189.4520  174.7550  147.4270 C   0  0  0  0  0  2  0  0  0  0  0  0
  1  5  1  0  0  0  0
  1  9  1  0  0  0  0
  1 12  1  1  0  0  0
  2  7  1  0  0  0  0
  3 10  1  6  0  0  0
  3  1  1  0  0  0  0
  4  5  2  0  0  0  0
  5  2  1  0  0  0  0
  6 23  1  6  0  0  0
  6  9  1  0  0  0  0
  6 11  1  0  0  0  0
  7 29  1  6  0  0  0
  8  7  1  0  0  0  0
  9 11  1  1  0  0  0
  9 12  1  0  0  0  0
 10  8  1  0  0  0  0
 13 14  1  0  0  0  0
 14 16  1  0  0  0  0
 14 17  2  0  0  0  0
 15 20  1  6  0  0  0
 15  3  1  0  0  0  0
 16 20  2  0  0  0  0
 17 15  1  0  0  0  0
 18 17  1  0  0  0  0
 19 21  1  0  0  0  0
 21 13  2  0  0  0  0
 21 18  1  0  0  0  0
 22 25  1  0  0  0  0
 23 25  1  0  0  0  0
 24 26  1  0  0  0  0
 24 22  2  0  0  0  0
 26 23  2  0  0  0  0
 27 26  1  0  0  0  0
 28 27  1  0  0  0  0
 29 37  1  0  0  0  0
 30 31  1  0  0  0  0
 30 29  1  0  0  0  0
 32 31  1  0  0  0  0
 34 33  1  6  0  0  0
 34 32  1  0  0  0  0
 35 34  1  0  0  0  0
 36 35  1  0  0  0  0
 37 38  1  0  0  0  0
 38 40  1  0  0  0  0
 39 40  1  0  0  0  0
M  END
>  <MODEL>
9

>  <REMARK>
 VINA RESULT:      -6.0      2.598      4.783
  Name = 
  12 active torsions:
  status: ('A' for Active; 'I' for Inactive)
    1  A    between atoms: C_5  and  C_15
    2  A    between atoms: C_7  and  C_10
    3  A    between atoms: C_7  and  S_36
    4  A    between atoms: C_10  and  N_28
    5  A    between atoms: C_11  and  C_16
    6  A    between atoms: C_12  and  N_28
    7  A    between atoms: C_12  and  C_30
    8  A    between atoms: N_13  and  C_35
    9  A    between atoms: C_19  and  C_37
   10  A    between atoms: C_24  and  N_28
   11  A    between atoms: C_29  and  C_30
   12  A    between atoms: C_35  and  S_36
                            x       y       z     vdW  Elec       q    Type
                         _______ _______ _______ _____ _____    ______ ____

>  <TORSDO>
F 12

$$$$
