=
 OpenBabel11042418063D

 65 69  0  0  1  0  0  0  0  0999 V2000
  187.6940  177.9180  147.7290 C   0  0  0  0  0  0  0  0  0  0  0  0
  188.9010  178.1160  141.6930 C   0  0  0  0  0  1  0  0  0  0  0  0
  190.8650  175.3220  144.3070 C   0  0  0  0  0  2  0  0  0  0  0  0
  188.7790  175.8060  146.7500 C   0  0  0  0  0  2  0  0  0  0  0  0
  184.2050  178.6560  145.9070 S   0  0  0  0  0  0  0  0  0  0  0  0
  188.7530  176.9560  147.6420 N   0  0  0  0  0  2  0  0  0  0  0  0
  187.8700  176.5770  143.4280 C   0  0  0  0  0  2  0  0  0  0  0  0
  188.9550  176.7530  142.3660 C   0  0  1  0  0  3  0  0  0  0  0  0
  192.9660  175.6490  142.9390 C   0  0  0  0  0  0  0  0  0  0  0  0
  187.8150  178.9630  148.6600 C   0  0  0  0  0  3  0  0  0  0  0  0
  185.6790  179.8910  147.9540 C   0  0  0  0  0  3  0  0  0  0  0  0
  188.8950  175.6910  141.3740 N   0  0  0  0  0  2  0  0  0  0  0  0
  185.1550  177.3370  145.0230 C   0  0  1  0  0  3  0  0  0  0  0  0
  193.6210  175.4320  141.8830 O   0  0  0  0  0  0  0  0  0  0  0  0
  186.5390  177.8880  146.9150 C   0  0  0  0  0  0  0  0  0  0  0  0
  189.4810  174.4770  141.9450 C   0  0  2  0  0  3  0  0  0  0  0  0
  191.0080  174.5310  141.8800 C   0  0  0  0  0  2  0  0  0  0  0  0
  185.5480  178.8370  147.0580 C   0  0  0  0  0  0  0  0  0  0  0  0
  193.5420  176.5460  144.0070 C   0  0  1  0  0  3  0  0  0  0  0  0
  185.6050  177.8310  143.6320 C   0  0  1  0  0  3  0  0  0  0  0  0
  191.6290  175.1410  143.0640 N   0  0  0  0  0  0  0  0  0  0  0  0
  191.7010  175.7390  145.4920 C   0  0  0  0  0  0  0  0  0  0  0  0
  186.8190  179.9480  148.7680 C   0  0  0  0  0  3  0  0  0  0  0  0
  186.0370  176.1340  142.0120 O   0  0  0  0  0  0  0  0  0  0  0  0
  186.3120  176.9840  145.8460 N   0  0  0  0  0  2  0  0  0  0  0  0
  191.1980  175.5910  146.7950 O   0  0  0  0  0  0  0  0  0  0  0  0
  189.9680  174.9210  147.0910 C   0  0  0  0  0  2  0  0  0  0  0  0
  186.4640  176.7980  142.9380 C   0  0  0  0  0  0  0  0  0  0  0  0
  192.9060  176.2790  145.3390 C   0  0  0  0  0  3  0  0  0  0  0  0
  188.9720  173.2770  141.1430 C   0  0  0  0  0  3  0  0  0  0  0  0
  188.2350  172.3560  142.0970 C   0  0  0  0  0  2  0  0  0  0  0  0
  189.6300  172.0070  141.6270 C   0  0  0  0  0  2  0  0  0  0  0  0
  184.3860  178.1940  142.7760 C   0  0  0  0  0  2  0  0  0  0  0  0
  184.8100  178.6080  141.3780 C   0  0  0  0  0  2  0  0  0  0  0  0
  183.6370  178.6400  140.5060 N   0  0  0  0  0  2  0  0  0  0  0  0
  182.5560  178.1380  141.2540 N   0  0  0  0  0  2  0  0  0  0  0  0
  180.2330  179.0070  141.1580 C   0  0  0  0  0  0  0  0  0  0  0  0
  180.1450  179.0360  142.4150 O   0  0  0  0  0  0  0  0  0  0  0  0
  181.3830  178.4200  140.5300 N   0  0  0  0  0  2  0  0  0  0  0  0
  179.1420  179.5900  140.3150 C   0  0  0  0  0  2  0  0  0  0  0  0
  179.5540  180.9470  139.7650 C   0  0  0  0  0  2  0  0  0  0  0  0
  178.8270  181.3480  138.4810 C   0  0  0  0  0  2  0  0  0  0  0  0
  179.2770  183.5070  137.2720 C   0  0  0  0  0  1  0  0  0  0  0  0
  178.5110  182.8420  138.4060 C   0  0  2  0  0  3  0  0  0  0  0  0
  178.8240  183.4690  139.6120 O   0  0  0  0  0  1  0  0  0  0  0  0
  194.9250  176.3560  144.1310 O   0  0  0  0  0  0  0  0  0  0  0  0
  195.0830  175.3810  145.1210 C   0  0  0  0  0  2  0  0  0  0  0  0
  196.8440  174.1230  146.2110 O   0  0  0  0  0  1  0  0  0  0  0  0
  196.4510  174.6910  144.9960 C   0  0  1  0  0  3  0  0  0  0  0  0
  196.4610  173.6420  143.8700 C   0  0  1  0  0  3  0  0  0  0  0  0
  196.8430  174.9710  141.8800 O   0  0  0  0  0  1  0  0  0  0  0  0
  197.6730  172.8610  141.9240 O   0  0  0  0  0  1  0  0  0  0  0  0
  197.4140  173.9970  142.7000 C   0  0  0  0  0  3  0  0  0  0  0  0
  196.7840  172.3860  144.4050 O   0  0  0  0  0  0  0  0  0  0  0  0
  195.6290  171.6180  144.2360 C   0  0  0  0  0  2  0  0  0  0  0  0
  194.4930  172.4800  143.7010 C   0  0  0  0  0  2  0  0  0  0  0  0
  193.1490  172.0510  144.2800 C   0  0  0  0  0  2  0  0  0  0  0  0
  193.0800  170.5990  144.3520 N   0  0  0  0  0  2  0  0  0  0  0  0
  192.1940  170.1650  143.2820 C   0  0  0  0  0  2  0  0  0  0  0  0
  192.7770  168.9360  142.6050 C   0  0  0  0  0  2  0  0  0  0  0  0
  195.0370  169.3530  141.1210 O   0  0  0  0  0  1  0  0  0  0  0  0
  193.5300  169.3400  140.9910 P   0  0  2  0  0  0  0  0  0  0  0  0
  192.9730  170.8560  140.4740 O   0  0  0  0  0  0  0  0  0  0  0  0
  193.1670  168.7820  138.6100 C   0  0  0  0  0  1  0  0  0  0  0  0
  193.0600  168.1660  139.8680 O   0  0  0  0  0  0  0  0  0  0  0  0
  1 10  1  0  0  0  0
  3 22  1  0  0  0  0
  4 27  1  0  0  0  0
  4  6  1  0  0  0  0
  5 18  1  0  0  0  0
  6  1  1  0  0  0  0
  8  2  1  6  0  0  0
  8  7  1  0  0  0  0
  9 21  1  0  0  0  0
  9 19  1  0  0  0  0
 10 23  2  0  0  0  0
 11 23  1  0  0  0  0
 12 16  1  0  0  0  0
 12  8  1  0  0  0  0
 13 25  1  1  0  0  0
 13  5  1  0  0  0  0
 14  9  2  0  0  0  0
 15 18  1  0  0  0  0
 15  1  2  0  0  0  0
 16 30  1  6  0  0  0
 17 16  1  0  0  0  0
 17 21  1  0  0  0  0
 18 11  2  0  0  0  0
 19 46  1  1  0  0  0
 19 29  1  0  0  0  0
 20 33  1  6  0  0  0
 20 13  1  0  0  0  0
 21  3  1  0  0  0  0
 22 26  1  0  0  0  0
 24 28  2  0  0  0  0
 25 15  1  0  0  0  0
 26 27  1  0  0  0  0
 28  7  1  0  0  0  0
 28 20  1  0  0  0  0
 29 22  2  0  0  0  0
 30 32  1  0  0  0  0
 30 31  1  0  0  0  0
 32 31  1  0  0  0  0
 34 33  1  0  0  0  0
 35 36  1  0  0  0  0
 35 34  1  0  0  0  0
 37 38  2  0  0  0  0
 39 37  1  0  0  0  0
 39 36  1  0  0  0  0
 40 37  1  0  0  0  0
 41 40  1  0  0  0  0
 42 41  1  0  0  0  0
 44 43  1  6  0  0  0
 44 42  1  0  0  0  0
 44 45  1  0  0  0  0
 46 47  1  0  0  0  0
 49 47  1  0  0  0  0
 49 48  1  1  0  0  0
 50 53  1  6  0  0  0
 50 54  1  0  0  0  0
 50 49  1  0  0  0  0
 51 53  1  0  0  0  0
 52 53  1  0  0  0  0
 55 54  1  0  0  0  0
 56 55  1  0  0  0  0
 56 57  1  0  0  0  0
 57 58  1  0  0  0  0
 59 58  1  0  0  0  0
 60 59  1  0  0  0  0
 62 63  2  6  0  0  0
 62 61  1  0  0  0  0
 62 60  1  0  0  0  0
 64 65  1  0  0  0  0
 65 62  1  0  0  0  0
M  END
>  <MODEL>
1

>  <REMARK>
 VINA RESULT:      -5.9      0.000      0.000
  Name = 
  24 active torsions:
  status: ('A' for Active; 'I' for Inactive)
    1  A    between atoms: C_1  and  O_15
    2  A    between atoms: C_1  and  C_58
    3  A    between atoms: C_3  and  C_37
    4  A    between atoms: C_4  and  N_48
    5  A    between atoms: C_4  and  C_62
    6  A    between atoms: C_5  and  O_15
    7  A    between atoms: C_5  and  C_19
    8  A    between atoms: C_5  and  C_64
    9  A    between atoms: C_9  and  C_52
   10  A    between atoms: O_11  and  C_42
   11  A    between atoms: O_11  and  C_46
   12  A    between atoms: C_14  and  C_63
   13  A    between atoms: O_22  and  P_41
   14  A    between atoms: C_24  and  C_43
   15  A    between atoms: C_24  and  C_53
   16  A    between atoms: C_28  and  N_48
   17  A    between atoms: C_28  and  C_58
   18  A    between atoms: N_40  and  N_49
   19  A    between atoms: P_41  and  C_62
   20  A    between atoms: C_46  and  C_64
   21  A    between atoms: C_47  and  C_52
   22  A    between atoms: C_47  and  C_63
   23  A    between atoms: N_49  and  N_50
   24  A    between atoms: N_50  and  C_53
                            x       y       z     vdW  Elec       q    Type
                         _______ _______ _______ _____ _____    ______ ____

>  <TORSDO>
F 24

$$$$
=
 OpenBabel11042418063D

 65 69  0  0  1  0  0  0  0  0999 V2000
  190.0550  171.4110  138.5950 C   0  0  0  0  0  0  0  0  0  0  0  0
  195.9000  172.5140  140.1900 C   0  0  0  0  0  1  0  0  0  0  0  0
  192.7070  172.6190  143.0680 C   0  0  0  0  0  2  0  0  0  0  0  0
  190.5860  171.1510  141.0940 C   0  0  0  0  0  2  0  0  0  0  0  0
  192.3050  168.9010  136.4310 S   0  0  0  0  0  0  0  0  0  0  0  0
  189.8880  171.7650  139.9730 N   0  0  0  0  0  2  0  0  0  0  0  0
  194.0600  170.8100  140.5770 C   0  0  0  0  0  2  0  0  0  0  0  0
  195.0230  171.8100  141.2140 C   0  0  1  0  0  3  0  0  0  0  0  0
  193.8940  174.5510  144.1890 C   0  0  0  0  0  0  0  0  0  0  0  0
  189.2890  172.0890  137.6330 C   0  0  0  0  0  3  0  0  0  0  0  0
  190.3370  170.8160  135.8430 C   0  0  0  0  0  3  0  0  0  0  0  0
  195.8410  171.1720  142.2350 N   0  0  0  0  0  2  0  0  0  0  0  0
  192.8770  168.9650  138.1910 C   0  0  1  0  0  3  0  0  0  0  0  0
  194.8340  174.9750  144.9140 O   0  0  0  0  0  0  0  0  0  0  0  0
  190.9650  170.4280  138.1420 C   0  0  0  0  0  0  0  0  0  0  0  0
  195.0350  170.9940  143.4440 C   0  0  2  0  0  3  0  0  0  0  0  0
  194.9560  172.2980  144.2390 C   0  0  0  0  0  2  0  0  0  0  0  0
  191.0690  170.1240  136.8010 C   0  0  0  0  0  0  0  0  0  0  0  0
  192.9250  175.5280  143.5690 C   0  0  1  0  0  3  0  0  0  0  0  0
  194.2770  169.6100  138.2830 C   0  0  1  0  0  3  0  0  0  0  0  0
  193.8250  173.1550  143.8580 N   0  0  0  0  0  0  0  0  0  0  0  0
  191.5230  173.5500  142.9620 C   0  0  0  0  0  0  0  0  0  0  0  0
  189.4330  171.8010  136.2650 C   0  0  0  0  0  3  0  0  0  0  0  0
  195.5650  169.0320  140.2060 O   0  0  0  0  0  0  0  0  0  0  0  0
  191.9000  169.7390  138.9560 N   0  0  0  0  0  2  0  0  0  0  0  0
  190.2690  173.0510  142.5730 O   0  0  0  0  0  0  0  0  0  0  0  0
  189.9960  171.6570  142.4020 C   0  0  0  0  0  2  0  0  0  0  0  0
  194.7150  169.7570  139.7240 C   0  0  0  0  0  0  0  0  0  0  0  0
  191.6370  174.8520  143.2000 C   0  0  0  0  0  3  0  0  0  0  0  0
  195.6890  169.9060  144.2990 C   0  0  0  0  0  3  0  0  0  0  0  0
  194.8510  169.7270  145.5500 C   0  0  0  0  0  2  0  0  0  0  0  0
  196.1580  170.4850  145.6120 C   0  0  0  0  0  2  0  0  0  0  0  0
  195.2940  168.7910  137.4820 C   0  0  0  0  0  2  0  0  0  0  0  0
  196.4120  169.6760  136.9600 C   0  0  0  0  0  2  0  0  0  0  0  0
  196.5320  169.5040  135.5130 N   0  0  0  0  0  2  0  0  0  0  0  0
  195.4410  170.1750  134.9300 N   0  0  0  0  0  2  0  0  0  0  0  0
  194.8390  172.5760  135.1230 C   0  0  0  0  0  0  0  0  0  0  0  0
  193.6090  172.3070  135.1900 O   0  0  0  0  0  0  0  0  0  0  0  0
  195.7890  171.5360  134.8440 N   0  0  0  0  0  2  0  0  0  0  0  0
  195.3150  173.9770  135.3430 C   0  0  0  0  0  2  0  0  0  0  0  0
  194.2480  174.8070  136.0380 C   0  0  0  0  0  2  0  0  0  0  0  0
  194.4130  174.8920  137.5570 C   0  0  0  0  0  2  0  0  0  0  0  0
  191.9740  174.2820  137.6190 C   0  0  0  0  0  1  0  0  0  0  0  0
  193.3160  174.1560  138.3260 C   0  0  2  0  0  3  0  0  0  0  0  0
  193.2090  174.6550  139.6250 O   0  0  0  0  0  1  0  0  0  0  0  0
  192.6370  176.5770  144.4520 O   0  0  0  0  0  0  0  0  0  0  0  0
  191.8470  176.0150  145.4590 C   0  0  0  0  0  2  0  0  0  0  0  0
  190.3810  177.7800  144.6740 O   0  0  0  0  0  1  0  0  0  0  0  0
  190.5960  176.8730  145.7160 C   0  0  1  0  0  3  0  0  0  0  0  0
  189.3490  176.0040  145.9570 C   0  0  1  0  0  3  0  0  0  0  0  0
  189.5100  173.5880  145.9000 O   0  0  0  0  0  1  0  0  0  0  0  0
  188.7490  174.5570  147.8030 O   0  0  0  0  0  1  0  0  0  0  0  0
  189.6430  174.6980  146.7360 C   0  0  0  0  0  3  0  0  0  0  0  0
  188.3720  176.7640  146.6190 O   0  0  0  0  0  0  0  0  0  0  0  0
  187.3920  177.0070  145.6530 C   0  0  0  0  0  2  0  0  0  0  0  0
  186.0190  177.1070  146.3060 C   0  0  0  0  0  2  0  0  0  0  0  0
  185.0410  177.8770  145.4270 C   0  0  0  0  0  2  0  0  0  0  0  0
  185.7580  178.5470  144.3520 N   0  0  0  0  0  2  0  0  0  0  0  0
  185.1000  178.1740  143.1090 C   0  0  0  0  0  2  0  0  0  0  0  0
  185.7370  176.9110  142.5550 C   0  0  0  0  0  2  0  0  0  0  0  0
  187.8310  176.0180  141.0370 O   0  0  0  0  0  0  0  0  0  0  0  0
  187.0750  177.2850  141.3700 P   0  0  2  0  0  0  0  0  0  0  0  0
  188.1230  178.4320  142.0490 O   0  0  0  0  0  1  0  0  0  0  0  0
  186.5360  176.9380  138.9820 C   0  0  0  0  0  1  0  0  0  0  0  0
  186.3860  177.9300  139.9650 O   0  0  0  0  0  0  0  0  0  0  0  0
  1  6  1  0  0  0  0
  3 21  1  0  0  0  0
  4 27  1  0  0  0  0
  5 18  1  0  0  0  0
  6  4  1  0  0  0  0
  7  8  1  0  0  0  0
  8  2  1  6  0  0  0
  8 12  1  0  0  0  0
  9 14  2  0  0  0  0
 10  1  2  0  0  0  0
 11 23  2  0  0  0  0
 11 18  1  0  0  0  0
 12 16  1  0  0  0  0
 13  5  1  6  0  0  0
 13 20  1  0  0  0  0
 13 25  1  0  0  0  0
 15  1  1  0  0  0  0
 15 25  1  0  0  0  0
 16 17  1  0  0  0  0
 16 30  1  1  0  0  0
 18 15  2  0  0  0  0
 19  9  1  0  0  0  0
 19 46  1  1  0  0  0
 20 33  1  6  0  0  0
 20 28  1  0  0  0  0
 21  9  1  0  0  0  0
 21 17  1  0  0  0  0
 22  3  1  0  0  0  0
 22 29  2  0  0  0  0
 23 10  1  0  0  0  0
 26 22  1  0  0  0  0
 27 26  1  0  0  0  0
 28 24  2  0  0  0  0
 28  7  1  0  0  0  0
 29 19  1  0  0  0  0
 30 31  1  0  0  0  0
 30 32  1  0  0  0  0
 31 32  1  0  0  0  0
 34 33  1  0  0  0  0
 35 34  1  0  0  0  0
 36 35  1  0  0  0  0
 37 38  2  0  0  0  0
 37 40  1  0  0  0  0
 39 36  1  0  0  0  0
 39 37  1  0  0  0  0
 40 41  1  0  0  0  0
 41 42  1  0  0  0  0
 42 44  1  0  0  0  0
 44 43  1  6  0  0  0
 44 45  1  0  0  0  0
 46 47  1  0  0  0  0
 47 49  1  0  0  0  0
 49 48  1  6  0  0  0
 49 50  1  0  0  0  0
 50 54  1  1  0  0  0
 50 53  1  0  0  0  0
 51 53  1  0  0  0  0
 53 52  1  0  0  0  0
 55 56  1  0  0  0  0
 55 54  1  0  0  0  0
 57 56  1  0  0  0  0
 58 57  1  0  0  0  0
 59 58  1  0  0  0  0
 60 59  1  0  0  0  0
 62 61  2  6  0  0  0
 62 63  1  0  0  0  0
 62 60  1  0  0  0  0
 64 65  1  0  0  0  0
 65 62  1  0  0  0  0
M  END
>  <MODEL>
2

>  <REMARK>
 VINA RESULT:      -5.7      4.375     11.262
  Name = 
  24 active torsions:
  status: ('A' for Active; 'I' for Inactive)
    1  A    between atoms: C_1  and  O_15
    2  A    between atoms: C_1  and  C_58
    3  A    between atoms: C_3  and  C_37
    4  A    between atoms: C_4  and  N_48
    5  A    between atoms: C_4  and  C_62
    6  A    between atoms: C_5  and  O_15
    7  A    between atoms: C_5  and  C_19
    8  A    between atoms: C_5  and  C_64
    9  A    between atoms: C_9  and  C_52
   10  A    between atoms: O_11  and  C_42
   11  A    between atoms: O_11  and  C_46
   12  A    between atoms: C_14  and  C_63
   13  A    between atoms: O_22  and  P_41
   14  A    between atoms: C_24  and  C_43
   15  A    between atoms: C_24  and  C_53
   16  A    between atoms: C_28  and  N_48
   17  A    between atoms: C_28  and  C_58
   18  A    between atoms: N_40  and  N_49
   19  A    between atoms: P_41  and  C_62
   20  A    between atoms: C_46  and  C_64
   21  A    between atoms: C_47  and  C_52
   22  A    between atoms: C_47  and  C_63
   23  A    between atoms: N_49  and  N_50
   24  A    between atoms: N_50  and  C_53
                            x       y       z     vdW  Elec       q    Type
                         _______ _______ _______ _____ _____    ______ ____

>  <TORSDO>
F 24

$$$$
=
 OpenBabel11042418063D

 65 69  0  0  1  0  0  0  0  0999 V2000
  187.3520  177.7480  147.6250 C   0  0  0  0  0  0  0  0  0  0  0  0
  189.2380  178.2680  141.7860 C   0  0  0  0  0  1  0  0  0  0  0  0
  190.5880  175.0730  144.3280 C   0  0  0  0  0  2  0  0  0  0  0  0
  188.3070  175.6070  146.5790 C   0  0  0  0  0  2  0  0  0  0  0  0
  184.1860  179.0230  145.5300 S   0  0  0  0  0  0  0  0  0  0  0  0
  188.3050  176.6800  147.5620 N   0  0  0  0  0  2  0  0  0  0  0  0
  187.8620  176.7300  143.2630 C   0  0  0  0  0  2  0  0  0  0  0  0
  189.0700  176.8600  142.3370 C   0  0  1  0  0  3  0  0  0  0  0  0
  192.8520  175.2580  143.2170 C   0  0  0  0  0  0  0  0  0  0  0  0
  187.4790  178.6970  148.6530 C   0  0  0  0  0  3  0  0  0  0  0  0
  185.5470  179.9180  147.8170 C   0  0  0  0  0  3  0  0  0  0  0  0
  189.0080  175.8910  141.2540 N   0  0  0  0  0  2  0  0  0  0  0  0
  185.0820  177.6740  144.6330 C   0  0  1  0  0  3  0  0  0  0  0  0
  193.5930  175.0490  142.2180 O   0  0  0  0  0  0  0  0  0  0  0  0
  186.2980  177.9150  146.6980 C   0  0  0  0  0  0  0  0  0  0  0  0
  189.3940  174.5770  141.7720 C   0  0  2  0  0  3  0  0  0  0  0  0
  190.9160  174.4590  141.8680 C   0  0  0  0  0  2  0  0  0  0  0  0
  185.4050  178.9580  146.8220 C   0  0  0  0  0  0  0  0  0  0  0  0
  193.3980  175.9980  144.4140 C   0  0  1  0  0  3  0  0  0  0  0  0
  185.7350  178.2190  143.3450 C   0  0  1  0  0  3  0  0  0  0  0  0
  191.4630  174.9000  143.1590 N   0  0  0  0  0  0  0  0  0  0  0  0
  191.3270  175.2980  145.6250 C   0  0  0  0  0  0  0  0  0  0  0  0
  186.5880  179.7800  148.7460 C   0  0  0  0  0  3  0  0  0  0  0  0
  186.1610  176.6120  141.6330 O   0  0  0  0  0  0  0  0  0  0  0  0
  186.0960  177.1280  145.5350 N   0  0  0  0  0  2  0  0  0  0  0  0
  190.6690  175.1090  146.8510 O   0  0  0  0  0  0  0  0  0  0  0  0
  189.3490  174.5660  146.9600 C   0  0  0  0  0  2  0  0  0  0  0  0
  186.5510  177.1490  142.6530 C   0  0  0  0  0  0  0  0  0  0  0  0
  192.5920  175.7050  145.6450 C   0  0  0  0  0  3  0  0  0  0  0  0
  188.8520  173.5100  140.8190 C   0  0  0  0  0  3  0  0  0  0  0  0
  187.8830  172.6390  141.5950 C   0  0  0  0  0  2  0  0  0  0  0  0
  189.2730  172.1350  141.2800 C   0  0  0  0  0  2  0  0  0  0  0  0
  184.6650  178.7850  142.4050 C   0  0  0  0  0  2  0  0  0  0  0  0
  183.6640  177.7110  142.0150 C   0  0  0  0  0  2  0  0  0  0  0  0
  182.7190  178.2590  141.0430 N   0  0  0  0  0  2  0  0  0  0  0  0
  181.6970  178.8890  141.7770 N   0  0  0  0  0  2  0  0  0  0  0  0
  179.5560  178.4860  140.5860 C   0  0  0  0  0  0  0  0  0  0  0  0
  179.5960  179.6210  140.0390 O   0  0  0  0  0  0  0  0  0  0  0  0
  180.5240  178.1340  141.5870 N   0  0  0  0  0  2  0  0  0  0  0  0
  178.5040  177.4980  140.1910 C   0  0  0  0  0  2  0  0  0  0  0  0
  178.2180  177.5820  138.7010 C   0  0  0  0  0  2  0  0  0  0  0  0
  178.7860  176.4180  137.8870 C   0  0  0  0  0  2  0  0  0  0  0  0
  179.4890  176.0470  135.5010 C   0  0  0  0  0  1  0  0  0  0  0  0
  178.3410  176.4290  136.4240 C   0  0  2  0  0  3  0  0  0  0  0  0
  177.8540  177.6870  136.0700 O   0  0  0  0  0  1  0  0  0  0  0  0
  194.7290  175.6400  144.6600 O   0  0  0  0  0  0  0  0  0  0  0  0
  194.6690  174.4760  145.4320 C   0  0  0  0  0  2  0  0  0  0  0  0
  195.7650  172.3510  145.8320 O   0  0  0  0  0  1  0  0  0  0  0  0
  195.8630  173.5550  145.1290 C   0  0  1  0  0  3  0  0  0  0  0  0
  196.0180  173.3000  143.6200 C   0  0  1  0  0  3  0  0  0  0  0  0
  197.9410  174.7400  143.9340 O   0  0  0  0  0  1  0  0  0  0  0  0
  197.0560  174.5890  141.8520 O   0  0  0  0  0  1  0  0  0  0  0  0
  197.3280  173.8760  143.0240 C   0  0  0  0  0  3  0  0  0  0  0  0
  195.9270  171.9220  143.3680 O   0  0  0  0  0  0  0  0  0  0  0  0
  195.0440  171.8130  142.2900 C   0  0  0  0  0  2  0  0  0  0  0  0
  193.8150  171.0100  142.6920 C   0  0  0  0  0  2  0  0  0  0  0  0
  192.7410  171.0590  141.6110 C   0  0  0  0  0  2  0  0  0  0  0  0
  193.3500  170.9120  140.2980 N   0  0  0  0  0  2  0  0  0  0  0  0
  192.7470  171.9200  139.4380 C   0  0  0  0  0  2  0  0  0  0  0  0
  192.2500  171.2660  138.1590 C   0  0  0  0  0  2  0  0  0  0  0  0
  191.6990  172.6690  135.8760 O   0  0  0  0  0  0  0  0  0  0  0  0
  191.1120  172.3560  137.2350 P   0  0  2  0  0  0  0  0  0  0  0  0
  190.8660  173.7860  138.1120 O   0  0  0  0  0  1  0  0  0  0  0  0
  189.4820  171.3510  135.6700 C   0  0  0  0  0  1  0  0  0  0  0  0
  189.6310  171.5580  137.0510 O   0  0  0  0  0  0  0  0  0  0  0  0
  1 10  1  0  0  0  0
  3 22  1  0  0  0  0
  4 27  1  0  0  0  0
  4  6  1  0  0  0  0
  5 18  1  0  0  0  0
  6  1  1  0  0  0  0
  8  2  1  6  0  0  0
  8  7  1  0  0  0  0
  9 19  1  0  0  0  0
 10 23  2  0  0  0  0
 11 23  1  0  0  0  0
 12 16  1  0  0  0  0
 12  8  1  0  0  0  0
 13  5  1  1  0  0  0
 13 25  1  0  0  0  0
 14  9  2  0  0  0  0
 15 18  1  0  0  0  0
 15  1  2  0  0  0  0
 16 30  1  6  0  0  0
 16 17  1  0  0  0  0
 17 21  1  0  0  0  0
 18 11  2  0  0  0  0
 19 46  1  1  0  0  0
 19 29  1  0  0  0  0
 20 33  1  6  0  0  0
 20 13  1  0  0  0  0
 21  9  1  0  0  0  0
 21  3  1  0  0  0  0
 22 29  2  0  0  0  0
 22 26  1  0  0  0  0
 24 28  2  0  0  0  0
 25 15  1  0  0  0  0
 26 27  1  0  0  0  0
 28  7  1  0  0  0  0
 28 20  1  0  0  0  0
 30 32  1  0  0  0  0
 30 31  1  0  0  0  0
 32 31  1  0  0  0  0
 34 33  1  0  0  0  0
 35 36  1  0  0  0  0
 35 34  1  0  0  0  0
 37 39  1  0  0  0  0
 38 37  2  0  0  0  0
 39 36  1  0  0  0  0
 40 37  1  0  0  0  0
 41 40  1  0  0  0  0
 42 41  1  0  0  0  0
 44 43  1  6  0  0  0
 44 42  1  0  0  0  0
 45 44  1  0  0  0  0
 46 47  1  0  0  0  0
 49 47  1  0  0  0  0
 49 48  1  1  0  0  0
 50 53  1  1  0  0  0
 50 49  1  0  0  0  0
 52 53  1  0  0  0  0
 53 51  1  0  0  0  0
 54 50  1  0  0  0  0
 55 56  1  0  0  0  0
 55 54  1  0  0  0  0
 57 56  1  0  0  0  0
 58 57  1  0  0  0  0
 59 58  1  0  0  0  0
 60 59  1  0  0  0  0
 62 61  2  6  0  0  0
 62 63  1  0  0  0  0
 62 60  1  0  0  0  0
 64 65  1  0  0  0  0
 65 62  1  0  0  0  0
M  END
>  <MODEL>
3

>  <REMARK>
 VINA RESULT:      -5.3      2.296      2.689
  Name = 
  24 active torsions:
  status: ('A' for Active; 'I' for Inactive)
    1  A    between atoms: C_1  and  O_15
    2  A    between atoms: C_1  and  C_58
    3  A    between atoms: C_3  and  C_37
    4  A    between atoms: C_4  and  N_48
    5  A    between atoms: C_4  and  C_62
    6  A    between atoms: C_5  and  O_15
    7  A    between atoms: C_5  and  C_19
    8  A    between atoms: C_5  and  C_64
    9  A    between atoms: C_9  and  C_52
   10  A    between atoms: O_11  and  C_42
   11  A    between atoms: O_11  and  C_46
   12  A    between atoms: C_14  and  C_63
   13  A    between atoms: O_22  and  P_41
   14  A    between atoms: C_24  and  C_43
   15  A    between atoms: C_24  and  C_53
   16  A    between atoms: C_28  and  N_48
   17  A    between atoms: C_28  and  C_58
   18  A    between atoms: N_40  and  N_49
   19  A    between atoms: P_41  and  C_62
   20  A    between atoms: C_46  and  C_64
   21  A    between atoms: C_47  and  C_52
   22  A    between atoms: C_47  and  C_63
   23  A    between atoms: N_49  and  N_50
   24  A    between atoms: N_50  and  C_53
                            x       y       z     vdW  Elec       q    Type
                         _______ _______ _______ _____ _____    ______ ____

>  <TORSDO>
F 24

$$$$
=
 OpenBabel11042418063D

 65 69  0  0  1  0  0  0  0  0999 V2000
  190.6530  173.6710  137.3570 C   0  0  0  0  0  0  0  0  0  0  0  0
  194.7860  176.3010  141.0890 C   0  0  0  0  0  1  0  0  0  0  0  0
  191.1270  174.6140  142.5910 C   0  0  0  0  0  2  0  0  0  0  0  0
  190.4750  173.0220  139.8350 C   0  0  0  0  0  2  0  0  0  0  0  0
  194.2580  172.6800  135.9200 S   0  0  0  0  0  0  0  0  0  0  0  0
  189.9560  173.6060  138.6070 N   0  0  0  0  0  2  0  0  0  0  0  0
  193.7700  174.0290  140.5950 C   0  0  0  0  0  2  0  0  0  0  0  0
  194.0090  175.1160  141.6410 C   0  0  1  0  0  3  0  0  0  0  0  0
  191.0380  176.5090  144.2630 C   0  0  0  0  0  0  0  0  0  0  0  0
  190.0020  174.2530  136.2570 C   0  0  0  0  0  3  0  0  0  0  0  0
  191.9560  173.8840  134.8550 C   0  0  0  0  0  3  0  0  0  0  0  0
  194.6710  174.5750  142.8180 N   0  0  0  0  0  2  0  0  0  0  0  0
  194.2050  172.5160  137.7630 C   0  0  1  0  0  3  0  0  0  0  0  0
  191.4630  177.0440  145.3220 O   0  0  0  0  0  0  0  0  0  0  0  0
  191.9730  173.1990  137.1700 C   0  0  0  0  0  0  0  0  0  0  0  0
  193.6870  173.8480  143.6220 C   0  0  2  0  0  3  0  0  0  0  0  0
  192.8540  174.8160  144.4640 C   0  0  0  0  0  2  0  0  0  0  0  0
  192.5840  173.2790  135.9360 C   0  0  0  0  0  0  0  0  0  0  0  0
  189.9880  177.2110  143.4360 C   0  0  1  0  0  3  0  0  0  0  0  0
  195.1250  173.5610  138.4290 C   0  0  1  0  0  3  0  0  0  0  0  0
  191.6420  175.2960  143.7870 N   0  0  0  0  0  0  0  0  0  0  0  0
  189.7570  175.0770  142.1550 C   0  0  0  0  0  0  0  0  0  0  0  0
  190.6500  174.3670  135.0150 C   0  0  0  0  0  3  0  0  0  0  0  0
  195.9020  173.0200  140.6190 O   0  0  0  0  0  0  0  0  0  0  0  0
  192.8180  172.7000  138.1930 N   0  0  0  0  0  2  0  0  0  0  0  0
  188.9910  174.2860  141.2840 O   0  0  0  0  0  0  0  0  0  0  0  0
  189.3710  172.9670  140.8810 C   0  0  0  0  0  2  0  0  0  0  0  0
  195.0170  173.5010  139.9370 C   0  0  0  0  0  0  0  0  0  0  0  0
  189.2580  176.2430  142.5530 C   0  0  0  0  0  3  0  0  0  0  0  0
  194.4390  172.8810  144.5390 C   0  0  0  0  0  3  0  0  0  0  0  0
  194.5240  171.5400  143.8360 C   0  0  0  0  0  2  0  0  0  0  0  0
  193.5330  171.7480  144.9590 C   0  0  0  0  0  2  0  0  0  0  0  0
  196.5750  173.3570  137.9760 C   0  0  0  0  0  2  0  0  0  0  0  0
  196.7480  172.0060  137.3040 C   0  0  0  0  0  2  0  0  0  0  0  0
  197.7610  171.2330  138.0210 N   0  0  0  0  0  2  0  0  0  0  0  0
  197.1140  170.6260  139.1140 N   0  0  0  0  0  2  0  0  0  0  0  0
  195.1030  169.1740  139.2180 C   0  0  0  0  0  0  0  0  0  0  0  0
  194.8170  169.5790  140.3760 O   0  0  0  0  0  0  0  0  0  0  0  0
  196.3390  169.5690  138.6020 N   0  0  0  0  0  2  0  0  0  0  0  0
  194.1550  168.2850  138.4750 C   0  0  0  0  0  2  0  0  0  0  0  0
  193.0790  169.1050  137.7820 C   0  0  0  0  0  2  0  0  0  0  0  0
  191.6920  168.9810  138.4170 C   0  0  0  0  0  2  0  0  0  0  0  0
  191.0850  169.8200  136.1250 C   0  0  0  0  0  1  0  0  0  0  0  0
  190.5520  169.2630  137.4370 C   0  0  2  0  0  3  0  0  0  0  0  0
  189.6420  170.1620  137.9920 O   0  0  0  0  0  1  0  0  0  0  0  0
  189.0520  177.8550  144.2560 O   0  0  0  0  0  0  0  0  0  0  0  0
  188.1330  176.8680  144.6240 C   0  0  0  0  0  2  0  0  0  0  0  0
  186.1610  175.9270  143.5740 O   0  0  0  0  0  1  0  0  0  0  0  0
  186.7640  177.1240  143.9730 C   0  0  1  0  0  3  0  0  0  0  0  0
  185.8330  177.9270  144.8990 C   0  0  1  0  0  3  0  0  0  0  0  0
  185.5800  176.7390  146.9950 O   0  0  0  0  0  1  0  0  0  0  0  0
  185.8250  178.9920  147.0730 O   0  0  0  0  0  1  0  0  0  0  0  0
  186.2140  177.8300  146.3980 C   0  0  0  0  0  3  0  0  0  0  0  0
  185.8040  179.2670  144.4830 O   0  0  0  0  0  0  0  0  0  0  0  0
  185.5250  179.2110  143.1150 C   0  0  0  0  0  2  0  0  0  0  0  0
  184.1330  178.6410  142.8810 C   0  0  0  0  0  2  0  0  0  0  0  0
  183.9840  178.1000  141.4640 C   0  0  0  0  0  2  0  0  0  0  0  0
  182.9150  178.8030  140.7720 N   0  0  0  0  0  2  0  0  0  0  0  0
  181.6840  178.5130  141.4920 C   0  0  0  0  0  2  0  0  0  0  0  0
  180.6070  178.0870  140.5080 C   0  0  0  0  0  2  0  0  0  0  0  0
  178.2980  178.6070  141.8800 O   0  0  0  0  0  1  0  0  0  0  0  0
  179.0890  179.0870  140.6830 P   0  0  2  0  0  0  0  0  0  0  0  0
  178.1590  178.9500  139.2720 O   0  0  0  0  0  0  0  0  0  0  0  0
  179.5870  181.2580  139.6080 C   0  0  0  0  0  1  0  0  0  0  0  0
  179.5310  180.7060  140.8990 O   0  0  0  0  0  0  0  0  0  0  0  0
  1  6  1  0  0  0  0
  3 21  1  0  0  0  0
  4 27  1  0  0  0  0
  5 18  1  0  0  0  0
  6  4  1  0  0  0  0
  7  8  1  0  0  0  0
  8  2  1  6  0  0  0
  8 12  1  0  0  0  0
  9 14  2  0  0  0  0
 10  1  2  0  0  0  0
 11 23  2  0  0  0  0
 11 18  1  0  0  0  0
 12 16  1  0  0  0  0
 13  5  1  6  0  0  0
 13 25  1  0  0  0  0
 13 20  1  0  0  0  0
 15  1  1  0  0  0  0
 15 25  1  0  0  0  0
 16 17  1  0  0  0  0
 16 30  1  1  0  0  0
 18 15  2  0  0  0  0
 19 46  1  1  0  0  0
 19  9  1  0  0  0  0
 20 33  1  1  0  0  0
 20 28  1  0  0  0  0
 21  9  1  0  0  0  0
 21 17  1  0  0  0  0
 22 29  2  0  0  0  0
 22  3  1  0  0  0  0
 23 10  1  0  0  0  0
 26 22  1  0  0  0  0
 27 26  1  0  0  0  0
 28  7  1  0  0  0  0
 28 24  2  0  0  0  0
 29 19  1  0  0  0  0
 30 32  1  0  0  0  0
 31 30  1  0  0  0  0
 31 32  1  0  0  0  0
 34 33  1  0  0  0  0
 34 35  1  0  0  0  0
 35 36  1  0  0  0  0
 37 38  2  0  0  0  0
 39 36  1  0  0  0  0
 39 37  1  0  0  0  0
 40 37  1  0  0  0  0
 41 42  1  0  0  0  0
 41 40  1  0  0  0  0
 44 43  1  6  0  0  0
 44 45  1  0  0  0  0
 44 42  1  0  0  0  0
 46 47  1  0  0  0  0
 49 48  1  1  0  0  0
 49 47  1  0  0  0  0
 49 50  1  0  0  0  0
 50 54  1  6  0  0  0
 50 53  1  0  0  0  0
 53 51  1  0  0  0  0
 53 52  1  0  0  0  0
 55 54  1  0  0  0  0
 56 55  1  0  0  0  0
 57 56  1  0  0  0  0
 58 57  1  0  0  0  0
 58 59  1  0  0  0  0
 60 62  1  0  0  0  0
 60 59  1  0  0  0  0
 62 63  2  6  0  0  0
 62 65  1  0  0  0  0
 62 61  1  0  0  0  0
 64 65  1  0  0  0  0
M  END
>  <MODEL>
4

>  <REMARK>
 VINA RESULT:      -5.3      4.400     12.549
  Name = 
  24 active torsions:
  status: ('A' for Active; 'I' for Inactive)
    1  A    between atoms: C_1  and  O_15
    2  A    between atoms: C_1  and  C_58
    3  A    between atoms: C_3  and  C_37
    4  A    between atoms: C_4  and  N_48
    5  A    between atoms: C_4  and  C_62
    6  A    between atoms: C_5  and  O_15
    7  A    between atoms: C_5  and  C_19
    8  A    between atoms: C_5  and  C_64
    9  A    between atoms: C_9  and  C_52
   10  A    between atoms: O_11  and  C_42
   11  A    between atoms: O_11  and  C_46
   12  A    between atoms: C_14  and  C_63
   13  A    between atoms: O_22  and  P_41
   14  A    between atoms: C_24  and  C_43
   15  A    between atoms: C_24  and  C_53
   16  A    between atoms: C_28  and  N_48
   17  A    between atoms: C_28  and  C_58
   18  A    between atoms: N_40  and  N_49
   19  A    between atoms: P_41  and  C_62
   20  A    between atoms: C_46  and  C_64
   21  A    between atoms: C_47  and  C_52
   22  A    between atoms: C_47  and  C_63
   23  A    between atoms: N_49  and  N_50
   24  A    between atoms: N_50  and  C_53
                            x       y       z     vdW  Elec       q    Type
                         _______ _______ _______ _____ _____    ______ ____

>  <TORSDO>
F 24

$$$$
=
 OpenBabel11042418063D

 65 69  0  0  1  0  0  0  0  0999 V2000
  187.4750  177.8610  147.6380 C   0  0  0  0  0  0  0  0  0  0  0  0
  189.6960  178.2330  141.9060 C   0  0  0  0  0  1  0  0  0  0  0  0
  191.0000  175.1880  144.6490 C   0  0  0  0  0  2  0  0  0  0  0  0
  188.5680  175.7190  146.7360 C   0  0  0  0  0  2  0  0  0  0  0  0
  184.4010  178.9370  145.3070 S   0  0  0  0  0  0  0  0  0  0  0  0
  188.4670  176.8280  147.6740 N   0  0  0  0  0  2  0  0  0  0  0  0
  188.2870  176.7010  143.3570 C   0  0  0  0  0  2  0  0  0  0  0  0
  189.5450  176.8420  142.5020 C   0  0  1  0  0  3  0  0  0  0  0  0
  193.3200  175.4170  143.6690 C   0  0  0  0  0  0  0  0  0  0  0  0
  187.5050  178.8520  148.6330 C   0  0  0  0  0  3  0  0  0  0  0  0
  185.5860  179.9670  147.6350 C   0  0  0  0  0  3  0  0  0  0  0  0
  189.5840  175.8310  141.4560 N   0  0  0  0  0  2  0  0  0  0  0  0
  185.3970  177.5900  144.5200 C   0  0  1  0  0  3  0  0  0  0  0  0
  194.1270  175.1980  142.7250 O   0  0  0  0  0  0  0  0  0  0  0  0
  186.4750  177.9530  146.6430 C   0  0  0  0  0  0  0  0  0  0  0  0
  189.9830  174.5530  142.0470 C   0  0  2  0  0  3  0  0  0  0  0  0
  191.4990  174.4960  142.2390 C   0  0  0  0  0  2  0  0  0  0  0  0
  185.5390  178.9660  146.6720 C   0  0  0  0  0  0  0  0  0  0  0  0
  193.7650  176.2210  144.8660 C   0  0  1  0  0  3  0  0  0  0  0  0
  186.1080  178.1100  143.2520 C   0  0  1  0  0  3  0  0  0  0  0  0
  191.9500  175.0050  143.5420 N   0  0  0  0  0  0  0  0  0  0  0  0
  191.6490  175.4890  145.9780 C   0  0  0  0  0  0  0  0  0  0  0  0
  186.5730  179.9040  148.6290 C   0  0  0  0  0  3  0  0  0  0  0  0
  186.6950  176.4570  141.6350 O   0  0  0  0  0  0  0  0  0  0  0  0
  186.3730  177.1170  145.5020 N   0  0  0  0  0  2  0  0  0  0  0  0
  190.9240  175.3220  147.1690 O   0  0  0  0  0  0  0  0  0  0  0  0
  189.6210  174.7340  147.2200 C   0  0  0  0  0  2  0  0  0  0  0  0
  187.0020  177.0470  142.6540 C   0  0  0  0  0  0  0  0  0  0  0  0
  192.8950  175.9440  146.0570 C   0  0  0  0  0  3  0  0  0  0  0  0
  189.5380  173.4310  141.1070 C   0  0  0  0  0  3  0  0  0  0  0  0
  188.3460  172.7370  141.7360 C   0  0  0  0  0  2  0  0  0  0  0  0
  189.7110  172.0880  141.7760 C   0  0  0  0  0  2  0  0  0  0  0  0
  185.0790  178.6000  142.2280 C   0  0  0  0  0  2  0  0  0  0  0  0
  183.7650  177.8530  142.3810 C   0  0  0  0  0  2  0  0  0  0  0  0
  182.8770  178.2020  141.2740 N   0  0  0  0  0  2  0  0  0  0  0  0
  181.6730  178.6580  141.8430 N   0  0  0  0  0  2  0  0  0  0  0  0
  179.2520  178.3460  141.3940 C   0  0  0  0  0  0  0  0  0  0  0  0
  178.9540  178.5810  142.5960 O   0  0  0  0  0  0  0  0  0  0  0  0
  180.6290  178.2310  141.0030 N   0  0  0  0  0  2  0  0  0  0  0  0
  178.1730  178.1940  140.3680 C   0  0  0  0  0  2  0  0  0  0  0  0
  178.4020  176.9480  139.5280 C   0  0  0  0  0  2  0  0  0  0  0  0
  178.4460  177.2090  138.0210 C   0  0  0  0  0  2  0  0  0  0  0  0
  178.4670  174.6960  137.9320 C   0  0  0  0  0  1  0  0  0  0  0  0
  178.8460  175.9790  137.2060 C   0  0  2  0  0  3  0  0  0  0  0  0
  180.2170  175.9840  136.9510 O   0  0  0  0  0  1  0  0  0  0  0  0
  195.0900  175.9230  145.2060 O   0  0  0  0  0  0  0  0  0  0  0  0
  195.1190  174.5430  145.4310 C   0  0  0  0  0  2  0  0  0  0  0  0
  196.9350  173.6480  146.7640 O   0  0  0  0  0  1  0  0  0  0  0  0
  196.5670  174.0250  145.4700 C   0  0  1  0  0  3  0  0  0  0  0  0
  196.7850  172.8690  144.4770 C   0  0  1  0  0  3  0  0  0  0  0  0
  194.7930  171.7770  145.3190 O   0  0  0  0  0  1  0  0  0  0  0  0
  196.8060  170.9640  145.9730 O   0  0  0  0  0  1  0  0  0  0  0  0
  196.1070  171.5440  144.9090 C   0  0  0  0  0  3  0  0  0  0  0  0
  196.3410  173.2580  143.2040 O   0  0  0  0  0  0  0  0  0  0  0  0
  197.2290  172.6480  142.3140 C   0  0  0  0  0  2  0  0  0  0  0  0
  196.9880  173.1510  140.8970 C   0  0  0  0  0  2  0  0  0  0  0  0
  197.4950  174.5770  140.7190 C   0  0  0  0  0  2  0  0  0  0  0  0
  196.5540  175.3430  139.9160 N   0  0  0  0  0  2  0  0  0  0  0  0
  195.5160  174.4180  139.4850 C   0  0  0  0  0  2  0  0  0  0  0  0
  194.2580  175.1940  139.1330 C   0  0  0  0  0  2  0  0  0  0  0  0
  194.7330  174.0310  136.7030 O   0  0  0  0  0  1  0  0  0  0  0  0
  193.6730  174.8150  137.4450 P   0  0  2  0  0  0  0  0  0  0  0  0
  193.3360  176.2630  136.6290 O   0  0  0  0  0  0  0  0  0  0  0  0
  192.3460  173.2100  138.7770 C   0  0  0  0  0  1  0  0  0  0  0  0
  192.2540  173.9010  137.5580 O   0  0  0  0  0  0  0  0  0  0  0  0
  1  6  1  0  0  0  0
  1 10  1  0  0  0  0
  3 22  1  0  0  0  0
  4 27  1  0  0  0  0
  4  6  1  0  0  0  0
  5 18  1  0  0  0  0
  8  2  1  6  0  0  0
  8  7  1  0  0  0  0
  9 19  1  0  0  0  0
 11 23  1  0  0  0  0
 12 16  1  0  0  0  0
 12  8  1  0  0  0  0
 13  5  1  1  0  0  0
 13 25  1  0  0  0  0
 14  9  2  0  0  0  0
 15 18  1  0  0  0  0
 15  1  2  0  0  0  0
 16 30  1  6  0  0  0
 16 17  1  0  0  0  0
 17 21  1  0  0  0  0
 18 11  2  0  0  0  0
 19 46  1  1  0  0  0
 19 29  1  0  0  0  0
 20 33  1  6  0  0  0
 20 13  1  0  0  0  0
 21  9  1  0  0  0  0
 21  3  1  0  0  0  0
 22 29  2  0  0  0  0
 22 26  1  0  0  0  0
 23 10  2  0  0  0  0
 24 28  2  0  0  0  0
 25 15  1  0  0  0  0
 26 27  1  0  0  0  0
 28 20  1  0  0  0  0
 28  7  1  0  0  0  0
 30 31  1  0  0  0  0
 30 32  1  0  0  0  0
 31 32  1  0  0  0  0
 33 34  1  0  0  0  0
 35 36  1  0  0  0  0
 35 34  1  0  0  0  0
 37 38  2  0  0  0  0
 39 37  1  0  0  0  0
 39 36  1  0  0  0  0
 40 37  1  0  0  0  0
 41 40  1  0  0  0  0
 42 41  1  0  0  0  0
 44 43  1  1  0  0  0
 44 42  1  0  0  0  0
 45 44  1  0  0  0  0
 46 47  1  0  0  0  0
 47 49  1  0  0  0  0
 49 48  1  1  0  0  0
 50 54  1  6  0  0  0
 50 53  1  0  0  0  0
 50 49  1  0  0  0  0
 53 51  1  0  0  0  0
 53 52  1  0  0  0  0
 55 54  1  0  0  0  0
 56 55  1  0  0  0  0
 57 56  1  0  0  0  0
 58 57  1  0  0  0  0
 59 58  1  0  0  0  0
 60 59  1  0  0  0  0
 61 62  1  0  0  0  0
 62 63  2  6  0  0  0
 62 65  1  0  0  0  0
 62 60  1  0  0  0  0
 65 64  1  0  0  0  0
M  END
>  <MODEL>
5

>  <REMARK>
 VINA RESULT:      -5.3      2.381      3.320
  Name = 
  24 active torsions:
  status: ('A' for Active; 'I' for Inactive)
    1  A    between atoms: C_1  and  O_15
    2  A    between atoms: C_1  and  C_58
    3  A    between atoms: C_3  and  C_37
    4  A    between atoms: C_4  and  N_48
    5  A    between atoms: C_4  and  C_62
    6  A    between atoms: C_5  and  O_15
    7  A    between atoms: C_5  and  C_19
    8  A    between atoms: C_5  and  C_64
    9  A    between atoms: C_9  and  C_52
   10  A    between atoms: O_11  and  C_42
   11  A    between atoms: O_11  and  C_46
   12  A    between atoms: C_14  and  C_63
   13  A    between atoms: O_22  and  P_41
   14  A    between atoms: C_24  and  C_43
   15  A    between atoms: C_24  and  C_53
   16  A    between atoms: C_28  and  N_48
   17  A    between atoms: C_28  and  C_58
   18  A    between atoms: N_40  and  N_49
   19  A    between atoms: P_41  and  C_62
   20  A    between atoms: C_46  and  C_64
   21  A    between atoms: C_47  and  C_52
   22  A    between atoms: C_47  and  C_63
   23  A    between atoms: N_49  and  N_50
   24  A    between atoms: N_50  and  C_53
                            x       y       z     vdW  Elec       q    Type
                         _______ _______ _______ _____ _____    ______ ____

>  <TORSDO>
F 24

$$$$
=
 OpenBabel11042418063D

 65 69  0  0  1  0  0  0  0  0999 V2000
  187.4060  177.7100  147.5130 C   0  0  0  0  0  0  0  0  0  0  0  0
  189.0520  178.3160  141.6100 C   0  0  0  0  0  1  0  0  0  0  0  0
  190.4800  175.0670  144.0390 C   0  0  0  0  0  2  0  0  0  0  0  0
  188.2990  175.5800  146.3910 C   0  0  0  0  0  2  0  0  0  0  0  0
  184.1660  179.0450  145.5720 S   0  0  0  0  0  0  0  0  0  0  0  0
  188.3460  176.6360  147.3920 N   0  0  0  0  0  2  0  0  0  0  0  0
  187.7260  176.7630  143.1170 C   0  0  0  0  0  2  0  0  0  0  0  0
  188.8960  176.9000  142.1440 C   0  0  1  0  0  3  0  0  0  0  0  0
  192.6980  175.2550  142.8380 C   0  0  0  0  0  0  0  0  0  0  0  0
  187.5830  178.6410  148.5500 C   0  0  0  0  0  3  0  0  0  0  0  0
  185.6280  179.8900  147.8160 C   0  0  0  0  0  3  0  0  0  0  0  0
  188.7810  175.9500  141.0480 N   0  0  0  0  0  2  0  0  0  0  0  0
  185.0130  177.7050  144.6170 C   0  0  1  0  0  3  0  0  0  0  0  0
  193.3950  175.0570  141.8060 O   0  0  0  0  0  0  0  0  0  0  0  0
  186.3150  177.9010  146.6330 C   0  0  0  0  0  0  0  0  0  0  0  0
  189.1770  174.6250  141.5270 C   0  0  2  0  0  3  0  0  0  0  0  0
  190.7010  174.4940  141.5580 C   0  0  0  0  0  2  0  0  0  0  0  0
  185.4370  178.9480  146.8120 C   0  0  0  0  0  0  0  0  0  0  0  0
  193.2990  175.9700  144.0240 C   0  0  1  0  0  3  0  0  0  0  0  0
  185.6170  178.2660  143.3120 C   0  0  1  0  0  3  0  0  0  0  0  0
  191.3040  174.9090  142.8320 N   0  0  0  0  0  0  0  0  0  0  0  0
  191.2740  175.2650  145.3080 C   0  0  0  0  0  0  0  0  0  0  0  0
  186.7060  179.7280  148.6980 C   0  0  0  0  0  3  0  0  0  0  0  0
  185.9580  176.6860  141.5570 O   0  0  0  0  0  0  0  0  0  0  0  0
  186.0590  177.1350  145.4670 N   0  0  0  0  0  2  0  0  0  0  0  0
  190.6660  175.0600  146.5570 O   0  0  0  0  0  0  0  0  0  0  0  0
  189.3480  174.5250  146.7120 C   0  0  0  0  0  2  0  0  0  0  0  0
  186.3940  177.2030  142.5690 C   0  0  0  0  0  0  0  0  0  0  0  0
  192.5420  175.6610  145.2820 C   0  0  0  0  0  3  0  0  0  0  0  0
  188.5870  173.5780  140.5800 C   0  0  0  0  0  3  0  0  0  0  0  0
  187.7260  172.6370  141.4000 C   0  0  0  0  0  2  0  0  0  0  0  0
  189.0980  172.2030  140.9370 C   0  0  0  0  0  2  0  0  0  0  0  0
  184.5130  178.8560  142.4270 C   0  0  0  0  0  2  0  0  0  0  0  0
  183.2980  177.9470  142.3990 C   0  0  0  0  0  2  0  0  0  0  0  0
  182.1460  178.6910  141.8900 N   0  0  0  0  0  2  0  0  0  0  0  0
  181.6070  177.9380  140.8310 N   0  0  0  0  0  2  0  0  0  0  0  0
  179.1680  178.4010  140.8260 C   0  0  0  0  0  0  0  0  0  0  0  0
  178.9250  177.3660  141.5020 O   0  0  0  0  0  0  0  0  0  0  0  0
  180.4960  178.6490  140.3400 N   0  0  0  0  0  2  0  0  0  0  0  0
  178.0750  179.3810  140.5320 C   0  0  0  0  0  2  0  0  0  0  0  0
  178.6340  180.7890  140.4070 C   0  0  0  0  0  2  0  0  0  0  0  0
  178.0070  181.6130  139.2810 C   0  0  0  0  0  2  0  0  0  0  0  0
  178.7470  183.9860  138.8980 C   0  0  0  0  0  1  0  0  0  0  0  0
  179.0090  182.5240  138.5690 C   0  0  2  0  0  3  0  0  0  0  0  0
  178.9470  182.3360  137.1890 O   0  0  0  0  0  1  0  0  0  0  0  0
  194.6360  175.5980  144.2090 O   0  0  0  0  0  0  0  0  0  0  0  0
  194.5970  174.4010  144.9300 C   0  0  0  0  0  2  0  0  0  0  0  0
  195.3740  172.1160  144.6960 O   0  0  0  0  0  1  0  0  0  0  0  0
  195.7210  173.4530  144.4800 C   0  0  1  0  0  3  0  0  0  0  0  0
  196.1120  173.6880  143.0100 C   0  0  1  0  0  3  0  0  0  0  0  0
  197.7450  175.1290  144.0720 O   0  0  0  0  0  1  0  0  0  0  0  0
  196.9740  175.7260  142.0250 O   0  0  0  0  0  1  0  0  0  0  0  0
  197.3230  174.6400  142.8350 C   0  0  0  0  0  3  0  0  0  0  0  0
  196.3620  172.4540  142.3900 O   0  0  0  0  0  0  0  0  0  0  0  0
  195.4790  172.4130  141.3070 C   0  0  0  0  0  2  0  0  0  0  0  0
  195.3980  171.0000  140.7440 C   0  0  0  0  0  2  0  0  0  0  0  0
  193.9900  170.6750  140.2600 C   0  0  0  0  0  2  0  0  0  0  0  0
  193.1340  171.8430  140.3980 N   0  0  0  0  0  2  0  0  0  0  0  0
  192.1020  171.7340  139.3770 C   0  0  0  0  0  2  0  0  0  0  0  0
  192.3960  170.5410  138.4830 C   0  0  0  0  0  2  0  0  0  0  0  0
  189.7610  170.3100  137.7860 O   0  0  0  0  0  0  0  0  0  0  0  0
  190.9290  169.4760  138.2640 P   0  0  2  0  0  0  0  0  0  0  0  0
  190.5510  168.7280  139.7380 O   0  0  0  0  0  1  0  0  0  0  0  0
  192.3460  168.8090  136.3510 C   0  0  0  0  0  1  0  0  0  0  0  0
  191.2920  168.2860  137.1180 O   0  0  0  0  0  0  0  0  0  0  0  0
  1 10  1  0  0  0  0
  3 22  1  0  0  0  0
  4 27  1  0  0  0  0
  4  6  1  0  0  0  0
  5 18  1  0  0  0  0
  6  1  1  0  0  0  0
  8  2  1  6  0  0  0
  8  7  1  0  0  0  0
  9 19  1  0  0  0  0
 10 23  2  0  0  0  0
 11 23  1  0  0  0  0
 12 16  1  0  0  0  0
 12  8  1  0  0  0  0
 13 25  1  1  0  0  0
 13  5  1  0  0  0  0
 14  9  2  0  0  0  0
 15 18  1  0  0  0  0
 15  1  2  0  0  0  0
 16 30  1  6  0  0  0
 16 17  1  0  0  0  0
 17 21  1  0  0  0  0
 18 11  2  0  0  0  0
 19 46  1  1  0  0  0
 19 29  1  0  0  0  0
 20 33  1  6  0  0  0
 20 13  1  0  0  0  0
 21  9  1  0  0  0  0
 21  3  1  0  0  0  0
 22 26  1  0  0  0  0
 24 28  2  0  0  0  0
 25 15  1  0  0  0  0
 26 27  1  0  0  0  0
 28  7  1  0  0  0  0
 28 20  1  0  0  0  0
 29 22  2  0  0  0  0
 30 32  1  0  0  0  0
 30 31  1  0  0  0  0
 32 31  1  0  0  0  0
 34 33  1  0  0  0  0
 35 34  1  0  0  0  0
 36 35  1  0  0  0  0
 37 38  2  0  0  0  0
 39 37  1  0  0  0  0
 39 36  1  0  0  0  0
 40 37  1  0  0  0  0
 41 40  1  0  0  0  0
 42 41  1  0  0  0  0
 44 43  1  6  0  0  0
 44 42  1  0  0  0  0
 45 44  1  0  0  0  0
 46 47  1  0  0  0  0
 49 48  1  6  0  0  0
 49 47  1  0  0  0  0
 50 54  1  1  0  0  0
 50 49  1  0  0  0  0
 52 53  1  0  0  0  0
 53 50  1  0  0  0  0
 53 51  1  0  0  0  0
 55 54  1  0  0  0  0
 56 55  1  0  0  0  0
 57 58  1  0  0  0  0
 57 56  1  0  0  0  0
 59 58  1  0  0  0  0
 60 59  1  0  0  0  0
 62 61  2  6  0  0  0
 62 60  1  0  0  0  0
 62 63  1  0  0  0  0
 64 65  1  0  0  0  0
 65 62  1  0  0  0  0
M  END
>  <MODEL>
6

>  <REMARK>
 VINA RESULT:      -5.2      1.572      1.963
  Name = 
  24 active torsions:
  status: ('A' for Active; 'I' for Inactive)
    1  A    between atoms: C_1  and  O_15
    2  A    between atoms: C_1  and  C_58
    3  A    between atoms: C_3  and  C_37
    4  A    between atoms: C_4  and  N_48
    5  A    between atoms: C_4  and  C_62
    6  A    between atoms: C_5  and  O_15
    7  A    between atoms: C_5  and  C_19
    8  A    between atoms: C_5  and  C_64
    9  A    between atoms: C_9  and  C_52
   10  A    between atoms: O_11  and  C_42
   11  A    between atoms: O_11  and  C_46
   12  A    between atoms: C_14  and  C_63
   13  A    between atoms: O_22  and  P_41
   14  A    between atoms: C_24  and  C_43
   15  A    between atoms: C_24  and  C_53
   16  A    between atoms: C_28  and  N_48
   17  A    between atoms: C_28  and  C_58
   18  A    between atoms: N_40  and  N_49
   19  A    between atoms: P_41  and  C_62
   20  A    between atoms: C_46  and  C_64
   21  A    between atoms: C_47  and  C_52
   22  A    between atoms: C_47  and  C_63
   23  A    between atoms: N_49  and  N_50
   24  A    between atoms: N_50  and  C_53
                            x       y       z     vdW  Elec       q    Type
                         _______ _______ _______ _____ _____    ______ ____

>  <TORSDO>
F 24

$$$$
=
 OpenBabel11042418063D

 65 69  0  0  1  0  0  0  0  0999 V2000
  187.3930  177.7510  147.6510 C   0  0  0  0  0  0  0  0  0  0  0  0
  189.5220  178.4380  141.9130 C   0  0  0  0  0  1  0  0  0  0  0  0
  190.8040  175.1980  144.4340 C   0  0  0  0  0  2  0  0  0  0  0  0
  188.4210  175.6480  146.5950 C   0  0  0  0  0  2  0  0  0  0  0  0
  184.3040  179.0390  145.4510 S   0  0  0  0  0  0  0  0  0  0  0  0
  188.3620  176.6970  147.6040 N   0  0  0  0  0  2  0  0  0  0  0  0
  188.1040  176.8470  143.2910 C   0  0  0  0  0  2  0  0  0  0  0  0
  189.3500  177.0150  142.4230 C   0  0  1  0  0  3  0  0  0  0  0  0
  193.1110  175.4390  143.4260 C   0  0  0  0  0  0  0  0  0  0  0  0
  187.4630  178.6770  148.7060 C   0  0  0  0  0  3  0  0  0  0  0  0
  185.5530  179.8940  147.8160 C   0  0  0  0  0  3  0  0  0  0  0  0
  189.3480  176.0720  141.3150 N   0  0  0  0  0  2  0  0  0  0  0  0
  185.2560  177.7230  144.5620 C   0  0  1  0  0  3  0  0  0  0  0  0
  193.8970  175.2630  142.4560 O   0  0  0  0  0  0  0  0  0  0  0  0
  186.3780  177.9280  146.6830 C   0  0  0  0  0  0  0  0  0  0  0  0
  189.7280  174.7510  141.8170 C   0  0  2  0  0  3  0  0  0  0  0  0
  191.2460  174.6490  141.9770 C   0  0  0  0  0  2  0  0  0  0  0  0
  185.4670  178.9570  146.7930 C   0  0  0  0  0  0  0  0  0  0  0  0
  193.5950  176.1550  144.6640 C   0  0  1  0  0  3  0  0  0  0  0  0
  185.9560  178.3070  143.3170 C   0  0  1  0  0  3  0  0  0  0  0  0
  191.7300  175.0650  143.3000 N   0  0  0  0  0  0  0  0  0  0  0  0
  191.4830  175.4000  145.7670 C   0  0  0  0  0  0  0  0  0  0  0  0
  186.5550  179.7460  148.7850 C   0  0  0  0  0  3  0  0  0  0  0  0
  186.4770  176.7480  141.5870 O   0  0  0  0  0  0  0  0  0  0  0  0
  186.2370  177.1670  145.4940 N   0  0  0  0  0  2  0  0  0  0  0  0
  190.7750  175.1740  146.9580 O   0  0  0  0  0  0  0  0  0  0  0  0
  189.4600  174.6120  146.9970 C   0  0  0  0  0  2  0  0  0  0  0  0
  186.8150  177.2650  142.6350 C   0  0  0  0  0  0  0  0  0  0  0  0
  192.7400  175.8220  145.8510 C   0  0  0  0  0  3  0  0  0  0  0  0
  189.2420  173.7000  140.8160 C   0  0  0  0  0  3  0  0  0  0  0  0
  188.5990  172.5710  141.5980 C   0  0  0  0  0  2  0  0  0  0  0  0
  189.9860  172.4020  141.0180 C   0  0  0  0  0  2  0  0  0  0  0  0
  184.9200  178.8820  142.3450 C   0  0  0  0  0  2  0  0  0  0  0  0
  183.7660  177.9160  142.1490 C   0  0  0  0  0  2  0  0  0  0  0  0
  183.1540  178.1490  140.8410 N   0  0  0  0  0  2  0  0  0  0  0  0
  181.8070  177.7550  140.9440 N   0  0  0  0  0  2  0  0  0  0  0  0
  179.6630  178.9580  140.6020 C   0  0  0  0  0  0  0  0  0  0  0  0
  179.1920  178.0130  139.9140 O   0  0  0  0  0  0  0  0  0  0  0  0
  181.0370  178.9300  141.0190 N   0  0  0  0  0  2  0  0  0  0  0  0
  178.7910  180.1100  140.9940 C   0  0  0  0  0  2  0  0  0  0  0  0
  178.2460  180.8160  139.7630 C   0  0  0  0  0  2  0  0  0  0  0  0
  178.8520  182.1990  139.5140 C   0  0  0  0  0  2  0  0  0  0  0  0
  179.9450  183.7790  137.8920 C   0  0  0  0  0  1  0  0  0  0  0  0
  179.3170  182.4050  138.0720 C   0  0  2  0  0  3  0  0  0  0  0  0
  178.2480  182.2590  137.1880 O   0  0  0  0  0  1  0  0  0  0  0  0
  194.9190  175.8080  144.9590 O   0  0  0  0  0  0  0  0  0  0  0  0
  195.1230  174.5610  144.3600 C   0  0  0  0  0  2  0  0  0  0  0  0
  196.2760  173.5900  146.2580 O   0  0  0  0  0  1  0  0  0  0  0  0
  196.4000  173.8960  144.9000 C   0  0  1  0  0  3  0  0  0  0  0  0
  196.7800  172.6460  144.0860 C   0  0  1  0  0  3  0  0  0  0  0  0
  196.8030  170.3350  144.8130 O   0  0  0  0  0  1  0  0  0  0  0  0
  195.1720  170.9810  143.3760 O   0  0  0  0  0  1  0  0  0  0  0  0
  195.9560  171.3880  144.4610 C   0  0  0  0  0  3  0  0  0  0  0  0
  196.6570  172.9260  142.7160 O   0  0  0  0  0  0  0  0  0  0  0  0
  197.9370  173.3160  142.3140 C   0  0  0  0  0  2  0  0  0  0  0  0
  197.8580  174.1910  141.0700 C   0  0  0  0  0  2  0  0  0  0  0  0
  197.3330  173.4070  139.8720 C   0  0  0  0  0  2  0  0  0  0  0  0
  197.7000  174.0830  138.6370 N   0  0  0  0  0  2  0  0  0  0  0  0
  196.5300  174.8330  138.2030 C   0  0  0  0  0  2  0  0  0  0  0  0
  195.5620  173.9000  137.4940 C   0  0  0  0  0  2  0  0  0  0  0  0
  193.8510  173.7680  135.3630 O   0  0  0  0  0  1  0  0  0  0  0  0
  195.0180  174.5760  135.8870 P   0  0  2  0  0  0  0  0  0  0  0  0
  196.3090  174.5220  134.7880 O   0  0  0  0  0  0  0  0  0  0  0  0
  193.1570  176.1530  136.2910 C   0  0  0  0  0  1  0  0  0  0  0  0
  194.5500  176.1860  136.1100 O   0  0  0  0  0  0  0  0  0  0  0  0
  1 10  1  0  0  0  0
  3 22  1  0  0  0  0
  4 27  1  0  0  0  0
  4  6  1  0  0  0  0
  5 18  1  0  0  0  0
  6  1  1  0  0  0  0
  8  2  1  6  0  0  0
  8  7  1  0  0  0  0
  9 19  1  0  0  0  0
 10 23  2  0  0  0  0
 11 23  1  0  0  0  0
 12 16  1  0  0  0  0
 12  8  1  0  0  0  0
 13  5  1  1  0  0  0
 13 25  1  0  0  0  0
 14  9  2  0  0  0  0
 15 18  1  0  0  0  0
 15  1  2  0  0  0  0
 16 30  1  6  0  0  0
 16 17  1  0  0  0  0
 17 21  1  0  0  0  0
 18 11  2  0  0  0  0
 19 46  1  1  0  0  0
 19 29  1  0  0  0  0
 20 33  1  6  0  0  0
 20 13  1  0  0  0  0
 21  9  1  0  0  0  0
 21  3  1  0  0  0  0
 22 29  2  0  0  0  0
 22 26  1  0  0  0  0
 24 28  2  0  0  0  0
 25 15  1  0  0  0  0
 26 27  1  0  0  0  0
 28  7  1  0  0  0  0
 28 20  1  0  0  0  0
 30 32  1  0  0  0  0
 30 31  1  0  0  0  0
 32 31  1  0  0  0  0
 34 33  1  0  0  0  0
 35 36  1  0  0  0  0
 35 34  1  0  0  0  0
 36 39  1  0  0  0  0
 37 40  1  0  0  0  0
 37 39  1  0  0  0  0
 38 37  2  0  0  0  0
 41 40  1  0  0  0  0
 42 41  1  0  0  0  0
 44 43  1  1  0  0  0
 44 42  1  0  0  0  0
 45 44  1  0  0  0  0
 47 49  1  0  0  0  0
 47 46  1  0  0  0  0
 49 48  1  1  0  0  0
 50 54  1  6  0  0  0
 50 53  1  0  0  0  0
 50 49  1  0  0  0  0
 52 53  1  0  0  0  0
 53 51  1  0  0  0  0
 55 54  1  0  0  0  0
 56 55  1  0  0  0  0
 57 56  1  0  0  0  0
 58 57  1  0  0  0  0
 59 58  1  0  0  0  0
 60 59  1  0  0  0  0
 61 62  1  0  0  0  0
 62 63  2  6  0  0  0
 62 65  1  0  0  0  0
 62 60  1  0  0  0  0
 65 64  1  0  0  0  0
M  END
>  <MODEL>
7

>  <REMARK>
 VINA RESULT:      -4.8      2.448      3.208
  Name = 
  24 active torsions:
  status: ('A' for Active; 'I' for Inactive)
    1  A    between atoms: C_1  and  O_15
    2  A    between atoms: C_1  and  C_58
    3  A    between atoms: C_3  and  C_37
    4  A    between atoms: C_4  and  N_48
    5  A    between atoms: C_4  and  C_62
    6  A    between atoms: C_5  and  O_15
    7  A    between atoms: C_5  and  C_19
    8  A    between atoms: C_5  and  C_64
    9  A    between atoms: C_9  and  C_52
   10  A    between atoms: O_11  and  C_42
   11  A    between atoms: O_11  and  C_46
   12  A    between atoms: C_14  and  C_63
   13  A    between atoms: O_22  and  P_41
   14  A    between atoms: C_24  and  C_43
   15  A    between atoms: C_24  and  C_53
   16  A    between atoms: C_28  and  N_48
   17  A    between atoms: C_28  and  C_58
   18  A    between atoms: N_40  and  N_49
   19  A    between atoms: P_41  and  C_62
   20  A    between atoms: C_46  and  C_64
   21  A    between atoms: C_47  and  C_52
   22  A    between atoms: C_47  and  C_63
   23  A    between atoms: N_49  and  N_50
   24  A    between atoms: N_50  and  C_53
                            x       y       z     vdW  Elec       q    Type
                         _______ _______ _______ _____ _____    ______ ____

>  <TORSDO>
F 24

$$$$
=
 OpenBabel11042418063D

 65 69  0  0  1  0  0  0  0  0999 V2000
  189.0710  173.9990  137.7350 C   0  0  0  0  0  0  0  0  0  0  0  0
  193.7110  175.8700  141.3270 C   0  0  0  0  0  1  0  0  0  0  0  0
  190.0220  174.3930  142.9740 C   0  0  0  0  0  2  0  0  0  0  0  0
  189.0130  173.1370  140.1530 C   0  0  0  0  0  2  0  0  0  0  0  0
  192.4430  172.8190  135.9240 S   0  0  0  0  0  0  0  0  0  0  0  0
  188.4650  173.8800  139.0280 N   0  0  0  0  0  2  0  0  0  0  0  0
  192.4390  173.7580  140.7220 C   0  0  0  0  0  2  0  0  0  0  0  0
  192.8620  174.7140  141.8360 C   0  0  1  0  0  3  0  0  0  0  0  0
  190.2470  176.1210  144.8060 C   0  0  0  0  0  0  0  0  0  0  0  0
  188.4010  174.7400  136.7480 C   0  0  0  0  0  3  0  0  0  0  0  0
  190.2000  174.3260  135.1610 C   0  0  0  0  0  3  0  0  0  0  0  0
  193.5520  174.0050  142.9030 N   0  0  0  0  0  2  0  0  0  0  0  0
  192.5100  172.4860  137.7430 C   0  0  1  0  0  3  0  0  0  0  0  0
  190.8010  176.5120  145.8700 O   0  0  0  0  0  0  0  0  0  0  0  0
  190.3200  173.4270  137.3990 C   0  0  0  0  0  0  0  0  0  0  0  0
  192.5630  173.2990  143.7190 C   0  0  2  0  0  3  0  0  0  0  0  0
  191.8950  174.2560  144.7080 C   0  0  0  0  0  2  0  0  0  0  0  0
  190.8430  173.5660  136.1300 C   0  0  0  0  0  0  0  0  0  0  0  0
  189.2140  176.9930  144.1340 C   0  0  1  0  0  3  0  0  0  0  0  0
  193.5770  173.3740  138.4190 C   0  0  1  0  0  3  0  0  0  0  0  0
  190.6900  174.9080  144.1780 N   0  0  0  0  0  0  0  0  0  0  0  0
  188.6780  175.0200  142.6950 C   0  0  0  0  0  0  0  0  0  0  0  0
  188.9640  174.9110  135.4710 C   0  0  0  0  0  3  0  0  0  0  0  0
  194.4560  172.5580  140.4820 O   0  0  0  0  0  0  0  0  0  0  0  0
  191.1850  172.7560  138.3010 N   0  0  0  0  0  2  0  0  0  0  0  0
  187.7740  174.3900  141.8250 O   0  0  0  0  0  0  0  0  0  0  0  0
  187.9900  173.0850  141.2780 C   0  0  0  0  0  2  0  0  0  0  0  0
  193.5750  173.1820  139.9200 C   0  0  0  0  0  0  0  0  0  0  0  0
  188.3280  176.1840  143.2330 C   0  0  0  0  0  3  0  0  0  0  0  0
  193.2800  172.1840  144.4830 C   0  0  0  0  0  3  0  0  0  0  0  0
  193.7030  171.1270  143.4810 C   0  0  0  0  0  2  0  0  0  0  0  0
  192.5050  170.8930  144.3730 C   0  0  0  0  0  2  0  0  0  0  0  0
  194.9620  173.0810  137.8320 C   0  0  0  0  0  2  0  0  0  0  0  0
  195.1820  171.5850  137.6830 C   0  0  0  0  0  2  0  0  0  0  0  0
  196.6040  171.3230  137.4690 N   0  0  0  0  0  2  0  0  0  0  0  0
  197.2890  172.5190  137.7560 N   0  0  0  0  0  2  0  0  0  0  0  0
  197.7580  173.7120  139.8820 C   0  0  0  0  0  0  0  0  0  0  0  0
  197.8900  174.8140  139.2850 O   0  0  0  0  0  0  0  0  0  0  0  0
  197.5990  172.5000  139.1290 N   0  0  0  0  0  2  0  0  0  0  0  0
  197.7600  173.6610  141.3780 C   0  0  0  0  0  2  0  0  0  0  0  0
  196.8060  174.6960  141.9530 C   0  0  0  0  0  2  0  0  0  0  0  0
  197.4620  175.6830  142.9200 C   0  0  0  0  0  2  0  0  0  0  0  0
  196.4520  174.4020  144.8340 C   0  0  0  0  0  1  0  0  0  0  0  0
  196.7390  175.7830  144.2640 C   0  0  2  0  0  3  0  0  0  0  0  0
  195.5450  176.4900  144.1250 O   0  0  0  0  0  1  0  0  0  0  0  0
  188.4100  177.6400  145.0810 O   0  0  0  0  0  0  0  0  0  0  0  0
  187.3880  176.7360  145.3870 C   0  0  0  0  0  2  0  0  0  0  0  0
  185.5210  175.7780  144.1740 O   0  0  0  0  0  1  0  0  0  0  0  0
  186.1570  176.9800  144.4980 C   0  0  1  0  0  3  0  0  0  0  0  0
  185.1710  177.9670  145.1470 C   0  0  1  0  0  3  0  0  0  0  0  0
  184.4530  178.2820  147.4390 O   0  0  0  0  0  1  0  0  0  0  0  0
  186.0290  179.6890  146.6170 O   0  0  0  0  0  1  0  0  0  0  0  0
  185.5580  178.3720  146.5920 C   0  0  0  0  0  3  0  0  0  0  0  0
  185.0460  179.1040  144.3330 O   0  0  0  0  0  0  0  0  0  0  0  0
  185.2720  178.6400  143.0340 C   0  0  0  0  0  2  0  0  0  0  0  0
  183.9520  178.2840  142.3630 C   0  0  0  0  0  2  0  0  0  0  0  0
  183.9490  178.6880  140.8930 C   0  0  0  0  0  2  0  0  0  0  0  0
  183.1320  177.7620  140.1240 N   0  0  0  0  0  2  0  0  0  0  0  0
  181.8340  177.6990  140.7800 C   0  0  0  0  0  2  0  0  0  0  0  0
  181.1400  179.0460  140.6640 C   0  0  0  0  0  2  0  0  0  0  0  0
  178.8510  177.5500  140.5790 O   0  0  0  0  0  1  0  0  0  0  0  0
  179.3480  178.9190  140.9890 P   0  0  2  0  0  0  0  0  0  0  0  0
  178.5310  180.1230  140.1180 O   0  0  0  0  0  0  0  0  0  0  0  0
  177.7760  178.6960  142.8850 C   0  0  0  0  0  1  0  0  0  0  0  0
  179.0810  179.1560  142.6430 O   0  0  0  0  0  0  0  0  0  0  0  0
  1  6  1  0  0  0  0
  3 21  1  0  0  0  0
  4 27  1  0  0  0  0
  5 18  1  0  0  0  0
  6  4  1  0  0  0  0
  7  8  1  0  0  0  0
  8  2  1  6  0  0  0
  8 12  1  0  0  0  0
  9 14  2  0  0  0  0
 10  1  2  0  0  0  0
 11 23  2  0  0  0  0
 11 18  1  0  0  0  0
 12 16  1  0  0  0  0
 13  5  1  6  0  0  0
 13 25  1  0  0  0  0
 13 20  1  0  0  0  0
 15  1  1  0  0  0  0
 15 25  1  0  0  0  0
 16 30  1  1  0  0  0
 16 17  1  0  0  0  0
 18 15  2  0  0  0  0
 19  9  1  0  0  0  0
 19 46  1  1  0  0  0
 20 33  1  6  0  0  0
 20 28  1  0  0  0  0
 21 17  1  0  0  0  0
 21  9  1  0  0  0  0
 22  3  1  0  0  0  0
 22 29  2  0  0  0  0
 23 10  1  0  0  0  0
 26 22  1  0  0  0  0
 27 26  1  0  0  0  0
 28 24  2  0  0  0  0
 28  7  1  0  0  0  0
 29 19  1  0  0  0  0
 31 32  1  0  0  0  0
 31 30  1  0  0  0  0
 32 30  1  0  0  0  0
 34 33  1  0  0  0  0
 35 34  1  0  0  0  0
 35 36  1  0  0  0  0
 36 39  1  0  0  0  0
 37 40  1  0  0  0  0
 38 37  2  0  0  0  0
 39 37  1  0  0  0  0
 40 41  1  0  0  0  0
 41 42  1  0  0  0  0
 42 44  1  0  0  0  0
 44 43  1  6  0  0  0
 45 44  1  0  0  0  0
 46 47  1  0  0  0  0
 49 48  1  1  0  0  0
 49 50  1  0  0  0  0
 49 47  1  0  0  0  0
 50 54  1  6  0  0  0
 50 53  1  0  0  0  0
 53 52  1  0  0  0  0
 53 51  1  0  0  0  0
 55 54  1  0  0  0  0
 56 55  1  0  0  0  0
 57 56  1  0  0  0  0
 58 59  1  0  0  0  0
 58 57  1  0  0  0  0
 60 59  1  0  0  0  0
 60 62  1  0  0  0  0
 61 62  1  0  0  0  0
 62 63  2  6  0  0  0
 62 65  1  0  0  0  0
 65 64  1  0  0  0  0
M  END
>  <MODEL>
8

>  <REMARK>
 VINA RESULT:      -4.6      4.218     12.549
  Name = 
  24 active torsions:
  status: ('A' for Active; 'I' for Inactive)
    1  A    between atoms: C_1  and  O_15
    2  A    between atoms: C_1  and  C_58
    3  A    between atoms: C_3  and  C_37
    4  A    between atoms: C_4  and  N_48
    5  A    between atoms: C_4  and  C_62
    6  A    between atoms: C_5  and  O_15
    7  A    between atoms: C_5  and  C_19
    8  A    between atoms: C_5  and  C_64
    9  A    between atoms: C_9  and  C_52
   10  A    between atoms: O_11  and  C_42
   11  A    between atoms: O_11  and  C_46
   12  A    between atoms: C_14  and  C_63
   13  A    between atoms: O_22  and  P_41
   14  A    between atoms: C_24  and  C_43
   15  A    between atoms: C_24  and  C_53
   16  A    between atoms: C_28  and  N_48
   17  A    between atoms: C_28  and  C_58
   18  A    between atoms: N_40  and  N_49
   19  A    between atoms: P_41  and  C_62
   20  A    between atoms: C_46  and  C_64
   21  A    between atoms: C_47  and  C_52
   22  A    between atoms: C_47  and  C_63
   23  A    between atoms: N_49  and  N_50
   24  A    between atoms: N_50  and  C_53
                            x       y       z     vdW  Elec       q    Type
                         _______ _______ _______ _____ _____    ______ ____

>  <TORSDO>
F 24

$$$$
=
 OpenBabel11042418063D

 65 69  0  0  1  0  0  0  0  0999 V2000
  196.1970  173.0660  143.5440 C   0  0  0  0  0  0  0  0  0  0  0  0
  191.3740  169.8730  141.4290 C   0  0  0  0  0  1  0  0  0  0  0  0
  191.4880  174.1700  141.2840 C   0  0  0  0  0  2  0  0  0  0  0  0
  194.6730  174.3240  141.9050 C   0  0  0  0  0  2  0  0  0  0  0  0
  197.6950  169.7840  141.8040 S   0  0  0  0  0  0  0  0  0  0  0  0
  195.3060  174.1340  143.2020 N   0  0  0  0  0  2  0  0  0  0  0  0
  193.2360  171.3810  140.5920 C   0  0  0  0  0  2  0  0  0  0  0  0
  191.7280  171.1600  140.6990 C   0  0  1  0  0  3  0  0  0  0  0  0
  189.0120  174.1690  141.7990 C   0  0  0  0  0  0  0  0  0  0  0  0
  196.7400  173.0370  144.8400 C   0  0  0  0  0  3  0  0  0  0  0  0
  197.9360  170.9790  144.3340 C   0  0  0  0  0  3  0  0  0  0  0  0
  191.0980  171.1930  139.3880 N   0  0  0  0  0  2  0  0  0  0  0  0
  196.3590  170.5390  140.7700 C   0  0  1  0  0  3  0  0  0  0  0  0
  187.8230  173.9850  141.4200 O   0  0  0  0  0  0  0  0  0  0  0  0
  196.5480  172.0230  142.6570 C   0  0  0  0  0  0  0  0  0  0  0  0
  190.9850  172.5850  138.9520 C   0  0  2  0  0  3  0  0  0  0  0  0
  189.7820  173.2620  139.6100 C   0  0  0  0  0  2  0  0  0  0  0  0
  197.4230  171.0300  143.0440 C   0  0  0  0  0  0  0  0  0  0  0  0
  189.2930  174.5390  143.2350 C   0  0  1  0  0  3  0  0  0  0  0  0
  195.1300  169.6080  140.7050 C   0  0  1  0  0  3  0  0  0  0  0  0
  190.0950  173.9050  140.8950 N   0  0  0  0  0  0  0  0  0  0  0  0
  191.6320  175.0390  142.5100 C   0  0  0  0  0  0  0  0  0  0  0  0
  197.5980  171.9970  145.2370 C   0  0  0  0  0  3  0  0  0  0  0  0
  193.7000  169.8980  138.8170 O   0  0  0  0  0  0  0  0  0  0  0  0
  196.0000  171.8270  141.3630 N   0  0  0  0  0  2  0  0  0  0  0  0
  192.8540  175.6750  142.7820 O   0  0  0  0  0  0  0  0  0  0  0  0
  193.9620  175.6690  141.8760 C   0  0  0  0  0  2  0  0  0  0  0  0
  193.9950  170.2540  139.9430 C   0  0  0  0  0  0  0  0  0  0  0  0
  190.6320  175.2010  143.3710 C   0  0  0  0  0  3  0  0  0  0  0  0
  190.8170  172.5980  137.4310 C   0  0  0  0  0  3  0  0  0  0  0  0
  192.1780  172.3550  136.8070 C   0  0  0  0  0  2  0  0  0  0  0  0
  191.5900  173.7480  136.8290 C   0  0  0  0  0  2  0  0  0  0  0  0
  195.5150  168.2630  140.0780 C   0  0  0  0  0  2  0  0  0  0  0  0
  195.8950  168.4350  138.6180 C   0  0  0  0  0  2  0  0  0  0  0  0
  197.3230  168.1660  138.4530 N   0  0  0  0  0  2  0  0  0  0  0  0
  197.8890  169.3090  137.8580 N   0  0  0  0  0  2  0  0  0  0  0  0
  196.9700  171.2810  136.6630 C   0  0  0  0  0  0  0  0  0  0  0  0
  197.8010  172.0550  137.2110 O   0  0  0  0  0  0  0  0  0  0  0  0
  196.8860  169.9080  137.0740 N   0  0  0  0  0  2  0  0  0  0  0  0
  196.0740  171.7880  135.5770 C   0  0  0  0  0  2  0  0  0  0  0  0
  196.4740  173.1940  135.1610 C   0  0  0  0  0  2  0  0  0  0  0  0
  196.0840  174.2790  136.1680 C   0  0  0  0  0  2  0  0  0  0  0  0
  196.5530  176.6130  135.3600 C   0  0  0  0  0  1  0  0  0  0  0  0
  195.4970  175.5290  135.5120 C   0  0  2  0  0  3  0  0  0  0  0  0
  194.4280  176.0190  136.2630 O   0  0  0  0  0  1  0  0  0  0  0  0
  188.3150  175.4120  143.7290 O   0  0  0  0  0  0  0  0  0  0  0  0
  188.9390  176.1380  144.7470 C   0  0  0  0  0  2  0  0  0  0  0  0
  189.3140  174.1830  146.1310 O   0  0  0  0  0  1  0  0  0  0  0  0
  188.7360  175.4560  146.1100 C   0  0  1  0  0  3  0  0  0  0  0  0
  189.2690  176.3210  147.2660 C   0  0  1  0  0  3  0  0  0  0  0  0
  191.1940  176.9110  148.6130 O   0  0  0  0  0  1  0  0  0  0  0  0
  191.4890  176.6940  146.3750 O   0  0  0  0  0  1  0  0  0  0  0  0
  190.7980  176.1930  147.4840 C   0  0  0  0  0  3  0  0  0  0  0  0
  188.9130  177.6610  147.0490 O   0  0  0  0  0  0  0  0  0  0  0  0
  187.7620  177.8540  147.8180 C   0  0  0  0  0  2  0  0  0  0  0  0
  186.7340  178.6630  147.0390 C   0  0  0  0  0  2  0  0  0  0  0  0
  185.4790  177.8440  146.7590 C   0  0  0  0  0  2  0  0  0  0  0  0
  184.9850  178.1320  145.4210 N   0  0  0  0  0  2  0  0  0  0  0  0
  186.1380  178.1150  144.5320 C   0  0  0  0  0  2  0  0  0  0  0  0
  185.8250  178.9130  143.2780 C   0  0  0  0  0  2  0  0  0  0  0  0
  185.9440  176.5400  141.9210 O   0  0  0  0  0  1  0  0  0  0  0  0
  186.2840  178.0060  141.7610 P   0  0  2  0  0  0  0  0  0  0  0  0
  187.9440  178.1940  141.4730 O   0  0  0  0  0  0  0  0  0  0  0  0
  184.1120  178.1640  140.5900 C   0  0  0  0  0  1  0  0  0  0  0  0
  185.4200  178.6570  140.4600 O   0  0  0  0  0  0  0  0  0  0  0  0
  1 10  1  0  0  0  0
  3 22  1  0  0  0  0
  4  6  1  0  0  0  0
  5 18  1  0  0  0  0
  6  1  1  0  0  0  0
  7  8  1  0  0  0  0
  8  2  1  6  0  0  0
  9 19  1  0  0  0  0
 10 23  2  0  0  0  0
 11 23  1  0  0  0  0
 12  8  1  0  0  0  0
 13 25  1  1  0  0  0
 13  5  1  0  0  0  0
 14  9  2  0  0  0  0
 15 18  1  0  0  0  0
 15  1  2  0  0  0  0
 16 30  1  6  0  0  0
 16 12  1  0  0  0  0
 16 17  1  0  0  0  0
 17 21  1  0  0  0  0
 18 11  2  0  0  0  0
 19 29  1  0  0  0  0
 19 46  1  6  0  0  0
 20 33  1  6  0  0  0
 20 13  1  0  0  0  0
 21  3  1  0  0  0  0
 21  9  1  0  0  0  0
 22 26  1  0  0  0  0
 22 29  2  0  0  0  0
 24 28  2  0  0  0  0
 25 15  1  0  0  0  0
 27  4  1  0  0  0  0
 27 26  1  0  0  0  0
 28  7  1  0  0  0  0
 28 20  1  0  0  0  0
 31 32  1  0  0  0  0
 31 30  1  0  0  0  0
 32 30  1  0  0  0  0
 34 33  1  0  0  0  0
 35 34  1  0  0  0  0
 36 35  1  0  0  0  0
 37 39  1  0  0  0  0
 37 38  2  0  0  0  0
 39 36  1  0  0  0  0
 40 37  1  0  0  0  0
 41 40  1  0  0  0  0
 41 42  1  0  0  0  0
 44 43  1  1  0  0  0
 44 42  1  0  0  0  0
 44 45  1  0  0  0  0
 46 47  1  0  0  0  0
 47 49  1  0  0  0  0
 49 48  1  6  0  0  0
 49 50  1  0  0  0  0
 50 54  1  6  0  0  0
 50 53  1  0  0  0  0
 52 53  1  0  0  0  0
 53 51  1  0  0  0  0
 54 55  1  0  0  0  0
 56 55  1  0  0  0  0
 57 56  1  0  0  0  0
 58 57  1  0  0  0  0
 59 58  1  0  0  0  0
 60 59  1  0  0  0  0
 62 63  2  6  0  0  0
 62 61  1  0  0  0  0
 62 60  1  0  0  0  0
 65 64  1  0  0  0  0
 65 62  1  0  0  0  0
M  END
>  <MODEL>
9

>  <REMARK>
 VINA RESULT:      -4.6      4.343     11.708
  Name = 
  24 active torsions:
  status: ('A' for Active; 'I' for Inactive)
    1  A    between atoms: C_1  and  O_15
    2  A    between atoms: C_1  and  C_58
    3  A    between atoms: C_3  and  C_37
    4  A    between atoms: C_4  and  N_48
    5  A    between atoms: C_4  and  C_62
    6  A    between atoms: C_5  and  O_15
    7  A    between atoms: C_5  and  C_19
    8  A    between atoms: C_5  and  C_64
    9  A    between atoms: C_9  and  C_52
   10  A    between atoms: O_11  and  C_42
   11  A    between atoms: O_11  and  C_46
   12  A    between atoms: C_14  and  C_63
   13  A    between atoms: O_22  and  P_41
   14  A    between atoms: C_24  and  C_43
   15  A    between atoms: C_24  and  C_53
   16  A    between atoms: C_28  and  N_48
   17  A    between atoms: C_28  and  C_58
   18  A    between atoms: N_40  and  N_49
   19  A    between atoms: P_41  and  C_62
   20  A    between atoms: C_46  and  C_64
   21  A    between atoms: C_47  and  C_52
   22  A    between atoms: C_47  and  C_63
   23  A    between atoms: N_49  and  N_50
   24  A    between atoms: N_50  and  C_53
                            x       y       z     vdW  Elec       q    Type
                         _______ _______ _______ _____ _____    ______ ____

>  <TORSDO>
F 24

$$$$
