=
 OpenBabel11042418273D

 28 32  0  0  1  0  0  0  0  0999 V2000
  187.1950  177.6310  147.1800 C   0  0  0  0  0  3  0  0  0  0  0  0
  187.6890  176.4950  146.3470 C   0  0  0  0  0  2  0  0  0  0  0  0
  188.6450  177.0220  145.2870 C   0  0  2  0  0  0  0  0  0  0  0  0
  185.7940  178.4850  145.3960 C   0  0  0  0  0  0  0  0  0  0  0  0
  185.9300  178.1320  143.0300 N   0  0  0  0  0  0  0  0  0  0  0  0
  188.0510  177.9850  144.2600 C   0  0  1  0  0  3  0  0  0  0  0  0
  186.3440  178.4980  146.7220 N   0  0  0  0  0  0  0  0  0  0  0  0
  188.3940  176.5490  143.8600 C   0  0  1  0  0  3  0  0  0  0  0  0
  183.8410  178.7560  143.9900 C   0  0  0  0  0  3  0  0  0  0  0  0
  184.6090  178.4090  142.8810 C   0  0  0  0  0  3  0  0  0  0  0  0
  184.4410  178.7980  145.2460 C   0  0  0  0  0  3  0  0  0  0  0  0
  186.5500  178.1520  144.2430 C   0  0  0  0  0  0  0  0  0  0  0  0
  189.6410  176.5590  142.9920 C   0  0  0  0  0  2  0  0  0  0  0  0
  189.7820  175.2340  142.2560 C   0  0  0  0  0  2  0  0  0  0  0  0
  190.5930  174.1900  143.0320 C   0  0  1  0  0  3  0  0  0  0  0  0
  190.6020  172.1250  144.4140 C   0  0  0  0  0  2  0  0  0  0  0  0
  189.7320  173.0770  143.6160 C   0  0  0  0  0  3  0  0  0  0  0  0
  189.7560  173.1570  145.1310 C   0  0  0  0  0  2  0  0  0  0  0  0
  192.7630  174.6210  142.0640 O   0  0  0  0  0  1  0  0  0  0  0  0
  191.7750  173.6490  142.2300 C   0  0  0  0  0  2  0  0  0  0  0  0
  190.0510  177.4560  145.7330 C   0  0  0  0  0  2  0  0  0  0  0  0
  190.6780  175.9990  147.6020 C   0  0  0  0  0  2  0  0  0  0  0  0
  190.8600  176.3320  146.3230 C   0  0  0  0  0  0  0  0  0  0  0  0
  194.4600  176.5540  145.8700 O   0  0  0  0  0  1  0  0  0  0  0  0
  193.3140  176.2660  146.6160 C   0  0  2  0  0  3  0  0  0  0  0  0
  192.8430  174.8230  146.4320 C   0  0  2  0  0  3  0  0  0  0  0  0
  193.6860  174.0120  145.4580 C   0  0  0  0  0  1  0  0  0  0  0  0
  192.1610  175.9510  145.6790 C   0  0  1  0  0  3  0  0  0  0  0  0
  2  1  1  0  0  0  0
  3 21  1  1  0  0  0
  3  2  1  0  0  0  0
  4  7  1  0  0  0  0
  5 12  1  0  0  0  0
  6 12  1  1  0  0  0
  6  3  1  0  0  0  0
  7  1  2  0  0  0  0
  8 13  1  6  0  0  0
  8  6  1  0  0  0  0
  8  3  1  0  0  0  0
  9 11  2  0  0  0  0
 10  5  2  0  0  0  0
 10  9  1  0  0  0  0
 11  4  1  0  0  0  0
 12  4  2  0  0  0  0
 14 13  1  0  0  0  0
 14 15  1  0  0  0  0
 15 20  1  6  0  0  0
 15 17  1  0  0  0  0
 16 18  1  0  0  0  0
 17 16  1  0  0  0  0
 17 18  1  0  0  0  0
 19 20  1  0  0  0  0
 21 23  1  0  0  0  0
 23 22  2  0  0  0  0
 25 24  1  6  0  0  0
 26 27  1  6  0  0  0
 26 25  1  0  0  0  0
 28 23  1  1  0  0  0
 28 26  1  0  0  0  0
 28 25  1  0  0  0  0
M  END
>  <MODEL>
1

>  <REMARK>
 VINA RESULT:      -6.7      0.000      0.000
  Name = 
  8 active torsions:
  status: ('A' for Active; 'I' for Inactive)
    1  A    between atoms: C_6  and  C_20
    2  A    between atoms: C_7  and  C_15
    3  A    between atoms: C_7  and  C_27
    4  A    between atoms: C_13  and  C_20
    5  A    between atoms: C_13  and  C_28
    6  A    between atoms: C_14  and  C_16
    7  A    between atoms: C_16  and  C_25
    8  A    between atoms: C_16  and  C_27
                            x       y       z     vdW  Elec       q    Type
                         _______ _______ _______ _____ _____    ______ ____

>  <TORSDO>
F 8

$$$$
=
 OpenBabel11042418273D

 28 32  0  0  1  0  0  0  0  0999 V2000
  191.0770  177.2250  142.9940 C   0  0  0  0  0  3  0  0  0  0  0  0
  189.7080  177.6260  142.5540 C   0  0  0  0  0  2  0  0  0  0  0  0
  188.6720  176.9770  143.4610 C   0  0  2  0  0  0  0  0  0  0  0  0
  190.8070  174.9610  142.1700 C   0  0  0  0  0  0  0  0  0  0  0  0
  188.8090  173.7210  141.7070 N   0  0  0  0  0  0  0  0  0  0  0  0
  188.6200  175.4500  143.4410 C   0  0  1  0  0  3  0  0  0  0  0  0
  191.5350  176.0250  142.8010 N   0  0  0  0  0  0  0  0  0  0  0  0
  187.5180  176.2670  142.7630 C   0  0  1  0  0  3  0  0  0  0  0  0
  190.8350  173.1030  140.6170 C   0  0  0  0  0  3  0  0  0  0  0  0
  189.4720  172.9200  140.8330 C   0  0  0  0  0  3  0  0  0  0  0  0
  191.4990  174.1230  141.2940 C   0  0  0  0  0  3  0  0  0  0  0  0
  189.4220  174.7350  142.3800 C   0  0  0  0  0  0  0  0  0  0  0  0
  186.2560  176.1950  143.6060 C   0  0  0  0  0  2  0  0  0  0  0  0
  185.2450  177.2300  143.1310 C   0  0  0  0  0  2  0  0  0  0  0  0
  184.8560  178.2420  144.2130 C   0  0  1  0  0  3  0  0  0  0  0  0
  185.4290  178.9310  146.5310 C   0  0  0  0  0  2  0  0  0  0  0  0
  185.1430  177.7480  145.6260 C   0  0  0  0  0  3  0  0  0  0  0  0
  184.0720  178.2600  146.5700 C   0  0  0  0  0  2  0  0  0  0  0  0
  186.3360  179.6130  142.8860 O   0  0  0  0  0  1  0  0  0  0  0  0
  185.4380  179.6310  143.9550 C   0  0  0  0  0  2  0  0  0  0  0  0
  188.5030  177.5380  144.8820 C   0  0  0  0  0  2  0  0  0  0  0  0
  188.2490  176.0310  146.7980 C   0  0  0  0  0  2  0  0  0  0  0  0
  189.0750  176.6410  145.9470 C   0  0  0  0  0  0  0  0  0  0  0  0
  191.7240  177.0260  148.4070 O   0  0  0  0  0  1  0  0  0  0  0  0
  190.6960  176.3120  147.7840 C   0  0  2  0  0  3  0  0  0  0  0  0
  191.1910  175.4900  146.5940 C   0  0  2  0  0  3  0  0  0  0  0  0
  192.6790  175.6420  146.3080 C   0  0  0  0  0  1  0  0  0  0  0  0
  190.5040  176.8240  146.3680 C   0  0  1  0  0  3  0  0  0  0  0  0
  2  1  1  0  0  0  0
  2  3  1  0  0  0  0
  3 21  1  1  0  0  0
  4 12  1  0  0  0  0
  4  7  1  0  0  0  0
  5 12  2  0  0  0  0
  6 12  1  6  0  0  0
  6  3  1  0  0  0  0
  7  1  2  0  0  0  0
  8  6  1  0  0  0  0
  8  3  1  0  0  0  0
  8 13  1  1  0  0  0
  9 10  2  0  0  0  0
  9 11  1  0  0  0  0
 10  5  1  0  0  0  0
 11  4  2  0  0  0  0
 14 13  1  0  0  0  0
 15 14  1  6  0  0  0
 15 17  1  0  0  0  0
 16 18  1  0  0  0  0
 17 16  1  0  0  0  0
 17 18  1  0  0  0  0
 19 20  1  0  0  0  0
 20 15  1  0  0  0  0
 21 23  1  0  0  0  0
 23 22  2  0  0  0  0
 25 24  1  1  0  0  0
 26 27  1  1  0  0  0
 26 25  1  0  0  0  0
 28 23  1  6  0  0  0
 28 26  1  0  0  0  0
 28 25  1  0  0  0  0
M  END
>  <MODEL>
2

>  <REMARK>
 VINA RESULT:      -6.6      2.623      5.726
  Name = 
  8 active torsions:
  status: ('A' for Active; 'I' for Inactive)
    1  A    between atoms: C_6  and  C_20
    2  A    between atoms: C_7  and  C_15
    3  A    between atoms: C_7  and  C_27
    4  A    between atoms: C_13  and  C_20
    5  A    between atoms: C_13  and  C_28
    6  A    between atoms: C_14  and  C_16
    7  A    between atoms: C_16  and  C_25
    8  A    between atoms: C_16  and  C_27
                            x       y       z     vdW  Elec       q    Type
                         _______ _______ _______ _____ _____    ______ ____

>  <TORSDO>
F 8

$$$$
=
 OpenBabel11042418273D

 28 32  0  0  1  0  0  0  0  0999 V2000
  186.5620  176.6560  141.3500 C   0  0  0  0  0  3  0  0  0  0  0  0
  186.4890  176.1840  142.7640 C   0  0  0  0  0  2  0  0  0  0  0  0
  187.6690  176.7440  143.5470 C   0  0  2  0  0  0  0  0  0  0  0  0
  188.4370  175.2080  140.8390 C   0  0  0  0  0  0  0  0  0  0  0  0
  190.0320  174.1820  142.3040 N   0  0  0  0  0  0  0  0  0  0  0  0
  189.0560  176.2930  143.0920 C   0  0  1  0  0  3  0  0  0  0  0  0
  187.4440  176.1920  140.5170 N   0  0  0  0  0  0  0  0  0  0  0  0
  188.4540  175.7420  144.3860 C   0  0  1  0  0  3  0  0  0  0  0  0
  189.6340  173.2130  140.1640 C   0  0  0  0  0  3  0  0  0  0  0  0
  190.2850  173.2050  141.3950 C   0  0  0  0  0  3  0  0  0  0  0  0
  188.7140  174.2220  139.8890 C   0  0  0  0  0  3  0  0  0  0  0  0
  189.1320  175.1790  142.0760 C   0  0  0  0  0  0  0  0  0  0  0  0
  189.1640  176.3740  145.5720 C   0  0  0  0  0  2  0  0  0  0  0  0
  189.4080  175.3330  146.6570 C   0  0  0  0  0  2  0  0  0  0  0  0
  190.8930  175.0470  146.9030 C   0  0  1  0  0  3  0  0  0  0  0  0
  193.2180  175.0740  146.0260 C   0  0  0  0  0  2  0  0  0  0  0  0
  191.7890  175.5080  145.7600 C   0  0  0  0  0  3  0  0  0  0  0  0
  192.3630  174.2980  145.0470 C   0  0  0  0  0  2  0  0  0  0  0  0
  191.3170  176.9560  148.3220 O   0  0  0  0  0  1  0  0  0  0  0  0
  191.3720  175.5620  148.2590 C   0  0  0  0  0  2  0  0  0  0  0  0
  187.6450  178.2340  143.9230 C   0  0  0  0  0  2  0  0  0  0  0  0
  185.6010  179.5860  143.8690 C   0  0  0  0  0  2  0  0  0  0  0  0
  186.3330  178.6770  144.5140 C   0  0  0  0  0  0  0  0  0  0  0  0
  184.2860  178.7290  147.5180 O   0  0  0  0  0  1  0  0  0  0  0  0
  184.6300  178.2440  146.2530 C   0  0  2  0  0  3  0  0  0  0  0  0
  185.6420  177.1010  146.3190 C   0  0  2  0  0  3  0  0  0  0  0  0
  186.0930  176.7490  147.7300 C   0  0  0  0  0  1  0  0  0  0  0  0
  186.1010  178.5090  145.9880 C   0  0  1  0  0  3  0  0  0  0  0  0
  1  2  1  0  0  0  0
  2  3  1  0  0  0  0
  3 21  1  1  0  0  0
  3  8  1  0  0  0  0
  4 12  1  0  0  0  0
  6 12  1  6  0  0  0
  6  3  1  0  0  0  0
  6  8  1  0  0  0  0
  7  4  1  0  0  0  0
  7  1  2  0  0  0  0
  8 13  1  1  0  0  0
  9 10  2  0  0  0  0
 10  5  1  0  0  0  0
 11  9  1  0  0  0  0
 11  4  2  0  0  0  0
 12  5  2  0  0  0  0
 13 14  1  0  0  0  0
 15 14  1  6  0  0  0
 15 20  1  0  0  0  0
 17 16  1  0  0  0  0
 17 15  1  0  0  0  0
 18 17  1  0  0  0  0
 18 16  1  0  0  0  0
 20 19  1  0  0  0  0
 21 23  1  0  0  0  0
 22 23  2  0  0  0  0
 25 26  1  0  0  0  0
 25 24  1  1  0  0  0
 26 27  1  1  0  0  0
 28 23  1  6  0  0  0
 28 25  1  0  0  0  0
 28 26  1  0  0  0  0
M  END
>  <MODEL>
3

>  <REMARK>
 VINA RESULT:      -6.4      2.878      6.058
  Name = 
  8 active torsions:
  status: ('A' for Active; 'I' for Inactive)
    1  A    between atoms: C_6  and  C_20
    2  A    between atoms: C_7  and  C_15
    3  A    between atoms: C_7  and  C_27
    4  A    between atoms: C_13  and  C_20
    5  A    between atoms: C_13  and  C_28
    6  A    between atoms: C_14  and  C_16
    7  A    between atoms: C_16  and  C_25
    8  A    between atoms: C_16  and  C_27
                            x       y       z     vdW  Elec       q    Type
                         _______ _______ _______ _____ _____    ______ ____

>  <TORSDO>
F 8

$$$$
=
 OpenBabel11042418273D

 28 32  0  0  1  0  0  0  0  0999 V2000
  187.2330  177.5670  146.7550 C   0  0  0  0  0  3  0  0  0  0  0  0
  187.9130  176.4540  146.0300 C   0  0  0  0  0  2  0  0  0  0  0  0
  188.9170  177.0290  145.0420 C   0  0  2  0  0  0  0  0  0  0  0  0
  185.9440  178.2080  144.8050 C   0  0  0  0  0  0  0  0  0  0  0  0
  186.3500  177.7770  142.4830 N   0  0  0  0  0  0  0  0  0  0  0  0
  188.3410  177.8880  143.9170 C   0  0  1  0  0  3  0  0  0  0  0  0
  186.3550  178.3280  146.1750 N   0  0  0  0  0  0  0  0  0  0  0  0
  188.8560  176.4780  143.6220 C   0  0  1  0  0  3  0  0  0  0  0  0
  184.1260  178.2300  143.2060 C   0  0  0  0  0  3  0  0  0  0  0  0
  185.0300  177.9170  142.1950 C   0  0  0  0  0  3  0  0  0  0  0  0
  184.5900  178.3810  144.5100 C   0  0  0  0  0  3  0  0  0  0  0  0
  186.8410  177.9060  143.7480 C   0  0  0  0  0  0  0  0  0  0  0  0
  190.1770  176.5770  142.8780 C   0  0  0  0  0  2  0  0  0  0  0  0
  190.8250  175.2030  142.7700 C   0  0  0  0  0  2  0  0  0  0  0  0
  189.8680  174.0510  143.0960 C   0  0  1  0  0  3  0  0  0  0  0  0
  188.2180  172.4380  142.1730 C   0  0  0  0  0  2  0  0  0  0  0  0
  189.4700  173.2380  141.8700 C   0  0  0  0  0  3  0  0  0  0  0  0
  188.1220  173.7130  141.3620 C   0  0  0  0  0  2  0  0  0  0  0  0
  189.7660  173.5040  145.4460 O   0  0  0  0  0  1  0  0  0  0  0  0
  190.3770  173.1700  144.2350 C   0  0  0  0  0  2  0  0  0  0  0  0
  190.2240  177.6160  145.5990 C   0  0  0  0  0  2  0  0  0  0  0  0
  190.8870  176.5430  147.7000 C   0  0  0  0  0  2  0  0  0  0  0  0
  191.0390  176.6180  146.3770 C   0  0  0  0  0  0  0  0  0  0  0  0
  194.6590  176.4710  146.0740 O   0  0  0  0  0  1  0  0  0  0  0  0
  193.4600  176.3060  146.7720 C   0  0  2  0  0  3  0  0  0  0  0  0
  192.8530  174.9170  146.5720 C   0  0  2  0  0  3  0  0  0  0  0  0
  193.6490  174.0190  145.6350 C   0  0  0  0  0  1  0  0  0  0  0  0
  192.3210  176.1030  145.7890 C   0  0  1  0  0  3  0  0  0  0  0  0
  2  1  1  0  0  0  0
  3 21  1  1  0  0  0
  3  2  1  0  0  0  0
  4  7  1  0  0  0  0
  5 12  1  0  0  0  0
  6 12  1  1  0  0  0
  6  3  1  0  0  0  0
  7  1  2  0  0  0  0
  8 13  1  6  0  0  0
  8  6  1  0  0  0  0
  8  3  1  0  0  0  0
  9 11  2  0  0  0  0
 10  5  2  0  0  0  0
 10  9  1  0  0  0  0
 11  4  1  0  0  0  0
 12  4  2  0  0  0  0
 14 13  1  0  0  0  0
 15 14  1  6  0  0  0
 15 20  1  0  0  0  0
 17 16  1  0  0  0  0
 17 15  1  0  0  0  0
 18 17  1  0  0  0  0
 18 16  1  0  0  0  0
 20 19  1  0  0  0  0
 21 23  1  0  0  0  0
 23 22  2  0  0  0  0
 25 24  1  6  0  0  0
 26 27  1  6  0  0  0
 26 25  1  0  0  0  0
 28 23  1  1  0  0  0
 28 26  1  0  0  0  0
 28 25  1  0  0  0  0
M  END
>  <MODEL>
4

>  <REMARK>
 VINA RESULT:      -6.3      1.251      1.551
  Name = 
  8 active torsions:
  status: ('A' for Active; 'I' for Inactive)
    1  A    between atoms: C_6  and  C_20
    2  A    between atoms: C_7  and  C_15
    3  A    between atoms: C_7  and  C_27
    4  A    between atoms: C_13  and  C_20
    5  A    between atoms: C_13  and  C_28
    6  A    between atoms: C_14  and  C_16
    7  A    between atoms: C_16  and  C_25
    8  A    between atoms: C_16  and  C_27
                            x       y       z     vdW  Elec       q    Type
                         _______ _______ _______ _____ _____    ______ ____

>  <TORSDO>
F 8

$$$$
=
 OpenBabel11042418273D

 28 32  0  0  1  0  0  0  0  0999 V2000
  188.7330  177.8120  142.9680 C   0  0  0  0  0  3  0  0  0  0  0  0
  189.9040  178.0120  143.8720 C   0  0  0  0  0  2  0  0  0  0  0  0
  190.1210  176.7590  144.7080 C   0  0  2  0  0  0  0  0  0  0  0  0
  187.1480  177.9590  144.7960 C   0  0  0  0  0  0  0  0  0  0  0  0
  187.4750  177.6270  147.1470 N   0  0  0  0  0  0  0  0  0  0  0  0
  188.9910  176.3840  145.6660 C   0  0  1  0  0  3  0  0  0  0  0  0
  187.5150  177.7990  143.4180 N   0  0  0  0  0  0  0  0  0  0  0  0
  190.2960  176.9730  146.2070 C   0  0  1  0  0  3  0  0  0  0  0  0
  185.6460  178.9630  146.4090 C   0  0  0  0  0  3  0  0  0  0  0  0
  186.3980  178.4020  147.4380 C   0  0  0  0  0  3  0  0  0  0  0  0
  186.0230  178.7340  145.0880 C   0  0  0  0  0  3  0  0  0  0  0  0
  187.8810  177.3880  145.8680 C   0  0  0  0  0  0  0  0  0  0  0  0
  191.0950  175.8730  146.8850 C   0  0  0  0  0  2  0  0  0  0  0  0
  192.4440  176.4080  147.3450 C   0  0  0  0  0  2  0  0  0  0  0  0
  193.6060  175.9880  146.4390 C   0  0  1  0  0  3  0  0  0  0  0  0
  194.1290  174.4780  144.5360 C   0  0  0  0  0  2  0  0  0  0  0  0
  193.4600  174.5730  145.8940 C   0  0  0  0  0  3  0  0  0  0  0  0
  194.8290  173.9350  145.7630 C   0  0  0  0  0  2  0  0  0  0  0  0
  194.9180  177.8780  145.7030 O   0  0  0  0  0  1  0  0  0  0  0  0
  193.8900  177.0080  145.3370 C   0  0  0  0  0  2  0  0  0  0  0  0
  190.7200  175.5240  144.0180 C   0  0  0  0  0  2  0  0  0  0  0  0
  190.1620  173.2030  144.5750 C   0  0  0  0  0  2  0  0  0  0  0  0
  189.7860  174.3440  143.9950 C   0  0  0  0  0  0  0  0  0  0  0  0
  188.4650  174.9050  140.6550 O   0  0  0  0  0  1  0  0  0  0  0  0
  189.3540  174.3200  141.5610 C   0  0  2  0  0  3  0  0  0  0  0  0
  188.8300  172.9990  142.1250 C   0  0  2  0  0  3  0  0  0  0  0  0
  187.4470  172.6110  141.6200 C   0  0  0  0  0  1  0  0  0  0  0  0
  188.7200  174.2740  142.9400 C   0  0  1  0  0  3  0  0  0  0  0  0
  1  7  2  0  0  0  0
  1  2  1  0  0  0  0
  2  3  1  0  0  0  0
  3 21  1  6  0  0  0
  3  6  1  0  0  0  0
  3  8  1  0  0  0  0
  4 11  2  0  0  0  0
  4 12  1  0  0  0  0
  5 10  1  0  0  0  0
  6 12  1  6  0  0  0
  6  8  1  0  0  0  0
  7  4  1  0  0  0  0
  8 13  1  1  0  0  0
  9 10  2  0  0  0  0
 11  9  1  0  0  0  0
 12  5  2  0  0  0  0
 13 14  1  0  0  0  0
 15 20  1  6  0  0  0
 15 14  1  0  0  0  0
 16 18  1  0  0  0  0
 16 17  1  0  0  0  0
 17 15  1  0  0  0  0
 18 17  1  0  0  0  0
 20 19  1  0  0  0  0
 23 21  1  0  0  0  0
 23 22  2  0  0  0  0
 25 24  1  6  0  0  0
 25 26  1  0  0  0  0
 25 28  1  0  0  0  0
 26 27  1  6  0  0  0
 26 28  1  0  0  0  0
 28 23  1  1  0  0  0
M  END
>  <MODEL>
5

>  <REMARK>
 VINA RESULT:      -6.2      1.600      4.566
  Name = 
  8 active torsions:
  status: ('A' for Active; 'I' for Inactive)
    1  A    between atoms: C_6  and  C_20
    2  A    between atoms: C_7  and  C_15
    3  A    between atoms: C_7  and  C_27
    4  A    between atoms: C_13  and  C_20
    5  A    between atoms: C_13  and  C_28
    6  A    between atoms: C_14  and  C_16
    7  A    between atoms: C_16  and  C_25
    8  A    between atoms: C_16  and  C_27
                            x       y       z     vdW  Elec       q    Type
                         _______ _______ _______ _____ _____    ______ ____

>  <TORSDO>
F 8

$$$$
=
 OpenBabel11042418273D

 28 32  0  0  1  0  0  0  0  0999 V2000
  190.3140  177.2510  147.6230 C   0  0  0  0  0  3  0  0  0  0  0  0
  189.7090  177.6690  146.3240 C   0  0  0  0  0  2  0  0  0  0  0  0
  189.0370  176.4710  145.6680 C   0  0  2  0  0  0  0  0  0  0  0  0
  192.0910  176.0140  146.5330 C   0  0  0  0  0  0  0  0  0  0  0  0
  192.2040  175.1170  144.3140 N   0  0  0  0  0  0  0  0  0  0  0  0
  189.9530  175.3120  145.2790 C   0  0  1  0  0  3  0  0  0  0  0  0
  191.3830  176.5150  147.6760 N   0  0  0  0  0  0  0  0  0  0  0  0
  189.3730  176.2300  144.2010 C   0  0  1  0  0  3  0  0  0  0  0  0
  194.2290  175.5870  145.4780 C   0  0  0  0  0  3  0  0  0  0  0  0
  193.5620  175.1430  144.3390 C   0  0  0  0  0  3  0  0  0  0  0  0
  193.4870  176.0170  146.5750 C   0  0  0  0  0  3  0  0  0  0  0  0
  191.4440  175.5390  145.3630 C   0  0  0  0  0  0  0  0  0  0  0  0
  188.2850  175.4850  143.4470 C   0  0  0  0  0  2  0  0  0  0  0  0
  188.7180  175.2350  142.0080 C   0  0  0  0  0  2  0  0  0  0  0  0
  189.5930  173.9880  141.8450 C   0  0  1  0  0  3  0  0  0  0  0  0
  189.8410  171.5370  142.1760 C   0  0  0  0  0  2  0  0  0  0  0  0
  189.0270  172.7610  142.5500 C   0  0  0  0  0  3  0  0  0  0  0  0
  190.0580  172.2100  143.5150 C   0  0  0  0  0  2  0  0  0  0  0  0
  188.9510  174.1710  139.5230 O   0  0  0  0  0  1  0  0  0  0  0  0
  189.9460  173.7060  140.3850 C   0  0  0  0  0  2  0  0  0  0  0  0
  187.7070  175.9760  146.2590 C   0  0  0  0  0  2  0  0  0  0  0  0
  186.2400  177.3540  147.6580 C   0  0  0  0  0  2  0  0  0  0  0  0
  186.6900  177.0720  146.4350 C   0  0  0  0  0  0  0  0  0  0  0  0
  183.9600  178.8850  144.8610 O   0  0  0  0  0  1  0  0  0  0  0  0
  185.1790  178.8130  145.5420 C   0  0  2  0  0  3  0  0  0  0  0  0
  186.3740  178.7240  144.5930 C   0  0  2  0  0  3  0  0  0  0  0  0
  185.9980  178.6950  143.1180 C   0  0  0  0  0  1  0  0  0  0  0  0
  185.8380  177.4730  145.2650 C   0  0  1  0  0  3  0  0  0  0  0  0
  1  7  2  0  0  0  0
  2  1  1  0  0  0  0
  3 21  1  1  0  0  0
  3  2  1  0  0  0  0
  4 11  1  0  0  0  0
  4  7  1  0  0  0  0
  5 10  2  0  0  0  0
  5 12  1  0  0  0  0
  6 12  1  1  0  0  0
  6  3  1  0  0  0  0
  8 13  1  6  0  0  0
  8  6  1  0  0  0  0
  8  3  1  0  0  0  0
  9 11  2  0  0  0  0
 10  9  1  0  0  0  0
 12  4  2  0  0  0  0
 14 13  1  0  0  0  0
 15 20  1  6  0  0  0
 15 14  1  0  0  0  0
 15 17  1  0  0  0  0
 16 17  1  0  0  0  0
 16 18  1  0  0  0  0
 17 18  1  0  0  0  0
 19 20  1  0  0  0  0
 21 23  1  0  0  0  0
 23 22  2  0  0  0  0
 25 24  1  6  0  0  0
 26 27  1  6  0  0  0
 26 28  1  0  0  0  0
 26 25  1  0  0  0  0
 28 25  1  0  0  0  0
 28 23  1  1  0  0  0
M  END
>  <MODEL>
6

>  <REMARK>
 VINA RESULT:      -6.1      2.942      5.875
  Name = 
  8 active torsions:
  status: ('A' for Active; 'I' for Inactive)
    1  A    between atoms: C_6  and  C_20
    2  A    between atoms: C_7  and  C_15
    3  A    between atoms: C_7  and  C_27
    4  A    between atoms: C_13  and  C_20
    5  A    between atoms: C_13  and  C_28
    6  A    between atoms: C_14  and  C_16
    7  A    between atoms: C_16  and  C_25
    8  A    between atoms: C_16  and  C_27
                            x       y       z     vdW  Elec       q    Type
                         _______ _______ _______ _____ _____    ______ ____

>  <TORSDO>
F 8

$$$$
=
 OpenBabel11042418273D

 28 32  0  0  1  0  0  0  0  0999 V2000
  188.1890  174.6980  140.7710 C   0  0  0  0  0  3  0  0  0  0  0  0
  187.8010  175.0850  142.1600 C   0  0  0  0  0  2  0  0  0  0  0  0
  188.5730  176.3290  142.5750 C   0  0  2  0  0  0  0  0  0  0  0  0
  190.3720  173.9140  141.4750 C   0  0  0  0  0  0  0  0  0  0  0  0
  191.6390  174.4440  143.4390 N   0  0  0  0  0  0  0  0  0  0  0  0
  190.0920  176.1850  142.6570 C   0  0  1  0  0  3  0  0  0  0  0  0
  189.3470  174.1720  140.5050 N   0  0  0  0  0  0  0  0  0  0  0  0
  189.2570  176.2730  143.9370 C   0  0  1  0  0  3  0  0  0  0  0  0
  192.0700  172.3960  142.3000 C   0  0  0  0  0  3  0  0  0  0  0  0
  192.3260  173.2760  143.3490 C   0  0  0  0  0  3  0  0  0  0  0  0
  191.0950  172.7240  141.3610 C   0  0  0  0  0  3  0  0  0  0  0  0
  190.6710  174.7940  142.5460 C   0  0  0  0  0  0  0  0  0  0  0  0
  189.4580  177.6400  144.5680 C   0  0  0  0  0  2  0  0  0  0  0  0
  189.7020  177.4990  146.0640 C   0  0  0  0  0  2  0  0  0  0  0  0
  190.4050  176.1920  146.4460 C   0  0  1  0  0  3  0  0  0  0  0  0
  192.6330  175.1850  146.8870 C   0  0  0  0  0  2  0  0  0  0  0  0
  191.7660  176.4110  147.0960 C   0  0  0  0  0  3  0  0  0  0  0  0
  192.8430  176.4140  146.0280 C   0  0  0  0  0  2  0  0  0  0  0  0
  189.3150  174.0430  146.6200 O   0  0  0  0  0  1  0  0  0  0  0  0
  189.5120  175.2640  147.2690 C   0  0  0  0  0  2  0  0  0  0  0  0
  188.1580  177.6760  141.9620 C   0  0  0  0  0  2  0  0  0  0  0  0
  185.9350  178.1100  141.0240 C   0  0  0  0  0  2  0  0  0  0  0  0
  186.6890  177.9710  142.1150 C   0  0  0  0  0  0  0  0  0  0  0  0
  184.1370  179.4140  144.2640 O   0  0  0  0  0  1  0  0  0  0  0  0
  184.7030  178.3660  143.5320 C   0  0  2  0  0  3  0  0  0  0  0  0
  185.6880  177.5400  144.3590 C   0  0  2  0  0  3  0  0  0  0  0  0
  185.8800  178.0410  145.7830 C   0  0  0  0  0  1  0  0  0  0  0  0
  186.1970  178.5920  143.3900 C   0  0  1  0  0  3  0  0  0  0  0  0
  1  2  1  0  0  0  0
  2  3  1  0  0  0  0
  3 21  1  6  0  0  0
  3  6  1  0  0  0  0
  3  8  1  0  0  0  0
  4 12  1  0  0  0  0
  6 12  1  1  0  0  0
  6  8  1  0  0  0  0
  7  1  2  0  0  0  0
  7  4  1  0  0  0  0
  8 13  1  6  0  0  0
  9 10  2  0  0  0  0
 10  5  1  0  0  0  0
 11  4  2  0  0  0  0
 11  9  1  0  0  0  0
 12  5  2  0  0  0  0
 13 14  1  0  0  0  0
 15 14  1  1  0  0  0
 15 17  1  0  0  0  0
 15 20  1  0  0  0  0
 16 17  1  0  0  0  0
 18 16  1  0  0  0  0
 18 17  1  0  0  0  0
 19 20  1  0  0  0  0
 21 23  1  0  0  0  0
 22 23  2  0  0  0  0
 25 24  1  1  0  0  0
 25 26  1  0  0  0  0
 26 27  1  1  0  0  0
 28 23  1  6  0  0  0
 28 25  1  0  0  0  0
 28 26  1  0  0  0  0
M  END
>  <MODEL>
7

>  <REMARK>
 VINA RESULT:      -6.1      3.043      6.750
  Name = 
  8 active torsions:
  status: ('A' for Active; 'I' for Inactive)
    1  A    between atoms: C_6  and  C_20
    2  A    between atoms: C_7  and  C_15
    3  A    between atoms: C_7  and  C_27
    4  A    between atoms: C_13  and  C_20
    5  A    between atoms: C_13  and  C_28
    6  A    between atoms: C_14  and  C_16
    7  A    between atoms: C_16  and  C_25
    8  A    between atoms: C_16  and  C_27
                            x       y       z     vdW  Elec       q    Type
                         _______ _______ _______ _____ _____    ______ ____

>  <TORSDO>
F 8

$$$$
=
 OpenBabel11042418273D

 28 32  0  0  1  0  0  0  0  0999 V2000
  188.2760  177.1340  147.2780 C   0  0  0  0  0  3  0  0  0  0  0  0
  188.3760  176.1000  146.2070 C   0  0  0  0  0  2  0  0  0  0  0  0
  188.9140  176.7370  144.9340 C   0  0  2  0  0  0  0  0  0  0  0  0
  186.3760  178.2100  146.2270 C   0  0  0  0  0  0  0  0  0  0  0  0
  185.6330  178.1380  143.9500 N   0  0  0  0  0  0  0  0  0  0  0  0
  188.0430  177.8220  144.3020 C   0  0  1  0  0  3  0  0  0  0  0  0
  187.3650  178.0590  147.2550 N   0  0  0  0  0  0  0  0  0  0  0  0
  188.1410  176.4400  143.6540 C   0  0  1  0  0  3  0  0  0  0  0  0
  184.0650  178.6680  145.6630 C   0  0  0  0  0  3  0  0  0  0  0  0
  184.3630  178.4460  144.3220 C   0  0  0  0  0  3  0  0  0  0  0  0
  185.0780  178.5540  146.6120 C   0  0  0  0  0  3  0  0  0  0  0  0
  186.6480  178.0080  144.8490 C   0  0  0  0  0  0  0  0  0  0  0  0
  188.9910  176.5390  142.3980 C   0  0  0  0  0  2  0  0  0  0  0  0
  188.7980  175.3020  141.5320 C   0  0  0  0  0  2  0  0  0  0  0  0
  189.7120  174.1360  141.9240 C   0  0  1  0  0  3  0  0  0  0  0  0
  189.9560  171.9180  143.0180 C   0  0  0  0  0  2  0  0  0  0  0  0
  188.9900  173.0450  142.7040 C   0  0  0  0  0  3  0  0  0  0  0  0
  189.5960  172.9260  144.0900 C   0  0  0  0  0  2  0  0  0  0  0  0
  189.8140  173.7920  139.5350 O   0  0  0  0  0  1  0  0  0  0  0  0
  190.4940  173.5780  140.7350 C   0  0  0  0  0  2  0  0  0  0  0  0
  190.4070  177.0990  144.8820 C   0  0  0  0  0  2  0  0  0  0  0  0
  191.5770  175.5510  146.3790 C   0  0  0  0  0  2  0  0  0  0  0  0
  191.3120  175.9210  145.1250 C   0  0  0  0  0  0  0  0  0  0  0  0
  194.5770  175.8650  143.5270 O   0  0  0  0  0  1  0  0  0  0  0  0
  193.7010  175.5910  144.5810 C   0  0  2  0  0  3  0  0  0  0  0  0
  193.0130  174.2340  144.4310 C   0  0  2  0  0  3  0  0  0  0  0  0
  193.3880  173.4820  143.1610 C   0  0  0  0  0  1  0  0  0  0  0  0
  192.2790  175.5080  144.0540 C   0  0  1  0  0  3  0  0  0  0  0  0
  2  1  1  0  0  0  0
  3 21  1  6  0  0  0
  3  2  1  0  0  0  0
  4 11  1  0  0  0  0
  4  7  1  0  0  0  0
  5 10  2  0  0  0  0
  5 12  1  0  0  0  0
  6 12  1  1  0  0  0
  6  3  1  0  0  0  0
  7  1  2  0  0  0  0
  8 13  1  6  0  0  0
  8  6  1  0  0  0  0
  8  3  1  0  0  0  0
  9 11  2  0  0  0  0
 10  9  1  0  0  0  0
 12  4  2  0  0  0  0
 14 15  1  0  0  0  0
 14 13  1  0  0  0  0
 15 20  1  6  0  0  0
 15 17  1  0  0  0  0
 16 18  1  0  0  0  0
 17 16  1  0  0  0  0
 17 18  1  0  0  0  0
 19 20  1  0  0  0  0
 21 23  1  0  0  0  0
 23 22  2  0  0  0  0
 25 24  1  6  0  0  0
 26 27  1  6  0  0  0
 26 25  1  0  0  0  0
 28 26  1  0  0  0  0
 28 25  1  0  0  0  0
 28 23  1  1  0  0  0
M  END
>  <MODEL>
8

>  <REMARK>
 VINA RESULT:      -6.0      1.415      1.599
  Name = 
  8 active torsions:
  status: ('A' for Active; 'I' for Inactive)
    1  A    between atoms: C_6  and  C_20
    2  A    between atoms: C_7  and  C_15
    3  A    between atoms: C_7  and  C_27
    4  A    between atoms: C_13  and  C_20
    5  A    between atoms: C_13  and  C_28
    6  A    between atoms: C_14  and  C_16
    7  A    between atoms: C_16  and  C_25
    8  A    between atoms: C_16  and  C_27
                            x       y       z     vdW  Elec       q    Type
                         _______ _______ _______ _____ _____    ______ ____

>  <TORSDO>
F 8

$$$$
=
 OpenBabel11042418273D

 28 32  0  0  1  0  0  0  0  0999 V2000
  188.1110  177.4960  141.6640 C   0  0  0  0  0  3  0  0  0  0  0  0
  189.1990  177.3190  142.6700 C   0  0  0  0  0  2  0  0  0  0  0  0
  188.8960  176.1050  143.5370 C   0  0  2  0  0  0  0  0  0  0  0  0
  186.5290  178.2590  143.3350 C   0  0  0  0  0  0  0  0  0  0  0  0
  186.5240  177.9350  145.7090 N   0  0  0  0  0  0  0  0  0  0  0  0
  187.6310  176.1840  144.3900 C   0  0  1  0  0  3  0  0  0  0  0  0
  186.9310  177.9240  141.9990 N   0  0  0  0  0  0  0  0  0  0  0  0
  189.0090  176.3100  145.0430 C   0  0  1  0  0  3  0  0  0  0  0  0
  185.3410  179.7880  144.7900 C   0  0  0  0  0  3  0  0  0  0  0  0
  185.7630  179.0460  145.8900 C   0  0  0  0  0  3  0  0  0  0  0  0
  185.7240  179.3860  143.5130 C   0  0  0  0  0  3  0  0  0  0  0  0
  186.9260  177.5170  144.4770 C   0  0  0  0  0  0  0  0  0  0  0  0
  189.3160  175.0310  145.8040 C   0  0  0  0  0  2  0  0  0  0  0  0
  189.6220  175.3460  147.2630 C   0  0  0  0  0  2  0  0  0  0  0  0
  191.0770  175.7620  147.5040 C   0  0  1  0  0  3  0  0  0  0  0  0
  193.3330  176.1970  146.5580 C   0  0  0  0  0  2  0  0  0  0  0  0
  191.9290  175.7170  146.2420 C   0  0  0  0  0  3  0  0  0  0  0  0
  193.0530  174.7150  146.4240 C   0  0  0  0  0  2  0  0  0  0  0  0
  190.0820  177.9090  147.9870 O   0  0  0  0  0  1  0  0  0  0  0  0
  191.1910  177.0990  148.2350 C   0  0  0  0  0  2  0  0  0  0  0  0
  189.0840  174.7110  142.9190 C   0  0  0  0  0  2  0  0  0  0  0  0
  190.3680  173.9220  140.9850 C   0  0  0  0  0  2  0  0  0  0  0  0
  190.3720  174.5690  142.1510 C   0  0  0  0  0  0  0  0  0  0  0  0
  193.6440  173.3690  143.1860 O   0  0  0  0  0  1  0  0  0  0  0  0
  192.7170  173.7930  142.2290 C   0  0  2  0  0  3  0  0  0  0  0  0
  192.7500  175.3060  142.0130 C   0  0  2  0  0  3  0  0  0  0  0  0
  193.7470  176.0410  142.9000 C   0  0  0  0  0  1  0  0  0  0  0  0
  191.6760  174.6820  142.8850 C   0  0  1  0  0  3  0  0  0  0  0  0
  1  7  2  0  0  0  0
  1  2  1  0  0  0  0
  2  3  1  0  0  0  0
  3 21  1  6  0  0  0
  3  6  1  0  0  0  0
  3  8  1  0  0  0  0
  4 11  2  0  0  0  0
  4 12  1  0  0  0  0
  5 10  1  0  0  0  0
  6 12  1  6  0  0  0
  6  8  1  0  0  0  0
  7  4  1  0  0  0  0
  8 13  1  1  0  0  0
  9 10  2  0  0  0  0
 11  9  1  0  0  0  0
 12  5  2  0  0  0  0
 13 14  1  0  0  0  0
 15 14  1  6  0  0  0
 15 20  1  0  0  0  0
 17 18  1  0  0  0  0
 17 16  1  0  0  0  0
 17 15  1  0  0  0  0
 18 16  1  0  0  0  0
 19 20  1  0  0  0  0
 22 23  2  0  0  0  0
 23 21  1  0  0  0  0
 25 28  1  0  0  0  0
 25 24  1  1  0  0  0
 26 25  1  0  0  0  0
 26 28  1  0  0  0  0
 26 27  1  1  0  0  0
 28 23  1  6  0  0  0
M  END
>  <MODEL>
9

>  <REMARK>
 VINA RESULT:      -6.0      1.663      4.242
  Name = 
  8 active torsions:
  status: ('A' for Active; 'I' for Inactive)
    1  A    between atoms: C_6  and  C_20
    2  A    between atoms: C_7  and  C_15
    3  A    between atoms: C_7  and  C_27
    4  A    between atoms: C_13  and  C_20
    5  A    between atoms: C_13  and  C_28
    6  A    between atoms: C_14  and  C_16
    7  A    between atoms: C_16  and  C_25
    8  A    between atoms: C_16  and  C_27
                            x       y       z     vdW  Elec       q    Type
                         _______ _______ _______ _____ _____    ______ ____

>  <TORSDO>
F 8

$$$$
