=
 OpenBabel11042416433D

 48 48  0  0  1  0  0  0  0  0999 V2000
  187.9340  177.4630  143.2330 C   0  0  2  0  0  3  0  0  0  0  0  0
  186.0470  178.7760  144.2530 C   0  0  0  0  0  1  0  0  0  0  0  0
  186.4670  177.4260  143.6860 C   0  0  1  0  0  3  0  0  0  0  0  0
  185.6140  177.0530  142.6390 O   0  0  0  0  0  0  0  0  0  0  0  0
  184.5320  177.9290  142.7390 C   0  0  0  0  0  2  0  0  0  0  0  0
  184.1860  178.4970  141.3710 C   0  0  1  0  0  3  0  0  0  0  0  0
  185.1380  177.9260  140.3380 C   0  0  0  0  0  1  0  0  0  0  0  0
  182.5350  177.5580  139.9290 O   0  0  0  0  0  0  0  0  0  0  0  0
  181.7270  178.5120  141.8500 O   0  0  0  0  0  1  0  0  0  0  0  0
  182.7740  178.1770  140.9990 C   0  0  0  0  0  0  0  0  0  0  0  0
  188.1490  176.7110  141.9240 C   0  0  0  0  0  2  0  0  0  0  0  0
  188.2710  175.2190  142.1880 C   0  0  0  0  0  2  0  0  0  0  0  0
  189.6230  174.7030  141.7170 C   0  0  0  0  0  2  0  0  0  0  0  0
  189.5950  173.1920  141.4920 C   0  0  2  0  0  3  0  0  0  0  0  0
  189.6000  172.2280  143.8830 C   0  0  0  0  0  1  0  0  0  0  0  0
  191.4530  172.0690  142.4460 O   0  0  0  0  0  0  0  0  0  0  0  0
  190.3060  172.4650  142.5930 C   0  0  0  0  0  0  0  0  0  0  0  0
  189.5490  171.9250  139.4540 O   0  0  0  0  0  0  0  0  0  0  0  0
  190.1250  172.8140  140.1440 C   0  0  0  0  0  0  0  0  0  0  0  0
  191.3190  173.4390  139.6730 N   0  0  0  0  0  2  0  0  0  0  0  0
  191.9450  173.1020  138.4020 C   0  0  2  0  0  3  0  0  0  0  0  0
  192.8650  171.9010  138.5670 C   0  0  0  0  0  1  0  0  0  0  0  0
  192.7120  174.2770  137.8860 C   0  0  0  0  0  0  0  0  0  0  0  0
  192.2460  174.9820  137.0030 O   0  0  0  0  0  0  0  0  0  0  0  0
  194.0850  174.5460  138.4260 C   0  0  0  0  0  2  0  0  0  0  0  0
  196.2880  175.3530  137.8960 O   0  0  0  0  0  1  0  0  0  0  0  0
  195.1220  174.8240  137.3390 C   0  0  1  0  0  3  0  0  0  0  0  0
  195.4330  173.6040  136.5330 C   0  0  0  0  0  3  0  0  0  0  0  0
  195.9900  172.6530  137.0580 O   0  0  0  0  0  0  0  0  0  0  0  0
  188.9310  177.0100  144.3170 C   0  0  1  0  0  3  0  0  0  0  0  0
  190.0320  178.0350  144.5610 C   0  0  0  0  0  2  0  0  0  0  0  0
  191.1920  177.6960  143.8630 O   0  0  0  0  0  1  0  0  0  0  0  0
  188.3010  176.6590  145.5190 O   0  0  0  0  0  0  0  0  0  0  0  0
  188.6130  175.3150  145.7220 C   0  0  0  0  0  2  0  0  0  0  0  0
  189.2140  175.1470  147.1020 C   0  0  0  0  0  2  0  0  0  0  0  0
  196.0930  176.4330  142.1570 C   0  0  0  0  0  0  0  0  0  0  0  0
  193.5920  175.2580  146.5050 N   0  0  0  0  0  0  0  0  0  0  0  0
  196.2340  176.6860  140.9340 O   0  0  0  0  0  0  0  0  0  0  0  0
  191.3480  174.9440  145.7650 N   0  0  0  0  0  2  0  0  0  0  0  0
  192.7650  174.9600  145.5430 C   0  0  0  0  0  0  0  0  0  0  0  0
  197.1450  176.8940  143.1080 C   0  0  0  0  0  1  0  0  0  0  0  0
  190.6980  175.2050  147.0170 C   0  0  0  0  0  0  0  0  0  0  0  0
  193.2930  174.6190  144.1770 C   0  0  0  0  0  2  0  0  0  0  0  0
  195.0380  175.2230  146.3000 C   0  0  0  0  0  2  0  0  0  0  0  0
  191.3650  175.4680  148.0530 O   0  0  0  0  0  0  0  0  0  0  0  0
  194.5870  175.3460  143.9330 C   0  0  0  0  0  0  0  0  0  0  0  0
  195.3680  175.6360  144.9350 N   0  0  0  0  0  0  0  0  0  0  0  0
  194.9280  175.7200  142.5920 N   0  0  0  0  0  2  0  0  0  0  0  0
  1 11  1  6  0  0  0
  1  3  1  0  0  0  0
  1 30  1  0  0  0  0
  3  2  1  6  0  0  0
  4  5  1  0  0  0  0
  4  3  1  0  0  0  0
  6  7  1  6  0  0  0
  6  5  1  0  0  0  0
  8 10  2  0  0  0  0
 10  6  1  0  0  0  0
 10  9  1  0  0  0  0
 11 12  1  0  0  0  0
 13 12  1  0  0  0  0
 14 13  1  1  0  0  0
 14 17  1  0  0  0  0
 16 17  2  0  0  0  0
 17 15  1  0  0  0  0
 18 19  2  0  0  0  0
 19 14  1  0  0  0  0
 20 19  1  0  0  0  0
 21 22  1  1  0  0  0
 21 20  1  0  0  0  0
 23 21  1  0  0  0  0
 23 25  1  0  0  0  0
 24 23  2  0  0  0  0
 27 26  1  1  0  0  0
 27 25  1  0  0  0  0
 28 29  2  0  0  0  0
 28 27  1  0  0  0  0
 30 31  1  1  0  0  0
 30 33  1  0  0  0  0
 32 31  1  0  0  0  0
 33 34  1  0  0  0  0
 34 35  1  0  0  0  0
 36 48  1  0  0  0  0
 36 41  1  0  0  0  0
 38 36  2  0  0  0  0
 39 42  1  0  0  0  0
 40 39  1  0  0  0  0
 40 37  2  0  0  0  0
 42 35  1  0  0  0  0
 42 45  2  0  0  0  0
 43 40  1  0  0  0  0
 44 37  1  0  0  0  0
 46 43  1  0  0  0  0
 46 47  2  0  0  0  0
 47 44  1  0  0  0  0
 48 46  1  0  0  0  0
M  END
>  <MODEL>
1

>  <REMARK>
 VINA RESULT:      -5.7      0.000      0.000
  Name = 
  22 active torsions:
  status: ('A' for Active; 'I' for Inactive)
    1  A    between atoms: C_2  and  C_31
    2  A    between atoms: C_2  and  C_32
    3  A    between atoms: C_4  and  C_41
    4  A    between atoms: C_4  and  C_44
    5  A    between atoms: O_6  and  C_19
    6  A    between atoms: O_6  and  C_44
    7  A    between atoms: C_8  and  C_15
    8  A    between atoms: C_8  and  C_19
    9  A    between atoms: C_8  and  C_32
   10  A    between atoms: C_9  and  C_17
   11  A    between atoms: C_9  and  C_30
   12  A    between atoms: C_11  and  C_34
   13  A    between atoms: C_15  and  C_16
   14  A    between atoms: C_15  and  O_18
   15  A    between atoms: C_17  and  N_47
   16  A    between atoms: O_18  and  C_37
   17  A    between atoms: C_21  and  C_38
   18  A    between atoms: C_30  and  C_34
   19  A    between atoms: C_31  and  C_38
   20  A    between atoms: C_35  and  C_40
   21  A    between atoms: C_37  and  C_40
   22  A    between atoms: C_38  and  C_46
                            x       y       z     vdW  Elec       q    Type
                         _______ _______ _______ _____ _____    ______ ____

>  <TORSDO>
F 22

$$$$
=
 OpenBabel11042416433D

 48 48  0  0  1  0  0  0  0  0999 V2000
  189.6710  176.4210  144.0830 C   0  0  2  0  0  3  0  0  0  0  0  0
  188.9090  175.2040  146.1480 C   0  0  0  0  0  1  0  0  0  0  0  0
  188.4840  176.1240  145.0110 C   0  0  1  0  0  3  0  0  0  0  0  0
  187.9240  177.3020  145.5250 O   0  0  0  0  0  0  0  0  0  0  0  0
  186.7430  177.4750  144.8010 C   0  0  0  0  0  2  0  0  0  0  0  0
  185.5380  177.3320  145.7170 C   0  0  1  0  0  3  0  0  0  0  0  0
  185.9530  177.6490  147.1410 C   0  0  0  0  0  1  0  0  0  0  0  0
  183.7480  178.8440  146.1620 O   0  0  0  0  0  1  0  0  0  0  0  0
  184.1820  178.4680  143.9430 O   0  0  0  0  0  0  0  0  0  0  0  0
  184.4310  178.2410  145.2910 C   0  0  0  0  0  0  0  0  0  0  0  0
  189.3880  176.0130  142.6410 C   0  0  0  0  0  2  0  0  0  0  0  0
  188.1700  175.1060  142.5800 C   0  0  0  0  0  2  0  0  0  0  0  0
  188.5620  173.7190  142.0920 C   0  0  0  0  0  2  0  0  0  0  0  0
  189.5040  173.7970  140.8920 C   0  0  2  0  0  3  0  0  0  0  0  0
  188.6050  172.3230  138.9760 C   0  0  0  0  0  1  0  0  0  0  0  0
  188.2650  174.6460  139.0570 O   0  0  0  0  0  0  0  0  0  0  0  0
  188.7530  173.6670  139.6010 C   0  0  0  0  0  0  0  0  0  0  0  0
  191.6750  172.9540  140.3100 O   0  0  0  0  0  0  0  0  0  0  0  0
  190.6190  172.8020  140.9880 C   0  0  0  0  0  0  0  0  0  0  0  0
  190.4480  171.6520  141.8170 N   0  0  0  0  0  2  0  0  0  0  0  0
  191.4480  170.6010  141.9360 C   0  0  2  0  0  3  0  0  0  0  0  0
  190.8350  169.2470  141.6070 C   0  0  0  0  0  1  0  0  0  0  0  0
  192.0150  170.5920  143.3190 C   0  0  0  0  0  0  0  0  0  0  0  0
  191.5730  171.3440  144.1750 O   0  0  0  0  0  0  0  0  0  0  0  0
  193.1720  169.6890  143.6280 C   0  0  0  0  0  2  0  0  0  0  0  0
  194.1260  169.0640  145.7450 O   0  0  0  0  0  1  0  0  0  0  0  0
  193.9750  170.1260  144.8510 C   0  0  1  0  0  3  0  0  0  0  0  0
  195.3070  170.6910  144.4770 C   0  0  0  0  0  3  0  0  0  0  0  0
  196.3250  170.2160  144.9540 O   0  0  0  0  0  0  0  0  0  0  0  0
  191.0090  175.8430  144.5820 C   0  0  1  0  0  3  0  0  0  0  0  0
  191.8680  175.2980  143.4470 C   0  0  0  0  0  2  0  0  0  0  0  0
  192.7150  176.2860  142.9440 O   0  0  0  0  0  1  0  0  0  0  0  0
  191.7340  176.7540  145.3630 O   0  0  0  0  0  0  0  0  0  0  0  0
  192.2510  176.0050  146.4210 C   0  0  0  0  0  2  0  0  0  0  0  0
  193.4970  176.6860  146.9490 C   0  0  0  0  0  2  0  0  0  0  0  0
  197.0980  172.7420  140.2470 C   0  0  0  0  0  0  0  0  0  0  0  0
  196.5700  176.4550  143.7800 N   0  0  0  0  0  0  0  0  0  0  0  0
  196.8850  171.6380  139.6880 O   0  0  0  0  0  0  0  0  0  0  0  0
  195.0400  175.4990  145.3380 N   0  0  0  0  0  2  0  0  0  0  0  0
  196.0440  175.3920  144.3190 C   0  0  0  0  0  0  0  0  0  0  0  0
  197.6800  173.8530  139.4400 C   0  0  0  0  0  1  0  0  0  0  0  0
  194.5390  176.7250  145.8880 C   0  0  0  0  0  0  0  0  0  0  0  0
  196.4940  174.0260  143.8800 C   0  0  0  0  0  2  0  0  0  0  0  0
  197.6320  176.3530  142.7820 C   0  0  0  0  0  2  0  0  0  0  0  0
  194.9800  177.8400  145.4980 O   0  0  0  0  0  0  0  0  0  0  0  0
  196.9310  174.0690  142.4420 C   0  0  0  0  0  0  0  0  0  0  0  0
  197.4330  175.1660  141.9490 N   0  0  0  0  0  0  0  0  0  0  0  0
  196.7690  172.8960  141.6350 N   0  0  0  0  0  2  0  0  0  0  0  0
  1 11  1  6  0  0  0
  1 30  1  0  0  0  0
  1  3  1  0  0  0  0
  3  4  1  0  0  0  0
  3  2  1  1  0  0  0
  5  4  1  0  0  0  0
  5  6  1  0  0  0  0
  6  7  1  1  0  0  0
  9 10  2  0  0  0  0
 10  6  1  0  0  0  0
 10  8  1  0  0  0  0
 12 11  1  0  0  0  0
 13 12  1  0  0  0  0
 14 19  1  0  0  0  0
 14 13  1  1  0  0  0
 15 17  1  0  0  0  0
 16 17  2  0  0  0  0
 17 14  1  0  0  0  0
 18 19  2  0  0  0  0
 19 20  1  0  0  0  0
 20 21  1  0  0  0  0
 21 22  1  1  0  0  0
 21 23  1  0  0  0  0
 23 25  1  0  0  0  0
 23 24  2  0  0  0  0
 25 27  1  0  0  0  0
 27 26  1  1  0  0  0
 28 27  1  0  0  0  0
 28 29  2  0  0  0  0
 30 31  1  6  0  0  0
 30 33  1  0  0  0  0
 32 31  1  0  0  0  0
 33 34  1  0  0  0  0
 34 35  1  0  0  0  0
 36 48  1  0  0  0  0
 37 40  2  0  0  0  0
 38 36  2  0  0  0  0
 39 42  1  0  0  0  0
 40 39  1  0  0  0  0
 41 36  1  0  0  0  0
 42 35  1  0  0  0  0
 43 40  1  0  0  0  0
 44 37  1  0  0  0  0
 45 42  2  0  0  0  0
 46 43  1  0  0  0  0
 47 46  2  0  0  0  0
 47 44  1  0  0  0  0
 48 46  1  0  0  0  0
M  END
>  <MODEL>
2

>  <REMARK>
 VINA RESULT:      -5.6      2.683      4.804
  Name = 
  22 active torsions:
  status: ('A' for Active; 'I' for Inactive)
    1  A    between atoms: C_2  and  C_31
    2  A    between atoms: C_2  and  C_32
    3  A    between atoms: C_4  and  C_41
    4  A    between atoms: C_4  and  C_44
    5  A    between atoms: O_6  and  C_19
    6  A    between atoms: O_6  and  C_44
    7  A    between atoms: C_8  and  C_15
    8  A    between atoms: C_8  and  C_19
    9  A    between atoms: C_8  and  C_32
   10  A    between atoms: C_9  and  C_17
   11  A    between atoms: C_9  and  C_30
   12  A    between atoms: C_11  and  C_34
   13  A    between atoms: C_15  and  C_16
   14  A    between atoms: C_15  and  O_18
   15  A    between atoms: C_17  and  N_47
   16  A    between atoms: O_18  and  C_37
   17  A    between atoms: C_21  and  C_38
   18  A    between atoms: C_30  and  C_34
   19  A    between atoms: C_31  and  C_38
   20  A    between atoms: C_35  and  C_40
   21  A    between atoms: C_37  and  C_40
   22  A    between atoms: C_38  and  C_46
                            x       y       z     vdW  Elec       q    Type
                         _______ _______ _______ _____ _____    ______ ____

>  <TORSDO>
F 22

$$$$
=
 OpenBabel11042416433D

 48 48  0  0  1  0  0  0  0  0999 V2000
  187.6260  177.3050  142.5090 C   0  0  2  0  0  3  0  0  0  0  0  0
  185.1260  177.4570  142.7380 C   0  0  0  0  0  1  0  0  0  0  0  0
  186.4530  178.1390  143.0440 C   0  0  1  0  0  3  0  0  0  0  0  0
  186.5710  178.3710  144.4210 O   0  0  0  0  0  0  0  0  0  0  0  0
  186.4860  177.1040  144.9990 C   0  0  0  0  0  2  0  0  0  0  0  0
  185.6120  177.1490  146.2430 C   0  0  1  0  0  3  0  0  0  0  0  0
  186.4320  176.7240  147.4450 C   0  0  0  0  0  1  0  0  0  0  0  0
  183.9430  178.8290  145.9630 O   0  0  0  0  0  0  0  0  0  0  0  0
  185.7390  179.4410  147.2480 O   0  0  0  0  0  1  0  0  0  0  0  0
  185.0590  178.5210  146.4600 C   0  0  0  0  0  0  0  0  0  0  0  0
  188.8880  178.1420  142.3250 C   0  0  0  0  0  2  0  0  0  0  0  0
  189.8500  177.9030  143.4770 C   0  0  0  0  0  2  0  0  0  0  0  0
  190.9920  176.9970  143.0390 C   0  0  0  0  0  2  0  0  0  0  0  0
  190.9420  175.6500  143.7580 C   0  0  2  0  0  3  0  0  0  0  0  0
  192.1110  176.5450  145.8750 C   0  0  0  0  0  1  0  0  0  0  0  0
  190.0660  175.3900  145.9460 O   0  0  0  0  0  0  0  0  0  0  0  0
  190.9670  175.8270  145.2460 C   0  0  0  0  0  0  0  0  0  0  0  0
  192.4680  174.8010  142.1120 O   0  0  0  0  0  0  0  0  0  0  0  0
  192.0210  174.7230  143.2910 C   0  0  0  0  0  0  0  0  0  0  0  0
  192.4990  173.7160  144.1830 N   0  0  0  0  0  2  0  0  0  0  0  0
  193.5050  172.7330  143.8080 C   0  0  2  0  0  3  0  0  0  0  0  0
  193.1960  171.3880  144.4500 C   0  0  0  0  0  1  0  0  0  0  0  0
  194.8600  173.2080  144.2250 C   0  0  0  0  0  0  0  0  0  0  0  0
  195.1800  173.2120  145.4040 O   0  0  0  0  0  0  0  0  0  0  0  0
  195.8010  173.7330  143.1820 C   0  0  0  0  0  2  0  0  0  0  0  0
  196.9090  175.7770  143.7960 O   0  0  0  0  0  1  0  0  0  0  0  0
  195.8210  175.2570  143.0920 C   0  0  1  0  0  3  0  0  0  0  0  0
  195.8340  175.7370  141.6770 C   0  0  0  0  0  3  0  0  0  0  0  0
  196.0050  176.9220  141.4370 O   0  0  0  0  0  0  0  0  0  0  0  0
  187.2890  176.5030  141.2370 C   0  0  1  0  0  3  0  0  0  0  0  0
  187.0490  177.4000  140.0280 C   0  0  0  0  0  2  0  0  0  0  0  0
  186.6910  176.6450  138.9110 O   0  0  0  0  0  1  0  0  0  0  0  0
  188.2470  175.5220  140.9470 O   0  0  0  0  0  0  0  0  0  0  0  0
  188.1500  174.5930  141.9840 C   0  0  0  0  0  2  0  0  0  0  0  0
  187.9650  173.2090  141.3960 C   0  0  0  0  0  2  0  0  0  0  0  0
  196.1330  173.3410  138.8050 C   0  0  0  0  0  0  0  0  0  0  0  0
  191.9310  171.3010  140.9800 N   0  0  0  0  0  0  0  0  0  0  0  0
  196.8090  174.1720  138.1490 O   0  0  0  0  0  0  0  0  0  0  0  0
  190.1960  172.7830  140.2890 N   0  0  0  0  0  2  0  0  0  0  0  0
  191.4830  172.1730  140.1210 C   0  0  0  0  0  0  0  0  0  0  0  0
  196.8360  172.4500  139.7710 C   0  0  0  0  0  1  0  0  0  0  0  0
  189.2730  172.5010  141.3500 C   0  0  0  0  0  0  0  0  0  0  0  0
  192.3160  172.5460  138.9250 C   0  0  0  0  0  2  0  0  0  0  0  0
  193.2160  170.6350  140.7840 C   0  0  0  0  0  2  0  0  0  0  0  0
  189.5450  171.6490  142.2380 O   0  0  0  0  0  0  0  0  0  0  0  0
  193.7770  172.4200  139.2610 C   0  0  0  0  0  0  0  0  0  0  0  0
  194.1670  171.5450  140.1440 N   0  0  0  0  0  0  0  0  0  0  0  0
  194.7130  173.2870  138.6080 N   0  0  0  0  0  2  0  0  0  0  0  0
  1 11  1  6  0  0  0
  1  3  1  0  0  0  0
  3  2  1  1  0  0  0
  3  4  1  0  0  0  0
  4  5  1  0  0  0  0
  5  6  1  0  0  0  0
  6 10  1  0  0  0  0
  6  7  1  1  0  0  0
  8 10  2  0  0  0  0
 10  9  1  0  0  0  0
 11 12  1  0  0  0  0
 13 12  1  0  0  0  0
 14 13  1  6  0  0  0
 14 17  1  0  0  0  0
 17 15  1  0  0  0  0
 17 16  2  0  0  0  0
 18 19  2  0  0  0  0
 19 14  1  0  0  0  0
 19 20  1  0  0  0  0
 21 20  1  0  0  0  0
 21 23  1  0  0  0  0
 21 22  1  1  0  0  0
 23 24  2  0  0  0  0
 25 23  1  0  0  0  0
 27 25  1  0  0  0  0
 27 26  1  1  0  0  0
 28 27  1  0  0  0  0
 29 28  2  0  0  0  0
 30 31  1  6  0  0  0
 30  1  1  0  0  0  0
 32 31  1  0  0  0  0
 33 30  1  0  0  0  0
 33 34  1  0  0  0  0
 35 34  1  0  0  0  0
 36 41  1  0  0  0  0
 38 36  2  0  0  0  0
 39 42  1  0  0  0  0
 40 39  1  0  0  0  0
 40 37  2  0  0  0  0
 42 35  1  0  0  0  0
 42 45  2  0  0  0  0
 43 46  1  0  0  0  0
 43 40  1  0  0  0  0
 44 37  1  0  0  0  0
 46 47  2  0  0  0  0
 47 44  1  0  0  0  0
 48 36  1  0  0  0  0
 48 46  1  0  0  0  0
M  END
>  <MODEL>
3

>  <REMARK>
 VINA RESULT:      -5.6      2.390      5.367
  Name = 
  22 active torsions:
  status: ('A' for Active; 'I' for Inactive)
    1  A    between atoms: C_2  and  C_31
    2  A    between atoms: C_2  and  C_32
    3  A    between atoms: C_4  and  C_41
    4  A    between atoms: C_4  and  C_44
    5  A    between atoms: O_6  and  C_19
    6  A    between atoms: O_6  and  C_44
    7  A    between atoms: C_8  and  C_15
    8  A    between atoms: C_8  and  C_19
    9  A    between atoms: C_8  and  C_32
   10  A    between atoms: C_9  and  C_17
   11  A    between atoms: C_9  and  C_30
   12  A    between atoms: C_11  and  C_34
   13  A    between atoms: C_15  and  C_16
   14  A    between atoms: C_15  and  O_18
   15  A    between atoms: C_17  and  N_47
   16  A    between atoms: O_18  and  C_37
   17  A    between atoms: C_21  and  C_38
   18  A    between atoms: C_30  and  C_34
   19  A    between atoms: C_31  and  C_38
   20  A    between atoms: C_35  and  C_40
   21  A    between atoms: C_37  and  C_40
   22  A    between atoms: C_38  and  C_46
                            x       y       z     vdW  Elec       q    Type
                         _______ _______ _______ _____ _____    ______ ____

>  <TORSDO>
F 22

$$$$
=
 OpenBabel11042416433D

 48 48  0  0  1  0  0  0  0  0999 V2000
  192.5570  174.8310  144.8570 C   0  0  2  0  0  3  0  0  0  0  0  0
  192.6690  175.4180  142.4140 C   0  0  0  0  0  1  0  0  0  0  0  0
  191.7490  175.2310  143.6140 C   0  0  1  0  0  3  0  0  0  0  0  0
  190.7550  174.2890  143.3190 O   0  0  0  0  0  0  0  0  0  0  0  0
  190.2660  174.6720  142.0700 C   0  0  0  0  0  2  0  0  0  0  0  0
  189.8370  173.4500  141.2730 C   0  0  1  0  0  3  0  0  0  0  0  0
  189.0750  172.5050  142.1820 C   0  0  0  0  0  1  0  0  0  0  0  0
  188.9120  173.0830  139.1060 O   0  0  0  0  0  0  0  0  0  0  0  0
  188.2310  175.0070  140.1460 O   0  0  0  0  0  1  0  0  0  0  0  0
  188.9850  173.8410  140.1090 C   0  0  0  0  0  0  0  0  0  0  0  0
  192.3250  173.3750  145.2470 C   0  0  0  0  0  2  0  0  0  0  0  0
  193.3820  172.4850  144.6150 C   0  0  0  0  0  2  0  0  0  0  0  0
  194.7730  172.9060  145.0670 C   0  0  0  0  0  2  0  0  0  0  0  0
  195.8450  172.4240  144.0920 C   0  0  2  0  0  3  0  0  0  0  0  0
  196.4960  170.9830  146.1290 C   0  0  0  0  0  1  0  0  0  0  0  0
  197.4650  170.6930  144.0080 O   0  0  0  0  0  0  0  0  0  0  0  0
  196.6640  171.3180  144.6870 C   0  0  0  0  0  0  0  0  0  0  0  0
  197.7930  173.8220  144.1770 O   0  0  0  0  0  0  0  0  0  0  0  0
  196.7030  173.5470  143.6000 C   0  0  0  0  0  0  0  0  0  0  0  0
  196.2450  174.3350  142.5000 N   0  0  0  0  0  2  0  0  0  0  0  0
  196.9770  175.4810  141.9830 C   0  0  2  0  0  3  0  0  0  0  0  0
  196.3770  176.7760  142.5110 C   0  0  0  0  0  1  0  0  0  0  0  0
  196.9510  175.4680  140.4880 C   0  0  0  0  0  0  0  0  0  0  0  0
  197.9410  175.7900  139.8480 O   0  0  0  0  0  0  0  0  0  0  0  0
  195.6770  175.1100  139.7830 C   0  0  0  0  0  2  0  0  0  0  0  0
  195.6200  172.7060  139.7190 O   0  0  0  0  0  1  0  0  0  0  0  0
  195.7880  173.8470  138.9320 C   0  0  1  0  0  3  0  0  0  0  0  0
  194.8150  173.8470  137.7970 C   0  0  0  0  0  3  0  0  0  0  0  0
  194.8920  174.7010  136.9280 O   0  0  0  0  0  0  0  0  0  0  0  0
  192.3600  175.7770  146.0570 C   0  0  1  0  0  3  0  0  0  0  0  0
  193.6360  176.5240  146.4260 C   0  0  0  0  0  2  0  0  0  0  0  0
  194.6770  176.1920  145.5580 O   0  0  0  0  0  1  0  0  0  0  0  0
  191.2950  176.6700  145.8730 O   0  0  0  0  0  0  0  0  0  0  0  0
  190.4390  176.4530  146.9540 C   0  0  0  0  0  2  0  0  0  0  0  0
  189.3020  175.5520  146.5150 C   0  0  0  0  0  2  0  0  0  0  0  0
  183.2290  178.1280  141.0460 C   0  0  0  0  0  0  0  0  0  0  0  0
  185.7220  177.9580  145.5520 N   0  0  0  0  0  0  0  0  0  0  0  0
  183.0290  177.9120  139.8250 O   0  0  0  0  0  0  0  0  0  0  0  0
  187.7600  176.8550  144.9950 N   0  0  0  0  0  2  0  0  0  0  0  0
  186.6140  177.6470  144.6550 C   0  0  0  0  0  0  0  0  0  0  0  0
  182.0600  178.4370  141.9180 C   0  0  0  0  0  1  0  0  0  0  0  0
  188.0710  176.3600  146.3060 C   0  0  0  0  0  0  0  0  0  0  0  0
  186.4550  178.1270  143.2380 C   0  0  0  0  0  2  0  0  0  0  0  0
  184.5820  178.8110  145.2230 C   0  0  0  0  0  2  0  0  0  0  0  0
  187.3240  176.6120  147.2890 O   0  0  0  0  0  0  0  0  0  0  0  0
  184.9940  178.2700  142.9090 C   0  0  0  0  0  0  0  0  0  0  0  0
  184.1420  178.5630  143.8490 N   0  0  0  0  0  0  0  0  0  0  0  0
  184.5680  178.0620  141.5560 N   0  0  0  0  0  2  0  0  0  0  0  0
  1 11  1  1  0  0  0
  1 30  1  0  0  0  0
  3  2  1  6  0  0  0
  3  1  1  0  0  0  0
  4  3  1  0  0  0  0
  5  4  1  0  0  0  0
  6  5  1  0  0  0  0
  6  7  1  1  0  0  0
  8 10  2  0  0  0  0
 10  9  1  0  0  0  0
 10  6  1  0  0  0  0
 12 13  1  0  0  0  0
 12 11  1  0  0  0  0
 14 17  1  0  0  0  0
 14 13  1  1  0  0  0
 16 17  2  0  0  0  0
 17 15  1  0  0  0  0
 19 14  1  0  0  0  0
 19 18  2  0  0  0  0
 20 19  1  0  0  0  0
 21 20  1  0  0  0  0
 21 22  1  1  0  0  0
 23 21  1  0  0  0  0
 24 23  2  0  0  0  0
 25 23  1  0  0  0  0
 27 26  1  1  0  0  0
 27 25  1  0  0  0  0
 28 27  1  0  0  0  0
 29 28  2  0  0  0  0
 30 31  1  6  0  0  0
 32 31  1  0  0  0  0
 33 30  1  0  0  0  0
 33 34  1  0  0  0  0
 35 34  1  0  0  0  0
 36 48  1  0  0  0  0
 36 41  1  0  0  0  0
 38 36  2  0  0  0  0
 39 42  1  0  0  0  0
 40 39  1  0  0  0  0
 40 37  2  0  0  0  0
 42 35  1  0  0  0  0
 42 45  2  0  0  0  0
 43 40  1  0  0  0  0
 44 37  1  0  0  0  0
 46 43  1  0  0  0  0
 46 47  2  0  0  0  0
 47 44  1  0  0  0  0
 48 46  1  0  0  0  0
M  END
>  <MODEL>
4

>  <REMARK>
 VINA RESULT:      -5.5      3.028      7.222
  Name = 
  22 active torsions:
  status: ('A' for Active; 'I' for Inactive)
    1  A    between atoms: C_2  and  C_31
    2  A    between atoms: C_2  and  C_32
    3  A    between atoms: C_4  and  C_41
    4  A    between atoms: C_4  and  C_44
    5  A    between atoms: O_6  and  C_19
    6  A    between atoms: O_6  and  C_44
    7  A    between atoms: C_8  and  C_15
    8  A    between atoms: C_8  and  C_19
    9  A    between atoms: C_8  and  C_32
   10  A    between atoms: C_9  and  C_17
   11  A    between atoms: C_9  and  C_30
   12  A    between atoms: C_11  and  C_34
   13  A    between atoms: C_15  and  C_16
   14  A    between atoms: C_15  and  O_18
   15  A    between atoms: C_17  and  N_47
   16  A    between atoms: O_18  and  C_37
   17  A    between atoms: C_21  and  C_38
   18  A    between atoms: C_30  and  C_34
   19  A    between atoms: C_31  and  C_38
   20  A    between atoms: C_35  and  C_40
   21  A    between atoms: C_37  and  C_40
   22  A    between atoms: C_38  and  C_46
                            x       y       z     vdW  Elec       q    Type
                         _______ _______ _______ _____ _____    ______ ____

>  <TORSDO>
F 22

$$$$
=
 OpenBabel11042416433D

 48 48  0  0  1  0  0  0  0  0999 V2000
  188.5420  175.6050  143.0040 C   0  0  2  0  0  3  0  0  0  0  0  0
  186.2040  176.4770  142.6900 C   0  0  0  0  0  1  0  0  0  0  0  0
  187.4800  176.5890  143.5160 C   0  0  1  0  0  3  0  0  0  0  0  0
  187.1980  176.3830  144.8730 O   0  0  0  0  0  0  0  0  0  0  0  0
  186.0100  177.0820  145.0940 C   0  0  0  0  0  2  0  0  0  0  0  0
  186.3060  178.4550  145.6750 C   0  0  1  0  0  3  0  0  0  0  0  0
  185.5980  179.5110  144.8480 C   0  0  0  0  0  1  0  0  0  0  0  0
  186.7250  178.6750  148.0130 O   0  0  0  0  0  1  0  0  0  0  0  0
  184.5150  178.5280  147.4250 O   0  0  0  0  0  0  0  0  0  0  0  0
  185.8660  178.5410  147.1010 C   0  0  0  0  0  0  0  0  0  0  0  0
  189.7960  176.3210  142.5110 C   0  0  0  0  0  2  0  0  0  0  0  0
  190.3230  177.2590  143.5840 C   0  0  0  0  0  2  0  0  0  0  0  0
  191.6140  176.7160  144.1810 C   0  0  0  0  0  2  0  0  0  0  0  0
  191.3470  175.5070  145.0760 C   0  0  2  0  0  3  0  0  0  0  0  0
  189.7090  175.4850  147.0670 C   0  0  0  0  0  1  0  0  0  0  0  0
  191.7570  176.6340  147.1220 O   0  0  0  0  0  0  0  0  0  0  0  0
  191.0000  175.9300  146.4710 C   0  0  0  0  0  0  0  0  0  0  0  0
  192.3170  173.3450  145.4550 O   0  0  0  0  0  0  0  0  0  0  0  0
  192.4840  174.5330  145.0580 C   0  0  0  0  0  0  0  0  0  0  0  0
  193.7710  174.9830  144.6330 N   0  0  0  0  0  2  0  0  0  0  0  0
  194.9500  174.1300  144.6310 C   0  0  2  0  0  3  0  0  0  0  0  0
  195.8840  174.5150  145.7700 C   0  0  0  0  0  1  0  0  0  0  0  0
  195.6580  174.2440  143.3180 C   0  0  0  0  0  0  0  0  0  0  0  0
  196.0700  173.2460  142.7470 O   0  0  0  0  0  0  0  0  0  0  0  0
  195.9060  175.6060  142.7390 C   0  0  0  0  0  2  0  0  0  0  0  0
  194.7570  176.7610  140.9700 O   0  0  0  0  0  1  0  0  0  0  0  0
  195.6130  175.6920  141.2430 C   0  0  1  0  0  3  0  0  0  0  0  0
  196.8630  175.8010  140.4310 C   0  0  0  0  0  3  0  0  0  0  0  0
  197.3990  174.7930  139.9980 O   0  0  0  0  0  0  0  0  0  0  0  0
  188.0120  174.6060  141.9580 C   0  0  1  0  0  3  0  0  0  0  0  0
  188.6420  174.8110  140.5850 C   0  0  0  0  0  2  0  0  0  0  0  0
  188.3350  173.7490  139.7330 O   0  0  0  0  0  1  0  0  0  0  0  0
  188.1380  173.2730  142.3710 O   0  0  0  0  0  0  0  0  0  0  0  0
  189.2820  173.2390  143.1700 C   0  0  0  0  0  2  0  0  0  0  0  0
  189.9130  171.8650  143.0770 C   0  0  0  0  0  2  0  0  0  0  0  0
  194.0820  175.6170  136.5980 C   0  0  0  0  0  0  0  0  0  0  0  0
  193.4240  172.2200  140.4150 N   0  0  0  0  0  0  0  0  0  0  0  0
  193.7640  176.5180  135.7830 O   0  0  0  0  0  0  0  0  0  0  0  0
  191.1030  172.4220  140.9180 N   0  0  0  0  0  2  0  0  0  0  0  0
  192.2210  172.5370  140.0280 C   0  0  0  0  0  0  0  0  0  0  0  0
  195.5230  175.4360  136.9390 C   0  0  0  0  0  1  0  0  0  0  0  0
  191.1580  171.9360  142.2670 C   0  0  0  0  0  0  0  0  0  0  0  0
  191.9880  173.0250  138.6240 C   0  0  0  0  0  2  0  0  0  0  0  0
  194.5580  172.2820  139.4960 C   0  0  0  0  0  2  0  0  0  0  0  0
  192.2460  171.5500  142.7740 O   0  0  0  0  0  0  0  0  0  0  0  0
  193.2130  173.7390  138.1220 C   0  0  0  0  0  0  0  0  0  0  0  0
  194.3900  173.3930  138.5580 N   0  0  0  0  0  0  0  0  0  0  0  0
  193.0520  174.8040  137.1760 N   0  0  0  0  0  2  0  0  0  0  0  0
  1 11  1  6  0  0  0
  1  3  1  0  0  0  0
  3  2  1  6  0  0  0
  3  4  1  0  0  0  0
  4  5  1  0  0  0  0
  5  6  1  0  0  0  0
  6  7  1  6  0  0  0
  6 10  1  0  0  0  0
 10  9  2  0  0  0  0
 10  8  1  0  0  0  0
 11 12  1  0  0  0  0
 12 13  1  0  0  0  0
 14 13  1  6  0  0  0
 14 17  1  0  0  0  0
 17 15  1  0  0  0  0
 17 16  2  0  0  0  0
 19 14  1  0  0  0  0
 19 18  2  0  0  0  0
 20 19  1  0  0  0  0
 21 20  1  0  0  0  0
 21 22  1  1  0  0  0
 23 21  1  0  0  0  0
 24 23  2  0  0  0  0
 25 23  1  0  0  0  0
 27 26  1  1  0  0  0
 27 25  1  0  0  0  0
 28 27  1  0  0  0  0
 29 28  2  0  0  0  0
 30 31  1  6  0  0  0
 30 33  1  0  0  0  0
 30  1  1  0  0  0  0
 32 31  1  0  0  0  0
 33 34  1  0  0  0  0
 35 34  1  0  0  0  0
 36 41  1  0  0  0  0
 36 48  1  0  0  0  0
 38 36  2  0  0  0  0
 39 42  1  0  0  0  0
 40 37  2  0  0  0  0
 40 39  1  0  0  0  0
 42 45  2  0  0  0  0
 42 35  1  0  0  0  0
 43 40  1  0  0  0  0
 44 37  1  0  0  0  0
 46 47  2  0  0  0  0
 46 43  1  0  0  0  0
 47 44  1  0  0  0  0
 48 46  1  0  0  0  0
M  END
>  <MODEL>
5

>  <REMARK>
 VINA RESULT:      -5.5      2.303      5.486
  Name = 
  22 active torsions:
  status: ('A' for Active; 'I' for Inactive)
    1  A    between atoms: C_2  and  C_31
    2  A    between atoms: C_2  and  C_32
    3  A    between atoms: C_4  and  C_41
    4  A    between atoms: C_4  and  C_44
    5  A    between atoms: O_6  and  C_19
    6  A    between atoms: O_6  and  C_44
    7  A    between atoms: C_8  and  C_15
    8  A    between atoms: C_8  and  C_19
    9  A    between atoms: C_8  and  C_32
   10  A    between atoms: C_9  and  C_17
   11  A    between atoms: C_9  and  C_30
   12  A    between atoms: C_11  and  C_34
   13  A    between atoms: C_15  and  C_16
   14  A    between atoms: C_15  and  O_18
   15  A    between atoms: C_17  and  N_47
   16  A    between atoms: O_18  and  C_37
   17  A    between atoms: C_21  and  C_38
   18  A    between atoms: C_30  and  C_34
   19  A    between atoms: C_31  and  C_38
   20  A    between atoms: C_35  and  C_40
   21  A    between atoms: C_37  and  C_40
   22  A    between atoms: C_38  and  C_46
                            x       y       z     vdW  Elec       q    Type
                         _______ _______ _______ _____ _____    ______ ____

>  <TORSDO>
F 22

$$$$
=
 OpenBabel11042416433D

 48 48  0  0  1  0  0  0  0  0999 V2000
  193.5510  175.7740  143.5970 C   0  0  2  0  0  3  0  0  0  0  0  0
  194.4910  176.7340  145.7230 C   0  0  0  0  0  1  0  0  0  0  0  0
  194.8090  176.3110  144.2940 C   0  0  1  0  0  3  0  0  0  0  0  0
  195.8440  175.3660  144.2890 O   0  0  0  0  0  0  0  0  0  0  0  0
  195.5770  174.5470  145.3880 C   0  0  0  0  0  2  0  0  0  0  0  0
  195.9070  173.0990  145.0580 C   0  0  1  0  0  3  0  0  0  0  0  0
  196.9320  172.5830  146.0500 C   0  0  0  0  0  1  0  0  0  0  0  0
  194.7620  171.0210  144.8190 O   0  0  0  0  0  0  0  0  0  0  0  0
  193.4600  172.7830  145.4910 O   0  0  0  0  0  1  0  0  0  0  0  0
  194.6800  172.2470  145.0980 C   0  0  0  0  0  0  0  0  0  0  0  0
  193.5460  176.0870  142.1040 C   0  0  0  0  0  2  0  0  0  0  0  0
  194.9510  176.4180  141.6300 C   0  0  0  0  0  2  0  0  0  0  0  0
  195.3340  175.5450  140.4440 C   0  0  0  0  0  2  0  0  0  0  0  0
  195.1090  174.0640  140.7460 C   0  0  2  0  0  3  0  0  0  0  0  0
  196.4320  172.0210  141.5990 C   0  0  0  0  0  1  0  0  0  0  0  0
  197.4510  173.8100  140.4650 O   0  0  0  0  0  0  0  0  0  0  0  0
  196.4110  173.3370  140.9010 C   0  0  0  0  0  0  0  0  0  0  0  0
  194.7190  172.8910  138.6900 O   0  0  0  0  0  0  0  0  0  0  0  0
  194.2250  173.4110  139.7310 C   0  0  0  0  0  0  0  0  0  0  0  0
  192.8110  173.4300  139.9320 N   0  0  0  0  0  2  0  0  0  0  0  0
  191.8640  172.8720  138.9790 C   0  0  2  0  0  3  0  0  0  0  0  0
  191.7000  173.8050  137.7880 C   0  0  0  0  0  1  0  0  0  0  0  0
  190.5460  172.6440  139.6460 C   0  0  0  0  0  0  0  0  0  0  0  0
  189.5060  172.9550  139.0850 O   0  0  0  0  0  0  0  0  0  0  0  0
  190.5190  172.0810  141.0360 C   0  0  0  0  0  2  0  0  0  0  0  0
  190.1360  174.3900  141.5890 O   0  0  0  0  0  1  0  0  0  0  0  0
  190.0670  173.0890  142.0910 C   0  0  1  0  0  3  0  0  0  0  0  0
  188.6920  172.7950  142.5970 C   0  0  0  0  0  3  0  0  0  0  0  0
  187.7530  172.7490  141.8190 O   0  0  0  0  0  0  0  0  0  0  0  0
  192.2350  176.2070  144.2700 C   0  0  1  0  0  3  0  0  0  0  0  0
  191.4010  177.1260  143.3840 C   0  0  0  0  0  2  0  0  0  0  0  0
  191.4880  178.4500  143.8180 O   0  0  0  0  0  1  0  0  0  0  0  0
  191.4730  175.1190  144.7170 O   0  0  0  0  0  0  0  0  0  0  0  0
  190.9600  175.5090  145.9540 C   0  0  0  0  0  2  0  0  0  0  0  0
  189.6880  174.7340  146.2320 C   0  0  0  0  0  2  0  0  0  0  0  0
  183.6270  178.1200  141.2090 C   0  0  0  0  0  0  0  0  0  0  0  0
  186.2610  177.4490  145.5860 N   0  0  0  0  0  0  0  0  0  0  0  0
  183.3690  178.0070  139.9850 O   0  0  0  0  0  0  0  0  0  0  0  0
  188.1920  176.2480  144.8710 N   0  0  0  0  0  2  0  0  0  0  0  0
  187.0950  177.1420  144.6340 C   0  0  0  0  0  0  0  0  0  0  0  0
  182.5160  178.4460  142.1480 C   0  0  0  0  0  1  0  0  0  0  0  0
  188.5130  175.6390  146.1300 C   0  0  0  0  0  0  0  0  0  0  0  0
  186.9210  177.7330  143.2620 C   0  0  0  0  0  2  0  0  0  0  0  0
  185.1750  178.4010  145.3650 C   0  0  0  0  0  2  0  0  0  0  0  0
  187.8220  175.8720  147.1590 O   0  0  0  0  0  0  0  0  0  0  0  0
  185.4640  178.0020  143.0030 C   0  0  0  0  0  0  0  0  0  0  0  0
  184.6700  178.2860  143.9960 N   0  0  0  0  0  0  0  0  0  0  0  0
  184.9750  177.9230  141.6580 N   0  0  0  0  0  2  0  0  0  0  0  0
  1 11  1  6  0  0  0
  1 30  1  0  0  0  0
  1  3  1  0  0  0  0
  3  2  1  1  0  0  0
  4  3  1  0  0  0  0
  4  5  1  0  0  0  0
  6 10  1  0  0  0  0
  6  5  1  0  0  0  0
  6  7  1  1  0  0  0
  8 10  2  0  0  0  0
 10  9  1  0  0  0  0
 12 11  1  0  0  0  0
 13 12  1  0  0  0  0
 14 13  1  6  0  0  0
 14 17  1  0  0  0  0
 16 17  2  0  0  0  0
 17 15  1  0  0  0  0
 18 19  2  0  0  0  0
 19 20  1  0  0  0  0
 19 14  1  0  0  0  0
 21 22  1  6  0  0  0
 21 23  1  0  0  0  0
 21 20  1  0  0  0  0
 23 25  1  0  0  0  0
 24 23  2  0  0  0  0
 25 27  1  0  0  0  0
 27 26  1  6  0  0  0
 27 28  1  0  0  0  0
 29 28  2  0  0  0  0
 30 31  1  6  0  0  0
 30 33  1  0  0  0  0
 31 32  1  0  0  0  0
 33 34  1  0  0  0  0
 34 35  1  0  0  0  0
 36 48  1  0  0  0  0
 36 41  1  0  0  0  0
 38 36  2  0  0  0  0
 39 42  1  0  0  0  0
 40 39  1  0  0  0  0
 40 37  2  0  0  0  0
 42 35  1  0  0  0  0
 42 45  2  0  0  0  0
 43 40  1  0  0  0  0
 44 37  1  0  0  0  0
 46 43  1  0  0  0  0
 46 47  2  0  0  0  0
 47 44  1  0  0  0  0
 48 46  1  0  0  0  0
M  END
>  <MODEL>
6

>  <REMARK>
 VINA RESULT:      -5.4      2.768      8.237
  Name = 
  22 active torsions:
  status: ('A' for Active; 'I' for Inactive)
    1  A    between atoms: C_2  and  C_31
    2  A    between atoms: C_2  and  C_32
    3  A    between atoms: C_4  and  C_41
    4  A    between atoms: C_4  and  C_44
    5  A    between atoms: O_6  and  C_19
    6  A    between atoms: O_6  and  C_44
    7  A    between atoms: C_8  and  C_15
    8  A    between atoms: C_8  and  C_19
    9  A    between atoms: C_8  and  C_32
   10  A    between atoms: C_9  and  C_17
   11  A    between atoms: C_9  and  C_30
   12  A    between atoms: C_11  and  C_34
   13  A    between atoms: C_15  and  C_16
   14  A    between atoms: C_15  and  O_18
   15  A    between atoms: C_17  and  N_47
   16  A    between atoms: O_18  and  C_37
   17  A    between atoms: C_21  and  C_38
   18  A    between atoms: C_30  and  C_34
   19  A    between atoms: C_31  and  C_38
   20  A    between atoms: C_35  and  C_40
   21  A    between atoms: C_37  and  C_40
   22  A    between atoms: C_38  and  C_46
                            x       y       z     vdW  Elec       q    Type
                         _______ _______ _______ _____ _____    ______ ____

>  <TORSDO>
F 22

$$$$
=
 OpenBabel11042416433D

 48 48  0  0  1  0  0  0  0  0999 V2000
  191.5220  175.4190  143.1340 C   0  0  2  0  0  3  0  0  0  0  0  0
  191.2400  177.9180  143.1750 C   0  0  0  0  0  1  0  0  0  0  0  0
  192.2440  176.7730  143.1960 C   0  0  1  0  0  3  0  0  0  0  0  0
  193.0630  176.8690  144.3300 O   0  0  0  0  0  0  0  0  0  0  0  0
  194.1880  176.1050  144.0160 C   0  0  0  0  0  2  0  0  0  0  0  0
  195.0310  175.8720  145.2600 C   0  0  1  0  0  3  0  0  0  0  0  0
  194.1670  176.0640  146.4910 C   0  0  0  0  0  1  0  0  0  0  0  0
  195.2340  173.6540  144.4080 O   0  0  0  0  0  0  0  0  0  0  0  0
  196.6330  174.1640  146.1500 O   0  0  0  0  0  1  0  0  0  0  0  0
  195.6220  174.4990  145.2580 C   0  0  0  0  0  0  0  0  0  0  0  0
  191.7960  174.6830  141.8270 C   0  0  0  0  0  2  0  0  0  0  0  0
  192.5260  173.3790  142.1000 C   0  0  0  0  0  2  0  0  0  0  0  0
  192.4250  172.4490  140.8990 C   0  0  0  0  0  2  0  0  0  0  0  0
  191.1490  171.6120  140.9490 C   0  0  2  0  0  3  0  0  0  0  0  0
  192.8490  169.7180  141.3620 C   0  0  0  0  0  1  0  0  0  0  0  0
  190.5990  169.3080  140.8250 O   0  0  0  0  0  0  0  0  0  0  0  0
  191.4620  170.1480  141.0300 C   0  0  0  0  0  0  0  0  0  0  0  0
  189.0420  172.2950  140.0260 O   0  0  0  0  0  0  0  0  0  0  0  0
  190.2290  171.9210  139.8090 C   0  0  0  0  0  0  0  0  0  0  0  0
  190.6990  171.7350  138.4730 N   0  0  0  0  0  2  0  0  0  0  0  0
  189.8670  171.9550  137.2990 C   0  0  2  0  0  3  0  0  0  0  0  0
  189.6910  170.6560  136.5250 C   0  0  0  0  0  1  0  0  0  0  0  0
  190.4850  173.0000  136.4270 C   0  0  0  0  0  0  0  0  0  0  0  0
  190.4600  172.8860  135.2100 O   0  0  0  0  0  0  0  0  0  0  0  0
  191.1850  174.1620  137.0650 C   0  0  0  0  0  2  0  0  0  0  0  0
  191.1320  175.9580  135.4660 O   0  0  0  0  0  1  0  0  0  0  0  0
  191.9690  175.0190  136.0730 C   0  0  1  0  0  3  0  0  0  0  0  0
  193.1370  175.6960  136.7140 C   0  0  0  0  0  3  0  0  0  0  0  0
  193.8560  176.4280  136.0520 O   0  0  0  0  0  0  0  0  0  0  0  0
  190.0130  175.5060  143.4300 C   0  0  1  0  0  3  0  0  0  0  0  0
  189.1610  175.0460  142.2520 C   0  0  0  0  0  2  0  0  0  0  0  0
  187.8370  174.8440  142.6440 O   0  0  0  0  0  1  0  0  0  0  0  0
  189.6510  174.8270  144.6020 O   0  0  0  0  0  0  0  0  0  0  0  0
  189.7640  175.7690  145.6250 C   0  0  0  0  0  2  0  0  0  0  0  0
  188.7170  175.4830  146.6820 C   0  0  0  0  0  2  0  0  0  0  0  0
  182.6360  178.2930  141.3370 C   0  0  0  0  0  0  0  0  0  0  0  0
  185.2910  178.1160  145.7490 N   0  0  0  0  0  0  0  0  0  0  0  0
  182.3710  178.0430  140.1350 O   0  0  0  0  0  0  0  0  0  0  0  0
  187.2160  176.8370  145.1650 N   0  0  0  0  0  2  0  0  0  0  0  0
  186.1200  177.7000  144.8340 C   0  0  0  0  0  0  0  0  0  0  0  0
  181.5300  178.7260  142.2390 C   0  0  0  0  0  1  0  0  0  0  0  0
  187.5420  176.3730  146.4830 C   0  0  0  0  0  0  0  0  0  0  0  0
  185.9390  178.1320  143.4050 C   0  0  0  0  0  2  0  0  0  0  0  0
  184.2060  179.0390  145.4270 C   0  0  0  0  0  2  0  0  0  0  0  0
  186.8570  176.7230  147.4820 O   0  0  0  0  0  0  0  0  0  0  0  0
  184.4810  178.3740  143.1240 C   0  0  0  0  0  0  0  0  0  0  0  0
  183.6930  178.7700  144.0830 N   0  0  0  0  0  0  0  0  0  0  0  0
  183.9850  178.1450  141.7990 N   0  0  0  0  0  2  0  0  0  0  0  0
  1 11  1  6  0  0  0
  1  3  1  0  0  0  0
  1 30  1  0  0  0  0
  3  2  1  1  0  0  0
  3  4  1  0  0  0  0
  5  4  1  0  0  0  0
  5  6  1  0  0  0  0
  6  7  1  1  0  0  0
  8 10  2  0  0  0  0
 10  6  1  0  0  0  0
 10  9  1  0  0  0  0
 11 12  1  0  0  0  0
 13 12  1  0  0  0  0
 14 13  1  6  0  0  0
 14 17  1  0  0  0  0
 16 17  2  0  0  0  0
 17 15  1  0  0  0  0
 19 18  2  0  0  0  0
 19 14  1  0  0  0  0
 20 19  1  0  0  0  0
 21 22  1  6  0  0  0
 21 20  1  0  0  0  0
 23 25  1  0  0  0  0
 23 21  1  0  0  0  0
 24 23  2  0  0  0  0
 27 26  1  1  0  0  0
 27 28  1  0  0  0  0
 27 25  1  0  0  0  0
 29 28  2  0  0  0  0
 30 31  1  6  0  0  0
 30 33  1  0  0  0  0
 31 32  1  0  0  0  0
 33 34  1  0  0  0  0
 34 35  1  0  0  0  0
 36 48  1  0  0  0  0
 36 41  1  0  0  0  0
 38 36  2  0  0  0  0
 39 42  1  0  0  0  0
 40 39  1  0  0  0  0
 40 37  2  0  0  0  0
 42 35  1  0  0  0  0
 42 45  2  0  0  0  0
 43 40  1  0  0  0  0
 44 37  1  0  0  0  0
 46 43  1  0  0  0  0
 46 47  2  0  0  0  0
 47 44  1  0  0  0  0
 48 46  1  0  0  0  0
M  END
>  <MODEL>
7

>  <REMARK>
 VINA RESULT:      -5.3      3.104      7.680
  Name = 
  22 active torsions:
  status: ('A' for Active; 'I' for Inactive)
    1  A    between atoms: C_2  and  C_31
    2  A    between atoms: C_2  and  C_32
    3  A    between atoms: C_4  and  C_41
    4  A    between atoms: C_4  and  C_44
    5  A    between atoms: O_6  and  C_19
    6  A    between atoms: O_6  and  C_44
    7  A    between atoms: C_8  and  C_15
    8  A    between atoms: C_8  and  C_19
    9  A    between atoms: C_8  and  C_32
   10  A    between atoms: C_9  and  C_17
   11  A    between atoms: C_9  and  C_30
   12  A    between atoms: C_11  and  C_34
   13  A    between atoms: C_15  and  C_16
   14  A    between atoms: C_15  and  O_18
   15  A    between atoms: C_17  and  N_47
   16  A    between atoms: O_18  and  C_37
   17  A    between atoms: C_21  and  C_38
   18  A    between atoms: C_30  and  C_34
   19  A    between atoms: C_31  and  C_38
   20  A    between atoms: C_35  and  C_40
   21  A    between atoms: C_37  and  C_40
   22  A    between atoms: C_38  and  C_46
                            x       y       z     vdW  Elec       q    Type
                         _______ _______ _______ _____ _____    ______ ____

>  <TORSDO>
F 22

$$$$
=
 OpenBabel11042416433D

 48 48  0  0  1  0  0  0  0  0999 V2000
  196.4260  173.9040  143.6910 C   0  0  2  0  0  3  0  0  0  0  0  0
  196.8780  174.0110  146.1620 C   0  0  0  0  0  1  0  0  0  0  0  0
  197.3750  173.4840  144.8220 C   0  0  1  0  0  3  0  0  0  0  0  0
  197.5290  172.0920  144.8770 O   0  0  0  0  0  0  0  0  0  0  0  0
  196.3660  171.6340  145.4990 C   0  0  0  0  0  2  0  0  0  0  0  0
  195.8900  170.3470  144.8450 C   0  0  1  0  0  3  0  0  0  0  0  0
  195.9370  169.2230  145.8620 C   0  0  0  0  0  1  0  0  0  0  0  0
  193.9260  169.5100  143.7820 O   0  0  0  0  0  0  0  0  0  0  0  0
  193.8230  171.7030  144.4410 O   0  0  0  0  0  1  0  0  0  0  0  0
  194.5020  170.4970  144.3110 C   0  0  0  0  0  0  0  0  0  0  0  0
  197.0290  173.6480  142.3130 C   0  0  0  0  0  2  0  0  0  0  0  0
  196.1930  172.6300  141.5540 C   0  0  0  0  0  2  0  0  0  0  0  0
  194.9010  173.2650  141.0580 C   0  0  0  0  0  2  0  0  0  0  0  0
  194.5430  172.7750  139.6560 C   0  0  2  0  0  3  0  0  0  0  0  0
  194.9480  173.3450  137.1740 C   0  0  0  0  0  1  0  0  0  0  0  0
  195.4200  174.8510  138.9150 O   0  0  0  0  0  0  0  0  0  0  0  0
  195.0020  173.7440  138.6080 C   0  0  0  0  0  0  0  0  0  0  0  0
  192.7050  171.3600  139.0410 O   0  0  0  0  0  0  0  0  0  0  0  0
  193.0850  172.4650  139.5240 C   0  0  0  0  0  0  0  0  0  0  0  0
  192.1310  173.4570  139.9050 N   0  0  0  0  0  2  0  0  0  0  0  0
  190.6940  173.2740  139.7650 C   0  0  2  0  0  3  0  0  0  0  0  0
  190.2260  173.7810  138.4080 C   0  0  0  0  0  1  0  0  0  0  0  0
  189.9800  173.9950  140.8630 C   0  0  0  0  0  0  0  0  0  0  0  0
  188.8360  174.3930  140.7020 O   0  0  0  0  0  0  0  0  0  0  0  0
  190.7070  174.2740  142.1460 C   0  0  0  0  0  2  0  0  0  0  0  0
  189.5150  173.5580  144.1080 O   0  0  0  0  0  1  0  0  0  0  0  0
  190.5120  173.1890  143.2030 C   0  0  1  0  0  3  0  0  0  0  0  0
  190.2000  171.8600  142.5930 C   0  0  0  0  0  3  0  0  0  0  0  0
  191.0730  171.0120  142.5000 O   0  0  0  0  0  0  0  0  0  0  0  0
  195.9050  175.3470  143.8210 C   0  0  1  0  0  3  0  0  0  0  0  0
  196.7080  176.3360  142.9840 C   0  0  0  0  0  2  0  0  0  0  0  0
  195.9960  176.7220  141.8480 O   0  0  0  0  0  1  0  0  0  0  0  0
  194.5350  175.4550  143.5400 O   0  0  0  0  0  0  0  0  0  0  0  0
  193.9080  175.5360  144.7840 C   0  0  0  0  0  2  0  0  0  0  0  0
  193.4440  176.9600  145.0140 C   0  0  0  0  0  2  0  0  0  0  0  0
  185.1100  178.3580  146.4420 C   0  0  0  0  0  0  0  0  0  0  0  0
  189.2900  177.4250  143.5770 N   0  0  0  0  0  0  0  0  0  0  0  0
  184.4320  178.4890  147.4900 O   0  0  0  0  0  0  0  0  0  0  0  0
  190.9280  176.8190  145.1990 N   0  0  0  0  0  2  0  0  0  0  0  0
  189.5700  176.9470  144.7560 C   0  0  0  0  0  0  0  0  0  0  0  0
  184.6320  179.0170  145.1930 C   0  0  0  0  0  1  0  0  0  0  0  0
  192.0910  177.1500  144.4270 C   0  0  0  0  0  0  0  0  0  0  0  0
  188.4600  176.5130  145.6740 C   0  0  0  0  0  2  0  0  0  0  0  0
  187.9120  177.5070  143.0990 C   0  0  0  0  0  2  0  0  0  0  0  0
  191.9850  177.5870  143.2500 O   0  0  0  0  0  0  0  0  0  0  0  0
  187.2260  177.3290  145.4050 C   0  0  0  0  0  0  0  0  0  0  0  0
  187.0060  177.8000  144.2100 N   0  0  0  0  0  0  0  0  0  0  0  0
  186.3200  177.5880  146.4850 N   0  0  0  0  0  2  0  0  0  0  0  0
  1 11  1  6  0  0  0
  1 30  1  0  0  0  0
  1  3  1  0  0  0  0
  3  4  1  0  0  0  0
  3  2  1  1  0  0  0
  4  5  1  0  0  0  0
  6  5  1  0  0  0  0
  6  7  1  1  0  0  0
  8 10  2  0  0  0  0
 10  9  1  0  0  0  0
 10  6  1  0  0  0  0
 12 11  1  0  0  0  0
 13 12  1  0  0  0  0
 14 13  1  1  0  0  0
 15 17  1  0  0  0  0
 17 16  2  0  0  0  0
 17 14  1  0  0  0  0
 18 19  2  0  0  0  0
 19 14  1  0  0  0  0
 19 20  1  0  0  0  0
 21 22  1  6  0  0  0
 21 20  1  0  0  0  0
 21 23  1  0  0  0  0
 23 25  1  0  0  0  0
 24 23  2  0  0  0  0
 25 27  1  0  0  0  0
 27 26  1  1  0  0  0
 28 27  1  0  0  0  0
 29 28  2  0  0  0  0
 30 31  1  6  0  0  0
 32 31  1  0  0  0  0
 33 30  1  0  0  0  0
 33 34  1  0  0  0  0
 34 35  1  0  0  0  0
 36 48  1  0  0  0  0
 36 38  2  0  0  0  0
 37 40  2  0  0  0  0
 40 39  1  0  0  0  0
 40 43  1  0  0  0  0
 41 36  1  0  0  0  0
 42 35  1  0  0  0  0
 42 39  1  0  0  0  0
 44 37  1  0  0  0  0
 44 47  1  0  0  0  0
 45 42  2  0  0  0  0
 46 43  1  0  0  0  0
 46 48  1  0  0  0  0
 47 46  2  0  0  0  0
M  END
>  <MODEL>
8

>  <REMARK>
 VINA RESULT:      -5.3      2.903      8.724
  Name = 
  22 active torsions:
  status: ('A' for Active; 'I' for Inactive)
    1  A    between atoms: C_2  and  C_31
    2  A    between atoms: C_2  and  C_32
    3  A    between atoms: C_4  and  C_41
    4  A    between atoms: C_4  and  C_44
    5  A    between atoms: O_6  and  C_19
    6  A    between atoms: O_6  and  C_44
    7  A    between atoms: C_8  and  C_15
    8  A    between atoms: C_8  and  C_19
    9  A    between atoms: C_8  and  C_32
   10  A    between atoms: C_9  and  C_17
   11  A    between atoms: C_9  and  C_30
   12  A    between atoms: C_11  and  C_34
   13  A    between atoms: C_15  and  C_16
   14  A    between atoms: C_15  and  O_18
   15  A    between atoms: C_17  and  N_47
   16  A    between atoms: O_18  and  C_37
   17  A    between atoms: C_21  and  C_38
   18  A    between atoms: C_30  and  C_34
   19  A    between atoms: C_31  and  C_38
   20  A    between atoms: C_35  and  C_40
   21  A    between atoms: C_37  and  C_40
   22  A    between atoms: C_38  and  C_46
                            x       y       z     vdW  Elec       q    Type
                         _______ _______ _______ _____ _____    ______ ____

>  <TORSDO>
F 22

$$$$
=
 OpenBabel11042416433D

 48 48  0  0  1  0  0  0  0  0999 V2000
  190.9020  173.2590  141.2480 C   0  0  2  0  0  3  0  0  0  0  0  0
  191.6060  171.0620  140.2490 C   0  0  0  0  0  1  0  0  0  0  0  0
  190.8420  172.3570  140.0070 C   0  0  1  0  0  3  0  0  0  0  0  0
  189.5190  172.0760  139.6370 O   0  0  0  0  0  0  0  0  0  0  0  0
  189.2650  172.9340  138.5660 C   0  0  0  0  0  2  0  0  0  0  0  0
  190.1150  172.5470  137.3670 C   0  0  1  0  0  3  0  0  0  0  0  0
  189.3570  171.5440  136.5190 C   0  0  0  0  0  1  0  0  0  0  0  0
  191.6590  174.1530  136.5170 O   0  0  0  0  0  1  0  0  0  0  0  0
  189.5010  174.3880  135.7820 O   0  0  0  0  0  0  0  0  0  0  0  0
  190.4670  173.7470  136.5490 C   0  0  0  0  0  0  0  0  0  0  0  0
  192.2650  173.2070  141.9300 C   0  0  0  0  0  2  0  0  0  0  0  0
  192.6290  174.5740  142.4840 C   0  0  0  0  0  2  0  0  0  0  0  0
  193.0760  174.4600  143.9350 C   0  0  0  0  0  2  0  0  0  0  0  0
  193.5480  175.8070  144.4790 C   0  0  2  0  0  3  0  0  0  0  0  0
  195.9900  176.3820  143.8860 C   0  0  0  0  0  1  0  0  0  0  0  0
  195.3950  175.2540  145.8590 O   0  0  0  0  0  0  0  0  0  0  0  0
  195.0060  175.7730  144.8240 C   0  0  0  0  0  0  0  0  0  0  0  0
  193.2580  176.7720  146.6570 O   0  0  0  0  0  0  0  0  0  0  0  0
  192.7140  176.2690  145.6340 C   0  0  0  0  0  0  0  0  0  0  0  0
  191.2990  176.0860  145.5800 N   0  0  0  0  0  2  0  0  0  0  0  0
  190.4080  176.4510  146.6710 C   0  0  2  0  0  3  0  0  0  0  0  0
  190.2140  175.2710  147.6140 C   0  0  0  0  0  1  0  0  0  0  0  0
  189.0900  176.8990  146.1240 C   0  0  0  0  0  0  0  0  0  0  0  0
  189.0340  177.8130  145.3140 O   0  0  0  0  0  0  0  0  0  0  0  0
  187.8340  176.2500  146.6240 C   0  0  0  0  0  2  0  0  0  0  0  0
  187.5430  178.2610  147.9110 O   0  0  0  0  0  1  0  0  0  0  0  0
  186.8550  177.2340  147.2610 C   0  0  1  0  0  3  0  0  0  0  0  0
  185.8930  177.7960  146.2640 C   0  0  0  0  0  3  0  0  0  0  0  0
  186.0730  178.9140  145.8070 O   0  0  0  0  0  0  0  0  0  0  0  0
  189.7580  173.0140  142.2500 C   0  0  1  0  0  3  0  0  0  0  0  0
  190.2090  172.2140  143.4660 C   0  0  0  0  0  2  0  0  0  0  0  0
  189.8440  172.8570  144.6500 O   0  0  0  0  0  1  0  0  0  0  0  0
  189.1190  174.1990  142.6430 O   0  0  0  0  0  0  0  0  0  0  0  0
  188.1550  174.4410  141.6640 C   0  0  0  0  0  2  0  0  0  0  0  0
  188.1940  175.9070  141.2790 C   0  0  0  0  0  2  0  0  0  0  0  0
  179.9850  178.2820  140.6360 C   0  0  0  0  0  0  0  0  0  0  0  0
  184.6520  178.0650  142.8080 N   0  0  0  0  0  0  0  0  0  0  0  0
  179.1140  178.1180  139.7460 O   0  0  0  0  0  0  0  0  0  0  0  0
  186.0110  177.1620  141.0700 N   0  0  0  0  0  2  0  0  0  0  0  0
  184.8580  177.8770  141.5350 C   0  0  0  0  0  0  0  0  0  0  0  0
  179.5420  178.4460  142.0500 C   0  0  0  0  0  1  0  0  0  0  0  0
  187.0480  176.6220  141.9010 C   0  0  0  0  0  0  0  0  0  0  0  0
  183.8820  178.4200  140.5280 C   0  0  0  0  0  2  0  0  0  0  0  0
  183.5090  178.8390  143.2850 C   0  0  0  0  0  2  0  0  0  0  0  0
  187.0130  176.7590  143.1540 O   0  0  0  0  0  0  0  0  0  0  0  0
  182.5020  178.4630  141.1250 C   0  0  0  0  0  0  0  0  0  0  0  0
  182.3550  178.6340  142.4090 N   0  0  0  0  0  0  0  0  0  0  0  0
  181.3700  178.2960  140.2620 N   0  0  0  0  0  2  0  0  0  0  0  0
  1 11  1  1  0  0  0
  1 30  1  0  0  0  0
  3  2  1  1  0  0  0
  3  1  1  0  0  0  0
  4  3  1  0  0  0  0
  5  4  1  0  0  0  0
  6  7  1  6  0  0  0
  6  5  1  0  0  0  0
  8 10  1  0  0  0  0
  9 10  2  0  0  0  0
 10  6  1  0  0  0  0
 11 12  1  0  0  0  0
 12 13  1  0  0  0  0
 14 13  1  1  0  0  0
 14 17  1  0  0  0  0
 14 19  1  0  0  0  0
 15 17  1  0  0  0  0
 17 16  2  0  0  0  0
 19 18  2  0  0  0  0
 20 19  1  0  0  0  0
 20 21  1  0  0  0  0
 21 22  1  1  0  0  0
 23 25  1  0  0  0  0
 23 21  1  0  0  0  0
 24 23  2  0  0  0  0
 25 27  1  0  0  0  0
 27 26  1  6  0  0  0
 28 27  1  0  0  0  0
 29 28  2  0  0  0  0
 30 33  1  0  0  0  0
 30 31  1  1  0  0  0
 31 32  1  0  0  0  0
 34 33  1  0  0  0  0
 35 34  1  0  0  0  0
 35 42  1  0  0  0  0
 36 41  1  0  0  0  0
 37 44  1  0  0  0  0
 38 36  2  0  0  0  0
 39 40  1  0  0  0  0
 39 42  1  0  0  0  0
 40 37  2  0  0  0  0
 42 45  2  0  0  0  0
 43 46  1  0  0  0  0
 43 40  1  0  0  0  0
 46 47  2  0  0  0  0
 47 44  1  0  0  0  0
 48 36  1  0  0  0  0
 48 46  1  0  0  0  0
M  END
>  <MODEL>
9

>  <REMARK>
 VINA RESULT:      -5.3      3.316      9.801
  Name = 
  22 active torsions:
  status: ('A' for Active; 'I' for Inactive)
    1  A    between atoms: C_2  and  C_31
    2  A    between atoms: C_2  and  C_32
    3  A    between atoms: C_4  and  C_41
    4  A    between atoms: C_4  and  C_44
    5  A    between atoms: O_6  and  C_19
    6  A    between atoms: O_6  and  C_44
    7  A    between atoms: C_8  and  C_15
    8  A    between atoms: C_8  and  C_19
    9  A    between atoms: C_8  and  C_32
   10  A    between atoms: C_9  and  C_17
   11  A    between atoms: C_9  and  C_30
   12  A    between atoms: C_11  and  C_34
   13  A    between atoms: C_15  and  C_16
   14  A    between atoms: C_15  and  O_18
   15  A    between atoms: C_17  and  N_47
   16  A    between atoms: O_18  and  C_37
   17  A    between atoms: C_21  and  C_38
   18  A    between atoms: C_30  and  C_34
   19  A    between atoms: C_31  and  C_38
   20  A    between atoms: C_35  and  C_40
   21  A    between atoms: C_37  and  C_40
   22  A    between atoms: C_38  and  C_46
                            x       y       z     vdW  Elec       q    Type
                         _______ _______ _______ _____ _____    ______ ____

>  <TORSDO>
F 22

$$$$
