=
 OpenBabel11042419223D

 42 44  0  0  1  0  0  0  0  0999 V2000
  194.0530  176.0690  144.2310 C   0  0  2  0  0  3  0  0  0  0  0  0
  192.2640  173.9440  140.5600 N   0  0  0  0  0  2  0  0  0  0  0  0
  191.3740  172.9860  139.9930 C   0  0  2  0  0  3  0  0  0  0  0  0
  189.5920  173.5910  141.6010 C   0  0  0  0  0  0  0  0  0  0  0  0
  191.7970  174.6700  141.7010 C   0  0  0  0  0  0  0  0  0  0  0  0
  191.1660  172.8360  138.7000 C   0  0  0  0  0  0  0  0  0  0  0  0
  193.3810  176.3550  142.9110 C   0  0  0  0  0  3  0  0  0  0  0  0
  189.2720  172.1700  139.6030 N   0  0  0  0  0  2  0  0  0  0  0  0
  190.1580  172.5070  140.7130 C   0  0  1  0  0  3  0  0  0  0  0  0
  192.0070  173.4200  137.6180 C   0  0  0  0  0  1  0  0  0  0  0  0
  189.8560  172.3340  138.4840 N   0  0  0  0  0  0  0  0  0  0  0  0
  190.3860  174.5420  142.1190 C   0  0  0  0  0  3  0  0  0  0  0  0
  192.5840  175.5170  142.3010 C   0  0  0  0  0  0  0  0  0  0  0  0
  188.2490  173.4920  142.0580 N   0  0  0  0  0  1  0  0  0  0  0  0
  193.4150  176.7820  145.4420 C   0  0  2  0  0  3  0  0  0  0  0  0
  194.4230  176.9840  146.5650 C   0  0  0  0  0  1  0  0  0  0  0  0
  192.2250  176.0290  145.9690 C   0  0  0  0  0  0  0  0  0  0  0  0
  192.2820  174.5340  146.1060 C   0  0  0  0  0  1  0  0  0  0  0  0
  191.1350  176.7230  146.3220 C   0  0  0  0  0  3  0  0  0  0  0  0
  189.8880  176.0930  146.8620 C   0  0  0  0  0  2  0  0  0  0  0  0
  188.7760  177.0200  146.7490 N   0  0  0  0  0  2  0  0  0  0  0  0
  187.6510  176.2590  146.2360 C   0  0  0  0  0  2  0  0  0  0  0  0
  184.7080  178.2710  144.8410 C   0  0  0  0  0  0  0  0  0  0  0  0
  185.8850  177.4880  144.8570 C   0  0  0  0  0  0  0  0  0  0  0  0
  184.1160  178.6510  143.6420 O   0  0  0  0  0  1  0  0  0  0  0  0
  184.6920  178.3520  147.2610 C   0  0  0  0  0  3  0  0  0  0  0  0
  186.4550  177.1460  146.1120 C   0  0  0  0  0  0  0  0  0  0  0  0
  185.8490  177.5770  147.2970 C   0  0  0  0  0  3  0  0  0  0  0  0
  184.1240  178.6970  146.0360 C   0  0  0  0  0  3  0  0  0  0  0  0
  188.0970  177.4400  141.6690 C   0  0  0  0  0  1  0  0  0  0  0  0
  186.1120  175.9630  143.0410 O   0  0  0  0  0  0  0  0  0  0  0  0
  186.4940  177.0400  143.5780 C   0  0  0  0  0  0  0  0  0  0  0  0
  187.4980  177.8320  142.9340 N   0  0  0  0  0  2  0  0  0  0  0  0
  195.4090  176.3930  144.1270 O   0  0  0  0  0  0  0  0  0  0  0  0
  196.0310  175.2160  143.7020 C   0  0  0  0  0  2  0  0  0  0  0  0
  195.6900  174.1720  144.5630 O   0  0  0  0  0  0  0  0  0  0  0  0
  196.2190  173.0320  143.9590 C   0  0  0  0  0  2  0  0  0  0  0  0
  195.1740  172.4080  143.0530 C   0  0  0  0  0  2  0  0  0  0  0  0
  193.8900  172.3550  143.7350 N   0  0  0  0  0  2  0  0  0  0  0  0
  192.9250  170.8260  142.2510 O   0  0  0  0  0  0  0  0  0  0  0  0
  192.8120  171.5280  143.2900 C   0  0  0  0  0  0  0  0  0  0  0  0
  191.5390  171.5050  144.0580 C   0  0  0  0  0  1  0  0  0  0  0  0
  1  7  1  6  0  0  0
  1 15  1  0  0  0  0
  2  5  1  0  0  0  0
  3  6  1  6  0  0  0
  3  2  1  0  0  0  0
  3  9  1  0  0  0  0
  4 14  1  0  0  0  0
  4 12  2  0  0  0  0
  5 12  1  0  0  0  0
  5 13  2  0  0  0  0
  9  8  1  6  0  0  0
  9  4  1  0  0  0  0
 10  6  1  0  0  0  0
 11  6  2  0  0  0  0
 11  8  1  0  0  0  0
 13  7  2  0  0  0  0
 15 17  1  0  0  0  0
 15 16  1  1  0  0  0
 17 18  1  0  0  0  0
 17 19  2  0  0  0  0
 19 20  1  0  0  0  0
 21 20  1  0  0  0  0
 22 21  1  0  0  0  0
 23 24  2  0  0  0  0
 23 29  1  0  0  0  0
 24 27  1  0  0  0  0
 25 23  1  0  0  0  0
 26 28  1  0  0  0  0
 27 22  1  0  0  0  0
 27 28  2  0  0  0  0
 29 26  2  0  0  0  0
 30 33  1  0  0  0  0
 31 32  2  0  0  0  0
 32 24  1  0  0  0  0
 33 32  1  0  0  0  0
 34  1  1  0  0  0  0
 35 34  1  0  0  0  0
 35 36  1  0  0  0  0
 37 36  1  0  0  0  0
 38 39  1  0  0  0  0
 38 37  1  0  0  0  0
 40 41  2  0  0  0  0
 41 39  1  0  0  0  0
 41 42  1  0  0  0  0
M  END
>  <MODEL>
1

>  <REMARK>
 VINA RESULT:      -6.7      0.000      0.000
  Name = 
  14 active torsions:
  status: ('A' for Active; 'I' for Inactive)
    1  A    between atoms: C_2  and  C_22
    2  A    between atoms: C_5  and  C_6
    3  A    between atoms: C_5  and  C_19
    4  A    between atoms: N_11  and  C_34
    5  A    between atoms: N_11  and  C_36
    6  A    between atoms: N_14  and  C_28
    7  A    between atoms: C_16  and  O_23
    8  A    between atoms: C_16  and  C_28
    9  A    between atoms: C_18  and  C_19
   10  A    between atoms: C_19  and  O_41
   11  A    between atoms: O_23  and  C_33
   12  A    between atoms: C_24  and  C_36
   13  A    between atoms: C_26  and  C_34
   14  A    between atoms: C_33  and  O_41
                            x       y       z     vdW  Elec       q    Type
                         _______ _______ _______ _____ _____    ______ ____

>  <TORSDO>
F 14

$$$$
=
 OpenBabel11042419223D

 42 44  0  0  1  0  0  0  0  0999 V2000
  190.0540  172.6200  142.6970 C   0  0  2  0  0  3  0  0  0  0  0  0
  194.2120  172.1420  144.6140 N   0  0  0  0  0  2  0  0  0  0  0  0
  195.4670  172.6930  145.0080 C   0  0  2  0  0  3  0  0  0  0  0  0
  194.3830  174.7750  145.7910 C   0  0  0  0  0  0  0  0  0  0  0  0
  193.0600  172.9760  144.7670 C   0  0  0  0  0  0  0  0  0  0  0  0
  196.3800  172.0420  145.7030 C   0  0  0  0  0  0  0  0  0  0  0  0
  190.7260  172.1340  143.9570 C   0  0  0  0  0  3  0  0  0  0  0  0
  196.7330  174.1480  146.2380 N   0  0  0  0  0  2  0  0  0  0  0  0
  195.6520  174.1520  145.2570 C   0  0  1  0  0  3  0  0  0  0  0  0
  196.3930  170.5730  145.9460 C   0  0  0  0  0  1  0  0  0  0  0  0
  197.1470  172.9660  146.4590 N   0  0  0  0  0  0  0  0  0  0  0  0
  193.1810  174.2630  145.4830 C   0  0  0  0  0  3  0  0  0  0  0  0
  191.8930  172.5550  144.3700 C   0  0  0  0  0  0  0  0  0  0  0  0
  194.4460  176.0310  146.4550 N   0  0  0  0  0  1  0  0  0  0  0  0
  189.0060  173.7310  142.9160 C   0  0  2  0  0  3  0  0  0  0  0  0
  188.2380  174.0350  141.6370 C   0  0  0  0  0  1  0  0  0  0  0  0
  189.6330  174.9960  143.4330 C   0  0  0  0  0  0  0  0  0  0  0  0
  190.6680  175.7120  142.6130 C   0  0  0  0  0  1  0  0  0  0  0  0
  189.2370  175.4650  144.6240 C   0  0  0  0  0  3  0  0  0  0  0  0
  189.7800  176.7120  145.2480 C   0  0  0  0  0  2  0  0  0  0  0  0
  188.7780  177.3130  146.1100 N   0  0  0  0  0  2  0  0  0  0  0  0
  187.6120  176.4510  146.0560 C   0  0  0  0  0  2  0  0  0  0  0  0
  184.5410  178.3600  144.8000 C   0  0  0  0  0  0  0  0  0  0  0  0
  185.7540  177.6360  144.7620 C   0  0  0  0  0  0  0  0  0  0  0  0
  183.9010  178.7500  143.6290 O   0  0  0  0  0  1  0  0  0  0  0  0
  184.5820  178.3610  147.2210 C   0  0  0  0  0  3  0  0  0  0  0  0
  186.3720  177.2810  145.9910 C   0  0  0  0  0  0  0  0  0  0  0  0
  185.7750  177.6420  147.2030 C   0  0  0  0  0  3  0  0  0  0  0  0
  183.9680  178.7180  146.0220 C   0  0  0  0  0  3  0  0  0  0  0  0
  187.8760  177.8060  141.5180 C   0  0  0  0  0  1  0  0  0  0  0  0
  186.0160  176.1800  142.8950 O   0  0  0  0  0  0  0  0  0  0  0  0
  186.3520  177.2600  143.4540 C   0  0  0  0  0  0  0  0  0  0  0  0
  187.2910  178.1260  142.8090 N   0  0  0  0  0  2  0  0  0  0  0  0
  189.4820  171.5260  142.0400 O   0  0  0  0  0  0  0  0  0  0  0  0
  190.4680  171.0800  141.1540 C   0  0  0  0  0  2  0  0  0  0  0  0
  191.1190  172.1780  140.5910 O   0  0  0  0  0  0  0  0  0  0  0  0
  191.7340  171.6710  139.4470 C   0  0  0  0  0  2  0  0  0  0  0  0
  193.1380  172.2390  139.3350 C   0  0  0  0  0  2  0  0  0  0  0  0
  193.4900  172.9440  140.5580 N   0  0  0  0  0  2  0  0  0  0  0  0
  193.9700  174.9750  139.5010 O   0  0  0  0  0  0  0  0  0  0  0  0
  193.8810  174.3190  140.5720 C   0  0  0  0  0  0  0  0  0  0  0  0
  194.1970  174.9780  141.8670 C   0  0  0  0  0  1  0  0  0  0  0  0
  1 15  1  0  0  0  0
  1  7  1  1  0  0  0
  2  5  1  0  0  0  0
  3  2  1  1  0  0  0
  3  9  1  0  0  0  0
  3  6  1  0  0  0  0
  4 14  1  0  0  0  0
  5 12  1  0  0  0  0
  6 10  1  0  0  0  0
  6 11  2  0  0  0  0
  7 13  2  0  0  0  0
  8 11  1  0  0  0  0
  9  4  1  1  0  0  0
  9  8  1  0  0  0  0
 12  4  2  0  0  0  0
 13  5  2  0  0  0  0
 15 16  1  6  0  0  0
 15 17  1  0  0  0  0
 17 19  2  0  0  0  0
 18 17  1  0  0  0  0
 19 20  1  0  0  0  0
 20 21  1  0  0  0  0
 22 21  1  0  0  0  0
 23 29  1  0  0  0  0
 24 23  2  0  0  0  0
 24 27  1  0  0  0  0
 25 23  1  0  0  0  0
 27 22  1  0  0  0  0
 27 28  2  0  0  0  0
 28 26  1  0  0  0  0
 29 26  2  0  0  0  0
 30 33  1  0  0  0  0
 31 32  2  0  0  0  0
 32 24  1  0  0  0  0
 33 32  1  0  0  0  0
 34  1  1  0  0  0  0
 35 34  1  0  0  0  0
 36 35  1  0  0  0  0
 37 36  1  0  0  0  0
 38 37  1  0  0  0  0
 38 39  1  0  0  0  0
 39 41  1  0  0  0  0
 40 41  2  0  0  0  0
 41 42  1  0  0  0  0
M  END
>  <MODEL>
2

>  <REMARK>
 VINA RESULT:      -6.7      2.146      5.271
  Name = 
  14 active torsions:
  status: ('A' for Active; 'I' for Inactive)
    1  A    between atoms: C_2  and  C_22
    2  A    between atoms: C_5  and  C_6
    3  A    between atoms: C_5  and  C_19
    4  A    between atoms: N_11  and  C_34
    5  A    between atoms: N_11  and  C_36
    6  A    between atoms: N_14  and  C_28
    7  A    between atoms: C_16  and  O_23
    8  A    between atoms: C_16  and  C_28
    9  A    between atoms: C_18  and  C_19
   10  A    between atoms: C_19  and  O_41
   11  A    between atoms: O_23  and  C_33
   12  A    between atoms: C_24  and  C_36
   13  A    between atoms: C_26  and  C_34
   14  A    between atoms: C_33  and  O_41
                            x       y       z     vdW  Elec       q    Type
                         _______ _______ _______ _____ _____    ______ ____

>  <TORSDO>
F 14

$$$$
=
 OpenBabel11042419223D

 42 44  0  0  1  0  0  0  0  0999 V2000
  192.3750  175.4010  142.7370 C   0  0  2  0  0  3  0  0  0  0  0  0
  191.9440  171.7290  139.9940 N   0  0  0  0  0  2  0  0  0  0  0  0
  191.1280  170.7890  139.2980 C   0  0  2  0  0  3  0  0  0  0  0  0
  189.5360  172.5640  138.6320 C   0  0  0  0  0  0  0  0  0  0  0  0
  191.4820  173.0820  140.0400 C   0  0  0  0  0  0  0  0  0  0  0  0
  191.5880  169.8760  138.4670 C   0  0  0  0  0  0  0  0  0  0  0  0
  192.8170  174.8690  141.3960 C   0  0  0  0  0  3  0  0  0  0  0  0
  189.5520  170.2630  137.7250 N   0  0  0  0  0  2  0  0  0  0  0  0
  189.7170  171.0900  138.9170 C   0  0  1  0  0  3  0  0  0  0  0  0
  193.0170  169.4790  138.3260 C   0  0  0  0  0  1  0  0  0  0  0  0
  190.5950  169.5710  137.4990 N   0  0  0  0  0  0  0  0  0  0  0  0
  190.3130  173.4820  139.2300 C   0  0  0  0  0  3  0  0  0  0  0  0
  192.1510  173.9770  140.7100 C   0  0  0  0  0  0  0  0  0  0  0  0
  188.4060  172.9990  137.8860 N   0  0  0  0  0  1  0  0  0  0  0  0
  190.9200  175.9140  142.7760 C   0  0  2  0  0  3  0  0  0  0  0  0
  190.8580  177.3860  143.1590 C   0  0  0  0  0  1  0  0  0  0  0  0
  190.0730  175.1150  143.7260 C   0  0  0  0  0  0  0  0  0  0  0  0
  189.5480  173.7690  143.3160 C   0  0  0  0  0  1  0  0  0  0  0  0
  189.8150  175.6260  144.9380 C   0  0  0  0  0  3  0  0  0  0  0  0
  188.9890  174.9310  145.9740 C   0  0  0  0  0  2  0  0  0  0  0  0
  188.2000  175.9020  146.7130 N   0  0  0  0  0  2  0  0  0  0  0  0
  188.2110  177.1260  145.9320 C   0  0  0  0  0  2  0  0  0  0  0  0
  184.7450  178.2070  144.7190 C   0  0  0  0  0  0  0  0  0  0  0  0
  186.0700  177.7180  144.6690 C   0  0  0  0  0  0  0  0  0  0  0  0
  183.9600  178.2690  143.5730 O   0  0  0  0  0  1  0  0  0  0  0  0
  184.9580  178.6280  147.0940 C   0  0  0  0  0  3  0  0  0  0  0  0
  186.8310  177.6960  145.8670 C   0  0  0  0  0  0  0  0  0  0  0  0
  186.2640  178.1450  147.0640 C   0  0  0  0  0  3  0  0  0  0  0  0
  184.2020  178.6580  145.9230 C   0  0  0  0  0  3  0  0  0  0  0  0
  187.7670  177.7330  141.1780 C   0  0  0  0  0  1  0  0  0  0  0  0
  186.5750  176.0140  143.0820 O   0  0  0  0  0  0  0  0  0  0  0  0
  186.6350  177.2390  143.3800 C   0  0  0  0  0  0  0  0  0  0  0  0
  187.2280  178.1600  142.4590 N   0  0  0  0  0  2  0  0  0  0  0  0
  193.2620  176.4050  143.1380 O   0  0  0  0  0  0  0  0  0  0  0  0
  194.4850  176.0620  142.5540 C   0  0  0  0  0  2  0  0  0  0  0  0
  195.5060  176.2050  143.4930 O   0  0  0  0  0  0  0  0  0  0  0  0
  195.6960  174.9220  144.0040 C   0  0  0  0  0  2  0  0  0  0  0  0
  195.7820  174.9880  145.5190 C   0  0  0  0  0  2  0  0  0  0  0  0
  194.4490  175.0910  146.0910 N   0  0  0  0  0  2  0  0  0  0  0  0
  194.5710  177.3920  146.4960 O   0  0  0  0  0  0  0  0  0  0  0  0
  193.8960  176.3290  146.5450 C   0  0  0  0  0  0  0  0  0  0  0  0
  192.5140  176.3600  147.0900 C   0  0  0  0  0  1  0  0  0  0  0  0
  1  7  1  6  0  0  0
  1 15  1  0  0  0  0
  1 34  1  0  0  0  0
  2  5  1  0  0  0  0
  3  6  1  6  0  0  0
  3  2  1  0  0  0  0
  4  9  1  0  0  0  0
  4 12  2  0  0  0  0
  5 13  2  0  0  0  0
  9  8  1  6  0  0  0
  9  3  1  0  0  0  0
 10  6  1  0  0  0  0
 11  8  1  0  0  0  0
 11  6  2  0  0  0  0
 12  5  1  0  0  0  0
 13  7  2  0  0  0  0
 14  4  1  0  0  0  0
 15 16  1  1  0  0  0
 15 17  1  0  0  0  0
 17 19  2  0  0  0  0
 18 17  1  0  0  0  0
 19 20  1  0  0  0  0
 20 21  1  0  0  0  0
 22 21  1  0  0  0  0
 23 29  1  0  0  0  0
 24 23  2  0  0  0  0
 24 27  1  0  0  0  0
 25 23  1  0  0  0  0
 27 22  1  0  0  0  0
 27 28  2  0  0  0  0
 28 26  1  0  0  0  0
 29 26  2  0  0  0  0
 30 33  1  0  0  0  0
 31 32  2  0  0  0  0
 32 24  1  0  0  0  0
 33 32  1  0  0  0  0
 35 34  1  0  0  0  0
 35 36  1  0  0  0  0
 36 37  1  0  0  0  0
 37 38  1  0  0  0  0
 38 39  1  0  0  0  0
 39 41  1  0  0  0  0
 40 41  2  0  0  0  0
 41 42  1  0  0  0  0
M  END
>  <MODEL>
3

>  <REMARK>
 VINA RESULT:      -6.6      1.926      2.978
  Name = 
  14 active torsions:
  status: ('A' for Active; 'I' for Inactive)
    1  A    between atoms: C_2  and  C_22
    2  A    between atoms: C_5  and  C_6
    3  A    between atoms: C_5  and  C_19
    4  A    between atoms: N_11  and  C_34
    5  A    between atoms: N_11  and  C_36
    6  A    between atoms: N_14  and  C_28
    7  A    between atoms: C_16  and  O_23
    8  A    between atoms: C_16  and  C_28
    9  A    between atoms: C_18  and  C_19
   10  A    between atoms: C_19  and  O_41
   11  A    between atoms: O_23  and  C_33
   12  A    between atoms: C_24  and  C_36
   13  A    between atoms: C_26  and  C_34
   14  A    between atoms: C_33  and  O_41
                            x       y       z     vdW  Elec       q    Type
                         _______ _______ _______ _____ _____    ______ ____

>  <TORSDO>
F 14

$$$$
=
 OpenBabel11042419223D

 42 44  0  0  1  0  0  0  0  0999 V2000
  194.0000  175.8380  144.3680 C   0  0  2  0  0  3  0  0  0  0  0  0
  192.0630  173.6610  140.8030 N   0  0  0  0  0  2  0  0  0  0  0  0
  191.0320  172.8360  140.2650 C   0  0  2  0  0  3  0  0  0  0  0  0
  189.3110  173.9890  141.6190 C   0  0  0  0  0  0  0  0  0  0  0  0
  191.6820  174.6060  141.8070 C   0  0  0  0  0  0  0  0  0  0  0  0
  190.8880  172.5660  138.9820 C   0  0  0  0  0  0  0  0  0  0  0  0
  193.4970  176.0800  142.9660 C   0  0  0  0  0  3  0  0  0  0  0  0
  188.8380  172.4160  139.7710 N   0  0  0  0  0  2  0  0  0  0  0  0
  189.6950  172.7080  140.9150 C   0  0  1  0  0  3  0  0  0  0  0  0
  191.9060  172.8250  137.9270 C   0  0  0  0  0  1  0  0  0  0  0  0
  189.5200  172.3150  138.7010 N   0  0  0  0  0  0  0  0  0  0  0  0
  190.2500  174.8190  142.1010 C   0  0  0  0  0  3  0  0  0  0  0  0
  192.5850  175.3480  142.3810 C   0  0  0  0  0  0  0  0  0  0  0  0
  187.9480  174.2220  141.9550 N   0  0  0  0  0  1  0  0  0  0  0  0
  193.3530  176.7340  145.4440 C   0  0  2  0  0  3  0  0  0  0  0  0
  194.3280  177.0430  146.5720 C   0  0  0  0  0  1  0  0  0  0  0  0
  192.1110  176.1100  146.0170 C   0  0  0  0  0  0  0  0  0  0  0  0
  192.2170  175.1000  147.1220 C   0  0  0  0  0  1  0  0  0  0  0  0
  190.9220  176.4890  145.5270 C   0  0  0  0  0  3  0  0  0  0  0  0
  189.6140  175.9460  146.0110 C   0  0  0  0  0  2  0  0  0  0  0  0
  188.6150  176.0530  144.9620 N   0  0  0  0  0  2  0  0  0  0  0  0
  188.5770  177.4490  144.5650 C   0  0  0  0  0  2  0  0  0  0  0  0
  185.2510  178.0950  142.7840 C   0  0  0  0  0  0  0  0  0  0  0  0
  186.1590  177.8390  143.8360 C   0  0  0  0  0  0  0  0  0  0  0  0
  183.8940  178.2720  143.0340 O   0  0  0  0  0  1  0  0  0  0  0  0
  187.0460  177.9720  141.1630 C   0  0  0  0  0  3  0  0  0  0  0  0
  187.5290  177.6470  143.5180 C   0  0  0  0  0  0  0  0  0  0  0  0
  187.9560  177.7230  142.1880 C   0  0  0  0  0  3  0  0  0  0  0  0
  185.6970  178.1580  141.4620 C   0  0  0  0  0  3  0  0  0  0  0  0
  185.2050  178.9260  147.4370 C   0  0  0  0  0  1  0  0  0  0  0  0
  185.2870  176.6770  145.7240 O   0  0  0  0  0  0  0  0  0  0  0  0
  185.6700  177.7770  145.2380 C   0  0  0  0  0  0  0  0  0  0  0  0
  185.6510  178.9530  146.0540 N   0  0  0  0  0  2  0  0  0  0  0  0
  195.3910  175.9790  144.3790 O   0  0  0  0  0  0  0  0  0  0  0  0
  195.8880  174.6740  144.3210 C   0  0  0  0  0  2  0  0  0  0  0  0
  196.8630  174.5030  145.3050 O   0  0  0  0  0  0  0  0  0  0  0  0
  197.8570  173.7450  144.6860 C   0  0  0  0  0  2  0  0  0  0  0  0
  197.2450  172.4780  144.1170 C   0  0  0  0  0  2  0  0  0  0  0  0
  197.4470  171.3690  145.0380 N   0  0  0  0  0  2  0  0  0  0  0  0
  195.2530  171.3640  145.8480 O   0  0  0  0  0  0  0  0  0  0  0  0
  196.4020  170.8490  145.8630 C   0  0  0  0  0  0  0  0  0  0  0  0
  196.6790  169.6940  146.7560 C   0  0  0  0  0  1  0  0  0  0  0  0
  1  7  1  6  0  0  0
  1 34  1  0  0  0  0
  1 15  1  0  0  0  0
  2  5  1  0  0  0  0
  3  6  1  6  0  0  0
  3  2  1  0  0  0  0
  3  9  1  0  0  0  0
  4 14  1  0  0  0  0
  4 12  2  0  0  0  0
  5 12  1  0  0  0  0
  5 13  2  0  0  0  0
  9  8  1  6  0  0  0
  9  4  1  0  0  0  0
 10  6  1  0  0  0  0
 11  6  2  0  0  0  0
 11  8  1  0  0  0  0
 13  7  2  0  0  0  0
 15 17  1  0  0  0  0
 15 16  1  1  0  0  0
 17 18  1  0  0  0  0
 19 20  1  0  0  0  0
 19 17  2  0  0  0  0
 21 20  1  0  0  0  0
 22 21  1  0  0  0  0
 23 25  1  0  0  0  0
 23 24  1  0  0  0  0
 24 32  1  0  0  0  0
 26 29  1  0  0  0  0
 26 28  2  0  0  0  0
 27 24  2  0  0  0  0
 27 22  1  0  0  0  0
 28 27  1  0  0  0  0
 29 23  2  0  0  0  0
 32 31  2  0  0  0  0
 32 33  1  0  0  0  0
 33 30  1  0  0  0  0
 35 34  1  0  0  0  0
 35 36  1  0  0  0  0
 37 36  1  0  0  0  0
 38 37  1  0  0  0  0
 38 39  1  0  0  0  0
 39 41  1  0  0  0  0
 40 41  2  0  0  0  0
 41 42  1  0  0  0  0
M  END
>  <MODEL>
4

>  <REMARK>
 VINA RESULT:      -6.5      1.645      2.675
  Name = 
  14 active torsions:
  status: ('A' for Active; 'I' for Inactive)
    1  A    between atoms: C_2  and  C_22
    2  A    between atoms: C_5  and  C_6
    3  A    between atoms: C_5  and  C_19
    4  A    between atoms: N_11  and  C_34
    5  A    between atoms: N_11  and  C_36
    6  A    between atoms: N_14  and  C_28
    7  A    between atoms: C_16  and  O_23
    8  A    between atoms: C_16  and  C_28
    9  A    between atoms: C_18  and  C_19
   10  A    between atoms: C_19  and  O_41
   11  A    between atoms: O_23  and  C_33
   12  A    between atoms: C_24  and  C_36
   13  A    between atoms: C_26  and  C_34
   14  A    between atoms: C_33  and  O_41
                            x       y       z     vdW  Elec       q    Type
                         _______ _______ _______ _____ _____    ______ ____

>  <TORSDO>
F 14

$$$$
=
 OpenBabel11042419223D

 42 44  0  0  1  0  0  0  0  0999 V2000
  190.1160  172.3530  142.5190 C   0  0  2  0  0  3  0  0  0  0  0  0
  194.2530  172.0660  144.5170 N   0  0  0  0  0  2  0  0  0  0  0  0
  195.4680  172.6760  144.9490 C   0  0  2  0  0  3  0  0  0  0  0  0
  194.2540  174.6800  145.7470 C   0  0  0  0  0  0  0  0  0  0  0  0
  193.0540  172.8320  144.6600 C   0  0  0  0  0  0  0  0  0  0  0  0
  196.4000  172.0630  145.6510 C   0  0  0  0  0  0  0  0  0  0  0  0
  190.7870  171.8790  143.7840 C   0  0  0  0  0  3  0  0  0  0  0  0
  196.6250  174.1740  146.2340 N   0  0  0  0  0  2  0  0  0  0  0  0
  195.5670  174.1380  145.2290 C   0  0  1  0  0  3  0  0  0  0  0  0
  196.4900  170.5920  145.8680 C   0  0  0  0  0  1  0  0  0  0  0  0
  197.0990  173.0120  146.4420 N   0  0  0  0  0  0  0  0  0  0  0  0
  193.0880  174.1080  145.4030 C   0  0  0  0  0  3  0  0  0  0  0  0
  191.9210  172.3550  144.2310 C   0  0  0  0  0  0  0  0  0  0  0  0
  194.2330  175.9240  146.4360 N   0  0  0  0  0  1  0  0  0  0  0  0
  188.8690  173.2340  142.7450 C   0  0  2  0  0  3  0  0  0  0  0  0
  187.6720  172.7180  141.9590 C   0  0  0  0  0  1  0  0  0  0  0  0
  189.1260  174.6690  142.3770 C   0  0  0  0  0  0  0  0  0  0  0  0
  190.5350  175.1800  142.2810 C   0  0  0  0  0  1  0  0  0  0  0  0
  188.0760  175.4620  142.1270 C   0  0  0  0  0  3  0  0  0  0  0  0
  188.1970  176.9060  141.7490 C   0  0  0  0  0  2  0  0  0  0  0  0
  187.1390  177.6740  142.3810 N   0  0  0  0  0  2  0  0  0  0  0  0
  186.3880  176.7460  143.2070 C   0  0  0  0  0  2  0  0  0  0  0  0
  186.2030  178.2900  146.7050 C   0  0  0  0  0  0  0  0  0  0  0  0
  186.7070  177.5490  145.6120 C   0  0  0  0  0  0  0  0  0  0  0  0
  186.9300  178.4140  147.8840 O   0  0  0  0  0  1  0  0  0  0  0  0
  184.1780  178.7880  145.4730 C   0  0  0  0  0  3  0  0  0  0  0  0
  185.9110  177.4400  144.4410 C   0  0  0  0  0  0  0  0  0  0  0  0
  184.6610  178.0650  144.3840 C   0  0  0  0  0  3  0  0  0  0  0  0
  184.9480  178.8990  146.6300 C   0  0  0  0  0  3  0  0  0  0  0  0
  190.5380  177.0030  145.3290 C   0  0  0  0  0  1  0  0  0  0  0  0
  188.1480  175.7300  146.1460 O   0  0  0  0  0  0  0  0  0  0  0  0
  188.0440  176.9080  145.7050 C   0  0  0  0  0  0  0  0  0  0  0  0
  189.2170  177.6070  145.2780 N   0  0  0  0  0  2  0  0  0  0  0  0
  189.7980  171.2410  141.7330 O   0  0  0  0  0  0  0  0  0  0  0  0
  190.9750  170.4880  141.6770 C   0  0  0  0  0  2  0  0  0  0  0  0
  191.5110  170.5600  140.3910 O   0  0  0  0  0  0  0  0  0  0  0  0
  190.4880  170.1070  139.5580 C   0  0  0  0  0  2  0  0  0  0  0  0
  190.5000  170.9030  138.2650 C   0  0  0  0  0  2  0  0  0  0  0  0
  189.3930  171.8470  138.2500 N   0  0  0  0  0  2  0  0  0  0  0  0
  190.6090  173.6150  139.1790 O   0  0  0  0  0  0  0  0  0  0  0  0
  189.5200  173.1950  138.7060 C   0  0  0  0  0  0  0  0  0  0  0  0
  188.3500  174.1090  138.6300 C   0  0  0  0  0  1  0  0  0  0  0  0
  1 15  1  0  0  0  0
  1  7  1  1  0  0  0
  2  5  1  0  0  0  0
  3  2  1  1  0  0  0
  3  9  1  0  0  0  0
  3  6  1  0  0  0  0
  4 14  1  0  0  0  0
  5 12  1  0  0  0  0
  6 10  1  0  0  0  0
  6 11  2  0  0  0  0
  7 13  2  0  0  0  0
  8 11  1  0  0  0  0
  9  4  1  1  0  0  0
  9  8  1  0  0  0  0
 12  4  2  0  0  0  0
 13  5  2  0  0  0  0
 15 16  1  6  0  0  0
 17 15  1  0  0  0  0
 18 17  1  0  0  0  0
 19 17  2  0  0  0  0
 20 19  1  0  0  0  0
 20 21  1  0  0  0  0
 21 22  1  0  0  0  0
 22 27  1  0  0  0  0
 23 25  1  0  0  0  0
 24 32  1  0  0  0  0
 24 23  2  0  0  0  0
 26 29  2  0  0  0  0
 27 24  1  0  0  0  0
 28 27  2  0  0  0  0
 28 26  1  0  0  0  0
 29 23  1  0  0  0  0
 32 31  2  0  0  0  0
 33 30  1  0  0  0  0
 33 32  1  0  0  0  0
 34  1  1  0  0  0  0
 35 34  1  0  0  0  0
 36 35  1  0  0  0  0
 37 36  1  0  0  0  0
 38 37  1  0  0  0  0
 39 38  1  0  0  0  0
 39 41  1  0  0  0  0
 41 40  2  0  0  0  0
 42 41  1  0  0  0  0
M  END
>  <MODEL>
5

>  <REMARK>
 VINA RESULT:      -6.5      2.543      5.975
  Name = 
  14 active torsions:
  status: ('A' for Active; 'I' for Inactive)
    1  A    between atoms: C_2  and  C_22
    2  A    between atoms: C_5  and  C_6
    3  A    between atoms: C_5  and  C_19
    4  A    between atoms: N_11  and  C_34
    5  A    between atoms: N_11  and  C_36
    6  A    between atoms: N_14  and  C_28
    7  A    between atoms: C_16  and  O_23
    8  A    between atoms: C_16  and  C_28
    9  A    between atoms: C_18  and  C_19
   10  A    between atoms: C_19  and  O_41
   11  A    between atoms: O_23  and  C_33
   12  A    between atoms: C_24  and  C_36
   13  A    between atoms: C_26  and  C_34
   14  A    between atoms: C_33  and  O_41
                            x       y       z     vdW  Elec       q    Type
                         _______ _______ _______ _____ _____    ______ ____

>  <TORSDO>
F 14

$$$$
=
 OpenBabel11042419223D

 42 44  0  0  1  0  0  0  0  0999 V2000
  194.2700  175.8780  144.1120 C   0  0  2  0  0  3  0  0  0  0  0  0
  192.2440  173.4930  140.7350 N   0  0  0  0  0  2  0  0  0  0  0  0
  191.1910  172.6530  140.2700 C   0  0  2  0  0  3  0  0  0  0  0  0
  189.5100  173.9340  141.5580 C   0  0  0  0  0  0  0  0  0  0  0  0
  191.8950  174.5150  141.6730 C   0  0  0  0  0  0  0  0  0  0  0  0
  191.0250  172.2950  139.0120 C   0  0  0  0  0  0  0  0  0  0  0  0
  193.7540  176.0300  142.7030 C   0  0  0  0  0  3  0  0  0  0  0  0
  188.9830  172.2430  139.8320 N   0  0  0  0  0  2  0  0  0  0  0  0
  189.8610  172.5980  140.9430 C   0  0  1  0  0  3  0  0  0  0  0  0
  192.0340  172.4580  137.9280 C   0  0  0  0  0  1  0  0  0  0  0  0
  189.6480  172.0520  138.7650 N   0  0  0  0  0  0  0  0  0  0  0  0
  190.4710  174.7770  141.9680 C   0  0  0  0  0  3  0  0  0  0  0  0
  192.8200  175.2770  142.1820 C   0  0  0  0  0  0  0  0  0  0  0  0
  188.1570  174.2170  141.8930 N   0  0  0  0  0  1  0  0  0  0  0  0
  193.5860  176.7960  145.1480 C   0  0  2  0  0  3  0  0  0  0  0  0
  194.5480  177.2000  146.2560 C   0  0  0  0  0  1  0  0  0  0  0  0
  192.3720  176.1460  145.7530 C   0  0  0  0  0  0  0  0  0  0  0  0
  192.5320  175.0750  146.7930 C   0  0  0  0  0  1  0  0  0  0  0  0
  191.1620  176.5570  145.3520 C   0  0  0  0  0  3  0  0  0  0  0  0
  189.8780  175.9950  145.8770 C   0  0  0  0  0  2  0  0  0  0  0  0
  188.8510  176.0600  144.8520 N   0  0  0  0  0  2  0  0  0  0  0  0
  188.6350  177.4680  144.5690 C   0  0  0  0  0  2  0  0  0  0  0  0
  185.3080  177.9790  142.7470 C   0  0  0  0  0  0  0  0  0  0  0  0
  186.2130  177.7680  143.8110 C   0  0  0  0  0  0  0  0  0  0  0  0
  183.9440  178.1160  142.9810 O   0  0  0  0  0  1  0  0  0  0  0  0
  187.1220  177.8870  141.1460 C   0  0  0  0  0  3  0  0  0  0  0  0
  187.5920  177.6160  143.5090 C   0  0  0  0  0  0  0  0  0  0  0  0
  188.0300  177.6840  142.1830 C   0  0  0  0  0  3  0  0  0  0  0  0
  185.7650  178.0340  141.4280 C   0  0  0  0  0  3  0  0  0  0  0  0
  185.2010  178.8790  147.3890 C   0  0  0  0  0  1  0  0  0  0  0  0
  185.3500  176.6110  145.7060 O   0  0  0  0  0  0  0  0  0  0  0  0
  185.7130  177.7130  145.2100 C   0  0  0  0  0  0  0  0  0  0  0  0
  185.6590  178.8980  146.0100 N   0  0  0  0  0  2  0  0  0  0  0  0
  195.6530  176.0820  144.1110 O   0  0  0  0  0  0  0  0  0  0  0  0
  196.2050  174.8190  144.3410 C   0  0  0  0  0  2  0  0  0  0  0  0
  196.8480  174.3740  143.1860 O   0  0  0  0  0  0  0  0  0  0  0  0
  197.7160  175.4120  142.8460 C   0  0  0  0  0  2  0  0  0  0  0  0
  197.8520  175.4830  141.3350 C   0  0  0  0  0  2  0  0  0  0  0  0
  196.5370  175.5790  140.7200 N   0  0  0  0  0  2  0  0  0  0  0  0
  197.1510  174.4970  138.7390 O   0  0  0  0  0  0  0  0  0  0  0  0
  196.2490  175.0490  139.4240 C   0  0  0  0  0  0  0  0  0  0  0  0
  194.8720  175.1590  138.8750 C   0  0  0  0  0  1  0  0  0  0  0  0
  1  7  1  6  0  0  0
  1 15  1  0  0  0  0
  2  5  1  0  0  0  0
  3  6  1  6  0  0  0
  3  2  1  0  0  0  0
  3  9  1  0  0  0  0
  4 14  1  0  0  0  0
  4 12  2  0  0  0  0
  5 12  1  0  0  0  0
  5 13  2  0  0  0  0
  9  8  1  6  0  0  0
  9  4  1  0  0  0  0
 10  6  1  0  0  0  0
 11  6  2  0  0  0  0
 11  8  1  0  0  0  0
 13  7  2  0  0  0  0
 15 17  1  0  0  0  0
 15 16  1  1  0  0  0
 17 18  1  0  0  0  0
 19 17  2  0  0  0  0
 19 20  1  0  0  0  0
 21 20  1  0  0  0  0
 22 21  1  0  0  0  0
 23 25  1  0  0  0  0
 23 24  1  0  0  0  0
 24 32  1  0  0  0  0
 26 29  1  0  0  0  0
 26 28  2  0  0  0  0
 27 24  2  0  0  0  0
 27 22  1  0  0  0  0
 28 27  1  0  0  0  0
 29 23  2  0  0  0  0
 32 31  2  0  0  0  0
 32 33  1  0  0  0  0
 33 30  1  0  0  0  0
 34  1  1  0  0  0  0
 34 35  1  0  0  0  0
 36 35  1  0  0  0  0
 37 36  1  0  0  0  0
 38 37  1  0  0  0  0
 39 38  1  0  0  0  0
 40 41  2  0  0  0  0
 41 39  1  0  0  0  0
 42 41  1  0  0  0  0
M  END
>  <MODEL>
6

>  <REMARK>
 VINA RESULT:      -6.3      1.935      3.059
  Name = 
  14 active torsions:
  status: ('A' for Active; 'I' for Inactive)
    1  A    between atoms: C_2  and  C_22
    2  A    between atoms: C_5  and  C_6
    3  A    between atoms: C_5  and  C_19
    4  A    between atoms: N_11  and  C_34
    5  A    between atoms: N_11  and  C_36
    6  A    between atoms: N_14  and  C_28
    7  A    between atoms: C_16  and  O_23
    8  A    between atoms: C_16  and  C_28
    9  A    between atoms: C_18  and  C_19
   10  A    between atoms: C_19  and  O_41
   11  A    between atoms: O_23  and  C_33
   12  A    between atoms: C_24  and  C_36
   13  A    between atoms: C_26  and  C_34
   14  A    between atoms: C_33  and  O_41
                            x       y       z     vdW  Elec       q    Type
                         _______ _______ _______ _____ _____    ______ ____

>  <TORSDO>
F 14

$$$$
=
 OpenBabel11042419223D

 42 44  0  0  1  0  0  0  0  0999 V2000
  190.1610  172.7700  142.5380 C   0  0  2  0  0  3  0  0  0  0  0  0
  194.2650  172.1820  144.5410 N   0  0  0  0  0  2  0  0  0  0  0  0
  195.5240  172.7000  144.9660 C   0  0  2  0  0  3  0  0  0  0  0  0
  194.4720  174.8040  145.7370 C   0  0  0  0  0  0  0  0  0  0  0  0
  193.1300  173.0420  144.6740 C   0  0  0  0  0  0  0  0  0  0  0  0
  196.4050  172.0240  145.6760 C   0  0  0  0  0  0  0  0  0  0  0  0
  190.7940  172.2610  143.8100 C   0  0  0  0  0  3  0  0  0  0  0  0
  196.7970  174.1180  146.2320 N   0  0  0  0  0  2  0  0  0  0  0  0
  195.7380  174.1530  145.2270 C   0  0  1  0  0  3  0  0  0  0  0  0
  196.3790  170.5540  145.9110 C   0  0  0  0  0  1  0  0  0  0  0  0
  197.1780  172.9250  146.4550 N   0  0  0  0  0  0  0  0  0  0  0  0
  193.2650  174.3210  145.4010 C   0  0  0  0  0  3  0  0  0  0  0  0
  191.9620  172.6510  144.2500 C   0  0  0  0  0  0  0  0  0  0  0  0
  194.5510  176.0540  146.4110 N   0  0  0  0  0  1  0  0  0  0  0  0
  189.1280  173.8970  142.7430 C   0  0  2  0  0  3  0  0  0  0  0  0
  188.4300  174.2570  141.4390 C   0  0  0  0  0  1  0  0  0  0  0  0
  189.7570  175.1300  143.3290 C   0  0  0  0  0  0  0  0  0  0  0  0
  190.8480  175.8440  142.5850 C   0  0  0  0  0  1  0  0  0  0  0  0
  189.3100  175.5740  144.5120 C   0  0  0  0  0  3  0  0  0  0  0  0
  189.8490  176.7900  145.2000 C   0  0  0  0  0  2  0  0  0  0  0  0
  188.8830  177.2810  146.1670 N   0  0  0  0  0  2  0  0  0  0  0  0
  187.7220  176.4150  146.0720 C   0  0  0  0  0  2  0  0  0  0  0  0
  184.6130  178.3310  144.9250 C   0  0  0  0  0  0  0  0  0  0  0  0
  185.8280  177.6140  144.8450 C   0  0  0  0  0  0  0  0  0  0  0  0
  183.9440  178.7390  143.7760 O   0  0  0  0  0  1  0  0  0  0  0  0
  184.7110  178.2870  147.3440 C   0  0  0  0  0  3  0  0  0  0  0  0
  186.4770  177.2400  146.0520 C   0  0  0  0  0  0  0  0  0  0  0  0
  185.9070  177.5760  147.2840 C   0  0  0  0  0  3  0  0  0  0  0  0
  184.0670  178.6630  146.1660 C   0  0  0  0  0  3  0  0  0  0  0  0
  187.8850  177.8480  141.5620 C   0  0  0  0  0  1  0  0  0  0  0  0
  186.0430  176.2010  142.9390 O   0  0  0  0  0  0  0  0  0  0  0  0
  186.3970  177.2660  143.5160 C   0  0  0  0  0  0  0  0  0  0  0  0
  187.3280  178.1410  142.8720 N   0  0  0  0  0  2  0  0  0  0  0  0
  189.5870  171.6920  141.8570 O   0  0  0  0  0  0  0  0  0  0  0  0
  190.6640  171.0120  141.2810 C   0  0  0  0  0  2  0  0  0  0  0  0
  190.5710  169.6530  141.5830 O   0  0  0  0  0  0  0  0  0  0  0  0
  190.9930  169.0060  140.4220 C   0  0  0  0  0  2  0  0  0  0  0  0
  192.3910  168.4530  140.6310 C   0  0  0  0  0  2  0  0  0  0  0  0
  192.6090  168.1660  142.0400 N   0  0  0  0  0  2  0  0  0  0  0  0
  194.2840  169.7740  142.3270 O   0  0  0  0  0  0  0  0  0  0  0  0
  193.5600  168.8770  142.8360 C   0  0  0  0  0  0  0  0  0  0  0  0
  193.7040  168.5460  144.2780 C   0  0  0  0  0  1  0  0  0  0  0  0
  1 15  1  0  0  0  0
  1  7  1  1  0  0  0
  2  5  1  0  0  0  0
  3  2  1  1  0  0  0
  3  9  1  0  0  0  0
  3  6  1  0  0  0  0
  4 14  1  0  0  0  0
  5 12  1  0  0  0  0
  6 10  1  0  0  0  0
  6 11  2  0  0  0  0
  7 13  2  0  0  0  0
  8 11  1  0  0  0  0
  9  4  1  1  0  0  0
  9  8  1  0  0  0  0
 12  4  2  0  0  0  0
 13  5  2  0  0  0  0
 15 16  1  6  0  0  0
 15 17  1  0  0  0  0
 17 19  2  0  0  0  0
 18 17  1  0  0  0  0
 19 20  1  0  0  0  0
 20 21  1  0  0  0  0
 22 21  1  0  0  0  0
 23 29  1  0  0  0  0
 24 23  2  0  0  0  0
 24 27  1  0  0  0  0
 25 23  1  0  0  0  0
 27 22  1  0  0  0  0
 27 28  2  0  0  0  0
 28 26  1  0  0  0  0
 29 26  2  0  0  0  0
 30 33  1  0  0  0  0
 31 32  2  0  0  0  0
 32 24  1  0  0  0  0
 33 32  1  0  0  0  0
 34  1  1  0  0  0  0
 35 36  1  0  0  0  0
 35 34  1  0  0  0  0
 37 38  1  0  0  0  0
 37 36  1  0  0  0  0
 38 39  1  0  0  0  0
 39 41  1  0  0  0  0
 40 41  2  0  0  0  0
 41 42  1  0  0  0  0
M  END
>  <MODEL>
7

>  <REMARK>
 VINA RESULT:      -6.3      2.641      5.269
  Name = 
  14 active torsions:
  status: ('A' for Active; 'I' for Inactive)
    1  A    between atoms: C_2  and  C_22
    2  A    between atoms: C_5  and  C_6
    3  A    between atoms: C_5  and  C_19
    4  A    between atoms: N_11  and  C_34
    5  A    between atoms: N_11  and  C_36
    6  A    between atoms: N_14  and  C_28
    7  A    between atoms: C_16  and  O_23
    8  A    between atoms: C_16  and  C_28
    9  A    between atoms: C_18  and  C_19
   10  A    between atoms: C_19  and  O_41
   11  A    between atoms: O_23  and  C_33
   12  A    between atoms: C_24  and  C_36
   13  A    between atoms: C_26  and  C_34
   14  A    between atoms: C_33  and  O_41
                            x       y       z     vdW  Elec       q    Type
                         _______ _______ _______ _____ _____    ______ ____

>  <TORSDO>
F 14

$$$$
=
 OpenBabel11042419223D

 42 44  0  0  1  0  0  0  0  0999 V2000
  193.6120  174.6280  145.8000 C   0  0  2  0  0  3  0  0  0  0  0  0
  190.2440  173.7820  142.7780 N   0  0  0  0  0  2  0  0  0  0  0  0
  189.7580  173.7510  141.4370 C   0  0  2  0  0  3  0  0  0  0  0  0
  191.9150  172.8630  140.6080 C   0  0  0  0  0  0  0  0  0  0  0  0
  191.6070  173.4020  142.9850 C   0  0  0  0  0  0  0  0  0  0  0  0
  188.5860  173.2640  141.0810 C   0  0  0  0  0  0  0  0  0  0  0  0
  192.6520  173.5460  145.3720 C   0  0  0  0  0  3  0  0  0  0  0  0
  189.8270  172.9750  139.2860 N   0  0  0  0  0  2  0  0  0  0  0  0
  190.6730  173.6540  140.2630 C   0  0  1  0  0  3  0  0  0  0  0  0
  187.4710  172.9340  142.0120 C   0  0  0  0  0  1  0  0  0  0  0  0
  188.6560  172.7860  139.7470 N   0  0  0  0  0  0  0  0  0  0  0  0
  192.3810  172.8260  141.8660 C   0  0  0  0  0  3  0  0  0  0  0  0
  192.1280  173.4660  144.1770 C   0  0  0  0  0  0  0  0  0  0  0  0
  192.7120  172.3200  139.5620 N   0  0  0  0  0  1  0  0  0  0  0  0
  192.9710  176.0210  145.9760 C   0  0  2  0  0  3  0  0  0  0  0  0
  193.8820  176.9600  146.7550 C   0  0  0  0  0  1  0  0  0  0  0  0
  191.6360  175.9380  146.6610 C   0  0  0  0  0  0  0  0  0  0  0  0
  191.5450  175.4280  148.0710 C   0  0  0  0  0  1  0  0  0  0  0  0
  190.5480  176.3400  145.9910 C   0  0  0  0  0  3  0  0  0  0  0  0
  189.1640  176.3100  146.5600 C   0  0  0  0  0  2  0  0  0  0  0  0
  188.1860  176.3250  145.4870 N   0  0  0  0  0  2  0  0  0  0  0  0
  188.3160  177.6100  144.8240 C   0  0  0  0  0  2  0  0  0  0  0  0
  185.8440  178.1210  141.9460 C   0  0  0  0  0  0  0  0  0  0  0  0
  186.3710  178.1500  143.2580 C   0  0  0  0  0  0  0  0  0  0  0  0
  184.5960  178.6650  141.6620 O   0  0  0  0  0  1  0  0  0  0  0  0
  187.8110  176.9550  141.1490 C   0  0  0  0  0  3  0  0  0  0  0  0
  187.6420  177.5620  143.4910 C   0  0  0  0  0  0  0  0  0  0  0  0
  188.3480  176.9790  142.4340 C   0  0  0  0  0  3  0  0  0  0  0  0
  186.5630  177.5260  140.9070 C   0  0  0  0  0  3  0  0  0  0  0  0
  184.0690  178.5780  146.3530 C   0  0  0  0  0  1  0  0  0  0  0  0
  185.5660  180.0460  144.4540 O   0  0  0  0  0  0  0  0  0  0  0  0
  185.5950  178.7880  144.3540 C   0  0  0  0  0  0  0  0  0  0  0  0
  184.8600  177.9890  145.2850 N   0  0  0  0  0  2  0  0  0  0  0  0
  194.6670  174.6830  144.8830 O   0  0  0  0  0  0  0  0  0  0  0  0
  195.7600  174.1300  145.5550 C   0  0  0  0  0  2  0  0  0  0  0  0
  196.0880  172.9030  144.9790 O   0  0  0  0  0  0  0  0  0  0  0  0
  196.8270  172.2410  145.9590 C   0  0  0  0  0  2  0  0  0  0  0  0
  196.9980  170.7840  145.5660 C   0  0  0  0  0  2  0  0  0  0  0  0
  196.4290  169.9210  146.5900 N   0  0  0  0  0  2  0  0  0  0  0  0
  194.2940  169.8420  145.6360 O   0  0  0  0  0  0  0  0  0  0  0  0
  195.0720  169.4720  146.5550 C   0  0  0  0  0  0  0  0  0  0  0  0
  194.5710  168.5660  147.6220 C   0  0  0  0  0  1  0  0  0  0  0  0
  1  7  1  6  0  0  0
  1 15  1  0  0  0  0
  2  5  1  0  0  0  0
  3  6  1  1  0  0  0
  3  2  1  0  0  0  0
  4 12  2  0  0  0  0
  5 13  2  0  0  0  0
  6 10  1  0  0  0  0
  8 11  1  0  0  0  0
  9  8  1  6  0  0  0
  9  4  1  0  0  0  0
  9  3  1  0  0  0  0
 11  6  2  0  0  0  0
 12  5  1  0  0  0  0
 13  7  2  0  0  0  0
 14  4  1  0  0  0  0
 15 17  1  0  0  0  0
 15 16  1  1  0  0  0
 17 18  1  0  0  0  0
 19 20  1  0  0  0  0
 19 17  2  0  0  0  0
 21 20  1  0  0  0  0
 22 21  1  0  0  0  0
 23 24  1  0  0  0  0
 24 27  2  0  0  0  0
 24 32  1  0  0  0  0
 25 23  1  0  0  0  0
 26 28  2  0  0  0  0
 27 22  1  0  0  0  0
 28 27  1  0  0  0  0
 29 26  1  0  0  0  0
 29 23  2  0  0  0  0
 32 31  2  0  0  0  0
 32 33  1  0  0  0  0
 33 30  1  0  0  0  0
 34 35  1  0  0  0  0
 34  1  1  0  0  0  0
 36 35  1  0  0  0  0
 36 37  1  0  0  0  0
 38 37  1  0  0  0  0
 38 39  1  0  0  0  0
 40 41  2  0  0  0  0
 41 39  1  0  0  0  0
 41 42  1  0  0  0  0
M  END
>  <MODEL>
8

>  <REMARK>
 VINA RESULT:      -6.3      2.115      3.406
  Name = 
  14 active torsions:
  status: ('A' for Active; 'I' for Inactive)
    1  A    between atoms: C_2  and  C_22
    2  A    between atoms: C_5  and  C_6
    3  A    between atoms: C_5  and  C_19
    4  A    between atoms: N_11  and  C_34
    5  A    between atoms: N_11  and  C_36
    6  A    between atoms: N_14  and  C_28
    7  A    between atoms: C_16  and  O_23
    8  A    between atoms: C_16  and  C_28
    9  A    between atoms: C_18  and  C_19
   10  A    between atoms: C_19  and  O_41
   11  A    between atoms: O_23  and  C_33
   12  A    between atoms: C_24  and  C_36
   13  A    between atoms: C_26  and  C_34
   14  A    between atoms: C_33  and  O_41
                            x       y       z     vdW  Elec       q    Type
                         _______ _______ _______ _____ _____    ______ ____

>  <TORSDO>
F 14

$$$$
=
 OpenBabel11042419223D

 42 44  0  0  1  0  0  0  0  0999 V2000
  190.7560  173.3330  143.0200 C   0  0  2  0  0  3  0  0  0  0  0  0
  194.0690  174.4920  140.0410 N   0  0  0  0  0  2  0  0  0  0  0  0
  195.2410  175.2380  139.7170 C   0  0  2  0  0  3  0  0  0  0  0  0
  196.1930  174.8470  141.9680 C   0  0  0  0  0  0  0  0  0  0  0  0
  193.9680  173.9890  141.3760 C   0  0  0  0  0  0  0  0  0  0  0  0
  195.9290  175.0960  138.6020 C   0  0  0  0  0  0  0  0  0  0  0  0
  191.8130  172.7240  142.1320 C   0  0  0  0  0  3  0  0  0  0  0  0
  197.4370  175.7870  140.0490 N   0  0  0  0  0  2  0  0  0  0  0  0
  196.1650  175.7620  140.7650 C   0  0  1  0  0  3  0  0  0  0  0  0
  195.4650  174.3650  137.3900 C   0  0  0  0  0  1  0  0  0  0  0  0
  197.2870  175.4370  138.8350 N   0  0  0  0  0  0  0  0  0  0  0  0
  195.1290  174.0920  142.2850 C   0  0  0  0  0  3  0  0  0  0  0  0
  192.8970  173.3510  141.7530 C   0  0  0  0  0  0  0  0  0  0  0  0
  197.2730  174.9350  142.8900 N   0  0  0  0  0  1  0  0  0  0  0  0
  190.7620  172.8120  144.4730 C   0  0  2  0  0  3  0  0  0  0  0  0
  189.6210  171.8360  144.7200 C   0  0  0  0  0  1  0  0  0  0  0  0
  190.6800  173.9370  145.4680 C   0  0  0  0  0  0  0  0  0  0  0  0
  191.8800  174.8030  145.7230 C   0  0  0  0  0  1  0  0  0  0  0  0
  189.5180  174.1470  146.0990 C   0  0  0  0  0  3  0  0  0  0  0  0
  189.3060  175.2330  147.1080 C   0  0  0  0  0  2  0  0  0  0  0  0
  188.1370  176.0180  146.7540 N   0  0  0  0  0  2  0  0  0  0  0  0
  188.6080  177.3620  146.4730 C   0  0  0  0  0  2  0  0  0  0  0  0
  187.7300  178.0440  142.8100 C   0  0  0  0  0  0  0  0  0  0  0  0
  187.5470  177.7810  144.1870 C   0  0  0  0  0  0  0  0  0  0  0  0
  186.6430  178.2410  141.9670 O   0  0  0  0  0  1  0  0  0  0  0  0
  190.1330  177.8870  143.0690 C   0  0  0  0  0  3  0  0  0  0  0  0
  188.6940  177.5690  144.9960 C   0  0  0  0  0  0  0  0  0  0  0  0
  189.9710  177.6310  144.4290 C   0  0  0  0  0  3  0  0  0  0  0  0
  189.0140  178.0920  142.2640 C   0  0  0  0  0  3  0  0  0  0  0  0
  184.2570  178.8900  145.9210 C   0  0  0  0  0  1  0  0  0  0  0  0
  185.5270  176.6500  144.7510 O   0  0  0  0  0  0  0  0  0  0  0  0
  186.1740  177.7340  144.7560 C   0  0  0  0  0  0  0  0  0  0  0  0
  185.5860  178.9040  145.3320 N   0  0  0  0  0  2  0  0  0  0  0  0
  189.5030  173.1350  142.4300 O   0  0  0  0  0  0  0  0  0  0  0  0
  189.1200  174.3950  141.9640 C   0  0  0  0  0  2  0  0  0  0  0  0
  188.9690  174.3520  140.5770 O   0  0  0  0  0  0  0  0  0  0  0  0
  188.2240  173.1970  140.3410 C   0  0  0  0  0  2  0  0  0  0  0  0
  188.5290  172.6750  138.9490 C   0  0  0  0  0  2  0  0  0  0  0  0
  189.6460  171.7440  138.9990 N   0  0  0  0  0  2  0  0  0  0  0  0
  191.2530  173.3060  138.3310 O   0  0  0  0  0  0  0  0  0  0  0  0
  190.9880  172.1300  138.6950 C   0  0  0  0  0  0  0  0  0  0  0  0
  192.0810  171.1280  138.7980 C   0  0  0  0  0  1  0  0  0  0  0  0
  1  7  1  6  0  0  0
  1 15  1  0  0  0  0
  2  5  1  0  0  0  0
  3  6  1  6  0  0  0
  3  2  1  0  0  0  0
  3  9  1  0  0  0  0
  4 12  2  0  0  0  0
  4 14  1  0  0  0  0
  5 13  2  0  0  0  0
  5 12  1  0  0  0  0
  6 11  2  0  0  0  0
  9  8  1  6  0  0  0
  9  4  1  0  0  0  0
 10  6  1  0  0  0  0
 11  8  1  0  0  0  0
 13  7  2  0  0  0  0
 15 16  1  6  0  0  0
 15 17  1  0  0  0  0
 17 18  1  0  0  0  0
 17 19  2  0  0  0  0
 19 20  1  0  0  0  0
 21 20  1  0  0  0  0
 22 21  1  0  0  0  0
 23 24  1  0  0  0  0
 24 32  1  0  0  0  0
 24 27  2  0  0  0  0
 25 23  1  0  0  0  0
 26 28  2  0  0  0  0
 27 22  1  0  0  0  0
 28 27  1  0  0  0  0
 29 23  2  0  0  0  0
 29 26  1  0  0  0  0
 31 32  2  0  0  0  0
 32 33  1  0  0  0  0
 33 30  1  0  0  0  0
 34  1  1  0  0  0  0
 35 34  1  0  0  0  0
 36 35  1  0  0  0  0
 37 36  1  0  0  0  0
 38 39  1  0  0  0  0
 38 37  1  0  0  0  0
 40 41  2  0  0  0  0
 41 42  1  0  0  0  0
 41 39  1  0  0  0  0
M  END
>  <MODEL>
9

>  <REMARK>
 VINA RESULT:      -6.3      2.652      5.266
  Name = 
  14 active torsions:
  status: ('A' for Active; 'I' for Inactive)
    1  A    between atoms: C_2  and  C_22
    2  A    between atoms: C_5  and  C_6
    3  A    between atoms: C_5  and  C_19
    4  A    between atoms: N_11  and  C_34
    5  A    between atoms: N_11  and  C_36
    6  A    between atoms: N_14  and  C_28
    7  A    between atoms: C_16  and  O_23
    8  A    between atoms: C_16  and  C_28
    9  A    between atoms: C_18  and  C_19
   10  A    between atoms: C_19  and  O_41
   11  A    between atoms: O_23  and  C_33
   12  A    between atoms: C_24  and  C_36
   13  A    between atoms: C_26  and  C_34
   14  A    between atoms: C_33  and  O_41
                            x       y       z     vdW  Elec       q    Type
                         _______ _______ _______ _____ _____    ______ ____

>  <TORSDO>
F 14

$$$$
