=
 OpenBabel11042414273D

 41 44  0  0  1  0  0  0  0  0999 V2000
  193.4830  175.4370  143.3030 C   0  0  1  0  0  3  0  0  0  0  0  0
  188.8090  173.9750  141.5750 C   0  0  1  0  0  3  0  0  0  0  0  0
  187.5520  173.1300  141.7270 C   0  0  0  0  0  1  0  0  0  0  0  0
  192.1080  177.5340  143.7000 C   0  0  0  0  0  2  0  0  0  0  0  0
  190.1110  172.0040  142.0110 O   0  0  0  0  0  0  0  0  0  0  0  0
  191.0910  174.0050  142.6730 N   0  0  0  0  0  2  0  0  0  0  0  0
  190.8930  178.2380  143.1680 C   0  0  0  0  0  3  0  0  0  0  0  0
  188.6020  175.3320  142.2680 C   0  0  1  0  0  3  0  0  0  0  0  0
  191.0290  175.4280  142.8160 C   0  0  0  0  0  0  0  0  0  0  0  0
  189.8580  177.5610  142.6740 C   0  0  0  0  0  3  0  0  0  0  0  0
  190.0090  173.2580  142.1160 C   0  0  0  0  0  0  0  0  0  0  0  0
  189.8860  176.0900  142.5570 C   0  0  0  0  0  0  0  0  0  0  0  0
  192.2130  176.1590  143.1960 N   0  0  0  0  0  0  0  0  0  0  0  0
  186.1380  176.4910  143.2870 O   0  0  0  0  0  0  0  0  0  0  0  0
  185.6000  177.5030  141.2690 N   0  0  0  0  0  1  0  0  0  0  0  0
  187.6430  176.1500  141.5240 N   0  0  0  0  0  2  0  0  0  0  0  0
  186.4500  176.7100  142.0860 C   0  0  0  0  0  0  0  0  0  0  0  0
  196.0110  173.9660  140.7560 C   0  0  0  0  0  2  0  0  0  0  0  0
  196.2900  176.4210  141.4700 C   0  0  0  0  0  2  0  0  0  0  0  0
  194.7630  176.4310  141.3550 C   0  0  0  0  0  2  0  0  0  0  0  0
  196.9130  175.2080  140.7510 C   0  0  2  0  0  3  0  0  0  0  0  0
  194.1350  175.1570  141.9430 C   0  0  1  0  0  3  0  0  0  0  0  0
  195.0880  173.9490  141.9700 C   0  0  0  0  0  2  0  0  0  0  0  0
  197.2710  175.5550  139.3120 C   0  0  0  0  0  2  0  0  0  0  0  0
  196.7060  174.5340  138.3350 C   0  0  0  0  0  2  0  0  0  0  0  0
  195.7820  175.2060  137.3380 C   0  0  0  0  0  1  0  0  0  0  0  0
  194.4270  176.1200  144.2840 C   0  0  0  0  0  2  0  0  0  0  0  0
  194.4350  175.3740  145.6050 C   0  0  1  0  0  3  0  0  0  0  0  0
  195.4170  173.0770  145.5310 C   0  0  0  0  0  1  0  0  0  0  0  0
  195.7110  174.5530  145.7320 C   0  0  0  0  0  2  0  0  0  0  0  0
  194.3670  176.3430  146.6900 N   0  0  0  0  0  2  0  0  0  0  0  0
  192.9660  176.5480  147.0310 C   0  0  0  0  0  2  0  0  0  0  0  0
  192.1660  175.2780  146.7750 C   0  0  0  0  0  2  0  0  0  0  0  0
  190.2410  176.7460  147.3100 C   0  0  0  0  0  2  0  0  0  0  0  0
  189.3340  176.6410  146.1090 C   0  0  1  0  0  3  0  0  0  0  0  0
  188.9340  175.2460  145.9630 N   0  0  0  0  0  2  0  0  0  0  0  0
  190.8210  175.3670  147.4760 C   0  0  1  0  0  3  0  0  0  0  0  0
  189.8310  174.4480  146.7930 C   0  0  0  0  0  2  0  0  0  0  0  0
  188.1130  177.5210  146.3130 C   0  0  0  0  0  2  0  0  0  0  0  0
  185.8840  177.2880  147.2780 C   0  0  0  0  0  2  0  0  0  0  0  0
  186.9410  176.6990  146.7260 C   0  0  0  0  0  3  0  0  0  0  0  0
  1 27  1  1  0  0  0
  2  3  1  1  0  0  0
  2 11  1  0  0  0  0
  2  8  1  0  0  0  0
  5 11  2  0  0  0  0
  6  9  1  0  0  0  0
  7  4  1  0  0  0  0
  8 16  1  6  0  0  0
  8 12  1  0  0  0  0
  9 13  1  0  0  0  0
 10  7  2  0  0  0  0
 11  6  1  0  0  0  0
 12 10  1  0  0  0  0
 12  9  2  0  0  0  0
 13  1  1  0  0  0  0
 13  4  1  0  0  0  0
 15 17  1  0  0  0  0
 16 17  1  0  0  0  0
 17 14  2  0  0  0  0
 18 23  1  0  0  0  0
 20 19  1  0  0  0  0
 20 22  1  0  0  0  0
 21 24  1  6  0  0  0
 21 18  1  0  0  0  0
 21 19  1  0  0  0  0
 22 23  1  0  0  0  0
 22  1  1  1  0  0  0
 25 24  1  0  0  0  0
 26 25  1  0  0  0  0
 28 27  1  6  0  0  0
 28 30  1  0  0  0  0
 28 31  1  0  0  0  0
 29 30  1  0  0  0  0
 31 32  1  0  0  0  0
 33 32  1  0  0  0  0
 34 37  1  0  0  0  0
 35 39  1  1  0  0  0
 35 34  1  0  0  0  0
 36 35  1  0  0  0  0
 36 38  1  0  0  0  0
 37 33  1  6  0  0  0
 38 37  1  0  0  0  0
 39 41  1  0  0  0  0
 41 40  2  0  0  0  0
M  END
>  <MODEL>
1

>  <REMARK>
 VINA RESULT:      -6.6      0.000      0.000
  Name = 
  14 active torsions:
  status: ('A' for Active; 'I' for Inactive)
    1  A    between atoms: C_4  and  C_21
    2  A    between atoms: C_4  and  C_35
    3  A    between atoms: C_12  and  C_31
    4  A    between atoms: C_15  and  C_31
    5  A    between atoms: C_16  and  N_28
    6  A    between atoms: N_18  and  C_21
    7  A    between atoms: N_18  and  C_39
    8  A    between atoms: C_24  and  C_26
    9  A    between atoms: C_25  and  C_30
   10  A    between atoms: C_26  and  C_34
   11  A    between atoms: C_30  and  C_32
   12  A    between atoms: C_30  and  N_38
   13  A    between atoms: C_32  and  C_39
   14  A    between atoms: C_36  and  C_39
                            x       y       z     vdW  Elec       q    Type
                         _______ _______ _______ _____ _____    ______ ____

>  <TORSDO>
F 14

$$$$
=
 OpenBabel11042414273D

 41 44  0  0  1  0  0  0  0  0999 V2000
  190.6830  173.8270  143.9260 C   0  0  1  0  0  3  0  0  0  0  0  0
  187.5120  177.9240  143.5630 C   0  0  1  0  0  3  0  0  0  0  0  0
  186.2730  178.5840  142.9740 C   0  0  0  0  0  1  0  0  0  0  0  0
  189.5870  173.8350  146.2160 C   0  0  0  0  0  2  0  0  0  0  0  0
  188.1180  177.2310  141.3440 O   0  0  0  0  0  0  0  0  0  0  0  0
  188.8370  175.8280  143.0510 N   0  0  0  0  0  0  0  0  0  0  0  0
  188.9440  174.7830  147.1870 C   0  0  0  0  0  3  0  0  0  0  0  0
  187.1410  177.2130  144.8740 C   0  0  1  0  0  3  0  0  0  0  0  0
  188.8900  175.4930  144.4430 C   0  0  0  0  0  0  0  0  0  0  0  0
  188.2560  175.8440  146.7700 C   0  0  0  0  0  3  0  0  0  0  0  0
  188.1360  176.9780  142.5800 C   0  0  0  0  0  0  0  0  0  0  0  0
  188.1560  176.1820  145.3370 C   0  0  2  0  0  3  0  0  0  0  0  0
  189.7690  174.4430  144.8920 N   0  0  0  0  0  0  0  0  0  0  0  0
  184.6500  177.4740  146.3500 O   0  0  0  0  0  0  0  0  0  0  0  0
  185.4220  179.2410  147.6410 N   0  0  0  0  0  1  0  0  0  0  0  0
  186.8390  178.1890  145.9230 N   0  0  0  0  0  2  0  0  0  0  0  0
  185.5950  178.2590  146.6290 C   0  0  0  0  0  0  0  0  0  0  0  0
  193.8660  175.0570  145.7700 C   0  0  0  0  0  2  0  0  0  0  0  0
  192.5280  176.7590  144.3800 C   0  0  0  0  0  2  0  0  0  0  0  0
  192.4240  175.5910  143.3970 C   0  0  0  0  0  2  0  0  0  0  0  0
  193.6420  176.5360  145.4230 C   0  0  2  0  0  3  0  0  0  0  0  0
  192.1420  174.2600  144.1140 C   0  0  1  0  0  3  0  0  0  0  0  0
  192.5910  174.2390  145.5860 C   0  0  0  0  0  2  0  0  0  0  0  0
  194.9570  177.1400  144.9500 C   0  0  0  0  0  2  0  0  0  0  0  0
  195.8640  176.0860  144.3310 C   0  0  0  0  0  2  0  0  0  0  0  0
  196.2840  176.4990  142.9340 C   0  0  0  0  0  1  0  0  0  0  0  0
  190.5130  172.3140  143.8900 C   0  0  0  0  0  2  0  0  0  0  0  0
  190.4030  171.8350  142.4550 C   0  0  1  0  0  3  0  0  0  0  0  0
  188.7730  172.8400  140.8490 C   0  0  0  0  0  1  0  0  0  0  0  0
  190.1170  173.0120  141.5340 C   0  0  0  0  0  2  0  0  0  0  0  0
  191.6600  171.2080  142.0730 N   0  0  0  0  0  2  0  0  0  0  0  0
  192.4010  172.1430  141.2370 C   0  0  0  0  0  2  0  0  0  0  0  0
  193.8900  171.8250  141.2780 C   0  0  0  0  0  2  0  0  0  0  0  0
  195.1790  172.6610  143.2240 C   0  0  0  0  0  2  0  0  0  0  0  0
  196.5900  172.1820  142.9840 C   0  0  1  0  0  3  0  0  0  0  0  0
  197.0570  172.7590  141.7280 N   0  0  0  0  0  2  0  0  0  0  0  0
  194.6510  173.0050  141.8570 C   0  0  1  0  0  3  0  0  0  0  0  0
  195.8860  173.2710  141.0230 C   0  0  0  0  0  2  0  0  0  0  0  0
  197.4820  172.6220  144.1310 C   0  0  0  0  0  2  0  0  0  0  0  0
  197.0910  173.3890  146.4140 C   0  0  0  0  0  2  0  0  0  0  0  0
  196.7310  172.5840  145.4180 C   0  0  0  0  0  3  0  0  0  0  0  0
  1 27  1  1  0  0  0
  1 13  1  0  0  0  0
  2  3  1  6  0  0  0
  2  8  1  0  0  0  0
  4  7  1  0  0  0  0
  5 11  2  0  0  0  0
  6  9  2  0  0  0  0
  8 12  1  0  0  0  0
  8 16  1  1  0  0  0
  9 13  1  0  0  0  0
  9 12  1  0  0  0  0
 10  7  2  0  0  0  0
 11  6  1  0  0  0  0
 11  2  1  0  0  0  0
 12 10  1  6  0  0  0
 13  4  1  0  0  0  0
 14 17  2  0  0  0  0
 16 17  1  0  0  0  0
 17 15  1  0  0  0  0
 19 21  1  0  0  0  0
 20 22  1  0  0  0  0
 20 19  1  0  0  0  0
 21 24  1  6  0  0  0
 21 18  1  0  0  0  0
 22  1  1  1  0  0  0
 22 23  1  0  0  0  0
 23 18  1  0  0  0  0
 25 24  1  0  0  0  0
 26 25  1  0  0  0  0
 28 30  1  6  0  0  0
 28 27  1  0  0  0  0
 29 30  1  0  0  0  0
 31 28  1  0  0  0  0
 32 33  1  0  0  0  0
 32 31  1  0  0  0  0
 35 34  1  0  0  0  0
 35 39  1  1  0  0  0
 36 35  1  0  0  0  0
 37 33  1  6  0  0  0
 37 34  1  0  0  0  0
 38 36  1  0  0  0  0
 38 37  1  0  0  0  0
 39 41  1  0  0  0  0
 41 40  2  0  0  0  0
M  END
>  <MODEL>
2

>  <REMARK>
 VINA RESULT:      -6.5      2.346      6.352
  Name = 
  14 active torsions:
  status: ('A' for Active; 'I' for Inactive)
    1  A    between atoms: C_4  and  C_21
    2  A    between atoms: C_4  and  C_35
    3  A    between atoms: C_12  and  C_31
    4  A    between atoms: C_15  and  C_31
    5  A    between atoms: C_16  and  N_28
    6  A    between atoms: N_18  and  C_21
    7  A    between atoms: N_18  and  C_39
    8  A    between atoms: C_24  and  C_26
    9  A    between atoms: C_25  and  C_30
   10  A    between atoms: C_26  and  C_34
   11  A    between atoms: C_30  and  C_32
   12  A    between atoms: C_30  and  N_38
   13  A    between atoms: C_32  and  C_39
   14  A    between atoms: C_36  and  C_39
                            x       y       z     vdW  Elec       q    Type
                         _______ _______ _______ _____ _____    ______ ____

>  <TORSDO>
F 14

$$$$
=
 OpenBabel11042414273D

 41 44  0  0  1  0  0  0  0  0999 V2000
  190.9640  175.8990  144.9790 C   0  0  1  0  0  3  0  0  0  0  0  0
  185.9020  176.6880  145.8240 C   0  0  1  0  0  3  0  0  0  0  0  0
  184.7860  177.3790  146.5940 C   0  0  0  0  0  1  0  0  0  0  0  0
  190.2830  177.1590  142.8840 C   0  0  0  0  0  2  0  0  0  0  0  0
  186.9550  176.1870  147.9230 O   0  0  0  0  0  0  0  0  0  0  0  0
  188.4050  176.4500  146.1260 N   0  0  0  0  0  2  0  0  0  0  0  0
  189.0780  177.4040  142.0220 C   0  0  0  0  0  3  0  0  0  0  0  0
  186.2620  177.5230  144.5840 C   0  0  1  0  0  3  0  0  0  0  0  0
  188.6240  176.7480  144.7420 C   0  0  0  0  0  0  0  0  0  0  0  0
  187.8520  177.4490  142.5400 C   0  0  0  0  0  3  0  0  0  0  0  0
  187.0970  176.4570  146.6990 C   0  0  0  0  0  0  0  0  0  0  0  0
  187.6100  177.1840  143.9720 C   0  0  0  0  0  0  0  0  0  0  0  0
  189.9270  176.5360  144.1640 N   0  0  0  0  0  0  0  0  0  0  0  0
  184.3580  179.6290  143.9580 O   0  0  0  0  0  0  0  0  0  0  0  0
  183.2860  178.3830  142.3200 N   0  0  0  0  0  1  0  0  0  0  0  0
  185.1850  177.4680  143.5940 N   0  0  0  0  0  2  0  0  0  0  0  0
  184.2860  178.5470  143.3160 C   0  0  0  0  0  0  0  0  0  0  0  0
  192.1640  173.0380  142.6510 C   0  0  0  0  0  2  0  0  0  0  0  0
  189.6330  173.4090  142.9220 C   0  0  0  0  0  2  0  0  0  0  0  0
  190.0120  173.6260  144.3890 C   0  0  0  0  0  2  0  0  0  0  0  0
  190.7570  172.7050  142.1350 C   0  0  2  0  0  3  0  0  0  0  0  0
  191.2910  174.4680  144.5320 C   0  0  1  0  0  3  0  0  0  0  0  0
  192.2110  174.4180  143.3000 C   0  0  0  0  0  2  0  0  0  0  0  0
  190.5670  171.1950  142.1510 C   0  0  0  0  0  2  0  0  0  0  0  0
  191.7040  170.4970  142.8830 C   0  0  0  0  0  2  0  0  0  0  0  0
  192.1130  169.2330  142.1510 C   0  0  0  0  0  1  0  0  0  0  0  0
  192.2010  176.7820  145.0910 C   0  0  0  0  0  2  0  0  0  0  0  0
  192.7700  176.7080  146.4960 C   0  0  1  0  0  3  0  0  0  0  0  0
  191.3720  177.1190  148.5260 C   0  0  0  0  0  1  0  0  0  0  0  0
  191.7370  176.1180  147.4450 C   0  0  0  0  0  2  0  0  0  0  0  0
  193.9560  175.8650  146.4760 N   0  0  0  0  0  2  0  0  0  0  0  0
  194.7490  176.2200  145.3070 C   0  0  0  0  0  2  0  0  0  0  0  0
  195.5260  175.0100  144.8060 C   0  0  0  0  0  2  0  0  0  0  0  0
  194.9120  172.6900  145.4320 C   0  0  0  0  0  2  0  0  0  0  0  0
  196.0260  171.8360  144.8780 C   0  0  1  0  0  3  0  0  0  0  0  0
  197.2750  172.2600  145.5010 N   0  0  0  0  0  2  0  0  0  0  0  0
  195.5890  173.9520  145.8960 C   0  0  1  0  0  3  0  0  0  0  0  0
  197.0300  173.5530  146.1320 C   0  0  0  0  0  2  0  0  0  0  0  0
  195.7510  170.3750  145.1860 C   0  0  0  0  0  2  0  0  0  0  0  0
  195.9570  169.0640  147.2330 C   0  0  0  0  0  2  0  0  0  0  0  0
  196.5000  169.9490  146.4020 C   0  0  0  0  0  3  0  0  0  0  0  0
  1 27  1  6  0  0  0
  2  3  1  1  0  0  0
  2 11  1  0  0  0  0
  4 13  1  0  0  0  0
  6 11  1  0  0  0  0
  7 10  2  0  0  0  0
  7  4  1  0  0  0  0
  8 16  1  6  0  0  0
  8  2  1  0  0  0  0
  9  6  1  0  0  0  0
 10 12  1  0  0  0  0
 11  5  2  0  0  0  0
 12  8  1  0  0  0  0
 12  9  2  0  0  0  0
 13  9  1  0  0  0  0
 13  1  1  0  0  0  0
 15 17  1  0  0  0  0
 17 16  1  0  0  0  0
 17 14  2  0  0  0  0
 18 23  1  0  0  0  0
 19 20  1  0  0  0  0
 20 22  1  0  0  0  0
 21 24  1  1  0  0  0
 21 18  1  0  0  0  0
 21 19  1  0  0  0  0
 22  1  1  6  0  0  0
 23 22  1  0  0  0  0
 24 25  1  0  0  0  0
 26 25  1  0  0  0  0
 28 27  1  6  0  0  0
 28 30  1  0  0  0  0
 30 29  1  0  0  0  0
 31 28  1  0  0  0  0
 32 31  1  0  0  0  0
 33 32  1  0  0  0  0
 34 37  1  0  0  0  0
 35 39  1  1  0  0  0
 35 34  1  0  0  0  0
 35 36  1  0  0  0  0
 36 38  1  0  0  0  0
 37 33  1  6  0  0  0
 37 38  1  0  0  0  0
 39 41  1  0  0  0  0
 41 40  2  0  0  0  0
M  END
>  <MODEL>
3

>  <REMARK>
 VINA RESULT:      -6.4      2.973      6.034
  Name = 
  14 active torsions:
  status: ('A' for Active; 'I' for Inactive)
    1  A    between atoms: C_4  and  C_21
    2  A    between atoms: C_4  and  C_35
    3  A    between atoms: C_12  and  C_31
    4  A    between atoms: C_15  and  C_31
    5  A    between atoms: C_16  and  N_28
    6  A    between atoms: N_18  and  C_21
    7  A    between atoms: N_18  and  C_39
    8  A    between atoms: C_24  and  C_26
    9  A    between atoms: C_25  and  C_30
   10  A    between atoms: C_26  and  C_34
   11  A    between atoms: C_30  and  C_32
   12  A    between atoms: C_30  and  N_38
   13  A    between atoms: C_32  and  C_39
   14  A    between atoms: C_36  and  C_39
                            x       y       z     vdW  Elec       q    Type
                         _______ _______ _______ _____ _____    ______ ____

>  <TORSDO>
F 14

$$$$
=
 OpenBabel11042414273D

 41 44  0  0  1  0  0  0  0  0999 V2000
  190.2700  174.6750  142.4320 C   0  0  1  0  0  3  0  0  0  0  0  0
  194.6570  175.2420  139.7110 C   0  0  1  0  0  3  0  0  0  0  0  0
  196.1750  175.1730  139.6290 C   0  0  0  0  0  1  0  0  0  0  0  0
  190.1030  172.7550  140.7800 C   0  0  0  0  0  2  0  0  0  0  0  0
  194.8870  176.4320  141.7850 O   0  0  0  0  0  0  0  0  0  0  0  0
  192.9600  175.1490  141.5890 N   0  0  0  0  0  2  0  0  0  0  0  0
  190.5710  172.3670  139.4070 C   0  0  0  0  0  3  0  0  0  0  0  0
  194.0570  173.8940  139.2780 C   0  0  1  0  0  3  0  0  0  0  0  0
  192.1500  174.2330  140.8430 C   0  0  0  0  0  0  0  0  0  0  0  0
  191.7480  172.7720  138.9340 C   0  0  0  0  0  3  0  0  0  0  0  0
  194.2100  175.6260  141.0900 C   0  0  0  0  0  0  0  0  0  0  0  0
  192.6160  173.6840  139.7060 C   0  0  0  0  0  0  0  0  0  0  0  0
  190.8130  173.9340  141.2910 N   0  0  0  0  0  0  0  0  0  0  0  0
  195.7590  171.9190  137.9910 O   0  0  0  0  0  0  0  0  0  0  0  0
  195.1560  172.5720  135.8480 N   0  0  0  0  0  1  0  0  0  0  0  0
  194.2340  173.6910  137.8390 N   0  0  0  0  0  2  0  0  0  0  0  0
  195.0760  172.6860  137.2620 C   0  0  0  0  0  0  0  0  0  0  0  0
  188.3310  178.0220  142.7270 C   0  0  0  0  0  2  0  0  0  0  0  0
  187.0410  175.8280  143.1030 C   0  0  0  0  0  2  0  0  0  0  0  0
  187.8820  175.3500  141.9170 C   0  0  0  0  0  2  0  0  0  0  0  0
  187.0340  177.3660  143.2210 C   0  0  2  0  0  3  0  0  0  0  0  0
  189.3410  175.8240  142.0200 C   0  0  1  0  0  3  0  0  0  0  0  0
  189.5260  177.0860  142.8820 C   0  0  0  0  0  2  0  0  0  0  0  0
  185.8560  177.9620  142.4630 C   0  0  0  0  0  2  0  0  0  0  0  0
  184.8200  178.5470  143.4130 C   0  0  0  0  0  2  0  0  0  0  0  0
  185.3610  179.7950  144.0870 C   0  0  0  0  0  1  0  0  0  0  0  0
  189.6360  173.7360  143.4510 C   0  0  0  0  0  2  0  0  0  0  0  0
  190.6540  173.3470  144.5070 C   0  0  1  0  0  3  0  0  0  0  0  0
  192.5580  171.9230  143.7380 C   0  0  0  0  0  1  0  0  0  0  0  0
  191.1350  171.9240  144.2660 C   0  0  0  0  0  2  0  0  0  0  0  0
  191.7820  174.2650  144.4290 N   0  0  0  0  0  2  0  0  0  0  0  0
  191.9990  174.8340  145.7520 C   0  0  0  0  0  2  0  0  0  0  0  0
  191.5890  176.3000  145.7720 C   0  0  0  0  0  2  0  0  0  0  0  0
  189.3990  177.1720  146.5420 C   0  0  0  0  0  2  0  0  0  0  0  0
  188.4560  176.0000  146.4230 C   0  0  1  0  0  3  0  0  0  0  0  0
  188.9520  174.9300  147.2820 N   0  0  0  0  0  2  0  0  0  0  0  0
  190.7070  176.5710  146.9800 C   0  0  1  0  0  3  0  0  0  0  0  0
  190.3290  175.2600  147.6360 C   0  0  0  0  0  2  0  0  0  0  0  0
  187.0620  176.4190  146.8550 C   0  0  0  0  0  2  0  0  0  0  0  0
  185.9010  178.4740  147.4750 C   0  0  0  0  0  2  0  0  0  0  0  0
  186.9540  177.9050  146.8950 C   0  0  0  0  0  3  0  0  0  0  0  0
  1 27  1  1  0  0  0
  2  3  1  1  0  0  0
  2 11  1  0  0  0  0
  4 13  1  0  0  0  0
  7  4  1  0  0  0  0
  8 16  1  6  0  0  0
  8 12  1  0  0  0  0
  8  2  1  0  0  0  0
  9 13  1  0  0  0  0
  9  6  1  0  0  0  0
 10  7  2  0  0  0  0
 10 12  1  0  0  0  0
 11  6  1  0  0  0  0
 11  5  2  0  0  0  0
 12  9  2  0  0  0  0
 13  1  1  0  0  0  0
 15 17  1  0  0  0  0
 17 16  1  0  0  0  0
 17 14  2  0  0  0  0
 18 23  1  0  0  0  0
 18 21  1  0  0  0  0
 19 21  1  0  0  0  0
 20 22  1  0  0  0  0
 20 19  1  0  0  0  0
 21 24  1  6  0  0  0
 22  1  1  1  0  0  0
 22 23  1  0  0  0  0
 24 25  1  0  0  0  0
 25 26  1  0  0  0  0
 28 27  1  6  0  0  0
 29 30  1  0  0  0  0
 30 28  1  0  0  0  0
 31 28  1  0  0  0  0
 31 32  1  0  0  0  0
 32 33  1  0  0  0  0
 34 37  1  0  0  0  0
 35 34  1  0  0  0  0
 35 39  1  1  0  0  0
 35 36  1  0  0  0  0
 36 38  1  0  0  0  0
 37 33  1  6  0  0  0
 37 38  1  0  0  0  0
 39 41  1  0  0  0  0
 41 40  2  0  0  0  0
M  END
>  <MODEL>
4

>  <REMARK>
 VINA RESULT:      -6.2      2.836      6.803
  Name = 
  14 active torsions:
  status: ('A' for Active; 'I' for Inactive)
    1  A    between atoms: C_4  and  C_21
    2  A    between atoms: C_4  and  C_35
    3  A    between atoms: C_12  and  C_31
    4  A    between atoms: C_15  and  C_31
    5  A    between atoms: C_16  and  N_28
    6  A    between atoms: N_18  and  C_21
    7  A    between atoms: N_18  and  C_39
    8  A    between atoms: C_24  and  C_26
    9  A    between atoms: C_25  and  C_30
   10  A    between atoms: C_26  and  C_34
   11  A    between atoms: C_30  and  C_32
   12  A    between atoms: C_30  and  N_38
   13  A    between atoms: C_32  and  C_39
   14  A    between atoms: C_36  and  C_39
                            x       y       z     vdW  Elec       q    Type
                         _______ _______ _______ _____ _____    ______ ____

>  <TORSDO>
F 14

$$$$
=
 OpenBabel11042414273D

 41 44  0  0  1  0  0  0  0  0999 V2000
  190.6450  173.8230  143.2270 C   0  0  1  0  0  3  0  0  0  0  0  0
  187.5030  177.9550  143.3810 C   0  0  1  0  0  3  0  0  0  0  0  0
  186.2180  178.6500  142.9540 C   0  0  0  0  0  1  0  0  0  0  0  0
  189.7900  173.7310  145.6150 C   0  0  0  0  0  2  0  0  0  0  0  0
  187.8700  177.3620  141.0820 O   0  0  0  0  0  0  0  0  0  0  0  0
  188.7440  175.8750  142.6400 N   0  0  0  0  0  0  0  0  0  0  0  0
  189.2610  174.6360  146.6900 C   0  0  0  0  0  3  0  0  0  0  0  0
  187.2600  177.1850  144.6900 C   0  0  1  0  0  3  0  0  0  0  0  0
  188.9350  175.4750  144.0020 C   0  0  0  0  0  0  0  0  0  0  0  0
  188.5470  175.7200  146.3950 C   0  0  0  0  0  3  0  0  0  0  0  0
  188.0110  177.0510  142.2970 C   0  0  0  0  0  0  0  0  0  0  0  0
  188.3040  176.1270  144.9970 C   0  0  2  0  0  3  0  0  0  0  0  0
  189.8430  174.3980  144.3090 N   0  0  0  0  0  0  0  0  0  0  0  0
  184.8380  177.5880  146.2470 O   0  0  0  0  0  0  0  0  0  0  0  0
  185.8100  179.1800  147.6290 N   0  0  0  0  0  1  0  0  0  0  0  0
  187.0790  178.1130  145.8070 N   0  0  0  0  0  2  0  0  0  0  0  0
  185.8630  178.2560  146.5510 C   0  0  0  0  0  0  0  0  0  0  0  0
  194.0360  173.0730  144.9550 C   0  0  0  0  0  2  0  0  0  0  0  0
  192.8650  175.3010  145.4840 C   0  0  0  0  0  2  0  0  0  0  0  0
  192.5710  175.2870  143.9820 C   0  0  0  0  0  2  0  0  0  0  0  0
  193.9850  174.3110  145.8600 C   0  0  2  0  0  3  0  0  0  0  0  0
  192.1540  173.8900  143.4920 C   0  0  1  0  0  3  0  0  0  0  0  0
  192.6610  172.7410  144.3820 C   0  0  0  0  0  2  0  0  0  0  0  0
  195.3440  174.9970  145.8390 C   0  0  0  0  0  2  0  0  0  0  0  0
  196.4740  174.0030  146.0710 C   0  0  0  0  0  2  0  0  0  0  0  0
  197.5410  174.1510  145.0020 C   0  0  0  0  0  1  0  0  0  0  0  0
  190.1680  172.4210  142.8690 C   0  0  0  0  0  2  0  0  0  0  0  0
  189.7920  172.3560  141.4000 C   0  0  1  0  0  3  0  0  0  0  0  0
  190.0030  173.5030  139.1900 C   0  0  0  0  0  1  0  0  0  0  0  0
  190.4000  173.5350  140.6550 C   0  0  0  0  0  2  0  0  0  0  0  0
  190.2970  171.1100  140.8430 N   0  0  0  0  0  2  0  0  0  0  0  0
  191.6630  170.9220  141.3110 C   0  0  0  0  0  2  0  0  0  0  0  0
  192.5300  170.3450  140.2000 C   0  0  0  0  0  2  0  0  0  0  0  0
  193.8210  172.3800  140.7820 C   0  0  0  0  0  2  0  0  0  0  0  0
  195.1130  171.8620  141.3620 C   0  0  1  0  0  3  0  0  0  0  0  0
  195.7810  171.0630  140.3410 N   0  0  0  0  0  2  0  0  0  0  0  0
  193.4780  171.4130  139.6810 C   0  0  1  0  0  3  0  0  0  0  0  0
  194.7980  170.7780  139.3000 C   0  0  0  0  0  2  0  0  0  0  0  0
  195.9920  173.0290  141.7770 C   0  0  0  0  0  2  0  0  0  0  0  0
  195.6720  175.4230  142.1200 C   0  0  0  0  0  2  0  0  0  0  0  0
  195.3240  174.3230  141.4600 C   0  0  0  0  0  3  0  0  0  0  0  0
  1 27  1  1  0  0  0
  1 13  1  0  0  0  0
  2  3  1  6  0  0  0
  2  8  1  0  0  0  0
  4  7  1  0  0  0  0
  5 11  2  0  0  0  0
  6  9  2  0  0  0  0
  8 12  1  0  0  0  0
  8 16  1  1  0  0  0
  9 13  1  0  0  0  0
  9 12  1  0  0  0  0
 10  7  2  0  0  0  0
 11  6  1  0  0  0  0
 11  2  1  0  0  0  0
 12 10  1  1  0  0  0
 13  4  1  0  0  0  0
 14 17  2  0  0  0  0
 16 17  1  0  0  0  0
 17 15  1  0  0  0  0
 18 21  1  0  0  0  0
 19 21  1  0  0  0  0
 20 19  1  0  0  0  0
 21 24  1  6  0  0  0
 22  1  1  1  0  0  0
 22 20  1  0  0  0  0
 22 23  1  0  0  0  0
 23 18  1  0  0  0  0
 24 25  1  0  0  0  0
 26 25  1  0  0  0  0
 28 30  1  6  0  0  0
 28 27  1  0  0  0  0
 29 30  1  0  0  0  0
 31 32  1  0  0  0  0
 31 28  1  0  0  0  0
 33 32  1  0  0  0  0
 34 35  1  0  0  0  0
 35 39  1  6  0  0  0
 36 35  1  0  0  0  0
 37 33  1  1  0  0  0
 37 34  1  0  0  0  0
 38 37  1  0  0  0  0
 38 36  1  0  0  0  0
 41 39  1  0  0  0  0
 41 40  2  0  0  0  0
M  END
>  <MODEL>
5

>  <REMARK>
 VINA RESULT:      -6.1      2.472      6.630
  Name = 
  14 active torsions:
  status: ('A' for Active; 'I' for Inactive)
    1  A    between atoms: C_4  and  C_21
    2  A    between atoms: C_4  and  C_35
    3  A    between atoms: C_12  and  C_31
    4  A    between atoms: C_15  and  C_31
    5  A    between atoms: C_16  and  N_28
    6  A    between atoms: N_18  and  C_21
    7  A    between atoms: N_18  and  C_39
    8  A    between atoms: C_24  and  C_26
    9  A    between atoms: C_25  and  C_30
   10  A    between atoms: C_26  and  C_34
   11  A    between atoms: C_30  and  C_32
   12  A    between atoms: C_30  and  N_38
   13  A    between atoms: C_32  and  C_39
   14  A    between atoms: C_36  and  C_39
                            x       y       z     vdW  Elec       q    Type
                         _______ _______ _______ _____ _____    ______ ____

>  <TORSDO>
F 14

$$$$
=
 OpenBabel11042414273D

 41 44  0  0  1  0  0  0  0  0999 V2000
  190.7500  175.6670  144.3180 C   0  0  1  0  0  3  0  0  0  0  0  0
  186.0740  177.2990  145.8800 C   0  0  1  0  0  3  0  0  0  0  0  0
  185.1970  177.9880  146.9150 C   0  0  0  0  0  1  0  0  0  0  0  0
  190.2940  177.5580  142.6870 C   0  0  0  0  0  2  0  0  0  0  0  0
  187.0750  176.0360  147.6620 O   0  0  0  0  0  0  0  0  0  0  0  0
  188.4570  176.4420  145.8380 N   0  0  0  0  0  2  0  0  0  0  0  0
  189.1440  178.2830  142.0510 C   0  0  0  0  0  3  0  0  0  0  0  0
  186.5660  178.3330  144.8540 C   0  0  1  0  0  3  0  0  0  0  0  0
  188.6750  177.0430  144.5560 C   0  0  0  0  0  0  0  0  0  0  0  0
  187.9910  178.4580  142.6940 C   0  0  0  0  0  3  0  0  0  0  0  0
  187.2190  176.5850  146.5350 C   0  0  0  0  0  0  0  0  0  0  0  0
  187.7610  177.8810  144.0340 C   0  0  0  0  0  0  0  0  0  0  0  0
  189.8600  176.7100  143.8050 N   0  0  0  0  0  0  0  0  0  0  0  0
  185.2060  176.7910  142.7990 O   0  0  0  0  0  0  0  0  0  0  0  0
  183.7420  178.5100  142.2630 N   0  0  0  0  0  1  0  0  0  0  0  0
  185.4610  178.7830  144.0050 N   0  0  0  0  0  2  0  0  0  0  0  0
  184.8170  177.9690  143.0180 C   0  0  0  0  0  0  0  0  0  0  0  0
  191.4710  173.2760  141.3500 C   0  0  0  0  0  2  0  0  0  0  0  0
  189.1650  174.4080  141.4700 C   0  0  0  0  0  2  0  0  0  0  0  0
  189.2970  174.0940  142.9630 C   0  0  0  0  0  2  0  0  0  0  0  0
  190.1590  173.5910  140.6200 C   0  0  2  0  0  3  0  0  0  0  0  0
  190.7150  174.3790  143.4850 C   0  0  1  0  0  3  0  0  0  0  0  0
  191.8010  174.3380  142.3950 C   0  0  0  0  0  2  0  0  0  0  0  0
  189.5270  172.2890  140.1490 C   0  0  0  0  0  2  0  0  0  0  0  0
  188.2540  172.5430  139.3530 C   0  0  0  0  0  2  0  0  0  0  0  0
  188.5850  173.1170  137.9880 C   0  0  0  0  0  1  0  0  0  0  0  0
  192.1620  176.1980  144.5290 C   0  0  0  0  0  2  0  0  0  0  0  0
  192.4200  176.4240  146.0070 C   0  0  1  0  0  3  0  0  0  0  0  0
  191.1990  175.5820  148.0180 C   0  0  0  0  0  1  0  0  0  0  0  0
  192.0150  175.1900  146.8010 C   0  0  0  0  0  2  0  0  0  0  0  0
  193.8380  176.6880  146.2000 N   0  0  0  0  0  2  0  0  0  0  0  0
  194.5850  175.8970  145.2310 C   0  0  0  0  0  2  0  0  0  0  0  0
  195.4900  174.9020  145.9440 C   0  0  0  0  0  2  0  0  0  0  0  0
  196.2220  172.5410  145.7500 C   0  0  0  0  0  2  0  0  0  0  0  0
  194.9420  171.7410  145.7480 C   0  0  1  0  0  3  0  0  0  0  0  0
  194.1450  172.1640  144.6010 N   0  0  0  0  0  2  0  0  0  0  0  0
  195.8940  173.7950  144.9850 C   0  0  1  0  0  3  0  0  0  0  0  0
  194.7120  173.4190  144.1170 C   0  0  0  0  0  2  0  0  0  0  0  0
  195.2640  170.2610  145.6500 C   0  0  0  0  0  2  0  0  0  0  0  0
  196.3980  168.9510  147.3680 C   0  0  0  0  0  2  0  0  0  0  0  0
  196.4630  169.9320  146.4730 C   0  0  0  0  0  3  0  0  0  0  0  0
  1 27  1  6  0  0  0
  2 11  1  0  0  0  0
  2  3  1  1  0  0  0
  4 13  1  0  0  0  0
  6 11  1  0  0  0  0
  7  4  1  0  0  0  0
  7 10  2  0  0  0  0
  8 16  1  6  0  0  0
  8  2  1  0  0  0  0
  9  6  1  0  0  0  0
 10 12  1  0  0  0  0
 11  5  2  0  0  0  0
 12  9  2  0  0  0  0
 12  8  1  0  0  0  0
 13  1  1  0  0  0  0
 13  9  1  0  0  0  0
 14 17  2  0  0  0  0
 15 17  1  0  0  0  0
 17 16  1  0  0  0  0
 18 23  1  0  0  0  0
 19 20  1  0  0  0  0
 20 22  1  0  0  0  0
 21 24  1  1  0  0  0
 21 18  1  0  0  0  0
 21 19  1  0  0  0  0
 22  1  1  6  0  0  0
 23 22  1  0  0  0  0
 25 24  1  0  0  0  0
 26 25  1  0  0  0  0
 28 27  1  6  0  0  0
 28 31  1  0  0  0  0
 28 30  1  0  0  0  0
 30 29  1  0  0  0  0
 32 33  1  0  0  0  0
 32 31  1  0  0  0  0
 35 39  1  6  0  0  0
 35 34  1  0  0  0  0
 36 35  1  0  0  0  0
 37 34  1  0  0  0  0
 37 33  1  1  0  0  0
 38 36  1  0  0  0  0
 38 37  1  0  0  0  0
 39 41  1  0  0  0  0
 41 40  2  0  0  0  0
M  END
>  <MODEL>
6

>  <REMARK>
 VINA RESULT:      -6.1      2.761      5.874
  Name = 
  14 active torsions:
  status: ('A' for Active; 'I' for Inactive)
    1  A    between atoms: C_4  and  C_21
    2  A    between atoms: C_4  and  C_35
    3  A    between atoms: C_12  and  C_31
    4  A    between atoms: C_15  and  C_31
    5  A    between atoms: C_16  and  N_28
    6  A    between atoms: N_18  and  C_21
    7  A    between atoms: N_18  and  C_39
    8  A    between atoms: C_24  and  C_26
    9  A    between atoms: C_25  and  C_30
   10  A    between atoms: C_26  and  C_34
   11  A    between atoms: C_30  and  C_32
   12  A    between atoms: C_30  and  N_38
   13  A    between atoms: C_32  and  C_39
   14  A    between atoms: C_36  and  C_39
                            x       y       z     vdW  Elec       q    Type
                         _______ _______ _______ _____ _____    ______ ____

>  <TORSDO>
F 14

$$$$
=
 OpenBabel11042414273D

 41 44  0  0  1  0  0  0  0  0999 V2000
  192.2530  175.0920  144.8700 C   0  0  1  0  0  3  0  0  0  0  0  0
  190.7210  172.2020  140.8360 C   0  0  1  0  0  3  0  0  0  0  0  0
  189.6280  171.7490  139.8790 C   0  0  0  0  0  1  0  0  0  0  0  0
  193.4610  176.2170  142.9420 C   0  0  0  0  0  2  0  0  0  0  0  0
  189.1880  171.8490  142.6520 O   0  0  0  0  0  0  0  0  0  0  0  0
  190.7730  173.5130  143.0030 N   0  0  0  0  0  2  0  0  0  0  0  0
  194.0070  175.9040  141.5780 C   0  0  0  0  0  3  0  0  0  0  0  0
  191.4580  173.4110  140.2390 C   0  0  1  0  0  3  0  0  0  0  0  0
  191.8730  174.2970  142.5290 C   0  0  0  0  0  0  0  0  0  0  0  0
  193.4280  175.0010  140.7890 C   0  0  0  0  0  3  0  0  0  0  0  0
  190.1550  172.5150  142.1890 C   0  0  0  0  0  0  0  0  0  0  0  0
  192.2670  174.2110  141.2440 C   0  0  0  0  0  0  0  0  0  0  0  0
  192.5900  175.1480  143.4460 N   0  0  0  0  0  0  0  0  0  0  0  0
  191.0340  174.1500  137.4590 O   0  0  0  0  0  0  0  0  0  0  0  0
  192.8840  172.9700  136.7040 N   0  0  0  0  0  1  0  0  0  0  0  0
  192.2670  173.0050  139.0880 N   0  0  0  0  0  2  0  0  0  0  0  0
  192.0190  173.4160  137.7390 C   0  0  0  0  0  0  0  0  0  0  0  0
  195.8410  174.5320  146.2310 C   0  0  0  0  0  2  0  0  0  0  0  0
  194.8850  172.8140  144.5730 C   0  0  0  0  0  2  0  0  0  0  0  0
  193.6070  173.0150  145.3920 C   0  0  0  0  0  2  0  0  0  0  0  0
  196.1320  173.3350  145.3150 C   0  0  2  0  0  3  0  0  0  0  0  0
  193.3720  174.4960  145.7330 C   0  0  1  0  0  3  0  0  0  0  0  0
  194.6540  175.3480  145.7280 C   0  0  0  0  0  2  0  0  0  0  0  0
  196.7780  172.2280  146.1350 C   0  0  0  0  0  2  0  0  0  0  0  0
  196.4080  170.8510  145.6020 C   0  0  0  0  0  2  0  0  0  0  0  0
  196.8290  169.7700  146.5800 C   0  0  0  0  0  1  0  0  0  0  0  0
  191.7680  176.4440  145.3780 C   0  0  0  0  0  2  0  0  0  0  0  0
  190.2960  176.6260  145.0560 C   0  0  1  0  0  3  0  0  0  0  0  0
  189.0140  175.3050  146.7460 C   0  0  0  0  0  1  0  0  0  0  0  0
  189.4870  176.6900  146.3430 C   0  0  0  0  0  2  0  0  0  0  0  0
  190.1300  177.8650  144.3110 N   0  0  0  0  0  2  0  0  0  0  0  0
  189.6990  177.5310  142.9600 C   0  0  0  0  0  2  0  0  0  0  0  0
  188.7750  176.3220  142.9830 C   0  0  0  0  0  2  0  0  0  0  0  0
  186.4260  176.4270  143.7700 C   0  0  0  0  0  2  0  0  0  0  0  0
  186.3490  177.6980  144.5800 C   0  0  1  0  0  3  0  0  0  0  0  0
  186.6840  178.8150  143.7040 N   0  0  0  0  0  2  0  0  0  0  0  0
  187.3590  176.7500  142.6340 C   0  0  1  0  0  3  0  0  0  0  0  0
  187.3020  178.2580  142.5050 C   0  0  0  0  0  2  0  0  0  0  0  0
  184.9460  177.8650  145.1360 C   0  0  0  0  0  2  0  0  0  0  0  0
  185.9330  177.4200  147.3230 C   0  0  0  0  0  2  0  0  0  0  0  0
  184.8710  177.3360  146.5270 C   0  0  0  0  0  3  0  0  0  0  0  0
  1 27  1  1  0  0  0
  2  3  1  6  0  0  0
  2 11  1  0  0  0  0
  4 13  1  0  0  0  0
  7  4  1  0  0  0  0
  8 16  1  6  0  0  0
  8  2  1  0  0  0  0
  8 12  1  0  0  0  0
  9  6  1  0  0  0  0
  9 13  1  0  0  0  0
 10 12  1  0  0  0  0
 10  7  2  0  0  0  0
 11  5  2  0  0  0  0
 11  6  1  0  0  0  0
 12  9  2  0  0  0  0
 13  1  1  0  0  0  0
 14 17  2  0  0  0  0
 15 17  1  0  0  0  0
 17 16  1  0  0  0  0
 19 21  1  0  0  0  0
 19 20  1  0  0  0  0
 20 22  1  0  0  0  0
 21 24  1  1  0  0  0
 21 18  1  0  0  0  0
 22  1  1  6  0  0  0
 23 22  1  0  0  0  0
 23 18  1  0  0  0  0
 25 24  1  0  0  0  0
 25 26  1  0  0  0  0
 28 27  1  1  0  0  0
 28 30  1  0  0  0  0
 30 29  1  0  0  0  0
 31 28  1  0  0  0  0
 32 33  1  0  0  0  0
 32 31  1  0  0  0  0
 34 35  1  0  0  0  0
 35 39  1  6  0  0  0
 36 35  1  0  0  0  0
 37 33  1  1  0  0  0
 37 34  1  0  0  0  0
 38 37  1  0  0  0  0
 38 36  1  0  0  0  0
 39 41  1  0  0  0  0
 41 40  2  0  0  0  0
M  END
>  <MODEL>
7

>  <REMARK>
 VINA RESULT:      -6.0      2.261      5.157
  Name = 
  14 active torsions:
  status: ('A' for Active; 'I' for Inactive)
    1  A    between atoms: C_4  and  C_21
    2  A    between atoms: C_4  and  C_35
    3  A    between atoms: C_12  and  C_31
    4  A    between atoms: C_15  and  C_31
    5  A    between atoms: C_16  and  N_28
    6  A    between atoms: N_18  and  C_21
    7  A    between atoms: N_18  and  C_39
    8  A    between atoms: C_24  and  C_26
    9  A    between atoms: C_25  and  C_30
   10  A    between atoms: C_26  and  C_34
   11  A    between atoms: C_30  and  C_32
   12  A    between atoms: C_30  and  N_38
   13  A    between atoms: C_32  and  C_39
   14  A    between atoms: C_36  and  C_39
                            x       y       z     vdW  Elec       q    Type
                         _______ _______ _______ _____ _____    ______ ____

>  <TORSDO>
F 14

$$$$
=
 OpenBabel11042414273D

 41 44  0  0  1  0  0  0  0  0999 V2000
  192.2480  174.5760  144.4500 C   0  0  1  0  0  3  0  0  0  0  0  0
  194.0710  169.7130  144.4260 C   0  0  1  0  0  3  0  0  0  0  0  0
  194.4910  168.4670  143.6600 C   0  0  0  0  0  1  0  0  0  0  0  0
  194.6520  174.9240  145.1850 C   0  0  0  0  0  2  0  0  0  0  0  0
  192.0790  169.7870  143.0860 O   0  0  0  0  0  0  0  0  0  0  0  0
  192.8450  171.8490  143.8350 N   0  0  0  0  0  0  0  0  0  0  0  0
  195.7680  174.1940  145.8760 C   0  0  0  0  0  3  0  0  0  0  0  0
  195.2910  170.6250  144.6330 C   0  0  1  0  0  3  0  0  0  0  0  0
  193.8160  172.6300  144.5410 C   0  0  0  0  0  0  0  0  0  0  0  0
  195.9150  172.8760  145.7540 C   0  0  0  0  0  3  0  0  0  0  0  0
  192.9610  170.4310  143.7180 C   0  0  0  0  0  0  0  0  0  0  0  0
  194.9470  172.0590  144.9960 C   0  0  2  0  0  3  0  0  0  0  0  0
  193.5570  174.0240  144.8030 N   0  0  0  0  0  0  0  0  0  0  0  0
  194.6210  169.3670  147.1670 O   0  0  0  0  0  0  0  0  0  0  0  0
  196.8260  168.8470  147.6660 N   0  0  0  0  0  1  0  0  0  0  0  0
  196.2230  170.0300  145.5920 N   0  0  0  0  0  2  0  0  0  0  0  0
  195.8310  169.4060  146.8200 C   0  0  0  0  0  0  0  0  0  0  0  0
  189.3940  175.2530  146.9900 C   0  0  0  0  0  2  0  0  0  0  0  0
  189.7200  176.9120  145.0510 C   0  0  0  0  0  2  0  0  0  0  0  0
  191.2030  176.6960  145.3650 C   0  0  0  0  0  2  0  0  0  0  0  0
  188.8140  176.4370  146.2040 C   0  0  2  0  0  3  0  0  0  0  0  0
  191.5220  175.2170  145.6400 C   0  0  1  0  0  3  0  0  0  0  0  0
  190.3100  174.3980  146.1180 C   0  0  0  0  0  2  0  0  0  0  0  0
  188.5210  177.5770  147.1700 C   0  0  0  0  0  2  0  0  0  0  0  0
  187.0280  177.8570  147.2660 C   0  0  0  0  0  2  0  0  0  0  0  0
  186.2370  176.7790  146.5490 C   0  0  0  0  0  1  0  0  0  0  0  0
  192.3440  175.5030  143.2450 C   0  0  0  0  0  2  0  0  0  0  0  0
  191.5450  174.9360  142.0860 C   0  0  1  0  0  3  0  0  0  0  0  0
  193.9160  174.8820  141.3000 C   0  0  0  0  0  1  0  0  0  0  0  0
  192.4820  174.5140  140.9640 C   0  0  0  0  0  2  0  0  0  0  0  0
  190.7930  173.7820  142.5570 N   0  0  0  0  0  2  0  0  0  0  0  0
  189.4550  173.8430  141.9850 C   0  0  0  0  0  2  0  0  0  0  0  0
  188.5250  174.6340  142.8940 C   0  0  0  0  0  2  0  0  0  0  0  0
  186.6200  176.2210  142.9060 C   0  0  0  0  0  2  0  0  0  0  0  0
  187.2330  177.5580  142.5660 C   0  0  1  0  0  3  0  0  0  0  0  0
  187.8500  177.4520  141.2490 N   0  0  0  0  0  2  0  0  0  0  0  0
  187.3880  175.2250  142.0790 C   0  0  1  0  0  3  0  0  0  0  0  0
  187.9530  176.0310  140.9290 C   0  0  0  0  0  2  0  0  0  0  0  0
  186.1550  178.6270  142.5600 C   0  0  0  0  0  2  0  0  0  0  0  0
  184.8550  179.7830  144.2710 C   0  0  0  0  0  2  0  0  0  0  0  0
  186.0110  179.2300  143.9150 C   0  0  0  0  0  3  0  0  0  0  0  0
  1 27  1  6  0  0  0
  1 13  1  0  0  0  0
  2  3  1  6  0  0  0
  2  8  1  0  0  0  0
  4  7  1  0  0  0  0
  5 11  2  0  0  0  0
  6  9  2  0  0  0  0
  8 12  1  0  0  0  0
  8 16  1  1  0  0  0
  9 13  1  0  0  0  0
  9 12  1  0  0  0  0
 10  7  2  0  0  0  0
 11  6  1  0  0  0  0
 11  2  1  0  0  0  0
 12 10  1  6  0  0  0
 13  4  1  0  0  0  0
 16 17  1  0  0  0  0
 17 14  2  0  0  0  0
 17 15  1  0  0  0  0
 19 20  1  0  0  0  0
 19 21  1  0  0  0  0
 20 22  1  0  0  0  0
 21 18  1  0  0  0  0
 21 24  1  1  0  0  0
 22  1  1  6  0  0  0
 22 23  1  0  0  0  0
 23 18  1  0  0  0  0
 24 25  1  0  0  0  0
 26 25  1  0  0  0  0
 28 30  1  6  0  0  0
 28 31  1  0  0  0  0
 28 27  1  0  0  0  0
 30 29  1  0  0  0  0
 32 31  1  0  0  0  0
 32 33  1  0  0  0  0
 35 39  1  6  0  0  0
 35 34  1  0  0  0  0
 36 35  1  0  0  0  0
 37 33  1  1  0  0  0
 37 34  1  0  0  0  0
 38 36  1  0  0  0  0
 38 37  1  0  0  0  0
 39 41  1  0  0  0  0
 41 40  2  0  0  0  0
M  END
>  <MODEL>
8

>  <REMARK>
 VINA RESULT:      -6.0      2.868      7.581
  Name = 
  14 active torsions:
  status: ('A' for Active; 'I' for Inactive)
    1  A    between atoms: C_4  and  C_21
    2  A    between atoms: C_4  and  C_35
    3  A    between atoms: C_12  and  C_31
    4  A    between atoms: C_15  and  C_31
    5  A    between atoms: C_16  and  N_28
    6  A    between atoms: N_18  and  C_21
    7  A    between atoms: N_18  and  C_39
    8  A    between atoms: C_24  and  C_26
    9  A    between atoms: C_25  and  C_30
   10  A    between atoms: C_26  and  C_34
   11  A    between atoms: C_30  and  C_32
   12  A    between atoms: C_30  and  N_38
   13  A    between atoms: C_32  and  C_39
   14  A    between atoms: C_36  and  C_39
                            x       y       z     vdW  Elec       q    Type
                         _______ _______ _______ _____ _____    ______ ____

>  <TORSDO>
F 14

$$$$
=
 OpenBabel11042414273D

 41 44  0  0  1  0  0  0  0  0999 V2000
  190.4550  174.3060  143.3380 C   0  0  1  0  0  3  0  0  0  0  0  0
  187.0610  178.2350  143.4640 C   0  0  1  0  0  3  0  0  0  0  0  0
  185.7440  178.8530  143.0180 C   0  0  0  0  0  1  0  0  0  0  0  0
  189.5610  174.1380  145.7080 C   0  0  0  0  0  2  0  0  0  0  0  0
  187.5090  177.6880  141.1680 O   0  0  0  0  0  0  0  0  0  0  0  0
  188.4430  176.2430  142.7310 N   0  0  0  0  0  0  0  0  0  0  0  0
  188.9570  174.9990  146.7790 C   0  0  0  0  0  3  0  0  0  0  0  0
  186.8410  177.4390  144.7610 C   0  0  1  0  0  3  0  0  0  0  0  0
  188.6320  175.8420  144.0930 C   0  0  0  0  0  0  0  0  0  0  0  0
  188.1830  176.0400  146.4800 C   0  0  0  0  0  3  0  0  0  0  0  0
  187.6460  177.3750  142.3830 C   0  0  0  0  0  0  0  0  0  0  0  0
  187.9430  176.4440  145.0800 C   0  0  2  0  0  3  0  0  0  0  0  0
  189.5980  174.8210  144.4090 N   0  0  0  0  0  0  0  0  0  0  0  0
  184.4410  177.5430  146.3980 O   0  0  0  0  0  0  0  0  0  0  0  0
  185.2480  179.2520  147.7440 N   0  0  0  0  0  1  0  0  0  0  0  0
  186.5810  178.3430  145.8830 N   0  0  0  0  0  2  0  0  0  0  0  0
  185.3820  178.3360  146.6660 C   0  0  0  0  0  0  0  0  0  0  0  0
  193.7670  173.6800  145.2580 C   0  0  0  0  0  2  0  0  0  0  0  0
  192.5690  175.9320  145.5950 C   0  0  0  0  0  2  0  0  0  0  0  0
  192.3420  175.8230  144.0850 C   0  0  0  0  0  2  0  0  0  0  0  0
  193.6740  174.9730  146.0820 C   0  0  2  0  0  3  0  0  0  0  0  0
  191.9510  174.3970  143.6650 C   0  0  1  0  0  3  0  0  0  0  0  0
  192.4200  173.3080  144.6470 C   0  0  0  0  0  2  0  0  0  0  0  0
  195.0310  175.6620  146.0790 C   0  0  0  0  0  2  0  0  0  0  0  0
  195.8810  175.2140  144.8980 C   0  0  0  0  0  2  0  0  0  0  0  0
  196.0370  176.3430  143.8960 C   0  0  0  0  0  1  0  0  0  0  0  0
  190.0260  172.9090  142.9090 C   0  0  0  0  0  2  0  0  0  0  0  0
  189.8760  172.8500  141.4000 C   0  0  1  0  0  3  0  0  0  0  0  0
  190.8840  170.6500  142.0200 C   0  0  0  0  0  1  0  0  0  0  0  0
  190.3620  171.5040  140.8800 C   0  0  0  0  0  2  0  0  0  0  0  0
  188.4710  173.0270  141.0630 N   0  0  0  0  0  2  0  0  0  0  0  0
  188.2750  172.6030  139.6830 C   0  0  0  0  0  2  0  0  0  0  0  0
  188.1950  173.8130  138.7630 C   0  0  0  0  0  2  0  0  0  0  0  0
  189.4940  174.5390  136.7790 C   0  0  0  0  0  2  0  0  0  0  0  0
  190.9210  174.1650  137.0970 C   0  0  1  0  0  3  0  0  0  0  0  0
  190.9790  172.7200  137.2900 N   0  0  0  0  0  2  0  0  0  0  0  0
  188.6650  173.4300  137.3690 C   0  0  1  0  0  3  0  0  0  0  0  0
  189.6070  172.2490  137.4570 C   0  0  0  0  0  2  0  0  0  0  0  0
  191.8260  174.5810  135.9500 C   0  0  0  0  0  2  0  0  0  0  0  0
  192.9230  176.7310  135.5980 C   0  0  0  0  0  2  0  0  0  0  0  0
  192.7460  175.6710  136.3810 C   0  0  0  0  0  3  0  0  0  0  0  0
  1 27  1  1  0  0  0
  1 13  1  0  0  0  0
  2  3  1  6  0  0  0
  2  8  1  0  0  0  0
  4  7  1  0  0  0  0
  5 11  2  0  0  0  0
  6  9  2  0  0  0  0
  8 12  1  0  0  0  0
  8 16  1  1  0  0  0
  9 13  1  0  0  0  0
  9 12  1  0  0  0  0
 10  7  2  0  0  0  0
 11  6  1  0  0  0  0
 11  2  1  0  0  0  0
 12 10  1  6  0  0  0
 13  4  1  0  0  0  0
 14 17  2  0  0  0  0
 16 17  1  0  0  0  0
 17 15  1  0  0  0  0
 18 21  1  0  0  0  0
 19 21  1  0  0  0  0
 20 19  1  0  0  0  0
 21 24  1  6  0  0  0
 22  1  1  1  0  0  0
 22 20  1  0  0  0  0
 22 23  1  0  0  0  0
 23 18  1  0  0  0  0
 25 24  1  0  0  0  0
 26 25  1  0  0  0  0
 28 30  1  1  0  0  0
 28 27  1  0  0  0  0
 30 29  1  0  0  0  0
 31 28  1  0  0  0  0
 32 31  1  0  0  0  0
 33 32  1  0  0  0  0
 34 35  1  0  0  0  0
 34 37  1  0  0  0  0
 35 39  1  6  0  0  0
 35 36  1  0  0  0  0
 36 38  1  0  0  0  0
 37 38  1  0  0  0  0
 37 33  1  1  0  0  0
 39 41  1  0  0  0  0
 40 41  2  0  0  0  0
M  END
>  <MODEL>
9

>  <REMARK>
 VINA RESULT:      -6.0      2.815      7.016
  Name = 
  14 active torsions:
  status: ('A' for Active; 'I' for Inactive)
    1  A    between atoms: C_4  and  C_21
    2  A    between atoms: C_4  and  C_35
    3  A    between atoms: C_12  and  C_31
    4  A    between atoms: C_15  and  C_31
    5  A    between atoms: C_16  and  N_28
    6  A    between atoms: N_18  and  C_21
    7  A    between atoms: N_18  and  C_39
    8  A    between atoms: C_24  and  C_26
    9  A    between atoms: C_25  and  C_30
   10  A    between atoms: C_26  and  C_34
   11  A    between atoms: C_30  and  C_32
   12  A    between atoms: C_30  and  N_38
   13  A    between atoms: C_32  and  C_39
   14  A    between atoms: C_36  and  C_39
                            x       y       z     vdW  Elec       q    Type
                         _______ _______ _______ _____ _____    ______ ____

>  <TORSDO>
F 14

$$$$
