=
 OpenBabel11042419253D

 40 47  0  0  1  0  0  0  0  0999 V2000
  193.4110  175.3920  143.1260 C   0  0  0  0  0  0  0  0  0  0  0  0
  194.7770  175.0990  142.8190 N   0  0  0  0  0  2  0  0  0  0  0  0
  191.6480  176.8270  143.4530 N   0  0  0  0  0  0  0  0  0  0  0  0
  190.7150  175.8600  144.0350 C   0  0  2  0  0  3  0  0  0  0  0  0
  191.2060  174.5110  143.7190 N   0  0  0  0  0  0  0  0  0  0  0  0
  189.6020  176.3340  143.1960 C   0  0  1  0  0  3  0  0  0  0  0  0
  192.9920  176.6230  143.1480 N   0  0  0  0  0  0  0  0  0  0  0  0
  190.5290  177.3170  142.7150 N   0  0  0  0  0  2  0  0  0  0  0  0
  192.4380  174.2720  143.3310 C   0  0  0  0  0  0  0  0  0  0  0  0
  197.8860  175.9410  142.8310 C   0  0  0  0  0  2  0  0  0  0  0  0
  196.7510  176.4640  143.6810 C   0  0  0  0  0  2  0  0  0  0  0  0
  195.7720  176.1320  142.5780 C   0  0  1  0  0  0  0  0  0  0  0  0
  196.8970  175.4740  141.7800 C   0  0  1  0  0  3  0  0  0  0  0  0
  196.0670  176.5740  141.1600 C   0  0  0  0  0  2  0  0  0  0  0  0
  189.2760  175.4010  142.1150 N   0  0  1  0  0  0  0  0  0  0  0  0
  188.0460  174.7000  142.5430 C   0  0  0  0  0  2  0  0  0  0  0  0
  187.8990  175.2030  140.0410 C   0  0  0  0  0  1  0  0  0  0  0  0
  187.9680  175.6870  141.4780 C   0  0  2  0  0  0  0  0  0  0  0  0
  187.3930  176.9930  141.8050 N   0  0  0  0  0  2  0  0  0  0  0  0
  186.0630  176.7800  142.3550 C   0  0  0  0  0  2  0  0  0  0  0  0
  185.7210  177.8800  143.3050 C   0  0  0  0  0  0  0  0  0  0  0  0
  186.5580  176.6120  145.3230 C   0  0  0  0  0  3  0  0  0  0  0  0
  185.9220  177.7230  144.7170 N   0  0  0  0  0  0  0  0  0  0  0  0
  185.6150  178.7260  145.7230 C   0  0  1  0  0  3  0  0  0  0  0  0
  185.2600  178.9580  142.8460 O   0  0  0  0  0  0  0  0  0  0  0  0
  184.1080  178.8820  145.8560 C   0  0  0  0  0  1  0  0  0  0  0  0
  186.7140  176.8050  146.6170 C   0  0  0  0  0  3  0  0  0  0  0  0
  186.1740  178.1400  147.0180 C   0  0  0  0  0  2  0  0  0  0  0  0
  191.7700  171.8520  142.9720 C   0  0  0  0  0  2  0  0  0  0  0  0
  192.4970  172.2740  141.7070 C   0  0  2  0  0  3  0  0  0  0  0  0
  192.9030  172.8570  143.0730 C   0  0  1  0  0  3  0  0  0  0  0  0
  189.5130  170.9360  138.4370 C   0  0  0  0  0  1  0  0  0  0  0  0
  192.3080  173.7730  139.6460 C   0  0  2  0  0  3  0  0  0  0  0  0
  191.9780  171.4330  138.5890 C   0  0  0  0  0  2  0  0  0  0  0  0
  191.5710  173.1490  140.8440 C   0  0  1  0  0  3  0  0  0  0  0  0
  192.6770  172.7970  138.5110 C   0  0  0  0  0  2  0  0  0  0  0  0
  190.4290  172.3410  140.3130 C   0  0  0  0  0  0  0  0  0  0  0  0
  189.3100  172.3640  140.8950 O   0  0  0  0  0  0  0  0  0  0  0  0
  190.6300  171.5590  139.1300 N   0  0  0  0  0  0  0  0  0  0  0  0
  193.4330  174.4930  140.0480 O   0  0  0  0  0  1  0  0  0  0  0  0
  1  7  2  0  0  0  0
  1  9  1  0  0  0  0
  2  1  1  0  0  0  0
  3  4  1  0  0  0  0
  4  5  1  6  0  0  0
  6  8  1  6  0  0  0
  6  4  1  0  0  0  0
  7  3  1  0  0  0  0
  8  3  1  0  0  0  0
  9  5  2  0  0  0  0
 10 11  1  0  0  0  0
 12  2  1  1  0  0  0
 12 11  1  0  0  0  0
 13 14  1  6  0  0  0
 13 12  1  0  0  0  0
 13 10  1  0  0  0  0
 14 12  1  0  0  0  0
 15 16  1  1  0  0  0
 15  6  1  0  0  0  0
 18 17  1  6  0  0  0
 18 19  1  0  0  0  0
 18 15  1  0  0  0  0
 18 16  1  0  0  0  0
 19 20  1  0  0  0  0
 20 21  1  0  0  0  0
 21 23  1  0  0  0  0
 22 27  2  0  0  0  0
 23 22  1  0  0  0  0
 23 24  1  0  0  0  0
 24 26  1  1  0  0  0
 24 28  1  0  0  0  0
 25 21  2  0  0  0  0
 27 28  1  0  0  0  0
 29 31  1  0  0  0  0
 30 29  1  1  0  0  0
 30 31  1  0  0  0  0
 31  9  1  6  0  0  0
 32 39  1  0  0  0  0
 33 40  1  1  0  0  0
 33 35  1  0  0  0  0
 34 39  1  0  0  0  0
 35 37  1  6  0  0  0
 35 30  1  0  0  0  0
 36 34  1  0  0  0  0
 36 33  1  0  0  0  0
 37 38  2  0  0  0  0
 39 37  1  0  0  0  0
M  END
>  <MODEL>
1

>  <REMARK>
 VINA RESULT:      -7.2      0.000      0.000
  Name = 
  7 active torsions:
  status: ('A' for Active; 'I' for Inactive)
    1  A    between atoms: C_3  and  C_35
    2  A    between atoms: N_6  and  C_25
    3  A    between atoms: N_7  and  C_15
    4  A    between atoms: C_16  and  C_23
    5  A    between atoms: C_27  and  N_39
    6  A    between atoms: C_34  and  C_37
    7  A    between atoms: C_35  and  N_39
                            x       y       z     vdW  Elec       q    Type
                         _______ _______ _______ _____ _____    ______ ____

>  <TORSDO>
F 7

$$$$
=
 OpenBabel11042419253D

 40 47  0  0  1  0  0  0  0  0999 V2000
  188.2880  177.2580  144.2710 C   0  0  0  0  0  0  0  0  0  0  0  0
  186.9720  177.0170  144.7780 N   0  0  0  0  0  2  0  0  0  0  0  0
  190.4060  178.1380  144.4050 N   0  0  0  0  0  0  0  0  0  0  0  0
  190.8010  177.9080  143.0140 C   0  0  2  0  0  3  0  0  0  0  0  0
  189.8750  176.9220  142.4380 N   0  0  0  0  0  0  0  0  0  0  0  0
  192.1150  177.3760  143.4100 C   0  0  1  0  0  3  0  0  0  0  0  0
  189.1430  177.9490  144.9650 N   0  0  0  0  0  0  0  0  0  0  0  0
  191.7170  177.6960  144.7510 N   0  0  0  0  0  2  0  0  0  0  0  0
  188.7140  176.6320  142.9790 C   0  0  0  0  0  0  0  0  0  0  0  0
  184.4850  178.1050  146.5100 C   0  0  0  0  0  2  0  0  0  0  0  0
  185.7010  178.8510  146.0130 C   0  0  0  0  0  2  0  0  0  0  0  0
  186.4990  177.5660  146.0380 C   0  0  1  0  0  0  0  0  0  0  0  0
  185.2330  176.7900  146.4010 C   0  0  1  0  0  3  0  0  0  0  0  0
  186.4630  176.6890  147.2730 C   0  0  0  0  0  2  0  0  0  0  0  0
  192.2020  175.9220  143.2610 N   0  0  1  0  0  0  0  0  0  0  0  0
  193.1950  175.6830  142.1910 C   0  0  0  0  0  2  0  0  0  0  0  0
  193.5140  173.9440  144.0360 C   0  0  0  0  0  1  0  0  0  0  0  0
  193.5490  175.3870  143.5700 C   0  0  2  0  0  0  0  0  0  0  0  0
  194.4440  176.3220  144.2550 N   0  0  0  0  0  2  0  0  0  0  0  0
  195.6690  176.4340  143.4780 C   0  0  0  0  0  2  0  0  0  0  0  0
  196.4970  175.2050  143.6520 C   0  0  0  0  0  0  0  0  0  0  0  0
  196.6340  174.7510  141.1720 C   0  0  0  0  0  3  0  0  0  0  0  0
  196.8790  174.4060  142.5230 N   0  0  0  0  0  0  0  0  0  0  0  0
  197.6740  173.1910  142.5870 C   0  0  1  0  0  3  0  0  0  0  0  0
  196.8680  174.8810  144.8110 O   0  0  0  0  0  0  0  0  0  0  0  0
  196.8630  172.0740  143.2250 C   0  0  0  0  0  1  0  0  0  0  0  0
  197.2110  173.8940  140.3530 C   0  0  0  0  0  3  0  0  0  0  0  0
  197.9410  172.8420  141.1240 C   0  0  0  0  0  2  0  0  0  0  0  0
  188.2370  175.2110  140.9330 C   0  0  0  0  0  2  0  0  0  0  0  0
  188.3560  174.2390  142.0940 C   0  0  2  0  0  3  0  0  0  0  0  0
  187.7780  175.6490  142.3120 C   0  0  1  0  0  3  0  0  0  0  0  0
  191.2860  170.9810  140.6150 C   0  0  0  0  0  1  0  0  0  0  0  0
  190.0180  173.3280  143.8090 C   0  0  2  0  0  3  0  0  0  0  0  0
  189.5340  171.2040  142.4110 C   0  0  0  0  0  2  0  0  0  0  0  0
  189.8380  174.0500  142.4630 C   0  0  1  0  0  3  0  0  0  0  0  0
  189.6800  171.8230  143.8070 C   0  0  0  0  0  2  0  0  0  0  0  0
  190.5420  173.2490  141.4120 C   0  0  0  0  0  0  0  0  0  0  0  0
  191.2130  173.8280  140.5150 O   0  0  0  0  0  0  0  0  0  0  0  0
  190.4500  171.8200  141.4590 N   0  0  0  0  0  0  0  0  0  0  0  0
  189.3330  173.9740  144.8380 O   0  0  0  0  0  1  0  0  0  0  0  0
  1  2  1  0  0  0  0
  1  7  2  0  0  0  0
  3  8  1  0  0  0  0
  3  7  1  0  0  0  0
  4  5  1  1  0  0  0
  4  6  1  0  0  0  0
  4  3  1  0  0  0  0
  5  9  2  0  0  0  0
  6  8  1  1  0  0  0
  9  1  1  0  0  0  0
 11 12  1  0  0  0  0
 11 10  1  0  0  0  0
 12  2  1  6  0  0  0
 12 13  1  0  0  0  0
 12 14  1  0  0  0  0
 13 10  1  1  0  0  0
 13 14  1  0  0  0  0
 15 16  1  6  0  0  0
 15  6  1  0  0  0  0
 15 18  1  0  0  0  0
 16 18  1  0  0  0  0
 18 17  1  1  0  0  0
 18 19  1  0  0  0  0
 20 21  1  0  0  0  0
 20 19  1  0  0  0  0
 21 25  2  0  0  0  0
 22 23  1  0  0  0  0
 23 24  1  0  0  0  0
 23 21  1  0  0  0  0
 24 26  1  6  0  0  0
 27 28  1  0  0  0  0
 27 22  2  0  0  0  0
 28 24  1  0  0  0  0
 29 31  1  0  0  0  0
 30 29  1  6  0  0  0
 30 31  1  0  0  0  0
 30 35  1  0  0  0  0
 31  9  1  1  0  0  0
 32 39  1  0  0  0  0
 33 40  1  1  0  0  0
 34 36  1  0  0  0  0
 35 37  1  6  0  0  0
 35 33  1  0  0  0  0
 36 33  1  0  0  0  0
 37 39  1  0  0  0  0
 38 37  2  0  0  0  0
 39 34  1  0  0  0  0
M  END
>  <MODEL>
2

>  <REMARK>
 VINA RESULT:      -7.0      2.082      8.206
  Name = 
  7 active torsions:
  status: ('A' for Active; 'I' for Inactive)
    1  A    between atoms: C_3  and  C_35
    2  A    between atoms: N_6  and  C_25
    3  A    between atoms: N_7  and  C_15
    4  A    between atoms: C_16  and  C_23
    5  A    between atoms: C_27  and  N_39
    6  A    between atoms: C_34  and  C_37
    7  A    between atoms: C_35  and  N_39
                            x       y       z     vdW  Elec       q    Type
                         _______ _______ _______ _____ _____    ______ ____

>  <TORSDO>
F 7

$$$$
=
 OpenBabel11042419253D

 40 47  0  0  1  0  0  0  0  0999 V2000
  192.2200  175.0150  144.5630 C   0  0  0  0  0  0  0  0  0  0  0  0
  193.4350  174.2590  144.5700 N   0  0  0  0  0  2  0  0  0  0  0  0
  191.0300  176.9800  144.5700 N   0  0  0  0  0  0  0  0  0  0  0  0
  189.7080  176.4060  144.8320 C   0  0  2  0  0  3  0  0  0  0  0  0
  189.7730  174.9670  144.5360 N   0  0  0  0  0  0  0  0  0  0  0  0
  189.0750  177.2320  143.7910 C   0  0  1  0  0  3  0  0  0  0  0  0
  192.2550  176.3150  144.5820 N   0  0  0  0  0  0  0  0  0  0  0  0
  190.3720  177.8230  143.6270 N   0  0  0  0  0  2  0  0  0  0  0  0
  190.9050  174.3090  144.4370 C   0  0  0  0  0  0  0  0  0  0  0  0
  196.4230  174.1400  145.7640 C   0  0  0  0  0  2  0  0  0  0  0  0
  195.3290  175.1470  146.0290 C   0  0  0  0  0  2  0  0  0  0  0  0
  194.7480  174.8770  144.6590 C   0  0  1  0  0  0  0  0  0  0  0  0
  195.7680  173.7580  144.4510 C   0  0  1  0  0  3  0  0  0  0  0  0
  195.6580  174.8830  143.4480 C   0  0  0  0  0  2  0  0  0  0  0  0
  188.7360  176.4620  142.5910 N   0  0  1  0  0  0  0  0  0  0  0  0
  187.4150  175.8530  142.8620 C   0  0  0  0  0  2  0  0  0  0  0  0
  187.4950  176.6380  140.4320 C   0  0  0  0  0  1  0  0  0  0  0  0
  187.5110  176.9530  141.9160 C   0  0  2  0  0  0  0  0  0  0  0  0
  187.0450  178.2690  142.3580 N   0  0  0  0  0  2  0  0  0  0  0  0
  185.6850  178.1280  142.8550 C   0  0  0  0  0  2  0  0  0  0  0  0
  185.5470  178.8280  144.1660 C   0  0  0  0  0  0  0  0  0  0  0  0
  186.2330  176.7990  145.5040 C   0  0  0  0  0  3  0  0  0  0  0  0
  185.7610  178.1300  145.4020 N   0  0  0  0  0  0  0  0  0  0  0  0
  185.6430  178.7170  146.7260 C   0  0  1  0  0  3  0  0  0  0  0  0
  185.2460  180.0510  144.1730 O   0  0  0  0  0  0  0  0  0  0  0  0
  184.1830  179.0110  147.0340 C   0  0  0  0  0  1  0  0  0  0  0  0
  186.4550  176.4730  146.7620 C   0  0  0  0  0  3  0  0  0  0  0  0
  186.1410  177.6200  147.6660 C   0  0  0  0  0  2  0  0  0  0  0  0
  189.5860  172.2840  143.6690 C   0  0  0  0  0  2  0  0  0  0  0  0
  190.7590  172.4030  142.7110 C   0  0  2  0  0  3  0  0  0  0  0  0
  190.9090  172.8180  144.1860 C   0  0  1  0  0  3  0  0  0  0  0  0
  188.6140  172.1880  138.6190 C   0  0  0  0  0  1  0  0  0  0  0  0
  191.7250  173.8430  140.8330 C   0  0  2  0  0  3  0  0  0  0  0  0
  190.9330  171.7650  139.5070 C   0  0  0  0  0  2  0  0  0  0  0  0
  190.4970  173.5420  141.7100 C   0  0  1  0  0  3  0  0  0  0  0  0
  192.0520  172.7840  139.7600 C   0  0  0  0  0  2  0  0  0  0  0  0
  189.3580  173.1920  140.8030 C   0  0  0  0  0  0  0  0  0  0  0  0
  188.1980  173.6250  141.0440 O   0  0  0  0  0  0  0  0  0  0  0  0
  189.6170  172.3750  139.6560 N   0  0  0  0  0  0  0  0  0  0  0  0
  192.8570  174.1130  141.6030 O   0  0  0  0  0  1  0  0  0  0  0  0
  1  2  1  0  0  0  0
  1  7  2  0  0  0  0
  3  7  1  0  0  0  0
  3  4  1  0  0  0  0
  4  5  1  6  0  0  0
  6  8  1  6  0  0  0
  6  4  1  0  0  0  0
  8  3  1  0  0  0  0
  9  5  2  0  0  0  0
  9  1  1  0  0  0  0
 10 11  1  0  0  0  0
 12  2  1  6  0  0  0
 12 11  1  0  0  0  0
 13 14  1  6  0  0  0
 13 12  1  0  0  0  0
 13 10  1  0  0  0  0
 14 12  1  0  0  0  0
 15 16  1  1  0  0  0
 15  6  1  0  0  0  0
 18 17  1  6  0  0  0
 18 19  1  0  0  0  0
 18 15  1  0  0  0  0
 18 16  1  0  0  0  0
 19 20  1  0  0  0  0
 20 21  1  0  0  0  0
 21 25  2  0  0  0  0
 21 23  1  0  0  0  0
 22 27  2  0  0  0  0
 23 22  1  0  0  0  0
 23 24  1  0  0  0  0
 24 26  1  1  0  0  0
 24 28  1  0  0  0  0
 27 28  1  0  0  0  0
 29 31  1  0  0  0  0
 30 29  1  1  0  0  0
 30 31  1  0  0  0  0
 31  9  1  6  0  0  0
 32 39  1  0  0  0  0
 33 40  1  1  0  0  0
 33 35  1  0  0  0  0
 34 39  1  0  0  0  0
 34 36  1  0  0  0  0
 35 37  1  6  0  0  0
 35 30  1  0  0  0  0
 36 33  1  0  0  0  0
 37 38  2  0  0  0  0
 39 37  1  0  0  0  0
M  END
>  <MODEL>
3

>  <REMARK>
 VINA RESULT:      -6.9      1.593      1.803
  Name = 
  7 active torsions:
  status: ('A' for Active; 'I' for Inactive)
    1  A    between atoms: C_3  and  C_35
    2  A    between atoms: N_6  and  C_25
    3  A    between atoms: N_7  and  C_15
    4  A    between atoms: C_16  and  C_23
    5  A    between atoms: C_27  and  N_39
    6  A    between atoms: C_34  and  C_37
    7  A    between atoms: C_35  and  N_39
                            x       y       z     vdW  Elec       q    Type
                         _______ _______ _______ _____ _____    ______ ____

>  <TORSDO>
F 7

$$$$
=
 OpenBabel11042419253D

 40 47  0  0  1  0  0  0  0  0999 V2000
  190.9960  172.0140  140.6890 C   0  0  0  0  0  0  0  0  0  0  0  0
  191.5490  170.7920  140.1910 N   0  0  0  0  0  2  0  0  0  0  0  0
  189.2730  173.3080  141.4860 N   0  0  0  0  0  0  0  0  0  0  0  0
  189.9510  174.6030  141.4080 C   0  0  2  0  0  3  0  0  0  0  0  0
  191.3950  174.3520  141.2900 N   0  0  0  0  0  0  0  0  0  0  0  0
  189.4910  174.9950  142.7510 C   0  0  1  0  0  3  0  0  0  0  0  0
  189.7370  172.0840  141.0050 N   0  0  0  0  0  0  0  0  0  0  0  0
  188.7770  173.7510  142.7470 N   0  0  0  0  0  2  0  0  0  0  0  0
  191.8910  173.1890  140.9370 C   0  0  0  0  0  0  0  0  0  0  0  0
  191.0380  168.1670  138.3960 C   0  0  0  0  0  2  0  0  0  0  0  0
  190.1630  169.3850  138.5770 C   0  0  0  0  0  2  0  0  0  0  0  0
  190.7480  169.6010  139.9550 C   0  0  1  0  0  0  0  0  0  0  0  0
  191.7320  168.4570  139.7130 C   0  0  1  0  0  3  0  0  0  0  0  0
  190.8270  168.4390  140.9230 C   0  0  0  0  0  2  0  0  0  0  0  0
  190.5610  174.9400  143.7500 N   0  0  1  0  0  0  0  0  0  0  0  0
  190.8530  176.3460  144.1060 C   0  0  0  0  0  2  0  0  0  0  0  0
  190.9420  174.9080  146.2170 C   0  0  0  0  0  1  0  0  0  0  0  0
  190.1570  175.4990  145.0620 C   0  0  2  0  0  0  0  0  0  0  0  0
  188.7170  175.7090  145.2280 N   0  0  0  0  0  2  0  0  0  0  0  0
  188.5070  177.0630  145.7170 C   0  0  0  0  0  2  0  0  0  0  0  0
  187.5520  177.7850  144.8250 C   0  0  0  0  0  0  0  0  0  0  0  0
  185.7310  177.8660  146.5730 C   0  0  0  0  0  3  0  0  0  0  0  0
  186.2190  178.0890  145.2620 N   0  0  0  0  0  0  0  0  0  0  0  0
  185.2150  178.7780  144.4700 C   0  0  1  0  0  3  0  0  0  0  0  0
  187.9370  178.1330  143.6780 O   0  0  0  0  0  0  0  0  0  0  0  0
  184.7420  177.8780  143.3390 C   0  0  0  0  0  1  0  0  0  0  0  0
  184.5180  178.3620  146.7150 C   0  0  0  0  0  3  0  0  0  0  0  0
  184.0610  179.0040  145.4450 C   0  0  0  0  0  2  0  0  0  0  0  0
  194.1970  174.1970  141.2420 C   0  0  0  0  0  2  0  0  0  0  0  0
  194.1780  172.9410  142.0950 C   0  0  2  0  0  3  0  0  0  0  0  0
  193.3830  173.0040  140.7780 C   0  0  1  0  0  3  0  0  0  0  0  0
  195.7150  174.5370  146.1540 C   0  0  0  0  0  1  0  0  0  0  0  0
  193.1450  171.9140  144.1950 C   0  0  2  0  0  3  0  0  0  0  0  0
  195.5790  172.3110  144.9830 C   0  0  0  0  0  2  0  0  0  0  0  0
  193.3770  173.2000  143.3830 C   0  0  1  0  0  3  0  0  0  0  0  0
  194.3870  171.3480  144.9130 C   0  0  0  0  0  2  0  0  0  0  0  0
  194.0970  174.1760  144.2610 C   0  0  0  0  0  0  0  0  0  0  0  0
  193.7790  175.3970  144.2480 O   0  0  0  0  0  0  0  0  0  0  0  0
  195.1360  173.6930  145.1200 N   0  0  0  0  0  0  0  0  0  0  0  0
  192.5370  170.9200  143.4280 O   0  0  0  0  0  1  0  0  0  0  0  0
  1  9  1  0  0  0  0
  1  7  2  0  0  0  0
  2  1  1  0  0  0  0
  3  8  1  0  0  0  0
  4  5  1  1  0  0  0
  4  3  1  0  0  0  0
  4  6  1  0  0  0  0
  6  8  1  1  0  0  0
  6 15  1  0  0  0  0
  7  3  1  0  0  0  0
  9  5  2  0  0  0  0
 10 11  1  0  0  0  0
 11 12  1  0  0  0  0
 12  2  1  1  0  0  0
 12 14  1  0  0  0  0
 13 10  1  6  0  0  0
 13 12  1  0  0  0  0
 13 14  1  0  0  0  0
 15 16  1  6  0  0  0
 15 18  1  0  0  0  0
 16 18  1  0  0  0  0
 18 19  1  0  0  0  0
 18 17  1  1  0  0  0
 19 20  1  0  0  0  0
 21 23  1  0  0  0  0
 21 20  1  0  0  0  0
 22 27  2  0  0  0  0
 23 22  1  0  0  0  0
 24 26  1  6  0  0  0
 24 23  1  0  0  0  0
 24 28  1  0  0  0  0
 25 21  2  0  0  0  0
 28 27  1  0  0  0  0
 30 29  1  6  0  0  0
 30 35  1  0  0  0  0
 31  9  1  1  0  0  0
 31 29  1  0  0  0  0
 31 30  1  0  0  0  0
 33 40  1  6  0  0  0
 33 36  1  0  0  0  0
 34 39  1  0  0  0  0
 35 33  1  0  0  0  0
 35 37  1  1  0  0  0
 36 34  1  0  0  0  0
 37 39  1  0  0  0  0
 38 37  2  0  0  0  0
 39 32  1  0  0  0  0
M  END
>  <MODEL>
4

>  <REMARK>
 VINA RESULT:      -6.7      2.261      5.564
  Name = 
  7 active torsions:
  status: ('A' for Active; 'I' for Inactive)
    1  A    between atoms: C_3  and  C_35
    2  A    between atoms: N_6  and  C_25
    3  A    between atoms: N_7  and  C_15
    4  A    between atoms: C_16  and  C_23
    5  A    between atoms: C_27  and  N_39
    6  A    between atoms: C_34  and  C_37
    7  A    between atoms: C_35  and  N_39
                            x       y       z     vdW  Elec       q    Type
                         _______ _______ _______ _____ _____    ______ ____

>  <TORSDO>
F 7

$$$$
=
 OpenBabel11042419253D

 40 47  0  0  1  0  0  0  0  0999 V2000
  193.5560  173.1950  144.0280 C   0  0  0  0  0  0  0  0  0  0  0  0
  194.9650  173.2740  143.7930 N   0  0  0  0  0  2  0  0  0  0  0  0
  191.5940  173.9180  144.9780 N   0  0  0  0  0  0  0  0  0  0  0  0
  190.7730  172.7530  144.6400 C   0  0  2  0  0  3  0  0  0  0  0  0
  191.4650  172.0040  143.5810 N   0  0  0  0  0  0  0  0  0  0  0  0
  189.6550  173.5960  144.1830 C   0  0  1  0  0  3  0  0  0  0  0  0
  192.9690  174.0600  144.8010 N   0  0  0  0  0  0  0  0  0  0  0  0
  190.4630  174.7030  144.6060 N   0  0  0  0  0  2  0  0  0  0  0  0
  192.7380  172.1690  143.3050 C   0  0  0  0  0  0  0  0  0  0  0  0
  197.8650  173.9990  144.9920 C   0  0  0  0  0  2  0  0  0  0  0  0
  196.5400  173.8760  145.7070 C   0  0  0  0  0  2  0  0  0  0  0  0
  195.8180  174.2620  144.4350 C   0  0  1  0  0  0  0  0  0  0  0  0
  197.1460  174.2450  143.6790 C   0  0  1  0  0  3  0  0  0  0  0  0
  196.2740  175.4790  143.6580 C   0  0  0  0  0  2  0  0  0  0  0  0
  189.5250  173.6150  142.7240 N   0  0  1  0  0  0  0  0  0  0  0  0
  188.2040  173.0200  142.4280 C   0  0  0  0  0  2  0  0  0  0  0  0
  188.6100  174.9930  140.8540 C   0  0  0  0  0  1  0  0  0  0  0  0
  188.3950  174.4520  142.2550 C   0  0  2  0  0  0  0  0  0  0  0  0
  187.8200  175.3390  143.2680 N   0  0  0  0  0  2  0  0  0  0  0  0
  186.6920  176.0400  142.6720 C   0  0  0  0  0  2  0  0  0  0  0  0
  186.6380  177.4430  143.1790 C   0  0  0  0  0  0  0  0  0  0  0  0
  185.6070  176.7760  145.3860 C   0  0  0  0  0  3  0  0  0  0  0  0
  186.0540  177.7440  144.4550 N   0  0  0  0  0  0  0  0  0  0  0  0
  185.9460  179.0740  145.0320 C   0  0  1  0  0  3  0  0  0  0  0  0
  187.1230  178.3640  142.4700 O   0  0  0  0  0  0  0  0  0  0  0  0
  184.9210  179.8910  144.2620 C   0  0  0  0  0  1  0  0  0  0  0  0
  185.2400  177.3430  146.5170 C   0  0  0  0  0  3  0  0  0  0  0  0
  185.4260  178.8240  146.4470 C   0  0  0  0  0  2  0  0  0  0  0  0
  192.4440  170.4910  141.4270 C   0  0  0  0  0  2  0  0  0  0  0  0
  193.0700  171.7190  140.7900 C   0  0  2  0  0  3  0  0  0  0  0  0
  193.4110  171.3310  142.2410 C   0  0  1  0  0  3  0  0  0  0  0  0
  190.2310  172.4020  137.2050 C   0  0  0  0  0  1  0  0  0  0  0  0
  192.6060  174.1470  140.1430 C   0  0  2  0  0  3  0  0  0  0  0  0
  192.5980  173.0050  137.8200 C   0  0  0  0  0  2  0  0  0  0  0  0
  192.0030  172.8130  140.6140 C   0  0  1  0  0  3  0  0  0  0  0  0
  193.0850  174.1800  138.6780 C   0  0  0  0  0  2  0  0  0  0  0  0
  190.9790  172.3890  139.6070 C   0  0  0  0  0  0  0  0  0  0  0  0
  189.8840  171.8890  139.9860 O   0  0  0  0  0  0  0  0  0  0  0  0
  191.2620  172.5780  138.2160 N   0  0  0  0  0  0  0  0  0  0  0  0
  193.6230  174.5830  140.9930 O   0  0  0  0  0  1  0  0  0  0  0  0
  1  7  2  0  0  0  0
  2  1  1  0  0  0  0
  4  5  1  6  0  0  0
  4  3  1  0  0  0  0
  6  8  1  6  0  0  0
  6  4  1  0  0  0  0
  7  3  1  0  0  0  0
  8  3  1  0  0  0  0
  9  5  2  0  0  0  0
  9  1  1  0  0  0  0
 10 11  1  0  0  0  0
 12  2  1  6  0  0  0
 12 11  1  0  0  0  0
 13 14  1  1  0  0  0
 13 12  1  0  0  0  0
 13 10  1  0  0  0  0
 14 12  1  0  0  0  0
 15 16  1  1  0  0  0
 15  6  1  0  0  0  0
 18 17  1  6  0  0  0
 18 16  1  0  0  0  0
 18 15  1  0  0  0  0
 18 19  1  0  0  0  0
 20 21  1  0  0  0  0
 20 19  1  0  0  0  0
 21 23  1  0  0  0  0
 22 27  2  0  0  0  0
 23 24  1  0  0  0  0
 23 22  1  0  0  0  0
 24 26  1  6  0  0  0
 24 28  1  0  0  0  0
 25 21  2  0  0  0  0
 28 27  1  0  0  0  0
 29 31  1  0  0  0  0
 30 29  1  6  0  0  0
 30 31  1  0  0  0  0
 31  9  1  1  0  0  0
 32 39  1  0  0  0  0
 33 35  1  0  0  0  0
 33 40  1  1  0  0  0
 34 39  1  0  0  0  0
 34 36  1  0  0  0  0
 35 37  1  6  0  0  0
 35 30  1  0  0  0  0
 36 33  1  0  0  0  0
 37 38  2  0  0  0  0
 39 37  1  0  0  0  0
M  END
>  <MODEL>
5

>  <REMARK>
 VINA RESULT:      -6.7      1.682      2.031
  Name = 
  7 active torsions:
  status: ('A' for Active; 'I' for Inactive)
    1  A    between atoms: C_3  and  C_35
    2  A    between atoms: N_6  and  C_25
    3  A    between atoms: N_7  and  C_15
    4  A    between atoms: C_16  and  C_23
    5  A    between atoms: C_27  and  N_39
    6  A    between atoms: C_34  and  C_37
    7  A    between atoms: C_35  and  N_39
                            x       y       z     vdW  Elec       q    Type
                         _______ _______ _______ _____ _____    ______ ____

>  <TORSDO>
F 7

$$$$
=
 OpenBabel11042419253D

 40 47  0  0  1  0  0  0  0  0999 V2000
  189.0830  175.0070  143.7590 C   0  0  0  0  0  0  0  0  0  0  0  0
  188.7090  176.3820  143.6300 N   0  0  0  0  0  2  0  0  0  0  0  0
  189.0350  172.8020  143.1180 N   0  0  0  0  0  0  0  0  0  0  0  0
  189.6890  172.2410  144.3010 C   0  0  2  0  0  3  0  0  0  0  0  0
  190.3660  173.3380  145.0070 N   0  0  0  0  0  0  0  0  0  0  0  0
  190.5660  171.3840  143.4870 C   0  0  1  0  0  3  0  0  0  0  0  0
  188.6210  174.1200  142.9290 N   0  0  0  0  0  0  0  0  0  0  0  0
  189.8410  171.9000  142.3620 N   0  0  0  0  0  2  0  0  0  0  0  0
  190.0860  174.6040  144.7960 C   0  0  0  0  0  0  0  0  0  0  0  0
  186.0310  178.0490  142.9830 C   0  0  0  0  0  2  0  0  0  0  0  0
  186.2940  176.5700  142.8310 C   0  0  0  0  0  2  0  0  0  0  0  0
  187.7660  176.8530  142.6280 C   0  0  1  0  0  0  0  0  0  0  0  0
  187.5200  178.3310  142.9250 C   0  0  1  0  0  3  0  0  0  0  0  0
  188.1920  177.9150  141.6370 C   0  0  0  0  0  2  0  0  0  0  0  0
  191.9470  171.8730  143.4430 N   0  0  1  0  0  0  0  0  0  0  0  0
  192.7660  170.8310  144.1000 C   0  0  0  0  0  2  0  0  0  0  0  0
  194.0320  171.7430  142.0760 C   0  0  0  0  0  1  0  0  0  0  0  0
  192.8470  170.9950  142.6580 C   0  0  2  0  0  0  0  0  0  0  0  0
  192.1690  170.0010  141.8230 N   0  0  0  0  0  2  0  0  0  0  0  0
  192.5770  170.2100  140.4430 C   0  0  0  0  0  2  0  0  0  0  0  0
  191.3830  170.4980  139.5960 C   0  0  0  0  0  0  0  0  0  0  0  0
  192.2040  172.7930  138.9370 C   0  0  0  0  0  3  0  0  0  0  0  0
  191.2260  171.7690  138.9490 N   0  0  0  0  0  0  0  0  0  0  0  0
  190.0990  172.1500  138.1130 C   0  0  1  0  0  3  0  0  0  0  0  0
  190.5120  169.6000  139.4480 O   0  0  0  0  0  0  0  0  0  0  0  0
  188.8550  172.3240  138.9700 C   0  0  0  0  0  1  0  0  0  0  0  0
  191.8340  173.7900  138.1580 C   0  0  0  0  0  3  0  0  0  0  0  0
  190.5040  173.5070  137.5380 C   0  0  0  0  0  2  0  0  0  0  0  0
  191.8120  175.1620  146.5670 C   0  0  0  0  0  2  0  0  0  0  0  0
  192.2780  175.8580  145.3000 C   0  0  2  0  0  3  0  0  0  0  0  0
  190.7760  175.6880  145.5910 C   0  0  1  0  0  3  0  0  0  0  0  0
  196.7000  174.5350  145.0030 C   0  0  0  0  0  1  0  0  0  0  0  0
  193.1880  175.4210  142.9520 C   0  0  2  0  0  3  0  0  0  0  0  0
  195.2760  176.4150  144.1160 C   0  0  0  0  0  2  0  0  0  0  0  0
  192.9040  174.8280  144.3430 C   0  0  1  0  0  3  0  0  0  0  0  0
  194.3660  176.4140  142.8810 C   0  0  0  0  0  2  0  0  0  0  0  0
  194.1950  174.3130  144.8980 C   0  0  0  0  0  0  0  0  0  0  0  0
  194.2270  173.2160  145.5200 O   0  0  0  0  0  0  0  0  0  0  0  0
  195.3870  175.0810  144.6940 N   0  0  0  0  0  0  0  0  0  0  0  0
  192.0450  175.9880  142.3880 O   0  0  0  0  0  1  0  0  0  0  0  0
  1  9  1  0  0  0  0
  2  1  1  0  0  0  0
  3  4  1  0  0  0  0
  4  5  1  6  0  0  0
  6  8  1  6  0  0  0
  6  4  1  0  0  0  0
  7  3  1  0  0  0  0
  7  1  2  0  0  0  0
  8  3  1  0  0  0  0
  9  5  2  0  0  0  0
 11 10  1  0  0  0  0
 12 11  1  0  0  0  0
 12 13  1  0  0  0  0
 12  2  1  1  0  0  0
 13 14  1  6  0  0  0
 13 10  1  0  0  0  0
 14 12  1  0  0  0  0
 15  6  1  0  0  0  0
 15 16  1  1  0  0  0
 18 17  1  6  0  0  0
 18 15  1  0  0  0  0
 18 16  1  0  0  0  0
 19 18  1  0  0  0  0
 20 19  1  0  0  0  0
 21 20  1  0  0  0  0
 22 23  1  0  0  0  0
 23 21  1  0  0  0  0
 24 23  1  0  0  0  0
 24 26  1  1  0  0  0
 25 21  2  0  0  0  0
 27 22  2  0  0  0  0
 28 24  1  0  0  0  0
 28 27  1  0  0  0  0
 30 31  1  0  0  0  0
 30 29  1  1  0  0  0
 31  9  1  6  0  0  0
 31 29  1  0  0  0  0
 33 40  1  1  0  0  0
 33 35  1  0  0  0  0
 34 39  1  0  0  0  0
 35 37  1  1  0  0  0
 35 30  1  0  0  0  0
 36 33  1  0  0  0  0
 36 34  1  0  0  0  0
 37 38  2  0  0  0  0
 39 37  1  0  0  0  0
 39 32  1  0  0  0  0
M  END
>  <MODEL>
6

>  <REMARK>
 VINA RESULT:      -6.4      2.531      7.656
  Name = 
  7 active torsions:
  status: ('A' for Active; 'I' for Inactive)
    1  A    between atoms: C_3  and  C_35
    2  A    between atoms: N_6  and  C_25
    3  A    between atoms: N_7  and  C_15
    4  A    between atoms: C_16  and  C_23
    5  A    between atoms: C_27  and  N_39
    6  A    between atoms: C_34  and  C_37
    7  A    between atoms: C_35  and  N_39
                            x       y       z     vdW  Elec       q    Type
                         _______ _______ _______ _____ _____    ______ ____

>  <TORSDO>
F 7

$$$$
=
 OpenBabel11042419253D

 40 47  0  0  1  0  0  0  0  0999 V2000
  191.4190  173.3960  141.5390 C   0  0  0  0  0  0  0  0  0  0  0  0
  191.8040  172.2210  140.8190 N   0  0  0  0  0  2  0  0  0  0  0  0
  189.9860  175.1250  142.0220 N   0  0  0  0  0  0  0  0  0  0  0  0
  190.8970  175.9040  142.8630 C   0  0  2  0  0  3  0  0  0  0  0  0
  191.9990  175.0220  143.2740 N   0  0  0  0  0  0  0  0  0  0  0  0
  189.8610  176.1300  143.8840 C   0  0  1  0  0  3  0  0  0  0  0  0
  190.2920  173.9880  141.2750 N   0  0  0  0  0  0  0  0  0  0  0  0
  188.9840  175.4320  142.9900 N   0  0  0  0  0  2  0  0  0  0  0  0
  192.2710  173.8890  142.6670 C   0  0  0  0  0  0  0  0  0  0  0  0
  191.5200  171.6810  137.6560 C   0  0  0  0  0  2  0  0  0  0  0  0
  190.6760  172.5540  138.5550 C   0  0  0  0  0  2  0  0  0  0  0  0
  191.0120  171.6660  139.7320 C   0  0  1  0  0  0  0  0  0  0  0  0
  191.9770  170.8710  138.8550 C   0  0  1  0  0  3  0  0  0  0  0  0
  190.8680  170.1650  139.6000 C   0  0  0  0  0  2  0  0  0  0  0  0
  190.0730  175.3240  145.0880 N   0  0  1  0  0  0  0  0  0  0  0  0
  190.8110  176.1910  146.0320 C   0  0  0  0  0  2  0  0  0  0  0  0
  189.0730  174.8320  147.3230 C   0  0  0  0  0  1  0  0  0  0  0  0
  189.4120  175.8890  146.2880 C   0  0  2  0  0  0  0  0  0  0  0  0
  188.4300  176.9410  146.0150 N   0  0  0  0  0  2  0  0  0  0  0  0
  187.1460  176.5170  146.5530 C   0  0  0  0  0  2  0  0  0  0  0  0
  186.1050  177.5440  146.2550 C   0  0  0  0  0  0  0  0  0  0  0  0
  185.9110  176.8760  143.8270 C   0  0  0  0  0  3  0  0  0  0  0  0
  185.5940  177.7130  144.9240 N   0  0  0  0  0  0  0  0  0  0  0  0
  184.5900  178.6870  144.5310 C   0  0  1  0  0  3  0  0  0  0  0  0
  185.6700  178.2590  147.1960 O   0  0  0  0  0  0  0  0  0  0  0  0
  185.1760  180.0880  144.5870 C   0  0  0  0  0  1  0  0  0  0  0  0
  185.1950  177.1950  142.7680 C   0  0  0  0  0  3  0  0  0  0  0  0
  184.2770  178.3330  143.0770 C   0  0  0  0  0  2  0  0  0  0  0  0
  194.3720  172.6590  141.9570 C   0  0  0  0  0  2  0  0  0  0  0  0
  194.8270  173.7220  142.9410 C   0  0  2  0  0  3  0  0  0  0  0  0
  193.4520  173.0490  143.0990 C   0  0  1  0  0  3  0  0  0  0  0  0
  197.8520  175.3730  139.8570 C   0  0  0  0  0  1  0  0  0  0  0  0
  195.4370  176.1960  143.1450 C   0  0  2  0  0  3  0  0  0  0  0  0
  197.6920  175.1920  142.3650 C   0  0  0  0  0  2  0  0  0  0  0  0
  194.8320  175.0980  142.2520 C   0  0  1  0  0  3  0  0  0  0  0  0
  196.9660  176.1280  143.3380 C   0  0  0  0  0  2  0  0  0  0  0  0
  195.6260  175.0470  140.9840 C   0  0  0  0  0  0  0  0  0  0  0  0
  195.0430  174.8970  139.8750 O   0  0  0  0  0  0  0  0  0  0  0  0
  197.0500  175.1860  141.0560 N   0  0  0  0  0  0  0  0  0  0  0  0
  194.7970  176.2670  144.3830 O   0  0  0  0  0  1  0  0  0  0  0  0
  1  9  1  0  0  0  0
  2  1  1  0  0  0  0
  3  4  1  0  0  0  0
  3  8  1  0  0  0  0
  4  5  1  1  0  0  0
  4  6  1  0  0  0  0
  6  8  1  6  0  0  0
  6 15  1  0  0  0  0
  7  1  2  0  0  0  0
  7  3  1  0  0  0  0
  9  5  2  0  0  0  0
 10 11  1  0  0  0  0
 11 12  1  0  0  0  0
 12  2  1  1  0  0  0
 13 10  1  6  0  0  0
 13 14  1  0  0  0  0
 13 12  1  0  0  0  0
 14 12  1  0  0  0  0
 15 16  1  1  0  0  0
 15 18  1  0  0  0  0
 16 18  1  0  0  0  0
 18 17  1  1  0  0  0
 19 18  1  0  0  0  0
 19 20  1  0  0  0  0
 21 20  1  0  0  0  0
 21 25  2  0  0  0  0
 22 23  1  0  0  0  0
 23 21  1  0  0  0  0
 24 26  1  6  0  0  0
 24 23  1  0  0  0  0
 27 28  1  0  0  0  0
 27 22  2  0  0  0  0
 28 24  1  0  0  0  0
 29 31  1  0  0  0  0
 30 29  1  6  0  0  0
 30 31  1  0  0  0  0
 31  9  1  6  0  0  0
 32 39  1  0  0  0  0
 33 36  1  0  0  0  0
 33 40  1  1  0  0  0
 34 36  1  0  0  0  0
 35 37  1  6  0  0  0
 35 30  1  0  0  0  0
 35 33  1  0  0  0  0
 37 39  1  0  0  0  0
 38 37  2  0  0  0  0
 39 34  1  0  0  0  0
M  END
>  <MODEL>
7

>  <REMARK>
 VINA RESULT:      -6.4      2.059      5.132
  Name = 
  7 active torsions:
  status: ('A' for Active; 'I' for Inactive)
    1  A    between atoms: C_3  and  C_35
    2  A    between atoms: N_6  and  C_25
    3  A    between atoms: N_7  and  C_15
    4  A    between atoms: C_16  and  C_23
    5  A    between atoms: C_27  and  N_39
    6  A    between atoms: C_34  and  C_37
    7  A    between atoms: C_35  and  N_39
                            x       y       z     vdW  Elec       q    Type
                         _______ _______ _______ _____ _____    ______ ____

>  <TORSDO>
F 7

$$$$
=
 OpenBabel11042419253D

 40 47  0  0  1  0  0  0  0  0999 V2000
  189.9340  174.2770  143.9880 C   0  0  0  0  0  0  0  0  0  0  0  0
  189.7100  175.6390  144.3630 N   0  0  0  0  0  2  0  0  0  0  0  0
  189.4350  172.3660  142.8140 N   0  0  0  0  0  0  0  0  0  0  0  0
  190.3270  171.4560  143.5360 C   0  0  2  0  0  3  0  0  0  0  0  0
  191.3070  172.2700  144.2700 N   0  0  0  0  0  0  0  0  0  0  0  0
  190.8240  170.8530  142.2880 C   0  0  1  0  0  3  0  0  0  0  0  0
  189.1500  173.6930  143.1310 N   0  0  0  0  0  0  0  0  0  0  0  0
  189.8760  171.7050  141.6290 N   0  0  0  0  0  2  0  0  0  0  0  0
  191.1340  173.5490  144.5120 C   0  0  0  0  0  0  0  0  0  0  0  0
  187.5200  177.9280  144.9470 C   0  0  0  0  0  2  0  0  0  0  0  0
  187.3150  176.4530  144.6930 C   0  0  0  0  0  2  0  0  0  0  0  0
  188.5840  176.4180  143.8710 C   0  0  1  0  0  0  0  0  0  0  0  0
  188.8650  177.8720  144.2480 C   0  0  1  0  0  3  0  0  0  0  0  0
  188.8060  177.4600  142.7950 C   0  0  0  0  0  2  0  0  0  0  0  0
  192.1830  171.2870  141.9560 N   0  0  1  0  0  0  0  0  0  0  0  0
  193.0430  170.0980  142.1380 C   0  0  0  0  0  2  0  0  0  0  0  0
  193.8070  171.3770  140.0610 C   0  0  0  0  0  1  0  0  0  0  0  0
  192.7530  170.5670  140.7920 C   0  0  2  0  0  0  0  0  0  0  0  0
  191.7850  169.8030  140.0030 N   0  0  0  0  0  2  0  0  0  0  0  0
  191.8670  170.2520  138.6220 C   0  0  0  0  0  2  0  0  0  0  0  0
  190.5580  170.8280  138.1940 C   0  0  0  0  0  0  0  0  0  0  0  0
  191.5710  173.0380  137.5100 C   0  0  0  0  0  3  0  0  0  0  0  0
  190.4640  172.1830  137.7290 N   0  0  0  0  0  0  0  0  0  0  0  0
  189.2400  172.8380  137.3000 C   0  0  1  0  0  3  0  0  0  0  0  0
  189.5310  170.1010  138.2390 O   0  0  0  0  0  0  0  0  0  0  0  0
  188.3370  173.0850  138.4990 C   0  0  0  0  0  1  0  0  0  0  0  0
  191.1890  174.1740  136.9610 C   0  0  0  0  0  3  0  0  0  0  0  0
  189.7100  174.1800  136.7430 C   0  0  0  0  0  2  0  0  0  0  0  0
  193.4280  173.5530  145.5910 C   0  0  0  0  0  2  0  0  0  0  0  0
  193.4480  174.6800  144.5730 C   0  0  2  0  0  3  0  0  0  0  0  0
  192.1500  174.3240  145.3210 C   0  0  1  0  0  3  0  0  0  0  0  0
  197.3330  173.8370  142.2110 C   0  0  0  0  0  1  0  0  0  0  0  0
  193.3900  175.1590  142.0630 C   0  0  2  0  0  3  0  0  0  0  0  0
  195.8280  175.8120  142.6360 C   0  0  0  0  0  2  0  0  0  0  0  0
  193.5960  174.0970  143.1570 C   0  0  1  0  0  3  0  0  0  0  0  0
  194.5290  176.1870  141.9120 C   0  0  0  0  0  2  0  0  0  0  0  0
  194.9580  173.5040  142.9730 C   0  0  0  0  0  0  0  0  0  0  0  0
  195.1350  172.2630  143.1110 O   0  0  0  0  0  0  0  0  0  0  0  0
  196.0440  174.3700  142.6240 N   0  0  0  0  0  0  0  0  0  0  0  0
  192.1650  175.8130  142.2020 O   0  0  0  0  0  1  0  0  0  0  0  0
  1  2  1  0  0  0  0
  1  9  1  0  0  0  0
  3  7  1  0  0  0  0
  3  4  1  0  0  0  0
  4  5  1  6  0  0  0
  5  9  2  0  0  0  0
  6  8  1  6  0  0  0
  6  4  1  0  0  0  0
  7  1  2  0  0  0  0
  8  3  1  0  0  0  0
 11 10  1  0  0  0  0
 12 13  1  0  0  0  0
 12  2  1  1  0  0  0
 12 11  1  0  0  0  0
 13 14  1  6  0  0  0
 13 10  1  0  0  0  0
 14 12  1  0  0  0  0
 15 16  1  1  0  0  0
 15  6  1  0  0  0  0
 18 17  1  6  0  0  0
 18 15  1  0  0  0  0
 18 16  1  0  0  0  0
 19 18  1  0  0  0  0
 20 19  1  0  0  0  0
 21 25  2  0  0  0  0
 21 20  1  0  0  0  0
 22 23  1  0  0  0  0
 23 21  1  0  0  0  0
 24 23  1  0  0  0  0
 24 26  1  1  0  0  0
 27 22  2  0  0  0  0
 28 27  1  0  0  0  0
 28 24  1  0  0  0  0
 30 31  1  0  0  0  0
 30 29  1  1  0  0  0
 31  9  1  6  0  0  0
 31 29  1  0  0  0  0
 32 39  1  0  0  0  0
 33 40  1  1  0  0  0
 33 35  1  0  0  0  0
 35 37  1  1  0  0  0
 35 30  1  0  0  0  0
 36 33  1  0  0  0  0
 36 34  1  0  0  0  0
 37 38  2  0  0  0  0
 39 34  1  0  0  0  0
 39 37  1  0  0  0  0
M  END
>  <MODEL>
8

>  <REMARK>
 VINA RESULT:      -6.3      2.552      7.327
  Name = 
  7 active torsions:
  status: ('A' for Active; 'I' for Inactive)
    1  A    between atoms: C_3  and  C_35
    2  A    between atoms: N_6  and  C_25
    3  A    between atoms: N_7  and  C_15
    4  A    between atoms: C_16  and  C_23
    5  A    between atoms: C_27  and  N_39
    6  A    between atoms: C_34  and  C_37
    7  A    between atoms: C_35  and  N_39
                            x       y       z     vdW  Elec       q    Type
                         _______ _______ _______ _____ _____    ______ ____

>  <TORSDO>
F 7

$$$$
=
 OpenBabel11042419253D

 40 47  0  0  1  0  0  0  0  0999 V2000
  188.2780  175.9830  142.9180 C   0  0  0  0  0  0  0  0  0  0  0  0
  187.8050  177.2010  143.5010 N   0  0  0  0  0  2  0  0  0  0  0  0
  187.9780  173.8930  142.0140 N   0  0  0  0  0  0  0  0  0  0  0  0
  189.3820  173.4760  142.0170 C   0  0  2  0  0  3  0  0  0  0  0  0
  190.2110  174.6800  142.1720 N   0  0  0  0  0  0  0  0  0  0  0  0
  189.2940  172.9480  140.6460 C   0  0  1  0  0  3  0  0  0  0  0  0
  187.4410  175.0480  142.5800 N   0  0  0  0  0  0  0  0  0  0  0  0
  187.9040  173.2980  140.7190 N   0  0  0  0  0  2  0  0  0  0  0  0
  189.7350  175.8240  142.6070 C   0  0  0  0  0  0  0  0  0  0  0  0
  185.6160  178.2560  145.6140 C   0  0  0  0  0  2  0  0  0  0  0  0
  185.8280  176.8600  145.0770 C   0  0  0  0  0  2  0  0  0  0  0  0
  186.4020  177.4390  143.8030 C   0  0  1  0  0  0  0  0  0  0  0  0
  186.3200  178.8410  144.4050 C   0  0  1  0  0  3  0  0  0  0  0  0
  185.6560  178.5410  143.0810 C   0  0  0  0  0  2  0  0  0  0  0  0
  189.9620  173.8090  139.6680 N   0  0  1  0  0  0  0  0  0  0  0  0
  191.2200  173.1170  139.3120 C   0  0  0  0  0  2  0  0  0  0  0  0
  190.2120  174.1610  137.2080 C   0  0  0  0  0  1  0  0  0  0  0  0
  190.1340  173.1600  138.3460 C   0  0  2  0  0  0  0  0  0  0  0  0
  189.3510  171.9380  138.1510 N   0  0  0  0  0  2  0  0  0  0  0  0
  189.5480  171.4840  136.7830 C   0  0  0  0  0  2  0  0  0  0  0  0
  190.4610  170.3020  136.7640 C   0  0  0  0  0  0  0  0  0  0  0  0
  192.2820  171.5270  135.5160 C   0  0  0  0  0  3  0  0  0  0  0  0
  191.7280  170.3590  136.0930 N   0  0  0  0  0  0  0  0  0  0  0  0
  192.6810  169.2650  136.0100 C   0  0  1  0  0  3  0  0  0  0  0  0
  190.1040  169.2500  137.3580 O   0  0  0  0  0  0  0  0  0  0  0  0
  192.1390  168.1740  135.1000 C   0  0  0  0  0  1  0  0  0  0  0  0
  193.5090  171.3050  135.0870 C   0  0  0  0  0  3  0  0  0  0  0  0
  193.9130  169.8920  135.3600 C   0  0  0  0  0  2  0  0  0  0  0  0
  190.2550  177.8990  143.9680 C   0  0  0  0  0  2  0  0  0  0  0  0
  191.4740  177.0030  144.0970 C   0  0  2  0  0  3  0  0  0  0  0  0
  190.6460  177.0150  142.7980 C   0  0  1  0  0  3  0  0  0  0  0  0
  191.5650  177.1000  148.7190 C   0  0  0  0  0  1  0  0  0  0  0  0
  192.3800  174.9210  145.2690 C   0  0  2  0  0  3  0  0  0  0  0  0
  193.2250  176.7870  146.8510 C   0  0  0  0  0  2  0  0  0  0  0  0
  191.1750  175.8590  145.0810 C   0  0  1  0  0  3  0  0  0  0  0  0
  193.5550  175.5020  146.0800 C   0  0  0  0  0  2  0  0  0  0  0  0
  190.8030  176.4060  146.4230 C   0  0  0  0  0  0  0  0  0  0  0  0
  189.5890  176.5180  146.7500 O   0  0  0  0  0  0  0  0  0  0  0  0
  191.8480  176.7800  147.3290 N   0  0  0  0  0  0  0  0  0  0  0  0
  192.8380  174.4170  144.0510 O   0  0  0  0  0  1  0  0  0  0  0  0
  1  2  1  0  0  0  0
  3  4  1  0  0  0  0
  3  7  1  0  0  0  0
  4  5  1  6  0  0  0
  5  9  2  0  0  0  0
  6  8  1  6  0  0  0
  6  4  1  0  0  0  0
  7  1  2  0  0  0  0
  8  3  1  0  0  0  0
  9  1  1  0  0  0  0
 11 10  1  0  0  0  0
 12  2  1  6  0  0  0
 12 13  1  0  0  0  0
 12 11  1  0  0  0  0
 13 14  1  6  0  0  0
 13 10  1  0  0  0  0
 14 12  1  0  0  0  0
 15 16  1  1  0  0  0
 15  6  1  0  0  0  0
 18 17  1  6  0  0  0
 18 16  1  0  0  0  0
 18 15  1  0  0  0  0
 19 18  1  0  0  0  0
 20 19  1  0  0  0  0
 21 20  1  0  0  0  0
 21 25  2  0  0  0  0
 22 23  1  0  0  0  0
 23 21  1  0  0  0  0
 24 26  1  6  0  0  0
 24 23  1  0  0  0  0
 27 28  1  0  0  0  0
 27 22  2  0  0  0  0
 28 24  1  0  0  0  0
 30 29  1  1  0  0  0
 30 35  1  0  0  0  0
 31  9  1  1  0  0  0
 31 29  1  0  0  0  0
 31 30  1  0  0  0  0
 33 40  1  6  0  0  0
 33 36  1  0  0  0  0
 34 39  1  0  0  0  0
 35 33  1  0  0  0  0
 35 37  1  1  0  0  0
 36 34  1  0  0  0  0
 37 38  2  0  0  0  0
 37 39  1  0  0  0  0
 39 32  1  0  0  0  0
M  END
>  <MODEL>
9

>  <REMARK>
 VINA RESULT:      -6.2      2.943      9.056
  Name = 
  7 active torsions:
  status: ('A' for Active; 'I' for Inactive)
    1  A    between atoms: C_3  and  C_35
    2  A    between atoms: N_6  and  C_25
    3  A    between atoms: N_7  and  C_15
    4  A    between atoms: C_16  and  C_23
    5  A    between atoms: C_27  and  N_39
    6  A    between atoms: C_34  and  C_37
    7  A    between atoms: C_35  and  N_39
                            x       y       z     vdW  Elec       q    Type
                         _______ _______ _______ _____ _____    ______ ____

>  <TORSDO>
F 7

$$$$
