=
 OpenBabel11042415113D

 27 29  0  0  1  0  0  0  0  0999 V2000
  190.0050  174.6690  143.4340 C   0  0  2  0  0  3  0  0  0  0  0  0
  188.2170  175.9970  144.6340 C   0  0  0  0  0  3  0  0  0  0  0  0
  189.0900  175.0040  147.0860 C   0  0  0  0  0  3  0  0  0  0  0  0
  189.7290  174.6110  145.9100 C   0  0  0  0  0  3  0  0  0  0  0  0
  188.0140  175.8940  147.0360 C   0  0  0  0  0  3  0  0  0  0  0  0
  187.5680  176.4010  145.8100 C   0  0  0  0  0  0  0  0  0  0  0  0
  189.2980  175.1050  144.6810 C   0  0  0  0  0  0  0  0  0  0  0  0
  186.4140  177.3260  145.7530 C   0  0  0  0  0  0  0  0  0  0  0  0
  184.2240  179.0450  145.6530 C   0  0  0  0  0  3  0  0  0  0  0  0
  185.3400  179.3130  144.8610 C   0  0  0  0  0  3  0  0  0  0  0  0
  184.2090  177.9510  146.4650 N   0  0  0  0  0  0  0  0  0  0  0  0
  185.2660  177.0980  146.5300 C   0  0  0  0  0  3  0  0  0  0  0  0
  186.4360  178.4480  144.9150 C   0  0  0  0  0  3  0  0  0  0  0  0
  189.2570  173.5970  142.6150 C   0  0  2  0  0  3  0  0  0  0  0  0
  189.9480  171.9630  143.0080 S   0  0  0  0  0  1  0  0  0  0  0  0
  189.3760  173.8170  141.2410 O   0  0  0  0  0  0  0  0  0  0  0  0
  188.5340  174.9030  140.9790 C   0  0  0  0  0  1  0  0  0  0  0  0
  191.4910  174.3850  143.7190 C   0  0  0  0  0  2  0  0  0  0  0  0
  193.8890  176.3530  141.7650 O   0  0  0  0  0  1  0  0  0  0  0  0
  193.0440  175.4650  142.0580 C   0  0  0  0  0  0  0  0  0  0  0  0
  192.3960  175.4690  143.3420 N   0  0  0  0  0  0  0  0  0  0  0  0
  192.7530  174.4790  141.1290 O   0  0  0  0  0  0  0  0  0  0  0  0
  192.8640  176.3520  144.4020 C   0  0  0  0  0  2  0  0  0  0  0  0
  194.6850  177.5090  145.9970 O   0  0  0  0  0  1  0  0  0  0  0  0
  192.9750  176.2080  146.7900 O   0  0  0  0  0  0  0  0  0  0  0  0
  194.3450  176.2360  146.4660 C   0  0  1  0  0  3  0  0  0  0  0  0
  193.3410  175.5410  145.6040 C   0  0  2  0  0  3  0  0  0  0  0  0
  1 18  1  1  0  0  0
  1  7  1  0  0  0  0
  2  7  2  0  0  0  0
  2  6  1  0  0  0  0
  4  3  2  0  0  0  0
  5  3  1  0  0  0  0
  6  5  2  0  0  0  0
  7  4  1  0  0  0  0
  8  6  1  0  0  0  0
  8 12  1  0  0  0  0
  9 11  1  0  0  0  0
 10 13  1  0  0  0  0
 10  9  2  0  0  0  0
 11 12  2  0  0  0  0
 13  8  2  0  0  0  0
 14 15  1  6  0  0  0
 14  1  1  0  0  0  0
 16 14  1  0  0  0  0
 17 16  1  0  0  0  0
 19 20  1  0  0  0  0
 20 21  1  0  0  0  0
 21 18  1  0  0  0  0
 21 23  1  0  0  0  0
 22 20  2  0  0  0  0
 26 24  1  6  0  0  0
 26 25  1  0  0  0  0
 27 23  1  6  0  0  0
 27 26  1  0  0  0  0
 27 25  1  0  0  0  0
M  END
>  <MODEL>
1

>  <REMARK>
 VINA RESULT:      -6.6      0.000      0.000
  Name = 
  8 active torsions:
  status: ('A' for Active; 'I' for Inactive)
    1  A    between atoms: C_1  and  N_17
    2  A    between atoms: C_1  and  C_26
    3  A    between atoms: O_5  and  C_8
    4  A    between atoms: C_6  and  C_22
    5  A    between atoms: C_8  and  C_24
    6  A    between atoms: C_14  and  N_17
    7  A    between atoms: C_14  and  C_24
    8  A    between atoms: C_24  and  C_27
                            x       y       z     vdW  Elec       q    Type
                         _______ _______ _______ _____ _____    ______ ____

>  <TORSDO>
F 8

$$$$
=
 OpenBabel11042415113D

 27 29  0  0  1  0  0  0  0  0999 V2000
  187.3990  177.3450  144.9010 C   0  0  2  0  0  3  0  0  0  0  0  0
  189.8290  176.7370  145.2560 C   0  0  0  0  0  3  0  0  0  0  0  0
  189.1240  175.0330  147.3430 C   0  0  0  0  0  3  0  0  0  0  0  0
  188.1350  175.7430  146.6630 C   0  0  0  0  0  3  0  0  0  0  0  0
  190.4650  175.1730  146.9800 C   0  0  0  0  0  3  0  0  0  0  0  0
  190.8310  176.0260  145.9310 C   0  0  0  0  0  0  0  0  0  0  0  0
  188.4810  176.5960  145.6180 C   0  0  0  0  0  0  0  0  0  0  0  0
  192.2540  176.1930  145.5600 C   0  0  0  0  0  0  0  0  0  0  0  0
  194.9280  176.4920  144.8370 C   0  0  0  0  0  3  0  0  0  0  0  0
  194.5800  176.5010  146.1870 C   0  0  0  0  0  3  0  0  0  0  0  0
  193.9660  176.3350  143.8840 N   0  0  0  0  0  0  0  0  0  0  0  0
  192.6550  176.1880  144.2140 C   0  0  0  0  0  3  0  0  0  0  0  0
  193.2370  176.3520  146.5450 C   0  0  0  0  0  3  0  0  0  0  0  0
  186.4540  178.1410  145.8220 C   0  0  2  0  0  3  0  0  0  0  0  0
  185.0660  177.0760  146.3130 S   0  0  0  0  0  1  0  0  0  0  0  0
  185.9460  179.2770  145.1870 O   0  0  0  0  0  0  0  0  0  0  0  0
  184.5710  179.2470  145.4490 C   0  0  0  0  0  1  0  0  0  0  0  0
  186.7180  176.4470  143.8500 C   0  0  0  0  0  2  0  0  0  0  0  0
  185.8140  177.8530  140.5860 O   0  0  0  0  0  0  0  0  0  0  0  0
  185.7280  177.5190  141.7990 C   0  0  0  0  0  0  0  0  0  0  0  0
  186.8490  176.9240  142.4740 N   0  0  0  0  0  0  0  0  0  0  0  0
  184.5330  177.7270  142.4710 O   0  0  0  0  0  1  0  0  0  0  0  0
  188.0180  176.4880  141.7220 C   0  0  0  0  0  2  0  0  0  0  0  0
  188.3550  174.6680  139.7800 O   0  0  0  0  0  1  0  0  0  0  0  0
  189.7150  174.8010  141.6180 O   0  0  0  0  0  0  0  0  0  0  0  0
  188.6300  174.1170  141.0350 C   0  0  1  0  0  3  0  0  0  0  0  0
  188.4450  175.0890  142.1560 C   0  0  2  0  0  3  0  0  0  0  0  0
  1 18  1  1  0  0  0
  1  7  1  0  0  0  0
  1 14  1  0  0  0  0
  2  7  2  0  0  0  0
  2  6  1  0  0  0  0
  4  3  2  0  0  0  0
  5  3  1  0  0  0  0
  6  5  2  0  0  0  0
  7  4  1  0  0  0  0
  8  6  1  0  0  0  0
  8 13  1  0  0  0  0
  9 10  1  0  0  0  0
 10 13  2  0  0  0  0
 11 12  1  0  0  0  0
 11  9  2  0  0  0  0
 12  8  2  0  0  0  0
 14 15  1  6  0  0  0
 16 17  1  0  0  0  0
 16 14  1  0  0  0  0
 19 20  2  0  0  0  0
 20 22  1  0  0  0  0
 20 21  1  0  0  0  0
 21 18  1  0  0  0  0
 23 21  1  0  0  0  0
 25 27  1  0  0  0  0
 26 24  1  6  0  0  0
 26 25  1  0  0  0  0
 26 27  1  0  0  0  0
 27 23  1  6  0  0  0
M  END
>  <MODEL>
2

>  <REMARK>
 VINA RESULT:      -6.6      3.092      6.816
  Name = 
  8 active torsions:
  status: ('A' for Active; 'I' for Inactive)
    1  A    between atoms: C_1  and  N_17
    2  A    between atoms: C_1  and  C_26
    3  A    between atoms: O_5  and  C_8
    4  A    between atoms: C_6  and  C_22
    5  A    between atoms: C_8  and  C_24
    6  A    between atoms: C_14  and  N_17
    7  A    between atoms: C_14  and  C_24
    8  A    between atoms: C_24  and  C_27
                            x       y       z     vdW  Elec       q    Type
                         _______ _______ _______ _____ _____    ______ ____

>  <TORSDO>
F 8

$$$$
=
 OpenBabel11042415113D

 27 29  0  0  1  0  0  0  0  0999 V2000
  190.4320  174.8140  143.7410 C   0  0  2  0  0  3  0  0  0  0  0  0
  188.5010  176.0320  144.8330 C   0  0  0  0  0  3  0  0  0  0  0  0
  189.0940  174.8340  147.2760 C   0  0  0  0  0  3  0  0  0  0  0  0
  189.8700  174.5430  146.1540 C   0  0  0  0  0  3  0  0  0  0  0  0
  188.0220  175.7240  147.1780 C   0  0  0  0  0  3  0  0  0  0  0  0
  187.7160  176.3330  145.9550 C   0  0  0  0  0  0  0  0  0  0  0  0
  189.5790  175.1410  144.9300 C   0  0  0  0  0  0  0  0  0  0  0  0
  186.5660  177.2580  145.8430 C   0  0  0  0  0  0  0  0  0  0  0  0
  184.4210  179.0230  145.6270 C   0  0  0  0  0  3  0  0  0  0  0  0
  184.3350  177.9480  146.5100 C   0  0  0  0  0  3  0  0  0  0  0  0
  185.5460  179.2060  144.8800 N   0  0  0  0  0  0  0  0  0  0  0  0
  186.6060  178.3580  144.9700 C   0  0  0  0  0  3  0  0  0  0  0  0
  185.4130  177.0650  146.6150 C   0  0  0  0  0  3  0  0  0  0  0  0
  191.9450  174.7760  144.0300 C   0  0  2  0  0  3  0  0  0  0  0  0
  192.7780  176.0200  143.0000 S   0  0  0  0  0  1  0  0  0  0  0  0
  192.4950  173.5220  143.7510 O   0  0  0  0  0  0  0  0  0  0  0  0
  193.1820  173.1670  144.9170 C   0  0  0  0  0  1  0  0  0  0  0  0
  189.9990  175.6420  142.5160 C   0  0  0  0  0  2  0  0  0  0  0  0
  189.1840  173.4140  139.7200 O   0  0  0  0  0  0  0  0  0  0  0  0
  189.8500  173.9900  140.6220 C   0  0  0  0  0  0  0  0  0  0  0  0
  189.2110  174.8990  141.5340 N   0  0  0  0  0  0  0  0  0  0  0  0
  191.2100  173.7410  140.7180 O   0  0  0  0  0  1  0  0  0  0  0  0
  187.8450  175.3460  141.2950 C   0  0  0  0  0  2  0  0  0  0  0  0
  186.6910  176.8380  139.3880 O   0  0  0  0  0  1  0  0  0  0  0  0
  186.3460  177.1850  141.6250 O   0  0  0  0  0  0  0  0  0  0  0  0
  187.0510  177.6230  140.4870 C   0  0  1  0  0  3  0  0  0  0  0  0
  187.7110  176.8400  141.5760 C   0  0  2  0  0  3  0  0  0  0  0  0
  1 18  1  6  0  0  0
  1 14  1  0  0  0  0
  1  7  1  0  0  0  0
  2  7  2  0  0  0  0
  2  6  1  0  0  0  0
  4  3  2  0  0  0  0
  5  3  1  0  0  0  0
  6  5  2  0  0  0  0
  7  4  1  0  0  0  0
  8  6  1  0  0  0  0
  8 13  1  0  0  0  0
  9 10  1  0  0  0  0
 10 13  2  0  0  0  0
 11 12  1  0  0  0  0
 11  9  2  0  0  0  0
 12  8  2  0  0  0  0
 14 15  1  6  0  0  0
 16 14  1  0  0  0  0
 16 17  1  0  0  0  0
 19 20  2  0  0  0  0
 20 22  1  0  0  0  0
 20 21  1  0  0  0  0
 21 18  1  0  0  0  0
 23 21  1  0  0  0  0
 26 24  1  6  0  0  0
 26 27  1  0  0  0  0
 26 25  1  0  0  0  0
 27 23  1  6  0  0  0
 27 25  1  0  0  0  0
M  END
>  <MODEL>
3

>  <REMARK>
 VINA RESULT:      -6.5      2.286      4.484
  Name = 
  8 active torsions:
  status: ('A' for Active; 'I' for Inactive)
    1  A    between atoms: C_1  and  N_17
    2  A    between atoms: C_1  and  C_26
    3  A    between atoms: O_5  and  C_8
    4  A    between atoms: C_6  and  C_22
    5  A    between atoms: C_8  and  C_24
    6  A    between atoms: C_14  and  N_17
    7  A    between atoms: C_14  and  C_24
    8  A    between atoms: C_24  and  C_27
                            x       y       z     vdW  Elec       q    Type
                         _______ _______ _______ _____ _____    ______ ____

>  <TORSDO>
F 8

$$$$
=
 OpenBabel11042415113D

 27 29  0  0  1  0  0  0  0  0999 V2000
  191.0530  175.4500  144.0750 C   0  0  2  0  0  3  0  0  0  0  0  0
  188.8680  176.3770  144.9520 C   0  0  0  0  0  3  0  0  0  0  0  0
  189.1060  174.8260  147.2540 C   0  0  0  0  0  3  0  0  0  0  0  0
  190.0910  174.7620  146.2690 C   0  0  0  0  0  3  0  0  0  0  0  0
  188.0020  175.6670  147.0900 C   0  0  0  0  0  3  0  0  0  0  0  0
  187.8730  176.4510  145.9370 C   0  0  0  0  0  0  0  0  0  0  0  0
  189.9780  175.5350  145.1160 C   0  0  0  0  0  0  0  0  0  0  0  0
  186.6930  177.3240  145.7510 C   0  0  0  0  0  0  0  0  0  0  0  0
  184.4890  178.9910  145.3920 C   0  0  0  0  0  3  0  0  0  0  0  0
  184.4340  177.9820  146.3530 C   0  0  0  0  0  3  0  0  0  0  0  0
  185.6130  179.1570  144.6400 N   0  0  0  0  0  0  0  0  0  0  0  0
  186.7000  178.3560  144.7980 C   0  0  0  0  0  3  0  0  0  0  0  0
  185.5410  177.1480  146.5290 C   0  0  0  0  0  3  0  0  0  0  0  0
  190.5980  174.8440  142.7330 C   0  0  2  0  0  3  0  0  0  0  0  0
  190.1350  173.1060  142.9940 S   0  0  0  0  0  1  0  0  0  0  0  0
  191.6070  174.9000  141.7700 O   0  0  0  0  0  0  0  0  0  0  0  0
  191.5280  173.6750  141.0980 C   0  0  0  0  0  1  0  0  0  0  0  0
  192.3480  174.8690  144.6740 C   0  0  0  0  0  2  0  0  0  0  0  0
  194.5560  177.5070  145.9410 O   0  0  0  0  0  0  0  0  0  0  0  0
  193.6510  176.6310  145.9130 C   0  0  0  0  0  0  0  0  0  0  0  0
  193.4590  175.8160  144.7440 N   0  0  0  0  0  0  0  0  0  0  0  0
  192.8370  176.4670  147.0230 O   0  0  0  0  0  1  0  0  0  0  0  0
  194.1450  176.1380  143.4990 C   0  0  0  0  0  2  0  0  0  0  0  0
  196.6860  176.9870  143.3750 O   0  0  0  0  0  1  0  0  0  0  0  0
  196.0850  174.9710  144.2800 O   0  0  0  0  0  0  0  0  0  0  0  0
  196.6060  175.6110  143.1390 C   0  0  1  0  0  3  0  0  0  0  0  0
  195.2060  175.0880  143.1840 C   0  0  2  0  0  3  0  0  0  0  0  0
  1 18  1  1  0  0  0
  1  7  1  0  0  0  0
  2  7  2  0  0  0  0
  2  6  1  0  0  0  0
  4  3  2  0  0  0  0
  5  3  1  0  0  0  0
  6  5  2  0  0  0  0
  7  4  1  0  0  0  0
  8  6  1  0  0  0  0
  8 13  1  0  0  0  0
  9 10  1  0  0  0  0
 10 13  2  0  0  0  0
 11 12  1  0  0  0  0
 11  9  2  0  0  0  0
 12  8  2  0  0  0  0
 14 15  1  1  0  0  0
 14  1  1  0  0  0  0
 16 14  1  0  0  0  0
 17 16  1  0  0  0  0
 18 21  1  0  0  0  0
 20 19  2  0  0  0  0
 20 22  1  0  0  0  0
 21 20  1  0  0  0  0
 23 21  1  0  0  0  0
 26 27  1  0  0  0  0
 26 24  1  1  0  0  0
 26 25  1  0  0  0  0
 27 23  1  1  0  0  0
 27 25  1  0  0  0  0
M  END
>  <MODEL>
4

>  <REMARK>
 VINA RESULT:      -6.4      1.650      2.626
  Name = 
  8 active torsions:
  status: ('A' for Active; 'I' for Inactive)
    1  A    between atoms: C_1  and  N_17
    2  A    between atoms: C_1  and  C_26
    3  A    between atoms: O_5  and  C_8
    4  A    between atoms: C_6  and  C_22
    5  A    between atoms: C_8  and  C_24
    6  A    between atoms: C_14  and  N_17
    7  A    between atoms: C_14  and  C_24
    8  A    between atoms: C_24  and  C_27
                            x       y       z     vdW  Elec       q    Type
                         _______ _______ _______ _____ _____    ______ ____

>  <TORSDO>
F 8

$$$$
=
 OpenBabel11042415113D

 27 29  0  0  1  0  0  0  0  0999 V2000
  190.9470  175.7020  144.6920 C   0  0  2  0  0  3  0  0  0  0  0  0
  188.6980  176.8610  144.7160 C   0  0  0  0  0  3  0  0  0  0  0  0
  189.1840  177.9120  142.1830 C   0  0  0  0  0  3  0  0  0  0  0  0
  190.1420  177.1020  142.7940 C   0  0  0  0  0  3  0  0  0  0  0  0
  187.9830  178.1960  142.8380 C   0  0  0  0  0  3  0  0  0  0  0  0
  187.7280  177.6720  144.1110 C   0  0  0  0  0  0  0  0  0  0  0  0
  189.9040  176.5730  144.0600 C   0  0  0  0  0  0  0  0  0  0  0  0
  186.4660  177.9910  144.8150 C   0  0  0  0  0  0  0  0  0  0  0  0
  184.0960  178.6190  146.1370 C   0  0  0  0  0  3  0  0  0  0  0  0
  184.8240  177.4990  146.5350 C   0  0  0  0  0  3  0  0  0  0  0  0
  184.5440  179.3970  145.1120 N   0  0  0  0  0  0  0  0  0  0  0  0
  185.6990  179.1100  144.4530 C   0  0  0  0  0  3  0  0  0  0  0  0
  186.0120  177.1870  145.8690 C   0  0  0  0  0  3  0  0  0  0  0  0
  191.8080  176.4070  145.7590 C   0  0  2  0  0  3  0  0  0  0  0  0
  193.5190  176.5270  145.1570 S   0  0  0  0  0  1  0  0  0  0  0  0
  191.8060  175.7120  146.9700 O   0  0  0  0  0  0  0  0  0  0  0  0
  191.1960  176.5820  147.8800 C   0  0  0  0  0  1  0  0  0  0  0  0
  191.7180  174.9080  143.6210 C   0  0  0  0  0  2  0  0  0  0  0  0
  191.6550  171.2610  143.9970 O   0  0  0  0  0  0  0  0  0  0  0  0
  191.9680  172.4670  144.1850 C   0  0  0  0  0  0  0  0  0  0  0  0
  191.2890  173.5180  143.4760 N   0  0  0  0  0  0  0  0  0  0  0  0
  192.9830  172.7670  145.0810 O   0  0  0  0  0  1  0  0  0  0  0  0
  190.3960  173.2030  142.3690 C   0  0  0  0  0  2  0  0  0  0  0  0
  188.7150  174.6310  140.8420 O   0  0  0  0  0  1  0  0  0  0  0  0
  188.1230  172.6590  141.8440 O   0  0  0  0  0  0  0  0  0  0  0  0
  188.0430  174.0620  141.9290 C   0  0  1  0  0  3  0  0  0  0  0  0
  188.9390  173.2650  142.8200 C   0  0  2  0  0  3  0  0  0  0  0  0
  1 18  1  6  0  0  0
  1 14  1  0  0  0  0
  3  4  2  0  0  0  0
  3  5  1  0  0  0  0
  4  7  1  0  0  0  0
  5  6  2  0  0  0  0
  6  2  1  0  0  0  0
  6  8  1  0  0  0  0
  7  1  1  0  0  0  0
  7  2  2  0  0  0  0
  8 13  1  0  0  0  0
  9 10  1  0  0  0  0
 11  9  2  0  0  0  0
 12  8  2  0  0  0  0
 12 11  1  0  0  0  0
 13 10  2  0  0  0  0
 14 15  1  6  0  0  0
 14 16  1  0  0  0  0
 16 17  1  0  0  0  0
 19 20  2  0  0  0  0
 20 22  1  0  0  0  0
 21 18  1  0  0  0  0
 21 20  1  0  0  0  0
 23 21  1  0  0  0  0
 25 26  1  0  0  0  0
 25 27  1  0  0  0  0
 26 24  1  6  0  0  0
 26 27  1  0  0  0  0
 27 23  1  6  0  0  0
M  END
>  <MODEL>
5

>  <REMARK>
 VINA RESULT:      -6.3      2.383      4.684
  Name = 
  8 active torsions:
  status: ('A' for Active; 'I' for Inactive)
    1  A    between atoms: C_1  and  N_17
    2  A    between atoms: C_1  and  C_26
    3  A    between atoms: O_5  and  C_8
    4  A    between atoms: C_6  and  C_22
    5  A    between atoms: C_8  and  C_24
    6  A    between atoms: C_14  and  N_17
    7  A    between atoms: C_14  and  C_24
    8  A    between atoms: C_24  and  C_27
                            x       y       z     vdW  Elec       q    Type
                         _______ _______ _______ _____ _____    ______ ____

>  <TORSDO>
F 8

$$$$
=
 OpenBabel11042415113D

 27 29  0  0  1  0  0  0  0  0999 V2000
  187.8840  176.5080  145.4600 C   0  0  2  0  0  3  0  0  0  0  0  0
  185.9040  177.4290  144.1820 C   0  0  0  0  0  3  0  0  0  0  0  0
  185.1450  178.9380  146.3970 C   0  0  0  0  0  3  0  0  0  0  0  0
  186.2770  178.1260  146.4650 C   0  0  0  0  0  3  0  0  0  0  0  0
  184.3930  178.9970  145.2210 C   0  0  0  0  0  3  0  0  0  0  0  0
  184.7660  178.2440  144.1020 C   0  0  0  0  0  0  0  0  0  0  0  0
  186.6620  177.3700  145.3610 C   0  0  0  0  0  0  0  0  0  0  0  0
  183.9570  178.2870  142.8630 C   0  0  0  0  0  0  0  0  0  0  0  0
  182.4580  178.3760  140.5160 C   0  0  0  0  0  3  0  0  0  0  0  0
  181.8540  178.7160  141.7260 C   0  0  0  0  0  3  0  0  0  0  0  0
  183.7700  178.0080  140.4870 N   0  0  0  0  0  0  0  0  0  0  0  0
  184.5200  177.9580  141.6200 C   0  0  0  0  0  3  0  0  0  0  0  0
  182.6090  178.6690  142.9010 C   0  0  0  0  0  3  0  0  0  0  0  0
  188.4810  176.4040  146.8770 C   0  0  2  0  0  3  0  0  0  0  0  0
  190.1170  177.1950  146.8910 S   0  0  0  0  0  1  0  0  0  0  0  0
  188.6210  175.0760  147.2850 O   0  0  0  0  0  0  0  0  0  0  0  0
  189.9930  174.9130  147.5080 C   0  0  0  0  0  1  0  0  0  0  0  0
  188.8790  176.8400  144.3310 C   0  0  0  0  0  2  0  0  0  0  0  0
  188.6310  175.1300  141.0970 O   0  0  0  0  0  0  0  0  0  0  0  0
  188.6020  176.0520  141.9570 C   0  0  0  0  0  0  0  0  0  0  0  0
  189.0060  175.7990  143.3130 N   0  0  0  0  0  0  0  0  0  0  0  0
  188.1660  177.3120  141.5780 O   0  0  0  0  0  1  0  0  0  0  0  0
  189.2360  174.4360  143.7730 C   0  0  0  0  0  2  0  0  0  0  0  0
  189.9470  172.0830  144.8460 O   0  0  0  0  0  1  0  0  0  0  0  0
  191.0360  173.0240  143.0650 O   0  0  0  0  0  0  0  0  0  0  0  0
  191.0730  172.8160  144.4570 C   0  0  1  0  0  3  0  0  0  0  0  0
  190.7310  174.1440  143.8630 C   0  0  2  0  0  3  0  0  0  0  0  0
  1 18  1  6  0  0  0
  1 14  1  0  0  0  0
  2  7  1  0  0  0  0
  3  4  1  0  0  0  0
  5  3  2  0  0  0  0
  6  2  2  0  0  0  0
  6  5  1  0  0  0  0
  7  1  1  0  0  0  0
  7  4  2  0  0  0  0
  8 13  1  0  0  0  0
  8  6  1  0  0  0  0
  9 10  1  0  0  0  0
 10 13  2  0  0  0  0
 11  9  2  0  0  0  0
 11 12  1  0  0  0  0
 12  8  2  0  0  0  0
 14 15  1  6  0  0  0
 14 16  1  0  0  0  0
 16 17  1  0  0  0  0
 19 20  2  0  0  0  0
 20 21  1  0  0  0  0
 21 23  1  0  0  0  0
 21 18  1  0  0  0  0
 22 20  1  0  0  0  0
 25 27  1  0  0  0  0
 25 26  1  0  0  0  0
 26 24  1  6  0  0  0
 27 23  1  6  0  0  0
 27 26  1  0  0  0  0
M  END
>  <MODEL>
6

>  <REMARK>
 VINA RESULT:      -6.3      3.078      4.977
  Name = 
  8 active torsions:
  status: ('A' for Active; 'I' for Inactive)
    1  A    between atoms: C_1  and  N_17
    2  A    between atoms: C_1  and  C_26
    3  A    between atoms: O_5  and  C_8
    4  A    between atoms: C_6  and  C_22
    5  A    between atoms: C_8  and  C_24
    6  A    between atoms: C_14  and  N_17
    7  A    between atoms: C_14  and  C_24
    8  A    between atoms: C_24  and  C_27
                            x       y       z     vdW  Elec       q    Type
                         _______ _______ _______ _____ _____    ______ ____

>  <TORSDO>
F 8

$$$$
=
 OpenBabel11042415113D

 27 29  0  0  1  0  0  0  0  0999 V2000
  188.0990  176.4500  144.2740 C   0  0  2  0  0  3  0  0  0  0  0  0
  190.4230  175.8780  145.0920 C   0  0  0  0  0  3  0  0  0  0  0  0
  189.3830  175.0300  147.5330 C   0  0  0  0  0  3  0  0  0  0  0  0
  188.5270  175.5140  146.5440 C   0  0  0  0  0  3  0  0  0  0  0  0
  190.7590  174.9690  147.3020 C   0  0  0  0  0  3  0  0  0  0  0  0
  191.2930  175.3910  146.0780 C   0  0  0  0  0  0  0  0  0  0  0  0
  189.0410  175.9380  145.3210 C   0  0  0  0  0  0  0  0  0  0  0  0
  192.7530  175.3490  145.8410 C   0  0  0  0  0  0  0  0  0  0  0  0
  195.5000  175.2950  145.3800 C   0  0  0  0  0  3  0  0  0  0  0  0
  194.7840  174.0990  145.3810 C   0  0  0  0  0  3  0  0  0  0  0  0
  194.8580  176.4770  145.6000 N   0  0  0  0  0  0  0  0  0  0  0  0
  193.5180  176.5270  145.8270 C   0  0  0  0  0  3  0  0  0  0  0  0
  193.4070  174.1300  145.6130 C   0  0  0  0  0  3  0  0  0  0  0  0
  188.5960  176.2780  142.8250 C   0  0  2  0  0  3  0  0  0  0  0  0
  188.7600  177.9150  142.0550 S   0  0  0  0  0  1  0  0  0  0  0  0
  187.7150  175.5090  142.0620 O   0  0  0  0  0  0  0  0  0  0  0  0
  188.2610  174.2200  142.0770 C   0  0  0  0  0  1  0  0  0  0  0  0
  187.5780  177.8510  144.6460 C   0  0  0  0  0  2  0  0  0  0  0  0
  184.4490  178.0240  146.5500 O   0  0  0  0  0  0  0  0  0  0  0  0
  185.6810  178.0620  146.2880 C   0  0  0  0  0  0  0  0  0  0  0  0
  186.1460  177.9050  144.9370 N   0  0  0  0  0  0  0  0  0  0  0  0
  186.5840  178.2510  147.3230 O   0  0  0  0  0  1  0  0  0  0  0  0
  185.2320  177.4730  143.8870 C   0  0  0  0  0  2  0  0  0  0  0  0
  185.3610  177.5400  141.2090 O   0  0  0  0  0  1  0  0  0  0  0  0
  183.5290  178.2430  142.3900 O   0  0  0  0  0  0  0  0  0  0  0  0
  184.6870  178.6600  141.7060 C   0  0  1  0  0  3  0  0  0  0  0  0
  184.5990  178.6780  143.1980 C   0  0  2  0  0  3  0  0  0  0  0  0
  1 18  1  1  0  0  0
  1  7  1  0  0  0  0
  2  7  2  0  0  0  0
  2  6  1  0  0  0  0
  4  3  2  0  0  0  0
  5  3  1  0  0  0  0
  6  5  2  0  0  0  0
  7  4  1  0  0  0  0
  8  6  1  0  0  0  0
  9 10  2  0  0  0  0
  9 11  1  0  0  0  0
 10 13  1  0  0  0  0
 11 12  2  0  0  0  0
 12  8  1  0  0  0  0
 13  8  2  0  0  0  0
 14 15  1  6  0  0  0
 14  1  1  0  0  0  0
 16 17  1  0  0  0  0
 16 14  1  0  0  0  0
 18 21  1  0  0  0  0
 20 19  2  0  0  0  0
 20 22  1  0  0  0  0
 21 20  1  0  0  0  0
 23 21  1  0  0  0  0
 25 27  1  0  0  0  0
 26 24  1  1  0  0  0
 26 25  1  0  0  0  0
 26 27  1  0  0  0  0
 27 23  1  1  0  0  0
M  END
>  <MODEL>
7

>  <REMARK>
 VINA RESULT:      -6.3      3.391      7.466
  Name = 
  8 active torsions:
  status: ('A' for Active; 'I' for Inactive)
    1  A    between atoms: C_1  and  N_17
    2  A    between atoms: C_1  and  C_26
    3  A    between atoms: O_5  and  C_8
    4  A    between atoms: C_6  and  C_22
    5  A    between atoms: C_8  and  C_24
    6  A    between atoms: C_14  and  N_17
    7  A    between atoms: C_14  and  C_24
    8  A    between atoms: C_24  and  C_27
                            x       y       z     vdW  Elec       q    Type
                         _______ _______ _______ _____ _____    ______ ____

>  <TORSDO>
F 8

$$$$
=
 OpenBabel11042415113D

 27 29  0  0  1  0  0  0  0  0999 V2000
  190.8550  175.2060  144.0130 C   0  0  2  0  0  3  0  0  0  0  0  0
  188.7540  176.2560  144.9540 C   0  0  0  0  0  3  0  0  0  0  0  0
  189.0730  174.8300  147.3250 C   0  0  0  0  0  3  0  0  0  0  0  0
  189.9980  174.6750  146.2920 C   0  0  0  0  0  3  0  0  0  0  0  0
  187.9890  175.6970  147.1730 C   0  0  0  0  0  3  0  0  0  0  0  0
  187.8190  176.4200  145.9860 C   0  0  0  0  0  0  0  0  0  0  0  0
  189.8440  175.3870  145.1050 C   0  0  0  0  0  0  0  0  0  0  0  0
  186.6590  177.3220  145.8150 C   0  0  0  0  0  0  0  0  0  0  0  0
  184.4920  179.0420  145.4830 C   0  0  0  0  0  3  0  0  0  0  0  0
  184.4520  178.0780  146.4890 C   0  0  0  0  0  3  0  0  0  0  0  0
  185.5840  179.1400  144.6740 N   0  0  0  0  0  0  0  0  0  0  0  0
  186.6530  178.3120  144.8180 C   0  0  0  0  0  3  0  0  0  0  0  0
  185.5400  177.2170  146.6520 C   0  0  0  0  0  3  0  0  0  0  0  0
  192.1500  176.0210  144.1980 C   0  0  2  0  0  3  0  0  0  0  0  0
  192.9760  176.1940  142.5880 S   0  0  0  0  0  1  0  0  0  0  0  0
  193.0290  175.4020  145.0890 O   0  0  0  0  0  0  0  0  0  0  0  0
  193.4130  176.4170  145.9730 C   0  0  0  0  0  1  0  0  0  0  0  0
  190.1860  175.3050  142.6290 C   0  0  0  0  0  2  0  0  0  0  0  0
  187.7320  172.7600  141.6580 O   0  0  0  0  0  0  0  0  0  0  0  0
  188.2130  173.8720  142.0040 C   0  0  0  0  0  0  0  0  0  0  0  0
  189.6340  174.0460  142.1330 N   0  0  0  0  0  0  0  0  0  0  0  0
  187.3510  174.9260  142.2670 O   0  0  0  0  0  1  0  0  0  0  0  0
  190.5260  172.8940  142.0910 C   0  0  0  0  0  2  0  0  0  0  0  0
  190.4390  170.8500  140.3560 O   0  0  0  0  0  1  0  0  0  0  0  0
  190.6820  173.0320  139.7050 O   0  0  0  0  0  0  0  0  0  0  0  0
  191.3580  171.8190  139.9420 C   0  0  1  0  0  3  0  0  0  0  0  0
  191.4540  172.9770  140.8830 C   0  0  2  0  0  3  0  0  0  0  0  0
  1 18  1  6  0  0  0
  1 14  1  0  0  0  0
  1  7  1  0  0  0  0
  2  7  2  0  0  0  0
  2  6  1  0  0  0  0
  4  3  2  0  0  0  0
  5  3  1  0  0  0  0
  6  5  2  0  0  0  0
  7  4  1  0  0  0  0
  8  6  1  0  0  0  0
  8 13  1  0  0  0  0
  9 10  1  0  0  0  0
 10 13  2  0  0  0  0
 11 12  1  0  0  0  0
 11  9  2  0  0  0  0
 12  8  2  0  0  0  0
 14 15  1  6  0  0  0
 14 16  1  0  0  0  0
 16 17  1  0  0  0  0
 19 20  2  0  0  0  0
 20 21  1  0  0  0  0
 20 22  1  0  0  0  0
 21 18  1  0  0  0  0
 23 21  1  0  0  0  0
 25 26  1  0  0  0  0
 25 27  1  0  0  0  0
 26 24  1  1  0  0  0
 26 27  1  0  0  0  0
 27 23  1  1  0  0  0
M  END
>  <MODEL>
8

>  <REMARK>
 VINA RESULT:      -6.3      2.003      4.554
  Name = 
  8 active torsions:
  status: ('A' for Active; 'I' for Inactive)
    1  A    between atoms: C_1  and  N_17
    2  A    between atoms: C_1  and  C_26
    3  A    between atoms: O_5  and  C_8
    4  A    between atoms: C_6  and  C_22
    5  A    between atoms: C_8  and  C_24
    6  A    between atoms: C_14  and  N_17
    7  A    between atoms: C_14  and  C_24
    8  A    between atoms: C_24  and  C_27
                            x       y       z     vdW  Elec       q    Type
                         _______ _______ _______ _____ _____    ______ ____

>  <TORSDO>
F 8

$$$$
=
 OpenBabel11042415113D

 27 29  0  0  1  0  0  0  0  0999 V2000
  190.2410  175.0650  143.5430 C   0  0  2  0  0  3  0  0  0  0  0  0
  188.3400  176.0830  144.8660 C   0  0  0  0  0  3  0  0  0  0  0  0
  189.2870  174.8860  147.1970 C   0  0  0  0  0  3  0  0  0  0  0  0
  189.9620  174.6910  145.9920 C   0  0  0  0  0  3  0  0  0  0  0  0
  188.1390  175.6800  147.2370 C   0  0  0  0  0  3  0  0  0  0  0  0
  187.6540  176.2870  146.0730 C   0  0  0  0  0  0  0  0  0  0  0  0
  189.4940  175.2870  144.8240 C   0  0  0  0  0  0  0  0  0  0  0  0
  186.4250  177.1100  146.1100 C   0  0  0  0  0  0  0  0  0  0  0  0
  184.1160  178.6700  146.1530 C   0  0  0  0  0  3  0  0  0  0  0  0
  184.7760  178.3930  147.3490 C   0  0  0  0  0  3  0  0  0  0  0  0
  184.6010  178.1830  144.9760 N   0  0  0  0  0  0  0  0  0  0  0  0
  185.7260  177.4200  144.9310 C   0  0  0  0  0  3  0  0  0  0  0  0
  185.9330  177.6090  147.3230 C   0  0  0  0  0  3  0  0  0  0  0  0
  191.7320  174.7200  143.7240 C   0  0  2  0  0  3  0  0  0  0  0  0
  192.6730  176.2580  143.9470 S   0  0  0  0  0  1  0  0  0  0  0  0
  192.2440  174.0370  142.6190 O   0  0  0  0  0  0  0  0  0  0  0  0
  193.6300  174.0290  142.8150 C   0  0  0  0  0  1  0  0  0  0  0  0
  189.9230  176.1770  142.5260 C   0  0  0  0  0  2  0  0  0  0  0  0
  186.7640  176.7730  140.7630 O   0  0  0  0  0  0  0  0  0  0  0  0
  187.8320  177.0000  141.3920 C   0  0  0  0  0  0  0  0  0  0  0  0
  188.7350  175.9280  141.7120 N   0  0  0  0  0  0  0  0  0  0  0  0
  188.1210  178.3000  141.7780 O   0  0  0  0  0  1  0  0  0  0  0  0
  188.3310  174.5410  141.5220 C   0  0  0  0  0  2  0  0  0  0  0  0
  189.6120  172.1890  141.6520 O   0  0  0  0  0  1  0  0  0  0  0  0
  188.2530  172.7760  139.9050 O   0  0  0  0  0  0  0  0  0  0  0  0
  189.5880  172.6740  140.3400 C   0  0  1  0  0  3  0  0  0  0  0  0
  188.8940  173.9920  140.2150 C   0  0  2  0  0  3  0  0  0  0  0  0
  1 18  1  6  0  0  0
  1 14  1  0  0  0  0
  1  7  1  0  0  0  0
  2  6  1  0  0  0  0
  3  5  1  0  0  0  0
  4  3  2  0  0  0  0
  6  8  1  0  0  0  0
  6  5  2  0  0  0  0
  7  2  2  0  0  0  0
  7  4  1  0  0  0  0
  8 13  1  0  0  0  0
  9 10  1  0  0  0  0
 11  9  2  0  0  0  0
 12 11  1  0  0  0  0
 12  8  2  0  0  0  0
 13 10  2  0  0  0  0
 14 15  1  6  0  0  0
 16 17  1  0  0  0  0
 16 14  1  0  0  0  0
 19 20  2  0  0  0  0
 20 21  1  0  0  0  0
 20 22  1  0  0  0  0
 21 18  1  0  0  0  0
 23 21  1  0  0  0  0
 25 27  1  0  0  0  0
 25 26  1  0  0  0  0
 26 24  1  1  0  0  0
 27 26  1  0  0  0  0
 27 23  1  1  0  0  0
M  END
>  <MODEL>
9

>  <REMARK>
 VINA RESULT:      -6.2      2.389      4.508
  Name = 
  8 active torsions:
  status: ('A' for Active; 'I' for Inactive)
    1  A    between atoms: C_1  and  N_17
    2  A    between atoms: C_1  and  C_26
    3  A    between atoms: O_5  and  C_8
    4  A    between atoms: C_6  and  C_22
    5  A    between atoms: C_8  and  C_24
    6  A    between atoms: C_14  and  N_17
    7  A    between atoms: C_14  and  C_24
    8  A    between atoms: C_24  and  C_27
                            x       y       z     vdW  Elec       q    Type
                         _______ _______ _______ _____ _____    ______ ____

>  <TORSDO>
F 8

$$$$
