=
 OpenBabel11042418513D

 26 29  0  0  0  0  0  0  0  0999 V2000
  190.7760  174.0880  142.9080 C   0  0  0  0  0  3  0  0  0  0  0  0
  185.5050  177.9050  146.0640 C   0  0  0  0  0  0  0  0  0  0  0  0
  183.7220  178.9410  144.7720 O   0  0  0  0  0  1  0  0  0  0  0  0
  188.9610  175.3000  143.9930 C   0  0  0  0  0  0  0  0  0  0  0  0
  187.1740  176.2220  142.5680 O   0  0  0  0  0  0  0  0  0  0  0  0
  187.2150  176.7070  144.8960 C   0  0  0  0  0  0  0  0  0  0  0  0
  185.4380  177.6540  143.6120 C   0  0  0  0  0  0  0  0  0  0  0  0
  184.9100  178.3790  147.3470 C   0  0  0  0  0  1  0  0  0  0  0  0
  190.1060  174.1390  141.6890 C   0  0  0  0  0  3  0  0  0  0  0  0
  186.6120  176.8790  143.6690 C   0  0  0  0  0  0  0  0  0  0  0  0
  190.2310  174.6670  144.0630 C   0  0  0  0  0  0  0  0  0  0  0  0
  188.3400  175.4350  142.7110 C   0  0  0  0  0  0  0  0  0  0  0  0
  184.8860  178.1780  144.8160 C   0  0  0  0  0  0  0  0  0  0  0  0
  184.7620  177.8890  142.3030 C   0  0  0  0  0  1  0  0  0  0  0  0
  188.3260  175.8750  146.4820 C   0  0  0  0  0  0  0  0  0  0  0  0
  188.2780  175.9330  145.1140 N   0  0  0  0  0  0  0  0  0  0  0  0
  188.8960  174.8190  141.5820 C   0  0  0  0  0  0  0  0  0  0  0  0
  187.3590  176.6250  147.0870 N   0  0  0  0  0  0  0  0  0  0  0  0
  189.1500  174.9340  147.2830 C   0  0  0  0  0  1  0  0  0  0  0  0
  186.6790  177.1480  146.0530 C   0  0  0  0  0  0  0  0  0  0  0  0
  188.2190  174.8940  140.2510 C   0  0  0  0  0  2  0  0  0  0  0  0
  188.6670  173.7610  139.3410 C   0  0  0  0  0  2  0  0  0  0  0  0
  188.2860  174.0500  137.9010 C   0  0  0  0  0  1  0  0  0  0  0  0
  191.1200  174.7380  145.2600 C   0  0  0  0  0  2  0  0  0  0  0  0
  192.8450  176.7060  145.0460 N   0  0  0  0  0  0  0  0  0  0  0  0
  192.0850  175.8390  145.1390 C   0  0  0  0  0  0  0  0  0  0  0  0
  1 11  1  0  0  0  0
  2  8  1  0  0  0  0
  3 13  1  0  0  0  0
  4 11  2  0  0  0  0
  4 16  1  0  0  0  0
  5 12  1  0  0  0  0
  5 10  1  0  0  0  0
  6 16  1  0  0  0  0
  6 20  2  0  0  0  0
  7 10  2  0  0  0  0
  7 13  1  0  0  0  0
  9  1  2  0  0  0  0
 10  6  1  0  0  0  0
 11 24  1  0  0  0  0
 12  4  1  0  0  0  0
 13  2  2  0  0  0  0
 14  7  1  0  0  0  0
 15 18  2  0  0  0  0
 15 19  1  0  0  0  0
 16 15  1  0  0  0  0
 17  9  1  0  0  0  0
 17 12  2  0  0  0  0
 20  2  1  0  0  0  0
 20 18  1  0  0  0  0
 21 17  1  0  0  0  0
 22 21  1  0  0  0  0
 23 22  1  0  0  0  0
 25 26  3  0  0  0  0
 26 24  1  0  0  0  0
M  END
>  <MODEL>
1

>  <REMARK>
 VINA RESULT:      -7.2      0.000      0.000
  Name = 
  4 active torsions:
  status: ('A' for Active; 'I' for Inactive)
    1  A    between atoms: C_3  and  C_12
    2  A    between atoms: C_8  and  C_25
    3  A    between atoms: C_12  and  C_22
    4  A    between atoms: C_16  and  C_25
                            x       y       z     vdW  Elec       q    Type
                         _______ _______ _______ _____ _____    ______ ____

>  <TORSDO>
F 4

$$$$
=
 OpenBabel11042418513D

 26 29  0  0  0  0  0  0  0  0999 V2000
  184.3470  178.5560  143.6260 C   0  0  0  0  0  3  0  0  0  0  0  0
  191.2130  176.2890  143.8350 C   0  0  0  0  0  0  0  0  0  0  0  0
  192.4790  176.2250  145.9110 O   0  0  0  0  0  1  0  0  0  0  0  0
  186.6320  177.7090  143.6940 C   0  0  0  0  0  0  0  0  0  0  0  0
  187.7650  177.6190  145.8810 O   0  0  0  0  0  0  0  0  0  0  0  0
  188.9630  177.1030  143.8930 C   0  0  0  0  0  0  0  0  0  0  0  0
  190.1620  176.9820  145.9550 C   0  0  0  0  0  0  0  0  0  0  0  0
  192.3580  175.7200  143.0670 C   0  0  0  0  0  1  0  0  0  0  0  0
  184.2970  178.5840  145.0170 C   0  0  0  0  0  3  0  0  0  0  0  0
  188.9670  177.2570  145.2620 C   0  0  0  0  0  0  0  0  0  0  0  0
  185.5000  178.1350  142.9480 C   0  0  0  0  0  0  0  0  0  0  0  0
  186.5970  177.8480  145.1180 C   0  0  0  0  0  0  0  0  0  0  0  0
  191.2940  176.5040  145.2360 C   0  0  0  0  0  0  0  0  0  0  0  0
  190.2230  177.1580  147.4350 C   0  0  0  0  0  1  0  0  0  0  0  0
  188.3160  176.7360  141.9210 C   0  0  0  0  0  0  0  0  0  0  0  0
  187.8870  177.2440  143.1190 N   0  0  0  0  0  0  0  0  0  0  0  0
  185.4190  178.2430  145.7660 C   0  0  0  0  0  0  0  0  0  0  0  0
  189.6230  176.3430  141.9390 N   0  0  0  0  0  0  0  0  0  0  0  0
  187.4500  176.3950  140.7630 C   0  0  0  0  0  1  0  0  0  0  0  0
  190.0060  176.5990  143.2010 C   0  0  0  0  0  0  0  0  0  0  0  0
  185.3500  178.3230  147.2580 C   0  0  0  0  0  2  0  0  0  0  0  0
  185.9720  179.6130  147.7700 C   0  0  0  0  0  2  0  0  0  0  0  0
  187.1500  179.3140  148.6770 C   0  0  0  0  0  1  0  0  0  0  0  0
  185.5190  178.3400  141.4690 C   0  0  0  0  0  2  0  0  0  0  0  0
  183.1010  178.1760  140.4580 N   0  0  0  0  0  0  0  0  0  0  0  0
  184.1670  178.2470  140.9040 C   0  0  0  0  0  0  0  0  0  0  0  0
  1  9  1  0  0  0  0
  2 13  1  0  0  0  0
  4 12  2  0  0  0  0
  6 10  2  0  0  0  0
  7 14  1  0  0  0  0
  8  2  1  0  0  0  0
  9 17  2  0  0  0  0
 10  5  1  0  0  0  0
 10  7  1  0  0  0  0
 11  1  2  0  0  0  0
 11  4  1  0  0  0  0
 12 17  1  0  0  0  0
 12  5  1  0  0  0  0
 13  3  1  0  0  0  0
 13  7  2  0  0  0  0
 15 18  2  0  0  0  0
 15 16  1  0  0  0  0
 16  4  1  0  0  0  0
 16  6  1  0  0  0  0
 17 21  1  0  0  0  0
 18 20  1  0  0  0  0
 19 15  1  0  0  0  0
 20  2  2  0  0  0  0
 20  6  1  0  0  0  0
 21 22  1  0  0  0  0
 22 23  1  0  0  0  0
 24 11  1  0  0  0  0
 25 26  3  0  0  0  0
 26 24  1  0  0  0  0
M  END
>  <MODEL>
2

>  <REMARK>
 VINA RESULT:      -7.2      2.622      7.089
  Name = 
  4 active torsions:
  status: ('A' for Active; 'I' for Inactive)
    1  A    between atoms: C_3  and  C_12
    2  A    between atoms: C_8  and  C_25
    3  A    between atoms: C_12  and  C_22
    4  A    between atoms: C_16  and  C_25
                            x       y       z     vdW  Elec       q    Type
                         _______ _______ _______ _____ _____    ______ ____

>  <TORSDO>
F 4

$$$$
=
 OpenBabel11042418513D

 26 29  0  0  0  0  0  0  0  0999 V2000
  190.5830  173.8710  144.0090 C   0  0  0  0  0  3  0  0  0  0  0  0
  184.7180  178.1050  144.0720 C   0  0  0  0  0  0  0  0  0  0  0  0
  183.8350  179.0410  146.1360 O   0  0  0  0  0  1  0  0  0  0  0  0
  188.6560  175.3650  144.0040 C   0  0  0  0  0  0  0  0  0  0  0  0
  187.9230  176.3100  146.1580 O   0  0  0  0  0  0  0  0  0  0  0  0
  186.6380  176.6820  144.1910 C   0  0  0  0  0  0  0  0  0  0  0  0
  185.8320  177.6460  146.2220 C   0  0  0  0  0  0  0  0  0  0  0  0
  183.6750  178.7970  143.2600 C   0  0  0  0  0  1  0  0  0  0  0  0
  190.8250  174.1590  145.3490 C   0  0  0  0  0  3  0  0  0  0  0  0
  186.7910  176.8640  145.5480 C   0  0  0  0  0  0  0  0  0  0  0  0
  189.5060  174.4510  143.3240 C   0  0  0  0  0  0  0  0  0  0  0  0
  188.8580  175.5630  145.4060 C   0  0  0  0  0  0  0  0  0  0  0  0
  184.7850  178.2620  145.4800 C   0  0  0  0  0  0  0  0  0  0  0  0
  185.9410  177.8520  147.6960 C   0  0  0  0  0  1  0  0  0  0  0  0
  187.0680  176.3570  142.1540 C   0  0  0  0  0  0  0  0  0  0  0  0
  187.5090  176.0410  143.4120 N   0  0  0  0  0  0  0  0  0  0  0  0
  189.9610  174.9920  146.0540 C   0  0  0  0  0  0  0  0  0  0  0  0
  185.9380  177.1220  142.1550 N   0  0  0  0  0  0  0  0  0  0  0  0
  187.8160  176.1340  140.8900 C   0  0  0  0  0  1  0  0  0  0  0  0
  185.6860  177.3010  143.4630 C   0  0  0  0  0  0  0  0  0  0  0  0
  190.2220  175.2500  147.5040 C   0  0  0  0  0  2  0  0  0  0  0  0
  191.6220  175.8030  147.7220 C   0  0  0  0  0  2  0  0  0  0  0  0
  191.5600  177.1660  148.3870 C   0  0  0  0  0  1  0  0  0  0  0  0
  189.2150  173.9180  141.9590 C   0  0  0  0  0  2  0  0  0  0  0  0
  190.1050  171.4610  141.6910 N   0  0  0  0  0  0  0  0  0  0  0  0
  189.7130  172.5440  141.8100 C   0  0  0  0  0  0  0  0  0  0  0  0
  1  9  1  0  0  0  0
  2 13  1  0  0  0  0
  4 12  2  0  0  0  0
  6 10  2  0  0  0  0
  7 14  1  0  0  0  0
  8  2  1  0  0  0  0
  9 17  2  0  0  0  0
 10  5  1  0  0  0  0
 10  7  1  0  0  0  0
 11  4  1  0  0  0  0
 11  1  2  0  0  0  0
 12 17  1  0  0  0  0
 12  5  1  0  0  0  0
 13  3  1  0  0  0  0
 13  7  2  0  0  0  0
 15 18  2  0  0  0  0
 15 16  1  0  0  0  0
 16  4  1  0  0  0  0
 16  6  1  0  0  0  0
 17 21  1  0  0  0  0
 18 20  1  0  0  0  0
 19 15  1  0  0  0  0
 20  2  2  0  0  0  0
 20  6  1  0  0  0  0
 21 22  1  0  0  0  0
 22 23  1  0  0  0  0
 24 11  1  0  0  0  0
 25 26  3  0  0  0  0
 26 24  1  0  0  0  0
M  END
>  <MODEL>
3

>  <REMARK>
 VINA RESULT:      -7.2      2.064      4.754
  Name = 
  4 active torsions:
  status: ('A' for Active; 'I' for Inactive)
    1  A    between atoms: C_3  and  C_12
    2  A    between atoms: C_8  and  C_25
    3  A    between atoms: C_12  and  C_22
    4  A    between atoms: C_16  and  C_25
                            x       y       z     vdW  Elec       q    Type
                         _______ _______ _______ _____ _____    ______ ____

>  <TORSDO>
F 4

$$$$
=
 OpenBabel11042418513D

 26 29  0  0  0  0  0  0  0  0999 V2000
  185.9530  176.5380  143.5140 C   0  0  0  0  0  3  0  0  0  0  0  0
  193.0200  175.4490  144.6060 C   0  0  0  0  0  0  0  0  0  0  0  0
  194.0690  175.8960  146.7540 O   0  0  0  0  0  1  0  0  0  0  0  0
  188.3190  176.0860  143.8900 C   0  0  0  0  0  0  0  0  0  0  0  0
  189.2290  176.5020  146.1430 O   0  0  0  0  0  0  0  0  0  0  0  0
  190.6820  175.8940  144.3600 C   0  0  0  0  0  0  0  0  0  0  0  0
  191.6740  176.2730  146.4990 C   0  0  0  0  0  0  0  0  0  0  0  0
  194.3070  174.9630  144.0280 C   0  0  0  0  0  1  0  0  0  0  0  0
  185.7610  176.7640  144.8740 C   0  0  0  0  0  3  0  0  0  0  0  0
  190.5260  176.2480  145.6830 C   0  0  0  0  0  0  0  0  0  0  0  0
  187.2160  176.2110  143.0020 C   0  0  0  0  0  0  0  0  0  0  0  0
  188.1220  176.4270  145.2660 C   0  0  0  0  0  0  0  0  0  0  0  0
  192.9290  175.8800  145.9550 C   0  0  0  0  0  0  0  0  0  0  0  0
  191.5610  176.6730  147.9320 C   0  0  0  0  0  1  0  0  0  0  0  0
  190.2940  175.1420  142.4300 C   0  0  0  0  0  0  0  0  0  0  0  0
  189.6790  175.7460  143.4950 N   0  0  0  0  0  0  0  0  0  0  0  0
  186.8410  176.7210  145.7510 C   0  0  0  0  0  0  0  0  0  0  0  0
  191.6360  174.9680  142.6100 N   0  0  0  0  0  0  0  0  0  0  0  0
  189.6070  174.4990  141.2800 C   0  0  0  0  0  1  0  0  0  0  0  0
  191.8500  175.4670  143.8400 C   0  0  0  0  0  0  0  0  0  0  0  0
  186.6120  177.0080  147.2010 C   0  0  0  0  0  2  0  0  0  0  0  0
  185.4460  177.9650  147.3950 C   0  0  0  0  0  2  0  0  0  0  0  0
  185.9460  179.3880  147.5640 C   0  0  0  0  0  1  0  0  0  0  0  0
  187.3530  176.1960  141.5150 C   0  0  0  0  0  2  0  0  0  0  0  0
  185.9070  178.0910  140.4130 N   0  0  0  0  0  0  0  0  0  0  0  0
  186.5450  177.2560  140.8980 C   0  0  0  0  0  0  0  0  0  0  0  0
  1  9  1  0  0  0  0
  2 13  1  0  0  0  0
  4 12  2  0  0  0  0
  6 10  2  0  0  0  0
  7 14  1  0  0  0  0
  8  2  1  0  0  0  0
  9 17  2  0  0  0  0
 10  5  1  0  0  0  0
 10  7  1  0  0  0  0
 11  1  2  0  0  0  0
 11  4  1  0  0  0  0
 12 17  1  0  0  0  0
 12  5  1  0  0  0  0
 13  7  2  0  0  0  0
 13  3  1  0  0  0  0
 15 18  2  0  0  0  0
 15 16  1  0  0  0  0
 16  4  1  0  0  0  0
 16  6  1  0  0  0  0
 17 21  1  0  0  0  0
 18 20  1  0  0  0  0
 19 15  1  0  0  0  0
 20  6  1  0  0  0  0
 20  2  2  0  0  0  0
 21 22  1  0  0  0  0
 22 23  1  0  0  0  0
 24 11  1  0  0  0  0
 25 26  3  0  0  0  0
 26 24  1  0  0  0  0
M  END
>  <MODEL>
4

>  <REMARK>
 VINA RESULT:      -7.1      2.614      6.859
  Name = 
  4 active torsions:
  status: ('A' for Active; 'I' for Inactive)
    1  A    between atoms: C_3  and  C_12
    2  A    between atoms: C_8  and  C_25
    3  A    between atoms: C_12  and  C_22
    4  A    between atoms: C_16  and  C_25
                            x       y       z     vdW  Elec       q    Type
                         _______ _______ _______ _____ _____    ______ ____

>  <TORSDO>
F 4

$$$$
=
 OpenBabel11042418513D

 26 29  0  0  0  0  0  0  0  0999 V2000
  189.7050  174.5470  146.3870 C   0  0  0  0  0  3  0  0  0  0  0  0
  186.6910  176.9250  140.2570 C   0  0  0  0  0  0  0  0  0  0  0  0
  184.9980  178.6710  140.2540 O   0  0  0  0  0  1  0  0  0  0  0  0
  188.7610  175.3960  144.3060 C   0  0  0  0  0  0  0  0  0  0  0  0
  187.1190  177.2290  144.4480 O   0  0  0  0  0  0  0  0  0  0  0  0
  187.5770  176.1950  142.3560 C   0  0  0  0  0  0  0  0  0  0  0  0
  185.9690  177.9600  142.3740 C   0  0  0  0  0  0  0  0  0  0  0  0
  186.6680  176.8380  138.7670 C   0  0  0  0  0  1  0  0  0  0  0  0
  189.0960  175.5730  147.1040 C   0  0  0  0  0  3  0  0  0  0  0  0
  186.8640  177.1280  143.0750 C   0  0  0  0  0  0  0  0  0  0  0  0
  189.5440  174.4340  144.9990 C   0  0  0  0  0  0  0  0  0  0  0  0
  188.0570  176.3770  145.0740 C   0  0  0  0  0  0  0  0  0  0  0  0
  185.8760  177.8510  140.9570 C   0  0  0  0  0  0  0  0  0  0  0  0
  185.1550  178.9700  143.1120 C   0  0  0  0  0  1  0  0  0  0  0  0
  189.1030  174.8730  141.7490 C   0  0  0  0  0  0  0  0  0  0  0  0
  188.5170  175.4010  142.8700 N   0  0  0  0  0  0  0  0  0  0  0  0
  188.2630  176.4820  146.4560 C   0  0  0  0  0  0  0  0  0  0  0  0
  188.5150  175.2840  140.5890 N   0  0  0  0  0  0  0  0  0  0  0  0
  190.3850  174.1250  141.7110 C   0  0  0  0  0  1  0  0  0  0  0  0
  187.5440  176.1130  141.0100 C   0  0  0  0  0  0  0  0  0  0  0  0
  187.5880  177.5480  147.2590 C   0  0  0  0  0  2  0  0  0  0  0  0
  186.1550  177.1630  147.5890 C   0  0  0  0  0  2  0  0  0  0  0  0
  185.2030  178.2880  147.2280 C   0  0  0  0  0  1  0  0  0  0  0  0
  190.0660  173.1880  144.3630 C   0  0  0  0  0  2  0  0  0  0  0  0
  192.6240  172.8680  144.8620 N   0  0  0  0  0  0  0  0  0  0  0  0
  191.4960  173.0090  144.6430 C   0  0  0  0  0  0  0  0  0  0  0  0
  1  9  1  0  0  0  0
  2 13  2  0  0  0  0
  2 20  1  0  0  0  0
  3 13  1  0  0  0  0
  4 11  1  0  0  0  0
  4 12  2  0  0  0  0
  5 12  1  0  0  0  0
  6 16  1  0  0  0  0
  6 10  1  0  0  0  0
  7 10  2  0  0  0  0
  7 14  1  0  0  0  0
  8  2  1  0  0  0  0
 10  5  1  0  0  0  0
 11  1  2  0  0  0  0
 12 17  1  0  0  0  0
 13  7  1  0  0  0  0
 15 16  1  0  0  0  0
 16  4  1  0  0  0  0
 17  9  2  0  0  0  0
 17 21  1  0  0  0  0
 18 20  1  0  0  0  0
 18 15  2  0  0  0  0
 19 15  1  0  0  0  0
 20  6  2  0  0  0  0
 21 22  1  0  0  0  0
 23 22  1  0  0  0  0
 24 26  1  0  0  0  0
 24 11  1  0  0  0  0
 26 25  3  0  0  0  0
M  END
>  <MODEL>
5

>  <REMARK>
 VINA RESULT:      -6.8      2.055      5.076
  Name = 
  4 active torsions:
  status: ('A' for Active; 'I' for Inactive)
    1  A    between atoms: C_3  and  C_12
    2  A    between atoms: C_8  and  C_25
    3  A    between atoms: C_12  and  C_22
    4  A    between atoms: C_16  and  C_25
                            x       y       z     vdW  Elec       q    Type
                         _______ _______ _______ _____ _____    ______ ____

>  <TORSDO>
F 4

$$$$
=
 OpenBabel11042418513D

 26 29  0  0  0  0  0  0  0  0999 V2000
  187.4300  177.6760  146.1550 C   0  0  0  0  0  3  0  0  0  0  0  0
  189.3900  173.9430  140.2780 C   0  0  0  0  0  0  0  0  0  0  0  0
  191.0170  172.1380  140.3890 O   0  0  0  0  0  1  0  0  0  0  0  0
  188.0160  176.3720  144.1810 C   0  0  0  0  0  0  0  0  0  0  0  0
  189.6130  174.5150  144.4570 O   0  0  0  0  0  0  0  0  0  0  0  0
  188.8600  175.1300  142.2860 C   0  0  0  0  0  0  0  0  0  0  0  0
  190.4070  173.3170  142.4340 C   0  0  0  0  0  0  0  0  0  0  0  0
  189.1820  173.7260  138.8160 C   0  0  0  0  0  1  0  0  0  0  0  0
  188.1170  176.7830  146.9720 C   0  0  0  0  0  3  0  0  0  0  0  0
  189.6540  174.3220  143.0710 C   0  0  0  0  0  0  0  0  0  0  0  0
  187.3750  177.4970  144.7650 C   0  0  0  0  0  0  0  0  0  0  0  0
  188.8060  175.5280  145.0240 C   0  0  0  0  0  0  0  0  0  0  0  0
  190.2810  173.1330  141.0280 C   0  0  0  0  0  0  0  0  0  0  0  0
  191.3000  172.4320  143.2370 C   0  0  0  0  0  1  0  0  0  0  0  0
  187.2930  176.3870  141.6500 C   0  0  0  0  0  0  0  0  0  0  0  0
  188.0330  176.0630  142.7570 N   0  0  0  0  0  0  0  0  0  0  0  0
  188.8160  175.7160  146.4120 C   0  0  0  0  0  0  0  0  0  0  0  0
  187.6820  175.7180  140.5260 N   0  0  0  0  0  0  0  0  0  0  0  0
  186.0390  177.1840  141.6470 C   0  0  0  0  0  1  0  0  0  0  0  0
  188.6850  174.9370  140.9630 C   0  0  0  0  0  0  0  0  0  0  0  0
  189.5810  174.7970  147.3100 C   0  0  0  0  0  2  0  0  0  0  0  0
  190.8470  175.4610  147.8280 C   0  0  0  0  0  2  0  0  0  0  0  0
  192.0270  175.1310  146.9330 C   0  0  0  0  0  1  0  0  0  0  0  0
  186.7920  178.6170  143.9690 C   0  0  0  0  0  2  0  0  0  0  0  0
  184.4850  179.3830  144.9610 N   0  0  0  0  0  0  0  0  0  0  0  0
  185.5020  179.0460  144.5230 C   0  0  0  0  0  0  0  0  0  0  0  0
  1  9  1  0  0  0  0
  2 20  2  0  0  0  0
  2 13  1  0  0  0  0
  3 13  1  0  0  0  0
  4 11  1  0  0  0  0
  4 12  2  0  0  0  0
  5 12  1  0  0  0  0
  6 16  1  0  0  0  0
  6 10  2  0  0  0  0
  7 10  1  0  0  0  0
  7 14  1  0  0  0  0
  8  2  1  0  0  0  0
 10  5  1  0  0  0  0
 11  1  2  0  0  0  0
 12 17  1  0  0  0  0
 13  7  2  0  0  0  0
 15 16  1  0  0  0  0
 16  4  1  0  0  0  0
 17  9  2  0  0  0  0
 17 21  1  0  0  0  0
 18 20  1  0  0  0  0
 18 15  2  0  0  0  0
 19 15  1  0  0  0  0
 20  6  1  0  0  0  0
 21 22  1  0  0  0  0
 23 22  1  0  0  0  0
 24 26  1  0  0  0  0
 24 11  1  0  0  0  0
 26 25  3  0  0  0  0
M  END
>  <MODEL>
6

>  <REMARK>
 VINA RESULT:      -6.8      2.479      6.781
  Name = 
  4 active torsions:
  status: ('A' for Active; 'I' for Inactive)
    1  A    between atoms: C_3  and  C_12
    2  A    between atoms: C_8  and  C_25
    3  A    between atoms: C_12  and  C_22
    4  A    between atoms: C_16  and  C_25
                            x       y       z     vdW  Elec       q    Type
                         _______ _______ _______ _____ _____    ______ ____

>  <TORSDO>
F 4

$$$$
=
 OpenBabel11042418513D

 26 29  0  0  0  0  0  0  0  0999 V2000
  185.7810  177.4500  142.1040 C   0  0  0  0  0  3  0  0  0  0  0  0
  191.1830  175.6830  146.5790 C   0  0  0  0  0  0  0  0  0  0  0  0
  191.5690  176.8820  148.6590 O   0  0  0  0  0  1  0  0  0  0  0  0
  187.5530  176.7880  143.6420 C   0  0  0  0  0  0  0  0  0  0  0  0
  187.7740  178.0370  145.7550 O   0  0  0  0  0  0  0  0  0  0  0  0
  189.3890  176.3950  145.1640 C   0  0  0  0  0  0  0  0  0  0  0  0
  189.7040  177.5430  147.2340 C   0  0  0  0  0  0  0  0  0  0  0  0
  192.3100  174.7460  146.8580 C   0  0  0  0  0  1  0  0  0  0  0  0
  185.2590  178.3240  143.0540 C   0  0  0  0  0  3  0  0  0  0  0  0
  188.9590  177.3540  146.0540 C   0  0  0  0  0  0  0  0  0  0  0  0
  186.9260  176.6860  142.3710 C   0  0  0  0  0  0  0  0  0  0  0  0
  187.0650  177.7690  144.5620 C   0  0  0  0  0  0  0  0  0  0  0  0
  190.8280  176.7080  147.4930 C   0  0  0  0  0  0  0  0  0  0  0  0
  189.2920  178.5860  148.2180 C   0  0  0  0  0  1  0  0  0  0  0  0
  189.3960  174.9090  143.6690 C   0  0  0  0  0  0  0  0  0  0  0  0
  188.7400  176.0500  144.0520 N   0  0  0  0  0  0  0  0  0  0  0  0
  185.9010  178.4950  144.2770 C   0  0  0  0  0  0  0  0  0  0  0  0
  190.4420  174.5890  144.4850 N   0  0  0  0  0  0  0  0  0  0  0  0
  188.9300  173.9440  142.6410 C   0  0  0  0  0  1  0  0  0  0  0  0
  190.4170  175.5580  145.4150 C   0  0  0  0  0  0  0  0  0  0  0  0
  185.3410  179.4720  145.2620 C   0  0  0  0  0  2  0  0  0  0  0  0
  184.1040  178.9140  145.9470 C   0  0  0  0  0  2  0  0  0  0  0  0
  184.4710  178.2730  147.2730 C   0  0  0  0  0  1  0  0  0  0  0  0
  187.5190  175.9440  141.2190 C   0  0  0  0  0  2  0  0  0  0  0  0
  186.6020  176.8560  138.9330 N   0  0  0  0  0  0  0  0  0  0  0  0
  187.0070  176.4540  139.9400 C   0  0  0  0  0  0  0  0  0  0  0  0
  1 11  2  0  0  0  0
  1  9  1  0  0  0  0
  2  8  1  0  0  0  0
  2 13  1  0  0  0  0
  4 16  1  0  0  0  0
  4 12  2  0  0  0  0
  5 10  1  0  0  0  0
  6 20  1  0  0  0  0
  6 10  2  0  0  0  0
  7 13  2  0  0  0  0
  7 14  1  0  0  0  0
  9 17  2  0  0  0  0
 10  7  1  0  0  0  0
 11  4  1  0  0  0  0
 12  5  1  0  0  0  0
 13  3  1  0  0  0  0
 15 16  1  0  0  0  0
 15 18  2  0  0  0  0
 16  6  1  0  0  0  0
 17 12  1  0  0  0  0
 17 21  1  0  0  0  0
 18 20  1  0  0  0  0
 19 15  1  0  0  0  0
 20  2  2  0  0  0  0
 21 22  1  0  0  0  0
 22 23  1  0  0  0  0
 24 11  1  0  0  0  0
 25 26  3  0  0  0  0
 26 24  1  0  0  0  0
M  END
>  <MODEL>
7

>  <REMARK>
 VINA RESULT:      -6.6      2.614      6.164
  Name = 
  4 active torsions:
  status: ('A' for Active; 'I' for Inactive)
    1  A    between atoms: C_3  and  C_12
    2  A    between atoms: C_8  and  C_25
    3  A    between atoms: C_12  and  C_22
    4  A    between atoms: C_16  and  C_25
                            x       y       z     vdW  Elec       q    Type
                         _______ _______ _______ _____ _____    ______ ____

>  <TORSDO>
F 4

$$$$
=
 OpenBabel11042418513D

 26 29  0  0  0  0  0  0  0  0999 V2000
  185.7640  179.0650  144.3910 C   0  0  0  0  0  3  0  0  0  0  0  0
  190.2860  173.4590  143.7310 C   0  0  0  0  0  0  0  0  0  0  0  0
  190.3940  172.1310  141.6960 O   0  0  0  0  0  1  0  0  0  0  0  0
  187.3530  177.2320  144.1540 C   0  0  0  0  0  0  0  0  0  0  0  0
  187.4140  176.0290  142.0040 O   0  0  0  0  0  0  0  0  0  0  0  0
  188.7150  175.2600  143.8400 C   0  0  0  0  0  0  0  0  0  0  0  0
  188.8520  174.0160  141.8050 C   0  0  0  0  0  0  0  0  0  0  0  0
  191.3730  172.6560  144.3640 C   0  0  0  0  0  1  0  0  0  0  0  0
  185.4440  178.9870  143.0390 C   0  0  0  0  0  3  0  0  0  0  0  0
  188.3040  175.0890  142.5360 C   0  0  0  0  0  0  0  0  0  0  0  0
  186.7010  178.1960  144.9690 C   0  0  0  0  0  0  0  0  0  0  0  0
  186.9310  177.0980  142.7930 C   0  0  0  0  0  0  0  0  0  0  0  0
  189.8420  173.1910  142.4100 C   0  0  0  0  0  0  0  0  0  0  0  0
  188.4200  173.7750  140.3980 C   0  0  0  0  0  1  0  0  0  0  0  0
  189.2040  176.1550  145.6840 C   0  0  0  0  0  0  0  0  0  0  0  0
  188.3480  176.2760  144.6210 N   0  0  0  0  0  0  0  0  0  0  0  0
  186.0140  178.0010  142.2400 C   0  0  0  0  0  0  0  0  0  0  0  0
  190.0340  175.0760  145.5880 N   0  0  0  0  0  0  0  0  0  0  0  0
  189.4290  177.1770  146.7380 C   0  0  0  0  0  1  0  0  0  0  0  0
  189.6900  174.5240  144.4120 C   0  0  0  0  0  0  0  0  0  0  0  0
  185.6200  177.9150  140.7990 C   0  0  0  0  0  2  0  0  0  0  0  0
  184.3950  178.7670  140.5120 C   0  0  0  0  0  2  0  0  0  0  0  0
  183.1390  177.9150  140.5130 C   0  0  0  0  0  1  0  0  0  0  0  0
  186.8150  178.2270  146.4570 C   0  0  0  0  0  2  0  0  0  0  0  0
  184.4440  178.2910  147.5860 N   0  0  0  0  0  0  0  0  0  0  0  0
  185.4900  178.2630  147.0890 C   0  0  0  0  0  0  0  0  0  0  0  0
  1 11  1  0  0  0  0
  2  8  1  0  0  0  0
  2 20  1  0  0  0  0
  3 13  1  0  0  0  0
  4 16  1  0  0  0  0
  4 11  2  0  0  0  0
  5 10  1  0  0  0  0
  5 12  1  0  0  0  0
  6 20  2  0  0  0  0
  6 16  1  0  0  0  0
  7 13  1  0  0  0  0
  7 10  2  0  0  0  0
  9  1  2  0  0  0  0
 10  6  1  0  0  0  0
 11 24  1  0  0  0  0
 12  4  1  0  0  0  0
 13  2  2  0  0  0  0
 14  7  1  0  0  0  0
 15 19  1  0  0  0  0
 16 15  1  0  0  0  0
 17 12  2  0  0  0  0
 17  9  1  0  0  0  0
 18 15  2  0  0  0  0
 20 18  1  0  0  0  0
 21 17  1  0  0  0  0
 22 23  1  0  0  0  0
 22 21  1  0  0  0  0
 24 26  1  0  0  0  0
 26 25  3  0  0  0  0
M  END
>  <MODEL>
8

>  <REMARK>
 VINA RESULT:      -6.6      1.840      5.646
  Name = 
  4 active torsions:
  status: ('A' for Active; 'I' for Inactive)
    1  A    between atoms: C_3  and  C_12
    2  A    between atoms: C_8  and  C_25
    3  A    between atoms: C_12  and  C_22
    4  A    between atoms: C_16  and  C_25
                            x       y       z     vdW  Elec       q    Type
                         _______ _______ _______ _____ _____    ______ ____

>  <TORSDO>
F 4

$$$$
=
 OpenBabel11042418513D

 26 29  0  0  0  0  0  0  0  0999 V2000
  186.0200  176.9400  144.7600 C   0  0  0  0  0  3  0  0  0  0  0  0
  193.1190  175.8320  145.5960 C   0  0  0  0  0  0  0  0  0  0  0  0
  194.5060  174.9870  143.7860 O   0  0  0  0  0  1  0  0  0  0  0  0
  188.4250  176.6520  145.0320 C   0  0  0  0  0  0  0  0  0  0  0  0
  189.7210  175.8720  143.0860 O   0  0  0  0  0  0  0  0  0  0  0  0
  190.7750  176.1120  145.2050 C   0  0  0  0  0  0  0  0  0  0  0  0
  192.1280  175.3490  143.3910 C   0  0  0  0  0  0  0  0  0  0  0  0
  194.2960  175.9440  146.5060 C   0  0  0  0  0  1  0  0  0  0  0  0
  186.1290  176.7130  143.3910 C   0  0  0  0  0  3  0  0  0  0  0  0
  190.8700  175.7540  143.8780 C   0  0  0  0  0  0  0  0  0  0  0  0
  187.1450  176.9040  145.5950 C   0  0  0  0  0  0  0  0  0  0  0  0
  188.5000  176.3160  143.6430 C   0  0  0  0  0  0  0  0  0  0  0  0
  193.2570  175.3800  144.2580 C   0  0  0  0  0  0  0  0  0  0  0  0
  192.2770  174.9280  141.9680 C   0  0  0  0  0  1  0  0  0  0  0  0
  190.1430  177.0420  146.9880 C   0  0  0  0  0  0  0  0  0  0  0  0
  189.6730  176.5940  145.7810 N   0  0  0  0  0  0  0  0  0  0  0  0
  187.3620  176.3900  142.8300 C   0  0  0  0  0  0  0  0  0  0  0  0
  191.4740  176.8010  147.1720 N   0  0  0  0  0  0  0  0  0  0  0  0
  189.4060  177.9160  147.9350 C   0  0  0  0  0  1  0  0  0  0  0  0
  191.8410  176.2000  146.0270 C   0  0  0  0  0  0  0  0  0  0  0  0
  187.4420  176.1100  141.3630 C   0  0  0  0  0  2  0  0  0  0  0  0
  187.4400  177.3980  140.5560 C   0  0  0  0  0  2  0  0  0  0  0  0
  186.1450  177.5390  139.7780 C   0  0  0  0  0  1  0  0  0  0  0  0
  186.8900  176.9540  147.0660 C   0  0  0  0  0  2  0  0  0  0  0  0
  184.9830  178.6660  147.6400 N   0  0  0  0  0  0  0  0  0  0  0  0
  185.8230  177.9110  147.3860 C   0  0  0  0  0  0  0  0  0  0  0  0
  1 11  1  0  0  0  0
  2 20  1  0  0  0  0
  2  8  1  0  0  0  0
  3 13  1  0  0  0  0
  4 11  2  0  0  0  0
  4 16  1  0  0  0  0
  5 12  1  0  0  0  0
  5 10  1  0  0  0  0
  6 16  1  0  0  0  0
  6 20  2  0  0  0  0
  7 10  2  0  0  0  0
  7 13  1  0  0  0  0
  9  1  2  0  0  0  0
 10  6  1  0  0  0  0
 11 24  1  0  0  0  0
 12  4  1  0  0  0  0
 13  2  2  0  0  0  0
 14  7  1  0  0  0  0
 15 18  2  0  0  0  0
 15 19  1  0  0  0  0
 16 15  1  0  0  0  0
 17  9  1  0  0  0  0
 17 12  2  0  0  0  0
 20 18  1  0  0  0  0
 21 17  1  0  0  0  0
 22 21  1  0  0  0  0
 23 22  1  0  0  0  0
 24 26  1  0  0  0  0
 26 25  3  0  0  0  0
M  END
>  <MODEL>
9

>  <REMARK>
 VINA RESULT:      -6.5      2.358      5.749
  Name = 
  4 active torsions:
  status: ('A' for Active; 'I' for Inactive)
    1  A    between atoms: C_3  and  C_12
    2  A    between atoms: C_8  and  C_25
    3  A    between atoms: C_12  and  C_22
    4  A    between atoms: C_16  and  C_25
                            x       y       z     vdW  Elec       q    Type
                         _______ _______ _______ _____ _____    ______ ____

>  <TORSDO>
F 4

$$$$
