=
 OpenBabel11042414023D

 31 37  0  0  1  0  0  0  0  0999 V2000
  188.3530  176.0200  143.5030 C   0  0  2  0  0  3  0  0  0  0  0  0
  191.7000  171.7810  139.2220 C   0  0  0  0  0  1  0  0  0  0  0  0
  187.2960  177.9060  144.9720 C   0  0  0  0  0  2  0  0  0  0  0  0
  192.3960  175.2510  144.9730 C   0  0  1  0  0  3  0  0  0  0  0  0
  188.2020  172.5860  139.3000 C   0  0  0  0  0  3  0  0  0  0  0  0
  193.1800  173.7370  141.9270 C   0  0  0  0  0  3  0  0  0  0  0  0
  189.6220  174.2980  142.0700 C   0  0  1  0  0  3  0  0  0  0  0  0
  185.8600  176.4930  143.4770 C   0  0  0  0  0  2  0  0  0  0  0  0
  189.1790  171.8530  138.8730 N   0  0  0  0  0  0  0  0  0  0  0  0
  188.4970  177.2960  144.3040 C   0  0  0  0  0  0  0  0  0  0  0  0
  190.3930  172.4990  139.2250 C   0  0  1  0  0  3  0  0  0  0  0  0
  190.7360  174.0810  141.0970 C   0  0  0  0  0  0  0  0  0  0  0  0
  191.9690  173.8740  141.4730 C   0  0  0  0  0  0  0  0  0  0  0  0
  189.5760  175.7560  142.5920 C   0  0  2  0  0  3  0  0  0  0  0  0
  189.6950  177.7530  144.6730 C   0  0  0  0  0  3  0  0  0  0  0  0
  190.1420  173.6350  139.8630 C   0  0  2  0  0  3  0  0  0  0  0  0
  187.0800  176.0920  142.6510 C   0  0  0  0  0  2  0  0  0  0  0  0
  191.0250  175.7040  144.6400 N   0  0  2  0  0  0  0  0  0  0  0  0
  186.0450  177.8820  144.0910 C   0  0  2  0  0  0  0  0  0  0  0  0
  192.8210  174.1110  144.2470 O   0  0  0  0  0  0  0  0  0  0  0  0
  190.9540  176.1120  143.2200 C   0  0  2  0  0  3  0  0  0  0  0  0
  191.0030  177.1400  144.2650 C   0  0  1  0  0  3  0  0  0  0  0  0
  186.1530  178.9440  143.0030 C   0  0  0  0  0  1  0  0  0  0  0  0
  193.5820  174.5180  143.1340 C   0  0  0  0  0  2  0  0  0  0  0  0
  188.3780  173.9100  141.3730 N   0  0  0  0  0  2  0  0  0  0  0  0
  188.6930  173.8470  139.9410 C   0  0  2  0  0  3  0  0  0  0  0  0
  193.4470  176.5660  146.8180 C   0  0  0  0  0  2  0  0  0  0  0  0
  194.5220  175.6890  146.2110 C   0  0  0  0  0  2  0  0  0  0  0  0
  193.4610  176.3100  145.3230 C   0  0  0  0  0  3  0  0  0  0  0  0
  184.8510  178.2060  144.9780 C   0  0  0  0  0  2  0  0  0  0  0  0
  184.6560  177.2230  145.9360 F   0  0  0  0  0  0  0  0  0  0  0  0
  1 17  1  6  0  0  0
  1 10  1  0  0  0  0
  4 29  1  6  0  0  0
  5 26  1  0  0  0  0
  6 24  1  0  0  0  0
  7 12  1  6  0  0  0
  7 14  1  0  0  0  0
  8 19  1  0  0  0  0
  9 11  1  0  0  0  0
  9  5  2  0  0  0  0
 10 15  2  0  0  0  0
 10  3  1  0  0  0  0
 11  2  1  1  0  0  0
 11 16  1  0  0  0  0
 12 13  2  0  0  0  0
 13  6  2  0  0  0  0
 14 21  1  0  0  0  0
 14  1  1  0  0  0  0
 16 26  1  0  0  0  0
 16 12  1  0  0  0  0
 17  8  1  0  0  0  0
 18  4  1  0  0  0  0
 19  3  1  0  0  0  0
 19 30  1  0  0  0  0
 20  4  1  0  0  0  0
 21 22  1  0  0  0  0
 21 18  1  0  0  0  0
 22 18  1  0  0  0  0
 22 15  1  0  0  0  0
 23 19  1  0  0  0  0
 24 20  1  0  0  0  0
 25  7  1  0  0  0  0
 26 25  1  0  0  0  0
 28 27  1  0  0  0  0
 29 28  1  0  0  0  0
 29 27  1  0  0  0  0
 30 31  1  0  0  0  0
M  END
>  <MODEL>
1

>  <REMARK>
 VINA RESULT:      -8.7      0.000      0.000
  Name = 
  2 active torsions:
  status: ('A' for Active; 'I' for Inactive)
    1  A    between atoms: C_4  and  C_24
    2  A    between atoms: C_5  and  C_21
                            x       y       z     vdW  Elec       q    Type
                         _______ _______ _______ _____ _____    ______ ____

>  <TORSDO>
F 2

$$$$
=
 OpenBabel11042414023D

 31 37  0  0  1  0  0  0  0  0999 V2000
  188.8830  175.3800  141.7260 C   0  0  2  0  0  3  0  0  0  0  0  0
  185.2980  178.9700  146.3910 C   0  0  0  0  0  1  0  0  0  0  0  0
  190.1900  173.7190  140.1900 C   0  0  0  0  0  2  0  0  0  0  0  0
  191.3700  176.2630  145.2090 C   0  0  1  0  0  3  0  0  0  0  0  0
  184.4430  178.2430  142.9810 C   0  0  0  0  0  3  0  0  0  0  0  0
  188.5300  177.3560  146.9200 C   0  0  0  0  0  3  0  0  0  0  0  0
  187.6910  176.8800  143.4470 C   0  0  1  0  0  3  0  0  0  0  0  0
  188.1840  174.9510  139.3250 C   0  0  0  0  0  2  0  0  0  0  0  0
  184.2370  178.8970  144.0780 N   0  0  0  0  0  0  0  0  0  0  0  0
  189.8370  174.2160  141.5640 C   0  0  0  0  0  0  0  0  0  0  0  0
  185.0030  178.2820  145.1020 C   0  0  1  0  0  3  0  0  0  0  0  0
  187.0680  176.9500  144.8040 C   0  0  0  0  0  0  0  0  0  0  0  0
  187.7610  177.1820  145.8850 C   0  0  0  0  0  0  0  0  0  0  0  0
  188.3460  175.5020  143.1730 C   0  0  2  0  0  3  0  0  0  0  0  0
  190.5920  173.7900  142.5780 C   0  0  0  0  0  3  0  0  0  0  0  0
  185.6700  177.2420  144.6160 C   0  0  2  0  0  3  0  0  0  0  0  0
  187.7100  175.2200  140.7520 C   0  0  0  0  0  2  0  0  0  0  0  0
  190.7070  175.7950  143.9700 N   0  0  2  0  0  0  0  0  0  0  0  0
  188.9860  173.6500  139.2500 C   0  0  2  0  0  0  0  0  0  0  0  0
  190.6700  177.2920  145.8880 O   0  0  0  0  0  0  0  0  0  0  0  0
  189.3870  175.2080  144.2900 C   0  0  2  0  0  3  0  0  0  0  0  0
  190.5150  174.3230  143.9790 C   0  0  1  0  0  3  0  0  0  0  0  0
  188.1120  172.4540  139.6090 C   0  0  0  0  0  1  0  0  0  0  0  0
  189.8870  176.7310  146.9140 C   0  0  0  0  0  2  0  0  0  0  0  0
  186.6180  177.1950  142.4800 N   0  0  0  0  0  2  0  0  0  0  0  0
  185.3450  177.0670  143.1970 C   0  0  2  0  0  3  0  0  0  0  0  0
  193.5720  175.1430  145.5770 C   0  0  0  0  0  2  0  0  0  0  0  0
  193.2530  175.9440  146.8220 C   0  0  0  0  0  2  0  0  0  0  0  0
  192.1400  175.2400  146.0690 C   0  0  0  0  0  3  0  0  0  0  0  0
  189.5160  173.4650  137.8350 C   0  0  0  0  0  2  0  0  0  0  0  0
  190.7050  174.1530  137.6500 F   0  0  0  0  0  0  0  0  0  0  0  0
  1 17  1  6  0  0  0
  1 14  1  0  0  0  0
  3 10  1  0  0  0  0
  4 20  1  0  0  0  0
  4 29  1  1  0  0  0
  5 26  1  0  0  0  0
  5  9  2  0  0  0  0
  7 25  1  6  0  0  0
  7 12  1  0  0  0  0
  8 17  1  0  0  0  0
  9 11  1  0  0  0  0
 10  1  1  0  0  0  0
 10 15  2  0  0  0  0
 11  2  1  6  0  0  0
 12 13  2  0  0  0  0
 13  6  2  0  0  0  0
 14  7  1  0  0  0  0
 14 21  1  0  0  0  0
 15 22  1  0  0  0  0
 16 12  1  0  0  0  0
 16 11  1  0  0  0  0
 18 22  1  0  0  0  0
 18 21  1  0  0  0  0
 18  4  1  0  0  0  0
 19  8  1  0  0  0  0
 19 23  1  0  0  0  0
 19  3  1  0  0  0  0
 20 24  1  0  0  0  0
 22 21  1  0  0  0  0
 24  6  1  0  0  0  0
 25 26  1  0  0  0  0
 26 16  1  0  0  0  0
 27 29  1  0  0  0  0
 27 28  1  0  0  0  0
 29 28  1  0  0  0  0
 30 19  1  0  0  0  0
 31 30  1  0  0  0  0
M  END
>  <MODEL>
2

>  <REMARK>
 VINA RESULT:      -8.2      2.820      6.160
  Name = 
  2 active torsions:
  status: ('A' for Active; 'I' for Inactive)
    1  A    between atoms: C_4  and  C_24
    2  A    between atoms: C_5  and  C_21
                            x       y       z     vdW  Elec       q    Type
                         _______ _______ _______ _____ _____    ______ ____

>  <TORSDO>
F 2

$$$$
=
 OpenBabel11042414023D

 31 37  0  0  1  0  0  0  0  0999 V2000
  188.6220  176.3270  143.7040 C   0  0  2  0  0  3  0  0  0  0  0  0
  194.9010  173.8110  145.0270 C   0  0  0  0  0  1  0  0  0  0  0  0
  186.1140  176.9320  143.2940 C   0  0  0  0  0  2  0  0  0  0  0  0
  189.9640  173.7760  140.4200 C   0  0  1  0  0  3  0  0  0  0  0  0
  193.1300  176.4300  146.7280 C   0  0  0  0  0  3  0  0  0  0  0  0
  192.6320  172.6930  142.3940 C   0  0  0  0  0  3  0  0  0  0  0  0
  191.0370  175.4870  144.0180 C   0  0  1  0  0  3  0  0  0  0  0  0
  187.4800  178.2070  144.9670 C   0  0  0  0  0  2  0  0  0  0  0  0
  194.2210  175.7700  146.5030 N   0  0  0  0  0  0  0  0  0  0  0  0
  187.2470  175.9490  143.1980 C   0  0  0  0  0  0  0  0  0  0  0  0
  193.8800  174.6050  145.7680 C   0  0  1  0  0  3  0  0  0  0  0  0
  191.9060  174.3060  144.3050 C   0  0  0  0  0  0  0  0  0  0  0  0
  192.3170  173.4920  143.3710 C   0  0  0  0  0  0  0  0  0  0  0  0
  189.5440  175.0950  143.8770 C   0  0  2  0  0  3  0  0  0  0  0  0
  187.0620  174.8820  142.4180 C   0  0  0  0  0  3  0  0  0  0  0  0
  192.5700  174.5610  145.5580 C   0  0  2  0  0  3  0  0  0  0  0  0
  188.4900  177.0650  145.0410 C   0  0  0  0  0  2  0  0  0  0  0  0
  189.2800  174.6180  141.4280 N   0  0  2  0  0  0  0  0  0  0  0  0
  186.0830  177.6830  144.6270 C   0  0  2  0  0  0  0  0  0  0  0  0
  191.3610  173.6450  140.6260 O   0  0  0  0  0  0  0  0  0  0  0  0
  189.4090  174.0110  142.7700 C   0  0  2  0  0  3  0  0  0  0  0  0
  188.1370  173.9020  142.0480 C   0  0  1  0  0  3  0  0  0  0  0  0
  185.5660  176.7660  145.7300 C   0  0  0  0  0  1  0  0  0  0  0  0
  191.6240  172.4490  141.3190 C   0  0  0  0  0  2  0  0  0  0  0  0
  191.2640  176.4490  145.1170 N   0  0  0  0  0  2  0  0  0  0  0  0
  191.9280  175.7130  146.1980 C   0  0  2  0  0  3  0  0  0  0  0  0
  188.4090  172.9960  138.6270 C   0  0  0  0  0  2  0  0  0  0  0  0
  189.7250  172.2710  138.4390 C   0  0  0  0  0  2  0  0  0  0  0  0
  189.2150  172.5610  139.8370 C   0  0  0  0  0  3  0  0  0  0  0  0
  185.1260  178.8560  144.4730 C   0  0  0  0  0  2  0  0  0  0  0  0
  185.7920  180.0660  144.5860 F   0  0  0  0  0  0  0  0  0  0  0  0
  1 14  1  0  0  0  0
  1 17  1  1  0  0  0
  3 19  1  0  0  0  0
  4 29  1  1  0  0  0
  4 20  1  0  0  0  0
  4 18  1  0  0  0  0
  6 13  2  0  0  0  0
  7 12  1  1  0  0  0
  7 25  1  0  0  0  0
  8 17  1  0  0  0  0
  9  5  2  0  0  0  0
 10  3  1  0  0  0  0
 10  1  1  0  0  0  0
 11  2  1  6  0  0  0
 11  9  1  0  0  0  0
 12 16  1  0  0  0  0
 13 12  2  0  0  0  0
 14  7  1  0  0  0  0
 15 10  2  0  0  0  0
 16 11  1  0  0  0  0
 16 26  1  0  0  0  0
 18 22  1  0  0  0  0
 18 21  1  0  0  0  0
 19  8  1  0  0  0  0
 19 23  1  0  0  0  0
 20 24  1  0  0  0  0
 21 14  1  0  0  0  0
 22 15  1  0  0  0  0
 22 21  1  0  0  0  0
 24  6  1  0  0  0  0
 25 26  1  0  0  0  0
 26  5  1  0  0  0  0
 27 29  1  0  0  0  0
 28 27  1  0  0  0  0
 28 29  1  0  0  0  0
 30 31  1  0  0  0  0
 30 19  1  0  0  0  0
M  END
>  <MODEL>
3

>  <REMARK>
 VINA RESULT:      -8.1      1.593      5.337
  Name = 
  2 active torsions:
  status: ('A' for Active; 'I' for Inactive)
    1  A    between atoms: C_4  and  C_24
    2  A    between atoms: C_5  and  C_21
                            x       y       z     vdW  Elec       q    Type
                         _______ _______ _______ _____ _____    ______ ____

>  <TORSDO>
F 2

$$$$
=
 OpenBabel11042414023D

 31 37  0  0  1  0  0  0  0  0999 V2000
  190.1260  174.5720  141.5410 C   0  0  2  0  0  3  0  0  0  0  0  0
  186.2010  178.4320  145.6880 C   0  0  0  0  0  1  0  0  0  0  0  0
  191.5770  172.8350  140.2350 C   0  0  0  0  0  2  0  0  0  0  0  0
  192.4650  176.0270  144.9330 C   0  0  1  0  0  3  0  0  0  0  0  0
  185.4780  177.2500  142.3760 C   0  0  0  0  0  3  0  0  0  0  0  0
  189.5190  177.1170  146.4570 C   0  0  0  0  0  3  0  0  0  0  0  0
  188.7960  176.1790  143.0520 C   0  0  1  0  0  3  0  0  0  0  0  0
  189.5150  173.8160  139.1980 C   0  0  0  0  0  2  0  0  0  0  0  0
  185.2030  178.0140  143.3840 N   0  0  0  0  0  0  0  0  0  0  0  0
  191.1580  173.4650  141.5340 C   0  0  0  0  0  0  0  0  0  0  0  0
  185.9830  177.5780  144.4860 C   0  0  1  0  0  3  0  0  0  0  0  0
  188.1380  176.3640  144.3810 C   0  0  0  0  0  0  0  0  0  0  0  0
  188.7890  176.7700  145.4380 C   0  0  0  0  0  0  0  0  0  0  0  0
  189.5480  174.8260  142.9550 C   0  0  2  0  0  3  0  0  0  0  0  0
  191.9160  173.2140  142.6040 C   0  0  0  0  0  3  0  0  0  0  0  0
  186.7290  176.5360  144.1380 C   0  0  2  0  0  3  0  0  0  0  0  0
  188.9900  174.2180  140.5750 C   0  0  0  0  0  2  0  0  0  0  0  0
  191.8650  175.3720  143.7480 N   0  0  2  0  0  0  0  0  0  0  0  0
  190.4020  172.5730  139.2910 C   0  0  2  0  0  0  0  0  0  0  0  0
  191.6830  177.0790  145.4730 O   0  0  0  0  0  0  0  0  0  0  0  0
  190.5800  174.7370  144.1150 C   0  0  2  0  0  3  0  0  0  0  0  0
  191.7710  173.9010  143.9300 C   0  0  1  0  0  3  0  0  0  0  0  0
  189.6010  171.3710  139.7760 C   0  0  0  0  0  1  0  0  0  0  0  0
  190.9140  176.5900  146.5460 C   0  0  0  0  0  2  0  0  0  0  0  0
  187.7290  176.3030  142.0370 N   0  0  0  0  0  2  0  0  0  0  0  0
  186.4500  176.1740  142.7450 C   0  0  2  0  0  3  0  0  0  0  0  0
  194.7230  175.0920  145.4540 C   0  0  0  0  0  2  0  0  0  0  0  0
  194.3420  176.0250  146.5840 C   0  0  0  0  0  2  0  0  0  0  0  0
  193.2810  175.1680  145.9210 C   0  0  0  0  0  3  0  0  0  0  0  0
  190.9770  172.2590  137.9170 C   0  0  0  0  0  2  0  0  0  0  0  0
  190.7240  173.2850  137.0190 F   0  0  0  0  0  0  0  0  0  0  0  0
  1 17  1  6  0  0  0
  1 14  1  0  0  0  0
  3 10  1  0  0  0  0
  4 20  1  0  0  0  0
  4 29  1  1  0  0  0
  5 26  1  0  0  0  0
  5  9  2  0  0  0  0
  6 24  1  0  0  0  0
  7 25  1  6  0  0  0
  7 12  1  0  0  0  0
  8 19  1  0  0  0  0
  8 17  1  0  0  0  0
  9 11  1  0  0  0  0
 10  1  1  0  0  0  0
 10 15  2  0  0  0  0
 11  2  1  6  0  0  0
 12 13  2  0  0  0  0
 13  6  2  0  0  0  0
 14  7  1  0  0  0  0
 14 21  1  0  0  0  0
 15 22  1  0  0  0  0
 16 12  1  0  0  0  0
 16 11  1  0  0  0  0
 18 22  1  0  0  0  0
 18 21  1  0  0  0  0
 18  4  1  0  0  0  0
 19 23  1  0  0  0  0
 19  3  1  0  0  0  0
 20 24  1  0  0  0  0
 22 21  1  0  0  0  0
 25 26  1  0  0  0  0
 26 16  1  0  0  0  0
 27 29  1  0  0  0  0
 27 28  1  0  0  0  0
 29 28  1  0  0  0  0
 30 19  1  0  0  0  0
 31 30  1  0  0  0  0
M  END
>  <MODEL>
4

>  <REMARK>
 VINA RESULT:      -7.5      2.684      6.016
  Name = 
  2 active torsions:
  status: ('A' for Active; 'I' for Inactive)
    1  A    between atoms: C_4  and  C_24
    2  A    between atoms: C_5  and  C_21
                            x       y       z     vdW  Elec       q    Type
                         _______ _______ _______ _____ _____    ______ ____

>  <TORSDO>
F 2

$$$$
=
 OpenBabel11042414023D

 31 37  0  0  1  0  0  0  0  0999 V2000
  192.8780  174.6550  144.1190 C   0  0  2  0  0  3  0  0  0  0  0  0
  186.4710  177.0670  144.9150 C   0  0  0  0  0  1  0  0  0  0  0  0
  195.3270  173.9730  143.5130 C   0  0  0  0  0  2  0  0  0  0  0  0
  190.1910  172.8370  141.1920 C   0  0  1  0  0  3  0  0  0  0  0  0
  189.2900  177.4230  147.1100 C   0  0  0  0  0  3  0  0  0  0  0  0
  187.7210  175.1390  142.0770 C   0  0  0  0  0  3  0  0  0  0  0  0
  190.4220  175.3520  144.4550 C   0  0  1  0  0  3  0  0  0  0  0  0
  194.7910  174.9510  145.7590 C   0  0  0  0  0  2  0  0  0  0  0  0
  188.0210  177.5290  146.8810 N   0  0  0  0  0  0  0  0  0  0  0  0
  193.9330  174.3370  143.0810 C   0  0  0  0  0  0  0  0  0  0  0  0
  187.8150  177.3680  145.4860 C   0  0  1  0  0  3  0  0  0  0  0  0
  189.2760  176.1420  143.9090 C   0  0  0  0  0  0  0  0  0  0  0  0
  188.4550  175.6640  143.0140 C   0  0  0  0  0  0  0  0  0  0  0  0
  191.6470  175.3660  143.5060 C   0  0  2  0  0  3  0  0  0  0  0  0
  193.6080  174.0960  141.8100 C   0  0  0  0  0  3  0  0  0  0  0  0
  188.9740  177.1720  144.8700 C   0  0  2  0  0  3  0  0  0  0  0  0
  193.4890  175.5350  145.2160 C   0  0  0  0  0  2  0  0  0  0  0  0
  191.2880  173.3640  142.0370 N   0  0  2  0  0  0  0  0  0  0  0  0
  195.8470  174.8450  144.6570 C   0  0  2  0  0  0  0  0  0  0  0  0
  188.8930  173.1070  141.6930 O   0  0  0  0  0  0  0  0  0  0  0  0
  191.2100  174.8390  142.1090 C   0  0  2  0  0  3  0  0  0  0  0  0
  192.2200  174.2110  141.2500 C   0  0  1  0  0  3  0  0  0  0  0  0
  196.2210  176.2260  144.1320 C   0  0  0  0  0  1  0  0  0  0  0  0
  188.3770  174.2570  141.0660 C   0  0  0  0  0  2  0  0  0  0  0  0
  190.7310  175.9270  145.7810 N   0  0  0  0  0  2  0  0  0  0  0  0
  190.0670  177.2340  145.8440 C   0  0  2  0  0  3  0  0  0  0  0  0
  190.9700  171.4980  139.2320 C   0  0  0  0  0  2  0  0  0  0  0  0
  189.4900  171.7570  139.0500 C   0  0  0  0  0  2  0  0  0  0  0  0
  190.3750  172.8260  139.6610 C   0  0  0  0  0  3  0  0  0  0  0  0
  197.0950  174.1770  145.2150 C   0  0  0  0  0  2  0  0  0  0  0  0
  196.9270  173.8290  146.5470 F   0  0  0  0  0  0  0  0  0  0  0  0
  1 17  1  1  0  0  0
  3 19  1  0  0  0  0
  4 29  1  6  0  0  0
  4 20  1  0  0  0  0
  4 18  1  0  0  0  0
  6 13  2  0  0  0  0
  7 12  1  6  0  0  0
  7 25  1  0  0  0  0
  9  5  2  0  0  0  0
 10  3  1  0  0  0  0
 10  1  1  0  0  0  0
 11  2  1  1  0  0  0
 11  9  1  0  0  0  0
 12 16  1  0  0  0  0
 13 12  2  0  0  0  0
 14  1  1  0  0  0  0
 14  7  1  0  0  0  0
 15 10  2  0  0  0  0
 16 11  1  0  0  0  0
 16 26  1  0  0  0  0
 17  8  1  0  0  0  0
 18 21  1  0  0  0  0
 19 30  1  0  0  0  0
 19  8  1  0  0  0  0
 21 14  1  0  0  0  0
 22 15  1  0  0  0  0
 22 18  1  0  0  0  0
 22 21  1  0  0  0  0
 23 19  1  0  0  0  0
 24 20  1  0  0  0  0
 24  6  1  0  0  0  0
 25 26  1  0  0  0  0
 26  5  1  0  0  0  0
 27 29  1  0  0  0  0
 28 27  1  0  0  0  0
 28 29  1  0  0  0  0
 30 31  1  0  0  0  0
M  END
>  <MODEL>
5

>  <REMARK>
 VINA RESULT:      -7.4      2.938      7.499
  Name = 
  2 active torsions:
  status: ('A' for Active; 'I' for Inactive)
    1  A    between atoms: C_4  and  C_24
    2  A    between atoms: C_5  and  C_21
                            x       y       z     vdW  Elec       q    Type
                         _______ _______ _______ _____ _____    ______ ____

>  <TORSDO>
F 2

$$$$
=
 OpenBabel11042414023D

 31 37  0  0  1  0  0  0  0  0999 V2000
  189.1940  174.1020  141.3550 C   0  0  2  0  0  3  0  0  0  0  0  0
  191.6570  176.3350  147.3920 C   0  0  0  0  0  1  0  0  0  0  0  0
  188.3480  173.6030  138.9330 C   0  0  0  0  0  2  0  0  0  0  0  0
  186.3150  176.7640  143.2840 C   0  0  1  0  0  3  0  0  0  0  0  0
  192.9030  173.6970  145.3000 C   0  0  0  0  0  3  0  0  0  0  0  0
  188.7530  177.6580  145.6170 C   0  0  0  0  0  3  0  0  0  0  0  0
  189.9420  174.8420  143.7050 C   0  0  1  0  0  3  0  0  0  0  0  0
  190.1500  172.2010  139.9720 C   0  0  0  0  0  2  0  0  0  0  0  0
  192.8940  174.3300  146.4290 N   0  0  0  0  0  0  0  0  0  0  0  0
  188.4920  174.5510  140.0920 C   0  0  0  0  0  0  0  0  0  0  0  0
  192.1770  175.5400  146.2430 C   0  0  1  0  0  3  0  0  0  0  0  0
  190.4300  175.9780  144.5460 C   0  0  0  0  0  0  0  0  0  0  0  0
  189.6210  176.8230  145.1250 C   0  0  0  0  0  0  0  0  0  0  0  0
  189.5810  175.2920  142.2660 C   0  0  2  0  0  3  0  0  0  0  0  0
  187.7510  175.6600  140.0650 C   0  0  0  0  0  3  0  0  0  0  0  0
  191.7590  175.6400  144.9880 C   0  0  2  0  0  3  0  0  0  0  0  0
  190.4500  173.3040  140.9860 C   0  0  0  0  0  2  0  0  0  0  0  0
  187.1510  175.8970  142.4210 N   0  0  2  0  0  0  0  0  0  0  0  0
  189.6160  172.7890  138.6650 C   0  0  2  0  0  0  0  0  0  0  0  0
  186.7520  176.8370  144.6300 O   0  0  0  0  0  0  0  0  0  0  0  0
  188.5270  176.4330  142.3430 C   0  0  2  0  0  3  0  0  0  0  0  0
  187.6140  176.6200  141.2100 C   0  0  1  0  0  3  0  0  0  0  0  0
  190.6670  173.6670  137.9960 C   0  0  0  0  0  1  0  0  0  0  0  0
  187.5430  177.9880  144.8060 C   0  0  0  0  0  2  0  0  0  0  0  0
  191.0100  173.8210  143.7240 N   0  0  0  0  0  2  0  0  0  0  0  0
  192.2230  174.4800  144.2200 C   0  0  2  0  0  3  0  0  0  0  0  0
  184.2770  177.7170  142.1970 C   0  0  0  0  0  2  0  0  0  0  0  0
  184.4880  178.4560  143.5020 C   0  0  0  0  0  2  0  0  0  0  0  0
  185.6840  178.0310  142.6720 C   0  0  0  0  0  3  0  0  0  0  0  0
  189.2450  171.6580  137.7160 C   0  0  0  0  0  2  0  0  0  0  0  0
  189.2370  170.4360  138.3700 F   0  0  0  0  0  0  0  0  0  0  0  0
  1 17  1  6  0  0  0
  1 14  1  0  0  0  0
  3 10  1  0  0  0  0
  4 29  1  6  0  0  0
  4 20  1  0  0  0  0
  5  9  2  0  0  0  0
  7 25  1  6  0  0  0
  7 12  1  0  0  0  0
  8 17  1  0  0  0  0
 10  1  1  0  0  0  0
 11  9  1  0  0  0  0
 11  2  1  1  0  0  0
 12 16  1  0  0  0  0
 12 13  2  0  0  0  0
 13  6  2  0  0  0  0
 14 21  1  0  0  0  0
 14  7  1  0  0  0  0
 15 10  2  0  0  0  0
 15 22  1  0  0  0  0
 16 11  1  0  0  0  0
 18  4  1  0  0  0  0
 19  3  1  0  0  0  0
 19  8  1  0  0  0  0
 20 24  1  0  0  0  0
 21 18  1  0  0  0  0
 22 21  1  0  0  0  0
 22 18  1  0  0  0  0
 23 19  1  0  0  0  0
 24  6  1  0  0  0  0
 25 26  1  0  0  0  0
 26 16  1  0  0  0  0
 26  5  1  0  0  0  0
 27 29  1  0  0  0  0
 27 28  1  0  0  0  0
 29 28  1  0  0  0  0
 30 31  1  0  0  0  0
 30 19  1  0  0  0  0
M  END
>  <MODEL>
6

>  <REMARK>
 VINA RESULT:      -7.3      2.893      6.973
  Name = 
  2 active torsions:
  status: ('A' for Active; 'I' for Inactive)
    1  A    between atoms: C_4  and  C_24
    2  A    between atoms: C_5  and  C_21
                            x       y       z     vdW  Elec       q    Type
                         _______ _______ _______ _____ _____    ______ ____

>  <TORSDO>
F 2

$$$$
=
 OpenBabel11042414023D

 31 37  0  0  1  0  0  0  0  0999 V2000
  189.7110  175.8150  143.4420 C   0  0  2  0  0  3  0  0  0  0  0  0
  195.8410  172.9980  144.8510 C   0  0  0  0  0  1  0  0  0  0  0  0
  187.2380  176.5540  143.0330 C   0  0  0  0  0  2  0  0  0  0  0  0
  190.7890  172.8980  140.3720 C   0  0  1  0  0  3  0  0  0  0  0  0
  194.2970  175.8730  146.3480 C   0  0  0  0  0  3  0  0  0  0  0  0
  193.4310  171.8110  142.3790 C   0  0  0  0  0  3  0  0  0  0  0  0
  192.0710  174.8420  143.7790 C   0  0  1  0  0  3  0  0  0  0  0  0
  188.7310  177.8740  144.5550 C   0  0  0  0  0  2  0  0  0  0  0  0
  195.3340  175.1220  146.1600 N   0  0  0  0  0  0  0  0  0  0  0  0
  188.3000  175.4900  143.0020 C   0  0  0  0  0  0  0  0  0  0  0  0
  194.8960  173.9230  145.5400 C   0  0  1  0  0  3  0  0  0  0  0  0
  192.8670  173.6330  144.1520 C   0  0  0  0  0  0  0  0  0  0  0  0
  193.1970  172.7130  143.2860 C   0  0  0  0  0  0  0  0  0  0  0  0
  190.5520  174.5430  143.7060 C   0  0  2  0  0  3  0  0  0  0  0  0
  188.0220  174.3740  142.3250 C   0  0  0  0  0  3  0  0  0  0  0  0
  193.5810  173.9500  145.3620 C   0  0  2  0  0  3  0  0  0  0  0  0
  189.6650  176.6760  144.7100 C   0  0  0  0  0  2  0  0  0  0  0  0
  190.1900  173.8710  141.3150 N   0  0  2  0  0  0  0  0  0  0  0  0
  187.2940  177.4190  144.2940 C   0  0  2  0  0  0  0  0  0  0  0  0
  192.1780  172.6900  140.5590 O   0  0  0  0  0  0  0  0  0  0  0  0
  190.3140  173.3770  142.7040 C   0  0  2  0  0  3  0  0  0  0  0  0
  189.0180  173.2930  142.0210 C   0  0  1  0  0  3  0  0  0  0  0  0
  186.7470  176.6410  145.4850 C   0  0  0  0  0  1  0  0  0  0  0  0
  192.3800  171.5440  141.3510 C   0  0  0  0  0  2  0  0  0  0  0  0
  192.3920  175.8790  144.7820 N   0  0  0  0  0  2  0  0  0  0  0  0
  193.0350  175.1960  145.9100 C   0  0  2  0  0  3  0  0  0  0  0  0
  189.1490  172.0680  138.6810 C   0  0  0  0  0  2  0  0  0  0  0  0
  190.4060  171.2340  138.5470 C   0  0  0  0  0  2  0  0  0  0  0  0
  189.9440  171.6910  139.9170 C   0  0  0  0  0  3  0  0  0  0  0  0
  186.4130  178.6370  144.0560 C   0  0  0  0  0  2  0  0  0  0  0  0
  186.0090  179.2070  145.2530 F   0  0  0  0  0  0  0  0  0  0  0  0
  1 14  1  0  0  0  0
  1 17  1  1  0  0  0
  3 19  1  0  0  0  0
  4 29  1  1  0  0  0
  4 20  1  0  0  0  0
  4 18  1  0  0  0  0
  6 13  2  0  0  0  0
  7 12  1  1  0  0  0
  7 25  1  0  0  0  0
  8 17  1  0  0  0  0
  9  5  2  0  0  0  0
 10  3  1  0  0  0  0
 10  1  1  0  0  0  0
 11  2  1  6  0  0  0
 11  9  1  0  0  0  0
 12 16  1  0  0  0  0
 13 12  2  0  0  0  0
 14  7  1  0  0  0  0
 15 10  2  0  0  0  0
 16 11  1  0  0  0  0
 16 26  1  0  0  0  0
 18 22  1  0  0  0  0
 18 21  1  0  0  0  0
 19  8  1  0  0  0  0
 19 23  1  0  0  0  0
 20 24  1  0  0  0  0
 21 14  1  0  0  0  0
 22 15  1  0  0  0  0
 22 21  1  0  0  0  0
 24  6  1  0  0  0  0
 25 26  1  0  0  0  0
 26  5  1  0  0  0  0
 27 29  1  0  0  0  0
 28 27  1  0  0  0  0
 28 29  1  0  0  0  0
 30 19  1  0  0  0  0
 30 31  1  0  0  0  0
M  END
>  <MODEL>
7

>  <REMARK>
 VINA RESULT:      -7.3      1.840      5.466
  Name = 
  2 active torsions:
  status: ('A' for Active; 'I' for Inactive)
    1  A    between atoms: C_4  and  C_24
    2  A    between atoms: C_5  and  C_21
                            x       y       z     vdW  Elec       q    Type
                         _______ _______ _______ _____ _____    ______ ____

>  <TORSDO>
F 2

$$$$
=
 OpenBabel11042414023D

 31 37  0  0  1  0  0  0  0  0999 V2000
  189.9760  176.0290  143.3750 C   0  0  2  0  0  3  0  0  0  0  0  0
  196.5430  174.1860  142.3840 C   0  0  0  0  0  1  0  0  0  0  0  0
  187.4350  176.3700  143.8790 C   0  0  0  0  0  2  0  0  0  0  0  0
  190.3370  173.5360  139.8040 C   0  0  1  0  0  3  0  0  0  0  0  0
  195.2220  176.6610  144.6250 C   0  0  0  0  0  3  0  0  0  0  0  0
  193.6230  172.7770  140.7050 C   0  0  0  0  0  3  0  0  0  0  0  0
  192.4200  175.4420  142.8130 C   0  0  1  0  0  3  0  0  0  0  0  0
  189.1620  177.8190  144.9780 C   0  0  0  0  0  2  0  0  0  0  0  0
  196.2260  176.1070  144.0240 N   0  0  0  0  0  0  0  0  0  0  0  0
  188.5570  175.5020  143.3810 C   0  0  0  0  0  0  0  0  0  0  0  0
  195.7710  174.8940  143.4440 C   0  0  1  0  0  3  0  0  0  0  0  0
  193.4510  174.3610  142.7650 C   0  0  0  0  0  0  0  0  0  0  0  0
  193.5900  173.5670  141.7380 C   0  0  0  0  0  0  0  0  0  0  0  0
  191.0210  174.9000  143.2020 C   0  0  2  0  0  3  0  0  0  0  0  0
  188.2210  174.4020  142.7060 C   0  0  0  0  0  3  0  0  0  0  0  0
  194.4820  174.7140  143.7070 C   0  0  2  0  0  3  0  0  0  0  0  0
  190.2460  176.7860  144.6810 C   0  0  0  0  0  2  0  0  0  0  0  0
  189.9660  174.3330  140.9970 N   0  0  2  0  0  0  0  0  0  0  0  0
  187.7970  177.1490  145.1450 C   0  0  2  0  0  0  0  0  0  0  0  0
  191.7220  173.5500  139.5050 O   0  0  0  0  0  0  0  0  0  0  0  0
  190.6190  173.7780  142.2030 C   0  0  2  0  0  3  0  0  0  0  0  0
  189.1920  173.5240  141.9720 C   0  0  1  0  0  3  0  0  0  0  0  0
  187.7950  176.2160  146.3500 C   0  0  0  0  0  1  0  0  0  0  0  0
  192.3330  172.4050  140.0500 C   0  0  0  0  0  2  0  0  0  0  0  0
  192.9180  176.4510  143.7720 N   0  0  0  0  0  2  0  0  0  0  0  0
  193.9910  175.8130  144.5430 C   0  0  2  0  0  3  0  0  0  0  0  0
  188.3450  172.5570  138.6590 C   0  0  0  0  0  2  0  0  0  0  0  0
  189.5800  171.9580  138.0200 C   0  0  0  0  0  2  0  0  0  0  0  0
  189.5590  172.2370  139.5110 C   0  0  0  0  0  3  0  0  0  0  0  0
  186.7310  178.2170  145.3480 C   0  0  0  0  0  2  0  0  0  0  0  0
  186.5660  178.9860  144.2070 F   0  0  0  0  0  0  0  0  0  0  0  0
  1 10  1  0  0  0  0
  1 17  1  1  0  0  0
  3 19  1  0  0  0  0
  4 29  1  1  0  0  0
  4 18  1  0  0  0  0
  6 13  2  0  0  0  0
  7 12  1  1  0  0  0
  7 14  1  0  0  0  0
  7 25  1  0  0  0  0
  8 19  1  0  0  0  0
  9  5  2  0  0  0  0
 10  3  1  0  0  0  0
 11  2  1  6  0  0  0
 11 16  1  0  0  0  0
 11  9  1  0  0  0  0
 12 16  1  0  0  0  0
 13 12  2  0  0  0  0
 14  1  1  0  0  0  0
 15 10  2  0  0  0  0
 16 26  1  0  0  0  0
 17  8  1  0  0  0  0
 18 22  1  0  0  0  0
 18 21  1  0  0  0  0
 19 30  1  0  0  0  0
 19 23  1  0  0  0  0
 20  4  1  0  0  0  0
 20 24  1  0  0  0  0
 21 14  1  0  0  0  0
 22 21  1  0  0  0  0
 22 15  1  0  0  0  0
 24  6  1  0  0  0  0
 25 26  1  0  0  0  0
 26  5  1  0  0  0  0
 27 29  1  0  0  0  0
 28 27  1  0  0  0  0
 28 29  1  0  0  0  0
 31 30  1  0  0  0  0
M  END
>  <MODEL>
8

>  <REMARK>
 VINA RESULT:      -6.9      1.934      5.459
  Name = 
  2 active torsions:
  status: ('A' for Active; 'I' for Inactive)
    1  A    between atoms: C_4  and  C_24
    2  A    between atoms: C_5  and  C_21
                            x       y       z     vdW  Elec       q    Type
                         _______ _______ _______ _____ _____    ______ ____

>  <TORSDO>
F 2

$$$$
=
 OpenBabel11042414023D

 31 37  0  0  1  0  0  0  0  0999 V2000
  190.8570  175.0230  142.2130 C   0  0  2  0  0  3  0  0  0  0  0  0
  191.5640  177.5400  148.5900 C   0  0  0  0  0  1  0  0  0  0  0  0
  190.6960  173.7330  139.9460 C   0  0  0  0  0  2  0  0  0  0  0  0
  195.0850  175.5630  143.1780 C   0  0  1  0  0  3  0  0  0  0  0  0
  188.5870  177.2770  146.6000 C   0  0  0  0  0  3  0  0  0  0  0  0
  194.2180  176.1390  146.5100 C   0  0  0  0  0  3  0  0  0  0  0  0
  191.2210  176.1350  144.5070 C   0  0  1  0  0  3  0  0  0  0  0  0
  188.6950  174.9120  140.8910 C   0  0  0  0  0  2  0  0  0  0  0  0
  189.2120  177.7350  147.6370 N   0  0  0  0  0  0  0  0  0  0  0  0
  191.3940  173.9810  141.2550 C   0  0  0  0  0  0  0  0  0  0  0  0
  190.4410  177.0360  147.7490 C   0  0  1  0  0  3  0  0  0  0  0  0
  191.6910  175.9420  145.9130 C   0  0  0  0  0  0  0  0  0  0  0  0
  192.9440  176.0630  146.2590 C   0  0  0  0  0  0  0  0  0  0  0  0
  191.4530  174.8750  143.6340 C   0  0  2  0  0  3  0  0  0  0  0  0
  192.6170  173.4690  141.3990 C   0  0  0  0  0  3  0  0  0  0  0  0
  190.5530  176.1430  146.7730 C   0  0  2  0  0  3  0  0  0  0  0  0
  189.3290  174.9170  142.2800 C   0  0  0  0  0  2  0  0  0  0  0  0
  193.7360  175.2370  142.6590 N   0  0  2  0  0  0  0  0  0  0  0  0
  189.1720  173.7090  140.0750 C   0  0  2  0  0  0  0  0  0  0  0  0
  195.0800  176.4130  144.3120 O   0  0  0  0  0  0  0  0  0  0  0  0
  192.9620  174.5000  143.6810 C   0  0  2  0  0  3  0  0  0  0  0  0
  193.5370  173.7700  142.5450 C   0  0  1  0  0  3  0  0  0  0  0  0
  188.7230  172.4040  140.7210 C   0  0  0  0  0  1  0  0  0  0  0  0
  195.1790  175.6380  145.4830 C   0  0  0  0  0  2  0  0  0  0  0  0
  189.7920  176.5050  144.5920 N   0  0  0  0  0  2  0  0  0  0  0  0
  189.3420  176.1620  145.9460 C   0  0  2  0  0  3  0  0  0  0  0  0
  196.9900  174.6780  141.8270 C   0  0  0  0  0  2  0  0  0  0  0  0
  197.5500  175.1520  143.1510 C   0  0  0  0  0  2  0  0  0  0  0  0
  196.1880  174.4880  143.1010 C   0  0  0  0  0  3  0  0  0  0  0  0
  188.5900  173.7880  138.6710 C   0  0  0  0  0  2  0  0  0  0  0  0
  187.7580  174.8890  138.5330 F   0  0  0  0  0  0  0  0  0  0  0  0
  1 17  1  1  0  0  0
  1 14  1  0  0  0  0
  3 19  1  0  0  0  0
  3 10  1  0  0  0  0
  4 29  1  1  0  0  0
  4 20  1  0  0  0  0
  5  9  2  0  0  0  0
  7 25  1  1  0  0  0
  7 12  1  0  0  0  0
  8 17  1  0  0  0  0
  9 11  1  0  0  0  0
 10 15  2  0  0  0  0
 10  1  1  0  0  0  0
 11  2  1  6  0  0  0
 12 13  2  0  0  0  0
 12 16  1  0  0  0  0
 13  6  2  0  0  0  0
 14 21  1  0  0  0  0
 14  7  1  0  0  0  0
 15 22  1  0  0  0  0
 16 11  1  0  0  0  0
 18  4  1  0  0  0  0
 18 21  1  0  0  0  0
 19 23  1  0  0  0  0
 19  8  1  0  0  0  0
 20 24  1  0  0  0  0
 22 18  1  0  0  0  0
 22 21  1  0  0  0  0
 24  6  1  0  0  0  0
 25 26  1  0  0  0  0
 26  5  1  0  0  0  0
 26 16  1  0  0  0  0
 27 29  1  0  0  0  0
 27 28  1  0  0  0  0
 29 28  1  0  0  0  0
 30 19  1  0  0  0  0
 31 30  1  0  0  0  0
M  END
>  <MODEL>
9

>  <REMARK>
 VINA RESULT:      -6.8      2.900      6.108
  Name = 
  2 active torsions:
  status: ('A' for Active; 'I' for Inactive)
    1  A    between atoms: C_4  and  C_24
    2  A    between atoms: C_5  and  C_21
                            x       y       z     vdW  Elec       q    Type
                         _______ _______ _______ _____ _____    ______ ____

>  <TORSDO>
F 2

$$$$
