=
 OpenBabel11042416033D

 58 62  0  0  1  0  0  0  0  0999 V2000
  192.4790  174.2280  141.7710 O   0  0  0  0  0  1  0  0  0  0  0  0
  192.3760  170.8810  143.5250 C   0  0  1  0  0  3  0  0  0  0  0  0
  191.4920  173.2170  143.6990 C   0  0  0  0  0  2  0  0  0  0  0  0
  192.6170  172.2760  144.1100 C   0  0  0  0  0  2  0  0  0  0  0  0
  191.5680  172.0620  141.4760 C   0  0  0  0  0  0  0  0  0  0  0  0
  191.4640  169.7570  138.8350 O   0  0  0  0  0  0  0  0  0  0  0  0
  191.5670  170.4170  139.9060 C   0  0  0  0  0  0  0  0  0  0  0  0
  192.1020  170.9690  142.0300 C   0  0  0  0  0  0  0  0  0  0  0  0
  192.0960  169.8810  141.1060 N   0  0  0  0  0  0  0  0  0  0  0  0
  191.4540  173.3850  142.1840 C   0  0  2  0  0  3  0  0  0  0  0  0
  191.1760  171.8440  140.0470 C   0  0  1  0  0  3  0  0  0  0  0  0
  189.1890  172.6700  138.8940 C   0  0  0  0  0  0  0  0  0  0  0  0
  189.6970  171.9780  139.8780 C   0  0  0  0  0  3  0  0  0  0  0  0
  188.6810  173.3810  137.9230 C   0  0  0  0  0  3  0  0  0  0  0  0
  186.3750  176.3200  137.4110 C   0  0  0  0  0  3  0  0  0  0  0  0
  187.8990  174.5900  138.1580 C   0  0  0  0  0  0  0  0  0  0  0  0
  186.4990  176.9710  138.6450 C   0  0  0  0  0  3  0  0  0  0  0  0
  188.0040  175.2390  139.3920 C   0  0  0  0  0  3  0  0  0  0  0  0
  187.0710  175.1320  137.1690 C   0  0  0  0  0  3  0  0  0  0  0  0
  187.3060  176.4320  139.6450 C   0  0  0  0  0  0  0  0  0  0  0  0
  187.4560  177.1420  140.8820 N   0  0  0  0  0  2  0  0  0  0  0  0
  187.3040  176.5840  142.1910 C   0  0  0  0  0  0  0  0  0  0  0  0
  187.8530  177.2910  143.3120 N   0  0  0  0  0  2  0  0  0  0  0  0
  186.7030  175.4890  142.3510 O   0  0  0  0  0  0  0  0  0  0  0  0
  187.5960  177.0400  144.6980 C   0  0  0  0  0  0  0  0  0  0  0  0
  186.9970  178.0650  146.9990 C   0  0  0  0  0  2  0  0  0  0  0  0
  188.2770  176.0650  145.2980 C   0  0  0  0  0  3  0  0  0  0  0  0
  188.1280  177.1420  147.4910 C   0  0  0  0  0  2  0  0  0  0  0  0
  188.1020  175.8030  146.7580 C   0  0  2  0  0  3  0  0  0  0  0  0
  189.2290  174.9100  147.2540 C   0  0  0  0  0  1  0  0  0  0  0  0
  186.6300  177.8970  145.5000 C   0  0  2  0  0  3  0  0  0  0  0  0
  184.4150  177.7370  146.4470 O   0  0  0  0  0  1  0  0  0  0  0  0
  185.1920  177.4010  145.3420 C   0  0  1  0  0  3  0  0  0  0  0  0
  184.6120  177.9520  144.1950 O   0  0  0  0  0  0  0  0  0  0  0  0
  184.5270  179.3110  144.4620 C   0  0  0  0  0  1  0  0  0  0  0  0
  193.4540  169.8590  143.9170 C   0  0  2  0  0  3  0  0  0  0  0  0
  192.9230  169.0010  144.8720 O   0  0  0  0  0  1  0  0  0  0  0  0
  194.7030  170.4950  144.5190 C   0  0  0  0  0  2  0  0  0  0  0  0
  195.7320  170.7860  143.4390 C   0  0  0  0  0  2  0  0  0  0  0  0
  197.6680  170.7950  144.7850 O   0  0  0  0  0  0  0  0  0  0  0  0
  196.9510  171.4330  144.0280 C   0  0  0  0  0  0  0  0  0  0  0  0
  196.0640  173.7560  143.8610 C   0  0  2  0  0  3  0  0  0  0  0  0
  197.9410  172.9940  142.0120 S   0  0  0  0  0  0  0  0  0  0  0  0
  197.2930  172.8650  143.7120 C   0  0  2  0  0  3  0  0  0  0  0  0
  196.4380  173.8650  141.4800 C   0  0  1  0  0  3  0  0  0  0  0  0
  195.9710  174.6820  142.6620 C   0  0  0  0  0  2  0  0  0  0  0  0
  196.9940  173.8250  146.1710 C   0  0  0  0  0  1  0  0  0  0  0  0
  196.0530  174.5030  145.1940 C   0  0  2  0  0  3  0  0  0  0  0  0
  194.7150  174.5580  145.7610 N   0  0  0  0  0  2  0  0  0  0  0  0
  194.1160  175.7740  146.2040 C   0  0  0  0  0  0  0  0  0  0  0  0
  194.7490  176.8640  146.1470 O   0  0  0  0  0  0  0  0  0  0  0  0
  192.7360  175.7500  146.7450 C   0  0  0  0  0  1  0  0  0  0  0  0
  196.7240  174.6950  140.3900 O   0  0  0  0  0  0  0  0  0  0  0  0
  195.0720  173.1990  139.5540 C   0  0  0  0  0  1  0  0  0  0  0  0
  195.9410  175.0580  138.1680 C   0  0  0  0  0  1  0  0  0  0  0  0
  195.5920  174.6280  139.5800 C   0  0  0  0  0  3  0  0  0  0  0  0
  194.1790  168.9730  140.6030 O   0  0  0  0  0  1  0  0  0  0  0  0
  192.9290  168.6900  141.1410 C   0  0  0  0  0  2  0  0  0  0  0  0
  2 36  1  6  0  0  0
  2  4  1  0  0  0  0
  3  4  1  0  0  0  0
  5  8  2  0  0  0  0
  5 10  1  0  0  0  0
  6  7  2  0  0  0  0
  7 11  1  0  0  0  0
  7  9  1  0  0  0  0
  8  2  1  0  0  0  0
  9 58  1  0  0  0  0
  9  8  1  0  0  0  0
 10  1  1  6  0  0  0
 10  3  1  0  0  0  0
 11 13  1  1  0  0  0
 11  5  1  0  0  0  0
 12 13  2  0  0  0  0
 14 16  1  0  0  0  0
 14 12  2  0  0  0  0
 15 17  1  0  0  0  0
 16 18  2  0  0  0  0
 17 20  2  0  0  0  0
 18 20  1  0  0  0  0
 19 15  2  0  0  0  0
 19 16  1  0  0  0  0
 20 21  1  0  0  0  0
 21 22  1  0  0  0  0
 22 24  2  0  0  0  0
 22 23  1  0  0  0  0
 23 25  1  0  0  0  0
 25 27  2  0  0  0  0
 25 31  1  0  0  0  0
 26 28  1  0  0  0  0
 27 29  1  0  0  0  0
 29 30  1  1  0  0  0
 29 28  1  0  0  0  0
 31 33  1  1  0  0  0
 31 26  1  0  0  0  0
 33 32  1  1  0  0  0
 34 35  1  0  0  0  0
 34 33  1  0  0  0  0
 36 38  1  0  0  0  0
 36 37  1  1  0  0  0
 39 41  1  0  0  0  0
 39 38  1  0  0  0  0
 41 40  2  0  0  0  0
 42 48  1  1  0  0  0
 43 44  1  0  0  0  0
 44 42  1  0  0  0  0
 44 41  1  6  0  0  0
 45 53  1  6  0  0  0
 45 43  1  0  0  0  0
 45 46  1  0  0  0  0
 46 42  1  0  0  0  0
 48 49  1  0  0  0  0
 48 47  1  1  0  0  0
 49 50  1  0  0  0  0
 50 52  1  0  0  0  0
 51 50  2  0  0  0  0
 54 56  1  0  0  0  0
 55 56  1  0  0  0  0
 56 53  1  0  0  0  0
 57 58  1  0  0  0  0
M  END
>  <MODEL>
1

>  <REMARK>
 VINA RESULT:      -6.6      0.000      0.000
  Name = 
  16 active torsions:
  status: ('A' for Active; 'I' for Inactive)
    1  A    between atoms: C_1  and  N_32
    2  A    between atoms: C_4  and  C_22
    3  A    between atoms: C_4  and  C_28
    4  A    between atoms: N_7  and  C_54
    5  A    between atoms: C_8  and  C_11
    6  A    between atoms: C_8  and  C_22
    7  A    between atoms: C_10  and  C_50
    8  A    between atoms: C_14  and  N_44
    9  A    between atoms: O_17  and  C_34
   10  A    between atoms: C_20  and  C_55
   11  A    between atoms: N_27  and  C_55
   12  A    between atoms: C_28  and  C_38
   13  A    between atoms: C_29  and  C_56
   14  A    between atoms: C_34  and  C_58
   15  A    between atoms: O_39  and  C_48
   16  A    between atoms: O_39  and  C_49
                            x       y       z     vdW  Elec       q    Type
                         _______ _______ _______ _____ _____    ______ ____

>  <TORSDO>
F 16

$$$$
=
 OpenBabel11042416033D

 58 62  0  0  1  0  0  0  0  0999 V2000
  190.0180  174.0590  143.1110 O   0  0  0  0  0  1  0  0  0  0  0  0
  192.8530  175.8740  144.8330 C   0  0  1  0  0  3  0  0  0  0  0  0
  191.9500  175.3530  142.5560 C   0  0  0  0  0  2  0  0  0  0  0  0
  192.9000  174.8950  143.6550 C   0  0  0  0  0  2  0  0  0  0  0  0
  190.3930  176.0040  144.4090 C   0  0  0  0  0  0  0  0  0  0  0  0
  188.8580  177.4420  147.2150 O   0  0  0  0  0  0  0  0  0  0  0  0
  189.5960  176.9550  146.3150 C   0  0  0  0  0  0  0  0  0  0  0  0
  191.4130  176.1200  145.2650 C   0  0  0  0  0  0  0  0  0  0  0  0
  190.9890  176.7490  146.4740 N   0  0  0  0  0  0  0  0  0  0  0  0
  190.5090  175.3590  143.0560 C   0  0  2  0  0  3  0  0  0  0  0  0
  189.1060  176.5110  144.9840 C   0  0  1  0  0  3  0  0  0  0  0  0
  187.3340  177.9460  144.1140 C   0  0  0  0  0  0  0  0  0  0  0  0
  188.6100  177.6900  144.2120 C   0  0  0  0  0  3  0  0  0  0  0  0
  186.0560  178.1900  143.9970 C   0  0  0  0  0  3  0  0  0  0  0  0
  183.3530  178.3520  141.3720 C   0  0  0  0  0  3  0  0  0  0  0  0
  185.3590  178.1420  142.7160 C   0  0  0  0  0  0  0  0  0  0  0  0
  184.0610  177.9360  140.2380 C   0  0  0  0  0  3  0  0  0  0  0  0
  186.0610  177.7440  141.5740 C   0  0  0  0  0  3  0  0  0  0  0  0
  184.0000  178.4560  142.6070 C   0  0  0  0  0  3  0  0  0  0  0  0
  185.4200  177.6380  140.3280 C   0  0  0  0  0  0  0  0  0  0  0  0
  186.1120  177.1670  139.1640 N   0  0  0  0  0  2  0  0  0  0  0  0
  187.0760  176.1090  139.1350 C   0  0  0  0  0  0  0  0  0  0  0  0
  187.3890  175.4960  137.8760 N   0  0  0  0  0  2  0  0  0  0  0  0
  187.6310  175.7250  140.1960 O   0  0  0  0  0  0  0  0  0  0  0  0
  188.4840  174.6170  137.5970 C   0  0  0  0  0  0  0  0  0  0  0  0
  190.7590  173.6820  138.4090 C   0  0  0  0  0  2  0  0  0  0  0  0
  188.8630  174.4660  136.3300 C   0  0  0  0  0  3  0  0  0  0  0  0
  191.1750  173.9550  136.9510 C   0  0  0  0  0  2  0  0  0  0  0  0
  190.0430  173.6170  135.9850 C   0  0  2  0  0  3  0  0  0  0  0  0
  190.4730  173.8990  134.5530 C   0  0  0  0  0  1  0  0  0  0  0  0
  189.2540  173.9200  138.7090 C   0  0  2  0  0  3  0  0  0  0  0  0
  189.2370  171.5080  138.6200 O   0  0  0  0  0  1  0  0  0  0  0  0
  188.5670  172.6190  139.1230 C   0  0  1  0  0  3  0  0  0  0  0  0
  188.5120  172.5220  140.5170 O   0  0  0  0  0  0  0  0  0  0  0  0
  189.5610  171.6780  140.8530 C   0  0  0  0  0  1  0  0  0  0  0  0
  193.8070  175.5000  145.9780 C   0  0  2  0  0  3  0  0  0  0  0  0
  194.7850  176.4820  146.0760 O   0  0  0  0  0  1  0  0  0  0  0  0
  194.5190  174.1680  145.7640 C   0  0  0  0  0  2  0  0  0  0  0  0
  196.0250  174.3440  145.8540 C   0  0  0  0  0  2  0  0  0  0  0  0
  196.8780  175.1560  143.8090 O   0  0  0  0  0  0  0  0  0  0  0  0
  196.6600  174.1740  144.5040 C   0  0  0  0  0  0  0  0  0  0  0  0
  195.9450  172.2940  143.0320 C   0  0  2  0  0  3  0  0  0  0  0  0
  197.2040  171.6390  145.3780 S   0  0  0  0  0  0  0  0  0  0  0  0
  197.0180  172.8050  143.9880 C   0  0  2  0  0  3  0  0  0  0  0  0
  195.6870  170.7700  144.8850 C   0  0  1  0  0  3  0  0  0  0  0  0
  195.6120  170.8540  143.3780 C   0  0  0  0  0  2  0  0  0  0  0  0
  197.8530  172.5300  141.4490 C   0  0  0  0  0  1  0  0  0  0  0  0
  196.3420  172.4790  141.5680 C   0  0  2  0  0  3  0  0  0  0  0  0
  195.7660  173.6920  141.0100 N   0  0  0  0  0  2  0  0  0  0  0  0
  194.6900  173.6730  140.0740 C   0  0  0  0  0  0  0  0  0  0  0  0
  194.2100  172.5800  139.6650 O   0  0  0  0  0  0  0  0  0  0  0  0
  194.1390  174.9550  139.5730 C   0  0  0  0  0  1  0  0  0  0  0  0
  195.7410  169.4350  145.3020 O   0  0  0  0  0  0  0  0  0  0  0  0
  194.9740  168.6620  147.4190 C   0  0  0  0  0  1  0  0  0  0  0  0
  193.6430  168.3060  145.3620 C   0  0  0  0  0  1  0  0  0  0  0  0
  194.5930  169.2520  146.0700 C   0  0  0  0  0  3  0  0  0  0  0  0
  191.3600  175.4680  148.3810 O   0  0  0  0  0  1  0  0  0  0  0  0
  191.6370  176.6860  147.7740 C   0  0  0  0  0  2  0  0  0  0  0  0
  2  8  1  0  0  0  0
  2 36  1  1  0  0  0
  3 10  1  0  0  0  0
  3  4  1  0  0  0  0
  4  2  1  0  0  0  0
  5 11  1  0  0  0  0
  5  8  2  0  0  0  0
  7  9  1  0  0  0  0
  7  6  2  0  0  0  0
  8  9  1  0  0  0  0
  9 58  1  0  0  0  0
 10  1  1  1  0  0  0
 10  5  1  0  0  0  0
 11 13  1  6  0  0  0
 11  7  1  0  0  0  0
 12 13  2  0  0  0  0
 14 12  2  0  0  0  0
 15 19  1  0  0  0  0
 16 14  1  0  0  0  0
 17 20  1  0  0  0  0
 17 15  2  0  0  0  0
 18 16  1  0  0  0  0
 19 16  2  0  0  0  0
 20 18  2  0  0  0  0
 21 20  1  0  0  0  0
 22 21  1  0  0  0  0
 22 24  2  0  0  0  0
 23 22  1  0  0  0  0
 25 23  1  0  0  0  0
 25 31  1  0  0  0  0
 26 31  1  0  0  0  0
 27 25  2  0  0  0  0
 28 26  1  0  0  0  0
 29 30  1  6  0  0  0
 29 27  1  0  0  0  0
 29 28  1  0  0  0  0
 31 33  1  6  0  0  0
 33 32  1  1  0  0  0
 33 34  1  0  0  0  0
 34 35  1  0  0  0  0
 36 37  1  6  0  0  0
 38 39  1  0  0  0  0
 38 36  1  0  0  0  0
 40 41  2  0  0  0  0
 41 39  1  0  0  0  0
 42 48  1  6  0  0  0
 42 46  1  0  0  0  0
 42 44  1  0  0  0  0
 44 41  1  1  0  0  0
 44 43  1  0  0  0  0
 45 53  1  6  0  0  0
 45 43  1  0  0  0  0
 46 45  1  0  0  0  0
 48 47  1  1  0  0  0
 49 48  1  0  0  0  0
 50 49  1  0  0  0  0
 51 50  2  0  0  0  0
 52 50  1  0  0  0  0
 53 56  1  0  0  0  0
 55 56  1  0  0  0  0
 56 54  1  0  0  0  0
 58 57  1  0  0  0  0
M  END
>  <MODEL>
2

>  <REMARK>
 VINA RESULT:      -6.6      2.407      7.071
  Name = 
  16 active torsions:
  status: ('A' for Active; 'I' for Inactive)
    1  A    between atoms: C_1  and  N_32
    2  A    between atoms: C_4  and  C_22
    3  A    between atoms: C_4  and  C_28
    4  A    between atoms: N_7  and  C_54
    5  A    between atoms: C_8  and  C_11
    6  A    between atoms: C_8  and  C_22
    7  A    between atoms: C_10  and  C_50
    8  A    between atoms: C_14  and  N_44
    9  A    between atoms: O_17  and  C_34
   10  A    between atoms: C_20  and  C_55
   11  A    between atoms: N_27  and  C_55
   12  A    between atoms: C_28  and  C_38
   13  A    between atoms: C_29  and  C_56
   14  A    between atoms: C_34  and  C_58
   15  A    between atoms: O_39  and  C_48
   16  A    between atoms: O_39  and  C_49
                            x       y       z     vdW  Elec       q    Type
                         _______ _______ _______ _____ _____    ______ ____

>  <TORSDO>
F 16

$$$$
=
 OpenBabel11042416033D

 58 62  0  0  1  0  0  0  0  0999 V2000
  193.1360  172.3050  141.0400 O   0  0  0  0  0  1  0  0  0  0  0  0
  192.1470  174.0970  137.8610 C   0  0  1  0  0  3  0  0  0  0  0  0
  191.3460  173.6430  140.1900 C   0  0  0  0  0  2  0  0  0  0  0  0
  191.3180  173.1600  138.7450 C   0  0  0  0  0  2  0  0  0  0  0  0
  193.7520  174.2100  139.7740 C   0  0  0  0  0  0  0  0  0  0  0  0
  196.7820  175.5320  138.6030 O   0  0  0  0  0  0  0  0  0  0  0  0
  195.6220  175.0850  138.8200 C   0  0  0  0  0  0  0  0  0  0  0  0
  193.5310  174.3100  138.4590 C   0  0  0  0  0  0  0  0  0  0  0  0
  194.6560  174.8920  137.8010 N   0  0  0  0  0  0  0  0  0  0  0  0
  192.7680  173.6130  140.7420 C   0  0  2  0  0  3  0  0  0  0  0  0
  195.1210  174.6800  140.1590 C   0  0  1  0  0  3  0  0  0  0  0  0
  195.2550  175.7850  142.3320 C   0  0  0  0  0  0  0  0  0  0  0  0
  195.0370  175.8780  141.0480 C   0  0  0  0  0  3  0  0  0  0  0  0
  195.4510  175.6870  143.6200 C   0  0  0  0  0  3  0  0  0  0  0  0
  193.6740  176.5640  146.8280 C   0  0  0  0  0  3  0  0  0  0  0  0
  194.4020  175.9560  144.5980 C   0  0  0  0  0  0  0  0  0  0  0  0
  192.3400  176.3600  146.4550 C   0  0  0  0  0  3  0  0  0  0  0  0
  193.0660  175.7700  144.2310 C   0  0  0  0  0  3  0  0  0  0  0  0
  194.7030  176.3640  145.9020 C   0  0  0  0  0  3  0  0  0  0  0  0
  192.0260  175.9710  145.1550 C   0  0  0  0  0  0  0  0  0  0  0  0
  190.6560  175.7210  144.8100 N   0  0  0  0  0  2  0  0  0  0  0  0
  189.6200  176.7050  144.7290 C   0  0  0  0  0  0  0  0  0  0  0  0
  188.4200  176.3870  144.0100 N   0  0  0  0  0  2  0  0  0  0  0  0
  189.7670  177.8300  145.2740 O   0  0  0  0  0  0  0  0  0  0  0  0
  187.1900  177.1180  144.0250 C   0  0  0  0  0  0  0  0  0  0  0  0
  185.9820  179.3180  143.3870 C   0  0  0  0  0  2  0  0  0  0  0  0
  186.3780  176.9630  145.0690 C   0  0  0  0  0  3  0  0  0  0  0  0
  185.4260  179.2050  144.8190 C   0  0  0  0  0  2  0  0  0  0  0  0
  185.1140  177.7530  145.1730 C   0  0  2  0  0  3  0  0  0  0  0  0
  184.5720  177.6630  146.5920 C   0  0  0  0  0  1  0  0  0  0  0  0
  186.8320  178.1040  142.9240 C   0  0  2  0  0  3  0  0  0  0  0  0
  185.2220  178.2060  141.1280 O   0  0  0  0  0  1  0  0  0  0  0  0
  186.1720  177.3950  141.7410 C   0  0  1  0  0  3  0  0  0  0  0  0
  187.1350  177.0300  140.7960 O   0  0  0  0  0  0  0  0  0  0  0  0
  186.5600  177.3370  139.5710 C   0  0  0  0  0  1  0  0  0  0  0  0
  192.1480  173.6970  136.3770 C   0  0  2  0  0  3  0  0  0  0  0  0
  191.3260  174.5770  135.6830 O   0  0  0  0  0  1  0  0  0  0  0  0
  191.6200  172.2880  136.1290 C   0  0  0  0  0  2  0  0  0  0  0  0
  192.7680  171.3110  135.9370 C   0  0  0  0  0  2  0  0  0  0  0  0
  191.4330  169.4760  135.2920 O   0  0  0  0  0  0  0  0  0  0  0  0
  192.2850  169.8950  136.0610 C   0  0  0  0  0  0  0  0  0  0  0  0
  192.5960  169.5930  138.5160 C   0  0  2  0  0  3  0  0  0  0  0  0
  194.6110  168.7080  136.8790 S   0  0  0  0  0  0  0  0  0  0  0  0
  192.8270  168.9880  137.1350 C   0  0  2  0  0  3  0  0  0  0  0  0
  195.0020  169.6940  138.3540 C   0  0  1  0  0  3  0  0  0  0  0  0
  193.8700  169.4740  139.3320 C   0  0  0  0  0  2  0  0  0  0  0  0
  190.3930  168.4800  138.1820 C   0  0  0  0  0  1  0  0  0  0  0  0
  191.3810  168.9850  139.2160 C   0  0  2  0  0  3  0  0  0  0  0  0
  190.7300  169.9520  140.0840 N   0  0  0  0  0  2  0  0  0  0  0  0
  190.8470  169.9110  141.5050 C   0  0  0  0  0  0  0  0  0  0  0  0
  191.5080  168.9990  142.0730 O   0  0  0  0  0  0  0  0  0  0  0  0
  190.1740  170.9510  142.3210 C   0  0  0  0  0  1  0  0  0  0  0  0
  196.2170  169.2720  138.9050 O   0  0  0  0  0  0  0  0  0  0  0  0
  197.0380  170.9000  140.4370 C   0  0  0  0  0  1  0  0  0  0  0  0
  196.3910  171.5190  138.1280 C   0  0  0  0  0  1  0  0  0  0  0  0
  196.9920  170.4270  138.9920 C   0  0  0  0  0  3  0  0  0  0  0  0
  194.9380  176.0510  135.8030 O   0  0  0  0  0  1  0  0  0  0  0  0
  195.0010  174.7940  136.3920 C   0  0  0  0  0  2  0  0  0  0  0  0
  2 36  1  6  0  0  0
  2  8  1  0  0  0  0
  2  4  1  0  0  0  0
  3 10  1  0  0  0  0
  4  3  1  0  0  0  0
  5 11  1  0  0  0  0
  5 10  1  0  0  0  0
  6  7  2  0  0  0  0
  7 11  1  0  0  0  0
  8  5  2  0  0  0  0
  9  8  1  0  0  0  0
  9  7  1  0  0  0  0
 10  1  1  6  0  0  0
 11 13  1  1  0  0  0
 12 14  2  0  0  0  0
 13 12  2  0  0  0  0
 14 16  1  0  0  0  0
 16 19  1  0  0  0  0
 17 15  1  0  0  0  0
 18 16  2  0  0  0  0
 18 20  1  0  0  0  0
 19 15  2  0  0  0  0
 20 17  2  0  0  0  0
 21 20  1  0  0  0  0
 22 21  1  0  0  0  0
 22 24  2  0  0  0  0
 23 25  1  0  0  0  0
 23 22  1  0  0  0  0
 25 27  2  0  0  0  0
 26 28  1  0  0  0  0
 27 29  1  0  0  0  0
 28 29  1  0  0  0  0
 29 30  1  1  0  0  0
 31 33  1  6  0  0  0
 31 26  1  0  0  0  0
 31 25  1  0  0  0  0
 33 32  1  6  0  0  0
 34 33  1  0  0  0  0
 35 34  1  0  0  0  0
 36 37  1  6  0  0  0
 38 36  1  0  0  0  0
 39 41  1  0  0  0  0
 39 38  1  0  0  0  0
 40 41  2  0  0  0  0
 42 48  1  1  0  0  0
 42 46  1  0  0  0  0
 43 44  1  0  0  0  0
 43 45  1  0  0  0  0
 44 41  1  6  0  0  0
 44 42  1  0  0  0  0
 45 53  1  1  0  0  0
 45 46  1  0  0  0  0
 48 47  1  6  0  0  0
 48 49  1  0  0  0  0
 49 50  1  0  0  0  0
 50 51  2  0  0  0  0
 50 52  1  0  0  0  0
 53 56  1  0  0  0  0
 55 56  1  0  0  0  0
 56 54  1  0  0  0  0
 57 58  1  0  0  0  0
 58  9  1  0  0  0  0
M  END
>  <MODEL>
3

>  <REMARK>
 VINA RESULT:      -6.6      2.866      6.986
  Name = 
  16 active torsions:
  status: ('A' for Active; 'I' for Inactive)
    1  A    between atoms: C_1  and  N_32
    2  A    between atoms: C_4  and  C_22
    3  A    between atoms: C_4  and  C_28
    4  A    between atoms: N_7  and  C_54
    5  A    between atoms: C_8  and  C_11
    6  A    between atoms: C_8  and  C_22
    7  A    between atoms: C_10  and  C_50
    8  A    between atoms: C_14  and  N_44
    9  A    between atoms: O_17  and  C_34
   10  A    between atoms: C_20  and  C_55
   11  A    between atoms: N_27  and  C_55
   12  A    between atoms: C_28  and  C_38
   13  A    between atoms: C_29  and  C_56
   14  A    between atoms: C_34  and  C_58
   15  A    between atoms: O_39  and  C_48
   16  A    between atoms: O_39  and  C_49
                            x       y       z     vdW  Elec       q    Type
                         _______ _______ _______ _____ _____    ______ ____

>  <TORSDO>
F 16

$$$$
=
 OpenBabel11042416033D

 58 62  0  0  1  0  0  0  0  0999 V2000
  189.6540  177.2880  142.0310 O   0  0  0  0  0  1  0  0  0  0  0  0
  188.3920  174.4450  139.8820 C   0  0  1  0  0  3  0  0  0  0  0  0
  189.1610  174.9560  142.2100 C   0  0  0  0  0  2  0  0  0  0  0  0
  189.5970  174.4860  140.8270 C   0  0  0  0  0  2  0  0  0  0  0  0
  187.6510  176.5520  141.0040 C   0  0  0  0  0  0  0  0  0  0  0  0
  185.1880  178.0600  139.0140 O   0  0  0  0  0  0  0  0  0  0  0  0
  186.0740  177.3610  139.5780 C   0  0  0  0  0  0  0  0  0  0  0  0
  187.6360  175.7660  139.9220 C   0  0  0  0  0  0  0  0  0  0  0  0
  186.6360  176.1970  138.9990 N   0  0  0  0  0  0  0  0  0  0  0  0
  188.6100  176.3770  142.1490 C   0  0  2  0  0  3  0  0  0  0  0  0
  186.6640  177.6740  140.9060 C   0  0  1  0  0  3  0  0  0  0  0  0
  185.6100  178.3340  143.0070 C   0  0  0  0  0  0  0  0  0  0  0  0
  185.6160  177.5500  141.9630 C   0  0  0  0  0  3  0  0  0  0  0  0
  185.6180  179.1050  144.0620 C   0  0  0  0  0  3  0  0  0  0  0  0
  185.1890  178.4210  147.7450 C   0  0  0  0  0  3  0  0  0  0  0  0
  185.8210  178.5900  145.4110 C   0  0  0  0  0  0  0  0  0  0  0  0
  186.3260  177.6450  148.0040 C   0  0  0  0  0  3  0  0  0  0  0  0
  186.9450  177.8020  145.6770 C   0  0  0  0  0  3  0  0  0  0  0  0
  184.9360  178.8900  146.4530 C   0  0  0  0  0  3  0  0  0  0  0  0
  187.2060  177.3230  146.9730 C   0  0  0  0  0  0  0  0  0  0  0  0
  188.3890  176.5700  147.2710 N   0  0  0  0  0  2  0  0  0  0  0  0
  189.5690  176.5100  146.4630 C   0  0  0  0  0  0  0  0  0  0  0  0
  190.7900  176.0470  147.0570 N   0  0  0  0  0  2  0  0  0  0  0  0
  189.5320  176.8630  145.2560 O   0  0  0  0  0  0  0  0  0  0  0  0
  191.9930  175.6780  146.3740 C   0  0  0  0  0  0  0  0  0  0  0  0
  193.8190  173.8720  146.0490 C   0  0  0  0  0  2  0  0  0  0  0  0
  192.8750  176.6350  146.0910 C   0  0  0  0  0  3  0  0  0  0  0  0
  194.7660  175.0820  146.1510 C   0  0  0  0  0  2  0  0  0  0  0  0
  194.1790  176.3000  145.4430 C   0  0  2  0  0  3  0  0  0  0  0  0
  195.1260  177.4840  145.5610 C   0  0  0  0  0  1  0  0  0  0  0  0
  192.3080  174.2300  146.0360 C   0  0  2  0  0  3  0  0  0  0  0  0
  192.4520  174.1800  143.6260 O   0  0  0  0  0  1  0  0  0  0  0  0
  191.6610  173.8190  144.7130 C   0  0  1  0  0  3  0  0  0  0  0  0
  191.4530  172.4370  144.6830 O   0  0  0  0  0  0  0  0  0  0  0  0
  190.0740  172.2890  144.6460 C   0  0  0  0  0  1  0  0  0  0  0  0
  188.7410  173.9520  138.4690 C   0  0  2  0  0  3  0  0  0  0  0  0
  188.1780  172.6950  138.2890 O   0  0  0  0  0  1  0  0  0  0  0  0
  190.2400  173.8200  138.2250 C   0  0  0  0  0  2  0  0  0  0  0  0
  190.6220  172.3650  138.0080 C   0  0  0  0  0  2  0  0  0  0  0  0
  192.7370  171.3210  138.0570 O   0  0  0  0  0  0  0  0  0  0  0  0
  191.9570  172.0690  138.6280 C   0  0  0  0  0  0  0  0  0  0  0  0
  193.8000  173.1180  139.9380 C   0  0  2  0  0  3  0  0  0  0  0  0
  192.0890  171.4570  141.2910 S   0  0  0  0  0  0  0  0  0  0  0  0
  192.3420  172.6710  139.9540 C   0  0  2  0  0  3  0  0  0  0  0  0
  193.8840  171.3000  141.5210 C   0  0  1  0  0  3  0  0  0  0  0  0
  194.4780  172.6540  141.2140 C   0  0  0  0  0  2  0  0  0  0  0  0
  194.0200  174.9020  138.2140 C   0  0  0  0  0  1  0  0  0  0  0  0
  193.9390  174.6220  139.7020 C   0  0  2  0  0  3  0  0  0  0  0  0
  195.1170  175.1570  140.3660 N   0  0  0  0  0  2  0  0  0  0  0  0
  195.0350  176.0850  141.4460 C   0  0  0  0  0  0  0  0  0  0  0  0
  193.9180  176.5060  141.8530 O   0  0  0  0  0  0  0  0  0  0  0  0
  196.2840  176.5630  142.0890 C   0  0  0  0  0  1  0  0  0  0  0  0
  194.1680  170.9250  142.8400 O   0  0  0  0  0  0  0  0  0  0  0  0
  193.3480  169.4070  144.4810 C   0  0  0  0  0  1  0  0  0  0  0  0
  194.4360  168.5960  142.4100 C   0  0  0  0  0  1  0  0  0  0  0  0
  193.5580  169.6820  142.9990 C   0  0  0  0  0  3  0  0  0  0  0  0
  187.2580  176.8840  136.8640 O   0  0  0  0  0  1  0  0  0  0  0  0
  186.5690  175.9090  137.5760 C   0  0  0  0  0  2  0  0  0  0  0  0
  2 36  1  6  0  0  0
  2  8  1  0  0  0  0
  2  4  1  0  0  0  0
  4  3  1  0  0  0  0
  5 10  1  0  0  0  0
  6  7  2  0  0  0  0
  7 11  1  0  0  0  0
  8  5  2  0  0  0  0
  9  7  1  0  0  0  0
  9  8  1  0  0  0  0
 10  1  1  6  0  0  0
 10  3  1  0  0  0  0
 11  5  1  0  0  0  0
 11 13  1  1  0  0  0
 12 14  2  0  0  0  0
 13 12  2  0  0  0  0
 14 16  1  0  0  0  0
 15 17  1  0  0  0  0
 16 18  2  0  0  0  0
 16 19  1  0  0  0  0
 18 20  1  0  0  0  0
 19 15  2  0  0  0  0
 20 21  1  0  0  0  0
 20 17  2  0  0  0  0
 22 23  1  0  0  0  0
 22 21  1  0  0  0  0
 24 22  2  0  0  0  0
 25 23  1  0  0  0  0
 26 28  1  0  0  0  0
 27 25  2  0  0  0  0
 29 30  1  1  0  0  0
 29 27  1  0  0  0  0
 29 28  1  0  0  0  0
 31 33  1  6  0  0  0
 31 26  1  0  0  0  0
 31 25  1  0  0  0  0
 33 32  1  6  0  0  0
 34 33  1  0  0  0  0
 35 34  1  0  0  0  0
 36 37  1  1  0  0  0
 38 36  1  0  0  0  0
 39 38  1  0  0  0  0
 39 41  1  0  0  0  0
 40 41  2  0  0  0  0
 42 48  1  1  0  0  0
 42 44  1  0  0  0  0
 42 46  1  0  0  0  0
 43 45  1  0  0  0  0
 44 41  1  6  0  0  0
 44 43  1  0  0  0  0
 45 53  1  1  0  0  0
 46 45  1  0  0  0  0
 48 47  1  6  0  0  0
 48 49  1  0  0  0  0
 49 50  1  0  0  0  0
 50 51  2  0  0  0  0
 50 52  1  0  0  0  0
 53 56  1  0  0  0  0
 55 56  1  0  0  0  0
 56 54  1  0  0  0  0
 57 58  1  0  0  0  0
 58  9  1  0  0  0  0
M  END
>  <MODEL>
4

>  <REMARK>
 VINA RESULT:      -6.5      2.611      7.211
  Name = 
  16 active torsions:
  status: ('A' for Active; 'I' for Inactive)
    1  A    between atoms: C_1  and  N_32
    2  A    between atoms: C_4  and  C_22
    3  A    between atoms: C_4  and  C_28
    4  A    between atoms: N_7  and  C_54
    5  A    between atoms: C_8  and  C_11
    6  A    between atoms: C_8  and  C_22
    7  A    between atoms: C_10  and  C_50
    8  A    between atoms: C_14  and  N_44
    9  A    between atoms: O_17  and  C_34
   10  A    between atoms: C_20  and  C_55
   11  A    between atoms: N_27  and  C_55
   12  A    between atoms: C_28  and  C_38
   13  A    between atoms: C_29  and  C_56
   14  A    between atoms: C_34  and  C_58
   15  A    between atoms: O_39  and  C_48
   16  A    between atoms: O_39  and  C_49
                            x       y       z     vdW  Elec       q    Type
                         _______ _______ _______ _____ _____    ______ ____

>  <TORSDO>
F 16

$$$$
=
 OpenBabel11042416033D

 58 62  0  0  1  0  0  0  0  0999 V2000
  189.3480  174.0400  143.7010 O   0  0  0  0  0  1  0  0  0  0  0  0
  192.4600  175.6900  145.0740 C   0  0  1  0  0  3  0  0  0  0  0  0
  191.3290  175.1220  142.9130 C   0  0  0  0  0  2  0  0  0  0  0  0
  192.3260  174.6450  143.9620 C   0  0  0  0  0  2  0  0  0  0  0  0
  189.9940  176.0150  144.8370 C   0  0  0  0  0  0  0  0  0  0  0  0
  188.8270  177.7450  147.6550 O   0  0  0  0  0  0  0  0  0  0  0  0
  189.4430  177.1430  146.7330 C   0  0  0  0  0  0  0  0  0  0  0  0
  191.0880  176.0890  145.6000 C   0  0  0  0  0  0  0  0  0  0  0  0
  190.8220  176.8220  146.7960 N   0  0  0  0  0  0  0  0  0  0  0  0
  189.9410  175.2850  143.5230 C   0  0  2  0  0  3  0  0  0  0  0  0
  188.8070  176.6680  145.4770 C   0  0  1  0  0  3  0  0  0  0  0  0
  187.0910  178.0000  144.3620 C   0  0  0  0  0  0  0  0  0  0  0  0
  188.3500  177.8400  144.6710 C   0  0  0  0  0  3  0  0  0  0  0  0
  185.8350  178.1470  144.0340 C   0  0  0  0  0  3  0  0  0  0  0  0
  183.6680  178.4540  140.9640 C   0  0  0  0  0  3  0  0  0  0  0  0
  185.3730  178.1070  142.6520 C   0  0  0  0  0  0  0  0  0  0  0  0
  184.5130  177.9100  139.9890 C   0  0  0  0  0  3  0  0  0  0  0  0
  186.2140  177.5790  141.6670 C   0  0  0  0  0  3  0  0  0  0  0  0
  184.0970  178.5550  142.2910 C   0  0  0  0  0  3  0  0  0  0  0  0
  185.7920  177.4770  140.3310 C   0  0  0  0  0  0  0  0  0  0  0  0
  186.6200  176.8770  139.3250 N   0  0  0  0  0  2  0  0  0  0  0  0
  187.4390  175.7160  139.4990 C   0  0  0  0  0  0  0  0  0  0  0  0
  187.8970  175.0140  138.3350 N   0  0  0  0  0  0  0  0  0  0  0  0
  187.7440  175.3190  140.6530 O   0  0  0  0  0  0  0  0  0  0  0  0
  188.9090  174.0030  138.2830 C   0  0  0  0  0  0  0  0  0  0  0  0
  189.7550  171.8580  137.1040 C   0  0  0  0  0  2  0  0  0  0  0  0
  189.4590  173.6030  139.4280 C   0  0  0  0  0  2  0  0  0  0  0  0
  189.9600  171.3730  138.5520 C   0  0  0  0  0  2  0  0  0  0  0  0
  190.4700  172.5030  139.4420 C   0  0  2  0  0  3  0  0  0  0  0  0
  190.6600  172.0050  140.8670 C   0  0  0  0  0  1  0  0  0  0  0  0
  189.3110  173.3400  136.9740 C   0  0  2  0  0  3  0  0  0  0  0  0
  191.1480  173.3660  135.4090 O   0  0  0  0  0  1  0  0  0  0  0  0
  190.3680  174.1650  136.2400 C   0  0  1  0  0  3  0  0  0  0  0  0
  189.7590  175.1600  135.4700 O   0  0  0  0  0  0  0  0  0  0  0  0
  189.0300  174.4680  134.5130 C   0  0  0  0  0  1  0  0  0  0  0  0
  193.4720  175.2990  146.1620 C   0  0  2  0  0  3  0  0  0  0  0  0
  194.3140  176.3800  146.3910 O   0  0  0  0  0  1  0  0  0  0  0  0
  194.3490  174.1120  145.7770 C   0  0  0  0  0  2  0  0  0  0  0  0
  195.7860  174.5560  145.5590 C   0  0  0  0  0  2  0  0  0  0  0  0
  195.8860  175.7510  143.5280 O   0  0  0  0  0  0  0  0  0  0  0  0
  196.0850  174.6860  144.0930 C   0  0  0  0  0  0  0  0  0  0  0  0
  195.4650  172.7560  142.6430 C   0  0  2  0  0  3  0  0  0  0  0  0
  197.5350  172.3870  144.4030 S   0  0  0  0  0  0  0  0  0  0  0  0
  196.6100  173.5140  143.3070 C   0  0  2  0  0  3  0  0  0  0  0  0
  196.2300  171.1320  144.2550 C   0  0  1  0  0  3  0  0  0  0  0  0
  195.6580  171.2670  142.8630 C   0  0  0  0  0  2  0  0  0  0  0  0
  194.9350  171.8930  140.3670 C   0  0  0  0  0  1  0  0  0  0  0  0
  195.3080  173.1260  141.1680 C   0  0  2  0  0  3  0  0  0  0  0  0
  196.5310  173.7050  140.6330 N   0  0  0  0  0  2  0  0  0  0  0  0
  196.5650  174.9860  140.0080 C   0  0  0  0  0  0  0  0  0  0  0  0
  195.5100  175.6640  139.8650 O   0  0  0  0  0  0  0  0  0  0  0  0
  197.8570  175.5190  139.5120 C   0  0  0  0  0  1  0  0  0  0  0  0
  196.7690  169.8540  144.4440 O   0  0  0  0  0  0  0  0  0  0  0  0
  195.1380  170.2510  146.1330 C   0  0  0  0  0  1  0  0  0  0  0  0
  196.6350  168.2800  146.2290 C   0  0  0  0  0  1  0  0  0  0  0  0
  195.8790  169.2130  145.3030 C   0  0  0  0  0  3  0  0  0  0  0  0
  191.3020  175.5870  148.7090 O   0  0  0  0  0  1  0  0  0  0  0  0
  191.5680  176.7770  148.0420 C   0  0  0  0  0  2  0  0  0  0  0  0
  2  8  1  0  0  0  0
  2 36  1  1  0  0  0
  3 10  1  0  0  0  0
  3  4  1  0  0  0  0
  4  2  1  0  0  0  0
  5 11  1  0  0  0  0
  5  8  2  0  0  0  0
  7  9  1  0  0  0  0
  7  6  2  0  0  0  0
  8  9  1  0  0  0  0
  9 58  1  0  0  0  0
 10  1  1  1  0  0  0
 10  5  1  0  0  0  0
 11 13  1  6  0  0  0
 11  7  1  0  0  0  0
 12 13  2  0  0  0  0
 14 12  2  0  0  0  0
 15 19  1  0  0  0  0
 16 14  1  0  0  0  0
 17 20  1  0  0  0  0
 17 15  2  0  0  0  0
 18 16  1  0  0  0  0
 19 16  2  0  0  0  0
 20 18  2  0  0  0  0
 21 22  1  0  0  0  0
 21 20  1  0  0  0  0
 22 24  2  0  0  0  0
 23 22  1  0  0  0  0
 25 23  2  0  0  0  0
 25 27  1  0  0  0  0
 26 28  1  0  0  0  0
 27 29  1  0  0  0  0
 28 29  1  0  0  0  0
 29 30  1  1  0  0  0
 31 33  1  1  0  0  0
 31 26  1  0  0  0  0
 31 25  1  0  0  0  0
 33 32  1  6  0  0  0
 34 33  1  0  0  0  0
 35 34  1  0  0  0  0
 36 37  1  6  0  0  0
 38 36  1  0  0  0  0
 39 38  1  0  0  0  0
 40 41  2  0  0  0  0
 41 39  1  0  0  0  0
 42 48  1  6  0  0  0
 42 46  1  0  0  0  0
 42 44  1  0  0  0  0
 44 41  1  1  0  0  0
 44 43  1  0  0  0  0
 45 43  1  0  0  0  0
 45 53  1  6  0  0  0
 46 45  1  0  0  0  0
 48 47  1  6  0  0  0
 49 48  1  0  0  0  0
 50 49  1  0  0  0  0
 51 50  2  0  0  0  0
 52 50  1  0  0  0  0
 53 56  1  0  0  0  0
 56 54  1  0  0  0  0
 56 55  1  0  0  0  0
 58 57  1  0  0  0  0
M  END
>  <MODEL>
5

>  <REMARK>
 VINA RESULT:      -6.2      2.463      7.163
  Name = 
  16 active torsions:
  status: ('A' for Active; 'I' for Inactive)
    1  A    between atoms: C_1  and  N_32
    2  A    between atoms: C_4  and  C_22
    3  A    between atoms: C_4  and  C_28
    4  A    between atoms: N_7  and  C_54
    5  A    between atoms: C_8  and  C_11
    6  A    between atoms: C_8  and  C_22
    7  A    between atoms: C_10  and  C_50
    8  A    between atoms: C_14  and  N_44
    9  A    between atoms: O_17  and  C_34
   10  A    between atoms: C_20  and  C_55
   11  A    between atoms: N_27  and  C_55
   12  A    between atoms: C_28  and  C_38
   13  A    between atoms: C_29  and  C_56
   14  A    between atoms: C_34  and  C_58
   15  A    between atoms: O_39  and  C_48
   16  A    between atoms: O_39  and  C_49
                            x       y       z     vdW  Elec       q    Type
                         _______ _______ _______ _____ _____    ______ ____

>  <TORSDO>
F 16

$$$$
=
 OpenBabel11042416033D

 58 62  0  0  1  0  0  0  0  0999 V2000
  192.6340  174.3970  142.3000 O   0  0  0  0  0  1  0  0  0  0  0  0
  192.4560  170.8690  143.6470 C   0  0  1  0  0  3  0  0  0  0  0  0
  191.6770  173.1990  144.1340 C   0  0  0  0  0  2  0  0  0  0  0  0
  192.7770  172.1740  144.3830 C   0  0  0  0  0  2  0  0  0  0  0  0
  191.6230  172.3180  141.7880 C   0  0  0  0  0  0  0  0  0  0  0  0
  191.3250  170.3530  138.8990 O   0  0  0  0  0  0  0  0  0  0  0  0
  191.4960  170.8750  140.0350 C   0  0  0  0  0  0  0  0  0  0  0  0
  192.1310  171.1460  142.1850 C   0  0  0  0  0  0  0  0  0  0  0  0
  192.0450  170.1790  141.1400 N   0  0  0  0  0  0  0  0  0  0  0  0
  191.5900  173.5490  142.6520 C   0  0  2  0  0  3  0  0  0  0  0  0
  191.1700  172.2880  140.3610 C   0  0  1  0  0  3  0  0  0  0  0  0
  189.1280  172.8610  139.1520 C   0  0  0  0  0  0  0  0  0  0  0  0
  189.6930  172.4960  140.2710 C   0  0  0  0  0  3  0  0  0  0  0  0
  188.5660  173.2470  138.0380 C   0  0  0  0  0  3  0  0  0  0  0  0
  187.0160  176.3480  136.5540 C   0  0  0  0  0  3  0  0  0  0  0  0
  187.8900  174.5330  137.9010 C   0  0  0  0  0  0  0  0  0  0  0  0
  186.6740  177.0540  137.7150 C   0  0  0  0  0  3  0  0  0  0  0  0
  187.5310  175.2380  139.0540 C   0  0  0  0  0  3  0  0  0  0  0  0
  187.6200  175.0910  136.6470 C   0  0  0  0  0  3  0  0  0  0  0  0
  186.9210  176.5020  138.9700 C   0  0  0  0  0  0  0  0  0  0  0  0
  186.6080  177.2640  140.1440 N   0  0  0  0  0  2  0  0  0  0  0  0
  187.0300  176.9580  141.4770 C   0  0  0  0  0  0  0  0  0  0  0  0
  186.9770  177.9910  142.4720 N   0  0  0  0  0  2  0  0  0  0  0  0
  187.4440  175.8050  141.7650 O   0  0  0  0  0  0  0  0  0  0  0  0
  187.1090  177.8280  143.8880 C   0  0  0  0  0  0  0  0  0  0  0  0
  187.7270  176.2240  145.8250 C   0  0  0  0  0  2  0  0  0  0  0  0
  186.2480  178.4660  144.6780 C   0  0  0  0  0  3  0  0  0  0  0  0
  186.4370  176.7870  146.4490 C   0  0  0  0  0  2  0  0  0  0  0  0
  186.2920  178.2790  146.1590 C   0  0  2  0  0  3  0  0  0  0  0  0
  185.0100  178.8130  146.7790 C   0  0  0  0  0  1  0  0  0  0  0  0
  188.1510  176.9000  144.4920 C   0  0  2  0  0  3  0  0  0  0  0  0
  189.9510  177.5630  145.9580 O   0  0  0  0  0  1  0  0  0  0  0  0
  189.4980  177.6080  144.6430 C   0  0  1  0  0  3  0  0  0  0  0  0
  190.4540  177.0130  143.8140 O   0  0  0  0  0  0  0  0  0  0  0  0
  191.4860  177.9370  143.7470 C   0  0  0  0  0  1  0  0  0  0  0  0
  193.5050  169.7680  143.8690 C   0  0  2  0  0  3  0  0  0  0  0  0
  193.4430  169.3600  145.1960 O   0  0  0  0  0  1  0  0  0  0  0  0
  194.9340  170.2280  143.6000 C   0  0  0  0  0  2  0  0  0  0  0  0
  195.5240  170.8950  144.8310 C   0  0  0  0  0  2  0  0  0  0  0  0
  197.8310  170.4050  144.8170 O   0  0  0  0  0  0  0  0  0  0  0  0
  196.9670  171.2430  144.6060 C   0  0  0  0  0  0  0  0  0  0  0  0
  196.1900  173.5850  144.2560 C   0  0  2  0  0  3  0  0  0  0  0  0
  197.9320  172.5530  142.4070 S   0  0  0  0  0  0  0  0  0  0  0  0
  197.3630  172.6190  144.1390 C   0  0  2  0  0  3  0  0  0  0  0  0
  196.4500  173.4510  141.8610 C   0  0  1  0  0  3  0  0  0  0  0  0
  196.0830  174.3990  142.9790 C   0  0  0  0  0  2  0  0  0  0  0  0
  197.1840  173.7870  146.5310 C   0  0  0  0  0  1  0  0  0  0  0  0
  196.2810  174.4530  145.5100 C   0  0  2  0  0  3  0  0  0  0  0  0
  194.9690  174.6840  146.0930 N   0  0  0  0  0  2  0  0  0  0  0  0
  194.2670  175.9160  145.9430 C   0  0  0  0  0  0  0  0  0  0  0  0
  194.7810  176.8800  145.3110 O   0  0  0  0  0  0  0  0  0  0  0  0
  192.9200  176.0630  146.5460 C   0  0  0  0  0  1  0  0  0  0  0  0
  196.7230  174.1590  140.6850 O   0  0  0  0  0  0  0  0  0  0  0  0
  196.0700  174.1780  138.3950 C   0  0  0  0  0  1  0  0  0  0  0  0
  194.9090  172.7490  140.0510 C   0  0  0  0  0  1  0  0  0  0  0  0
  196.2450  173.3480  139.6580 C   0  0  0  0  0  3  0  0  0  0  0  0
  194.0000  169.2340  140.3010 O   0  0  0  0  0  1  0  0  0  0  0  0
  192.8290  168.9620  140.9980 C   0  0  0  0  0  2  0  0  0  0  0  0
  2 36  1  6  0  0  0
  2  4  1  0  0  0  0
  3  4  1  0  0  0  0
  5  8  2  0  0  0  0
  5 10  1  0  0  0  0
  6  7  2  0  0  0  0
  7 11  1  0  0  0  0
  7  9  1  0  0  0  0
  8  2  1  0  0  0  0
  9  8  1  0  0  0  0
 10  1  1  6  0  0  0
 10  3  1  0  0  0  0
 11 13  1  1  0  0  0
 11  5  1  0  0  0  0
 12 13  2  0  0  0  0
 14 12  2  0  0  0  0
 15 19  2  0  0  0  0
 15 17  1  0  0  0  0
 16 14  1  0  0  0  0
 16 18  2  0  0  0  0
 17 20  2  0  0  0  0
 19 16  1  0  0  0  0
 20 18  1  0  0  0  0
 20 21  1  0  0  0  0
 21 22  1  0  0  0  0
 22 24  2  0  0  0  0
 22 23  1  0  0  0  0
 23 25  1  0  0  0  0
 25 31  1  0  0  0  0
 25 27  2  0  0  0  0
 26 28  1  0  0  0  0
 27 29  1  0  0  0  0
 29 28  1  0  0  0  0
 29 30  1  1  0  0  0
 31 33  1  1  0  0  0
 31 26  1  0  0  0  0
 33 32  1  1  0  0  0
 34 33  1  0  0  0  0
 35 34  1  0  0  0  0
 36 37  1  1  0  0  0
 38 36  1  0  0  0  0
 38 39  1  0  0  0  0
 41 40  2  0  0  0  0
 41 39  1  0  0  0  0
 42 48  1  1  0  0  0
 43 44  1  0  0  0  0
 44 42  1  0  0  0  0
 44 41  1  6  0  0  0
 45 53  1  6  0  0  0
 45 43  1  0  0  0  0
 45 46  1  0  0  0  0
 46 42  1  0  0  0  0
 48 49  1  0  0  0  0
 48 47  1  1  0  0  0
 50 49  1  0  0  0  0
 50 52  1  0  0  0  0
 51 50  2  0  0  0  0
 54 56  1  0  0  0  0
 56 55  1  0  0  0  0
 56 53  1  0  0  0  0
 57 58  1  0  0  0  0
 58  9  1  0  0  0  0
M  END
>  <MODEL>
6

>  <REMARK>
 VINA RESULT:      -6.1      1.245      2.028
  Name = 
  16 active torsions:
  status: ('A' for Active; 'I' for Inactive)
    1  A    between atoms: C_1  and  N_32
    2  A    between atoms: C_4  and  C_22
    3  A    between atoms: C_4  and  C_28
    4  A    between atoms: N_7  and  C_54
    5  A    between atoms: C_8  and  C_11
    6  A    between atoms: C_8  and  C_22
    7  A    between atoms: C_10  and  C_50
    8  A    between atoms: C_14  and  N_44
    9  A    between atoms: O_17  and  C_34
   10  A    between atoms: C_20  and  C_55
   11  A    between atoms: N_27  and  C_55
   12  A    between atoms: C_28  and  C_38
   13  A    between atoms: C_29  and  C_56
   14  A    between atoms: C_34  and  C_58
   15  A    between atoms: O_39  and  C_48
   16  A    between atoms: O_39  and  C_49
                            x       y       z     vdW  Elec       q    Type
                         _______ _______ _______ _____ _____    ______ ____

>  <TORSDO>
F 16

$$$$
=
 OpenBabel11042416033D

 58 62  0  0  1  0  0  0  0  0999 V2000
  189.6990  173.3170  145.7810 O   0  0  0  0  0  1  0  0  0  0  0  0
  192.6230  175.1960  144.2930 C   0  0  1  0  0  3  0  0  0  0  0  0
  190.3230  174.3790  143.7320 C   0  0  0  0  0  2  0  0  0  0  0  0
  191.8080  174.0420  143.7000 C   0  0  0  0  0  2  0  0  0  0  0  0
  190.7810  175.4150  145.9680 C   0  0  0  0  0  0  0  0  0  0  0  0
  191.9360  177.3780  148.6350 O   0  0  0  0  0  0  0  0  0  0  0  0
  191.7170  176.7070  147.5890 C   0  0  0  0  0  0  0  0  0  0  0  0
  192.0670  175.6000  145.6510 C   0  0  0  0  0  0  0  0  0  0  0  0
  192.7080  176.4390  146.6120 N   0  0  0  0  0  0  0  0  0  0  0  0
  189.8400  174.5570  145.1680 C   0  0  2  0  0  3  0  0  0  0  0  0
  190.4080  176.0890  147.2520 C   0  0  1  0  0  3  0  0  0  0  0  0
  188.2670  176.9010  146.4070 C   0  0  0  0  0  0  0  0  0  0  0  0
  189.3940  177.1600  147.0130 C   0  0  0  0  0  3  0  0  0  0  0  0
  187.1490  176.6470  145.7820 C   0  0  0  0  0  3  0  0  0  0  0  0
  185.8220  178.9860  143.1380 C   0  0  0  0  0  3  0  0  0  0  0  0
  186.8170  177.2370  144.4900 C   0  0  0  0  0  0  0  0  0  0  0  0
  186.1240  178.2670  141.9740 C   0  0  0  0  0  3  0  0  0  0  0  0
  187.1280  176.5350  143.3210 C   0  0  0  0  0  3  0  0  0  0  0  0
  186.1690  178.4740  144.3920 C   0  0  0  0  0  3  0  0  0  0  0  0
  186.7850  177.0440  142.0560 C   0  0  0  0  0  0  0  0  0  0  0  0
  187.0390  176.3030  140.8550 N   0  0  0  0  0  2  0  0  0  0  0  0
  188.2000  175.5080  140.5920 C   0  0  0  0  0  0  0  0  0  0  0  0
  188.1450  174.5330  139.5410 N   0  0  0  0  0  2  0  0  0  0  0  0
  189.2450  175.6610  141.2760 O   0  0  0  0  0  0  0  0  0  0  0  0
  189.2490  173.8290  138.9620 C   0  0  0  0  0  0  0  0  0  0  0  0
  191.8050  173.4160  139.0100 C   0  0  0  0  0  2  0  0  0  0  0  0
  189.2240  173.5870  137.6530 C   0  0  0  0  0  3  0  0  0  0  0  0
  191.6670  173.5690  137.4840 C   0  0  0  0  0  2  0  0  0  0  0  0
  190.3800  172.9190  136.9820 C   0  0  2  0  0  3  0  0  0  0  0  0
  190.2600  173.0860  135.4740 C   0  0  0  0  0  1  0  0  0  0  0  0
  190.4610  173.4250  139.7870 C   0  0  2  0  0  3  0  0  0  0  0  0
  189.1100  172.1360  141.3160 O   0  0  0  0  0  1  0  0  0  0  0  0
  190.2280  172.0880  140.4900 C   0  0  1  0  0  3  0  0  0  0  0  0
  190.0530  171.0690  139.5490 O   0  0  0  0  0  0  0  0  0  0  0  0
  191.0050  170.1160  139.8810 C   0  0  0  0  0  1  0  0  0  0  0  0
  194.1390  174.9480  144.2720 C   0  0  2  0  0  3  0  0  0  0  0  0
  194.7110  175.7880  143.3240 O   0  0  0  0  0  1  0  0  0  0  0  0
  194.5150  173.5180  143.8990 C   0  0  0  0  0  2  0  0  0  0  0  0
  195.6520  173.0160  144.7750 C   0  0  0  0  0  2  0  0  0  0  0  0
  197.5230  173.7700  143.5520 O   0  0  0  0  0  0  0  0  0  0  0  0
  196.8950  172.8040  143.9600 C   0  0  0  0  0  0  0  0  0  0  0  0
  196.3060  170.6610  142.8310 C   0  0  2  0  0  3  0  0  0  0  0  0
  197.7570  170.4980  145.1520 S   0  0  0  0  0  0  0  0  0  0  0  0
  197.3690  171.4150  143.6240 C   0  0  2  0  0  3  0  0  0  0  0  0
  196.3180  169.4190  144.9000 C   0  0  1  0  0  3  0  0  0  0  0  0
  196.1500  169.2650  143.4060 C   0  0  0  0  0  2  0  0  0  0  0  0
  197.6330  169.5980  141.0120 C   0  0  0  0  0  1  0  0  0  0  0  0
  196.5980  170.6600  141.3320 C   0  0  2  0  0  3  0  0  0  0  0  0
  197.0750  171.9580  140.8820 N   0  0  0  0  0  2  0  0  0  0  0  0
  196.2510  172.8710  140.1580 C   0  0  0  0  0  0  0  0  0  0  0  0
  195.0670  172.5670  139.8500 O   0  0  0  0  0  0  0  0  0  0  0  0
  196.8030  174.1880  139.7590 C   0  0  0  0  0  1  0  0  0  0  0  0
  196.5390  168.1750  145.5020 O   0  0  0  0  0  0  0  0  0  0  0  0
  194.8100  169.3900  146.5990 C   0  0  0  0  0  1  0  0  0  0  0  0
  196.5630  168.2050  147.8850 C   0  0  0  0  0  1  0  0  0  0  0  0
  195.7180  168.1690  146.6270 C   0  0  0  0  0  3  0  0  0  0  0  0
  194.6650  177.6270  146.1930 O   0  0  0  0  0  1  0  0  0  0  0  0
  194.1330  176.5430  146.8800 C   0  0  0  0  0  2  0  0  0  0  0  0
  2 36  1  1  0  0  0
  2  8  1  0  0  0  0
  3 10  1  0  0  0  0
  4  3  1  0  0  0  0
  4  2  1  0  0  0  0
  5 11  1  0  0  0  0
  7  6  2  0  0  0  0
  8  5  2  0  0  0  0
  8  9  1  0  0  0  0
  9 58  1  0  0  0  0
  9  7  1  0  0  0  0
 10  1  1  1  0  0  0
 10  5  1  0  0  0  0
 11 13  1  6  0  0  0
 11  7  1  0  0  0  0
 12 13  2  0  0  0  0
 14 12  2  0  0  0  0
 15 19  1  0  0  0  0
 16 14  1  0  0  0  0
 17 20  1  0  0  0  0
 17 15  2  0  0  0  0
 18 16  1  0  0  0  0
 19 16  2  0  0  0  0
 20 18  2  0  0  0  0
 21 20  1  0  0  0  0
 22 21  1  0  0  0  0
 22 24  2  0  0  0  0
 23 22  1  0  0  0  0
 25 23  1  0  0  0  0
 25 31  1  0  0  0  0
 26 31  1  0  0  0  0
 27 25  2  0  0  0  0
 28 26  1  0  0  0  0
 29 30  1  6  0  0  0
 29 28  1  0  0  0  0
 29 27  1  0  0  0  0
 31 33  1  6  0  0  0
 33 32  1  6  0  0  0
 34 35  1  0  0  0  0
 34 33  1  0  0  0  0
 36 37  1  6  0  0  0
 38 36  1  0  0  0  0
 38 39  1  0  0  0  0
 40 41  2  0  0  0  0
 41 39  1  0  0  0  0
 42 48  1  6  0  0  0
 42 46  1  0  0  0  0
 42 44  1  0  0  0  0
 44 41  1  1  0  0  0
 44 43  1  0  0  0  0
 45 43  1  0  0  0  0
 45 53  1  1  0  0  0
 46 45  1  0  0  0  0
 48 47  1  1  0  0  0
 49 48  1  0  0  0  0
 50 49  1  0  0  0  0
 51 50  2  0  0  0  0
 52 50  1  0  0  0  0
 53 56  1  0  0  0  0
 54 56  1  0  0  0  0
 56 55  1  0  0  0  0
 57 58  1  0  0  0  0
M  END
>  <MODEL>
7

>  <REMARK>
 VINA RESULT:      -6.1      2.447      7.311
  Name = 
  16 active torsions:
  status: ('A' for Active; 'I' for Inactive)
    1  A    between atoms: C_1  and  N_32
    2  A    between atoms: C_4  and  C_22
    3  A    between atoms: C_4  and  C_28
    4  A    between atoms: N_7  and  C_54
    5  A    between atoms: C_8  and  C_11
    6  A    between atoms: C_8  and  C_22
    7  A    between atoms: C_10  and  C_50
    8  A    between atoms: C_14  and  N_44
    9  A    between atoms: O_17  and  C_34
   10  A    between atoms: C_20  and  C_55
   11  A    between atoms: N_27  and  C_55
   12  A    between atoms: C_28  and  C_38
   13  A    between atoms: C_29  and  C_56
   14  A    between atoms: C_34  and  C_58
   15  A    between atoms: O_39  and  C_48
   16  A    between atoms: O_39  and  C_49
                            x       y       z     vdW  Elec       q    Type
                         _______ _______ _______ _____ _____    ______ ____

>  <TORSDO>
F 16

$$$$
=
 OpenBabel11042416033D

 58 62  0  0  1  0  0  0  0  0999 V2000
  190.8730  176.0010  146.8490 O   0  0  0  0  0  1  0  0  0  0  0  0
  190.3450  175.1520  143.2030 C   0  0  1  0  0  3  0  0  0  0  0  0
  191.0590  177.0300  144.6990 C   0  0  0  0  0  2  0  0  0  0  0  0
  189.8760  176.3790  143.9910 C   0  0  0  0  0  2  0  0  0  0  0  0
  191.8600  174.6950  145.1370 C   0  0  0  0  0  0  0  0  0  0  0  0
  193.0060  171.3900  144.8920 O   0  0  0  0  0  0  0  0  0  0  0  0
  192.4890  172.5370  144.7940 C   0  0  0  0  0  0  0  0  0  0  0  0
  191.1710  174.2310  144.0900 C   0  0  0  0  0  0  0  0  0  0  0  0
  191.5480  172.8860  143.7940 N   0  0  0  0  0  0  0  0  0  0  0  0
  191.6740  176.0720  145.7140 C   0  0  2  0  0  3  0  0  0  0  0  0
  192.7740  173.6630  145.7220 C   0  0  1  0  0  3  0  0  0  0  0  0
  194.5550  175.0070  144.7320 C   0  0  0  0  0  0  0  0  0  0  0  0
  194.2020  174.0800  145.5810 C   0  0  0  0  0  3  0  0  0  0  0  0
  194.9120  175.9190  143.8670 C   0  0  0  0  0  3  0  0  0  0  0  0
  197.9330  175.7040  141.6210 C   0  0  0  0  0  3  0  0  0  0  0  0
  195.7790  175.6300  142.7310 C   0  0  0  0  0  0  0  0  0  0  0  0
  197.3680  175.1330  140.4730 C   0  0  0  0  0  3  0  0  0  0  0  0
  195.2290  175.0460  141.5860 C   0  0  0  0  0  3  0  0  0  0  0  0
  197.1410  175.9500  142.7470 C   0  0  0  0  0  3  0  0  0  0  0  0
  196.0170  174.7930  140.4500 C   0  0  0  0  0  0  0  0  0  0  0  0
  195.4510  174.2560  139.2470 N   0  0  0  0  0  2  0  0  0  0  0  0
  194.4250  173.2600  139.1770 C   0  0  0  0  0  0  0  0  0  0  0  0
  193.6960  173.1050  137.9520 N   0  0  0  0  0  2  0  0  0  0  0  0
  194.1660  172.5410  140.1770 O   0  0  0  0  0  0  0  0  0  0  0  0
  192.8250  172.0240  137.5990 C   0  0  0  0  0  0  0  0  0  0  0  0
  190.7210  170.6570  138.2360 C   0  0  0  0  0  2  0  0  0  0  0  0
  193.3570  170.9530  137.0150 C   0  0  0  0  0  3  0  0  0  0  0  0
  191.6290  169.4600  137.8970 C   0  0  0  0  0  2  0  0  0  0  0  0
  192.5100  169.7660  136.6890 C   0  0  2  0  0  3  0  0  0  0  0  0
  193.4020  168.5740  136.3740 C   0  0  0  0  0  1  0  0  0  0  0  0
  191.3430  172.0480  137.9390 C   0  0  2  0  0  3  0  0  0  0  0  0
  189.3900  172.0890  136.5220 O   0  0  0  0  0  1  0  0  0  0  0  0
  190.5430  172.7860  136.8660 C   0  0  1  0  0  3  0  0  0  0  0  0
  190.1850  174.0600  137.3180 O   0  0  0  0  0  0  0  0  0  0  0  0
  188.8200  174.1440  137.0870 C   0  0  0  0  0  1  0  0  0  0  0  0
  189.2150  174.4520  142.4330 C   0  0  2  0  0  3  0  0  0  0  0  0
  189.4110  174.6610  141.0730 O   0  0  0  0  0  1  0  0  0  0  0  0
  187.8270  174.9790  142.7800 C   0  0  0  0  0  2  0  0  0  0  0  0
  187.3560  175.9770  141.7350 C   0  0  0  0  0  2  0  0  0  0  0  0
  187.4480  178.2680  142.2890 O   0  0  0  0  0  0  0  0  0  0  0  0
  186.8270  177.2210  142.3900 C   0  0  0  0  0  0  0  0  0  0  0  0
  184.6980  178.4190  142.8840 C   0  0  2  0  0  3  0  0  0  0  0  0
  185.9190  177.1230  144.9690 S   0  0  0  0  0  0  0  0  0  0  0  0
  185.5480  177.1890  143.1840 C   0  0  2  0  0  3  0  0  0  0  0  0
  185.3060  178.8190  145.1840 C   0  0  1  0  0  3  0  0  0  0  0  0
  184.1850  179.0020  144.1880 C   0  0  0  0  0  2  0  0  0  0  0  0
  183.9530  178.6600  140.5190 C   0  0  0  0  0  1  0  0  0  0  0  0
  183.5810  178.1170  141.8850 C   0  0  2  0  0  3  0  0  0  0  0  0
  182.3160  178.6930  142.3140 N   0  0  0  0  0  2  0  0  0  0  0  0
  181.1150  178.5610  141.5560 C   0  0  0  0  0  0  0  0  0  0  0  0
  181.1120  177.9550  140.4500 O   0  0  0  0  0  0  0  0  0  0  0  0
  179.8590  179.1550  142.0750 C   0  0  0  0  0  1  0  0  0  0  0  0
  184.8370  178.9990  146.4910 O   0  0  0  0  0  0  0  0  0  0  0  0
  185.3900  177.6770  148.3920 C   0  0  0  0  0  1  0  0  0  0  0  0
  186.5180  179.8380  147.9580 C   0  0  0  0  0  1  0  0  0  0  0  0
  185.8990  178.6160  147.3090 C   0  0  0  0  0  3  0  0  0  0  0  0
  191.3380  171.7320  141.7840 O   0  0  0  0  0  1  0  0  0  0  0  0
  190.7840  171.9010  143.0470 C   0  0  0  0  0  2  0  0  0  0  0  0
  2 36  1  1  0  0  0
  2  4  1  0  0  0  0
  2  8  1  0  0  0  0
  3 10  1  0  0  0  0
  4  3  1  0  0  0  0
  5 10  1  0  0  0  0
  5 11  1  0  0  0  0
  7  6  2  0  0  0  0
  7 11  1  0  0  0  0
  8  5  2  0  0  0  0
  9  8  1  0  0  0  0
  9  7  1  0  0  0  0
 10  1  1  1  0  0  0
 11 13  1  6  0  0  0
 12 13  2  0  0  0  0
 14 12  2  0  0  0  0
 15 19  1  0  0  0  0
 16 19  2  0  0  0  0
 16 14  1  0  0  0  0
 17 15  2  0  0  0  0
 18 16  1  0  0  0  0
 20 17  1  0  0  0  0
 20 18  2  0  0  0  0
 21 20  1  0  0  0  0
 22 21  1  0  0  0  0
 22 24  2  0  0  0  0
 23 22  1  0  0  0  0
 25 31  1  0  0  0  0
 25 23  1  0  0  0  0
 27 25  2  0  0  0  0
 28 26  1  0  0  0  0
 29 30  1  1  0  0  0
 29 27  1  0  0  0  0
 29 28  1  0  0  0  0
 31 33  1  6  0  0  0
 31 26  1  0  0  0  0
 33 32  1  1  0  0  0
 33 34  1  0  0  0  0
 35 34  1  0  0  0  0
 36 37  1  6  0  0  0
 36 38  1  0  0  0  0
 39 41  1  0  0  0  0
 39 38  1  0  0  0  0
 40 41  2  0  0  0  0
 42 48  1  6  0  0  0
 42 44  1  0  0  0  0
 42 46  1  0  0  0  0
 43 45  1  0  0  0  0
 44 41  1  6  0  0  0
 44 43  1  0  0  0  0
 45 53  1  1  0  0  0
 46 45  1  0  0  0  0
 48 47  1  6  0  0  0
 48 49  1  0  0  0  0
 50 52  1  0  0  0  0
 50 49  1  0  0  0  0
 51 50  2  0  0  0  0
 53 56  1  0  0  0  0
 56 55  1  0  0  0  0
 56 54  1  0  0  0  0
 57 58  1  0  0  0  0
 58  9  1  0  0  0  0
M  END
>  <MODEL>
8

>  <REMARK>
 VINA RESULT:      -6.0      3.290     10.372
  Name = 
  16 active torsions:
  status: ('A' for Active; 'I' for Inactive)
    1  A    between atoms: C_1  and  N_32
    2  A    between atoms: C_4  and  C_22
    3  A    between atoms: C_4  and  C_28
    4  A    between atoms: N_7  and  C_54
    5  A    between atoms: C_8  and  C_11
    6  A    between atoms: C_8  and  C_22
    7  A    between atoms: C_10  and  C_50
    8  A    between atoms: C_14  and  N_44
    9  A    between atoms: O_17  and  C_34
   10  A    between atoms: C_20  and  C_55
   11  A    between atoms: N_27  and  C_55
   12  A    between atoms: C_28  and  C_38
   13  A    between atoms: C_29  and  C_56
   14  A    between atoms: C_34  and  C_58
   15  A    between atoms: O_39  and  C_48
   16  A    between atoms: O_39  and  C_49
                            x       y       z     vdW  Elec       q    Type
                         _______ _______ _______ _____ _____    ______ ____

>  <TORSDO>
F 16

$$$$
=
 OpenBabel11042416033D

 58 62  0  0  1  0  0  0  0  0999 V2000
  189.7400  176.7780  141.8970 O   0  0  0  0  0  1  0  0  0  0  0  0
  188.2820  174.1750  139.5750 C   0  0  1  0  0  3  0  0  0  0  0  0
  189.1110  174.4720  141.9200 C   0  0  0  0  0  2  0  0  0  0  0  0
  189.5000  174.0780  140.5000 C   0  0  0  0  0  2  0  0  0  0  0  0
  187.6830  176.2360  140.8550 C   0  0  0  0  0  0  0  0  0  0  0  0
  185.2890  178.0250  139.0200 O   0  0  0  0  0  0  0  0  0  0  0  0
  186.1390  177.2370  139.5180 C   0  0  0  0  0  0  0  0  0  0  0  0
  187.6070  175.5320  139.7210 C   0  0  0  0  0  0  0  0  0  0  0  0
  186.6230  176.0860  138.8480 N   0  0  0  0  0  0  0  0  0  0  0  0
  188.6450  175.9240  141.9680 C   0  0  2  0  0  3  0  0  0  0  0  0
  186.7640  177.4190  140.8550 C   0  0  1  0  0  3  0  0  0  0  0  0
  185.6310  178.1470  142.8900 C   0  0  0  0  0  0  0  0  0  0  0  0
  185.7240  177.2800  141.9180 C   0  0  0  0  0  3  0  0  0  0  0  0
  185.5520  179.0020  143.8750 C   0  0  0  0  0  3  0  0  0  0  0  0
  185.1880  178.6410  147.6110 C   0  0  0  0  0  3  0  0  0  0  0  0
  185.7930  178.6270  145.2640 C   0  0  0  0  0  0  0  0  0  0  0  0
  186.3690  177.9580  147.9270 C   0  0  0  0  0  3  0  0  0  0  0  0
  186.9630  177.9320  145.5880 C   0  0  0  0  0  3  0  0  0  0  0  0
  184.8990  178.9730  146.2840 C   0  0  0  0  0  3  0  0  0  0  0  0
  187.2590  177.5920  146.9190 C   0  0  0  0  0  0  0  0  0  0  0  0
  188.4860  176.9380  147.2720 N   0  0  0  0  0  2  0  0  0  0  0  0
  189.6070  176.7390  146.4050 C   0  0  0  0  0  0  0  0  0  0  0  0
  190.8820  176.4300  146.9850 N   0  0  0  0  0  2  0  0  0  0  0  0
  189.4730  176.8390  145.1580 O   0  0  0  0  0  0  0  0  0  0  0  0
  192.0460  175.9540  146.3010 C   0  0  0  0  0  0  0  0  0  0  0  0
  193.7070  173.9940  145.9810 C   0  0  0  0  0  2  0  0  0  0  0  0
  193.0060  176.8290  146.0090 C   0  0  0  0  0  3  0  0  0  0  0  0
  194.7560  175.1180  146.0730 C   0  0  0  0  0  2  0  0  0  0  0  0
  194.2740  176.3780  145.3590 C   0  0  2  0  0  3  0  0  0  0  0  0
  195.3200  177.4760  145.4660 C   0  0  0  0  0  1  0  0  0  0  0  0
  192.2330  174.4810  145.9700 C   0  0  2  0  0  3  0  0  0  0  0  0
  192.3580  174.4160  143.5610 O   0  0  0  0  0  1  0  0  0  0  0  0
  191.5480  174.1200  144.6520 C   0  0  1  0  0  3  0  0  0  0  0  0
  191.2320  172.7580  144.6270 O   0  0  0  0  0  0  0  0  0  0  0  0
  191.8500  172.2750  143.4830 C   0  0  0  0  0  1  0  0  0  0  0  0
  188.5820  173.7660  138.1250 C   0  0  2  0  0  3  0  0  0  0  0  0
  188.4510  172.3860  138.0200 O   0  0  0  0  0  1  0  0  0  0  0  0
  189.9940  174.1240  137.6720 C   0  0  0  0  0  2  0  0  0  0  0  0
  190.5520  173.0510  136.7530 C   0  0  0  0  0  2  0  0  0  0  0  0
  191.8310  171.5770  138.0780 O   0  0  0  0  0  0  0  0  0  0  0  0
  191.8460  172.5120  137.2910 C   0  0  0  0  0  0  0  0  0  0  0  0
  193.4760  174.3420  137.7440 C   0  0  2  0  0  3  0  0  0  0  0  0
  193.1150  173.6050  135.1280 S   0  0  0  0  0  0  0  0  0  0  0  0
  193.1620  173.1210  136.8860 C   0  0  2  0  0  3  0  0  0  0  0  0
  193.1270  175.3630  135.5850 C   0  0  1  0  0  3  0  0  0  0  0  0
  193.9480  175.4740  136.8490 C   0  0  0  0  0  2  0  0  0  0  0  0
  193.7350  174.0080  140.1990 C   0  0  0  0  0  1  0  0  0  0  0  0
  194.4610  174.0200  138.8670 C   0  0  2  0  0  3  0  0  0  0  0  0
  195.5500  174.9830  138.9110 N   0  0  0  0  0  2  0  0  0  0  0  0
  196.8640  174.6380  139.3450 C   0  0  0  0  0  0  0  0  0  0  0  0
  197.1280  173.4700  139.7410 O   0  0  0  0  0  0  0  0  0  0  0  0
  197.9270  175.6720  139.3350 C   0  0  0  0  0  1  0  0  0  0  0  0
  193.6990  176.1220  134.5590 O   0  0  0  0  0  0  0  0  0  0  0  0
  193.2470  178.4350  134.9010 C   0  0  0  0  0  1  0  0  0  0  0  0
  195.5660  177.6000  134.6630 C   0  0  0  0  0  1  0  0  0  0  0  0
  194.1820  177.2690  135.1860 C   0  0  0  0  0  3  0  0  0  0  0  0
  187.3260  176.8310  136.7590 O   0  0  0  0  0  1  0  0  0  0  0  0
  186.5200  175.9050  137.4100 C   0  0  0  0  0  2  0  0  0  0  0  0
  2 36  1  6  0  0  0
  2  8  1  0  0  0  0
  2  4  1  0  0  0  0
  3 10  1  0  0  0  0
  4  3  1  0  0  0  0
  5 10  1  0  0  0  0
  6  7  2  0  0  0  0
  7 11  1  0  0  0  0
  8  5  2  0  0  0  0
  9  7  1  0  0  0  0
  9  8  1  0  0  0  0
 10  1  1  6  0  0  0
 11  5  1  0  0  0  0
 11 13  1  1  0  0  0
 12 14  2  0  0  0  0
 13 12  2  0  0  0  0
 14 16  1  0  0  0  0
 15 17  1  0  0  0  0
 16 18  2  0  0  0  0
 16 19  1  0  0  0  0
 18 20  1  0  0  0  0
 19 15  2  0  0  0  0
 20 21  1  0  0  0  0
 20 17  2  0  0  0  0
 22 23  1  0  0  0  0
 22 21  1  0  0  0  0
 24 22  2  0  0  0  0
 25 23  1  0  0  0  0
 26 28  1  0  0  0  0
 27 25  2  0  0  0  0
 29 30  1  1  0  0  0
 29 27  1  0  0  0  0
 29 28  1  0  0  0  0
 31 33  1  6  0  0  0
 31 26  1  0  0  0  0
 31 25  1  0  0  0  0
 33 32  1  6  0  0  0
 34 33  1  0  0  0  0
 35 34  1  0  0  0  0
 36 37  1  1  0  0  0
 38 36  1  0  0  0  0
 39 41  1  0  0  0  0
 39 38  1  0  0  0  0
 41 40  2  0  0  0  0
 42 48  1  1  0  0  0
 43 45  1  0  0  0  0
 43 44  1  0  0  0  0
 44 41  1  1  0  0  0
 44 42  1  0  0  0  0
 45 53  1  6  0  0  0
 45 46  1  0  0  0  0
 46 42  1  0  0  0  0
 48 49  1  0  0  0  0
 48 47  1  1  0  0  0
 49 50  1  0  0  0  0
 50 51  2  0  0  0  0
 52 50  1  0  0  0  0
 53 56  1  0  0  0  0
 54 56  1  0  0  0  0
 55 56  1  0  0  0  0
 57 58  1  0  0  0  0
 58  9  1  0  0  0  0
M  END
>  <MODEL>
9

>  <REMARK>
 VINA RESULT:      -5.9      2.998      7.534
  Name = 
  16 active torsions:
  status: ('A' for Active; 'I' for Inactive)
    1  A    between atoms: C_1  and  N_32
    2  A    between atoms: C_4  and  C_22
    3  A    between atoms: C_4  and  C_28
    4  A    between atoms: N_7  and  C_54
    5  A    between atoms: C_8  and  C_11
    6  A    between atoms: C_8  and  C_22
    7  A    between atoms: C_10  and  C_50
    8  A    between atoms: C_14  and  N_44
    9  A    between atoms: O_17  and  C_34
   10  A    between atoms: C_20  and  C_55
   11  A    between atoms: N_27  and  C_55
   12  A    between atoms: C_28  and  C_38
   13  A    between atoms: C_29  and  C_56
   14  A    between atoms: C_34  and  C_58
   15  A    between atoms: O_39  and  C_48
   16  A    between atoms: O_39  and  C_49
                            x       y       z     vdW  Elec       q    Type
                         _______ _______ _______ _____ _____    ______ ____

>  <TORSDO>
F 16

$$$$
