=
 OpenBabel11042414223D

 27 31  0  0  1  0  0  0  0  0999 V2000
  193.4980  175.7560  142.7170 N   0  0  0  0  0  0  0  0  0  0  0  0
  192.9730  176.1050  145.0320 C   0  0  0  0  0  0  0  0  0  0  0  0
  193.8700  175.8850  144.0240 C   0  0  0  0  0  0  0  0  0  0  0  0
  190.5390  176.4550  145.5700 N   0  0  0  0  0  2  0  0  0  0  0  0
  191.2240  176.0610  143.4050 C   0  0  0  0  0  0  0  0  0  0  0  0
  193.7100  176.2240  146.3200 C   0  0  0  0  0  2  0  0  0  0  0  0
  195.1100  176.0420  145.9030 N   0  0  0  0  0  0  0  0  0  0  0  0
  189.7380  176.2070  143.3330 C   0  0  2  0  0  3  0  0  0  0  0  0
  196.4620  175.6420  143.8950 C   0  0  0  0  0  1  0  0  0  0  0  0
  192.1690  175.8430  142.3840 C   0  0  0  0  0  3  0  0  0  0  0  0
  191.6280  176.1930  144.7130 C   0  0  0  0  0  0  0  0  0  0  0  0
  189.4030  176.4860  144.7430 N   0  0  0  0  0  0  0  0  0  0  0  0
  195.1810  175.8540  144.6210 C   0  0  0  0  0  0  0  0  0  0  0  0
  185.6290  177.7900  146.1800 C   0  0  0  0  0  0  0  0  0  0  0  0
  187.5890  176.3850  146.3990 C   0  0  0  0  0  3  0  0  0  0  0  0
  186.3480  176.8150  146.8770 C   0  0  0  0  0  3  0  0  0  0  0  0
  188.1240  176.9280  145.2210 C   0  0  0  0  0  0  0  0  0  0  0  0
  186.1610  178.3470  145.0130 C   0  0  0  0  0  3  0  0  0  0  0  0
  187.4030  177.9160  144.5360 C   0  0  0  0  0  3  0  0  0  0  0  0
  184.3200  178.2650  146.7010 C   0  0  0  0  0  2  0  0  0  0  0  0
  183.6630  179.0090  145.7200 O   0  0  0  0  0  1  0  0  0  0  0  0
  189.1130  174.8830  142.9050 C   0  0  1  0  0  3  0  0  0  0  0  0
  187.7050  175.1120  142.3930 C   0  0  0  0  0  2  0  0  0  0  0  0
  188.8380  174.9060  141.4120 C   0  0  2  0  0  3  0  0  0  0  0  0
  188.2170  174.1600  138.7050 N   0  0  0  0  0  2  0  0  0  0  0  0
  188.4880  173.2270  139.5580 C   0  0  0  0  0  3  0  0  0  0  0  0
  188.8030  173.5400  140.9160 N   0  0  0  0  0  2  0  0  0  0  0  0
  1  3  1  0  0  0  0
  2  6  1  0  0  0  0
  3 13  1  0  0  0  0
  3  2  2  0  0  0  0
  5 11  2  0  0  0  0
  7  6  1  0  0  0  0
  8  5  1  1  0  0  0
  8 12  1  0  0  0  0
  9 13  1  0  0  0  0
 10  1  2  0  0  0  0
 10  5  1  0  0  0  0
 11  2  1  0  0  0  0
 11  4  1  0  0  0  0
 12 17  1  0  0  0  0
 12  4  1  0  0  0  0
 13  7  2  0  0  0  0
 14 20  1  0  0  0  0
 14 16  1  0  0  0  0
 15 16  2  0  0  0  0
 17 15  1  0  0  0  0
 18 14  2  0  0  0  0
 19 18  1  0  0  0  0
 19 17  2  0  0  0  0
 21 20  1  0  0  0  0
 22 23  1  1  0  0  0
 22  8  1  0  0  0  0
 24 27  1  1  0  0  0
 24 23  1  0  0  0  0
 24 22  1  0  0  0  0
 25 26  2  0  0  0  0
 26 27  1  0  0  0  0
M  END
>  <MODEL>
1

>  <REMARK>
 VINA RESULT:      -7.4      0.000      0.000
  Name = 
  4 active torsions:
  status: ('A' for Active; 'I' for Inactive)
    1  A    between atoms: C_2  and  C_4
    2  A    between atoms: C_6  and  C_14
    3  A    between atoms: N_18  and  C_25
    4  A    between atoms: C_21  and  N_26
                            x       y       z     vdW  Elec       q    Type
                         _______ _______ _______ _____ _____    ______ ____

>  <TORSDO>
F 4

$$$$
=
 OpenBabel11042414223D

 27 31  0  0  1  0  0  0  0  0999 V2000
  191.3860  172.4010  141.6250 N   0  0  0  0  0  0  0  0  0  0  0  0
  189.2750  173.2520  140.8670 C   0  0  0  0  0  0  0  0  0  0  0  0
  190.3490  172.4170  140.7360 C   0  0  0  0  0  0  0  0  0  0  0  0
  188.2270  175.0370  142.3000 N   0  0  0  0  0  2  0  0  0  0  0  0
  190.2750  174.1340  142.8480 C   0  0  0  0  0  0  0  0  0  0  0  0
  188.3210  172.9940  139.7530 C   0  0  0  0  0  3  0  0  0  0  0  0
  188.9970  171.9250  138.9980 N   0  0  0  0  0  0  0  0  0  0  0  0
  189.9900  175.1490  143.9080 C   0  0  2  0  0  3  0  0  0  0  0  0
  191.0390  170.5670  139.0360 C   0  0  0  0  0  1  0  0  0  0  0  0
  191.3670  173.2570  142.6960 C   0  0  0  0  0  2  0  0  0  0  0  0
  189.2410  174.1250  141.9420 C   0  0  0  0  0  0  0  0  0  0  0  0
  188.6620  175.6400  143.4920 N   0  0  0  0  0  0  0  0  0  0  0  0
  190.1250  171.6160  139.5600 C   0  0  0  0  0  0  0  0  0  0  0  0
  186.1110  178.1320  145.7940 C   0  0  0  0  0  0  0  0  0  0  0  0
  187.1760  177.5890  143.6880 C   0  0  0  0  0  3  0  0  0  0  0  0
  186.3320  178.4100  144.4420 C   0  0  0  0  0  3  0  0  0  0  0  0
  187.8040  176.4820  144.2770 C   0  0  0  0  0  0  0  0  0  0  0  0
  186.7210  177.0220  146.3860 C   0  0  0  0  0  3  0  0  0  0  0  0
  187.5650  176.2010  145.6310 C   0  0  0  0  0  3  0  0  0  0  0  0
  185.1950  178.9900  146.5910 C   0  0  0  0  0  2  0  0  0  0  0  0
  183.9190  178.9670  146.0300 O   0  0  0  0  0  1  0  0  0  0  0  0
  191.0100  176.2810  143.8220 C   0  0  1  0  0  3  0  0  0  0  0  0
  190.9250  177.1540  145.0590 C   0  0  0  0  0  2  0  0  0  0  0  0
  192.0330  176.1320  144.9340 C   0  0  2  0  0  3  0  0  0  0  0  0
  194.1710  176.8310  146.7270 N   0  0  0  0  0  2  0  0  0  0  0  0
  194.2930  177.1230  145.4740 C   0  0  0  0  0  3  0  0  0  0  0  0
  193.2630  176.7990  144.5380 N   0  0  0  0  0  2  0  0  0  0  0  0
  1 10  1  0  0  0  0
  2 11  1  0  0  0  0
  3  2  1  0  0  0  0
  3  1  2  0  0  0  0
  4 12  1  0  0  0  0
  6  2  2  0  0  0  0
  7 13  2  0  0  0  0
  7  6  1  0  0  0  0
  8  5  1  6  0  0  0
  9 13  1  0  0  0  0
 10  5  1  0  0  0  0
 11  4  1  0  0  0  0
 11  5  2  0  0  0  0
 12  8  1  0  0  0  0
 12 17  1  0  0  0  0
 13  3  1  0  0  0  0
 14 18  1  0  0  0  0
 14 20  1  0  0  0  0
 15 17  2  0  0  0  0
 15 16  1  0  0  0  0
 16 14  2  0  0  0  0
 17 19  1  0  0  0  0
 19 18  2  0  0  0  0
 21 20  1  0  0  0  0
 22  8  1  0  0  0  0
 22 24  1  0  0  0  0
 22 23  1  1  0  0  0
 24 27  1  6  0  0  0
 24 23  1  0  0  0  0
 26 25  2  0  0  0  0
 27 26  1  0  0  0  0
M  END
>  <MODEL>
2

>  <REMARK>
 VINA RESULT:      -6.7      1.683      5.414
  Name = 
  4 active torsions:
  status: ('A' for Active; 'I' for Inactive)
    1  A    between atoms: C_2  and  C_4
    2  A    between atoms: C_6  and  C_14
    3  A    between atoms: N_18  and  C_25
    4  A    between atoms: C_21  and  N_26
                            x       y       z     vdW  Elec       q    Type
                         _______ _______ _______ _____ _____    ______ ____

>  <TORSDO>
F 4

$$$$
=
 OpenBabel11042414223D

 27 31  0  0  1  0  0  0  0  0999 V2000
  190.9460  172.7200  140.6690 N   0  0  0  0  0  0  0  0  0  0  0  0
  189.0570  173.7890  139.6470 C   0  0  0  0  0  0  0  0  0  0  0  0
  190.0710  172.8730  139.6320 C   0  0  0  0  0  0  0  0  0  0  0  0
  187.9320  175.5810  141.0130 N   0  0  0  0  0  2  0  0  0  0  0  0
  189.7890  174.4760  141.8150 C   0  0  0  0  0  0  0  0  0  0  0  0
  188.2790  173.6730  138.3830 C   0  0  0  0  0  3  0  0  0  0  0  0
  188.9830  172.5910  137.6750 N   0  0  0  0  0  0  0  0  0  0  0  0
  189.4150  175.4560  142.8810 C   0  0  2  0  0  3  0  0  0  0  0  0
  190.8820  171.0610  137.9430 C   0  0  0  0  0  1  0  0  0  0  0  0
  190.8210  173.5180  141.7780 C   0  0  0  0  0  2  0  0  0  0  0  0
  188.9180  174.6050  140.7590 C   0  0  0  0  0  0  0  0  0  0  0  0
  188.2140  176.0800  142.2960 N   0  0  0  0  0  0  0  0  0  0  0  0
  189.9790  172.1570  138.3850 C   0  0  0  0  0  0  0  0  0  0  0  0
  185.5460  178.6480  144.3690 C   0  0  0  0  0  0  0  0  0  0  0  0
  186.7410  176.5480  144.2080 C   0  0  0  0  0  3  0  0  0  0  0  0
  185.8650  177.3930  144.8960 C   0  0  0  0  0  3  0  0  0  0  0  0
  187.3080  176.9510  142.9900 C   0  0  0  0  0  0  0  0  0  0  0  0
  186.1170  179.0630  143.1620 C   0  0  0  0  0  3  0  0  0  0  0  0
  186.9940  178.2180  142.4760 C   0  0  0  0  0  3  0  0  0  0  0  0
  184.6320  179.5570  145.1110 C   0  0  0  0  0  2  0  0  0  0  0  0
  183.6950  178.8080  145.8210 O   0  0  0  0  0  1  0  0  0  0  0  0
  190.5200  176.4970  143.0300 C   0  0  1  0  0  3  0  0  0  0  0  0
  190.3160  177.2960  144.3030 C   0  0  0  0  0  2  0  0  0  0  0  0
  191.3490  176.1910  144.2650 C   0  0  2  0  0  3  0  0  0  0  0  0
  193.2650  176.5190  146.3850 N   0  0  0  0  0  2  0  0  0  0  0  0
  193.5840  176.9110  145.1950 C   0  0  0  0  0  3  0  0  0  0  0  0
  192.6710  176.7730  144.1050 N   0  0  0  0  0  2  0  0  0  0  0  0
  1 10  1  0  0  0  0
  2 11  1  0  0  0  0
  3  2  1  0  0  0  0
  3  1  2  0  0  0  0
  4 12  1  0  0  0  0
  6  2  2  0  0  0  0
  7  6  1  0  0  0  0
  7 13  2  0  0  0  0
  8  5  1  6  0  0  0
  8 22  1  0  0  0  0
  9 13  1  0  0  0  0
 10  5  1  0  0  0  0
 11  4  1  0  0  0  0
 11  5  2  0  0  0  0
 12  8  1  0  0  0  0
 12 17  1  0  0  0  0
 13  3  1  0  0  0  0
 14 16  1  0  0  0  0
 14 20  1  0  0  0  0
 15 16  2  0  0  0  0
 17 15  1  0  0  0  0
 18 14  2  0  0  0  0
 19 17  2  0  0  0  0
 19 18  1  0  0  0  0
 20 21  1  0  0  0  0
 22 24  1  0  0  0  0
 22 23  1  1  0  0  0
 24 27  1  6  0  0  0
 24 23  1  0  0  0  0
 26 25  2  0  0  0  0
 27 26  1  0  0  0  0
M  END
>  <MODEL>
3

>  <REMARK>
 VINA RESULT:      -6.6      1.773      5.571
  Name = 
  4 active torsions:
  status: ('A' for Active; 'I' for Inactive)
    1  A    between atoms: C_2  and  C_4
    2  A    between atoms: C_6  and  C_14
    3  A    between atoms: N_18  and  C_25
    4  A    between atoms: C_21  and  N_26
                            x       y       z     vdW  Elec       q    Type
                         _______ _______ _______ _____ _____    ______ ____

>  <TORSDO>
F 4

$$$$
=
 OpenBabel11042414223D

 27 31  0  0  1  0  0  0  0  0999 V2000
  185.8140  178.5970  142.8930 N   0  0  0  0  0  0  0  0  0  0  0  0
  187.1370  177.2220  141.4390 C   0  0  0  0  0  0  0  0  0  0  0  0
  186.0250  177.9730  141.6970 C   0  0  0  0  0  0  0  0  0  0  0  0
  189.3180  176.3950  142.3870 N   0  0  0  0  0  2  0  0  0  0  0  0
  187.8950  177.6910  143.6550 C   0  0  0  0  0  0  0  0  0  0  0  0
  187.0660  176.7130  140.0410 C   0  0  0  0  0  3  0  0  0  0  0  0
  185.7890  177.2710  139.5650 N   0  0  0  0  0  0  0  0  0  0  0  0
  189.0610  177.3920  144.5430 C   0  0  2  0  0  3  0  0  0  0  0  0
  183.9200  178.6660  140.3250 C   0  0  0  0  0  1  0  0  0  0  0  0
  186.7440  178.4680  143.8930 C   0  0  0  0  0  2  0  0  0  0  0  0
  188.0860  177.0790  142.4390 C   0  0  0  0  0  0  0  0  0  0  0  0
  189.9170  176.5970  143.6420 N   0  0  0  0  0  0  0  0  0  0  0  0
  185.2230  177.9700  140.5000 C   0  0  0  0  0  0  0  0  0  0  0  0
  193.9390  175.5010  144.4420 C   0  0  0  0  0  0  0  0  0  0  0  0
  192.1650  177.1500  144.4720 C   0  0  0  0  0  3  0  0  0  0  0  0
  193.4890  176.7910  144.7400 C   0  0  0  0  0  3  0  0  0  0  0  0
  191.2780  176.2220  143.9060 C   0  0  0  0  0  0  0  0  0  0  0  0
  193.0570  174.5670  143.8900 C   0  0  0  0  0  3  0  0  0  0  0  0
  191.7330  174.9260  143.6230 C   0  0  0  0  0  3  0  0  0  0  0  0
  195.3410  175.1110  144.7480 C   0  0  0  0  0  2  0  0  0  0  0  0
  195.4940  174.9470  146.1250 O   0  0  0  0  0  1  0  0  0  0  0  0
  188.6030  176.5300  145.7160 C   0  0  1  0  0  3  0  0  0  0  0  0
  189.4890  176.7770  146.9210 C   0  0  0  0  0  2  0  0  0  0  0  0
  188.1220  177.4200  146.8480 C   0  0  2  0  0  3  0  0  0  0  0  0
  185.4830  178.3090  147.5650 N   0  0  0  0  0  2  0  0  0  0  0  0
  185.8900  177.1630  148.0010 C   0  0  0  0  0  3  0  0  0  0  0  0
  187.1920  176.6720  147.6770 N   0  0  0  0  0  2  0  0  0  0  0  0
  1 10  1  0  0  0  0
  2  3  1  0  0  0  0
  2 11  1  0  0  0  0
  3  1  2  0  0  0  0
  4 11  1  0  0  0  0
  4 12  1  0  0  0  0
  5 10  1  0  0  0  0
  6  2  2  0  0  0  0
  7  6  1  0  0  0  0
  7 13  2  0  0  0  0
  8  5  1  6  0  0  0
  8 22  1  0  0  0  0
  9 13  1  0  0  0  0
 11  5  2  0  0  0  0
 12 17  1  0  0  0  0
 12  8  1  0  0  0  0
 13  3  1  0  0  0  0
 14 16  1  0  0  0  0
 14 20  1  0  0  0  0
 15 16  2  0  0  0  0
 17 15  1  0  0  0  0
 18 14  2  0  0  0  0
 19 18  1  0  0  0  0
 19 17  2  0  0  0  0
 20 21  1  0  0  0  0
 22 24  1  0  0  0  0
 22 23  1  1  0  0  0
 24 23  1  0  0  0  0
 24 27  1  1  0  0  0
 25 26  2  0  0  0  0
 27 26  1  0  0  0  0
M  END
>  <MODEL>
4

>  <REMARK>
 VINA RESULT:      -6.3      3.511      7.861
  Name = 
  4 active torsions:
  status: ('A' for Active; 'I' for Inactive)
    1  A    between atoms: C_2  and  C_4
    2  A    between atoms: C_6  and  C_14
    3  A    between atoms: N_18  and  C_25
    4  A    between atoms: C_21  and  N_26
                            x       y       z     vdW  Elec       q    Type
                         _______ _______ _______ _____ _____    ______ ____

>  <TORSDO>
F 4

$$$$
=
 OpenBabel11042414223D

 27 31  0  0  1  0  0  0  0  0999 V2000
  189.1750  177.4660  147.2670 N   0  0  0  0  0  0  0  0  0  0  0  0
  191.0430  176.4170  146.1870 C   0  0  0  0  0  0  0  0  0  0  0  0
  190.4910  177.1020  147.2330 C   0  0  2  0  0  3  0  0  0  0  0  0
  190.5720  175.3530  143.9550 N   0  0  0  0  0  2  0  0  0  0  0  0
  188.9080  176.4450  145.1170 C   0  0  0  0  0  0  0  0  0  0  0  0
  192.4800  176.1560  146.4820 C   0  0  0  0  0  3  0  0  0  0  0  0
  192.6490  176.7780  147.8060 N   0  0  0  0  0  0  0  0  0  0  0  0
  188.2640  175.9620  143.8570 C   0  0  2  0  0  3  0  0  0  0  0  0
  191.3790  177.9990  149.5130 C   0  0  0  0  0  1  0  0  0  0  0  0
  188.3610  177.1440  146.2110 C   0  0  0  0  0  3  0  0  0  0  0  0
  190.2350  176.0860  145.1120 C   0  0  0  0  0  0  0  0  0  0  0  0
  189.3850  175.2570  143.2070 N   0  0  0  0  0  0  0  0  0  0  0  0
  191.5320  177.3000  148.2090 C   0  0  0  0  0  0  0  0  0  0  0  0
  189.0880  172.7400  139.8040 C   0  0  0  0  0  0  0  0  0  0  0  0
  190.3050  174.3820  141.1020 C   0  0  0  0  0  3  0  0  0  0  0  0
  190.2120  173.5510  139.9810 C   0  0  0  0  0  3  0  0  0  0  0  0
  189.2770  174.4070  142.0560 C   0  0  0  0  0  0  0  0  0  0  0  0
  188.0650  172.7480  140.7570 C   0  0  0  0  0  3  0  0  0  0  0  0
  188.1590  173.5790  141.8770 C   0  0  0  0  0  3  0  0  0  0  0  0
  188.9990  171.8380  138.6250 C   0  0  0  0  0  2  0  0  0  0  0  0
  190.1880  171.8920  137.8980 O   0  0  0  0  0  1  0  0  0  0  0  0
  187.8410  177.1560  143.0070 C   0  0  1  0  0  3  0  0  0  0  0  0
  186.7740  176.7380  142.0140 C   0  0  0  0  0  2  0  0  0  0  0  0
  186.3810  177.4810  143.2720 C   0  0  2  0  0  3  0  0  0  0  0  0
  185.2310  179.4040  145.0750 N   0  0  0  0  0  2  0  0  0  0  0  0
  185.5660  179.7910  143.8880 C   0  0  0  0  0  3  0  0  0  0  0  0
  186.1410  178.8780  142.9510 N   0  0  0  0  0  2  0  0  0  0  0  0
  2  6  2  0  0  0  0
  3  2  1  1  0  0  0
  3  1  1  0  0  0  0
  3 13  1  0  0  0  0
  4 11  1  0  0  0  0
  5 10  1  0  0  0  0
  6  7  1  0  0  0  0
  7 13  2  0  0  0  0
  8  5  1  1  0  0  0
 10  1  2  0  0  0  0
 11  5  2  0  0  0  0
 11  2  1  0  0  0  0
 12  8  1  0  0  0  0
 12  4  1  0  0  0  0
 13  9  1  0  0  0  0
 14 16  2  0  0  0  0
 14 18  1  0  0  0  0
 15 17  2  0  0  0  0
 16 15  1  0  0  0  0
 17 12  1  0  0  0  0
 18 19  2  0  0  0  0
 19 17  1  0  0  0  0
 20 14  1  0  0  0  0
 21 20  1  0  0  0  0
 22 23  1  6  0  0  0
 22 24  1  0  0  0  0
 22  8  1  0  0  0  0
 23 24  1  0  0  0  0
 24 27  1  6  0  0  0
 26 25  2  0  0  0  0
 27 26  1  0  0  0  0
M  END
>  <MODEL>
5

>  <REMARK>
 VINA RESULT:      -6.0      3.404      6.115
  Name = 
  4 active torsions:
  status: ('A' for Active; 'I' for Inactive)
    1  A    between atoms: C_2  and  C_4
    2  A    between atoms: C_6  and  C_14
    3  A    between atoms: N_18  and  C_25
    4  A    between atoms: C_21  and  N_26
                            x       y       z     vdW  Elec       q    Type
                         _______ _______ _______ _____ _____    ______ ____

>  <TORSDO>
F 4

$$$$
=
 OpenBabel11042414223D

 27 31  0  0  1  0  0  0  0  0999 V2000
  186.7680  175.6720  142.5730 N   0  0  0  0  0  0  0  0  0  0  0  0
  188.1800  176.7800  144.1640 C   0  0  0  0  0  0  0  0  0  0  0  0
  186.9920  176.6470  143.5030 C   0  0  0  0  0  0  0  0  0  0  0  0
  190.4880  175.8140  144.4520 N   0  0  0  0  0  2  0  0  0  0  0  0
  189.0080  174.9080  142.9350 C   0  0  0  0  0  0  0  0  0  0  0  0
  188.0780  177.9160  145.1220 C   0  0  0  0  0  2  0  0  0  0  0  0
  186.7000  178.3880  144.9080 N   0  0  0  0  0  0  0  0  0  0  0  0
  190.2540  174.0880  142.8170 C   0  0  2  0  0  3  0  0  0  0  0  0
  184.7060  177.8970  143.5650 C   0  0  0  0  0  1  0  0  0  0  0  0
  187.7710  174.7850  142.2720 C   0  0  0  0  0  3  0  0  0  0  0  0
  189.2050  175.8940  143.8710 C   0  0  0  0  0  0  0  0  0  0  0  0
  191.1140  174.7170  143.8370 N   0  0  0  0  0  0  0  0  0  0  0  0
  186.1100  177.6700  144.0020 C   0  0  0  0  0  0  0  0  0  0  0  0
  194.8120  173.1820  145.2440 C   0  0  0  0  0  0  0  0  0  0  0  0
  193.4820  175.0300  144.4220 C   0  0  0  0  0  3  0  0  0  0  0  0
  194.7010  174.5290  144.8890 C   0  0  0  0  0  3  0  0  0  0  0  0
  192.3640  174.1910  144.3090 C   0  0  0  0  0  0  0  0  0  0  0  0
  193.7000  172.3410  145.1470 C   0  0  0  0  0  3  0  0  0  0  0  0
  192.4810  172.8430  144.6810 C   0  0  0  0  0  3  0  0  0  0  0  0
  196.1020  172.6520  145.7630 C   0  0  0  0  0  2  0  0  0  0  0  0
  196.9030  173.7070  146.2010 O   0  0  0  0  0  1  0  0  0  0  0  0
  190.8660  174.2810  141.4330 C   0  0  1  0  0  3  0  0  0  0  0  0
  191.8030  173.1330  141.1120 C   0  0  0  0  0  2  0  0  0  0  0  0
  190.4150  173.1610  140.5130 C   0  0  2  0  0  3  0  0  0  0  0  0
  188.1910  173.2660  138.6910 N   0  0  0  0  0  2  0  0  0  0  0  0
  189.3530  173.6490  138.2740 C   0  0  0  0  0  3  0  0  0  0  0  0
  190.4930  173.6180  139.1350 N   0  0  0  0  0  2  0  0  0  0  0  0
  1  3  1  0  0  0  0
  2  6  1  0  0  0  0
  3 13  1  0  0  0  0
  3  2  2  0  0  0  0
  5 11  2  0  0  0  0
  7  6  1  0  0  0  0
  8  5  1  6  0  0  0
  8 12  1  0  0  0  0
  9 13  1  0  0  0  0
 10  1  2  0  0  0  0
 10  5  1  0  0  0  0
 11  2  1  0  0  0  0
 11  4  1  0  0  0  0
 12 17  1  0  0  0  0
 12  4  1  0  0  0  0
 13  7  2  0  0  0  0
 14 20  1  0  0  0  0
 15 16  1  0  0  0  0
 16 14  2  0  0  0  0
 17 15  2  0  0  0  0
 17 19  1  0  0  0  0
 18 14  1  0  0  0  0
 19 18  2  0  0  0  0
 20 21  1  0  0  0  0
 22 23  1  1  0  0  0
 22  8  1  0  0  0  0
 24 27  1  6  0  0  0
 24 23  1  0  0  0  0
 24 22  1  0  0  0  0
 26 25  2  0  0  0  0
 26 27  1  0  0  0  0
M  END
>  <MODEL>
6

>  <REMARK>
 VINA RESULT:      -5.8      3.482      6.999
  Name = 
  4 active torsions:
  status: ('A' for Active; 'I' for Inactive)
    1  A    between atoms: C_2  and  C_4
    2  A    between atoms: C_6  and  C_14
    3  A    between atoms: N_18  and  C_25
    4  A    between atoms: C_21  and  N_26
                            x       y       z     vdW  Elec       q    Type
                         _______ _______ _______ _____ _____    ______ ____

>  <TORSDO>
F 4

$$$$
=
 OpenBabel11042414223D

 27 31  0  0  1  0  0  0  0  0999 V2000
  194.0780  174.0450  145.7760 N   0  0  0  0  0  0  0  0  0  0  0  0
  194.2070  175.5540  143.9150 C   0  0  0  0  0  0  0  0  0  0  0  0
  194.7940  174.7510  144.8520 C   0  0  0  0  0  0  0  0  0  0  0  0
  192.0080  176.3900  143.0180 N   0  0  0  0  0  2  0  0  0  0  0  0
  192.0800  174.9680  144.8310 C   0  0  0  0  0  0  0  0  0  0  0  0
  195.2660  176.1480  143.0530 C   0  0  0  0  0  3  0  0  0  0  0  0
  196.4970  175.5810  143.6270 N   0  0  0  0  0  0  0  0  0  0  0  0
  190.6290  175.2490  144.6010 C   0  0  2  0  0  3  0  0  0  0  0  0
  197.2490  174.0790  145.4150 C   0  0  0  0  0  1  0  0  0  0  0  0
  192.7090  174.1400  145.7820 C   0  0  0  0  0  2  0  0  0  0  0  0
  192.8260  175.6630  143.9090 C   0  0  0  0  0  0  0  0  0  0  0  0
  190.6860  176.1270  143.4170 N   0  0  0  0  0  0  0  0  0  0  0  0
  196.2160  174.8050  144.6280 C   0  0  0  0  0  0  0  0  0  0  0  0
  187.3630  177.3320  141.0680 C   0  0  0  0  0  0  0  0  0  0  0  0
  189.3160  177.8900  142.3870 C   0  0  0  0  0  3  0  0  0  0  0  0
  188.2250  178.2900  141.6100 C   0  0  0  0  0  3  0  0  0  0  0  0
  189.5570  176.5290  142.6260 C   0  0  0  0  0  0  0  0  0  0  0  0
  187.6040  175.9730  141.2910 C   0  0  0  0  0  3  0  0  0  0  0  0
  188.6960  175.5740  142.0670 C   0  0  0  0  0  3  0  0  0  0  0  0
  186.2160  177.7560  140.2230 C   0  0  0  0  0  2  0  0  0  0  0  0
  185.4130  178.6510  140.9300 O   0  0  0  0  0  1  0  0  0  0  0  0
  190.0610  176.0180  145.7900 C   0  0  1  0  0  3  0  0  0  0  0  0
  189.3270  177.2540  145.3080 C   0  0  0  0  0  2  0  0  0  0  0  0
  188.5440  176.0260  145.7170 C   0  0  2  0  0  3  0  0  0  0  0  0
  185.8860  176.9580  146.2960 N   0  0  0  0  0  2  0  0  0  0  0  0
  186.6760  176.6850  147.2820 C   0  0  0  0  0  3  0  0  0  0  0  0
  188.0070  176.2190  147.0530 N   0  0  0  0  0  2  0  0  0  0  0  0
  1 10  1  0  0  0  0
  2  3  1  0  0  0  0
  3  1  2  0  0  0  0
  4 12  1  0  0  0  0
  4 11  1  0  0  0  0
  5 10  1  0  0  0  0
  6  7  1  0  0  0  0
  6  2  2  0  0  0  0
  7 13  2  0  0  0  0
  8  5  1  1  0  0  0
  8 22  1  0  0  0  0
 11  2  1  0  0  0  0
 11  5  2  0  0  0  0
 12  8  1  0  0  0  0
 13  3  1  0  0  0  0
 13  9  1  0  0  0  0
 14 18  2  0  0  0  0
 14 16  1  0  0  0  0
 15 17  1  0  0  0  0
 16 15  2  0  0  0  0
 17 12  1  0  0  0  0
 18 19  1  0  0  0  0
 19 17  2  0  0  0  0
 20 21  1  0  0  0  0
 20 14  1  0  0  0  0
 22 23  1  6  0  0  0
 23 24  1  0  0  0  0
 24 22  1  0  0  0  0
 24 27  1  1  0  0  0
 25 26  2  0  0  0  0
 27 26  1  0  0  0  0
M  END
>  <MODEL>
7

>  <REMARK>
 VINA RESULT:      -5.6      2.366      4.390
  Name = 
  4 active torsions:
  status: ('A' for Active; 'I' for Inactive)
    1  A    between atoms: C_2  and  C_4
    2  A    between atoms: C_6  and  C_14
    3  A    between atoms: N_18  and  C_25
    4  A    between atoms: C_21  and  N_26
                            x       y       z     vdW  Elec       q    Type
                         _______ _______ _______ _____ _____    ______ ____

>  <TORSDO>
F 4

$$$$
=
 OpenBabel11042414223D

 27 31  0  0  1  0  0  0  0  0999 V2000
  191.6900  172.9390  144.5200 N   0  0  0  0  0  0  0  0  0  0  0  0
  191.2640  173.6110  142.2570 C   0  0  0  0  0  0  0  0  0  0  0  0
  191.9690  172.8960  143.1840 C   0  0  0  0  0  0  0  0  0  0  0  0
  189.3460  175.2070  141.9230 N   0  0  0  0  0  2  0  0  0  0  0  0
  189.9300  174.4880  144.0330 C   0  0  0  0  0  0  0  0  0  0  0  0
  191.8050  173.3140  140.9020 C   0  0  0  0  0  3  0  0  0  0  0  0
  192.8860  172.3580  141.1940 N   0  0  0  0  0  0  0  0  0  0  0  0
  188.7730  175.4150  144.2330 C   0  0  2  0  0  3  0  0  0  0  0  0
  193.9550  171.2120  143.0810 C   0  0  0  0  0  1  0  0  0  0  0  0
  190.6660  173.7340  144.9690 C   0  0  0  0  0  2  0  0  0  0  0  0
  190.2280  174.4210  142.6930 C   0  0  0  0  0  0  0  0  0  0  0  0
  188.4560  175.7900  142.8420 N   0  0  0  0  0  0  0  0  0  0  0  0
  192.9630  172.1360  142.4700 C   0  0  0  0  0  0  0  0  0  0  0  0
  184.9840  177.9000  141.6160 C   0  0  0  0  0  0  0  0  0  0  0  0
  186.1640  176.5740  143.2630 C   0  0  0  0  0  3  0  0  0  0  0  0
  185.0200  177.2710  142.8640 C   0  0  0  0  0  3  0  0  0  0  0  0
  187.2830  176.5010  142.4200 C   0  0  0  0  0  0  0  0  0  0  0  0
  186.1000  177.8450  140.7750 C   0  0  0  0  0  3  0  0  0  0  0  0
  187.2440  177.1470  141.1750 C   0  0  0  0  0  3  0  0  0  0  0  0
  183.7770  178.6620  141.2010 C   0  0  0  0  0  2  0  0  0  0  0  0
  182.6290  178.0120  141.6530 O   0  0  0  0  0  1  0  0  0  0  0  0
  189.2310  176.6460  145.0090 C   0  0  1  0  0  3  0  0  0  0  0  0
  188.0890  177.1900  145.8440 C   0  0  0  0  0  2  0  0  0  0  0  0
  189.1720  176.3620  146.5000 C   0  0  2  0  0  3  0  0  0  0  0  0
  191.4210  175.4750  148.0580 N   0  0  0  0  0  2  0  0  0  0  0  0
  191.2050  176.7450  147.9480 C   0  0  0  0  0  3  0  0  0  0  0  0
  190.1030  177.2420  147.1870 N   0  0  0  0  0  2  0  0  0  0  0  0
  1 10  1  0  0  0  0
  2 11  1  0  0  0  0
  2  3  1  0  0  0  0
  3  1  2  0  0  0  0
  4 11  1  0  0  0  0
  4 12  1  0  0  0  0
  5 10  1  0  0  0  0
  6  7  1  0  0  0  0
  6  2  2  0  0  0  0
  7 13  2  0  0  0  0
  8  5  1  6  0  0  0
  8 22  1  0  0  0  0
 11  5  2  0  0  0  0
 12  8  1  0  0  0  0
 13  9  1  0  0  0  0
 13  3  1  0  0  0  0
 14 16  1  0  0  0  0
 16 15  2  0  0  0  0
 17 12  1  0  0  0  0
 17 15  1  0  0  0  0
 18 19  1  0  0  0  0
 18 14  2  0  0  0  0
 19 17  2  0  0  0  0
 20 14  1  0  0  0  0
 20 21  1  0  0  0  0
 22 23  1  1  0  0  0
 22 24  1  0  0  0  0
 23 24  1  0  0  0  0
 24 27  1  1  0  0  0
 26 25  2  0  0  0  0
 27 26  1  0  0  0  0
M  END
>  <MODEL>
8

>  <REMARK>
 VINA RESULT:      -5.6      2.940      4.956
  Name = 
  4 active torsions:
  status: ('A' for Active; 'I' for Inactive)
    1  A    between atoms: C_2  and  C_4
    2  A    between atoms: C_6  and  C_14
    3  A    between atoms: N_18  and  C_25
    4  A    between atoms: C_21  and  N_26
                            x       y       z     vdW  Elec       q    Type
                         _______ _______ _______ _____ _____    ______ ____

>  <TORSDO>
F 4

$$$$
=
 OpenBabel11042414223D

 27 31  0  0  1  0  0  0  0  0999 V2000
  187.6960  178.1430  144.2980 N   0  0  0  0  0  0  0  0  0  0  0  0
  186.5710  177.2590  142.3720 C   0  0  0  0  0  0  0  0  0  0  0  0
  186.6570  178.1420  143.4120 C   0  0  0  0  0  0  0  0  0  0  0  0
  187.7210  175.3470  141.2050 N   0  0  0  0  0  2  0  0  0  0  0  0
  188.6320  176.2940  143.0980 C   0  0  0  0  0  0  0  0  0  0  0  0
  185.3380  177.5490  141.5890 C   0  0  0  0  0  3  0  0  0  0  0  0
  184.7600  178.6890  142.3200 N   0  0  0  0  0  0  0  0  0  0  0  0
  189.5760  175.2030  142.7030 C   0  0  2  0  0  3  0  0  0  0  0  0
  185.1920  180.1210  144.2640 C   0  0  0  0  0  1  0  0  0  0  0  0
  188.7020  177.2210  144.1570 C   0  0  0  0  0  2  0  0  0  0  0  0
  187.5770  176.3190  142.2170 C   0  0  0  0  0  0  0  0  0  0  0  0
  188.9310  174.6880  141.4800 N   0  0  0  0  0  0  0  0  0  0  0  0
  185.5070  179.0060  143.3320 C   0  0  0  0  0  0  0  0  0  0  0  0
  190.7020  171.9560  138.7580 C   0  0  0  0  0  0  0  0  0  0  0  0
  190.9140  173.7530  140.3670 C   0  0  0  0  0  3  0  0  0  0  0  0
  191.5010  172.8510  139.4740 C   0  0  0  0  0  3  0  0  0  0  0  0
  189.5240  173.7650  140.5540 C   0  0  0  0  0  0  0  0  0  0  0  0
  189.3170  171.9520  138.9480 C   0  0  0  0  0  3  0  0  0  0  0  0
  188.7310  172.8530  139.8420 C   0  0  0  0  0  3  0  0  0  0  0  0
  191.3270  170.9810  137.8250 C   0  0  0  0  0  2  0  0  0  0  0  0
  190.3380  170.3450  137.0740 O   0  0  0  0  0  1  0  0  0  0  0  0
  189.5870  174.1210  143.7780 C   0  0  1  0  0  3  0  0  0  0  0  0
  191.0010  173.6210  144.0000 C   0  0  0  0  0  2  0  0  0  0  0  0
  190.3870  174.5990  144.9770 C   0  0  2  0  0  3  0  0  0  0  0  0
  189.1220  175.8190  147.2540 N   0  0  0  0  0  2  0  0  0  0  0  0
  189.3160  174.5410  147.2640 C   0  0  0  0  0  3  0  0  0  0  0  0
  189.9400  173.8820  146.1610 N   0  0  0  0  0  2  0  0  0  0  0  0
  2  3  1  0  0  0  0
  3  1  2  0  0  0  0
  4 12  1  0  0  0  0
  4 11  1  0  0  0  0
  5 10  1  0  0  0  0
  6  7  1  0  0  0  0
  6  2  2  0  0  0  0
  7 13  2  0  0  0  0
  8  5  1  1  0  0  0
  8 22  1  0  0  0  0
 10  1  1  0  0  0  0
 11  2  1  0  0  0  0
 11  5  2  0  0  0  0
 12  8  1  0  0  0  0
 13  3  1  0  0  0  0
 13  9  1  0  0  0  0
 14 18  2  0  0  0  0
 14 16  1  0  0  0  0
 15 17  1  0  0  0  0
 16 15  2  0  0  0  0
 17 12  1  0  0  0  0
 18 19  1  0  0  0  0
 19 17  2  0  0  0  0
 20 14  1  0  0  0  0
 21 20  1  0  0  0  0
 22 23  1  6  0  0  0
 22 24  1  0  0  0  0
 23 24  1  0  0  0  0
 24 27  1  1  0  0  0
 25 26  2  0  0  0  0
 27 26  1  0  0  0  0
M  END
>  <MODEL>
9

>  <REMARK>
 VINA RESULT:      -5.5      3.995      7.993
  Name = 
  4 active torsions:
  status: ('A' for Active; 'I' for Inactive)
    1  A    between atoms: C_2  and  C_4
    2  A    between atoms: C_6  and  C_14
    3  A    between atoms: N_18  and  C_25
    4  A    between atoms: C_21  and  N_26
                            x       y       z     vdW  Elec       q    Type
                         _______ _______ _______ _____ _____    ______ ____

>  <TORSDO>
F 4

$$$$
