=
 OpenBabel11042419343D

 32 37  0  0  1  0  0  0  0  0999 V2000
  190.7910  174.5760  142.3080 N   0  0  0  0  0  0  0  0  0  0  0  0
  187.3050  176.8360  146.3730 O   0  0  0  0  0  0  0  0  0  0  0  0
  192.2500  175.2540  146.3010 C   0  0  0  0  0  2  0  0  0  0  0  0
  191.3480  175.5310  148.5210 O   0  0  0  0  0  1  0  0  0  0  0  0
  187.8570  176.1990  142.8220 C   0  0  2  0  0  3  0  0  0  0  0  0
  186.7500  177.8740  144.3220 C   0  0  1  0  0  3  0  0  0  0  0  0
  191.0140  177.2510  146.9490 N   0  0  0  0  0  2  0  0  0  0  0  0
  186.0390  178.6510  143.4650 C   0  0  2  0  0  3  0  0  0  0  0  0
  193.5050  175.7000  143.5990 C   0  0  0  0  0  1  0  0  0  0  0  0
  190.1370  177.4090  145.7830 C   0  0  0  0  0  2  0  0  0  0  0  0
  191.6540  174.9000  145.0070 N   0  0  2  0  0  0  0  0  0  0  0  0
  191.1750  175.9170  142.7340 C   0  0  0  0  0  2  0  0  0  0  0  0
  189.9100  175.1890  146.6220 C   0  0  1  0  0  0  0  0  0  0  0  0
  188.9820  174.2620  147.3980 C   0  0  0  0  0  1  0  0  0  0  0  0
  184.3810  178.6000  141.6350 O   0  0  0  0  0  1  0  0  0  0  0  0
  186.7750  178.0240  145.8120 C   0  0  1  0  0  3  0  0  0  0  0  0
  185.4410  179.9340  143.9500 C   0  0  0  0  0  1  0  0  0  0  0  0
  189.4170  176.0820  145.5230 C   0  0  1  0  0  0  0  0  0  0  0  0
  191.1430  175.8150  147.1700 C   0  0  1  0  0  0  0  0  0  0  0  0
  186.3920  177.4850  141.2940 C   0  0  0  0  0  3  0  0  0  0  0  0
  189.5000  174.6880  141.6430 C   0  0  0  0  0  2  0  0  0  0  0  0
  185.6320  178.2180  142.1040 C   0  0  0  0  0  0  0  0  0  0  0  0
  187.8920  176.0690  145.3380 C   0  0  2  0  0  3  0  0  0  0  0  0
  192.0510  175.9000  143.9960 C   0  0  2  0  0  3  0  0  0  0  0  0
  188.3620  174.7910  142.6590 C   0  0  0  0  0  2  0  0  0  0  0  0
  187.7850  177.0840  141.6170 C   0  0  0  0  0  2  0  0  0  0  0  0
  190.1910  174.7720  145.2070 C   0  0  1  0  0  3  0  0  0  0  0  0
  187.4870  176.6620  144.0310 C   0  0  2  0  0  3  0  0  0  0  0  0
  184.6090  177.2320  146.5240 N   0  0  0  0  0  2  0  0  0  0  0  0
  185.4020  178.2270  146.3810 C   0  0  0  0  0  3  0  0  0  0  0  0
  191.7360  174.1590  141.2850 C   0  0  0  0  0  2  0  0  0  0  0  0
  191.0480  173.5690  140.2260 O   0  0  0  0  0  1  0  0  0  0  0  0
  1 12  1  0  0  0  0
  3 19  1  0  0  0  0
  5 26  1  1  0  0  0
  5 28  1  0  0  0  0
  6 16  1  0  0  0  0
  7 19  1  0  0  0  0
  8 17  1  0  0  0  0
  8  6  1  0  0  0  0
  9 24  1  0  0  0  0
 10  7  1  0  0  0  0
 11 27  1  0  0  0  0
 11  3  1  0  0  0  0
 12 24  1  0  0  0  0
 13 19  1  0  0  0  0
 13 14  1  0  0  0  0
 15 22  1  0  0  0  0
 16  2  1  0  0  0  0
 16 30  1  0  0  0  0
 18 10  1  0  0  0  0
 18 13  1  0  0  0  0
 19  4  1  0  0  0  0
 20 26  1  0  0  0  0
 20 22  2  0  0  0  0
 21  1  1  0  0  0  0
 21 25  1  0  0  0  0
 22  8  1  0  0  0  0
 23 18  1  0  0  0  0
 23  2  1  0  0  0  0
 24 11  1  0  0  0  0
 25  5  1  0  0  0  0
 27 18  1  0  0  0  0
 27 13  1  0  0  0  0
 28  6  1  0  0  0  0
 28 23  1  0  0  0  0
 30 29  2  0  0  0  0
 31  1  1  0  0  0  0
 32 31  1  0  0  0  0
M  END
>  <MODEL>
1

>  <REMARK>
 VINA RESULT:      -8.9      0.000      0.000
  Name = 
  2 active torsions:
  status: ('A' for Active; 'I' for Inactive)
    1  A    between atoms: N_2  and  C_14
    2  A    between atoms: C_18  and  C_20
                            x       y       z     vdW  Elec       q    Type
                         _______ _______ _______ _____ _____    ______ ____

>  <TORSDO>
F 2

$$$$
=
 OpenBabel11042419343D

 32 37  0  0  1  0  0  0  0  0999 V2000
  186.9030  176.7260  146.2680 N   0  0  0  0  0  0  0  0  0  0  0  0
  190.9020  175.5640  142.2130 O   0  0  0  0  0  0  0  0  0  0  0  0
  186.1290  177.6040  142.1240 C   0  0  0  0  0  2  0  0  0  0  0  0
  186.9290  176.9050  139.9590 O   0  0  0  0  0  1  0  0  0  0  0  0
  190.1690  175.9590  145.7660 C   0  0  2  0  0  3  0  0  0  0  0  0
  192.0580  176.2750  144.1500 C   0  0  1  0  0  3  0  0  0  0  0  0
  188.3490  178.1990  141.3190 N   0  0  0  0  0  2  0  0  0  0  0  0
  193.1280  176.5160  144.9500 C   0  0  2  0  0  3  0  0  0  0  0  0
  185.5460  179.1420  144.6490 C   0  0  0  0  0  1  0  0  0  0  0  0
  189.1500  177.9160  142.5160 C   0  0  0  0  0  2  0  0  0  0  0  0
  186.3850  177.1390  143.4930 N   0  0  2  0  0  0  0  0  0  0  0  0
  187.4760  177.9160  145.6470 C   0  0  0  0  0  2  0  0  0  0  0  0
  187.8480  175.9900  141.9860 C   0  0  1  0  0  0  0  0  0  0  0  0
  187.9230  174.5830  141.4050 C   0  0  0  0  0  1  0  0  0  0  0  0
  194.4020  175.6660  146.8880 O   0  0  0  0  0  1  0  0  0  0  0  0
  192.0950  176.1870  142.6550 C   0  0  1  0  0  3  0  0  0  0  0  0
  194.4050  177.0160  144.3500 C   0  0  0  0  0  1  0  0  0  0  0  0
  188.8350  176.4950  142.9960 C   0  0  1  0  0  0  0  0  0  0  0  0
  187.3080  177.1780  141.2740 C   0  0  1  0  0  0  0  0  0  0  0  0
  192.1610  176.1890  147.2200 C   0  0  0  0  0  3  0  0  0  0  0  0
  187.9730  176.0680  147.0050 C   0  0  0  0  0  2  0  0  0  0  0  0
  193.1920  176.1250  146.3810 C   0  0  0  0  0  0  0  0  0  0  0  0
  189.9870  175.5220  143.2910 C   0  0  2  0  0  3  0  0  0  0  0  0
  186.7660  178.2900  144.3370 C   0  0  2  0  0  3  0  0  0  0  0  0
  188.8720  175.2600  146.0700 C   0  0  0  0  0  2  0  0  0  0  0  0
  190.8350  176.7470  146.8500 C   0  0  0  0  0  2  0  0  0  0  0  0
  187.4030  176.0650  143.4180 C   0  0  1  0  0  3  0  0  0  0  0  0
  190.7170  175.8890  144.5380 C   0  0  2  0  0  3  0  0  0  0  0  0
  193.2060  174.0870  142.2280 N   0  0  0  0  0  2  0  0  0  0  0  0
  193.2500  175.3650  142.1660 C   0  0  0  0  0  3  0  0  0  0  0  0
  185.9440  177.1770  147.2630 C   0  0  0  0  0  2  0  0  0  0  0  0
  186.4640  178.2750  147.9480 O   0  0  0  0  0  1  0  0  0  0  0  0
  1 21  1  0  0  0  0
  1 31  1  0  0  0  0
  2 16  1  0  0  0  0
  2 23  1  0  0  0  0
  3 11  1  0  0  0  0
  4 19  1  0  0  0  0
  5 25  1  6  0  0  0
  5 26  1  0  0  0  0
  6 28  1  0  0  0  0
  6  8  1  0  0  0  0
  7 10  1  0  0  0  0
  8 22  1  0  0  0  0
 10 18  1  0  0  0  0
 11 24  1  0  0  0  0
 12  1  1  0  0  0  0
 13 18  1  0  0  0  0
 13 27  1  0  0  0  0
 14 13  1  0  0  0  0
 16  6  1  0  0  0  0
 17  8  1  0  0  0  0
 18 23  1  0  0  0  0
 18 27  1  0  0  0  0
 19  7  1  0  0  0  0
 19 13  1  0  0  0  0
 19  3  1  0  0  0  0
 22 15  1  0  0  0  0
 22 20  2  0  0  0  0
 23 28  1  0  0  0  0
 24  9  1  0  0  0  0
 24 12  1  0  0  0  0
 25 21  1  0  0  0  0
 26 20  1  0  0  0  0
 27 11  1  0  0  0  0
 28  5  1  0  0  0  0
 30 29  2  0  0  0  0
 30 16  1  0  0  0  0
 31 32  1  0  0  0  0
M  END
>  <MODEL>
2

>  <REMARK>
 VINA RESULT:      -8.6      1.899      7.009
  Name = 
  2 active torsions:
  status: ('A' for Active; 'I' for Inactive)
    1  A    between atoms: N_2  and  C_14
    2  A    between atoms: C_18  and  C_20
                            x       y       z     vdW  Elec       q    Type
                         _______ _______ _______ _____ _____    ______ ____

>  <TORSDO>
F 2

$$$$
=
 OpenBabel11042419343D

 32 37  0  0  1  0  0  0  0  0999 V2000
  187.5070  177.6790  143.4590 N   0  0  0  0  0  0  0  0  0  0  0  0
  192.0100  174.0780  144.1960 O   0  0  0  0  0  0  0  0  0  0  0  0
  189.4390  177.3560  147.2940 C   0  0  0  0  0  2  0  0  0  0  0  0
  191.5660  176.6460  148.1810 O   0  0  0  0  0  1  0  0  0  0  0  0
  189.1950  175.0710  142.0970 C   0  0  2  0  0  3  0  0  0  0  0  0
  190.5140  173.0260  142.6970 C   0  0  1  0  0  3  0  0  0  0  0  0
  190.1050  175.0140  147.3190 N   0  0  0  0  0  2  0  0  0  0  0  0
  190.0790  172.0930  141.8120 C   0  0  2  0  0  3  0  0  0  0  0  0
  186.5350  177.5520  146.5150 C   0  0  0  0  0  1  0  0  0  0  0  0
  189.7120  174.6120  145.9630 C   0  0  0  0  0  2  0  0  0  0  0  0
  188.9240  177.5410  145.9310 N   0  0  2  0  0  0  0  0  0  0  0  0
  187.2210  176.5480  144.3360 C   0  0  0  0  0  2  0  0  0  0  0  0
  191.0990  176.5450  145.8220 C   0  0  1  0  0  0  0  0  0  0  0  0
  192.4970  177.0250  145.4490 C   0  0  0  0  0  1  0  0  0  0  0  0
  189.7140  171.6390  139.4120 O   0  0  0  0  0  1  0  0  0  0  0  0
  191.5740  172.8130  143.7330 C   0  0  1  0  0  3  0  0  0  0  0  0
  190.4410  170.6550  142.0130 C   0  0  0  0  0  1  0  0  0  0  0  0
  190.3190  175.5970  144.9600 C   0  0  1  0  0  0  0  0  0  0  0  0
  190.5970  176.3830  147.2120 C   0  0  1  0  0  0  0  0  0  0  0  0
  188.5660  173.4280  140.3540 C   0  0  0  0  0  3  0  0  0  0  0  0
  187.7510  177.1410  142.1290 C   0  0  0  0  0  2  0  0  0  0  0  0
  189.4240  172.4240  140.5210 C   0  0  0  0  0  0  0  0  0  0  0  0
  191.0980  175.0630  143.7480 C   0  0  2  0  0  3  0  0  0  0  0  0
  187.6470  176.8130  145.7880 C   0  0  2  0  0  3  0  0  0  0  0  0
  189.1650  176.5730  142.0110 C   0  0  0  0  0  2  0  0  0  0  0  0
  188.0860  174.2910  141.4630 C   0  0  0  0  0  2  0  0  0  0  0  0
  189.9860  177.1150  144.9900 C   0  0  1  0  0  3  0  0  0  0  0  0
  190.1940  174.4390  142.7400 C   0  0  2  0  0  3  0  0  0  0  0  0
  193.6510  172.7280  142.5050 N   0  0  0  0  0  2  0  0  0  0  0  0
  192.7670  172.0920  143.1780 C   0  0  0  0  0  3  0  0  0  0  0  0
  186.2910  178.4690  143.3600 C   0  0  0  0  0  2  0  0  0  0  0  0
  185.1970  177.6210  143.1900 O   0  0  0  0  0  1  0  0  0  0  0  0
  1 12  1  0  0  0  0
  5 26  1  1  0  0  0
  5 28  1  0  0  0  0
  6 28  1  0  0  0  0
  6 16  1  0  0  0  0
  8 17  1  0  0  0  0
  8  6  1  0  0  0  0
 10  7  1  0  0  0  0
 11  3  1  0  0  0  0
 12 24  1  0  0  0  0
 13 19  1  0  0  0  0
 14 13  1  0  0  0  0
 15 22  1  0  0  0  0
 16  2  1  0  0  0  0
 18 27  1  0  0  0  0
 18 13  1  0  0  0  0
 18 10  1  0  0  0  0
 19  3  1  0  0  0  0
 19  7  1  0  0  0  0
 19  4  1  0  0  0  0
 20 22  2  0  0  0  0
 20 26  1  0  0  0  0
 21  1  1  0  0  0  0
 22  8  1  0  0  0  0
 23  2  1  0  0  0  0
 23 18  1  0  0  0  0
 24 11  1  0  0  0  0
 24  9  1  0  0  0  0
 25  5  1  0  0  0  0
 25 21  1  0  0  0  0
 27 13  1  0  0  0  0
 27 11  1  0  0  0  0
 28 23  1  0  0  0  0
 29 30  2  0  0  0  0
 30 16  1  0  0  0  0
 31  1  1  0  0  0  0
 32 31  1  0  0  0  0
M  END
>  <MODEL>
3

>  <REMARK>
 VINA RESULT:      -7.5      2.123      5.726
  Name = 
  2 active torsions:
  status: ('A' for Active; 'I' for Inactive)
    1  A    between atoms: N_2  and  C_14
    2  A    between atoms: C_18  and  C_20
                            x       y       z     vdW  Elec       q    Type
                         _______ _______ _______ _____ _____    ______ ____

>  <TORSDO>
F 2

$$$$
=
 OpenBabel11042419343D

 32 37  0  0  1  0  0  0  0  0999 V2000
  186.6170  176.5980  143.4780 N   0  0  0  0  0  0  0  0  0  0  0  0
  191.4640  173.5610  144.5120 O   0  0  0  0  0  0  0  0  0  0  0  0
  188.4550  174.2860  140.3440 C   0  0  0  0  0  2  0  0  0  0  0  0
  189.9680  172.4190  140.1390 O   0  0  0  0  0  1  0  0  0  0  0  0
  189.1810  176.1670  145.6570 C   0  0  2  0  0  3  0  0  0  0  0  0
  191.6090  175.5560  145.7730 C   0  0  1  0  0  3  0  0  0  0  0  0
  190.8170  174.4770  140.9070 N   0  0  0  0  0  2  0  0  0  0  0  0
  192.1160  176.4270  146.6820 C   0  0  2  0  0  3  0  0  0  0  0  0
  187.2100  177.0300  140.3540 C   0  0  0  0  0  1  0  0  0  0  0  0
  190.7290  175.2040  142.1780 C   0  0  0  0  0  2  0  0  0  0  0  0
  187.7890  174.9250  141.4870 N   0  0  2  0  0  0  0  0  0  0  0  0
  187.7920  177.1060  142.7790 C   0  0  0  0  0  2  0  0  0  0  0  0
  189.3280  173.2790  142.2950 C   0  0  1  0  0  0  0  0  0  0  0  0
  189.2110  171.8840  142.8980 C   0  0  0  0  0  1  0  0  0  0  0  0
  191.8230  177.3220  148.9660 O   0  0  0  0  0  1  0  0  0  0  0  0
  192.3830  174.4780  145.0790 C   0  0  1  0  0  3  0  0  0  0  0  0
  193.5980  176.5560  146.8390 C   0  0  0  0  0  1  0  0  0  0  0  0
  189.7520  174.4700  143.1010 C   0  0  1  0  0  0  0  0  0  0  0  0
  189.6770  173.5670  140.8770 C   0  0  1  0  0  0  0  0  0  0  0  0
  190.0690  177.6070  147.4660 C   0  0  0  0  0  3  0  0  0  0  0  0
  186.8520  176.7810  144.9030 C   0  0  0  0  0  2  0  0  0  0  0  0
  191.2910  177.1330  147.6950 C   0  0  0  0  0  0  0  0  0  0  0  0
  190.1720  174.1370  144.5410 C   0  0  2  0  0  3  0  0  0  0  0  0
  188.0410  176.3790  141.4480 C   0  0  2  0  0  3  0  0  0  0  0  0
  187.7680  175.6910  145.4580 C   0  0  0  0  0  2  0  0  0  0  0  0
  189.4090  177.5670  146.1360 C   0  0  0  0  0  2  0  0  0  0  0  0
  188.2630  174.2480  142.7170 C   0  0  1  0  0  3  0  0  0  0  0  0
  190.2240  175.3560  145.3980 C   0  0  2  0  0  3  0  0  0  0  0  0
  193.8830  172.6690  145.6310 N   0  0  0  0  0  2  0  0  0  0  0  0
  193.2640  173.7180  146.0250 C   0  0  0  0  0  3  0  0  0  0  0  0
  185.5010  177.4650  143.1370 C   0  0  0  0  0  2  0  0  0  0  0  0
  185.9040  178.7970  143.2200 O   0  0  0  0  0  1  0  0  0  0  0  0
  1 21  1  0  0  0  0
  2 23  1  0  0  0  0
  2 16  1  0  0  0  0
  3 19  1  0  0  0  0
  3 11  1  0  0  0  0
  4 19  1  0  0  0  0
  5 25  1  6  0  0  0
  5 26  1  0  0  0  0
  6  8  1  0  0  0  0
  7 10  1  0  0  0  0
  8 17  1  0  0  0  0
  8 22  1  0  0  0  0
  9 24  1  0  0  0  0
 10 18  1  0  0  0  0
 11 27  1  0  0  0  0
 12  1  1  0  0  0  0
 13 27  1  0  0  0  0
 13 14  1  0  0  0  0
 13 18  1  0  0  0  0
 16  6  1  0  0  0  0
 16 30  1  0  0  0  0
 18 23  1  0  0  0  0
 19  7  1  0  0  0  0
 19 13  1  0  0  0  0
 20 22  2  0  0  0  0
 21 25  1  0  0  0  0
 22 15  1  0  0  0  0
 23 28  1  0  0  0  0
 24 11  1  0  0  0  0
 24 12  1  0  0  0  0
 26 20  1  0  0  0  0
 27 18  1  0  0  0  0
 28  5  1  0  0  0  0
 28  6  1  0  0  0  0
 29 30  2  0  0  0  0
 31 32  1  0  0  0  0
 31  1  1  0  0  0  0
M  END
>  <MODEL>
4

>  <REMARK>
 VINA RESULT:      -7.1      2.053      6.399
  Name = 
  2 active torsions:
  status: ('A' for Active; 'I' for Inactive)
    1  A    between atoms: N_2  and  C_14
    2  A    between atoms: C_18  and  C_20
                            x       y       z     vdW  Elec       q    Type
                         _______ _______ _______ _____ _____    ______ ____

>  <TORSDO>
F 2

$$$$
=
 OpenBabel11042419343D

 32 37  0  0  1  0  0  0  0  0999 V2000
  190.0940  176.5720  146.2420 N   0  0  0  0  0  0  0  0  0  0  0  0
  192.4300  172.3540  142.9970 O   0  0  0  0  0  0  0  0  0  0  0  0
  188.0570  175.1400  142.7290 C   0  0  0  0  0  2  0  0  0  0  0  0
  188.0420  173.1700  141.3380 O   0  0  0  0  0  1  0  0  0  0  0  0
  192.9450  174.8450  145.6130 C   0  0  2  0  0  3  0  0  0  0  0  0
  194.2100  173.7000  143.7770 C   0  0  1  0  0  3  0  0  0  0  0  0
  189.9230  174.5840  141.2660 N   0  0  0  0  0  2  0  0  0  0  0  0
  195.4990  174.0630  144.0020 C   0  0  2  0  0  3  0  0  0  0  0  0
  188.4560  177.9160  143.8320 C   0  0  0  0  0  1  0  0  0  0  0  0
  191.0510  174.8260  142.1710 C   0  0  0  0  0  2  0  0  0  0  0  0
  188.7180  175.4750  143.9970 N   0  0  2  0  0  0  0  0  0  0  0  0
  190.5130  177.0120  144.9160 C   0  0  0  0  0  2  0  0  0  0  0  0
  189.5120  173.3490  143.2350 C   0  0  1  0  0  0  0  0  0  0  0  0
  189.2880  171.8960  143.6390 C   0  0  0  0  0  1  0  0  0  0  0  0
  197.2770  174.1520  145.7130 O   0  0  0  0  0  1  0  0  0  0  0  0
  193.7430  172.7840  142.6880 C   0  0  1  0  0  3  0  0  0  0  0  0
  196.5380  173.7910  142.9590 C   0  0  0  0  0  1  0  0  0  0  0  0
  190.8120  174.0580  143.4750 C   0  0  1  0  0  0  0  0  0  0  0  0
  188.8540  174.0240  142.0850 C   0  0  1  0  0  0  0  0  0  0  0  0
  195.3170  175.3270  146.1380 C   0  0  0  0  0  3  0  0  0  0  0  0
  191.2960  176.1910  146.9690 C   0  0  0  0  0  2  0  0  0  0  0  0
  196.0040  174.5410  145.3130 C   0  0  0  0  0  0  0  0  0  0  0  0
  191.9220  173.1610  144.0420 C   0  0  2  0  0  3  0  0  0  0  0  0
  189.4380  176.7560  143.8480 C   0  0  2  0  0  3  0  0  0  0  0  0
  191.7750  174.8000  146.5580 C   0  0  0  0  0  2  0  0  0  0  0  0
  193.9870  175.9010  145.8070 C   0  0  0  0  0  2  0  0  0  0  0  0
  189.5730  174.3260  144.3740 C   0  0  1  0  0  3  0  0  0  0  0  0
  193.0490  173.9610  144.6030 C   0  0  2  0  0  3  0  0  0  0  0  0
  194.4820  170.5980  143.3950 N   0  0  0  0  0  2  0  0  0  0  0  0
  194.6090  171.5660  142.5670 C   0  0  0  0  0  3  0  0  0  0  0  0
  189.5540  177.7320  146.9320 C   0  0  0  0  0  2  0  0  0  0  0  0
  188.2100  177.5110  147.2340 O   0  0  0  0  0  1  0  0  0  0  0  0
  1 31  1  0  0  0  0
  1 21  1  0  0  0  0
  2 23  1  0  0  0  0
  3 11  1  0  0  0  0
  4 19  1  0  0  0  0
  5 26  1  6  0  0  0
  5 25  1  0  0  0  0
  6  8  1  0  0  0  0
  6 28  1  0  0  0  0
  7 19  1  0  0  0  0
  7 10  1  0  0  0  0
  8 22  1  0  0  0  0
  9 24  1  0  0  0  0
 10 18  1  0  0  0  0
 11 27  1  0  0  0  0
 12  1  1  0  0  0  0
 13 18  1  0  0  0  0
 13 14  1  0  0  0  0
 13 27  1  0  0  0  0
 16  2  1  0  0  0  0
 16  6  1  0  0  0  0
 17  8  1  0  0  0  0
 18 23  1  0  0  0  0
 18 27  1  0  0  0  0
 19  3  1  0  0  0  0
 19 13  1  0  0  0  0
 22 15  1  0  0  0  0
 22 20  2  0  0  0  0
 23 28  1  0  0  0  0
 24 11  1  0  0  0  0
 24 12  1  0  0  0  0
 25 21  1  0  0  0  0
 26 20  1  0  0  0  0
 28  5  1  0  0  0  0
 30 16  1  0  0  0  0
 30 29  2  0  0  0  0
 31 32  1  0  0  0  0
M  END
>  <MODEL>
5

>  <REMARK>
 VINA RESULT:      -6.9      2.654      7.668
  Name = 
  2 active torsions:
  status: ('A' for Active; 'I' for Inactive)
    1  A    between atoms: N_2  and  C_14
    2  A    between atoms: C_18  and  C_20
                            x       y       z     vdW  Elec       q    Type
                         _______ _______ _______ _____ _____    ______ ____

>  <TORSDO>
F 2

$$$$
=
 OpenBabel11042419343D

 32 37  0  0  1  0  0  0  0  0999 V2000
  193.2380  172.2330  144.5490 N   0  0  0  0  0  0  0  0  0  0  0  0
  188.3710  175.3930  144.2240 O   0  0  0  0  0  0  0  0  0  0  0  0
  192.7790  175.7860  146.9380 C   0  0  0  0  0  2  0  0  0  0  0  0
  190.9900  177.1650  147.7830 O   0  0  0  0  0  1  0  0  0  0  0  0
  190.4310  172.7810  142.7250 C   0  0  2  0  0  3  0  0  0  0  0  0
  188.8190  174.5770  142.0510 C   0  0  1  0  0  3  0  0  0  0  0  0
  191.4420  177.2000  145.4730 N   0  0  0  0  0  2  0  0  0  0  0  0
  188.5870  174.3230  140.7370 C   0  0  2  0  0  3  0  0  0  0  0  0
  195.1220  174.6910  145.3900 C   0  0  0  0  0  1  0  0  0  0  0  0
  191.1830  176.2680  144.3700 C   0  0  0  0  0  2  0  0  0  0  0  0
  192.8140  174.5050  146.2220 N   0  0  2  0  0  0  0  0  0  0  0  0
  193.4290  173.5510  143.9540 C   0  0  0  0  0  2  0  0  0  0  0  0
  190.5420  175.2330  146.4200 C   0  0  1  0  0  0  0  0  0  0  0  0
  189.3390  174.8260  147.2620 C   0  0  0  0  0  1  0  0  0  0  0  0
  187.9200  172.5690  139.1320 O   0  0  0  0  0  1  0  0  0  0  0  0
  188.1810  175.6720  142.8490 C   0  0  1  0  0  3  0  0  0  0  0  0
  187.8730  175.3380  139.9010 C   0  0  0  0  0  1  0  0  0  0  0  0
  190.6170  174.9660  144.9460 C   0  0  1  0  0  0  0  0  0  0  0  0
  191.4180  176.4030  146.6950 C   0  0  1  0  0  0  0  0  0  0  0  0
  189.8390  172.2000  140.3920 C   0  0  0  0  0  3  0  0  0  0  0  0
  192.3830  171.4740  143.6480 C   0  0  0  0  0  2  0  0  0  0  0  0
  188.8190  173.0020  140.1000 C   0  0  0  0  0  0  0  0  0  0  0  0
  189.3350  174.3650  144.3490 C   0  0  2  0  0  3  0  0  0  0  0  0
  193.6500  174.6430  145.0120 C   0  0  2  0  0  3  0  0  0  0  0  0
  190.9150  171.8650  143.8160 C   0  0  0  0  0  2  0  0  0  0  0  0
  190.9300  172.5680  141.3300 C   0  0  0  0  0  2  0  0  0  0  0  0
  191.4130  174.0990  145.9610 C   0  0  1  0  0  3  0  0  0  0  0  0
  189.5730  173.7820  142.9980 C   0  0  2  0  0  3  0  0  0  0  0  0
  186.0860  176.8700  142.7830 N   0  0  0  0  0  2  0  0  0  0  0  0
  186.7040  175.7640  142.5990 C   0  0  0  0  0  3  0  0  0  0  0  0
  194.5280  171.5630  144.5430 C   0  0  0  0  0  2  0  0  0  0  0  0
  194.8490  171.1580  145.8380 O   0  0  0  0  0  1  0  0  0  0  0  0
  2 23  1  0  0  0  0
  5 26  1  1  0  0  0
  5 28  1  0  0  0  0
  5 25  1  0  0  0  0
  6 16  1  0  0  0  0
  6 28  1  0  0  0  0
  7 19  1  0  0  0  0
  8  6  1  0  0  0  0
 10 18  1  0  0  0  0
 10  7  1  0  0  0  0
 11  3  1  0  0  0  0
 12  1  1  0  0  0  0
 12 24  1  0  0  0  0
 13 19  1  0  0  0  0
 13 14  1  0  0  0  0
 15 22  1  0  0  0  0
 16  2  1  0  0  0  0
 17  8  1  0  0  0  0
 18 27  1  0  0  0  0
 18 13  1  0  0  0  0
 19  3  1  0  0  0  0
 19  4  1  0  0  0  0
 20 26  1  0  0  0  0
 21 25  1  0  0  0  0
 21  1  1  0  0  0  0
 22 20  2  0  0  0  0
 22  8  1  0  0  0  0
 23 18  1  0  0  0  0
 24  9  1  0  0  0  0
 24 11  1  0  0  0  0
 27 11  1  0  0  0  0
 27 13  1  0  0  0  0
 28 23  1  0  0  0  0
 30 29  2  0  0  0  0
 30 16  1  0  0  0  0
 31  1  1  0  0  0  0
 31 32  1  0  0  0  0
M  END
>  <MODEL>
6

>  <REMARK>
 VINA RESULT:      -6.8      2.592      4.116
  Name = 
  2 active torsions:
  status: ('A' for Active; 'I' for Inactive)
    1  A    between atoms: N_2  and  C_14
    2  A    between atoms: C_18  and  C_20
                            x       y       z     vdW  Elec       q    Type
                         _______ _______ _______ _____ _____    ______ ____

>  <TORSDO>
F 2

$$$$
=
 OpenBabel11042419343D

 32 37  0  0  1  0  0  0  0  0999 V2000
  191.9310  173.4500  141.6040 N   0  0  0  0  0  0  0  0  0  0  0  0
  189.9760  176.4250  146.1990 O   0  0  0  0  0  0  0  0  0  0  0  0
  194.6920  175.1820  144.4180 C   0  0  0  0  0  2  0  0  0  0  0  0
  194.6850  175.9420  146.7070 O   0  0  0  0  0  1  0  0  0  0  0  0
  189.2080  174.9660  142.9430 C   0  0  2  0  0  3  0  0  0  0  0  0
  188.5180  176.8880  144.3960 C   0  0  1  0  0  3  0  0  0  0  0  0
  193.5060  177.1960  145.1010 N   0  0  0  0  0  2  0  0  0  0  0  0
  187.4190  177.3830  143.7710 C   0  0  2  0  0  3  0  0  0  0  0  0
  194.7210  175.0230  141.4090 C   0  0  0  0  0  1  0  0  0  0  0  0
  192.2340  177.0080  144.3940 C   0  0  0  0  0  2  0  0  0  0  0  0
  193.7060  174.4830  143.5830 N   0  0  2  0  0  0  0  0  0  0  0  0
  192.2350  174.8760  141.5560 C   0  0  0  0  0  2  0  0  0  0  0  0
  192.6980  175.0540  145.6790 C   0  0  1  0  0  0  0  0  0  0  0  0
  192.2990  174.2910  146.9370 C   0  0  0  0  0  1  0  0  0  0  0  0
  185.2130  176.7800  142.8370 O   0  0  0  0  0  1  0  0  0  0  0  0
  189.0920  177.4020  145.6800 C   0  0  1  0  0  3  0  0  0  0  0  0
  186.8610  178.7070  144.1910 C   0  0  0  0  0  1  0  0  0  0  0  0
  191.6860  175.6160  144.7250 C   0  0  1  0  0  0  0  0  0  0  0  0
  193.9330  175.8700  145.5330 C   0  0  1  0  0  0  0  0  0  0  0  0
  187.0860  175.7420  141.9300 C   0  0  0  0  0  3  0  0  0  0  0  0
  190.4840  173.3150  141.5220 C   0  0  0  0  0  2  0  0  0  0  0  0
  186.5920  176.6030  142.8160 C   0  0  0  0  0  0  0  0  0  0  0  0
  190.2300  175.4640  145.1920 C   0  0  2  0  0  3  0  0  0  0  0  0
  193.5210  175.2250  142.3200 C   0  0  2  0  0  3  0  0  0  0  0  0
  189.8250  173.5950  142.8720 C   0  0  0  0  0  2  0  0  0  0  0  0
  188.5400  175.5200  141.7240 C   0  0  0  0  0  2  0  0  0  0  0  0
  192.4740  174.3190  144.3890 C   0  0  1  0  0  3  0  0  0  0  0  0
  189.2650  175.6890  144.0780 C   0  0  2  0  0  3  0  0  0  0  0  0
  187.3250  176.6860  147.1600 N   0  0  0  0  0  2  0  0  0  0  0  0
  188.0310  177.6540  146.7110 C   0  0  0  0  0  3  0  0  0  0  0  0
  192.4620  172.8530  140.3900 C   0  0  0  0  0  2  0  0  0  0  0  0
  192.1600  173.6680  139.2990 O   0  0  0  0  0  1  0  0  0  0  0  0
  3 19  1  0  0  0  0
  5 26  1  6  0  0  0
  5 28  1  0  0  0  0
  6 16  1  0  0  0  0
  7 19  1  0  0  0  0
  8 17  1  0  0  0  0
  8  6  1  0  0  0  0
  9 24  1  0  0  0  0
 10 18  1  0  0  0  0
 10  7  1  0  0  0  0
 11 27  1  0  0  0  0
 11  3  1  0  0  0  0
 12  1  1  0  0  0  0
 12 24  1  0  0  0  0
 13 14  1  0  0  0  0
 16  2  1  0  0  0  0
 16 30  1  0  0  0  0
 18 23  1  0  0  0  0
 18 13  1  0  0  0  0
 19 13  1  0  0  0  0
 19  4  1  0  0  0  0
 20 22  2  0  0  0  0
 21  1  1  0  0  0  0
 21 25  1  0  0  0  0
 22 15  1  0  0  0  0
 22  8  1  0  0  0  0
 23  2  1  0  0  0  0
 24 11  1  0  0  0  0
 25  5  1  0  0  0  0
 26 20  1  0  0  0  0
 27 18  1  0  0  0  0
 27 13  1  0  0  0  0
 28  6  1  0  0  0  0
 28 23  1  0  0  0  0
 30 29  2  0  0  0  0
 31  1  1  0  0  0  0
 32 31  1  0  0  0  0
M  END
>  <MODEL>
7

>  <REMARK>
 VINA RESULT:      -6.7      1.817      2.431
  Name = 
  2 active torsions:
  status: ('A' for Active; 'I' for Inactive)
    1  A    between atoms: N_2  and  C_14
    2  A    between atoms: C_18  and  C_20
                            x       y       z     vdW  Elec       q    Type
                         _______ _______ _______ _____ _____    ______ ____

>  <TORSDO>
F 2

$$$$
=
 OpenBabel11042419343D

 32 37  0  0  1  0  0  0  0  0999 V2000
  195.0090  173.0900  145.0970 N   0  0  0  0  0  0  0  0  0  0  0  0
  189.9230  174.7830  142.8510 O   0  0  0  0  0  0  0  0  0  0  0  0
  193.0290  170.6880  142.1220 C   0  0  0  0  0  2  0  0  0  0  0  0
  191.3740  170.9740  140.3910 O   0  0  0  0  0  1  0  0  0  0  0  0
  192.3930  175.2120  145.5020 C   0  0  2  0  0  3  0  0  0  0  0  0
  189.9230  175.4140  145.1300 C   0  0  1  0  0  3  0  0  0  0  0  0
  190.6840  171.0910  142.6390 N   0  0  0  0  0  2  0  0  0  0  0  0
  189.4770  176.0180  146.2610 C   0  0  2  0  0  3  0  0  0  0  0  0
  194.4900  169.9540  144.6530 C   0  0  0  0  0  1  0  0  0  0  0  0
  190.8150  172.1020  143.6940 C   0  0  0  0  0  2  0  0  0  0  0  0
  193.7310  171.6220  143.0120 N   0  0  2  0  0  0  0  0  0  0  0  0
  193.8870  172.2350  145.4670 C   0  0  0  0  0  2  0  0  0  0  0  0
  192.0550  172.8140  141.7860 C   0  0  1  0  0  0  0  0  0  0  0  0
  192.0520  173.7950  140.6200 C   0  0  0  0  0  1  0  0  0  0  0  0
  189.8140  177.9580  147.7520 O   0  0  0  0  0  1  0  0  0  0  0  0
  189.0740  175.0310  143.9570 C   0  0  1  0  0  3  0  0  0  0  0  0
  188.0080  176.0800  146.5380 C   0  0  0  0  0  1  0  0  0  0  0  0
  191.7190  173.2300  143.1870 C   0  0  1  0  0  0  0  0  0  0  0  0
  191.7470  171.3620  141.6790 C   0  0  1  0  0  0  0  0  0  0  0  0
  191.6030  176.5010  147.4630 C   0  0  0  0  0  3  0  0  0  0  0  0
  194.7730  174.3940  145.7000 C   0  0  0  0  0  2  0  0  0  0  0  0
  190.3440  176.8140  147.1670 C   0  0  0  0  0  0  0  0  0  0  0  0
  191.2560  174.6900  143.3150 C   0  0  2  0  0  3  0  0  0  0  0  0
  193.5970  171.1600  144.4080 C   0  0  2  0  0  3  0  0  0  0  0  0
  193.7660  175.2060  144.8860 C   0  0  0  0  0  2  0  0  0  0  0  0
  192.2730  175.2620  146.9930 C   0  0  0  0  0  2  0  0  0  0  0  0
  193.1900  172.9770  142.7550 C   0  0  1  0  0  3  0  0  0  0  0  0
  191.2920  175.1600  144.7290 C   0  0  2  0  0  3  0  0  0  0  0  0
  187.0850  175.8600  142.8690 N   0  0  0  0  0  2  0  0  0  0  0  0
  188.1230  176.1250  143.5700 C   0  0  0  0  0  3  0  0  0  0  0  0
  196.1950  172.5540  145.7440 C   0  0  0  0  0  2  0  0  0  0  0  0
  196.9570  173.6000  146.2620 O   0  0  0  0  0  1  0  0  0  0  0  0
  1 12  1  0  0  0  0
  1 21  1  0  0  0  0
  1 31  1  0  0  0  0
  2 23  1  0  0  0  0
  2 16  1  0  0  0  0
  3 11  1  0  0  0  0
  4 19  1  0  0  0  0
  5 25  1  1  0  0  0
  5 26  1  0  0  0  0
  6  8  1  0  0  0  0
  7 10  1  0  0  0  0
  8 17  1  0  0  0  0
  8 22  1  0  0  0  0
 11 24  1  0  0  0  0
 13 27  1  0  0  0  0
 13 18  1  0  0  0  0
 14 13  1  0  0  0  0
 16  6  1  0  0  0  0
 18 23  1  0  0  0  0
 18 10  1  0  0  0  0
 19 13  1  0  0  0  0
 19  3  1  0  0  0  0
 19  7  1  0  0  0  0
 22 20  2  0  0  0  0
 22 15  1  0  0  0  0
 23 28  1  0  0  0  0
 24  9  1  0  0  0  0
 24 12  1  0  0  0  0
 25 21  1  0  0  0  0
 26 20  1  0  0  0  0
 27 11  1  0  0  0  0
 27 18  1  0  0  0  0
 28  6  1  0  0  0  0
 28  5  1  0  0  0  0
 29 30  2  0  0  0  0
 30 16  1  0  0  0  0
 31 32  1  0  0  0  0
M  END
>  <MODEL>
8

>  <REMARK>
 VINA RESULT:      -6.7      2.977      6.053
  Name = 
  2 active torsions:
  status: ('A' for Active; 'I' for Inactive)
    1  A    between atoms: N_2  and  C_14
    2  A    between atoms: C_18  and  C_20
                            x       y       z     vdW  Elec       q    Type
                         _______ _______ _______ _____ _____    ______ ____

>  <TORSDO>
F 2

$$$$
=
 OpenBabel11042419343D

 32 37  0  0  1  0  0  0  0  0999 V2000
  189.9840  176.8770  145.2810 N   0  0  0  0  0  0  0  0  0  0  0  0
  193.3670  173.8170  141.6800 O   0  0  0  0  0  0  0  0  0  0  0  0
  193.9130  175.6210  146.5170 C   0  0  0  0  0  2  0  0  0  0  0  0
  195.9870  174.9410  145.4930 O   0  0  0  0  0  1  0  0  0  0  0  0
  190.0150  175.0550  142.4210 C   0  0  2  0  0  3  0  0  0  0  0  0
  191.1420  173.1050  141.3190 C   0  0  1  0  0  3  0  0  0  0  0  0
  194.1390  173.4890  145.3620 N   0  0  0  0  0  2  0  0  0  0  0  0
  190.1210  172.4480  140.7110 C   0  0  2  0  0  3  0  0  0  0  0  0
  191.2720  175.6860  147.9680 C   0  0  0  0  0  1  0  0  0  0  0  0
  192.9020  173.4830  144.5720 C   0  0  0  0  0  2  0  0  0  0  0  0
  192.6520  176.1550  145.9860 N   0  0  2  0  0  0  0  0  0  0  0  0
  190.2160  175.5040  145.7150 C   0  0  0  0  0  2  0  0  0  0  0  0
  194.0680  175.5220  144.1620 C   0  0  1  0  0  0  0  0  0  0  0  0
  194.9130  176.2640  143.1340 C   0  0  0  0  0  1  0  0  0  0  0  0
  188.2070  172.7200  139.1740 O   0  0  0  0  0  1  0  0  0  0  0  0
  192.5860  172.7140  141.2570 C   0  0  1  0  0  3  0  0  0  0  0  0
  190.3490  171.0750  140.1590 C   0  0  0  0  0  1  0  0  0  0  0  0
  192.8060  174.8000  143.7940 C   0  0  1  0  0  0  0  0  0  0  0  0
  194.5970  174.8740  145.3920 C   0  0  1  0  0  0  0  0  0  0  0  0
  188.1980  173.9690  141.1350 C   0  0  0  0  0  3  0  0  0  0  0  0
  189.2180  176.8140  144.0450 C   0  0  0  0  0  2  0  0  0  0  0  0
  188.8220  173.0790  140.3680 C   0  0  0  0  0  0  0  0  0  0  0  0
  192.5150  174.7710  142.2860 C   0  0  2  0  0  3  0  0  0  0  0  0
  191.5250  175.3540  146.5060 C   0  0  2  0  0  3  0  0  0  0  0  0
  190.1180  176.4920  142.8520 C   0  0  0  0  0  2  0  0  0  0  0  0
  188.6820  174.3770  142.4780 C   0  0  0  0  0  2  0  0  0  0  0  0
  192.7630  176.1790  144.5090 C   0  0  1  0  0  3  0  0  0  0  0  0
  191.1040  174.3830  142.0010 C   0  0  2  0  0  3  0  0  0  0  0  0
  193.1220  173.2640  138.9690 N   0  0  0  0  0  2  0  0  0  0  0  0
  193.0130  172.3560  139.8650 C   0  0  0  0  0  3  0  0  0  0  0  0
  189.1140  177.5000  146.2650 C   0  0  0  0  0  2  0  0  0  0  0  0
  188.0880  176.6190  146.6050 O   0  0  0  0  0  1  0  0  0  0  0  0
  1 12  1  0  0  0  0
  1 31  1  0  0  0  0
  2 23  1  0  0  0  0
  5 26  1  1  0  0  0
  5 25  1  0  0  0  0
  6 28  1  0  0  0  0
  7 19  1  0  0  0  0
  8  6  1  0  0  0  0
 10  7  1  0  0  0  0
 11 24  1  0  0  0  0
 11  3  1  0  0  0  0
 12 24  1  0  0  0  0
 13 27  1  0  0  0  0
 13 19  1  0  0  0  0
 14 13  1  0  0  0  0
 15 22  1  0  0  0  0
 16  6  1  0  0  0  0
 16  2  1  0  0  0  0
 17  8  1  0  0  0  0
 18 13  1  0  0  0  0
 18 27  1  0  0  0  0
 18 10  1  0  0  0  0
 19  4  1  0  0  0  0
 19  3  1  0  0  0  0
 20 26  1  0  0  0  0
 21  1  1  0  0  0  0
 22  8  1  0  0  0  0
 22 20  2  0  0  0  0
 23 18  1  0  0  0  0
 24  9  1  0  0  0  0
 25 21  1  0  0  0  0
 27 11  1  0  0  0  0
 28 23  1  0  0  0  0
 28  5  1  0  0  0  0
 29 30  2  0  0  0  0
 30 16  1  0  0  0  0
 31 32  1  0  0  0  0
M  END
>  <MODEL>
9

>  <REMARK>
 VINA RESULT:      -6.7      2.813      6.190
  Name = 
  2 active torsions:
  status: ('A' for Active; 'I' for Inactive)
    1  A    between atoms: N_2  and  C_14
    2  A    between atoms: C_18  and  C_20
                            x       y       z     vdW  Elec       q    Type
                         _______ _______ _______ _____ _____    ______ ____

>  <TORSDO>
F 2

$$$$
