=
 OpenBabel11042416443D

 48 50  0  0  1  0  0  0  0  0999 V2000
  189.9400  175.5030  146.4500 N   0  0  0  0  0  0  0  0  0  0  0  0
  189.0690  176.6420  146.5490 C   0  0  0  0  0  0  0  0  0  0  0  0
  189.3210  177.5510  147.3880 O   0  0  0  0  0  0  0  0  0  0  0  0
  189.8570  174.5920  145.3140 C   0  0  0  0  0  2  0  0  0  0  0  0
  189.7810  173.1500  145.7920 C   0  0  0  0  0  2  0  0  0  0  0  0
  189.6660  172.1930  144.6190 C   0  0  0  0  0  2  0  0  0  0  0  0
  191.0480  171.8090  144.1260 C   0  0  0  0  0  2  0  0  0  0  0  0
  191.1000  171.9200  142.6800 N   0  0  0  0  0  2  0  0  0  0  0  0
  192.1660  172.8590  142.3750 C   0  0  0  0  0  2  0  0  0  0  0  0
  191.6550  173.9470  141.4450 C   0  0  0  0  0  2  0  0  0  0  0  0
  190.1920  173.7090  141.0690 C   0  0  1  0  0  3  0  0  0  0  0  0
  189.3300  174.5610  141.7700 O   0  0  0  0  0  1  0  0  0  0  0  0
  189.9730  173.7740  139.6760 O   0  0  0  0  0  0  0  0  0  0  0  0
  188.8680  172.5930  137.9190 C   0  0  0  0  0  1  0  0  0  0  0  0
  189.6660  172.4870  139.2050 C   0  0  0  0  0  2  0  0  0  0  0  0
  187.8870  176.7860  145.6390 C   0  0  0  0  0  2  0  0  0  0  0  0
  183.2680  178.1850  140.3120 C   0  0  0  0  0  3  0  0  0  0  0  0
  185.4370  178.0090  141.3700 C   0  0  0  0  0  0  0  0  0  0  0  0
  186.8300  177.8560  141.2750 C   0  0  0  0  0  3  0  0  0  0  0  0
  186.9760  177.9850  143.6760 C   0  0  0  0  0  0  0  0  0  0  0  0
  182.6530  178.3490  141.5660 C   0  0  0  0  0  0  0  0  0  0  0  0
  188.9550  177.7670  142.6000 N   0  0  0  0  0  0  0  0  0  0  0  0
  183.4350  178.3380  142.7260 C   0  0  0  0  0  3  0  0  0  0  0  0
  187.5600  177.8530  142.4610 C   0  0  0  0  0  0  0  0  0  0  0  0
  184.6520  178.0180  140.2150 C   0  0  0  0  0  3  0  0  0  0  0  0
  184.8180  178.1670  142.6450 C   0  0  0  0  0  0  0  0  0  0  0  0
  189.3190  177.8630  143.9590 N   0  0  0  0  0  0  0  0  0  0  0  0
  185.5980  178.1580  143.8140 C   0  0  0  0  0  3  0  0  0  0  0  0
  188.0470  177.9840  144.7100 C   0  0  2  0  0  3  0  0  0  0  0  0
  181.2710  178.5220  141.6850 O   0  0  0  0  0  0  0  0  0  0  0  0
  180.5440  179.4590  140.9020 C   0  0  0  0  0  1  0  0  0  0  0  0
  191.0020  175.3040  147.4270 C   0  0  0  0  0  2  0  0  0  0  0  0
  192.3090  175.7340  146.8580 C   0  0  0  0  0  3  0  0  0  0  0  0
  193.7410  174.0540  145.4630 C   0  0  0  0  0  3  0  0  0  0  0  0
  193.0240  174.8950  146.1620 C   0  0  0  0  0  0  0  0  0  0  0  0
  195.1280  174.3240  145.0390 C   0  0  0  0  0  0  0  0  0  0  0  0
  196.1570  173.7870  145.7100 C   0  0  0  0  0  3  0  0  0  0  0  0
  197.5940  173.9850  145.3570 C   0  0  0  0  0  1  0  0  0  0  0  0
  195.3520  175.3510  143.6160 S   0  0  0  0  0  0  0  0  0  0  0  0
  194.0040  175.8160  143.1390 O   0  0  0  0  0  0  0  0  0  0  0  0
  196.1710  176.5660  143.9580 O   0  0  0  0  0  0  0  0  0  0  0  0
  196.1120  174.4550  142.3400 N   0  0  0  0  0  2  0  0  0  0  0  0
  197.3190  175.1600  141.9340 C   0  0  0  0  0  2  0  0  0  0  0  0
  197.1880  175.6440  140.5000 C   0  0  0  0  0  2  0  0  0  0  0  0
  196.5260  174.5790  139.6430 C   0  0  0  0  0  2  0  0  0  0  0  0
  195.4080  175.1570  138.9190 N   0  0  0  0  0  2  0  0  0  0  0  0
  194.3450  174.1670  138.9180 C   0  0  0  0  0  2  0  0  0  0  0  0
  194.4140  173.4110  137.7470 O   0  0  0  0  0  1  0  0  0  0  0  0
  1  2  1  0  0  0  0
  1 32  1  0  0  0  0
  2  3  2  0  0  0  0
  4  5  1  0  0  0  0
  4  1  1  0  0  0  0
  6  5  1  0  0  0  0
  7  6  1  0  0  0  0
  8  7  1  0  0  0  0
  9  8  1  0  0  0  0
 10  9  1  0  0  0  0
 11 10  1  0  0  0  0
 11 12  1  1  0  0  0
 13 11  1  0  0  0  0
 14 15  1  0  0  0  0
 15 13  1  0  0  0  0
 16  2  1  0  0  0  0
 17 21  1  0  0  0  0
 18 26  1  0  0  0  0
 19 18  2  0  0  0  0
 19 24  1  0  0  0  0
 20 28  1  0  0  0  0
 20 29  1  0  0  0  0
 21 30  1  0  0  0  0
 21 23  2  0  0  0  0
 22 27  2  0  0  0  0
 24 22  1  0  0  0  0
 24 20  2  0  0  0  0
 25 17  2  0  0  0  0
 25 18  1  0  0  0  0
 26 23  1  0  0  0  0
 26 28  2  0  0  0  0
 27 29  1  0  0  0  0
 29 16  1  1  0  0  0
 31 30  1  0  0  0  0
 33 32  1  0  0  0  0
 34 35  2  0  0  0  0
 35 33  2  0  0  0  0
 36 34  1  0  0  0  0
 36 37  2  0  0  0  0
 38 37  1  0  0  0  0
 39 41  2  0  0  0  0
 39 36  1  0  0  0  0
 40 39  2  0  0  0  0
 42 39  1  0  0  0  0
 43 42  1  0  0  0  0
 44 43  1  0  0  0  0
 45 44  1  0  0  0  0
 46 45  1  0  0  0  0
 47 46  1  0  0  0  0
 48 47  1  0  0  0  0
M  END
>  <MODEL>
1

>  <REMARK>
 VINA RESULT:      -5.9      0.000      0.000
  Name = 
  23 active torsions:
  status: ('A' for Active; 'I' for Inactive)
    1  A    between atoms: C_3  and  N_17
    2  A    between atoms: C_3  and  C_47
    3  A    between atoms: N_5  and  C_23
    4  A    between atoms: N_5  and  C_29
    5  A    between atoms: C_7  and  O_8
    6  A    between atoms: C_9  and  C_24
    7  A    between atoms: C_9  and  N_43
    8  A    between atoms: C_10  and  N_17
    9  A    between atoms: C_10  and  C_27
   10  A    between atoms: C_12  and  C_13
   11  A    between atoms: C_13  and  N_14
   12  A    between atoms: N_14  and  C_25
   13  A    between atoms: C_16  and  C_19
   14  A    between atoms: C_19  and  C_46
   15  A    between atoms: C_20  and  C_21
   16  A    between atoms: C_20  and  S_28
   17  A    between atoms: C_24  and  C_29
   18  A    between atoms: C_25  and  C_35
   19  A    between atoms: C_27  and  C_35
   20  A    between atoms: S_28  and  N_43
   21  A    between atoms: C_38  and  O_48
   22  A    between atoms: C_39  and  C_47
   23  A    between atoms: C_39  and  O_48
                            x       y       z     vdW  Elec       q    Type
                         _______ _______ _______ _____ _____    ______ ____

>  <TORSDO>
F 23

$$$$
=
 OpenBabel11042416443D

 48 50  0  0  1  0  0  0  0  0999 V2000
  189.9170  173.9050  140.6900 N   0  0  0  0  0  0  0  0  0  0  0  0
  188.7300  174.3550  140.0180 C   0  0  0  0  0  0  0  0  0  0  0  0
  188.6380  174.2410  138.7650 O   0  0  0  0  0  0  0  0  0  0  0  0
  189.9460  173.7460  142.1400 C   0  0  0  0  0  2  0  0  0  0  0  0
  189.5440  172.3320  142.5290 C   0  0  0  0  0  2  0  0  0  0  0  0
  189.2970  172.2280  144.0230 C   0  0  0  0  0  2  0  0  0  0  0  0
  189.5120  173.5780  144.6800 C   0  0  0  0  0  2  0  0  0  0  0  0
  189.8250  173.3940  146.0850 N   0  0  0  0  0  2  0  0  0  0  0  0
  189.3220  174.5690  146.7780 C   0  0  0  0  0  2  0  0  0  0  0  0
  189.0110  175.6730  145.7810 C   0  0  0  0  0  2  0  0  0  0  0  0
  189.5690  177.0160  146.2540 C   0  0  1  0  0  3  0  0  0  0  0  0
  190.6520  176.8510  147.1270 O   0  0  0  0  0  1  0  0  0  0  0  0
  189.8880  177.8770  145.1820 O   0  0  0  0  0  0  0  0  0  0  0  0
  190.4180  177.6980  142.8610 C   0  0  0  0  0  1  0  0  0  0  0  0
  190.6840  177.1770  144.2610 C   0  0  0  0  0  2  0  0  0  0  0  0
  187.5770  174.9190  140.7920 C   0  0  0  0  0  2  0  0  0  0  0  0
  183.9290  178.9380  145.5060 C   0  0  0  0  0  3  0  0  0  0  0  0
  184.7790  178.3030  143.3320 C   0  0  0  0  0  0  0  0  0  0  0  0
  184.6820  178.3300  141.9300 C   0  0  0  0  0  3  0  0  0  0  0  0
  186.6830  176.9950  141.7980 C   0  0  0  0  0  0  0  0  0  0  0  0
  184.9970  178.2710  146.1340 C   0  0  0  0  0  0  0  0  0  0  0  0
  185.7940  177.6010  139.8060 N   0  0  0  0  0  0  0  0  0  0  0  0
  185.9560  177.6150  145.3550 C   0  0  0  0  0  3  0  0  0  0  0  0
  185.6640  177.6610  141.2040 C   0  0  0  0  0  0  0  0  0  0  0  0
  183.8220  178.9550  144.1130 C   0  0  0  0  0  3  0  0  0  0  0  0
  185.8590  177.6200  143.9620 C   0  0  0  0  0  0  0  0  0  0  0  0
  186.9550  176.8830  139.4530 N   0  0  0  0  0  0  0  0  0  0  0  0
  186.8270  176.9600  143.1850 C   0  0  0  0  0  3  0  0  0  0  0  0
  187.5620  176.4420  140.7320 C   0  0  2  0  0  3  0  0  0  0  0  0
  185.1260  178.2470  147.5260 O   0  0  0  0  0  0  0  0  0  0  0  0
  186.3860  178.1960  148.1790 C   0  0  0  0  0  1  0  0  0  0  0  0
  191.0830  173.4890  139.9200 C   0  0  0  0  0  2  0  0  0  0  0  0
  192.2710  173.3740  140.8110 C   0  0  0  0  0  3  0  0  0  0  0  0
  193.2470  175.5020  141.9660 C   0  0  0  0  0  3  0  0  0  0  0  0
  192.7580  174.4360  141.3870 C   0  0  0  0  0  0  0  0  0  0  0  0
  194.5300  175.5170  142.6930 C   0  0  0  0  0  0  0  0  0  0  0  0
  194.5550  175.3900  144.0270 C   0  0  0  0  0  3  0  0  0  0  0  0
  195.7970  175.3790  144.8540 C   0  0  0  0  0  1  0  0  0  0  0  0
  196.0030  175.6840  141.7260 S   0  0  0  0  0  0  0  0  0  0  0  0
  195.6180  175.8100  140.2780 O   0  0  0  0  0  0  0  0  0  0  0  0
  196.7620  176.9220  142.1170 O   0  0  0  0  0  0  0  0  0  0  0  0
  197.0070  174.2820  141.9110 N   0  0  0  0  0  2  0  0  0  0  0  0
  196.1990  173.0970  141.6640 C   0  0  0  0  0  2  0  0  0  0  0  0
  196.1890  172.2020  142.8910 C   0  0  0  0  0  2  0  0  0  0  0  0
  195.4650  170.9010  142.5880 C   0  0  0  0  0  2  0  0  0  0  0  0
  194.0360  171.0790  142.7810 N   0  0  0  0  0  2  0  0  0  0  0  0
  193.8250  171.3200  144.1980 C   0  0  0  0  0  2  0  0  0  0  0  0
  192.8430  172.2980  144.3630 O   0  0  0  0  0  1  0  0  0  0  0  0
  1  4  1  0  0  0  0
  2  1  1  0  0  0  0
  2 16  1  0  0  0  0
  3  2  2  0  0  0  0
  4  5  1  0  0  0  0
  5  6  1  0  0  0  0
  6  7  1  0  0  0  0
  7  8  1  0  0  0  0
  8  9  1  0  0  0  0
 10 11  1  0  0  0  0
 10  9  1  0  0  0  0
 11 12  1  6  0  0  0
 13 11  1  0  0  0  0
 14 15  1  0  0  0  0
 15 13  1  0  0  0  0
 17 21  1  0  0  0  0
 18 26  1  0  0  0  0
 18 25  1  0  0  0  0
 19 18  2  0  0  0  0
 20 28  1  0  0  0  0
 21 30  1  0  0  0  0
 22 24  1  0  0  0  0
 23 21  2  0  0  0  0
 24 20  2  0  0  0  0
 24 19  1  0  0  0  0
 25 17  2  0  0  0  0
 26 23  1  0  0  0  0
 27 22  2  0  0  0  0
 27 29  1  0  0  0  0
 28 26  2  0  0  0  0
 29 16  1  6  0  0  0
 29 20  1  0  0  0  0
 30 31  1  0  0  0  0
 32  1  1  0  0  0  0
 32 33  1  0  0  0  0
 33 35  2  0  0  0  0
 34 36  1  0  0  0  0
 35 34  2  0  0  0  0
 36 37  2  0  0  0  0
 37 38  1  0  0  0  0
 39 42  1  0  0  0  0
 39 41  2  0  0  0  0
 39 36  1  0  0  0  0
 40 39  2  0  0  0  0
 43 42  1  0  0  0  0
 43 44  1  0  0  0  0
 45 46  1  0  0  0  0
 45 44  1  0  0  0  0
 46 47  1  0  0  0  0
 47 48  1  0  0  0  0
M  END
>  <MODEL>
2

>  <REMARK>
 VINA RESULT:      -5.7      2.480      4.955
  Name = 
  23 active torsions:
  status: ('A' for Active; 'I' for Inactive)
    1  A    between atoms: C_3  and  N_17
    2  A    between atoms: C_3  and  C_47
    3  A    between atoms: N_5  and  C_23
    4  A    between atoms: N_5  and  C_29
    5  A    between atoms: C_7  and  O_8
    6  A    between atoms: C_9  and  C_24
    7  A    between atoms: C_9  and  N_43
    8  A    between atoms: C_10  and  N_17
    9  A    between atoms: C_10  and  C_27
   10  A    between atoms: C_12  and  C_13
   11  A    between atoms: C_13  and  N_14
   12  A    between atoms: N_14  and  C_25
   13  A    between atoms: C_16  and  C_19
   14  A    between atoms: C_19  and  C_46
   15  A    between atoms: C_20  and  C_21
   16  A    between atoms: C_20  and  S_28
   17  A    between atoms: C_24  and  C_29
   18  A    between atoms: C_25  and  C_35
   19  A    between atoms: C_27  and  C_35
   20  A    between atoms: S_28  and  N_43
   21  A    between atoms: C_38  and  O_48
   22  A    between atoms: C_39  and  C_47
   23  A    between atoms: C_39  and  O_48
                            x       y       z     vdW  Elec       q    Type
                         _______ _______ _______ _____ _____    ______ ____

>  <TORSDO>
F 23

$$$$
=
 OpenBabel11042416443D

 48 50  0  0  1  0  0  0  0  0999 V2000
  190.4770  175.6220  146.0420 N   0  0  0  0  0  0  0  0  0  0  0  0
  189.2790  175.6860  146.8320 C   0  0  0  0  0  0  0  0  0  0  0  0
  188.7900  174.6280  147.3150 O   0  0  0  0  0  0  0  0  0  0  0  0
  191.2300  176.8300  145.7190 C   0  0  0  0  0  2  0  0  0  0  0  0
  190.7780  177.3990  144.3830 C   0  0  0  0  0  2  0  0  0  0  0  0
  190.9990  176.3990  143.2630 C   0  0  0  0  0  2  0  0  0  0  0  0
  192.4070  176.5390  142.7140 C   0  0  0  0  0  2  0  0  0  0  0  0
  193.0000  175.2250  142.5510 N   0  0  0  0  0  2  0  0  0  0  0  0
  192.3070  174.5920  141.4420 C   0  0  0  0  0  2  0  0  0  0  0  0
  192.6430  173.1110  141.3890 C   0  0  0  0  0  2  0  0  0  0  0  0
  191.7140  172.3690  140.4280 C   0  0  1  0  0  3  0  0  0  0  0  0
  192.3480  171.2690  139.8370 O   0  0  0  0  0  1  0  0  0  0  0  0
  190.4910  172.0040  141.0310 O   0  0  0  0  0  0  0  0  0  0  0  0
  189.6750  171.9290  143.2740 C   0  0  0  0  0  1  0  0  0  0  0  0
  190.7530  171.4790  142.3070 C   0  0  0  0  0  2  0  0  0  0  0  0
  188.6230  177.0020  147.1270 C   0  0  0  0  0  2  0  0  0  0  0  0
  186.5490  177.6630  140.2760 C   0  0  0  0  0  3  0  0  0  0  0  0
  186.4480  178.0390  142.6640 C   0  0  0  0  0  0  0  0  0  0  0  0
  186.0470  178.8250  143.7580 C   0  0  0  0  0  3  0  0  0  0  0  0
  187.0340  177.2040  145.2430 C   0  0  0  0  0  0  0  0  0  0  0  0
  187.2250  176.4470  140.4810 C   0  0  0  0  0  0  0  0  0  0  0  0
  186.0170  178.9510  146.2610 N   0  0  0  0  0  0  0  0  0  0  0  0
  187.5150  176.0280  141.7840 C   0  0  0  0  0  3  0  0  0  0  0  0
  186.3620  178.3610  145.0330 C   0  0  0  0  0  0  0  0  0  0  0  0
  186.1620  178.4540  141.3620 C   0  0  0  0  0  3  0  0  0  0  0  0
  187.1390  176.8110  142.8780 C   0  0  0  0  0  0  0  0  0  0  0  0
  186.4600  178.1470  147.3320 N   0  0  0  0  0  0  0  0  0  0  0  0
  187.4330  176.3850  144.1850 C   0  0  0  0  0  3  0  0  0  0  0  0
  187.1570  176.9960  146.7110 C   0  0  2  0  0  3  0  0  0  0  0  0
  187.6170  175.6380  139.4100 O   0  0  0  0  0  0  0  0  0  0  0  0
  188.3210  174.4170  139.5880 C   0  0  0  0  0  1  0  0  0  0  0  0
  191.0270  174.3320  145.6460 C   0  0  0  0  0  2  0  0  0  0  0  0
  192.4520  174.2310  146.0680 C   0  0  0  0  0  3  0  0  0  0  0  0
  194.1130  172.7470  144.7050 C   0  0  0  0  0  3  0  0  0  0  0  0
  193.2810  173.4900  145.3880 C   0  0  0  0  0  0  0  0  0  0  0  0
  195.4790  172.4260  145.1620 C   0  0  0  0  0  0  0  0  0  0  0  0
  195.8400  171.1520  145.3730 C   0  0  0  0  0  3  0  0  0  0  0  0
  197.1960  170.7200  145.8220 C   0  0  0  0  0  1  0  0  0  0  0  0
  196.5950  173.7810  145.3860 S   0  0  0  0  0  0  0  0  0  0  0  0
  195.8250  175.0660  145.2620 O   0  0  0  0  0  0  0  0  0  0  0  0
  197.2170  173.7400  146.7550 O   0  0  0  0  0  0  0  0  0  0  0  0
  197.8280  173.7540  144.1670 N   0  0  0  0  0  2  0  0  0  0  0  0
  197.4750  174.7130  143.1300 C   0  0  0  0  0  2  0  0  0  0  0  0
  196.7700  174.0110  141.9820 C   0  0  0  0  0  2  0  0  0  0  0  0
  196.5230  174.9830  140.8430 C   0  0  0  0  0  2  0  0  0  0  0  0
  196.5420  174.2720  139.5760 N   0  0  0  0  0  2  0  0  0  0  0  0
  195.7300  175.0380  138.6460 C   0  0  0  0  0  2  0  0  0  0  0  0
  194.4360  174.5160  138.6190 O   0  0  0  0  0  1  0  0  0  0  0  0
  1  2  1  0  0  0  0
  2 16  1  0  0  0  0
  2  3  2  0  0  0  0
  4  1  1  0  0  0  0
  5  4  1  0  0  0  0
  6  5  1  0  0  0  0
  7  6  1  0  0  0  0
  8  7  1  0  0  0  0
  9  8  1  0  0  0  0
 10  9  1  0  0  0  0
 11 12  1  1  0  0  0
 11 13  1  0  0  0  0
 11 10  1  0  0  0  0
 13 15  1  0  0  0  0
 15 14  1  0  0  0  0
 17 21  2  0  0  0  0
 17 25  1  0  0  0  0
 18 26  1  0  0  0  0
 18 19  1  0  0  0  0
 19 24  2  0  0  0  0
 20 29  1  0  0  0  0
 21 23  1  0  0  0  0
 22 27  2  0  0  0  0
 23 26  2  0  0  0  0
 24 20  1  0  0  0  0
 24 22  1  0  0  0  0
 25 18  2  0  0  0  0
 26 28  1  0  0  0  0
 28 20  2  0  0  0  0
 29 16  1  1  0  0  0
 29 27  1  0  0  0  0
 30 31  1  0  0  0  0
 30 21  1  0  0  0  0
 32  1  1  0  0  0  0
 32 33  1  0  0  0  0
 34 36  1  0  0  0  0
 34 35  2  0  0  0  0
 35 33  2  0  0  0  0
 36 37  2  0  0  0  0
 36 39  1  0  0  0  0
 37 38  1  0  0  0  0
 39 41  2  0  0  0  0
 40 39  2  0  0  0  0
 42 39  1  0  0  0  0
 43 42  1  0  0  0  0
 44 43  1  0  0  0  0
 45 44  1  0  0  0  0
 46 45  1  0  0  0  0
 47 46  1  0  0  0  0
 48 47  1  0  0  0  0
M  END
>  <MODEL>
3

>  <REMARK>
 VINA RESULT:      -5.6      2.430      3.422
  Name = 
  23 active torsions:
  status: ('A' for Active; 'I' for Inactive)
    1  A    between atoms: C_3  and  N_17
    2  A    between atoms: C_3  and  C_47
    3  A    between atoms: N_5  and  C_23
    4  A    between atoms: N_5  and  C_29
    5  A    between atoms: C_7  and  O_8
    6  A    between atoms: C_9  and  C_24
    7  A    between atoms: C_9  and  N_43
    8  A    between atoms: C_10  and  N_17
    9  A    between atoms: C_10  and  C_27
   10  A    between atoms: C_12  and  C_13
   11  A    between atoms: C_13  and  N_14
   12  A    between atoms: N_14  and  C_25
   13  A    between atoms: C_16  and  C_19
   14  A    between atoms: C_19  and  C_46
   15  A    between atoms: C_20  and  C_21
   16  A    between atoms: C_20  and  S_28
   17  A    between atoms: C_24  and  C_29
   18  A    between atoms: C_25  and  C_35
   19  A    between atoms: C_27  and  C_35
   20  A    between atoms: S_28  and  N_43
   21  A    between atoms: C_38  and  O_48
   22  A    between atoms: C_39  and  C_47
   23  A    between atoms: C_39  and  O_48
                            x       y       z     vdW  Elec       q    Type
                         _______ _______ _______ _____ _____    ______ ____

>  <TORSDO>
F 23

$$$$
=
 OpenBabel11042416443D

 48 50  0  0  1  0  0  0  0  0999 V2000
  190.6300  175.2930  144.6160 N   0  0  0  0  0  0  0  0  0  0  0  0
  190.0000  174.0060  144.5110 C   0  0  0  0  0  0  0  0  0  0  0  0
  189.7240  173.3570  145.5570 O   0  0  0  0  0  0  0  0  0  0  0  0
  190.6960  176.1930  143.4690 C   0  0  0  0  0  2  0  0  0  0  0  0
  192.1150  176.7050  143.2750 C   0  0  0  0  0  2  0  0  0  0  0  0
  192.9170  175.7650  142.3940 C   0  0  0  0  0  2  0  0  0  0  0  0
  194.3690  175.7540  142.8350 C   0  0  0  0  0  2  0  0  0  0  0  0
  194.4610  176.1620  144.2240 N   0  0  0  0  0  2  0  0  0  0  0  0
  195.2180  175.1290  144.9100 C   0  0  0  0  0  2  0  0  0  0  0  0
  194.2870  174.0290  145.3920 C   0  0  0  0  0  2  0  0  0  0  0  0
  195.0000  172.6760  145.4220 C   0  0  1  0  0  3  0  0  0  0  0  0
  194.1200  171.6300  145.7260 O   0  0  0  0  0  1  0  0  0  0  0  0
  195.7270  172.4210  144.2390 O   0  0  0  0  0  0  0  0  0  0  0  0
  195.5190  170.5760  142.7380 C   0  0  0  0  0  1  0  0  0  0  0  0
  194.8690  171.8250  143.3000 C   0  0  0  0  0  2  0  0  0  0  0  0
  189.6280  173.4400  143.1730 C   0  0  0  0  0  2  0  0  0  0  0  0
  189.6210  171.6400  136.2140 C   0  0  0  0  0  3  0  0  0  0  0  0
  190.0960  171.3630  138.5700 C   0  0  0  0  0  0  0  0  0  0  0  0
  190.3700  170.5300  139.6680 C   0  0  0  0  0  3  0  0  0  0  0  0
  190.5150  172.4820  141.0720 C   0  0  0  0  0  0  0  0  0  0  0  0
  189.5800  173.0370  136.3710 C   0  0  0  0  0  0  0  0  0  0  0  0
  190.9140  170.5130  142.1150 N   0  0  0  0  0  0  0  0  0  0  0  0
  189.7940  173.5970  137.6360 C   0  0  0  0  0  3  0  0  0  0  0  0
  190.5760  171.1400  140.9040 C   0  0  0  0  0  0  0  0  0  0  0  0
  189.8800  170.8080  137.3070 C   0  0  0  0  0  3  0  0  0  0  0  0
  190.0490  172.7780  138.7380 C   0  0  0  0  0  0  0  0  0  0  0  0
  191.1020  171.4760  143.1280 N   0  0  0  0  0  0  0  0  0  0  0  0
  190.2640  173.3460  140.0050 C   0  0  0  0  0  3  0  0  0  0  0  0
  190.8260  172.7870  142.4950 C   0  0  2  0  0  3  0  0  0  0  0  0
  189.3280  173.8870  135.2910 O   0  0  0  0  0  0  0  0  0  0  0  0
  190.2590  174.8670  134.8520 C   0  0  0  0  0  1  0  0  0  0  0  0
  191.1120  175.7710  145.9050 C   0  0  0  0  0  2  0  0  0  0  0  0
  190.3030  176.9380  146.3540 C   0  0  0  0  0  3  0  0  0  0  0  0
  187.7140  176.7120  146.6070 C   0  0  0  0  0  3  0  0  0  0  0  0
  189.0110  176.8250  146.4800 C   0  0  0  0  0  0  0  0  0  0  0  0
  186.8170  177.8580  146.8440 C   0  0  0  0  0  0  0  0  0  0  0  0
  187.0030  178.6550  147.9060 C   0  0  0  0  0  3  0  0  0  0  0  0
  186.1630  179.8450  148.2300 C   0  0  0  0  0  1  0  0  0  0  0  0
  185.5260  178.1310  145.6650 S   0  0  0  0  0  0  0  0  0  0  0  0
  184.2140  177.7430  146.2880 O   0  0  0  0  0  0  0  0  0  0  0  0
  185.4500  179.5830  145.2820 O   0  0  0  0  0  0  0  0  0  0  0  0
  185.7800  177.1510  144.2560 N   0  0  0  0  0  2  0  0  0  0  0  0
  184.9320  177.6510  143.1850 C   0  0  0  0  0  2  0  0  0  0  0  0
  185.7480  178.4880  142.2150 C   0  0  0  0  0  2  0  0  0  0  0  0
  186.2280  177.6330  141.0560 C   0  0  0  0  0  2  0  0  0  0  0  0
  187.6580  177.4030  141.1730 N   0  0  0  0  0  2  0  0  0  0  0  0
  187.8760  175.9790  140.9830 C   0  0  0  0  0  2  0  0  0  0  0  0
  187.2500  175.2710  142.0100 O   0  0  0  0  0  1  0  0  0  0  0  0
  1 32  1  0  0  0  0
  2  1  1  0  0  0  0
  2  3  2  0  0  0  0
  4  1  1  0  0  0  0
  5  4  1  0  0  0  0
  6  7  1  0  0  0  0
  6  5  1  0  0  0  0
  7  8  1  0  0  0  0
  8  9  1  0  0  0  0
  9 10  1  0  0  0  0
 10 11  1  0  0  0  0
 11 12  1  6  0  0  0
 13 11  1  0  0  0  0
 14 15  1  0  0  0  0
 15 13  1  0  0  0  0
 16  2  1  0  0  0  0
 17 21  2  0  0  0  0
 17 25  1  0  0  0  0
 18 26  1  0  0  0  0
 18 19  1  0  0  0  0
 19 24  2  0  0  0  0
 20 29  1  0  0  0  0
 21 23  1  0  0  0  0
 22 27  2  0  0  0  0
 23 26  2  0  0  0  0
 24 20  1  0  0  0  0
 24 22  1  0  0  0  0
 25 18  2  0  0  0  0
 26 28  1  0  0  0  0
 28 20  2  0  0  0  0
 29 27  1  0  0  0  0
 29 16  1  1  0  0  0
 30 21  1  0  0  0  0
 31 30  1  0  0  0  0
 32 33  1  0  0  0  0
 33 35  2  0  0  0  0
 34 36  1  0  0  0  0
 35 34  2  0  0  0  0
 36 37  2  0  0  0  0
 37 38  1  0  0  0  0
 39 40  2  0  0  0  0
 39 36  1  0  0  0  0
 41 39  2  0  0  0  0
 42 39  1  0  0  0  0
 43 42  1  0  0  0  0
 44 43  1  0  0  0  0
 45 46  1  0  0  0  0
 45 44  1  0  0  0  0
 47 46  1  0  0  0  0
 47 48  1  0  0  0  0
M  END
>  <MODEL>
4

>  <REMARK>
 VINA RESULT:      -5.5      3.110      8.139
  Name = 
  23 active torsions:
  status: ('A' for Active; 'I' for Inactive)
    1  A    between atoms: C_3  and  N_17
    2  A    between atoms: C_3  and  C_47
    3  A    between atoms: N_5  and  C_23
    4  A    between atoms: N_5  and  C_29
    5  A    between atoms: C_7  and  O_8
    6  A    between atoms: C_9  and  C_24
    7  A    between atoms: C_9  and  N_43
    8  A    between atoms: C_10  and  N_17
    9  A    between atoms: C_10  and  C_27
   10  A    between atoms: C_12  and  C_13
   11  A    between atoms: C_13  and  N_14
   12  A    between atoms: N_14  and  C_25
   13  A    between atoms: C_16  and  C_19
   14  A    between atoms: C_19  and  C_46
   15  A    between atoms: C_20  and  C_21
   16  A    between atoms: C_20  and  S_28
   17  A    between atoms: C_24  and  C_29
   18  A    between atoms: C_25  and  C_35
   19  A    between atoms: C_27  and  C_35
   20  A    between atoms: S_28  and  N_43
   21  A    between atoms: C_38  and  O_48
   22  A    between atoms: C_39  and  C_47
   23  A    between atoms: C_39  and  O_48
                            x       y       z     vdW  Elec       q    Type
                         _______ _______ _______ _____ _____    ______ ____

>  <TORSDO>
F 23

$$$$
=
 OpenBabel11042416443D

 48 50  0  0  1  0  0  0  0  0999 V2000
  196.2840  173.7930  144.3670 N   0  0  0  0  0  0  0  0  0  0  0  0
  196.7850  174.6980  143.3700 C   0  0  0  0  0  0  0  0  0  0  0  0
  197.3080  175.7910  143.7230 O   0  0  0  0  0  0  0  0  0  0  0  0
  195.9480  172.4140  144.0300 C   0  0  0  0  0  2  0  0  0  0  0  0
  195.5010  171.6550  145.2700 C   0  0  0  0  0  2  0  0  0  0  0  0
  194.0510  171.2230  145.1500 C   0  0  0  0  0  2  0  0  0  0  0  0
  193.9760  169.7510  144.7890 C   0  0  0  0  0  2  0  0  0  0  0  0
  192.6980  169.4650  144.1650 N   0  0  0  0  0  2  0  0  0  0  0  0
  192.6540  170.2430  142.9370 C   0  0  0  0  0  2  0  0  0  0  0  0
  192.7230  169.3220  141.7310 C   0  0  0  0  0  2  0  0  0  0  0  0
  192.2330  170.0310  140.4670 C   0  0  1  0  0  3  0  0  0  0  0  0
  193.1740  169.9600  139.4330 O   0  0  0  0  0  1  0  0  0  0  0  0
  190.9620  169.5790  140.0500 O   0  0  0  0  0  0  0  0  0  0  0  0
  189.7120  169.8750  138.0380 C   0  0  0  0  0  1  0  0  0  0  0  0
  190.9930  169.3580  138.6640 C   0  0  0  0  0  2  0  0  0  0  0  0
  196.7340  174.3420  141.9150 C   0  0  0  0  0  2  0  0  0  0  0  0
  189.9290  172.9000  140.1020 C   0  0  0  0  0  3  0  0  0  0  0  0
  192.1690  173.7570  139.7830 C   0  0  0  0  0  0  0  0  0  0  0  0
  193.2190  174.1340  138.9290 C   0  0  0  0  0  3  0  0  0  0  0  0
  194.5310  174.7320  140.8600 C   0  0  0  0  0  0  0  0  0  0  0  0
  190.0590  173.0350  141.4960 C   0  0  0  0  0  0  0  0  0  0  0  0
  195.5300  175.1010  138.8630 N   0  0  0  0  0  0  0  0  0  0  0  0
  191.2530  173.5300  142.0330 C   0  0  0  0  0  3  0  0  0  0  0  0
  194.3850  174.6210  139.5180 C   0  0  0  0  0  0  0  0  0  0  0  0
  190.9770  173.2610  139.2510 C   0  0  0  0  0  3  0  0  0  0  0  0
  192.3100  173.8900  141.1950 C   0  0  0  0  0  0  0  0  0  0  0  0
  196.4720  175.5680  139.8030 N   0  0  0  0  0  0  0  0  0  0  0  0
  193.5060  174.3870  141.7410 C   0  0  0  0  0  3  0  0  0  0  0  0
  195.8680  175.3240  141.1340 C   0  0  2  0  0  3  0  0  0  0  0  0
  189.0220  172.6850  142.3640 O   0  0  0  0  0  0  0  0  0  0  0  0
  189.2460  172.0150  143.5970 C   0  0  0  0  0  1  0  0  0  0  0  0
  196.2110  174.2060  145.7630 C   0  0  0  0  0  2  0  0  0  0  0  0
  195.1550  175.2420  145.9360 C   0  0  0  0  0  3  0  0  0  0  0  0
  192.6570  174.6510  145.4610 C   0  0  0  0  0  3  0  0  0  0  0  0
  193.9080  174.9470  145.6990 C   0  0  0  0  0  0  0  0  0  0  0  0
  191.5790  175.6560  145.4070 C   0  0  0  0  0  0  0  0  0  0  0  0
  191.5950  176.6170  144.4720 C   0  0  0  0  0  3  0  0  0  0  0  0
  190.5500  177.6710  144.3230 C   0  0  0  0  0  1  0  0  0  0  0  0
  190.2820  175.5140  146.6020 S   0  0  0  0  0  0  0  0  0  0  0  0
  189.4760  174.2820  146.2960 O   0  0  0  0  0  0  0  0  0  0  0  0
  190.8460  175.3710  147.9890 O   0  0  0  0  0  0  0  0  0  0  0  0
  189.2340  176.8940  146.5210 N   0  0  0  0  0  2  0  0  0  0  0  0
  187.8740  176.4610  146.8040 C   0  0  0  0  0  2  0  0  0  0  0  0
  186.8940  177.5860  146.5180 C   0  0  0  0  0  2  0  0  0  0  0  0
  185.6210  177.3930  147.3240 C   0  0  0  0  0  2  0  0  0  0  0  0
  184.4660  177.4750  146.4460 N   0  0  0  0  0  2  0  0  0  0  0  0
  184.4480  178.8190  145.8940 C   0  0  0  0  0  2  0  0  0  0  0  0
  183.9470  178.7800  144.5920 O   0  0  0  0  0  1  0  0  0  0  0  0
  1 32  1  0  0  0  0
  2  3  2  0  0  0  0
  2  1  1  0  0  0  0
  4  1  1  0  0  0  0
  4  5  1  0  0  0  0
  6  5  1  0  0  0  0
  7  6  1  0  0  0  0
  8  7  1  0  0  0  0
  9  8  1  0  0  0  0
 10  9  1  0  0  0  0
 11 12  1  6  0  0  0
 11 10  1  0  0  0  0
 13 11  1  0  0  0  0
 14 15  1  0  0  0  0
 15 13  1  0  0  0  0
 16  2  1  0  0  0  0
 17 21  1  0  0  0  0
 18 26  1  0  0  0  0
 19 24  1  0  0  0  0
 19 18  2  0  0  0  0
 20 29  1  0  0  0  0
 20 28  1  0  0  0  0
 21 23  2  0  0  0  0
 21 30  1  0  0  0  0
 22 24  1  0  0  0  0
 22 27  2  0  0  0  0
 24 20  2  0  0  0  0
 25 18  1  0  0  0  0
 25 17  2  0  0  0  0
 26 28  2  0  0  0  0
 26 23  1  0  0  0  0
 27 29  1  0  0  0  0
 29 16  1  1  0  0  0
 30 31  1  0  0  0  0
 32 33  1  0  0  0  0
 34 35  2  0  0  0  0
 35 33  2  0  0  0  0
 36 34  1  0  0  0  0
 36 39  1  0  0  0  0
 37 36  2  0  0  0  0
 38 37  1  0  0  0  0
 39 41  2  0  0  0  0
 40 39  2  0  0  0  0
 42 39  1  0  0  0  0
 42 43  1  0  0  0  0
 44 43  1  0  0  0  0
 44 45  1  0  0  0  0
 46 45  1  0  0  0  0
 47 46  1  0  0  0  0
 48 47  1  0  0  0  0
M  END
>  <MODEL>
5

>  <REMARK>
 VINA RESULT:      -5.4      2.949      7.970
  Name = 
  23 active torsions:
  status: ('A' for Active; 'I' for Inactive)
    1  A    between atoms: C_3  and  N_17
    2  A    between atoms: C_3  and  C_47
    3  A    between atoms: N_5  and  C_23
    4  A    between atoms: N_5  and  C_29
    5  A    between atoms: C_7  and  O_8
    6  A    between atoms: C_9  and  C_24
    7  A    between atoms: C_9  and  N_43
    8  A    between atoms: C_10  and  N_17
    9  A    between atoms: C_10  and  C_27
   10  A    between atoms: C_12  and  C_13
   11  A    between atoms: C_13  and  N_14
   12  A    between atoms: N_14  and  C_25
   13  A    between atoms: C_16  and  C_19
   14  A    between atoms: C_19  and  C_46
   15  A    between atoms: C_20  and  C_21
   16  A    between atoms: C_20  and  S_28
   17  A    between atoms: C_24  and  C_29
   18  A    between atoms: C_25  and  C_35
   19  A    between atoms: C_27  and  C_35
   20  A    between atoms: S_28  and  N_43
   21  A    between atoms: C_38  and  O_48
   22  A    between atoms: C_39  and  C_47
   23  A    between atoms: C_39  and  O_48
                            x       y       z     vdW  Elec       q    Type
                         _______ _______ _______ _____ _____    ______ ____

>  <TORSDO>
F 23

$$$$
=
 OpenBabel11042416443D

 48 50  0  0  1  0  0  0  0  0999 V2000
  192.2440  172.3060  144.3040 N   0  0  0  0  0  0  0  0  0  0  0  0
  190.9130  172.8400  144.4040 C   0  0  0  0  0  0  0  0  0  0  0  0
  189.9220  172.0600  144.3710 O   0  0  0  0  0  0  0  0  0  0  0  0
  193.4070  173.1230  144.6310 C   0  0  0  0  0  2  0  0  0  0  0  0
  194.3130  172.3920  145.6100 C   0  0  0  0  0  2  0  0  0  0  0  0
  195.7620  172.4530  145.1620 C   0  0  0  0  0  2  0  0  0  0  0  0
  196.5110  173.4970  145.9700 C   0  0  0  0  0  2  0  0  0  0  0  0
  197.6250  174.0090  145.1940 N   0  0  0  0  0  2  0  0  0  0  0  0
  197.2480  173.8820  143.7960 C   0  0  0  0  0  2  0  0  0  0  0  0
  197.5210  175.1820  143.0590 C   0  0  0  0  0  2  0  0  0  0  0  0
  196.2390  175.9990  142.8890 C   0  0  1  0  0  3  0  0  0  0  0  0
  196.0590  176.9090  143.9380 O   0  0  0  0  0  1  0  0  0  0  0  0
  196.1620  176.6310  141.6290 O   0  0  0  0  0  0  0  0  0  0  0  0
  194.2790  175.1700  141.4790 C   0  0  0  0  0  1  0  0  0  0  0  0
  194.8430  176.5410  141.1560 C   0  0  0  0  0  2  0  0  0  0  0  0
  190.6880  174.3100  144.5930 C   0  0  0  0  0  2  0  0  0  0  0  0
  185.3290  179.0110  143.6670 C   0  0  0  0  0  3  0  0  0  0  0  0
  187.0830  177.8650  144.8790 C   0  0  0  0  0  0  0  0  0  0  0  0
  188.0200  177.8340  145.9250 C   0  0  0  0  0  3  0  0  0  0  0  0
  188.6910  175.6320  145.2130 C   0  0  0  0  0  0  0  0  0  0  0  0
  185.1870  177.9100  142.8030 C   0  0  0  0  0  0  0  0  0  0  0  0
  189.7570  176.4190  147.0480 N   0  0  0  0  0  0  0  0  0  0  0  0
  185.9990  176.7840  142.9780 C   0  0  0  0  0  3  0  0  0  0  0  0
  188.8030  176.6880  146.0530 C   0  0  0  0  0  0  0  0  0  0  0  0
  186.2710  178.9870  144.7000 C   0  0  0  0  0  3  0  0  0  0  0  0
  186.9480  176.7490  144.0020 C   0  0  0  0  0  0  0  0  0  0  0  0
  190.2920  175.1250  146.8760 N   0  0  0  0  0  0  0  0  0  0  0  0
  187.7600  175.6160  144.1730 C   0  0  0  0  0  3  0  0  0  0  0  0
  189.6380  174.5760  145.6650 C   0  0  2  0  0  3  0  0  0  0  0  0
  184.2480  177.9100  141.7670 O   0  0  0  0  0  0  0  0  0  0  0  0
  184.5640  178.3230  140.4450 C   0  0  0  0  0  1  0  0  0  0  0  0
  192.4470  170.9000  143.9830 C   0  0  0  0  0  2  0  0  0  0  0  0
  192.7800  170.7470  142.5390 C   0  0  0  0  0  3  0  0  0  0  0  0
  190.9130  171.0180  140.7340 C   0  0  0  0  0  3  0  0  0  0  0  0
  191.8480  170.8820  141.6380 C   0  0  0  0  0  0  0  0  0  0  0  0
  191.1040  170.6840  139.3100 C   0  0  0  0  0  0  0  0  0  0  0  0
  190.3510  169.7390  138.7290 C   0  0  0  0  0  3  0  0  0  0  0  0
  190.4550  169.3350  137.2960 C   0  0  0  0  0  1  0  0  0  0  0  0
  192.3360  171.5960  138.4250 S   0  0  0  0  0  0  0  0  0  0  0  0
  192.8010  172.7380  139.2850 O   0  0  0  0  0  0  0  0  0  0  0  0
  193.5250  170.7280  138.1170 O   0  0  0  0  0  0  0  0  0  0  0  0
  191.6700  172.2420  136.9600 N   0  0  0  0  0  2  0  0  0  0  0  0
  191.5780  173.6890  137.0910 C   0  0  0  0  0  2  0  0  0  0  0  0
  190.1370  174.1410  136.9280 C   0  0  0  0  0  2  0  0  0  0  0  0
  189.1910  172.9690  137.1270 C   0  0  0  0  0  2  0  0  0  0  0  0
  188.1560  173.3290  138.0790 N   0  0  0  0  0  2  0  0  0  0  0  0
  188.8270  173.7720  139.2890 C   0  0  0  0  0  2  0  0  0  0  0  0
  188.2070  173.2030  140.4010 O   0  0  0  0  0  1  0  0  0  0  0  0
  1  2  1  0  0  0  0
  1  4  1  0  0  0  0
  2 16  1  0  0  0  0
  3  2  2  0  0  0  0
  4  5  1  0  0  0  0
  6  5  1  0  0  0  0
  6  7  1  0  0  0  0
  8  7  1  0  0  0  0
  9  8  1  0  0  0  0
 10  9  1  0  0  0  0
 11 10  1  0  0  0  0
 11 12  1  1  0  0  0
 13 11  1  0  0  0  0
 15 14  1  0  0  0  0
 15 13  1  0  0  0  0
 17 25  1  0  0  0  0
 18 19  1  0  0  0  0
 19 24  2  0  0  0  0
 20 29  1  0  0  0  0
 20 24  1  0  0  0  0
 21 23  1  0  0  0  0
 21 17  2  0  0  0  0
 23 26  2  0  0  0  0
 24 22  1  0  0  0  0
 25 18  2  0  0  0  0
 26 28  1  0  0  0  0
 26 18  1  0  0  0  0
 27 22  2  0  0  0  0
 28 20  2  0  0  0  0
 29 16  1  6  0  0  0
 29 27  1  0  0  0  0
 30 21  1  0  0  0  0
 31 30  1  0  0  0  0
 32  1  1  0  0  0  0
 33 32  1  0  0  0  0
 34 35  2  0  0  0  0
 35 33  2  0  0  0  0
 36 34  1  0  0  0  0
 37 36  2  0  0  0  0
 38 37  1  0  0  0  0
 39 40  2  0  0  0  0
 39 36  1  0  0  0  0
 41 39  2  0  0  0  0
 42 43  1  0  0  0  0
 42 39  1  0  0  0  0
 44 43  1  0  0  0  0
 44 45  1  0  0  0  0
 45 46  1  0  0  0  0
 46 47  1  0  0  0  0
 47 48  1  0  0  0  0
M  END
>  <MODEL>
6

>  <REMARK>
 VINA RESULT:      -5.3      2.570      6.080
  Name = 
  23 active torsions:
  status: ('A' for Active; 'I' for Inactive)
    1  A    between atoms: C_3  and  N_17
    2  A    between atoms: C_3  and  C_47
    3  A    between atoms: N_5  and  C_23
    4  A    between atoms: N_5  and  C_29
    5  A    between atoms: C_7  and  O_8
    6  A    between atoms: C_9  and  C_24
    7  A    between atoms: C_9  and  N_43
    8  A    between atoms: C_10  and  N_17
    9  A    between atoms: C_10  and  C_27
   10  A    between atoms: C_12  and  C_13
   11  A    between atoms: C_13  and  N_14
   12  A    between atoms: N_14  and  C_25
   13  A    between atoms: C_16  and  C_19
   14  A    between atoms: C_19  and  C_46
   15  A    between atoms: C_20  and  C_21
   16  A    between atoms: C_20  and  S_28
   17  A    between atoms: C_24  and  C_29
   18  A    between atoms: C_25  and  C_35
   19  A    between atoms: C_27  and  C_35
   20  A    between atoms: S_28  and  N_43
   21  A    between atoms: C_38  and  O_48
   22  A    between atoms: C_39  and  C_47
   23  A    between atoms: C_39  and  O_48
                            x       y       z     vdW  Elec       q    Type
                         _______ _______ _______ _____ _____    ______ ____

>  <TORSDO>
F 23

$$$$
=
 OpenBabel11042416443D

 48 50  0  0  1  0  0  0  0  0999 V2000
  188.0200  176.5470  143.4780 N   0  0  0  0  0  0  0  0  0  0  0  0
  189.4140  176.8530  143.6460 C   0  0  0  0  0  0  0  0  0  0  0  0
  190.2760  176.2470  142.9510 O   0  0  0  0  0  0  0  0  0  0  0  0
  186.9880  177.4160  144.0330 C   0  0  0  0  0  2  0  0  0  0  0  0
  185.6170  177.0190  143.5080 C   0  0  0  0  0  2  0  0  0  0  0  0
  184.9790  178.1570  142.7330 C   0  0  0  0  0  2  0  0  0  0  0  0
  185.1830  177.9490  141.2440 C   0  0  0  0  0  2  0  0  0  0  0  0
  184.0490  178.4850  140.5160 N   0  0  0  0  0  2  0  0  0  0  0  0
  182.8840  178.2920  141.3630 C   0  0  0  0  0  2  0  0  0  0  0  0
  181.6300  178.1760  140.5120 C   0  0  0  0  0  2  0  0  0  0  0  0
  180.4260  178.8050  141.2150 C   0  0  1  0  0  3  0  0  0  0  0  0
  180.2750  180.1560  140.8770 O   0  0  0  0  0  1  0  0  0  0  0  0
  179.2360  178.0770  141.0050 O   0  0  0  0  0  0  0  0  0  0  0  0
  178.4010  178.6580  143.1660 C   0  0  0  0  0  1  0  0  0  0  0  0
  178.8140  177.5370  142.2310 C   0  0  0  0  0  2  0  0  0  0  0  0
  189.8560  177.9160  144.6060 C   0  0  0  0  0  2  0  0  0  0  0  0
  195.6510  173.6730  144.9110 C   0  0  0  0  0  3  0  0  0  0  0  0
  193.4100  174.4000  145.4630 C   0  0  0  0  0  0  0  0  0  0  0  0
  192.1160  174.1130  145.9270 C   0  0  0  0  0  3  0  0  0  0  0  0
  191.5380  176.4360  145.6560 C   0  0  0  0  0  0  0  0  0  0  0  0
  196.0090  174.9880  144.5660 C   0  0  0  0  0  0  0  0  0  0  0  0
  189.8930  175.1240  146.4900 N   0  0  0  0  0  0  0  0  0  0  0  0
  195.0610  176.0120  144.6680 C   0  0  0  0  0  3  0  0  0  0  0  0
  191.2120  175.1700  146.0090 C   0  0  0  0  0  0  0  0  0  0  0  0
  194.3590  173.3810  145.3590 C   0  0  0  0  0  3  0  0  0  0  0  0
  193.7650  175.7350  145.1090 C   0  0  0  0  0  0  0  0  0  0  0  0
  189.3210  176.4130  146.4750 N   0  0  0  0  0  0  0  0  0  0  0  0
  192.8180  176.7670  145.2100 C   0  0  0  0  0  3  0  0  0  0  0  0
  190.3590  177.3080  145.9110 C   0  0  2  0  0  3  0  0  0  0  0  0
  197.2960  175.3020  144.1210 O   0  0  0  0  0  0  0  0  0  0  0  0
  197.5380  176.1320  142.9930 C   0  0  0  0  0  1  0  0  0  0  0  0
  187.6110  175.4220  142.6470 C   0  0  0  0  0  2  0  0  0  0  0  0
  188.0590  175.6320  141.2430 C   0  0  0  0  0  3  0  0  0  0  0  0
  188.5860  173.5770  139.7200 C   0  0  0  0  0  3  0  0  0  0  0  0
  188.3230  174.6060  140.4830 C   0  0  0  0  0  0  0  0  0  0  0  0
  189.2260  173.6880  138.3960 C   0  0  0  0  0  0  0  0  0  0  0  0
  188.5910  174.2980  137.3860 C   0  0  0  0  0  3  0  0  0  0  0  0
  189.1530  174.4750  136.0150 C   0  0  0  0  0  1  0  0  0  0  0  0
  190.8520  173.0100  138.2260 S   0  0  0  0  0  0  0  0  0  0  0  0
  190.8520  172.0380  137.0800 O   0  0  0  0  0  0  0  0  0  0  0  0
  191.8530  174.0910  137.9220 O   0  0  0  0  0  0  0  0  0  0  0  0
  191.3050  172.1620  139.6700 N   0  0  0  0  0  2  0  0  0  0  0  0
  192.3530  172.9170  140.3410 C   0  0  0  0  0  2  0  0  0  0  0  0
  192.4510  172.5000  141.7980 C   0  0  0  0  0  2  0  0  0  0  0  0
  191.1000  172.0200  142.3000 C   0  0  0  0  0  2  0  0  0  0  0  0
  190.3830  173.1250  142.9140 N   0  0  0  0  0  2  0  0  0  0  0  0
  189.4760  172.5510  143.8930 C   0  0  0  0  0  2  0  0  0  0  0  0
  190.1480  171.5800  144.6360 O   0  0  0  0  0  1  0  0  0  0  0  0
  1  2  1  0  0  0  0
  1  4  1  0  0  0  0
  2 16  1  0  0  0  0
  3  2  2  0  0  0  0
  5  4  1  0  0  0  0
  6  5  1  0  0  0  0
  7  6  1  0  0  0  0
  8  7  1  0  0  0  0
  8  9  1  0  0  0  0
 10 11  1  0  0  0  0
 10  9  1  0  0  0  0
 11 12  1  6  0  0  0
 13 11  1  0  0  0  0
 13 15  1  0  0  0  0
 15 14  1  0  0  0  0
 17 25  1  0  0  0  0
 18 19  1  0  0  0  0
 19 24  2  0  0  0  0
 20 29  1  0  0  0  0
 20 24  1  0  0  0  0
 21 23  1  0  0  0  0
 21 17  2  0  0  0  0
 23 26  2  0  0  0  0
 24 22  1  0  0  0  0
 25 18  2  0  0  0  0
 26 28  1  0  0  0  0
 26 18  1  0  0  0  0
 27 22  2  0  0  0  0
 28 20  2  0  0  0  0
 29 16  1  6  0  0  0
 29 27  1  0  0  0  0
 30 21  1  0  0  0  0
 31 30  1  0  0  0  0
 32  1  1  0  0  0  0
 33 32  1  0  0  0  0
 34 35  2  0  0  0  0
 35 33  2  0  0  0  0
 36 34  1  0  0  0  0
 37 36  2  0  0  0  0
 38 37  1  0  0  0  0
 39 36  1  0  0  0  0
 39 42  1  0  0  0  0
 40 39  2  0  0  0  0
 41 39  2  0  0  0  0
 42 43  1  0  0  0  0
 43 44  1  0  0  0  0
 44 45  1  0  0  0  0
 45 46  1  0  0  0  0
 46 47  1  0  0  0  0
 47 48  1  0  0  0  0
M  END
>  <MODEL>
7

>  <REMARK>
 VINA RESULT:      -5.3      2.375      9.117
  Name = 
  23 active torsions:
  status: ('A' for Active; 'I' for Inactive)
    1  A    between atoms: C_3  and  N_17
    2  A    between atoms: C_3  and  C_47
    3  A    between atoms: N_5  and  C_23
    4  A    between atoms: N_5  and  C_29
    5  A    between atoms: C_7  and  O_8
    6  A    between atoms: C_9  and  C_24
    7  A    between atoms: C_9  and  N_43
    8  A    between atoms: C_10  and  N_17
    9  A    between atoms: C_10  and  C_27
   10  A    between atoms: C_12  and  C_13
   11  A    between atoms: C_13  and  N_14
   12  A    between atoms: N_14  and  C_25
   13  A    between atoms: C_16  and  C_19
   14  A    between atoms: C_19  and  C_46
   15  A    between atoms: C_20  and  C_21
   16  A    between atoms: C_20  and  S_28
   17  A    between atoms: C_24  and  C_29
   18  A    between atoms: C_25  and  C_35
   19  A    between atoms: C_27  and  C_35
   20  A    between atoms: S_28  and  N_43
   21  A    between atoms: C_38  and  O_48
   22  A    between atoms: C_39  and  C_47
   23  A    between atoms: C_39  and  O_48
                            x       y       z     vdW  Elec       q    Type
                         _______ _______ _______ _____ _____    ______ ____

>  <TORSDO>
F 23

$$$$
=
 OpenBabel11042416443D

 48 50  0  0  1  0  0  0  0  0999 V2000
  191.2530  175.2330  145.3020 N   0  0  0  0  0  0  0  0  0  0  0  0
  190.5380  174.1470  144.6910 C   0  0  0  0  0  0  0  0  0  0  0  0
  189.8180  173.3930  145.4010 O   0  0  0  0  0  0  0  0  0  0  0  0
  191.8490  176.2900  144.4930 C   0  0  0  0  0  2  0  0  0  0  0  0
  193.0890  176.8490  145.1750 C   0  0  0  0  0  2  0  0  0  0  0  0
  194.3520  176.2380  144.5960 C   0  0  0  0  0  2  0  0  0  0  0  0
  194.0210  175.4660  143.3310 C   0  0  0  0  0  2  0  0  0  0  0  0
  195.2390  175.2030  142.5870 N   0  0  0  0  0  2  0  0  0  0  0  0
  195.3870  173.7580  142.5330 C   0  0  0  0  0  2  0  0  0  0  0  0
  194.2570  173.0870  143.2950 C   0  0  0  0  0  2  0  0  0  0  0  0
  194.2710  171.5720  143.0800 C   0  0  1  0  0  3  0  0  0  0  0  0
  195.5550  171.1020  142.7760 O   0  0  0  0  0  1  0  0  0  0  0  0
  193.6980  170.8670  144.1590 O   0  0  0  0  0  0  0  0  0  0  0  0
  192.2080  169.9560  142.5300 C   0  0  0  0  0  1  0  0  0  0  0  0
  192.3410  170.6360  143.8800 C   0  0  0  0  0  2  0  0  0  0  0  0
  190.6020  173.9230  143.2100 C   0  0  0  0  0  2  0  0  0  0  0  0
  189.5890  171.8080  136.4150 C   0  0  0  0  0  3  0  0  0  0  0  0
  189.1300  173.0600  138.4340 C   0  0  0  0  0  0  0  0  0  0  0  0
  188.5710  174.1790  139.0720 C   0  0  0  0  0  3  0  0  0  0  0  0
  189.3160  173.3030  141.1900 C   0  0  0  0  0  0  0  0  0  0  0  0
  190.2220  170.8010  137.1650 C   0  0  0  0  0  0  0  0  0  0  0  0
  188.1630  175.2480  141.3030 N   0  0  0  0  0  0  0  0  0  0  0  0
  190.3110  170.9280  138.5560 C   0  0  0  0  0  3  0  0  0  0  0  0
  188.6880  174.2550  140.4590 C   0  0  0  0  0  0  0  0  0  0  0  0
  189.0450  172.9300  137.0460 C   0  0  0  0  0  3  0  0  0  0  0  0
  189.7760  172.0460  139.2000 C   0  0  0  0  0  0  0  0  0  0  0  0
  188.4360  174.9390  142.6510 N   0  0  0  0  0  0  0  0  0  0  0  0
  189.8680  172.1670  140.5970 C   0  0  0  0  0  3  0  0  0  0  0  0
  189.2160  173.6780  142.6260 C   0  0  2  0  0  3  0  0  0  0  0  0
  190.7690  169.6680  136.5550 O   0  0  0  0  0  0  0  0  0  0  0  0
  191.5400  169.7350  135.3640 C   0  0  0  0  0  1  0  0  0  0  0  0
  191.2960  175.3590  146.7530 C   0  0  0  0  0  2  0  0  0  0  0  0
  190.4480  176.5010  147.1940 C   0  0  0  0  0  3  0  0  0  0  0  0
  187.8820  176.4850  146.7110 C   0  0  0  0  0  3  0  0  0  0  0  0
  189.1680  176.4930  146.9520 C   0  0  0  0  0  0  0  0  0  0  0  0
  187.0070  177.6530  146.9240 C   0  0  0  0  0  0  0  0  0  0  0  0
  187.1610  178.4250  148.0090 C   0  0  0  0  0  3  0  0  0  0  0  0
  186.3390  179.6330  148.3130 C   0  0  0  0  0  1  0  0  0  0  0  0
  185.7880  177.9850  145.6850 S   0  0  0  0  0  0  0  0  0  0  0  0
  184.4770  177.3960  146.1280 O   0  0  0  0  0  0  0  0  0  0  0  0
  185.5970  179.4670  145.5060 O   0  0  0  0  0  0  0  0  0  0  0  0
  186.2430  177.2530  144.1800 N   0  0  0  0  0  2  0  0  0  0  0  0
  186.2910  178.2880  143.1570 C   0  0  0  0  0  2  0  0  0  0  0  0
  184.9660  178.3590  142.4190 C   0  0  0  0  0  2  0  0  0  0  0  0
  185.1600  178.0120  140.9530 C   0  0  0  0  0  2  0  0  0  0  0  0
  183.9420  178.2970  140.2150 N   0  0  0  0  0  2  0  0  0  0  0  0
  182.8520  178.2870  141.1740 C   0  0  0  0  0  2  0  0  0  0  0  0
  181.6440  178.5010  140.5090 O   0  0  0  0  0  1  0  0  0  0  0  0
  1 32  1  0  0  0  0
  2  1  1  0  0  0  0
  2  3  2  0  0  0  0
  4  5  1  0  0  0  0
  4  1  1  0  0  0  0
  6  5  1  0  0  0  0
  7  6  1  0  0  0  0
  8  7  1  0  0  0  0
  9  8  1  0  0  0  0
  9 10  1  0  0  0  0
 11 12  1  1  0  0  0
 11 10  1  0  0  0  0
 11 13  1  0  0  0  0
 14 15  1  0  0  0  0
 15 13  1  0  0  0  0
 16  2  1  0  0  0  0
 17 25  2  0  0  0  0
 17 21  1  0  0  0  0
 18 19  2  0  0  0  0
 18 26  1  0  0  0  0
 19 24  1  0  0  0  0
 20 29  1  0  0  0  0
 21 23  2  0  0  0  0
 22 27  2  0  0  0  0
 23 26  1  0  0  0  0
 24 20  2  0  0  0  0
 24 22  1  0  0  0  0
 25 18  1  0  0  0  0
 26 28  2  0  0  0  0
 28 20  1  0  0  0  0
 29 27  1  0  0  0  0
 29 16  1  6  0  0  0
 30 21  1  0  0  0  0
 31 30  1  0  0  0  0
 32 33  1  0  0  0  0
 34 36  1  0  0  0  0
 34 35  2  0  0  0  0
 35 33  2  0  0  0  0
 36 37  2  0  0  0  0
 37 38  1  0  0  0  0
 39 40  2  0  0  0  0
 39 36  1  0  0  0  0
 41 39  2  0  0  0  0
 42 39  1  0  0  0  0
 43 42  1  0  0  0  0
 44 43  1  0  0  0  0
 45 44  1  0  0  0  0
 46 45  1  0  0  0  0
 46 47  1  0  0  0  0
 48 47  1  0  0  0  0
M  END
>  <MODEL>
8

>  <REMARK>
 VINA RESULT:      -5.3      3.039      8.325
  Name = 
  23 active torsions:
  status: ('A' for Active; 'I' for Inactive)
    1  A    between atoms: C_3  and  N_17
    2  A    between atoms: C_3  and  C_47
    3  A    between atoms: N_5  and  C_23
    4  A    between atoms: N_5  and  C_29
    5  A    between atoms: C_7  and  O_8
    6  A    between atoms: C_9  and  C_24
    7  A    between atoms: C_9  and  N_43
    8  A    between atoms: C_10  and  N_17
    9  A    between atoms: C_10  and  C_27
   10  A    between atoms: C_12  and  C_13
   11  A    between atoms: C_13  and  N_14
   12  A    between atoms: N_14  and  C_25
   13  A    between atoms: C_16  and  C_19
   14  A    between atoms: C_19  and  C_46
   15  A    between atoms: C_20  and  C_21
   16  A    between atoms: C_20  and  S_28
   17  A    between atoms: C_24  and  C_29
   18  A    between atoms: C_25  and  C_35
   19  A    between atoms: C_27  and  C_35
   20  A    between atoms: S_28  and  N_43
   21  A    between atoms: C_38  and  O_48
   22  A    between atoms: C_39  and  C_47
   23  A    between atoms: C_39  and  O_48
                            x       y       z     vdW  Elec       q    Type
                         _______ _______ _______ _____ _____    ______ ____

>  <TORSDO>
F 23

$$$$
=
 OpenBabel11042416443D

 48 50  0  0  1  0  0  0  0  0999 V2000
  189.9800  176.0100  146.0780 N   0  0  0  0  0  0  0  0  0  0  0  0
  188.7130  175.9530  146.7540 C   0  0  0  0  0  0  0  0  0  0  0  0
  188.4450  174.9710  147.4990 O   0  0  0  0  0  0  0  0  0  0  0  0
  190.4440  177.2440  145.4540 C   0  0  0  0  0  2  0  0  0  0  0  0
  189.9020  177.3630  144.0380 C   0  0  0  0  0  2  0  0  0  0  0  0
  189.7720  175.9980  143.3880 C   0  0  0  0  0  2  0  0  0  0  0  0
  190.9250  175.7690  142.4280 C   0  0  0  0  0  2  0  0  0  0  0  0
  191.0990  174.3470  142.2030 N   0  0  0  0  0  2  0  0  0  0  0  0
  190.1360  173.9690  141.1820 C   0  0  0  0  0  2  0  0  0  0  0  0
  190.7030  172.8610  140.3100 C   0  0  0  0  0  2  0  0  0  0  0  0
  190.0040  172.8170  138.9500 C   0  0  1  0  0  3  0  0  0  0  0  0
  189.1560  173.9160  138.7650 O   0  0  0  0  0  1  0  0  0  0  0  0
  190.9120  172.6700  137.8800 O   0  0  0  0  0  0  0  0  0  0  0  0
  190.6230  173.8890  135.8470 C   0  0  0  0  0  1  0  0  0  0  0  0
  191.1130  173.9250  137.2820 C   0  0  0  0  0  2  0  0  0  0  0  0
  187.7210  177.0680  146.6180 C   0  0  0  0  0  2  0  0  0  0  0  0
  185.0040  178.3340  140.0850 C   0  0  0  0  0  3  0  0  0  0  0  0
  184.9540  178.0830  142.4910 C   0  0  0  0  0  0  0  0  0  0  0  0
  184.3580  178.3600  143.7320 C   0  0  0  0  0  3  0  0  0  0  0  0
  186.0390  177.0090  144.8050 C   0  0  0  0  0  0  0  0  0  0  0  0
  186.1330  177.4990  140.0060 C   0  0  0  0  0  0  0  0  0  0  0  0
  184.4830  177.8930  146.1910 N   0  0  0  0  0  0  0  0  0  0  0  0
  186.6750  176.9570  141.1770 C   0  0  0  0  0  3  0  0  0  0  0  0
  184.9380  177.7950  144.8660 C   0  0  0  0  0  0  0  0  0  0  0  0
  184.4170  178.6230  141.3200 C   0  0  0  0  0  3  0  0  0  0  0  0
  186.1020  177.2410  142.4180 C   0  0  0  0  0  0  0  0  0  0  0  0
  185.3020  177.1280  147.0470 N   0  0  0  0  0  0  0  0  0  0  0  0
  186.6500  176.6940  143.5910 C   0  0  0  0  0  3  0  0  0  0  0  0
  186.3570  176.5460  146.1830 C   0  0  2  0  0  3  0  0  0  0  0  0
  186.7320  177.1920  138.7810 O   0  0  0  0  0  0  0  0  0  0  0  0
  186.3150  176.1000  137.9740 C   0  0  0  0  0  1  0  0  0  0  0  0
  190.8770  174.8620  146.1040 C   0  0  0  0  0  2  0  0  0  0  0  0
  192.2880  175.3110  145.9390 C   0  0  0  0  0  3  0  0  0  0  0  0
  193.9350  173.9220  144.4640 C   0  0  0  0  0  3  0  0  0  0  0  0
  193.1100  174.6170  145.2030 C   0  0  0  0  0  0  0  0  0  0  0  0
  195.3880  174.1730  144.4100 C   0  0  0  0  0  0  0  0  0  0  0  0
  196.2060  173.6130  145.3130 C   0  0  0  0  0  3  0  0  0  0  0  0
  197.6870  173.7920  145.3400 C   0  0  0  0  0  1  0  0  0  0  0  0
  195.9800  175.2100  143.1050 S   0  0  0  0  0  0  0  0  0  0  0  0
  194.8010  175.7590  142.3510 O   0  0  0  0  0  0  0  0  0  0  0  0
  196.7630  176.3700  143.6570 O   0  0  0  0  0  0  0  0  0  0  0  0
  196.9610  174.2940  142.0060 N   0  0  0  0  0  2  0  0  0  0  0  0
  197.9410  175.1870  141.4050 C   0  0  0  0  0  2  0  0  0  0  0  0
  197.4570  175.6600  140.0460 C   0  0  0  0  0  2  0  0  0  0  0  0
  197.3570  174.4890  139.0840 C   0  0  0  0  0  2  0  0  0  0  0  0
  196.2040  174.6600  138.2190 N   0  0  0  0  0  2  0  0  0  0  0  0
  195.7530  173.3310  137.8430 C   0  0  0  0  0  2  0  0  0  0  0  0
  194.9250  173.4180  136.7240 O   0  0  0  0  0  1  0  0  0  0  0  0
  1 32  1  0  0  0  0
  1  2  1  0  0  0  0
  2  3  2  0  0  0  0
  4  1  1  0  0  0  0
  5  4  1  0  0  0  0
  6  5  1  0  0  0  0
  7  6  1  0  0  0  0
  8  7  1  0  0  0  0
  9  8  1  0  0  0  0
 10  9  1  0  0  0  0
 11 12  1  6  0  0  0
 11 10  1  0  0  0  0
 13 11  1  0  0  0  0
 14 15  1  0  0  0  0
 15 13  1  0  0  0  0
 16  2  1  0  0  0  0
 17 25  1  0  0  0  0
 18 19  1  0  0  0  0
 19 24  2  0  0  0  0
 20 24  1  0  0  0  0
 20 29  1  0  0  0  0
 21 17  2  0  0  0  0
 21 23  1  0  0  0  0
 22 27  2  0  0  0  0
 23 26  2  0  0  0  0
 24 22  1  0  0  0  0
 25 18  2  0  0  0  0
 26 18  1  0  0  0  0
 26 28  1  0  0  0  0
 28 20  2  0  0  0  0
 29 16  1  1  0  0  0
 29 27  1  0  0  0  0
 30 21  1  0  0  0  0
 31 30  1  0  0  0  0
 33 32  1  0  0  0  0
 34 35  2  0  0  0  0
 35 33  2  0  0  0  0
 36 34  1  0  0  0  0
 36 37  2  0  0  0  0
 37 38  1  0  0  0  0
 39 41  2  0  0  0  0
 39 36  1  0  0  0  0
 40 39  2  0  0  0  0
 42 39  1  0  0  0  0
 43 42  1  0  0  0  0
 44 43  1  0  0  0  0
 45 44  1  0  0  0  0
 46 45  1  0  0  0  0
 47 46  1  0  0  0  0
 48 47  1  0  0  0  0
M  END
>  <MODEL>
9

>  <REMARK>
 VINA RESULT:      -5.3      1.967      2.787
  Name = 
  23 active torsions:
  status: ('A' for Active; 'I' for Inactive)
    1  A    between atoms: C_3  and  N_17
    2  A    between atoms: C_3  and  C_47
    3  A    between atoms: N_5  and  C_23
    4  A    between atoms: N_5  and  C_29
    5  A    between atoms: C_7  and  O_8
    6  A    between atoms: C_9  and  C_24
    7  A    between atoms: C_9  and  N_43
    8  A    between atoms: C_10  and  N_17
    9  A    between atoms: C_10  and  C_27
   10  A    between atoms: C_12  and  C_13
   11  A    between atoms: C_13  and  N_14
   12  A    between atoms: N_14  and  C_25
   13  A    between atoms: C_16  and  C_19
   14  A    between atoms: C_19  and  C_46
   15  A    between atoms: C_20  and  C_21
   16  A    between atoms: C_20  and  S_28
   17  A    between atoms: C_24  and  C_29
   18  A    between atoms: C_25  and  C_35
   19  A    between atoms: C_27  and  C_35
   20  A    between atoms: S_28  and  N_43
   21  A    between atoms: C_38  and  O_48
   22  A    between atoms: C_39  and  C_47
   23  A    between atoms: C_39  and  O_48
                            x       y       z     vdW  Elec       q    Type
                         _______ _______ _______ _____ _____    ______ ____

>  <TORSDO>
F 23

$$$$
