=
 OpenBabel11042414573D

 39 41  0  0  1  0  0  0  0  0999 V2000
  187.9000  177.4680  141.5080 C   0  0  0  0  0  0  0  0  0  0  0  0
  187.9560  176.0870  141.2980 C   0  0  0  0  0  3  0  0  0  0  0  0
  190.0550  175.9810  142.4970 C   0  0  0  0  0  3  0  0  0  0  0  0
  190.0090  177.3630  142.7050 C   0  0  0  0  0  0  0  0  0  0  0  0
  188.9370  178.1060  142.2050 C   0  0  0  0  0  3  0  0  0  0  0  0
  189.0400  175.3300  141.7760 C   0  0  0  0  0  0  0  0  0  0  0  0
  185.8260  177.3610  140.1210 C   0  0  0  0  0  1  0  0  0  0  0  0
  186.7480  178.2440  140.9530 C   0  0  1  0  0  3  0  0  0  0  0  0
  186.0040  178.8730  142.0340 N   0  0  0  0  0  2  0  0  0  0  0  0
  184.8950  177.9910  142.3550 C   0  0  0  0  0  2  0  0  0  0  0  0
  185.0860  177.4180  143.6790 N   0  0  0  0  0  2  0  0  0  0  0  0
  183.9500  179.1280  144.7990 O   0  0  0  0  0  0  0  0  0  0  0  0
  184.5890  178.0440  144.8670 C   0  0  0  0  0  0  0  0  0  0  0  0
  185.9710  176.5800  146.1520 O   0  0  0  0  0  0  0  0  0  0  0  0
  184.8470  177.4310  146.2020 C   0  0  1  0  0  3  0  0  0  0  0  0
  185.0750  178.4920  147.2410 C   0  0  0  0  0  2  0  0  0  0  0  0
  186.3410  178.0280  147.8670 C   0  0  0  0  0  2  0  0  0  0  0  0
  186.9680  177.1890  146.8650 N   0  0  0  0  0  0  0  0  0  0  0  0
  187.6860  176.1430  147.5780 C   0  0  0  0  0  2  0  0  0  0  0  0
  188.8410  175.6440  146.7310 C   0  0  0  0  0  1  0  0  0  0  0  0
  189.4500  173.0160  142.5990 C   0  0  0  0  0  0  0  0  0  0  0  0
  189.0910  173.8540  141.5900 C   0  0  0  0  0  0  0  0  0  0  0  0
  189.5400  171.5900  142.4260 N   0  0  0  0  0  2  0  0  0  0  0  0
  190.6410  169.6030  141.8050 N   0  0  0  0  0  2  0  0  0  0  0  0
  190.6960  170.8810  141.9780 C   0  0  0  0  0  3  0  0  0  0  0  0
  189.7410  173.4410  139.2310 C   0  0  0  0  0  1  0  0  0  0  0  0
  188.6340  173.3150  140.2640 C   0  0  0  0  0  2  0  0  0  0  0  0
  190.7710  173.1340  144.7520 C   0  0  0  0  0  1  0  0  0  0  0  0
  189.6570  173.5450  143.9130 N   0  0  0  0  0  2  0  0  0  0  0  0
  191.0470  178.0330  143.5410 C   0  0  0  0  0  2  0  0  0  0  0  0
  195.3070  174.9410  145.6060 C   0  0  0  0  0  0  0  0  0  0  0  0
  191.4340  177.1650  144.6480 N   0  0  0  0  0  2  0  0  0  0  0  0
  193.0040  175.8840  145.9260 C   0  0  0  0  0  3  0  0  0  0  0  0
  196.2130  174.2970  146.1970 O   0  0  0  0  0  0  0  0  0  0  0  0
  195.5590  175.3410  144.3030 C   0  0  0  0  0  3  0  0  0  0  0  0
  193.5160  176.5380  143.6360 N   0  0  0  0  0  0  0  0  0  0  0  0
  192.7030  176.5080  144.7230 C   0  0  0  0  0  0  0  0  0  0  0  0
  194.7590  176.0490  143.4200 C   0  0  0  0  0  3  0  0  0  0  0  0
  194.1420  175.1940  146.3150 C   0  0  0  0  0  3  0  0  0  0  0  0
  1  5  1  0  0  0  0
  2  1  2  0  0  0  0
  2  6  1  0  0  0  0
  3  4  1  0  0  0  0
  4 30  1  0  0  0  0
  5  4  2  0  0  0  0
  6  3  2  0  0  0  0
  8  7  1  1  0  0  0
  8  1  1  0  0  0  0
  8  9  1  0  0  0  0
  9 10  1  0  0  0  0
 10 11  1  0  0  0  0
 11 13  1  0  0  0  0
 12 13  2  0  0  0  0
 14 15  1  0  0  0  0
 14 18  1  0  0  0  0
 15 13  1  6  0  0  0
 15 16  1  0  0  0  0
 16 17  1  0  0  0  0
 18 19  1  0  0  0  0
 18 17  1  0  0  0  0
 20 19  1  0  0  0  0
 21 29  1  0  0  0  0
 22  6  1  0  0  0  0
 22 21  2  0  0  0  0
 23 21  1  0  0  0  0
 24 25  2  0  0  0  0
 25 23  1  0  0  0  0
 26 27  1  0  0  0  0
 27 22  1  0  0  0  0
 29 28  1  0  0  0  0
 30 32  1  0  0  0  0
 31 34  2  0  0  0  0
 31 39  1  0  0  0  0
 32 37  1  0  0  0  0
 33 39  2  0  0  0  0
 35 31  1  0  0  0  0
 36 37  2  0  0  0  0
 37 33  1  0  0  0  0
 38 36  1  0  0  0  0
 38 35  2  0  0  0  0
M  END
>  <MODEL>
1

>  <REMARK>
 VINA RESULT:      -7.2      0.000      0.000
  Name = 
  12 active torsions:
  status: ('A' for Active; 'I' for Inactive)
    1  A    between atoms: N_2  and  C_27
    2  A    between atoms: N_3  and  C_9
    3  A    between atoms: N_6  and  C_9
    4  A    between atoms: N_6  and  C_11
    5  A    between atoms: C_7  and  C_11
    6  A    between atoms: C_10  and  N_17
    7  A    between atoms: C_10  and  N_34
    8  A    between atoms: C_15  and  N_36
    9  A    between atoms: C_19  and  C_30
   10  A    between atoms: C_21  and  C_32
   11  A    between atoms: C_27  and  C_29
   12  A    between atoms: C_30  and  C_39
                            x       y       z     vdW  Elec       q    Type
                         _______ _______ _______ _____ _____    ______ ____

>  <TORSDO>
F 12

$$$$
=
 OpenBabel11042414573D

 39 41  0  0  1  0  0  0  0  0999 V2000
  188.3070  176.9470  142.0600 C   0  0  0  0  0  0  0  0  0  0  0  0
  188.3440  175.5600  141.8880 C   0  0  0  0  0  3  0  0  0  0  0  0
  190.6310  175.5150  142.6780 C   0  0  0  0  0  3  0  0  0  0  0  0
  190.6030  176.9030  142.8450 C   0  0  0  0  0  0  0  0  0  0  0  0
  189.4460  177.6180  142.5290 C   0  0  0  0  0  3  0  0  0  0  0  0
  189.5090  174.8300  142.1810 C   0  0  0  0  0  0  0  0  0  0  0  0
  186.6710  177.4730  140.2470 C   0  0  0  0  0  1  0  0  0  0  0  0
  187.0600  177.6930  141.7040 C   0  0  1  0  0  3  0  0  0  0  0  0
  185.9720  177.2920  142.5830 N   0  0  0  0  0  2  0  0  0  0  0  0
  185.8540  178.3170  143.6060 C   0  0  0  0  0  2  0  0  0  0  0  0
  186.7590  178.0240  144.7070 N   0  0  0  0  0  2  0  0  0  0  0  0
  185.3590  176.4320  145.6950 O   0  0  0  0  0  0  0  0  0  0  0  0
  186.4470  177.0680  145.7260 C   0  0  0  0  0  0  0  0  0  0  0  0
  188.0910  175.6200  146.6760 O   0  0  0  0  0  0  0  0  0  0  0  0
  187.3960  176.8350  146.8530 C   0  0  1  0  0  3  0  0  0  0  0  0
  188.3860  177.9600  146.9590 C   0  0  0  0  0  2  0  0  0  0  0  0
  189.6740  177.2200  147.0040 C   0  0  0  0  0  2  0  0  0  0  0  0
  189.3910  175.9380  146.3890 N   0  0  0  0  0  0  0  0  0  0  0  0
  190.2300  174.9540  147.0560 C   0  0  0  0  0  2  0  0  0  0  0  0
  191.1990  175.6540  147.9890 C   0  0  0  0  0  1  0  0  0  0  0  0
  190.0780  172.7480  140.9400 C   0  0  0  0  0  0  0  0  0  0  0  0
  189.5470  173.3490  142.0380 C   0  0  0  0  0  0  0  0  0  0  0  0
  190.0910  171.3180  140.7690 N   0  0  0  0  0  2  0  0  0  0  0  0
  191.0910  169.2730  140.1700 N   0  0  0  0  0  2  0  0  0  0  0  0
  191.2150  170.5460  140.3440 C   0  0  0  0  0  3  0  0  0  0  0  0
  190.1690  172.3610  144.2280 C   0  0  0  0  0  1  0  0  0  0  0  0
  189.0610  172.5360  143.2040 C   0  0  0  0  0  2  0  0  0  0  0  0
  190.3390  173.5460  138.5550 C   0  0  0  0  0  1  0  0  0  0  0  0
  190.7400  173.5450  139.9520 N   0  0  0  0  0  2  0  0  0  0  0  0
  191.7680  177.6120  143.4500 C   0  0  0  0  0  2  0  0  0  0  0  0
  196.3110  174.6850  145.1140 C   0  0  0  0  0  0  0  0  0  0  0  0
  192.3160  176.8250  144.5490 N   0  0  0  0  0  2  0  0  0  0  0  0
  194.0630  175.6410  145.6830 C   0  0  0  0  0  3  0  0  0  0  0  0
  197.2990  174.0870  145.6160 O   0  0  0  0  0  0  0  0  0  0  0  0
  196.3760  174.9930  143.7640 C   0  0  0  0  0  3  0  0  0  0  0  0
  194.2460  176.1340  143.3050 N   0  0  0  0  0  0  0  0  0  0  0  0
  193.5910  176.1780  144.4940 C   0  0  0  0  0  0  0  0  0  0  0  0
  195.4530  175.6340  142.9530 C   0  0  0  0  0  3  0  0  0  0  0  0
  195.2520  174.9840  145.9580 C   0  0  0  0  0  3  0  0  0  0  0  0
  1  5  1  0  0  0  0
  2  1  2  0  0  0  0
  2  6  1  0  0  0  0
  3  4  1  0  0  0  0
  4 30  1  0  0  0  0
  5  4  2  0  0  0  0
  6  3  2  0  0  0  0
  8  7  1  6  0  0  0
  8  1  1  0  0  0  0
  8  9  1  0  0  0  0
  9 10  1  0  0  0  0
 10 11  1  0  0  0  0
 11 13  1  0  0  0  0
 12 13  2  0  0  0  0
 14 15  1  0  0  0  0
 15 13  1  6  0  0  0
 15 16  1  0  0  0  0
 16 17  1  0  0  0  0
 18 14  1  0  0  0  0
 18 17  1  0  0  0  0
 18 19  1  0  0  0  0
 19 20  1  0  0  0  0
 21 22  2  0  0  0  0
 22  6  1  0  0  0  0
 22 27  1  0  0  0  0
 23 21  1  0  0  0  0
 24 25  2  0  0  0  0
 25 23  1  0  0  0  0
 27 26  1  0  0  0  0
 28 29  1  0  0  0  0
 29 21  1  0  0  0  0
 30 32  1  0  0  0  0
 31 34  2  0  0  0  0
 31 39  1  0  0  0  0
 33 39  2  0  0  0  0
 35 31  1  0  0  0  0
 36 37  2  0  0  0  0
 37 32  1  0  0  0  0
 37 33  1  0  0  0  0
 38 36  1  0  0  0  0
 38 35  2  0  0  0  0
M  END
>  <MODEL>
2

>  <REMARK>
 VINA RESULT:      -7.1      1.471      2.295
  Name = 
  12 active torsions:
  status: ('A' for Active; 'I' for Inactive)
    1  A    between atoms: N_2  and  C_27
    2  A    between atoms: N_3  and  C_9
    3  A    between atoms: N_6  and  C_9
    4  A    between atoms: N_6  and  C_11
    5  A    between atoms: C_7  and  C_11
    6  A    between atoms: C_10  and  N_17
    7  A    between atoms: C_10  and  N_34
    8  A    between atoms: C_15  and  N_36
    9  A    between atoms: C_19  and  C_30
   10  A    between atoms: C_21  and  C_32
   11  A    between atoms: C_27  and  C_29
   12  A    between atoms: C_30  and  C_39
                            x       y       z     vdW  Elec       q    Type
                         _______ _______ _______ _____ _____    ______ ____

>  <TORSDO>
F 12

$$$$
=
 OpenBabel11042414573D

 39 41  0  0  1  0  0  0  0  0999 V2000
  189.1820  174.7240  141.8610 C   0  0  0  0  0  0  0  0  0  0  0  0
  187.9090  175.3000  141.7980 C   0  0  0  0  0  3  0  0  0  0  0  0
  188.8160  177.4080  142.5620 C   0  0  0  0  0  3  0  0  0  0  0  0
  190.0910  176.8370  142.6340 C   0  0  0  0  0  0  0  0  0  0  0  0
  190.2710  175.4950  142.2910 C   0  0  0  0  0  3  0  0  0  0  0  0
  187.7090  176.6420  142.1610 C   0  0  0  0  0  0  0  0  0  0  0  0
  190.8190  172.8950  141.3950 C   0  0  0  0  0  1  0  0  0  0  0  0
  189.3490  173.2820  141.4990 C   0  0  1  0  0  3  0  0  0  0  0  0
  188.6740  172.4420  142.4770 N   0  0  0  0  0  2  0  0  0  0  0  0
  189.6100  172.2260  143.5680 C   0  0  0  0  0  2  0  0  0  0  0  0
  189.4000  173.2250  144.6040 N   0  0  0  0  0  2  0  0  0  0  0  0
  191.6780  173.5800  145.0000 O   0  0  0  0  0  0  0  0  0  0  0  0
  190.4840  173.8640  145.2880 C   0  0  0  0  0  0  0  0  0  0  0  0
  189.8340  176.0990  145.8220 O   0  0  0  0  0  0  0  0  0  0  0  0
  190.2100  174.8540  146.3690 C   0  0  1  0  0  3  0  0  0  0  0  0
  189.1190  174.3640  147.2790 C   0  0  0  0  0  2  0  0  0  0  0  0
  188.2070  175.5380  147.3100 C   0  0  0  0  0  2  0  0  0  0  0  0
  188.5060  176.2750  146.0980 N   0  0  0  0  0  0  0  0  0  0  0  0
  188.3130  177.6850  146.4020 C   0  0  0  0  0  2  0  0  0  0  0  0
  187.0700  177.8620  147.2520 C   0  0  0  0  0  1  0  0  0  0  0  0
  185.9140  177.8240  140.9030 C   0  0  0  0  0  0  0  0  0  0  0  0
  186.3660  177.2760  142.0620 C   0  0  0  0  0  0  0  0  0  0  0  0
  184.6330  178.4720  140.7990 N   0  0  0  0  0  2  0  0  0  0  0  0
  182.3040  178.5020  140.4550 N   0  0  0  0  0  2  0  0  0  0  0  0
  183.3850  177.8090  140.5910 C   0  0  0  0  0  3  0  0  0  0  0  0
  185.5130  178.5140  144.0360 C   0  0  0  0  0  1  0  0  0  0  0  0
  185.4820  177.2000  143.2760 C   0  0  0  0  0  2  0  0  0  0  0  0
  186.3510  176.7040  138.6780 C   0  0  0  0  0  1  0  0  0  0  0  0
  186.6870  177.6750  139.7070 N   0  0  0  0  0  2  0  0  0  0  0  0
  191.2740  177.6770  142.9810 C   0  0  0  0  0  2  0  0  0  0  0  0
  195.4640  174.8960  145.5670 C   0  0  0  0  0  0  0  0  0  0  0  0
  192.5040  176.9300  142.7440 N   0  0  0  0  0  2  0  0  0  0  0  0
  194.3500  175.5610  143.4190 C   0  0  0  0  0  3  0  0  0  0  0  0
  196.3910  174.1840  146.0330 O   0  0  0  0  0  0  0  0  0  0  0  0
  194.6990  175.6130  146.4740 C   0  0  0  0  0  3  0  0  0  0  0  0
  193.0620  176.8010  145.0730 N   0  0  0  0  0  0  0  0  0  0  0  0
  193.3290  176.4210  143.7970 C   0  0  0  0  0  0  0  0  0  0  0  0
  193.6300  176.4690  146.2560 C   0  0  0  0  0  3  0  0  0  0  0  0
  195.2900  174.8940  144.1910 C   0  0  0  0  0  3  0  0  0  0  0  0
  1  5  1  0  0  0  0
  2  1  2  0  0  0  0
  2  6  1  0  0  0  0
  3  4  1  0  0  0  0
  4 30  1  0  0  0  0
  5  4  2  0  0  0  0
  6  3  2  0  0  0  0
  8  7  1  1  0  0  0
  8  1  1  0  0  0  0
  8  9  1  0  0  0  0
  9 10  1  0  0  0  0
 10 11  1  0  0  0  0
 11 13  1  0  0  0  0
 12 13  2  0  0  0  0
 14 18  1  0  0  0  0
 14 15  1  0  0  0  0
 15 13  1  6  0  0  0
 15 16  1  0  0  0  0
 16 17  1  0  0  0  0
 18 19  1  0  0  0  0
 18 17  1  0  0  0  0
 19 20  1  0  0  0  0
 21 22  2  0  0  0  0
 22  6  1  0  0  0  0
 22 27  1  0  0  0  0
 23 21  1  0  0  0  0
 24 25  2  0  0  0  0
 25 23  1  0  0  0  0
 27 26  1  0  0  0  0
 28 29  1  0  0  0  0
 29 21  1  0  0  0  0
 31 34  2  0  0  0  0
 31 35  1  0  0  0  0
 32 30  1  0  0  0  0
 32 37  1  0  0  0  0
 33 37  1  0  0  0  0
 33 39  2  0  0  0  0
 36 38  1  0  0  0  0
 37 36  2  0  0  0  0
 38 35  2  0  0  0  0
 39 31  1  0  0  0  0
M  END
>  <MODEL>
3

>  <REMARK>
 VINA RESULT:      -7.1      1.872      5.402
  Name = 
  12 active torsions:
  status: ('A' for Active; 'I' for Inactive)
    1  A    between atoms: N_2  and  C_27
    2  A    between atoms: N_3  and  C_9
    3  A    between atoms: N_6  and  C_9
    4  A    between atoms: N_6  and  C_11
    5  A    between atoms: C_7  and  C_11
    6  A    between atoms: C_10  and  N_17
    7  A    between atoms: C_10  and  N_34
    8  A    between atoms: C_15  and  N_36
    9  A    between atoms: C_19  and  C_30
   10  A    between atoms: C_21  and  C_32
   11  A    between atoms: C_27  and  C_29
   12  A    between atoms: C_30  and  C_39
                            x       y       z     vdW  Elec       q    Type
                         _______ _______ _______ _____ _____    ______ ____

>  <TORSDO>
F 12

$$$$
=
 OpenBabel11042414573D

 39 41  0  0  1  0  0  0  0  0999 V2000
  190.3930  175.2190  146.3090 C   0  0  0  0  0  0  0  0  0  0  0  0
  191.7090  175.6470  146.1090 C   0  0  0  0  0  3  0  0  0  0  0  0
  192.1220  173.7400  144.6790 C   0  0  0  0  0  3  0  0  0  0  0  0
  190.8090  173.3010  144.8800 C   0  0  0  0  0  0  0  0  0  0  0  0
  189.9490  174.0350  145.7010 C   0  0  0  0  0  3  0  0  0  0  0  0
  192.5910  174.9070  145.3040 C   0  0  0  0  0  0  0  0  0  0  0  0
  189.8320  177.5010  147.1540 C   0  0  0  0  0  1  0  0  0  0  0  0
  189.4940  176.0160  147.2000 C   0  0  1  0  0  3  0  0  0  0  0  0
  188.1040  175.8030  146.8260 N   0  0  0  0  0  2  0  0  0  0  0  0
  187.5950  177.0760  146.3440 C   0  0  0  0  0  2  0  0  0  0  0  0
  186.7610  176.8630  145.1700 N   0  0  0  0  0  2  0  0  0  0  0  0
  188.5200  177.0590  143.6400 O   0  0  0  0  0  0  0  0  0  0  0  0
  187.2890  176.8710  143.8400 C   0  0  0  0  0  0  0  0  0  0  0  0
  185.0810  177.1400  142.9710 O   0  0  0  0  0  0  0  0  0  0  0  0
  186.3810  176.6840  142.6700 C   0  0  1  0  0  3  0  0  0  0  0  0
  186.9000  177.4220  141.4690 C   0  0  0  0  0  2  0  0  0  0  0  0
  185.6950  178.1830  141.0450 C   0  0  0  0  0  2  0  0  0  0  0  0
  184.8730  178.2750  142.2360 N   0  0  0  0  0  0  0  0  0  0  0  0
  183.4870  178.2540  141.7950 C   0  0  0  0  0  2  0  0  0  0  0  0
  183.4250  177.9590  140.3090 C   0  0  0  0  0  1  0  0  0  0  0  0
  194.3310  176.0070  143.9030 C   0  0  0  0  0  0  0  0  0  0  0  0
  193.9820  175.3740  145.0540 C   0  0  0  0  0  0  0  0  0  0  0  0
  195.6780  176.4330  143.6290 N   0  0  0  0  0  2  0  0  0  0  0  0
  197.8370  176.1610  142.7290 N   0  0  0  0  0  2  0  0  0  0  0  0
  196.6360  175.7060  142.8590 C   0  0  0  0  0  3  0  0  0  0  0  0
  195.7850  173.9350  145.9700 C   0  0  0  0  0  1  0  0  0  0  0  0
  194.9730  175.2030  146.1720 C   0  0  0  0  0  2  0  0  0  0  0  0
  193.0760  175.5880  141.7480 C   0  0  0  0  0  1  0  0  0  0  0  0
  193.3140  176.3580  142.9580 N   0  0  0  0  0  2  0  0  0  0  0  0
  190.2930  172.1080  144.1490 C   0  0  0  0  0  2  0  0  0  0  0  0
  189.1530  173.0080  138.6840 C   0  0  0  0  0  0  0  0  0  0  0  0
  189.2380  172.5060  143.2230 N   0  0  0  0  0  2  0  0  0  0  0  0
  188.3090  172.8440  141.0410 C   0  0  0  0  0  3  0  0  0  0  0  0
  188.7690  173.1510  137.4940 O   0  0  0  0  0  0  0  0  0  0  0  0
  190.5150  172.8680  138.8990 C   0  0  0  0  0  3  0  0  0  0  0  0
  190.7160  172.6200  141.3380 N   0  0  0  0  0  0  0  0  0  0  0  0
  189.4460  172.6620  141.8160 C   0  0  0  0  0  0  0  0  0  0  0  0
  191.2160  172.7020  140.0830 C   0  0  0  0  0  3  0  0  0  0  0  0
  188.1770  172.9990  139.6700 C   0  0  0  0  0  3  0  0  0  0  0  0
  1  8  1  0  0  0  0
  2  1  1  0  0  0  0
  3  4  2  0  0  0  0
  3  6  1  0  0  0  0
  4  5  1  0  0  0  0
  5  1  2  0  0  0  0
  6  2  2  0  0  0  0
  8  7  1  6  0  0  0
  9  8  1  0  0  0  0
 10  9  1  0  0  0  0
 11 10  1  0  0  0  0
 12 13  2  0  0  0  0
 13 11  1  0  0  0  0
 15 14  1  0  0  0  0
 15 13  1  1  0  0  0
 16 15  1  0  0  0  0
 17 16  1  0  0  0  0
 17 18  1  0  0  0  0
 18 14  1  0  0  0  0
 19 18  1  0  0  0  0
 20 19  1  0  0  0  0
 21 22  2  0  0  0  0
 22  6  1  0  0  0  0
 22 27  1  0  0  0  0
 23 21  1  0  0  0  0
 24 25  2  0  0  0  0
 25 23  1  0  0  0  0
 26 27  1  0  0  0  0
 28 29  1  0  0  0  0
 29 21  1  0  0  0  0
 30  4  1  0  0  0  0
 31 35  1  0  0  0  0
 31 39  1  0  0  0  0
 32 30  1  0  0  0  0
 33 37  1  0  0  0  0
 34 31  2  0  0  0  0
 35 38  2  0  0  0  0
 36 37  2  0  0  0  0
 37 32  1  0  0  0  0
 38 36  1  0  0  0  0
 39 33  2  0  0  0  0
M  END
>  <MODEL>
4

>  <REMARK>
 VINA RESULT:      -6.9      2.402      6.660
  Name = 
  12 active torsions:
  status: ('A' for Active; 'I' for Inactive)
    1  A    between atoms: N_2  and  C_27
    2  A    between atoms: N_3  and  C_9
    3  A    between atoms: N_6  and  C_9
    4  A    between atoms: N_6  and  C_11
    5  A    between atoms: C_7  and  C_11
    6  A    between atoms: C_10  and  N_17
    7  A    between atoms: C_10  and  N_34
    8  A    between atoms: C_15  and  N_36
    9  A    between atoms: C_19  and  C_30
   10  A    between atoms: C_21  and  C_32
   11  A    between atoms: C_27  and  C_29
   12  A    between atoms: C_30  and  C_39
                            x       y       z     vdW  Elec       q    Type
                         _______ _______ _______ _____ _____    ______ ____

>  <TORSDO>
F 12

$$$$
=
 OpenBabel11042414573D

 39 41  0  0  1  0  0  0  0  0999 V2000
  192.9280  175.2840  143.2120 C   0  0  0  0  0  0  0  0  0  0  0  0
  192.4090  174.1130  142.6490 C   0  0  0  0  0  3  0  0  0  0  0  0
  190.2940  175.2240  142.2660 C   0  0  0  0  0  3  0  0  0  0  0  0
  190.8040  176.3960  142.8340 C   0  0  0  0  0  0  0  0  0  0  0  0
  192.1150  176.4220  143.3130 C   0  0  0  0  0  3  0  0  0  0  0  0
  191.0840  174.0650  142.1830 C   0  0  0  0  0  0  0  0  0  0  0  0
  194.6710  176.5940  144.4300 C   0  0  0  0  0  1  0  0  0  0  0  0
  194.3310  175.2840  143.7280 C   0  0  1  0  0  3  0  0  0  0  0  0
  194.5310  174.1610  144.6310 N   0  0  0  0  0  2  0  0  0  0  0  0
  194.2770  174.6500  145.9770 C   0  0  0  0  0  2  0  0  0  0  0  0
  192.8590  174.5420  146.2830 N   0  0  0  0  0  2  0  0  0  0  0  0
  192.7000  176.6690  147.2400 O   0  0  0  0  0  0  0  0  0  0  0  0
  192.1270  175.5920  146.9230 C   0  0  0  0  0  0  0  0  0  0  0  0
  190.0510  176.6620  147.4200 O   0  0  0  0  0  0  0  0  0  0  0  0
  190.6820  175.4120  147.2470 C   0  0  1  0  0  3  0  0  0  0  0  0
  189.9820  174.6490  146.1580 C   0  0  0  0  0  2  0  0  0  0  0  0
  188.8110  175.5250  145.8880 C   0  0  0  0  0  2  0  0  0  0  0  0
  189.2110  176.8390  146.3540 N   0  0  0  0  0  0  0  0  0  0  0  0
  188.0120  177.4920  146.8570 C   0  0  0  0  0  2  0  0  0  0  0  0
  186.9340  176.4580  147.1150 C   0  0  0  0  0  1  0  0  0  0  0  0
  190.5690  172.6470  140.2020 C   0  0  0  0  0  0  0  0  0  0  0  0
  190.5340  172.8370  141.5480 C   0  0  0  0  0  0  0  0  0  0  0  0
  190.0100  171.4820  139.5680 N   0  0  0  0  0  2  0  0  0  0  0  0
  190.1400  169.3500  138.5780 N   0  0  0  0  0  2  0  0  0  0  0  0
  190.7390  170.3120  139.1950 C   0  0  0  0  0  3  0  0  0  0  0  0
  188.6440  172.1280  142.9920 C   0  0  0  0  0  1  0  0  0  0  0  0
  190.0210  171.7620  142.4660 C   0  0  0  0  0  2  0  0  0  0  0  0
  191.0150  173.7120  137.9520 C   0  0  0  0  0  1  0  0  0  0  0  0
  191.2700  173.5840  139.3780 N   0  0  0  0  0  2  0  0  0  0  0  0
  189.9880  177.6450  142.8440 C   0  0  0  0  0  2  0  0  0  0  0  0
  184.4400  178.0820  141.8400 C   0  0  0  0  0  0  0  0  0  0  0  0
  188.9810  177.5920  141.7890 N   0  0  0  0  0  2  0  0  0  0  0  0
  186.7630  177.8480  140.9210 C   0  0  0  0  0  3  0  0  0  0  0  0
  183.2410  178.2470  141.4930 O   0  0  0  0  0  0  0  0  0  0  0  0
  184.7020  177.9970  143.1980 C   0  0  0  0  0  3  0  0  0  0  0  0
  187.1400  177.6920  143.3220 N   0  0  0  0  0  0  0  0  0  0  0  0
  187.5770  177.7130  142.0370 C   0  0  0  0  0  0  0  0  0  0  0  0
  185.9050  177.8160  143.8620 C   0  0  0  0  0  3  0  0  0  0  0  0
  185.3890  178.0070  140.8300 C   0  0  0  0  0  3  0  0  0  0  0  0
  1  5  1  0  0  0  0
  1  8  1  0  0  0  0
  2  1  2  0  0  0  0
  3  4  1  0  0  0  0
  4 30  1  0  0  0  0
  4  5  2  0  0  0  0
  6  3  2  0  0  0  0
  6  2  1  0  0  0  0
  8  7  1  1  0  0  0
  8  9  1  0  0  0  0
  9 10  1  0  0  0  0
 10 11  1  0  0  0  0
 11 13  1  0  0  0  0
 13 12  2  0  0  0  0
 15 13  1  6  0  0  0
 15 14  1  0  0  0  0
 16 15  1  0  0  0  0
 17 16  1  0  0  0  0
 17 18  1  0  0  0  0
 18 19  1  0  0  0  0
 18 14  1  0  0  0  0
 19 20  1  0  0  0  0
 21 22  2  0  0  0  0
 22  6  1  0  0  0  0
 22 27  1  0  0  0  0
 23 21  1  0  0  0  0
 24 25  2  0  0  0  0
 25 23  1  0  0  0  0
 27 26  1  0  0  0  0
 28 29  1  0  0  0  0
 29 21  1  0  0  0  0
 31 35  1  0  0  0  0
 32 37  1  0  0  0  0
 32 30  1  0  0  0  0
 33 37  1  0  0  0  0
 34 31  2  0  0  0  0
 35 38  2  0  0  0  0
 36 38  1  0  0  0  0
 37 36  2  0  0  0  0
 39 33  2  0  0  0  0
 39 31  1  0  0  0  0
M  END
>  <MODEL>
5

>  <REMARK>
 VINA RESULT:      -6.8      2.171      6.772
  Name = 
  12 active torsions:
  status: ('A' for Active; 'I' for Inactive)
    1  A    between atoms: N_2  and  C_27
    2  A    between atoms: N_3  and  C_9
    3  A    between atoms: N_6  and  C_9
    4  A    between atoms: N_6  and  C_11
    5  A    between atoms: C_7  and  C_11
    6  A    between atoms: C_10  and  N_17
    7  A    between atoms: C_10  and  N_34
    8  A    between atoms: C_15  and  N_36
    9  A    between atoms: C_19  and  C_30
   10  A    between atoms: C_21  and  C_32
   11  A    between atoms: C_27  and  C_29
   12  A    between atoms: C_30  and  C_39
                            x       y       z     vdW  Elec       q    Type
                         _______ _______ _______ _____ _____    ______ ____

>  <TORSDO>
F 12

$$$$
=
 OpenBabel11042414573D

 39 41  0  0  1  0  0  0  0  0999 V2000
  186.7170  176.9700  143.6570 C   0  0  0  0  0  0  0  0  0  0  0  0
  187.7760  177.0540  144.5670 C   0  0  0  0  0  3  0  0  0  0  0  0
  188.7840  175.0840  143.5890 C   0  0  0  0  0  3  0  0  0  0  0  0
  187.7240  174.9900  142.6800 C   0  0  0  0  0  0  0  0  0  0  0  0
  186.6890  175.9270  142.7210 C   0  0  0  0  0  3  0  0  0  0  0  0
  188.8120  176.1050  144.5530 C   0  0  0  0  0  0  0  0  0  0  0  0
  185.8680  179.0130  144.8170 C   0  0  0  0  0  1  0  0  0  0  0  0
  185.6150  177.9790  143.7260 C   0  0  1  0  0  3  0  0  0  0  0  0
  185.4580  178.6340  142.4370 N   0  0  0  0  0  2  0  0  0  0  0  0
  184.4140  177.9180  141.7220 C   0  0  0  0  0  2  0  0  0  0  0  0
  183.1090  178.4360  142.1040 N   0  0  0  0  0  2  0  0  0  0  0  0
  182.0460  177.7700  140.1300 O   0  0  0  0  0  0  0  0  0  0  0  0
  181.9610  178.3320  141.2550 C   0  0  0  0  0  0  0  0  0  0  0  0
  180.3910  180.1120  140.9840 O   0  0  0  0  0  0  0  0  0  0  0  0
  180.6560  178.9150  141.6820 C   0  0  1  0  0  3  0  0  0  0  0  0
  179.5350  177.9440  141.4440 C   0  0  0  0  0  2  0  0  0  0  0  0
  178.5610  178.7890  140.7040 C   0  0  0  0  0  2  0  0  0  0  0  0
  179.3560  179.8560  140.1270 N   0  0  0  0  0  0  0  0  0  0  0  0
  178.5160  181.0430  140.1020 C   0  0  0  0  0  2  0  0  0  0  0  0
  179.2120  182.1490  139.3330 C   0  0  0  0  0  1  0  0  0  0  0  0
  191.2160  176.5090  145.0610 C   0  0  0  0  0  0  0  0  0  0  0  0
  189.9630  176.2070  145.4920 C   0  0  0  0  0  0  0  0  0  0  0  0
  192.3470  176.5760  145.9500 N   0  0  0  0  0  2  0  0  0  0  0  0
  194.5700  177.1200  146.5010 N   0  0  0  0  0  2  0  0  0  0  0  0
  193.6080  177.1720  145.6420 C   0  0  0  0  0  3  0  0  0  0  0  0
  189.2000  174.6410  147.2610 C   0  0  0  0  0  1  0  0  0  0  0  0
  189.6660  176.0550  146.9580 C   0  0  0  0  0  2  0  0  0  0  0  0
  192.1360  176.0190  142.7570 C   0  0  0  0  0  1  0  0  0  0  0  0
  191.4210  176.8730  143.6920 N   0  0  0  0  0  2  0  0  0  0  0  0
  187.7420  173.9530  141.6090 C   0  0  0  0  0  2  0  0  0  0  0  0
  191.4240  173.5540  137.3350 C   0  0  0  0  0  0  0  0  0  0  0  0
  189.1180  173.5990  141.2780 N   0  0  0  0  0  2  0  0  0  0  0  0
  191.0010  173.4380  139.8060 C   0  0  0  0  0  3  0  0  0  0  0  0
  192.3440  173.5140  136.4770 O   0  0  0  0  0  0  0  0  0  0  0  0
  190.1310  173.7370  136.8710 C   0  0  0  0  0  3  0  0  0  0  0  0
  188.7560  173.7480  138.9120 N   0  0  0  0  0  0  0  0  0  0  0  0
  189.6290  173.5960  139.9410 C   0  0  0  0  0  0  0  0  0  0  0  0
  188.9370  173.8180  137.5730 C   0  0  0  0  0  3  0  0  0  0  0  0
  191.7900  173.4160  138.6660 C   0  0  0  0  0  3  0  0  0  0  0  0
  1  8  1  0  0  0  0
  1  2  1  0  0  0  0
  3  6  1  0  0  0  0
  4  5  1  0  0  0  0
  4  3  2  0  0  0  0
  5  1  2  0  0  0  0
  6  2  2  0  0  0  0
  6 22  1  0  0  0  0
  8  7  1  1  0  0  0
  9  8  1  0  0  0  0
 10 11  1  0  0  0  0
 10  9  1  0  0  0  0
 12 13  2  0  0  0  0
 13 11  1  0  0  0  0
 14 15  1  0  0  0  0
 15 13  1  6  0  0  0
 16 15  1  0  0  0  0
 17 16  1  0  0  0  0
 18 17  1  0  0  0  0
 18 14  1  0  0  0  0
 19 18  1  0  0  0  0
 20 19  1  0  0  0  0
 21 22  2  0  0  0  0
 21 23  1  0  0  0  0
 22 27  1  0  0  0  0
 25 23  1  0  0  0  0
 25 24  2  0  0  0  0
 27 26  1  0  0  0  0
 28 29  1  0  0  0  0
 29 21  1  0  0  0  0
 30  4  1  0  0  0  0
 31 39  1  0  0  0  0
 32 30  1  0  0  0  0
 33 37  1  0  0  0  0
 34 31  2  0  0  0  0
 35 31  1  0  0  0  0
 35 38  2  0  0  0  0
 36 37  2  0  0  0  0
 37 32  1  0  0  0  0
 38 36  1  0  0  0  0
 39 33  2  0  0  0  0
M  END
>  <MODEL>
6

>  <REMARK>
 VINA RESULT:      -6.5      3.749      6.996
  Name = 
  12 active torsions:
  status: ('A' for Active; 'I' for Inactive)
    1  A    between atoms: N_2  and  C_27
    2  A    between atoms: N_3  and  C_9
    3  A    between atoms: N_6  and  C_9
    4  A    between atoms: N_6  and  C_11
    5  A    between atoms: C_7  and  C_11
    6  A    between atoms: C_10  and  N_17
    7  A    between atoms: C_10  and  N_34
    8  A    between atoms: C_15  and  N_36
    9  A    between atoms: C_19  and  C_30
   10  A    between atoms: C_21  and  C_32
   11  A    between atoms: C_27  and  C_29
   12  A    between atoms: C_30  and  C_39
                            x       y       z     vdW  Elec       q    Type
                         _______ _______ _______ _____ _____    ______ ____

>  <TORSDO>
F 12

$$$$
=
 OpenBabel11042414573D

 39 41  0  0  1  0  0  0  0  0999 V2000
  190.7940  176.1350  146.0970 C   0  0  0  0  0  0  0  0  0  0  0  0
  189.6000  176.8290  145.8750 C   0  0  0  0  0  3  0  0  0  0  0  0
  188.7700  174.9890  144.5410 C   0  0  0  0  0  3  0  0  0  0  0  0
  189.9640  174.2920  144.7530 C   0  0  0  0  0  0  0  0  0  0  0  0
  190.9770  174.8690  145.5230 C   0  0  0  0  0  3  0  0  0  0  0  0
  188.5810  176.2710  145.0830 C   0  0  0  0  0  0  0  0  0  0  0  0
  191.5700  176.6810  148.4070 C   0  0  0  0  0  1  0  0  0  0  0  0
  191.8680  176.7780  146.9160 C   0  0  1  0  0  3  0  0  0  0  0  0
  193.1540  176.1670  146.6180 N   0  0  0  0  0  2  0  0  0  0  0  0
  193.9240  177.1460  145.8680 C   0  0  0  0  0  2  0  0  0  0  0  0
  194.8190  176.4660  144.9430 N   0  0  0  0  0  2  0  0  0  0  0  0
  193.2310  176.2750  143.2360 O   0  0  0  0  0  0  0  0  0  0  0  0
  194.4050  176.0520  143.6370 C   0  0  0  0  0  0  0  0  0  0  0  0
  194.6760  174.7780  141.6340 O   0  0  0  0  0  0  0  0  0  0  0  0
  195.3540  175.3250  142.7440 C   0  0  1  0  0  3  0  0  0  0  0  0
  196.4400  176.2430  142.2590 C   0  0  0  0  0  2  0  0  0  0  0  0
  196.4000  176.0010  140.7920 C   0  0  0  0  0  2  0  0  0  0  0  0
  195.0670  175.4910  140.5340 N   0  0  0  0  0  0  0  0  0  0  0  0
  195.1820  174.5490  139.4310 C   0  0  0  0  0  2  0  0  0  0  0  0
  196.5820  174.6030  138.8530 C   0  0  0  0  0  1  0  0  0  0  0  0
  187.0540  177.7190  143.7530 C   0  0  0  0  0  0  0  0  0  0  0  0
  187.2920  176.9830  144.8710 C   0  0  0  0  0  0  0  0  0  0  0  0
  185.8260  178.4430  143.5480 N   0  0  0  0  0  2  0  0  0  0  0  0
  183.6120  178.6710  142.7820 N   0  0  0  0  0  2  0  0  0  0  0  0
  184.6350  177.9080  142.9700 C   0  0  0  0  0  3  0  0  0  0  0  0
  186.3680  177.7880  147.0300 C   0  0  0  0  0  1  0  0  0  0  0  0
  186.2180  176.7790  145.9040 C   0  0  0  0  0  2  0  0  0  0  0  0
  187.8180  176.9130  141.4810 C   0  0  0  0  0  1  0  0  0  0  0  0
  188.0080  177.7050  142.6860 N   0  0  0  0  0  2  0  0  0  0  0  0
  190.1250  172.9000  144.2430 C   0  0  0  0  0  2  0  0  0  0  0  0
  189.8140  173.4380  138.6220 C   0  0  0  0  0  0  0  0  0  0  0  0
  190.9220  172.9050  143.0210 N   0  0  0  0  0  2  0  0  0  0  0  0
  191.2480  173.2220  140.6690 C   0  0  0  0  0  3  0  0  0  0  0  0
  189.8690  173.6300  137.3790 O   0  0  0  0  0  0  0  0  0  0  0  0
  188.5560  173.2890  139.1850 C   0  0  0  0  0  3  0  0  0  0  0  0
  189.0060  172.9550  141.5800 N   0  0  0  0  0  0  0  0  0  0  0  0
  190.3550  173.0290  141.7130 C   0  0  0  0  0  0  0  0  0  0  0  0
  188.1930  173.0670  140.5040 C   0  0  0  0  0  3  0  0  0  0  0  0
  191.0160  173.3980  139.3130 C   0  0  0  0  0  3  0  0  0  0  0  0
  1  8  1  0  0  0  0
  2  1  1  0  0  0  0
  3  4  2  0  0  0  0
  3  6  1  0  0  0  0
  4  5  1  0  0  0  0
  5  1  2  0  0  0  0
  6  2  2  0  0  0  0
  8  7  1  1  0  0  0
  9  8  1  0  0  0  0
 10  9  1  0  0  0  0
 11 10  1  0  0  0  0
 12 13  2  0  0  0  0
 13 11  1  0  0  0  0
 14 15  1  0  0  0  0
 15 13  1  1  0  0  0
 16 15  1  0  0  0  0
 17 16  1  0  0  0  0
 18 17  1  0  0  0  0
 18 14  1  0  0  0  0
 19 18  1  0  0  0  0
 20 19  1  0  0  0  0
 21 22  2  0  0  0  0
 22  6  1  0  0  0  0
 22 27  1  0  0  0  0
 23 21  1  0  0  0  0
 24 25  2  0  0  0  0
 25 23  1  0  0  0  0
 27 26  1  0  0  0  0
 28 29  1  0  0  0  0
 29 21  1  0  0  0  0
 30  4  1  0  0  0  0
 31 35  1  0  0  0  0
 31 39  1  0  0  0  0
 32 30  1  0  0  0  0
 33 37  1  0  0  0  0
 34 31  2  0  0  0  0
 35 38  2  0  0  0  0
 36 37  2  0  0  0  0
 37 32  1  0  0  0  0
 38 36  1  0  0  0  0
 39 33  2  0  0  0  0
M  END
>  <MODEL>
7

>  <REMARK>
 VINA RESULT:      -6.4      2.828      8.366
  Name = 
  12 active torsions:
  status: ('A' for Active; 'I' for Inactive)
    1  A    between atoms: N_2  and  C_27
    2  A    between atoms: N_3  and  C_9
    3  A    between atoms: N_6  and  C_9
    4  A    between atoms: N_6  and  C_11
    5  A    between atoms: C_7  and  C_11
    6  A    between atoms: C_10  and  N_17
    7  A    between atoms: C_10  and  N_34
    8  A    between atoms: C_15  and  N_36
    9  A    between atoms: C_19  and  C_30
   10  A    between atoms: C_21  and  C_32
   11  A    between atoms: C_27  and  C_29
   12  A    between atoms: C_30  and  C_39
                            x       y       z     vdW  Elec       q    Type
                         _______ _______ _______ _____ _____    ______ ____

>  <TORSDO>
F 12

$$$$
=
 OpenBabel11042414573D

 39 41  0  0  1  0  0  0  0  0999 V2000
  189.1960  174.3920  142.7960 C   0  0  0  0  0  0  0  0  0  0  0  0
  189.9620  174.6120  143.9450 C   0  0  0  0  0  3  0  0  0  0  0  0
  189.7000  177.0020  143.6720 C   0  0  0  0  0  3  0  0  0  0  0  0
  188.9390  176.7890  142.5170 C   0  0  0  0  0  0  0  0  0  0  0  0
  188.6960  175.4870  142.0770 C   0  0  0  0  0  3  0  0  0  0  0  0
  190.2340  175.9170  144.3880 C   0  0  0  0  0  0  0  0  0  0  0  0
  189.3870  172.7900  140.8890 C   0  0  0  0  0  1  0  0  0  0  0  0
  188.9570  172.9880  142.3380 C   0  0  1  0  0  3  0  0  0  0  0  0
  189.6580  172.0540  143.2050 N   0  0  0  0  0  2  0  0  0  0  0  0
  190.5300  171.2600  142.3560 C   0  0  0  0  0  2  0  0  0  0  0  0
  191.8380  171.1240  142.9800 N   0  0  0  0  0  2  0  0  0  0  0  0
  192.6550  173.1620  142.1760 O   0  0  0  0  0  0  0  0  0  0  0  0
  192.8620  172.1150  142.8460 C   0  0  0  0  0  0  0  0  0  0  0  0
  194.7630  173.1370  143.8680 O   0  0  0  0  0  0  0  0  0  0  0  0
  194.1970  171.9050  143.4770 C   0  0  1  0  0  3  0  0  0  0  0  0
  194.0860  171.0080  144.6760 C   0  0  0  0  0  2  0  0  0  0  0  0
  194.8060  171.8000  145.7080 C   0  0  0  0  0  2  0  0  0  0  0  0
  194.7480  173.1700  145.2360 N   0  0  0  0  0  0  0  0  0  0  0  0
  195.9790  173.8170  145.6630 C   0  0  0  0  0  2  0  0  0  0  0  0
  196.4910  174.7240  144.5620 C   0  0  0  0  0  1  0  0  0  0  0  0
  190.4400  176.6710  146.7530 C   0  0  0  0  0  0  0  0  0  0  0  0
  191.0160  176.1630  145.6310 C   0  0  0  0  0  0  0  0  0  0  0  0
  191.1880  176.9480  147.9510 N   0  0  0  0  0  2  0  0  0  0  0  0
  191.6490  178.1510  149.9220 N   0  0  0  0  0  2  0  0  0  0  0  0
  190.8690  177.9550  148.9120 C   0  0  0  0  0  3  0  0  0  0  0  0
  193.2970  176.7000  144.8120 C   0  0  0  0  0  1  0  0  0  0  0  0
  192.4570  175.7340  145.6290 C   0  0  0  0  0  2  0  0  0  0  0  0
  188.1040  175.7660  147.0960 C   0  0  0  0  0  1  0  0  0  0  0  0
  189.0210  176.8530  146.7930 N   0  0  0  0  0  2  0  0  0  0  0  0
  188.3080  177.9400  141.8100 C   0  0  0  0  0  2  0  0  0  0  0  0
  182.6720  178.3530  141.6200 C   0  0  0  0  0  0  0  0  0  0  0  0
  187.1430  178.4060  142.5540 N   0  0  0  0  0  2  0  0  0  0  0  0
  184.7890  178.6350  142.9360 C   0  0  0  0  0  3  0  0  0  0  0  0
  181.4180  178.4150  141.7190 O   0  0  0  0  0  0  0  0  0  0  0  0
  183.1930  177.9970  140.3860 C   0  0  0  0  0  3  0  0  0  0  0  0
  185.6280  178.0180  140.7350 N   0  0  0  0  0  0  0  0  0  0  0  0
  185.8080  178.3470  142.0390 C   0  0  0  0  0  0  0  0  0  0  0  0
  184.5130  177.8530  139.9870 C   0  0  0  0  0  3  0  0  0  0  0  0
  183.4140  178.6420  142.7550 C   0  0  0  0  0  3  0  0  0  0  0  0
  1  2  1  0  0  0  0
  2  6  2  0  0  0  0
  3  6  1  0  0  0  0
  4  3  2  0  0  0  0
  5  4  1  0  0  0  0
  5  1  2  0  0  0  0
  6 22  1  0  0  0  0
  8  7  1  6  0  0  0
  8  1  1  0  0  0  0
  8  9  1  0  0  0  0
 10 11  1  0  0  0  0
 10  9  1  0  0  0  0
 12 13  2  0  0  0  0
 13 11  1  0  0  0  0
 14 18  1  0  0  0  0
 15 13  1  1  0  0  0
 15 14  1  0  0  0  0
 15 16  1  0  0  0  0
 16 17  1  0  0  0  0
 18 19  1  0  0  0  0
 18 17  1  0  0  0  0
 20 19  1  0  0  0  0
 21 29  1  0  0  0  0
 21 23  1  0  0  0  0
 22 21  2  0  0  0  0
 23 25  1  0  0  0  0
 25 24  2  0  0  0  0
 26 27  1  0  0  0  0
 27 22  1  0  0  0  0
 29 28  1  0  0  0  0
 30  4  1  0  0  0  0
 30 32  1  0  0  0  0
 31 34  2  0  0  0  0
 31 39  1  0  0  0  0
 35 31  1  0  0  0  0
 36 37  2  0  0  0  0
 37 32  1  0  0  0  0
 37 33  1  0  0  0  0
 38 35  2  0  0  0  0
 38 36  1  0  0  0  0
 39 33  2  0  0  0  0
M  END
>  <MODEL>
8

>  <REMARK>
 VINA RESULT:      -6.3      2.435      8.611
  Name = 
  12 active torsions:
  status: ('A' for Active; 'I' for Inactive)
    1  A    between atoms: N_2  and  C_27
    2  A    between atoms: N_3  and  C_9
    3  A    between atoms: N_6  and  C_9
    4  A    between atoms: N_6  and  C_11
    5  A    between atoms: C_7  and  C_11
    6  A    between atoms: C_10  and  N_17
    7  A    between atoms: C_10  and  N_34
    8  A    between atoms: C_15  and  N_36
    9  A    between atoms: C_19  and  C_30
   10  A    between atoms: C_21  and  C_32
   11  A    between atoms: C_27  and  C_29
   12  A    between atoms: C_30  and  C_39
                            x       y       z     vdW  Elec       q    Type
                         _______ _______ _______ _____ _____    ______ ____

>  <TORSDO>
F 12

$$$$
=
 OpenBabel11042414573D

 39 41  0  0  1  0  0  0  0  0999 V2000
  195.0440  175.5140  143.4650 C   0  0  0  0  0  0  0  0  0  0  0  0
  195.4830  174.2430  143.8520 C   0  0  0  0  0  3  0  0  0  0  0  0
  194.0110  174.3100  145.7710 C   0  0  0  0  0  3  0  0  0  0  0  0
  193.5730  175.5840  145.3940 C   0  0  0  0  0  0  0  0  0  0  0  0
  194.0960  176.1870  144.2480 C   0  0  0  0  0  3  0  0  0  0  0  0
  194.9830  173.6330  145.0150 C   0  0  0  0  0  0  0  0  0  0  0  0
  196.6700  175.2450  141.5880 C   0  0  0  0  0  1  0  0  0  0  0  0
  195.6260  176.1430  142.2400 C   0  0  1  0  0  3  0  0  0  0  0  0
  194.5680  176.4570  141.2910 N   0  0  0  0  0  2  0  0  0  0  0  0
  194.2500  175.2250  140.5880 C   0  0  0  0  0  2  0  0  0  0  0  0
  192.9310  174.7560  140.9860 N   0  0  0  0  0  2  0  0  0  0  0  0
  193.6060  172.5460  141.3420 O   0  0  0  0  0  0  0  0  0  0  0  0
  192.6750  173.3950  141.3480 C   0  0  0  0  0  0  0  0  0  0  0  0
  190.3960  174.0460  141.6390 O   0  0  0  0  0  0  0  0  0  0  0  0
  191.2940  172.9610  141.7110 C   0  0  1  0  0  3  0  0  0  0  0  0
  190.8230  171.8650  140.7990 C   0  0  0  0  0  2  0  0  0  0  0  0
  189.4980  172.3860  140.3680 C   0  0  0  0  0  2  0  0  0  0  0  0
  189.5790  173.8210  140.5640 N   0  0  0  0  0  0  0  0  0  0  0  0
  188.2470  174.2730  140.9360 C   0  0  0  0  0  2  0  0  0  0  0  0
  188.2840  174.9040  142.3140 C   0  0  0  0  0  1  0  0  0  0  0  0
  194.5820  171.1950  145.3230 C   0  0  0  0  0  0  0  0  0  0  0  0
  195.4140  172.2660  145.4150 C   0  0  0  0  0  0  0  0  0  0  0  0
  194.9700  169.8730  145.7390 N   0  0  0  0  0  2  0  0  0  0  0  0
  195.2800  168.1660  147.3310 N   0  0  0  0  0  2  0  0  0  0  0  0
  194.8420  169.3500  147.0620 C   0  0  0  0  0  3  0  0  0  0  0  0
  197.7220  171.7920  144.6340 C   0  0  0  0  0  1  0  0  0  0  0  0
  196.8470  172.0960  145.8380 C   0  0  0  0  0  2  0  0  0  0  0  0
  192.6990  170.3100  143.8860 C   0  0  0  0  0  1  0  0  0  0  0  0
  193.3020  171.3510  144.7020 N   0  0  0  0  0  2  0  0  0  0  0  0
  192.4840  176.2610  146.1550 C   0  0  0  0  0  2  0  0  0  0  0  0
  186.9960  177.3640  145.3520 C   0  0  0  0  0  0  0  0  0  0  0  0
  191.5360  176.8750  145.2320 N   0  0  0  0  0  2  0  0  0  0  0  0
  189.3670  177.6590  144.5850 C   0  0  0  0  0  3  0  0  0  0  0  0
  185.8170  177.7360  145.1160 O   0  0  0  0  0  0  0  0  0  0  0  0
  187.1840  176.4790  146.4010 C   0  0  0  0  0  3  0  0  0  0  0  0
  189.6140  176.0930  146.4330 N   0  0  0  0  0  0  0  0  0  0  0  0
  190.1200  176.8640  145.4370 C   0  0  0  0  0  0  0  0  0  0  0  0
  188.3510  175.9050  146.8820 C   0  0  0  0  0  3  0  0  0  0  0  0
  187.9980  177.8790  144.5420 C   0  0  0  0  0  3  0  0  0  0  0  0
  1  2  2  0  0  0  0
  1  5  1  0  0  0  0
  2  6  1  0  0  0  0
  4  3  1  0  0  0  0
  4 30  1  0  0  0  0
  5  4  2  0  0  0  0
  6 22  1  0  0  0  0
  6  3  2  0  0  0  0
  8  7  1  6  0  0  0
  8  1  1  0  0  0  0
  9  8  1  0  0  0  0
 10 11  1  0  0  0  0
 10  9  1  0  0  0  0
 11 13  1  0  0  0  0
 12 13  2  0  0  0  0
 14 15  1  0  0  0  0
 15 13  1  6  0  0  0
 16 15  1  0  0  0  0
 17 18  1  0  0  0  0
 17 16  1  0  0  0  0
 18 19  1  0  0  0  0
 18 14  1  0  0  0  0
 19 20  1  0  0  0  0
 21 22  2  0  0  0  0
 21 23  1  0  0  0  0
 22 27  1  0  0  0  0
 23 25  1  0  0  0  0
 25 24  2  0  0  0  0
 26 27  1  0  0  0  0
 28 29  1  0  0  0  0
 29 21  1  0  0  0  0
 31 35  1  0  0  0  0
 32 37  1  0  0  0  0
 32 30  1  0  0  0  0
 33 37  1  0  0  0  0
 34 31  2  0  0  0  0
 35 38  2  0  0  0  0
 36 38  1  0  0  0  0
 37 36  2  0  0  0  0
 39 33  2  0  0  0  0
 39 31  1  0  0  0  0
M  END
>  <MODEL>
9

>  <REMARK>
 VINA RESULT:      -6.3      3.136      7.747
  Name = 
  12 active torsions:
  status: ('A' for Active; 'I' for Inactive)
    1  A    between atoms: N_2  and  C_27
    2  A    between atoms: N_3  and  C_9
    3  A    between atoms: N_6  and  C_9
    4  A    between atoms: N_6  and  C_11
    5  A    between atoms: C_7  and  C_11
    6  A    between atoms: C_10  and  N_17
    7  A    between atoms: C_10  and  N_34
    8  A    between atoms: C_15  and  N_36
    9  A    between atoms: C_19  and  C_30
   10  A    between atoms: C_21  and  C_32
   11  A    between atoms: C_27  and  C_29
   12  A    between atoms: C_30  and  C_39
                            x       y       z     vdW  Elec       q    Type
                         _______ _______ _______ _____ _____    ______ ____

>  <TORSDO>
F 12

$$$$
