=
 OpenBabel11042419103D

 59 65  0  0  1  0  0  0  0  0999 V2000
  194.2790  173.8760  145.5580 C   0  0  0  0  0  0  0  0  0  0  0  0
  191.8390  174.4490  145.8430 C   0  0  0  0  0  0  0  0  0  0  0  0
  193.9750  172.4140  145.6330 C   0  0  0  0  0  2  0  0  0  0  0  0
  191.9050  172.4520  144.3130 C   0  0  0  0  0  3  0  0  0  0  0  0
  191.2290  173.4110  145.2070 C   0  0  0  0  0  0  0  0  0  0  0  0
  193.6160  176.2550  145.7490 C   0  0  0  0  0  1  0  0  0  0  0  0
  193.2860  174.7930  145.6800 C   0  0  0  0  0  0  0  0  0  0  0  0
  189.8880  173.2560  145.2990 F   0  0  0  0  0  0  0  0  0  0  0  0
  193.1530  172.0150  144.4570 C   0  0  0  0  0  0  0  0  0  0  0  0
  194.1050  170.3250  142.6630 C   0  0  0  0  0  0  0  0  0  0  0  0
  193.6840  171.1080  143.4770 C   0  0  0  0  0  0  0  0  0  0  0  0
  194.5940  169.3470  141.6880 C   0  0  0  0  0  2  0  0  0  0  0  0
  193.4780  168.9410  140.7430 C   0  0  0  0  0  2  0  0  0  0  0  0
  192.0000  172.0790  139.2670 N   0  0  0  0  0  2  0  0  0  0  0  0
  192.6450  170.1310  140.3810 C   0  0  0  0  0  0  0  0  0  0  0  0
  193.0400  171.1630  139.5070 N   0  0  0  0  0  0  0  0  0  0  0  0
  191.4080  170.3400  140.7520 C   0  0  0  0  0  0  0  0  0  0  0  0
  190.6750  169.4900  141.5820 O   0  0  0  0  0  1  0  0  0  0  0  0
  190.8920  171.5950  140.1170 C   0  0  1  0  0  3  0  0  0  0  0  0
  194.3110  171.2230  138.8070 C   0  0  0  0  0  1  0  0  0  0  0  0
  188.7320  174.1010  142.1950 C   0  0  0  0  0  2  0  0  0  0  0  0
  191.1200  174.8850  142.1790 C   0  0  2  0  0  3  0  0  0  0  0  0
  189.0550  173.0960  141.0910 C   0  0  1  0  0  3  0  0  0  0  0  0
  188.6790  173.6600  139.7280 C   0  0  0  0  0  1  0  0  0  0  0  0
  190.5280  172.6520  141.1720 C   0  0  2  0  0  3  0  0  0  0  0  0
  191.4650  173.8610  141.0850 C   0  0  0  0  0  2  0  0  0  0  0  0
  189.6490  175.3200  142.1280 C   0  0  0  0  0  2  0  0  0  0  0  0
  192.0210  175.9830  142.2110 O   0  0  0  0  0  0  0  0  0  0  0  0
  191.4220  177.0490  142.9190 C   0  0  0  0  0  1  0  0  0  0  0  0
  195.6950  174.2500  145.3410 C   0  0  0  0  0  0  0  0  0  0  0  0
  196.5510  174.0540  146.2360 O   0  0  0  0  0  0  0  0  0  0  0  0
  196.1230  174.8870  144.0630 C   0  0  0  0  0  2  0  0  0  0  0  0
  195.7950  174.0260  142.9360 N   0  0  0  0  0  2  0  0  0  0  0  0
  197.1330  172.7170  141.5400 O   0  0  0  0  0  1  0  0  0  0  0  0
  196.9530  174.0070  142.0500 C   0  0  1  0  0  3  0  0  0  0  0  0
  197.3530  174.5040  139.7230 O   0  0  0  0  0  0  0  0  0  0  0  0
  196.3430  174.4430  138.7290 C   0  0  0  0  0  2  0  0  0  0  0  0
  193.9670  175.0010  138.8280 N   0  0  0  0  0  2  0  0  0  0  0  0
  195.1280  174.9110  139.3820 C   0  0  0  0  0  0  0  0  0  0  0  0
  195.3840  175.2380  140.6710 O   0  0  0  0  0  0  0  0  0  0  0  0
  196.7580  175.0030  140.9120 C   0  0  1  0  0  3  0  0  0  0  0  0
  191.0980  175.3340  146.6480 O   0  0  0  0  0  0  0  0  0  0  0  0
  190.6770  176.5420  146.2370 O   0  0  0  0  0  0  0  0  0  0  0  0
  189.3100  176.3910  145.9830 C   0  0  0  0  0  2  0  0  0  0  0  0
  189.0090  178.1980  147.5340 O   0  0  0  0  0  1  0  0  0  0  0  0
  188.4850  176.9670  147.1280 C   0  0  1  0  0  3  0  0  0  0  0  0
  185.6170  178.2890  145.2600 C   0  0  2  0  0  0  0  0  0  0  0  0
  186.0820  178.2420  141.4460 C   0  0  0  0  0  2  0  0  0  0  0  0
  185.4700  180.3870  144.0840 O   0  0  0  0  0  0  0  0  0  0  0  0
  186.7170  178.4940  146.2470 C   0  0  0  0  0  2  0  0  0  0  0  0
  185.8070  179.2110  144.0540 C   0  0  0  0  0  0  0  0  0  0  0  0
  187.0100  177.1020  146.7530 C   0  0  1  0  0  3  0  0  0  0  0  0
  185.4670  177.5040  142.5940 C   0  0  1  0  0  3  0  0  0  0  0  0
  186.6540  176.1570  145.7720 O   0  0  0  0  0  0  0  0  0  0  0  0
  184.2760  178.5560  145.9260 C   0  0  0  0  0  1  0  0  0  0  0  0
  186.0240  176.3950  143.4590 C   0  0  0  0  0  2  0  0  0  0  0  0
  186.4830  178.6440  142.8510 C   0  0  1  0  0  0  0  0  0  0  0  0
  187.7880  178.2410  143.1040 F   0  0  0  0  0  0  0  0  0  0  0  0
  185.7120  176.7700  144.9310 C   0  0  2  0  0  3  0  0  0  0  0  0
  1  3  1  0  0  0  0
  1  7  2  0  0  0  0
  2 42  1  0  0  0  0
  4  9  2  0  0  0  0
  4  5  1  0  0  0  0
  5  8  1  0  0  0  0
  5  2  2  0  0  0  0
  7  6  1  0  0  0  0
  7  2  1  0  0  0  0
  9  3  1  0  0  0  0
 10 11  3  0  0  0  0
 11  9  1  0  0  0  0
 12 10  1  0  0  0  0
 13 12  1  0  0  0  0
 14 16  1  0  0  0  0
 15 13  1  0  0  0  0
 15 17  2  0  0  0  0
 16 15  1  0  0  0  0
 17 18  1  0  0  0  0
 19 14  1  6  0  0  0
 19 17  1  0  0  0  0
 19 25  1  0  0  0  0
 20 16  1  0  0  0  0
 22 28  1  6  0  0  0
 23 24  1  6  0  0  0
 23 25  1  0  0  0  0
 23 21  1  0  0  0  0
 25 26  1  6  0  0  0
 26 22  1  0  0  0  0
 27 22  1  0  0  0  0
 27 21  1  0  0  0  0
 28 29  1  0  0  0  0
 30  1  1  0  0  0  0
 30 31  2  0  0  0  0
 32 30  1  0  0  0  0
 33 32  1  0  0  0  0
 35 34  1  6  0  0  0
 35 33  1  0  0  0  0
 36 41  1  0  0  0  0
 37 39  1  0  0  0  0
 37 36  1  0  0  0  0
 38 39  2  0  0  0  0
 39 40  1  0  0  0  0
 40 41  1  0  0  0  0
 41 35  1  1  0  0  0
 43 42  1  0  0  0  0
 44 43  1  0  0  0  0
 44 46  1  0  0  0  0
 46 45  1  6  0  0  0
 47 55  1  1  0  0  0
 47 50  1  0  0  0  0
 48 57  1  0  0  0  0
 50 52  1  0  0  0  0
 51 49  2  0  0  0  0
 51 47  1  0  0  0  0
 52 46  1  6  0  0  0
 53 48  1  6  0  0  0
 53 57  1  0  0  0  0
 53 56  1  0  0  0  0
 54 52  1  0  0  0  0
 57 58  1  1  0  0  0
 57 51  1  0  0  0  0
 59 56  1  6  0  0  0
 59 47  1  0  0  0  0
 59 54  1  0  0  0  0
M  END
>  <MODEL>
1

>  <REMARK>
 VINA RESULT:      -7.3      0.000      0.000
  Name = 
  16 active torsions:
  status: ('A' for Active; 'I' for Inactive)
    1  A    between atoms: C_1  and  C_18
    2  A    between atoms: C_3  and  C_46
    3  A    between atoms: O_4  and  C_34
    4  A    between atoms: O_4  and  O_50
    5  A    between atoms: C_6  and  O_50
    6  A    between atoms: N_9  and  C_27
    7  A    between atoms: N_9  and  C_32
    8  A    between atoms: C_14  and  C_26
    9  A    between atoms: C_15  and  O_42
   10  A    between atoms: C_18  and  C_27
   11  A    between atoms: C_23  and  C_25
   12  A    between atoms: C_25  and  C_34
   13  A    between atoms: C_26  and  C_46
   14  A    between atoms: C_32  and  C_38
   15  A    between atoms: C_33  and  C_49
   16  A    between atoms: C_56  and  C_59
                            x       y       z     vdW  Elec       q    Type
                         _______ _______ _______ _____ _____    ______ ____

>  <TORSDO>
F 16

$$$$
=
 OpenBabel11042419103D

 59 65  0  0  1  0  0  0  0  0999 V2000
  195.0210  175.0890  143.7100 C   0  0  0  0  0  0  0  0  0  0  0  0
  192.5940  175.7410  143.9270 C   0  0  0  0  0  0  0  0  0  0  0  0
  194.6970  174.1440  142.5970 C   0  0  0  0  0  2  0  0  0  0  0  0
  193.0390  175.5510  141.4580 C   0  0  0  0  0  3  0  0  0  0  0  0
  192.1610  175.6540  142.6400 C   0  0  0  0  0  0  0  0  0  0  0  0
  194.3470  176.6290  145.5290 C   0  0  0  0  0  1  0  0  0  0  0  0
  194.0370  175.7950  144.3210 C   0  0  0  0  0  0  0  0  0  0  0  0
  190.8410  175.7560  142.3620 F   0  0  0  0  0  0  0  0  0  0  0  0
  194.2040  174.9110  141.4190 C   0  0  0  0  0  0  0  0  0  0  0  0
  195.5720  174.9440  139.1590 C   0  0  0  0  0  0  0  0  0  0  0  0
  194.9630  174.9320  140.2000 C   0  0  0  0  0  0  0  0  0  0  0  0
  196.2820  174.9440  137.8780 C   0  0  0  0  0  2  0  0  0  0  0  0
  195.9220  173.7070  137.0760 C   0  0  0  0  0  2  0  0  0  0  0  0
  192.1810  173.4470  136.6870 N   0  0  0  0  0  2  0  0  0  0  0  0
  194.4590  173.4150  137.2010 C   0  0  0  0  0  0  0  0  0  0  0  0
  193.4440  174.0110  136.4270 N   0  0  0  0  0  0  0  0  0  0  0  0
  193.9240  172.5080  137.9770 C   0  0  0  0  0  0  0  0  0  0  0  0
  194.6410  171.6860  138.8470 O   0  0  0  0  0  1  0  0  0  0  0  0
  192.4420  172.4600  137.7560 C   0  0  1  0  0  3  0  0  0  0  0  0
  193.6610  174.9900  135.3770 C   0  0  0  0  0  1  0  0  0  0  0  0
  190.8130  172.1050  141.2890 C   0  0  0  0  0  2  0  0  0  0  0  0
  189.5540  173.8340  139.9680 C   0  0  2  0  0  3  0  0  0  0  0  0
  191.5370  171.6620  140.0180 C   0  0  1  0  0  3  0  0  0  0  0  0
  190.8510  170.4470  139.4090 C   0  0  0  0  0  1  0  0  0  0  0  0
  191.6690  172.8360  139.0290 C   0  0  2  0  0  3  0  0  0  0  0  0
  190.2930  173.4160  138.6870 C   0  0  0  0  0  2  0  0  0  0  0  0
  189.4350  172.6820  140.9760 C   0  0  0  0  0  2  0  0  0  0  0  0
  188.3120  174.4720  139.7070 O   0  0  0  0  0  0  0  0  0  0  0  0
  188.0460  175.4020  140.7370 C   0  0  0  0  0  1  0  0  0  0  0  0
  196.4470  175.2080  144.0870 C   0  0  0  0  0  0  0  0  0  0  0  0
  197.1330  176.1840  143.6960 O   0  0  0  0  0  0  0  0  0  0  0  0
  197.1020  174.1570  144.9180 C   0  0  0  0  0  2  0  0  0  0  0  0
  196.1210  173.5170  145.7830 N   0  0  0  0  0  2  0  0  0  0  0  0
  197.0550  171.3940  146.0500 O   0  0  0  0  0  1  0  0  0  0  0  0
  196.0490  172.1130  145.3970 C   0  0  1  0  0  3  0  0  0  0  0  0
  193.6780  172.5330  145.5550 O   0  0  0  0  0  0  0  0  0  0  0  0
  192.7340  172.0160  144.6320 C   0  0  0  0  0  2  0  0  0  0  0  0
  192.6580  169.8810  143.4470 N   0  0  0  0  0  2  0  0  0  0  0  0
  193.2230  170.6910  144.2770 C   0  0  0  0  0  0  0  0  0  0  0  0
  194.3730  170.4220  144.9400 O   0  0  0  0  0  0  0  0  0  0  0  0
  194.6790  171.5430  145.7470 C   0  0  1  0  0  3  0  0  0  0  0  0
  191.6770  175.8760  144.9860 O   0  0  0  0  0  0  0  0  0  0  0  0
  191.0140  177.0120  145.2600 O   0  0  0  0  0  0  0  0  0  0  0  0
  189.6590  176.6720  145.2080 C   0  0  0  0  0  2  0  0  0  0  0  0
  189.5800  177.9020  147.2680 O   0  0  0  0  0  1  0  0  0  0  0  0
  189.0140  176.8240  146.5810 C   0  0  1  0  0  3  0  0  0  0  0  0
  185.8720  178.2210  145.3040 C   0  0  2  0  0  0  0  0  0  0  0  0
  185.6420  178.3010  141.4700 C   0  0  0  0  0  2  0  0  0  0  0  0
  185.5380  180.3580  144.2420 O   0  0  0  0  0  0  0  0  0  0  0  0
  187.1340  178.3870  146.0830 C   0  0  0  0  0  2  0  0  0  0  0  0
  185.8520  179.1830  144.1140 C   0  0  0  0  0  0  0  0  0  0  0  0
  187.4980  176.9780  146.4830 C   0  0  1  0  0  3  0  0  0  0  0  0
  185.2370  177.5270  142.6850 C   0  0  1  0  0  3  0  0  0  0  0  0
  186.9610  176.0690  145.5520 O   0  0  0  0  0  0  0  0  0  0  0  0
  184.6760  178.4730  146.2090 C   0  0  0  0  0  1  0  0  0  0  0  0
  185.9280  176.3880  143.3990 C   0  0  0  0  0  2  0  0  0  0  0  0
  186.2940  178.6530  142.7910 C   0  0  1  0  0  0  0  0  0  0  0  0
  187.6190  178.2360  142.7920 F   0  0  0  0  0  0  0  0  0  0  0  0
  185.8900  176.7140  144.9140 C   0  0  2  0  0  3  0  0  0  0  0  0
  1 30  1  0  0  0  0
  1  7  2  0  0  0  0
  2  7  1  0  0  0  0
  2 42  1  0  0  0  0
  3  1  1  0  0  0  0
  4  5  1  0  0  0  0
  5  2  2  0  0  0  0
  7  6  1  0  0  0  0
  8  5  1  0  0  0  0
  9  4  2  0  0  0  0
  9  3  1  0  0  0  0
 10 11  3  0  0  0  0
 11  9  1  0  0  0  0
 12 10  1  0  0  0  0
 13 15  1  0  0  0  0
 13 12  1  0  0  0  0
 15 17  2  0  0  0  0
 16 14  1  0  0  0  0
 16 15  1  0  0  0  0
 17 18  1  0  0  0  0
 19 14  1  6  0  0  0
 19 17  1  0  0  0  0
 19 25  1  0  0  0  0
 20 16  1  0  0  0  0
 22 28  1  6  0  0  0
 22 27  1  0  0  0  0
 23 24  1  6  0  0  0
 23 21  1  0  0  0  0
 25 26  1  6  0  0  0
 25 23  1  0  0  0  0
 26 22  1  0  0  0  0
 27 21  1  0  0  0  0
 28 29  1  0  0  0  0
 30 32  1  0  0  0  0
 31 30  2  0  0  0  0
 32 33  1  0  0  0  0
 35 33  1  0  0  0  0
 35 34  1  1  0  0  0
 36 41  1  0  0  0  0
 37 36  1  0  0  0  0
 38 39  2  0  0  0  0
 39 37  1  0  0  0  0
 39 40  1  0  0  0  0
 40 41  1  0  0  0  0
 41 35  1  6  0  0  0
 42 43  1  0  0  0  0
 44 43  1  0  0  0  0
 44 46  1  0  0  0  0
 46 45  1  6  0  0  0
 47 50  1  0  0  0  0
 47 55  1  1  0  0  0
 48 57  1  0  0  0  0
 50 52  1  0  0  0  0
 51 49  2  0  0  0  0
 51 47  1  0  0  0  0
 52 46  1  6  0  0  0
 53 48  1  6  0  0  0
 53 57  1  0  0  0  0
 53 56  1  0  0  0  0
 54 52  1  0  0  0  0
 57 58  1  1  0  0  0
 57 51  1  0  0  0  0
 59 56  1  6  0  0  0
 59 47  1  0  0  0  0
 59 54  1  0  0  0  0
M  END
>  <MODEL>
2

>  <REMARK>
 VINA RESULT:      -7.1      2.015      3.768
  Name = 
  16 active torsions:
  status: ('A' for Active; 'I' for Inactive)
    1  A    between atoms: C_1  and  C_18
    2  A    between atoms: C_3  and  C_46
    3  A    between atoms: O_4  and  C_34
    4  A    between atoms: O_4  and  O_50
    5  A    between atoms: C_6  and  O_50
    6  A    between atoms: N_9  and  C_27
    7  A    between atoms: N_9  and  C_32
    8  A    between atoms: C_14  and  C_26
    9  A    between atoms: C_15  and  O_42
   10  A    between atoms: C_18  and  C_27
   11  A    between atoms: C_23  and  C_25
   12  A    between atoms: C_25  and  C_34
   13  A    between atoms: C_26  and  C_46
   14  A    between atoms: C_32  and  C_38
   15  A    between atoms: C_33  and  C_49
   16  A    between atoms: C_56  and  C_59
                            x       y       z     vdW  Elec       q    Type
                         _______ _______ _______ _____ _____    ______ ____

>  <TORSDO>
F 16

$$$$
=
 OpenBabel11042419103D

 59 65  0  0  1  0  0  0  0  0999 V2000
  190.9310  173.1610  144.5070 C   0  0  0  0  0  0  0  0  0  0  0  0
  192.1820  174.8770  145.8680 C   0  0  0  0  0  0  0  0  0  0  0  0
  192.1440  172.8940  143.6740 C   0  0  0  0  0  2  0  0  0  0  0  0
  193.7990  172.9870  145.4860 C   0  0  0  0  0  3  0  0  0  0  0  0
  193.4420  174.3630  145.8810 C   0  0  0  0  0  0  0  0  0  0  0  0
  189.7070  174.4580  146.2260 C   0  0  0  0  0  1  0  0  0  0  0  0
  190.9650  174.0920  145.4930 C   0  0  0  0  0  0  0  0  0  0  0  0
  194.4680  175.0990  146.3700 F   0  0  0  0  0  0  0  0  0  0  0  0
  193.2070  172.2860  144.5230 C   0  0  0  0  0  0  0  0  0  0  0  0
  194.0160  169.8040  144.1120 C   0  0  0  0  0  0  0  0  0  0  0  0
  193.6430  170.9390  144.2810 C   0  0  0  0  0  0  0  0  0  0  0  0
  194.4810  168.4270  143.9410 C   0  0  0  0  0  2  0  0  0  0  0  0
  195.9610  168.4090  143.5990 C   0  0  0  0  0  2  0  0  0  0  0  0
  197.5350  171.8270  143.3660 N   0  0  0  0  0  2  0  0  0  0  0  0
  196.4200  169.7800  143.2120 C   0  0  0  0  0  0  0  0  0  0  0  0
  197.1360  170.6620  144.0470 N   0  0  0  0  0  0  0  0  0  0  0  0
  196.3030  170.3190  142.0260 C   0  0  0  0  0  0  0  0  0  0  0  0
  195.6920  169.7040  140.9330 O   0  0  0  0  0  1  0  0  0  0  0  0
  196.9610  171.6660  142.0130 C   0  0  1  0  0  3  0  0  0  0  0  0
  197.5520  170.3710  145.4070 C   0  0  0  0  0  1  0  0  0  0  0  0
  194.9610  174.3750  140.0320 C   0  0  0  0  0  2  0  0  0  0  0  0
  195.0480  175.0230  142.4600 C   0  0  2  0  0  3  0  0  0  0  0  0
  196.0260  173.3070  140.2790 C   0  0  1  0  0  3  0  0  0  0  0  0
  197.4050  173.8340  139.9110 C   0  0  0  0  0  1  0  0  0  0  0  0
  195.9480  172.7850  141.7270 C   0  0  2  0  0  3  0  0  0  0  0  0
  196.1010  173.9350  142.7280 C   0  0  0  0  0  2  0  0  0  0  0  0
  195.0940  175.5360  141.0140 C   0  0  0  0  0  2  0  0  0  0  0  0
  195.0770  176.0680  143.4200 O   0  0  0  0  0  0  0  0  0  0  0  0
  196.3760  176.6240  143.4570 C   0  0  0  0  0  1  0  0  0  0  0  0
  189.7240  172.3610  144.1980 C   0  0  0  0  0  0  0  0  0  0  0  0
  189.3910  171.3990  144.9320 O   0  0  0  0  0  0  0  0  0  0  0  0
  188.8970  172.6690  142.9970 C   0  0  0  0  0  2  0  0  0  0  0  0
  189.3110  171.8400  141.8740 N   0  0  0  0  0  2  0  0  0  0  0  0
  188.5500  173.8350  140.9310 O   0  0  0  0  0  1  0  0  0  0  0  0
  189.2980  172.6790  140.6830 C   0  0  1  0  0  3  0  0  0  0  0  0
  191.5590  171.9000  140.3610 O   0  0  0  0  0  0  0  0  0  0  0  0
  192.1400  171.7050  139.0830 C   0  0  0  0  0  2  0  0  0  0  0  0
  191.8730  172.9500  136.9980 N   0  0  0  0  0  2  0  0  0  0  0  0
  191.6040  172.7710  138.2470 C   0  0  0  0  0  0  0  0  0  0  0  0
  190.7680  173.5560  138.9660 O   0  0  0  0  0  0  0  0  0  0  0  0
  190.7240  173.0460  140.2850 C   0  0  1  0  0  3  0  0  0  0  0  0
  191.9380  176.1940  146.3020 O   0  0  0  0  0  0  0  0  0  0  0  0
  192.2100  177.2840  145.5670 O   0  0  0  0  0  0  0  0  0  0  0  0
  191.7140  177.0040  144.2900 C   0  0  0  0  0  2  0  0  0  0  0  0
  190.3170  178.0830  142.6620 O   0  0  0  0  0  1  0  0  0  0  0  0
  190.4370  177.7940  144.0250 C   0  0  1  0  0  3  0  0  0  0  0  0
  186.8900  177.4190  144.8820 C   0  0  2  0  0  0  0  0  0  0  0  0
  184.4850  178.5360  142.1020 C   0  0  0  0  0  2  0  0  0  0  0  0
  185.3100  179.1630  145.3970 O   0  0  0  0  0  0  0  0  0  0  0  0
  188.2230  178.0350  145.1500 C   0  0  0  0  0  2  0  0  0  0  0  0
  185.8660  178.5000  144.5320 C   0  0  0  0  0  0  0  0  0  0  0  0
  189.1990  177.0610  144.5360 C   0  0  1  0  0  3  0  0  0  0  0  0
  185.1430  177.3410  142.7170 C   0  0  1  0  0  3  0  0  0  0  0  0
  188.5700  176.3540  143.4940 O   0  0  0  0  0  0  0  0  0  0  0  0
  186.4350  176.6330  146.1010 C   0  0  0  0  0  1  0  0  0  0  0  0
  186.4530  176.6620  142.3860 C   0  0  0  0  0  2  0  0  0  0  0  0
  185.6120  178.7690  143.0860 C   0  0  1  0  0  0  0  0  0  0  0  0
  186.7410  179.2240  142.4160 F   0  0  0  0  0  0  0  0  0  0  0  0
  187.1870  176.4150  143.7290 C   0  0  2  0  0  3  0  0  0  0  0  0
  1  7  2  0  0  0  0
  2  5  2  0  0  0  0
  2 42  1  0  0  0  0
  3  1  1  0  0  0  0
  3  9  1  0  0  0  0
  4  5  1  0  0  0  0
  5  8  1  0  0  0  0
  7  2  1  0  0  0  0
  7  6  1  0  0  0  0
  9  4  2  0  0  0  0
 10 11  3  0  0  0  0
 11  9  1  0  0  0  0
 12 10  1  0  0  0  0
 13 12  1  0  0  0  0
 14 16  1  0  0  0  0
 15 13  1  0  0  0  0
 15 16  1  0  0  0  0
 16 20  1  0  0  0  0
 17 15  2  0  0  0  0
 18 17  1  0  0  0  0
 19 17  1  1  0  0  0
 19 14  1  0  0  0  0
 21 23  1  0  0  0  0
 21 27  1  0  0  0  0
 22 26  1  0  0  0  0
 22 28  1  1  0  0  0
 23 24  1  1  0  0  0
 23 25  1  0  0  0  0
 25 19  1  0  0  0  0
 25 26  1  1  0  0  0
 27 22  1  0  0  0  0
 28 29  1  0  0  0  0
 30  1  1  0  0  0  0
 30 31  2  0  0  0  0
 32 30  1  0  0  0  0
 33 32  1  0  0  0  0
 35 34  1  1  0  0  0
 35 33  1  0  0  0  0
 37 36  1  0  0  0  0
 38 39  2  0  0  0  0
 39 40  1  0  0  0  0
 39 37  1  0  0  0  0
 40 41  1  0  0  0  0
 41 36  1  0  0  0  0
 41 35  1  6  0  0  0
 43 42  1  0  0  0  0
 44 43  1  0  0  0  0
 46 45  1  6  0  0  0
 46 44  1  0  0  0  0
 47 50  1  0  0  0  0
 47 55  1  1  0  0  0
 48 57  1  0  0  0  0
 51 47  1  0  0  0  0
 51 49  2  0  0  0  0
 52 46  1  6  0  0  0
 52 50  1  0  0  0  0
 53 48  1  6  0  0  0
 53 57  1  0  0  0  0
 54 59  1  0  0  0  0
 54 52  1  0  0  0  0
 56 53  1  0  0  0  0
 57 58  1  6  0  0  0
 57 51  1  0  0  0  0
 59 56  1  6  0  0  0
 59 47  1  0  0  0  0
M  END
>  <MODEL>
3

>  <REMARK>
 VINA RESULT:      -6.9      2.209      4.650
  Name = 
  16 active torsions:
  status: ('A' for Active; 'I' for Inactive)
    1  A    between atoms: C_1  and  C_18
    2  A    between atoms: C_3  and  C_46
    3  A    between atoms: O_4  and  C_34
    4  A    between atoms: O_4  and  O_50
    5  A    between atoms: C_6  and  O_50
    6  A    between atoms: N_9  and  C_27
    7  A    between atoms: N_9  and  C_32
    8  A    between atoms: C_14  and  C_26
    9  A    between atoms: C_15  and  O_42
   10  A    between atoms: C_18  and  C_27
   11  A    between atoms: C_23  and  C_25
   12  A    between atoms: C_25  and  C_34
   13  A    between atoms: C_26  and  C_46
   14  A    between atoms: C_32  and  C_38
   15  A    between atoms: C_33  and  C_49
   16  A    between atoms: C_56  and  C_59
                            x       y       z     vdW  Elec       q    Type
                         _______ _______ _______ _____ _____    ______ ____

>  <TORSDO>
F 16

$$$$
=
 OpenBabel11042419103D

 59 65  0  0  1  0  0  0  0  0999 V2000
  190.8300  173.4560  139.6700 C   0  0  0  0  0  0  0  0  0  0  0  0
  188.5050  174.1170  140.3900 C   0  0  0  0  0  0  0  0  0  0  0  0
  191.2980  173.4450  141.0900 C   0  0  0  0  0  2  0  0  0  0  0  0
  189.2940  172.4230  142.0760 C   0  0  0  0  0  3  0  0  0  0  0  0
  188.3890  173.4820  141.5880 C   0  0  0  0  0  0  0  0  0  0  0  0
  189.1270  173.9420  137.9390 C   0  0  0  0  0  1  0  0  0  0  0  0
  189.5500  173.7900  139.3700 C   0  0  0  0  0  0  0  0  0  0  0  0
  187.3300  173.7390  142.3900 F   0  0  0  0  0  0  0  0  0  0  0  0
  190.6010  172.3590  141.8360 C   0  0  0  0  0  0  0  0  0  0  0  0
  191.9940  170.3220  142.7780 C   0  0  0  0  0  0  0  0  0  0  0  0
  191.3430  171.2420  142.3490 C   0  0  0  0  0  0  0  0  0  0  0  0
  192.8170  169.2230  143.2880 C   0  0  0  0  0  2  0  0  0  0  0  0
  194.2860  169.6040  143.2520 C   0  0  0  0  0  2  0  0  0  0  0  0
  194.9100  172.5630  145.5020 N   0  0  0  0  0  2  0  0  0  0  0  0
  194.4870  170.9560  143.8620 C   0  0  0  0  0  0  0  0  0  0  0  0
  194.6060  171.2140  145.2420 N   0  0  0  0  0  0  0  0  0  0  0  0
  194.6670  172.0720  143.2030 C   0  0  0  0  0  0  0  0  0  0  0  0
  194.6660  172.1810  141.8130 O   0  0  0  0  0  1  0  0  0  0  0  0
  194.9180  173.1940  144.1650 C   0  0  1  0  0  3  0  0  0  0  0  0
  194.5680  170.2060  146.2860 C   0  0  0  0  0  1  0  0  0  0  0  0
  193.0310  176.4070  142.9940 C   0  0  0  0  0  2  0  0  0  0  0  0
  192.3670  175.8750  145.3590 C   0  0  2  0  0  3  0  0  0  0  0  0
  194.1750  175.3980  143.0880 C   0  0  1  0  0  3  0  0  0  0  0  0
  195.4800  176.1020  143.4300 C   0  0  0  0  0  1  0  0  0  0  0  0
  193.8240  174.2690  144.0750 C   0  0  2  0  0  3  0  0  0  0  0  0
  193.4980  174.8390  145.4600 C   0  0  0  0  0  2  0  0  0  0  0  0
  192.6890  176.9960  144.3600 C   0  0  0  0  0  2  0  0  0  0  0  0
  191.9530  176.3650  146.6260 O   0  0  0  0  0  0  0  0  0  0  0  0
  191.9200  175.2920  147.5460 C   0  0  0  0  0  1  0  0  0  0  0  0
  191.8250  173.0830  138.6400 C   0  0  0  0  0  0  0  0  0  0  0  0
  191.9010  171.9030  138.2220 O   0  0  0  0  0  0  0  0  0  0  0  0
  192.7720  174.1000  138.0970 C   0  0  0  0  0  2  0  0  0  0  0  0
  193.9930  174.1230  138.8880 N   0  0  0  0  0  2  0  0  0  0  0  0
  194.7440  173.4670  136.7760 O   0  0  0  0  0  1  0  0  0  0  0  0
  195.0070  173.3810  138.1480 C   0  0  1  0  0  3  0  0  0  0  0  0
  196.2950  175.3010  138.8390 O   0  0  0  0  0  0  0  0  0  0  0  0
  196.8690  175.4280  140.1300 C   0  0  0  0  0  2  0  0  0  0  0  0
  197.8630  173.7580  141.6090 N   0  0  0  0  0  2  0  0  0  0  0  0
  197.2970  174.0850  140.4980 C   0  0  0  0  0  0  0  0  0  0  0  0
  197.0100  173.2120  139.5030 O   0  0  0  0  0  0  0  0  0  0  0  0
  196.3930  173.9370  138.4560 C   0  0  1  0  0  3  0  0  0  0  0  0
  187.5650  175.0890  139.9970 O   0  0  0  0  0  0  0  0  0  0  0  0
  187.8110  176.4090  139.9990 O   0  0  0  0  0  0  0  0  0  0  0  0
  186.8030  176.9730  140.7870 C   0  0  0  0  0  2  0  0  0  0  0  0
  186.6450  178.7580  142.3860 O   0  0  0  0  0  1  0  0  0  0  0  0
  187.3970  177.6350  142.0250 C   0  0  1  0  0  3  0  0  0  0  0  0
  187.8410  176.6540  145.5320 C   0  0  2  0  0  0  0  0  0  0  0  0
  185.6010  178.5800  147.9890 C   0  0  0  0  0  2  0  0  0  0  0  0
  188.9160  177.9110  147.2850 O   0  0  0  0  0  0  0  0  0  0  0  0
  188.4030  177.2210  144.2720 C   0  0  0  0  0  2  0  0  0  0  0  0
  187.8910  177.6960  146.6520 C   0  0  0  0  0  0  0  0  0  0  0  0
  187.5090  176.6580  143.1940 C   0  0  1  0  0  3  0  0  0  0  0  0
  185.7300  177.2990  147.2260 C   0  0  1  0  0  3  0  0  0  0  0  0
  186.2400  176.3740  143.7320 O   0  0  0  0  0  0  0  0  0  0  0  0
  188.6250  175.4120  145.9280 C   0  0  0  0  0  1  0  0  0  0  0  0
  185.2290  176.9210  145.8500 C   0  0  0  0  0  2  0  0  0  0  0  0
  186.6580  178.4960  146.9060 C   0  0  1  0  0  0  0  0  0  0  0  0
  186.2840  179.2730  145.8170 F   0  0  0  0  0  0  0  0  0  0  0  0
  186.4040  176.2220  145.1190 C   0  0  2  0  0  3  0  0  0  0  0  0
  1  3  1  0  0  0  0
  2  5  2  0  0  0  0
  3  9  1  0  0  0  0
  5  4  1  0  0  0  0
  5  8  1  0  0  0  0
  6  7  1  0  0  0  0
  7  1  2  0  0  0  0
  7  2  1  0  0  0  0
  9  4  2  0  0  0  0
  9 11  1  0  0  0  0
 10 12  1  0  0  0  0
 11 10  3  0  0  0  0
 13 12  1  0  0  0  0
 13 15  1  0  0  0  0
 15 16  1  0  0  0  0
 16 14  1  0  0  0  0
 16 20  1  0  0  0  0
 17 15  2  0  0  0  0
 18 17  1  0  0  0  0
 19 17  1  6  0  0  0
 19 14  1  0  0  0  0
 21 23  1  0  0  0  0
 21 27  1  0  0  0  0
 22 26  1  0  0  0  0
 22 28  1  1  0  0  0
 23 24  1  1  0  0  0
 23 25  1  0  0  0  0
 25 19  1  0  0  0  0
 25 26  1  1  0  0  0
 27 22  1  0  0  0  0
 28 29  1  0  0  0  0
 30  1  1  0  0  0  0
 31 30  2  0  0  0  0
 32 30  1  0  0  0  0
 32 33  1  0  0  0  0
 35 34  1  6  0  0  0
 35 33  1  0  0  0  0
 36 37  1  0  0  0  0
 37 39  1  0  0  0  0
 39 38  2  0  0  0  0
 40 39  1  0  0  0  0
 41 35  1  1  0  0  0
 41 36  1  0  0  0  0
 41 40  1  0  0  0  0
 42 43  1  0  0  0  0
 42  2  1  0  0  0  0
 43 44  1  0  0  0  0
 44 46  1  0  0  0  0
 46 45  1  1  0  0  0
 47 55  1  1  0  0  0
 47 51  1  0  0  0  0
 50 47  1  0  0  0  0
 51 57  1  0  0  0  0
 51 49  2  0  0  0  0
 52 46  1  6  0  0  0
 52 54  1  0  0  0  0
 52 50  1  0  0  0  0
 53 56  1  6  0  0  0
 53 48  1  0  0  0  0
 54 59  1  0  0  0  0
 57 58  1  6  0  0  0
 57 53  1  0  0  0  0
 57 48  1  0  0  0  0
 59 47  1  0  0  0  0
 59 56  1  1  0  0  0
M  END
>  <MODEL>
4

>  <REMARK>
 VINA RESULT:      -6.8      2.115      5.116
  Name = 
  16 active torsions:
  status: ('A' for Active; 'I' for Inactive)
    1  A    between atoms: C_1  and  C_18
    2  A    between atoms: C_3  and  C_46
    3  A    between atoms: O_4  and  C_34
    4  A    between atoms: O_4  and  O_50
    5  A    between atoms: C_6  and  O_50
    6  A    between atoms: N_9  and  C_27
    7  A    between atoms: N_9  and  C_32
    8  A    between atoms: C_14  and  C_26
    9  A    between atoms: C_15  and  O_42
   10  A    between atoms: C_18  and  C_27
   11  A    between atoms: C_23  and  C_25
   12  A    between atoms: C_25  and  C_34
   13  A    between atoms: C_26  and  C_46
   14  A    between atoms: C_32  and  C_38
   15  A    between atoms: C_33  and  C_49
   16  A    between atoms: C_56  and  C_59
                            x       y       z     vdW  Elec       q    Type
                         _______ _______ _______ _____ _____    ______ ____

>  <TORSDO>
F 16

$$$$
=
 OpenBabel11042419103D

 59 65  0  0  1  0  0  0  0  0999 V2000
  191.1060  173.2340  142.5650 C   0  0  0  0  0  0  0  0  0  0  0  0
  190.8160  175.4050  143.8160 C   0  0  0  0  0  0  0  0  0  0  0  0
  191.4490  173.9700  141.3090 C   0  0  0  0  0  2  0  0  0  0  0  0
  192.8260  175.7240  142.3360 C   0  0  0  0  0  3  0  0  0  0  0  0
  191.7450  176.2010  143.2190 C   0  0  0  0  0  0  0  0  0  0  0  0
  190.3120  173.1740  144.9100 C   0  0  0  0  0  1  0  0  0  0  0  0
  190.7960  173.9130  143.6980 C   0  0  0  0  0  0  0  0  0  0  0  0
  191.7760  177.5260  143.4940 F   0  0  0  0  0  0  0  0  0  0  0  0
  192.7350  174.6990  141.4940 C   0  0  0  0  0  0  0  0  0  0  0  0
  194.8820  174.0450  140.0990 C   0  0  0  0  0  0  0  0  0  0  0  0
  193.8920  174.3310  140.7270 C   0  0  0  0  0  0  0  0  0  0  0  0
  196.1000  173.7280  139.3500 C   0  0  0  0  0  2  0  0  0  0  0  0
  195.9620  172.3810  138.6640 C   0  0  0  0  0  2  0  0  0  0  0  0
  193.1100  172.5390  136.2040 N   0  0  0  0  0  2  0  0  0  0  0  0
  194.6550  172.2990  137.9380 C   0  0  0  0  0  0  0  0  0  0  0  0
  194.3830  172.8920  136.6890 N   0  0  0  0  0  0  0  0  0  0  0  0
  193.6150  171.5990  138.3130 C   0  0  0  0  0  0  0  0  0  0  0  0
  193.5500  170.8380  139.4800 O   0  0  0  0  0  1  0  0  0  0  0  0
  192.5340  171.7050  137.2800 C   0  0  1  0  0  3  0  0  0  0  0  0
  195.3330  173.6600  135.9050 C   0  0  0  0  0  1  0  0  0  0  0  0
  189.0860  172.0740  139.0790 C   0  0  0  0  0  2  0  0  0  0  0  0
  189.3380  173.9200  137.3910 C   0  0  2  0  0  3  0  0  0  0  0  0
  190.2920  171.3570  138.4750 C   0  0  1  0  0  3  0  0  0  0  0  0
  189.8400  170.2860  137.4930 C   0  0  0  0  0  1  0  0  0  0  0  0
  191.2720  172.3700  137.8520 C   0  0  2  0  0  3  0  0  0  0  0  0
  190.5690  173.2220  136.7900 C   0  0  0  0  0  2  0  0  0  0  0  0
  188.3630  172.9270  138.0390 C   0  0  0  0  0  2  0  0  0  0  0  0
  188.7040  174.8030  136.4780 O   0  0  0  0  0  0  0  0  0  0  0  0
  189.1680  174.5270  135.1720 C   0  0  0  0  0  1  0  0  0  0  0  0
  191.1310  171.7560  142.4960 C   0  0  0  0  0  0  0  0  0  0  0  0
  190.0710  171.1060  142.3280 O   0  0  0  0  0  0  0  0  0  0  0  0
  192.4140  171.0110  142.6500 C   0  0  0  0  0  2  0  0  0  0  0  0
  192.7620  170.8940  144.0580 N   0  0  0  0  0  2  0  0  0  0  0  0
  194.6140  171.8420  142.9980 O   0  0  0  0  0  1  0  0  0  0  0  0
  194.1610  171.2790  144.1960 C   0  0  1  0  0  3  0  0  0  0  0  0
  195.6480  172.2210  145.8460 O   0  0  0  0  0  0  0  0  0  0  0  0
  196.1980  173.5240  145.7440 C   0  0  0  0  0  2  0  0  0  0  0  0
  195.2460  175.5970  144.8710 N   0  0  0  0  0  2  0  0  0  0  0  0
  195.1500  174.3410  145.1480 C   0  0  0  0  0  0  0  0  0  0  0  0
  194.0470  173.5920  144.9130 O   0  0  0  0  0  0  0  0  0  0  0  0
  194.3220  172.2720  145.3420 C   0  0  1  0  0  3  0  0  0  0  0  0
  189.8450  175.9530  144.6750 O   0  0  0  0  0  0  0  0  0  0  0  0
  190.1150  176.4230  145.9040 O   0  0  0  0  0  0  0  0  0  0  0  0
  189.3540  177.5890  146.0300 C   0  0  0  0  0  2  0  0  0  0  0  0
  188.7280  178.6060  148.1130 O   0  0  0  0  0  1  0  0  0  0  0  0
  188.4690  177.5210  147.2700 C   0  0  1  0  0  3  0  0  0  0  0  0
  185.4500  178.3880  145.3760 C   0  0  2  0  0  0  0  0  0  0  0  0
  185.8930  178.2070  141.5630 C   0  0  0  0  0  2  0  0  0  0  0  0
  185.0400  180.3910  144.1000 O   0  0  0  0  0  0  0  0  0  0  0  0
  186.5230  178.7740  146.3380 C   0  0  0  0  0  2  0  0  0  0  0  0
  185.5180  179.2650  144.1240 C   0  0  0  0  0  0  0  0  0  0  0  0
  186.9870  177.4560  146.9080 C   0  0  1  0  0  3  0  0  0  0  0  0
  185.3800  177.4580  142.7540 C   0  0  1  0  0  3  0  0  0  0  0  0
  186.7430  176.4270  145.9790 O   0  0  0  0  0  0  0  0  0  0  0  0
  184.0910  178.5240  146.0440 C   0  0  0  0  0  1  0  0  0  0  0  0
  186.0740  176.4700  143.6650 C   0  0  0  0  0  2  0  0  0  0  0  0
  186.2510  178.7250  142.9410 C   0  0  1  0  0  0  0  0  0  0  0  0
  187.5970  178.4970  143.1980 F   0  0  0  0  0  0  0  0  0  0  0  0
  185.7280  176.8780  145.1200 C   0  0  2  0  0  3  0  0  0  0  0  0
  1  7  2  0  0  0  0
  2 42  1  0  0  0  0
  3  9  1  0  0  0  0
  3  1  1  0  0  0  0
  4  5  1  0  0  0  0
  5  8  1  0  0  0  0
  5  2  2  0  0  0  0
  7  2  1  0  0  0  0
  7  6  1  0  0  0  0
  9  4  2  0  0  0  0
 10 11  3  0  0  0  0
 11  9  1  0  0  0  0
 12 10  1  0  0  0  0
 13 12  1  0  0  0  0
 14 16  1  0  0  0  0
 15 17  2  0  0  0  0
 15 13  1  0  0  0  0
 16 15  1  0  0  0  0
 17 18  1  0  0  0  0
 19 14  1  6  0  0  0
 19 25  1  0  0  0  0
 19 17  1  0  0  0  0
 20 16  1  0  0  0  0
 22 28  1  6  0  0  0
 22 27  1  0  0  0  0
 23 24  1  6  0  0  0
 23 21  1  0  0  0  0
 25 26  1  6  0  0  0
 25 23  1  0  0  0  0
 26 22  1  0  0  0  0
 27 21  1  0  0  0  0
 29 28  1  0  0  0  0
 30  1  1  0  0  0  0
 30 32  1  0  0  0  0
 31 30  2  0  0  0  0
 32 33  1  0  0  0  0
 33 35  1  0  0  0  0
 35 34  1  6  0  0  0
 37 36  1  0  0  0  0
 38 39  2  0  0  0  0
 39 37  1  0  0  0  0
 40 39  1  0  0  0  0
 40 41  1  0  0  0  0
 41 35  1  6  0  0  0
 41 36  1  0  0  0  0
 42 43  1  0  0  0  0
 43 44  1  0  0  0  0
 44 46  1  0  0  0  0
 46 45  1  1  0  0  0
 47 55  1  1  0  0  0
 47 50  1  0  0  0  0
 48 57  1  0  0  0  0
 49 51  2  0  0  0  0
 50 52  1  0  0  0  0
 51 47  1  0  0  0  0
 52 46  1  6  0  0  0
 53 48  1  6  0  0  0
 53 57  1  0  0  0  0
 53 56  1  0  0  0  0
 54 52  1  0  0  0  0
 57 58  1  1  0  0  0
 57 51  1  0  0  0  0
 59 56  1  6  0  0  0
 59 47  1  0  0  0  0
 59 54  1  0  0  0  0
M  END
>  <MODEL>
5

>  <REMARK>
 VINA RESULT:      -6.7      2.153      4.096
  Name = 
  16 active torsions:
  status: ('A' for Active; 'I' for Inactive)
    1  A    between atoms: C_1  and  C_18
    2  A    between atoms: C_3  and  C_46
    3  A    between atoms: O_4  and  C_34
    4  A    between atoms: O_4  and  O_50
    5  A    between atoms: C_6  and  O_50
    6  A    between atoms: N_9  and  C_27
    7  A    between atoms: N_9  and  C_32
    8  A    between atoms: C_14  and  C_26
    9  A    between atoms: C_15  and  O_42
   10  A    between atoms: C_18  and  C_27
   11  A    between atoms: C_23  and  C_25
   12  A    between atoms: C_25  and  C_34
   13  A    between atoms: C_26  and  C_46
   14  A    between atoms: C_32  and  C_38
   15  A    between atoms: C_33  and  C_49
   16  A    between atoms: C_56  and  C_59
                            x       y       z     vdW  Elec       q    Type
                         _______ _______ _______ _____ _____    ______ ____

>  <TORSDO>
F 16

$$$$
=
 OpenBabel11042419103D

 59 65  0  0  1  0  0  0  0  0999 V2000
  192.3710  172.7680  144.1100 C   0  0  0  0  0  0  0  0  0  0  0  0
  190.5720  174.5280  143.9520 C   0  0  0  0  0  0  0  0  0  0  0  0
  191.3450  171.6810  144.1540 C   0  0  0  0  0  2  0  0  0  0  0  0
  189.8100  172.6290  142.4870 C   0  0  0  0  0  3  0  0  0  0  0  0
  189.6100  173.8850  143.2340 C   0  0  0  0  0  0  0  0  0  0  0  0
  193.0200  175.1580  144.1460 C   0  0  0  0  0  1  0  0  0  0  0  0
  191.9930  174.0690  144.0410 C   0  0  0  0  0  0  0  0  0  0  0  0
  188.3870  174.4450  143.0890 F   0  0  0  0  0  0  0  0  0  0  0  0
  190.6140  171.6350  142.8560 C   0  0  0  0  0  0  0  0  0  0  0  0
  190.8590  169.5170  141.2960 C   0  0  0  0  0  0  0  0  0  0  0  0
  190.7310  170.4880  142.0000 C   0  0  0  0  0  0  0  0  0  0  0  0
  191.0490  168.3350  140.4530 C   0  0  0  0  0  2  0  0  0  0  0  0
  192.4150  168.3740  139.7910 C   0  0  0  0  0  2  0  0  0  0  0  0
  193.0820  171.1790  137.3620 N   0  0  0  0  0  2  0  0  0  0  0  0
  192.4160  169.3570  138.6620 C   0  0  0  0  0  0  0  0  0  0  0  0
  193.2070  170.5210  138.6000 N   0  0  0  0  0  0  0  0  0  0  0  0
  191.7550  169.2320  137.5390 C   0  0  0  0  0  0  0  0  0  0  0  0
  190.9080  168.1660  137.2330 O   0  0  0  0  0  1  0  0  0  0  0  0
  192.0810  170.3760  136.6280 C   0  0  1  0  0  3  0  0  0  0  0  0
  194.1560  170.9410  139.6160 C   0  0  0  0  0  1  0  0  0  0  0  0
  189.5620  172.5830  134.6190 C   0  0  0  0  0  2  0  0  0  0  0  0
  189.3900  173.1500  137.0620 C   0  0  2  0  0  3  0  0  0  0  0  0
  190.8440  171.7990  134.8910 C   0  0  1  0  0  3  0  0  0  0  0  0
  192.0670  172.6570  134.6000 C   0  0  0  0  0  1  0  0  0  0  0  0
  190.8380  171.2250  136.3210 C   0  0  2  0  0  3  0  0  0  0  0  0
  190.6650  172.3430  137.3540 C   0  0  0  0  0  2  0  0  0  0  0  0
  189.3680  173.7080  135.6320 C   0  0  0  0  0  2  0  0  0  0  0  0
  189.1240  174.1380  138.0470 O   0  0  0  0  0  0  0  0  0  0  0  0
  188.4500  173.5350  139.1330 C   0  0  0  0  0  1  0  0  0  0  0  0
  193.7890  172.3440  144.1410 C   0  0  0  0  0  0  0  0  0  0  0  0
  194.3700  171.9800  143.0900 O   0  0  0  0  0  0  0  0  0  0  0  0
  194.5460  172.3200  145.4260 C   0  0  0  0  0  2  0  0  0  0  0  0
  195.9780  172.3770  145.1680 N   0  0  0  0  0  2  0  0  0  0  0  0
  197.1910  173.4650  146.8390 O   0  0  0  0  0  1  0  0  0  0  0  0
  196.4600  173.6600  145.6630 C   0  0  1  0  0  3  0  0  0  0  0  0
  197.4670  173.4870  143.4760 O   0  0  0  0  0  0  0  0  0  0  0  0
  196.9930  174.1970  142.3440 C   0  0  0  0  0  2  0  0  0  0  0  0
  196.0440  176.4390  142.1430 N   0  0  0  0  0  2  0  0  0  0  0  0
  196.5560  175.4910  142.8510 C   0  0  0  0  0  0  0  0  0  0  0  0
  196.7570  175.5620  144.1890 O   0  0  0  0  0  0  0  0  0  0  0  0
  197.3270  174.3360  144.6060 C   0  0  1  0  0  3  0  0  0  0  0  0
  190.2920  175.7470  144.5990 O   0  0  0  0  0  0  0  0  0  0  0  0
  189.9720  176.8790  143.9520 O   0  0  0  0  0  0  0  0  0  0  0  0
  189.7580  177.8300  144.9550 C   0  0  0  0  0  2  0  0  0  0  0  0
  189.7620  177.7830  147.3560 O   0  0  0  0  0  1  0  0  0  0  0  0
  189.2280  177.1660  146.2210 C   0  0  1  0  0  3  0  0  0  0  0  0
  185.8570  178.2580  145.2690 C   0  0  2  0  0  0  0  0  0  0  0  0
  185.2580  178.3470  141.4750 C   0  0  0  0  0  2  0  0  0  0  0  0
  185.2180  180.3610  144.2810 O   0  0  0  0  0  0  0  0  0  0  0  0
  187.1660  178.5410  145.9290 C   0  0  0  0  0  2  0  0  0  0  0  0
  185.6310  179.2230  144.1030 C   0  0  0  0  0  0  0  0  0  0  0  0
  187.7010  177.1710  146.2680 C   0  0  1  0  0  3  0  0  0  0  0  0
  185.0460  177.5280  142.7090 C   0  0  1  0  0  3  0  0  0  0  0  0
  187.1690  176.2210  145.3760 O   0  0  0  0  0  0  0  0  0  0  0  0
  184.7340  178.3830  146.2860 C   0  0  0  0  0  1  0  0  0  0  0  0
  185.9100  176.4550  143.3350 C   0  0  0  0  0  2  0  0  0  0  0  0
  185.9950  178.7510  142.7350 C   0  0  1  0  0  0  0  0  0  0  0  0
  187.3480  178.4660  142.6050 F   0  0  0  0  0  0  0  0  0  0  0  0
  185.9840  176.7630  144.8530 C   0  0  2  0  0  3  0  0  0  0  0  0
  1 30  1  0  0  0  0
  1  3  1  0  0  0  0
  2  7  1  0  0  0  0
  2 42  1  0  0  0  0
  4  9  2  0  0  0  0
  4  5  1  0  0  0  0
  5  2  2  0  0  0  0
  7  1  2  0  0  0  0
  7  6  1  0  0  0  0
  8  5  1  0  0  0  0
  9  3  1  0  0  0  0
 10 11  3  0  0  0  0
 11  9  1  0  0  0  0
 12 10  1  0  0  0  0
 13 12  1  0  0  0  0
 14 16  1  0  0  0  0
 15 13  1  0  0  0  0
 16 15  1  0  0  0  0
 16 20  1  0  0  0  0
 17 15  2  0  0  0  0
 18 17  1  0  0  0  0
 19 14  1  1  0  0  0
 19 17  1  0  0  0  0
 21 23  1  0  0  0  0
 21 27  1  0  0  0  0
 22 26  1  0  0  0  0
 22 28  1  1  0  0  0
 23 24  1  1  0  0  0
 23 25  1  0  0  0  0
 25 19  1  0  0  0  0
 25 26  1  1  0  0  0
 27 22  1  0  0  0  0
 28 29  1  0  0  0  0
 30 32  1  0  0  0  0
 31 30  2  0  0  0  0
 33 32  1  0  0  0  0
 33 35  1  0  0  0  0
 35 34  1  1  0  0  0
 36 41  1  0  0  0  0
 37 39  1  0  0  0  0
 37 36  1  0  0  0  0
 38 39  2  0  0  0  0
 39 40  1  0  0  0  0
 40 41  1  0  0  0  0
 41 35  1  1  0  0  0
 43 42  1  0  0  0  0
 43 44  1  0  0  0  0
 44 46  1  0  0  0  0
 46 45  1  1  0  0  0
 47 50  1  0  0  0  0
 47 55  1  1  0  0  0
 48 57  1  0  0  0  0
 50 52  1  0  0  0  0
 51 49  2  0  0  0  0
 51 47  1  0  0  0  0
 52 46  1  6  0  0  0
 53 48  1  6  0  0  0
 53 57  1  0  0  0  0
 53 56  1  0  0  0  0
 54 52  1  0  0  0  0
 57 58  1  6  0  0  0
 57 51  1  0  0  0  0
 59 56  1  6  0  0  0
 59 47  1  0  0  0  0
 59 54  1  0  0  0  0
M  END
>  <MODEL>
6

>  <REMARK>
 VINA RESULT:      -6.7      2.276      3.415
  Name = 
  16 active torsions:
  status: ('A' for Active; 'I' for Inactive)
    1  A    between atoms: C_1  and  C_18
    2  A    between atoms: C_3  and  C_46
    3  A    between atoms: O_4  and  C_34
    4  A    between atoms: O_4  and  O_50
    5  A    between atoms: C_6  and  O_50
    6  A    between atoms: N_9  and  C_27
    7  A    between atoms: N_9  and  C_32
    8  A    between atoms: C_14  and  C_26
    9  A    between atoms: C_15  and  O_42
   10  A    between atoms: C_18  and  C_27
   11  A    between atoms: C_23  and  C_25
   12  A    between atoms: C_25  and  C_34
   13  A    between atoms: C_26  and  C_46
   14  A    between atoms: C_32  and  C_38
   15  A    between atoms: C_33  and  C_49
   16  A    between atoms: C_56  and  C_59
                            x       y       z     vdW  Elec       q    Type
                         _______ _______ _______ _____ _____    ______ ____

>  <TORSDO>
F 16

$$$$
=
 OpenBabel11042419103D

 59 65  0  0  1  0  0  0  0  0999 V2000
  194.5260  174.2010  145.7350 C   0  0  0  0  0  0  0  0  0  0  0  0
  192.1780  174.8640  146.3760 C   0  0  0  0  0  0  0  0  0  0  0  0
  194.1010  172.7810  145.5340 C   0  0  0  0  0  2  0  0  0  0  0  0
  191.9410  173.2450  144.4640 C   0  0  0  0  0  3  0  0  0  0  0  0
  191.4290  174.0320  145.6020 C   0  0  0  0  0  0  0  0  0  0  0  0
  194.0940  176.5210  146.4840 C   0  0  0  0  0  1  0  0  0  0  0  0
  193.6320  175.1350  146.1440 C   0  0  0  0  0  0  0  0  0  0  0  0
  190.0910  173.9540  145.7920 F   0  0  0  0  0  0  0  0  0  0  0  0
  193.1520  172.7020  144.3880 C   0  0  0  0  0  0  0  0  0  0  0  0
  193.8200  171.3700  142.2060 C   0  0  0  0  0  0  0  0  0  0  0  0
  193.5180  171.9940  143.1930 C   0  0  0  0  0  0  0  0  0  0  0  0
  194.1890  170.5820  141.0280 C   0  0  0  0  0  2  0  0  0  0  0  0
  193.0840  169.5990  140.6850 C   0  0  0  0  0  2  0  0  0  0  0  0
  191.8250  170.2150  137.1850 N   0  0  0  0  0  2  0  0  0  0  0  0
  192.3600  170.0420  139.4520 C   0  0  0  0  0  0  0  0  0  0  0  0
  192.7710  169.7780  138.1300 N   0  0  0  0  0  0  0  0  0  0  0  0
  191.2050  170.6570  139.4220 C   0  0  0  0  0  0  0  0  0  0  0  0
  190.4770  171.0290  140.5520 O   0  0  0  0  0  1  0  0  0  0  0  0
  190.7710  170.8540  138.0020 C   0  0  1  0  0  3  0  0  0  0  0  0
  193.9540  169.0210  137.7600 C   0  0  0  0  0  1  0  0  0  0  0  0
  189.2940  174.1680  136.5550 C   0  0  0  0  0  2  0  0  0  0  0  0
  191.8010  174.3440  136.6290 C   0  0  2  0  0  3  0  0  0  0  0  0
  189.3910  172.6680  136.8280 C   0  0  1  0  0  3  0  0  0  0  0  0
  189.3120  171.8830  135.5270 C   0  0  0  0  0  1  0  0  0  0  0  0
  190.6540  172.3450  137.6490 C   0  0  2  0  0  3  0  0  0  0  0  0
  191.9120  172.8400  136.9290 C   0  0  0  0  0  2  0  0  0  0  0  0
  190.5340  174.6880  135.8330 C   0  0  0  0  0  2  0  0  0  0  0  0
  192.9810  174.8810  136.0510 O   0  0  0  0  0  0  0  0  0  0  0  0
  192.7900  176.2610  135.8120 C   0  0  0  0  0  1  0  0  0  0  0  0
  195.9470  174.5140  145.4600 C   0  0  0  0  0  0  0  0  0  0  0  0
  196.8500  174.1180  146.2360 O   0  0  0  0  0  0  0  0  0  0  0  0
  196.3270  175.3260  144.2690 C   0  0  0  0  0  2  0  0  0  0  0  0
  196.1950  174.5320  143.0560 N   0  0  0  0  0  2  0  0  0  0  0  0
  197.6220  174.5230  141.2080 O   0  0  0  0  0  1  0  0  0  0  0  0
  196.7480  175.3160  141.9590 C   0  0  1  0  0  3  0  0  0  0  0  0
  195.9630  175.6790  139.7060 O   0  0  0  0  0  0  0  0  0  0  0  0
  194.9430  174.9010  139.1030 C   0  0  0  0  0  2  0  0  0  0  0  0
  192.9220  173.9040  140.0470 N   0  0  0  0  0  2  0  0  0  0  0  0
  193.9980  174.6050  140.1720 C   0  0  0  0  0  0  0  0  0  0  0  0
  194.4110  175.1680  141.3320 O   0  0  0  0  0  0  0  0  0  0  0  0
  195.6250  175.8470  141.0750 C   0  0  1  0  0  3  0  0  0  0  0  0
  191.5880  175.6040  147.4180 O   0  0  0  0  0  0  0  0  0  0  0  0
  190.2650  175.6530  147.6400 O   0  0  0  0  0  0  0  0  0  0  0  0
  189.8850  176.9630  147.3290 C   0  0  0  0  0  2  0  0  0  0  0  0
  187.6050  177.7040  147.4560 O   0  0  0  0  0  1  0  0  0  0  0  0
  188.5090  176.9810  146.6720 C   0  0  1  0  0  3  0  0  0  0  0  0
  189.3450  176.9560  143.1000 C   0  0  2  0  0  0  0  0  0  0  0  0
  188.2980  173.7420  141.2730 C   0  0  0  0  0  2  0  0  0  0  0  0
  191.0660  175.6750  142.0020 O   0  0  0  0  0  0  0  0  0  0  0  0
  189.7820  177.0190  144.5250 C   0  0  0  0  0  2  0  0  0  0  0  0
  189.9170  175.7090  142.4240 C   0  0  0  0  0  0  0  0  0  0  0  0
  188.5650  177.5400  145.2520 C   0  0  1  0  0  3  0  0  0  0  0  0
  187.8950  175.1560  141.5490 C   0  0  1  0  0  3  0  0  0  0  0  0
  187.4030  177.2000  144.5330 O   0  0  0  0  0  0  0  0  0  0  0  0
  189.7990  178.2100  142.3700 C   0  0  0  0  0  1  0  0  0  0  0  0
  187.0410  175.7360  142.6550 C   0  0  0  0  0  2  0  0  0  0  0  0
  189.0450  174.5000  142.3510 C   0  0  1  0  0  0  0  0  0  0  0  0
  188.7020  174.0070  143.6030 F   0  0  0  0  0  0  0  0  0  0  0  0
  187.7910  176.9770  143.2020 C   0  0  2  0  0  3  0  0  0  0  0  0
  1  7  2  0  0  0  0
  2 42  1  0  0  0  0
  3  1  1  0  0  0  0
  4  5  1  0  0  0  0
  5  8  1  0  0  0  0
  5  2  2  0  0  0  0
  7  2  1  0  0  0  0
  7  6  1  0  0  0  0
  9  4  2  0  0  0  0
  9  3  1  0  0  0  0
 10 11  3  0  0  0  0
 11  9  1  0  0  0  0
 12 10  1  0  0  0  0
 13 12  1  0  0  0  0
 14 16  1  0  0  0  0
 15 13  1  0  0  0  0
 16 15  1  0  0  0  0
 17 15  2  0  0  0  0
 17 18  1  0  0  0  0
 19 14  1  6  0  0  0
 19 17  1  0  0  0  0
 20 16  1  0  0  0  0
 21 23  1  0  0  0  0
 22 28  1  6  0  0  0
 22 26  1  0  0  0  0
 23 24  1  6  0  0  0
 23 25  1  0  0  0  0
 25 26  1  6  0  0  0
 25 19  1  0  0  0  0
 27 21  1  0  0  0  0
 27 22  1  0  0  0  0
 29 28  1  0  0  0  0
 30  1  1  0  0  0  0
 30 31  2  0  0  0  0
 32 30  1  0  0  0  0
 33 32  1  0  0  0  0
 35 34  1  6  0  0  0
 35 33  1  0  0  0  0
 36 41  1  0  0  0  0
 37 36  1  0  0  0  0
 37 39  1  0  0  0  0
 38 39  2  0  0  0  0
 39 40  1  0  0  0  0
 41 40  1  0  0  0  0
 41 35  1  1  0  0  0
 42 43  1  0  0  0  0
 44 43  1  0  0  0  0
 46 44  1  0  0  0  0
 46 45  1  1  0  0  0
 47 55  1  6  0  0  0
 47 59  1  0  0  0  0
 47 50  1  0  0  0  0
 48 57  1  0  0  0  0
 49 51  2  0  0  0  0
 50 52  1  0  0  0  0
 51 47  1  0  0  0  0
 52 46  1  1  0  0  0
 53 48  1  1  0  0  0
 53 57  1  0  0  0  0
 53 56  1  0  0  0  0
 54 52  1  0  0  0  0
 57 51  1  0  0  0  0
 57 58  1  1  0  0  0
 59 56  1  1  0  0  0
 59 54  1  0  0  0  0
M  END
>  <MODEL>
7

>  <REMARK>
 VINA RESULT:      -6.6      2.011      3.197
  Name = 
  16 active torsions:
  status: ('A' for Active; 'I' for Inactive)
    1  A    between atoms: C_1  and  C_18
    2  A    between atoms: C_3  and  C_46
    3  A    between atoms: O_4  and  C_34
    4  A    between atoms: O_4  and  O_50
    5  A    between atoms: C_6  and  O_50
    6  A    between atoms: N_9  and  C_27
    7  A    between atoms: N_9  and  C_32
    8  A    between atoms: C_14  and  C_26
    9  A    between atoms: C_15  and  O_42
   10  A    between atoms: C_18  and  C_27
   11  A    between atoms: C_23  and  C_25
   12  A    between atoms: C_25  and  C_34
   13  A    between atoms: C_26  and  C_46
   14  A    between atoms: C_32  and  C_38
   15  A    between atoms: C_33  and  C_49
   16  A    between atoms: C_56  and  C_59
                            x       y       z     vdW  Elec       q    Type
                         _______ _______ _______ _____ _____    ______ ____

>  <TORSDO>
F 16

$$$$
=
 OpenBabel11042419103D

 59 65  0  0  1  0  0  0  0  0999 V2000
  193.3570  173.6430  143.0320 C   0  0  0  0  0  0  0  0  0  0  0  0
  192.0010  175.6070  143.8500 C   0  0  0  0  0  0  0  0  0  0  0  0
  193.3400  174.1770  141.6350 C   0  0  0  0  0  2  0  0  0  0  0  0
  193.6500  176.5470  142.1970 C   0  0  0  0  0  3  0  0  0  0  0  0
  192.4430  176.6110  143.0430 C   0  0  0  0  0  0  0  0  0  0  0  0
  192.6130  173.6900  145.3930 C   0  0  0  0  0  1  0  0  0  0  0  0
  192.7160  174.3040  144.0280 C   0  0  0  0  0  0  0  0  0  0  0  0
  191.8150  177.8090  143.0500 F   0  0  0  0  0  0  0  0  0  0  0  0
  194.1000  175.4570  141.5810 C   0  0  0  0  0  0  0  0  0  0  0  0
  196.3480  175.5950  140.1990 C   0  0  0  0  0  0  0  0  0  0  0  0
  195.3150  175.5470  140.8210 C   0  0  0  0  0  0  0  0  0  0  0  0
  197.6160  175.6290  139.4680 C   0  0  0  0  0  2  0  0  0  0  0  0
  197.8120  174.3400  138.6910 C   0  0  0  0  0  2  0  0  0  0  0  0
  195.5330  174.3070  135.6880 N   0  0  0  0  0  2  0  0  0  0  0  0
  196.7020  174.1550  137.7040 C   0  0  0  0  0  0  0  0  0  0  0  0
  196.6310  174.7680  136.4380 N   0  0  0  0  0  0  0  0  0  0  0  0
  195.6890  173.3370  137.8370 C   0  0  0  0  0  0  0  0  0  0  0  0
  195.4670  172.5250  138.9500 O   0  0  0  0  0  1  0  0  0  0  0  0
  194.8400  173.3740  136.6020 C   0  0  1  0  0  3  0  0  0  0  0  0
  197.6330  175.6620  135.8860 C   0  0  0  0  0  1  0  0  0  0  0  0
  191.1960  173.4290  138.0070 C   0  0  0  0  0  2  0  0  0  0  0  0
  191.3110  174.8760  135.9550 C   0  0  2  0  0  3  0  0  0  0  0  0
  192.5730  172.8540  137.6790 C   0  0  1  0  0  3  0  0  0  0  0  0
  192.4360  171.5270  136.9470 C   0  0  0  0  0  1  0  0  0  0  0  0
  193.4220  173.8810  136.9080 C   0  0  2  0  0  3  0  0  0  0  0  0
  192.7080  174.3240  135.6270 C   0  0  0  0  0  2  0  0  0  0  0  0
  190.4600  173.8730  136.7460 C   0  0  0  0  0  2  0  0  0  0  0  0
  190.6410  175.3950  134.8160 O   0  0  0  0  0  0  0  0  0  0  0  0
  190.8110  176.7980  134.7820 C   0  0  0  0  0  1  0  0  0  0  0  0
  194.1030  172.3840  143.2530 C   0  0  0  0  0  0  0  0  0  0  0  0
  195.1940  172.3880  143.8730 O   0  0  0  0  0  0  0  0  0  0  0  0
  193.5830  171.0910  142.7220 C   0  0  0  0  0  2  0  0  0  0  0  0
  192.1910  170.9130  143.1050 N   0  0  0  0  0  2  0  0  0  0  0  0
  191.3550  169.1220  141.8620 O   0  0  0  0  0  1  0  0  0  0  0  0
  191.4560  170.5160  141.9110 C   0  0  1  0  0  3  0  0  0  0  0  0
  189.7190  171.5430  143.2340 O   0  0  0  0  0  0  0  0  0  0  0  0
  189.4390  172.9330  143.2070 C   0  0  0  0  0  2  0  0  0  0  0  0
  189.5130  174.5430  141.3720 N   0  0  0  0  0  2  0  0  0  0  0  0
  189.6500  173.3440  141.8250 C   0  0  0  0  0  0  0  0  0  0  0  0
  190.0220  172.2820  141.0720 O   0  0  0  0  0  0  0  0  0  0  0  0
  190.0680  171.1480  141.9150 C   0  0  1  0  0  3  0  0  0  0  0  0
  190.8570  175.7790  144.6510 O   0  0  0  0  0  0  0  0  0  0  0  0
  190.7860  176.6470  145.6730 O   0  0  0  0  0  0  0  0  0  0  0  0
  189.5300  177.2520  145.5580 C   0  0  0  0  0  2  0  0  0  0  0  0
  189.2090  178.2650  147.7110 O   0  0  0  0  0  1  0  0  0  0  0  0
  188.7910  177.2120  146.8920 C   0  0  1  0  0  3  0  0  0  0  0  0
  185.6280  178.3190  145.3980 C   0  0  2  0  0  0  0  0  0  0  0  0
  185.6210  178.2900  141.5560 C   0  0  0  0  0  2  0  0  0  0  0  0
  185.1880  180.3960  144.2590 O   0  0  0  0  0  0  0  0  0  0  0  0
  186.8240  178.6050  146.2430 C   0  0  0  0  0  2  0  0  0  0  0  0
  185.6020  179.2470  144.1820 C   0  0  0  0  0  0  0  0  0  0  0  0
  187.2760  177.2400  146.7020 C   0  0  1  0  0  3  0  0  0  0  0  0
  185.2070  177.5140  142.7670 C   0  0  1  0  0  3  0  0  0  0  0  0
  186.8700  176.2680  145.7680 O   0  0  0  0  0  0  0  0  0  0  0  0
  184.3640  178.4920  146.2250 C   0  0  0  0  0  1  0  0  0  0  0  0
  185.9440  176.4520  143.5510 C   0  0  0  0  0  2  0  0  0  0  0  0
  186.1630  178.7250  142.9020 C   0  0  1  0  0  0  0  0  0  0  0  0
  187.5150  178.4170  142.9910 F   0  0  0  0  0  0  0  0  0  0  0  0
  185.7900  176.8090  145.0520 C   0  0  2  0  0  3  0  0  0  0  0  0
  1 30  1  0  0  0  0
  1  7  2  0  0  0  0
  2  7  1  0  0  0  0
  2 42  1  0  0  0  0
  3  1  1  0  0  0  0
  4  5  1  0  0  0  0
  5  8  1  0  0  0  0
  5  2  2  0  0  0  0
  7  6  1  0  0  0  0
  9  3  1  0  0  0  0
  9  4  2  0  0  0  0
 10 11  3  0  0  0  0
 11  9  1  0  0  0  0
 12 10  1  0  0  0  0
 13 12  1  0  0  0  0
 14 16  1  0  0  0  0
 15 17  2  0  0  0  0
 15 13  1  0  0  0  0
 16 15  1  0  0  0  0
 17 18  1  0  0  0  0
 19 14  1  6  0  0  0
 19 25  1  0  0  0  0
 19 17  1  0  0  0  0
 20 16  1  0  0  0  0
 22 28  1  6  0  0  0
 22 27  1  0  0  0  0
 23 24  1  6  0  0  0
 23 21  1  0  0  0  0
 25 26  1  6  0  0  0
 25 23  1  0  0  0  0
 26 22  1  0  0  0  0
 27 21  1  0  0  0  0
 29 28  1  0  0  0  0
 30 31  2  0  0  0  0
 32 33  1  0  0  0  0
 32 30  1  0  0  0  0
 35 34  1  1  0  0  0
 35 33  1  0  0  0  0
 37 36  1  0  0  0  0
 38 39  2  0  0  0  0
 39 37  1  0  0  0  0
 40 39  1  0  0  0  0
 40 41  1  0  0  0  0
 41 35  1  1  0  0  0
 41 36  1  0  0  0  0
 42 43  1  0  0  0  0
 44 43  1  0  0  0  0
 44 46  1  0  0  0  0
 46 45  1  1  0  0  0
 47 55  1  1  0  0  0
 47 50  1  0  0  0  0
 48 57  1  0  0  0  0
 50 52  1  0  0  0  0
 51 49  2  0  0  0  0
 51 47  1  0  0  0  0
 52 46  1  6  0  0  0
 53 48  1  6  0  0  0
 53 57  1  0  0  0  0
 53 56  1  0  0  0  0
 54 52  1  0  0  0  0
 57 58  1  1  0  0  0
 57 51  1  0  0  0  0
 59 56  1  6  0  0  0
 59 47  1  0  0  0  0
 59 54  1  0  0  0  0
M  END
>  <MODEL>
8

>  <REMARK>
 VINA RESULT:      -6.6      2.496      4.804
  Name = 
  16 active torsions:
  status: ('A' for Active; 'I' for Inactive)
    1  A    between atoms: C_1  and  C_18
    2  A    between atoms: C_3  and  C_46
    3  A    between atoms: O_4  and  C_34
    4  A    between atoms: O_4  and  O_50
    5  A    between atoms: C_6  and  O_50
    6  A    between atoms: N_9  and  C_27
    7  A    between atoms: N_9  and  C_32
    8  A    between atoms: C_14  and  C_26
    9  A    between atoms: C_15  and  O_42
   10  A    between atoms: C_18  and  C_27
   11  A    between atoms: C_23  and  C_25
   12  A    between atoms: C_25  and  C_34
   13  A    between atoms: C_26  and  C_46
   14  A    between atoms: C_32  and  C_38
   15  A    between atoms: C_33  and  C_49
   16  A    between atoms: C_56  and  C_59
                            x       y       z     vdW  Elec       q    Type
                         _______ _______ _______ _____ _____    ______ ____

>  <TORSDO>
F 16

$$$$
=
 OpenBabel11042419103D

 59 65  0  0  1  0  0  0  0  0999 V2000
  196.0690  173.0400  143.8270 C   0  0  0  0  0  0  0  0  0  0  0  0
  195.5660  170.5720  143.9520 C   0  0  0  0  0  0  0  0  0  0  0  0
  194.6320  173.3490  143.5500 C   0  0  0  0  0  2  0  0  0  0  0  0
  193.6540  171.7260  145.1110 C   0  0  0  0  0  3  0  0  0  0  0  0
  194.3120  170.5660  144.4800 C   0  0  0  0  0  0  0  0  0  0  0  0
  197.9410  171.4450  144.1160 C   0  0  0  0  0  1  0  0  0  0  0  0
  196.4790  171.7570  143.9850 C   0  0  0  0  0  0  0  0  0  0  0  0
  193.6070  169.4110  144.5360 F   0  0  0  0  0  0  0  0  0  0  0  0
  193.8090  172.9930  144.7400 C   0  0  0  0  0  0  0  0  0  0  0  0
  192.5380  174.8550  146.1190 C   0  0  0  0  0  0  0  0  0  0  0  0
  193.1270  174.0180  145.4800 C   0  0  0  0  0  0  0  0  0  0  0  0
  191.7990  175.8440  146.9060 C   0  0  0  0  0  2  0  0  0  0  0  0
  191.4600  177.0510  146.0510 C   0  0  0  0  0  2  0  0  0  0  0  0
  188.6530  176.2250  143.6730 N   0  0  0  0  0  2  0  0  0  0  0  0
  190.1510  176.8430  145.3550 C   0  0  0  0  0  0  0  0  0  0  0  0
  190.0000  176.4610  144.0080 N   0  0  0  0  0  0  0  0  0  0  0  0
  188.9700  176.8990  145.9160 C   0  0  0  0  0  0  0  0  0  0  0  0
  188.7440  177.1990  147.2600 O   0  0  0  0  0  1  0  0  0  0  0  0
  187.9140  176.5490  144.9120 C   0  0  1  0  0  3  0  0  0  0  0  0
  191.0910  176.1950  143.0880 C   0  0  0  0  0  1  0  0  0  0  0  0
  185.1500  179.2220  145.6030 C   0  0  0  0  0  2  0  0  0  0  0  0
  185.2100  178.7130  143.1420 C   0  0  2  0  0  3  0  0  0  0  0  0
  186.0400  178.0100  145.8750 C   0  0  1  0  0  3  0  0  0  0  0  0
  185.1980  176.8090  146.2790 C   0  0  0  0  0  1  0  0  0  0  0  0
  186.9550  177.7250  144.6690 C   0  0  2  0  0  3  0  0  0  0  0  0
  186.1270  177.5060  143.3990 C   0  0  0  0  0  2  0  0  0  0  0  0
  184.3090  179.0280  144.3450 C   0  0  0  0  0  2  0  0  0  0  0  0
  184.4910  178.6110  141.9220 O   0  0  0  0  0  0  0  0  0  0  0  0
  185.3860  178.2530  140.8880 C   0  0  0  0  0  1  0  0  0  0  0  0
  196.9900  174.1950  143.9210 C   0  0  0  0  0  0  0  0  0  0  0  0
  197.1180  174.8240  144.9990 O   0  0  0  0  0  0  0  0  0  0  0  0
  197.7650  174.6470  142.7290 C   0  0  0  0  0  2  0  0  0  0  0  0
  196.9890  174.4360  141.5150 N   0  0  0  0  0  2  0  0  0  0  0  0
  197.9000  172.4970  140.5850 O   0  0  0  0  0  1  0  0  0  0  0  0
  197.8930  173.8940  140.5090 C   0  0  1  0  0  3  0  0  0  0  0  0
  197.0780  173.2220  138.3390 O   0  0  0  0  0  0  0  0  0  0  0  0
  195.7420  173.4280  137.9120 C   0  0  0  0  0  2  0  0  0  0  0  0
  194.1920  175.2670  138.3410 N   0  0  0  0  0  2  0  0  0  0  0  0
  195.3470  174.7100  138.4810 C   0  0  0  0  0  0  0  0  0  0  0  0
  196.3690  175.2430  139.1920 O   0  0  0  0  0  0  0  0  0  0  0  0
  197.4600  174.3460  139.1180 C   0  0  1  0  0  3  0  0  0  0  0  0
  196.1220  169.4000  143.4050 O   0  0  0  0  0  0  0  0  0  0  0  0
  195.6020  168.7480  142.3530 O   0  0  0  0  0  0  0  0  0  0  0  0
  195.3470  169.7340  141.3950 C   0  0  0  0  0  2  0  0  0  0  0  0
  193.0690  168.9770  141.4550 O   0  0  0  0  0  1  0  0  0  0  0  0
  194.0910  169.3970  140.5980 C   0  0  1  0  0  3  0  0  0  0  0  0
  191.6470  171.6590  139.0610 C   0  0  2  0  0  0  0  0  0  0  0  0
  189.0660  173.0790  141.5280 C   0  0  0  0  0  2  0  0  0  0  0  0
  189.3170  171.2280  138.6230 O   0  0  0  0  0  0  0  0  0  0  0  0
  192.2620  170.3040  139.1630 C   0  0  0  0  0  2  0  0  0  0  0  0
  190.1620  171.5970  139.4270 C   0  0  0  0  0  0  0  0  0  0  0  0
  193.6310  170.5730  139.7400 C   0  0  1  0  0  3  0  0  0  0  0  0
  190.3480  173.3830  140.8190 C   0  0  1  0  0  3  0  0  0  0  0  0
  193.6020  171.7620  140.4920 O   0  0  0  0  0  0  0  0  0  0  0  0
  191.8230  172.1970  137.6500 C   0  0  0  0  0  1  0  0  0  0  0  0
  191.7810  173.1510  141.2410 C   0  0  0  0  0  2  0  0  0  0  0  0
  189.7810  171.9420  140.8270 C   0  0  1  0  0  0  0  0  0  0  0  0
  190.3360  171.0820  141.7660 F   0  0  0  0  0  0  0  0  0  0  0  0
  192.5130  172.5180  140.0290 C   0  0  2  0  0  3  0  0  0  0  0  0
  1 30  1  0  0  0  0
  1  7  2  0  0  0  0
  2  7  1  0  0  0  0
  2  5  2  0  0  0  0
  3  1  1  0  0  0  0
  3  9  1  0  0  0  0
  5  8  1  0  0  0  0
  5  4  1  0  0  0  0
  7  6  1  0  0  0  0
  9  4  2  0  0  0  0
  9 11  1  0  0  0  0
 10 12  1  0  0  0  0
 11 10  3  0  0  0  0
 13 12  1  0  0  0  0
 14 16  1  0  0  0  0
 15 17  2  0  0  0  0
 15 13  1  0  0  0  0
 16 15  1  0  0  0  0
 17 18  1  0  0  0  0
 19 14  1  6  0  0  0
 19 17  1  0  0  0  0
 20 16  1  0  0  0  0
 21 23  1  0  0  0  0
 22 28  1  6  0  0  0
 22 26  1  0  0  0  0
 22 27  1  0  0  0  0
 23 24  1  6  0  0  0
 25 26  1  6  0  0  0
 25 19  1  0  0  0  0
 25 23  1  0  0  0  0
 27 21  1  0  0  0  0
 29 28  1  0  0  0  0
 30 31  2  0  0  0  0
 32 30  1  0  0  0  0
 33 32  1  0  0  0  0
 35 34  1  6  0  0  0
 35 33  1  0  0  0  0
 36 41  1  0  0  0  0
 37 36  1  0  0  0  0
 37 39  1  0  0  0  0
 38 39  2  0  0  0  0
 39 40  1  0  0  0  0
 41 40  1  0  0  0  0
 41 35  1  1  0  0  0
 42  2  1  0  0  0  0
 43 42  1  0  0  0  0
 44 43  1  0  0  0  0
 46 44  1  0  0  0  0
 46 45  1  1  0  0  0
 47 55  1  6  0  0  0
 47 50  1  0  0  0  0
 47 51  1  0  0  0  0
 47 59  1  0  0  0  0
 49 51  2  0  0  0  0
 50 52  1  0  0  0  0
 51 57  1  0  0  0  0
 52 54  1  0  0  0  0
 52 46  1  1  0  0  0
 53 57  1  0  0  0  0
 53 56  1  1  0  0  0
 53 48  1  0  0  0  0
 57 48  1  0  0  0  0
 57 58  1  1  0  0  0
 59 54  1  0  0  0  0
 59 56  1  1  0  0  0
M  END
>  <MODEL>
9

>  <REMARK>
 VINA RESULT:      -6.5      2.330      7.279
  Name = 
  16 active torsions:
  status: ('A' for Active; 'I' for Inactive)
    1  A    between atoms: C_1  and  C_18
    2  A    between atoms: C_3  and  C_46
    3  A    between atoms: O_4  and  C_34
    4  A    between atoms: O_4  and  O_50
    5  A    between atoms: C_6  and  O_50
    6  A    between atoms: N_9  and  C_27
    7  A    between atoms: N_9  and  C_32
    8  A    between atoms: C_14  and  C_26
    9  A    between atoms: C_15  and  O_42
   10  A    between atoms: C_18  and  C_27
   11  A    between atoms: C_23  and  C_25
   12  A    between atoms: C_25  and  C_34
   13  A    between atoms: C_26  and  C_46
   14  A    between atoms: C_32  and  C_38
   15  A    between atoms: C_33  and  C_49
   16  A    between atoms: C_56  and  C_59
                            x       y       z     vdW  Elec       q    Type
                         _______ _______ _______ _____ _____    ______ ____

>  <TORSDO>
F 16

$$$$
