=
 OpenBabel11042415433D

 59 61  0  0  1  0  0  0  0  0999 V2000
  187.7200  176.7510  143.5600 C   0  0  2  0  0  3  0  0  0  0  0  0
  185.8230  178.0570  142.3400 C   0  0  1  0  0  3  0  0  0  0  0  0
  188.1920  177.6370  142.4580 C   0  0  0  0  0  0  0  0  0  0  0  0
  185.9290  176.5320  143.3260 S   0  0  0  0  0  0  0  0  0  0  0  0
  187.1420  178.2710  141.6280 C   0  0  0  0  0  2  0  0  0  0  0  0
  189.4470  177.8440  142.2040 N   0  0  0  0  0  0  0  0  0  0  0  0
  183.0790  178.6200  142.8560 O   0  0  0  0  0  0  0  0  0  0  0  0
  183.3950  178.2850  141.6820 C   0  0  0  0  0  0  0  0  0  0  0  0
  182.4070  178.2410  140.6540 N   0  0  0  0  0  2  0  0  0  0  0  0
  184.7460  177.9430  141.3710 N   0  0  0  0  0  2  0  0  0  0  0  0
  180.1350  177.6430  139.9920 C   0  0  0  0  0  1  0  0  0  0  0  0
  180.9960  178.4740  140.9290 C   0  0  2  0  0  3  0  0  0  0  0  0
  180.6490  179.9580  140.8360 C   0  0  0  0  0  2  0  0  0  0  0  0
  179.2290  180.2060  140.4420 C   0  0  0  0  0  0  0  0  0  0  0  0
  178.9580  180.6380  139.2950 O   0  0  0  0  0  0  0  0  0  0  0  0
  178.2110  179.9610  141.3530 O   0  0  0  0  0  1  0  0  0  0  0  0
  187.9690  177.3610  144.7940 O   0  0  0  0  0  0  0  0  0  0  0  0
  188.2880  176.3160  145.6660 C   0  0  0  0  0  2  0  0  0  0  0  0
  189.4430  177.8400  147.2520 C   0  0  0  0  0  1  0  0  0  0  0  0
  189.6080  176.5990  146.3800 C   0  0  1  0  0  3  0  0  0  0  0  0
  190.0380  175.3980  147.2270 C   0  0  1  0  0  3  0  0  0  0  0  0
  189.3660  174.1280  146.7280 C   0  0  0  0  0  1  0  0  0  0  0  0
  191.5510  175.2010  147.1510 C   0  0  0  0  0  2  0  0  0  0  0  0
  192.1470  175.9090  145.9380 C   0  0  0  0  0  2  0  0  0  0  0  0
  192.8490  173.6020  145.3480 C   0  0  0  0  0  2  0  0  0  0  0  0
  194.8420  173.5430  143.4140 O   0  0  0  0  0  0  0  0  0  0  0  0
  193.0740  175.0410  145.2160 N   0  0  0  0  0  0  0  0  0  0  0  0
  194.1350  172.8740  145.7010 C   0  0  0  0  0  2  0  0  0  0  0  0
  194.1440  175.6100  144.4280 C   0  0  0  0  0  0  0  0  0  0  0  0
  194.1630  176.8590  144.2270 O   0  0  0  0  0  0  0  0  0  0  0  0
  194.9030  172.5440  144.4190 C   0  0  2  0  0  3  0  0  0  0  0  0
  195.3000  174.7620  143.9420 C   0  0  2  0  0  3  0  0  0  0  0  0
  197.1350  176.9180  143.4130 O   0  0  0  0  0  1  0  0  0  0  0  0
  197.3550  174.6420  142.1460 O   0  0  0  0  0  0  0  0  0  0  0  0
  196.3330  175.6100  142.6940 P   0  0  1  0  0  0  0  0  0  0  0  0
  196.1180  176.0660  140.3490 O   0  0  0  0  0  1  0  0  0  0  0  0
  195.3610  176.1640  141.4220 O   0  0  0  0  0  0  0  0  0  0  0  0
  196.2980  171.9330  144.6420 C   0  0  1  0  0  3  0  0  0  0  0  0
  196.6390  172.0240  145.9890 O   0  0  0  0  0  1  0  0  0  0  0  0
  196.4180  170.4810  144.1850 C   0  0  0  0  0  2  0  0  0  0  0  0
  195.1920  169.8300  144.3320 O   0  0  0  0  0  1  0  0  0  0  0  0
  190.4610  177.2530  142.9710 N   0  0  0  0  0  2  0  0  0  0  0  0
  191.2950  176.2410  142.4680 N   0  0  0  0  0  2  0  0  0  0  0  0
  190.9180  174.8700  142.2820 C   0  0  0  0  0  0  0  0  0  0  0  0
  190.0800  174.2570  143.1140 C   0  0  0  0  0  2  0  0  0  0  0  0
  191.6710  174.0600  141.2790 C   0  0  0  0  0  2  0  0  0  0  0  0
  190.7820  173.0280  140.5960 C   0  0  1  0  0  3  0  0  0  0  0  0
  192.0540  173.1180  138.2170 C   0  0  0  0  0  2  0  0  0  0  0  0
  190.5850  173.3840  138.8280 S   0  0  0  0  0  0  0  0  0  0  0  0
  192.2860  173.2860  136.8170 N   0  0  0  0  0  2  0  0  0  0  0  0
  193.5300  174.0360  136.6740 C   0  0  2  0  0  3  0  0  0  0  0  0
  193.2630  175.5020  136.9390 C   0  0  0  0  0  1  0  0  0  0  0  0
  194.1970  173.8880  135.2940 C   0  0  2  0  0  3  0  0  0  0  0  0
  196.0380  173.7820  135.3690 S   0  0  0  0  0  0  0  0  0  0  0  0
  194.8690  175.1180  134.8770 C   0  0  0  0  0  2  0  0  0  0  0  0
  191.2940  171.6070  140.8500 C   0  0  0  0  0  2  0  0  0  0  0  0
  192.6850  171.5550  141.4820 C   0  0  0  0  0  2  0  0  0  0  0  0
  193.4830  170.6100  140.8280 O   0  0  0  0  0  0  0  0  0  0  0  0
  194.7190  170.9660  141.1150 O   0  0  0  0  0  1  0  0  0  0  0  0
  1 17  1  1  0  0  0
  2 10  1  6  0  0  0
  2  4  1  0  0  0  0
  3  1  1  0  0  0  0
  4  1  1  0  0  0  0
  5  2  1  0  0  0  0
  5  3  1  0  0  0  0
  6  3  2  0  0  0  0
  6 42  1  0  0  0  0
  8  7  2  0  0  0  0
  9 12  1  0  0  0  0
  9  8  1  0  0  0  0
 10  8  1  0  0  0  0
 12 11  1  6  0  0  0
 13 12  1  0  0  0  0
 14 13  1  0  0  0  0
 14 16  1  0  0  0  0
 15 14  2  0  0  0  0
 17 18  1  0  0  0  0
 18 20  1  0  0  0  0
 20 21  1  0  0  0  0
 20 19  1  1  0  0  0
 21 22  1  6  0  0  0
 23 21  1  0  0  0  0
 24 23  1  0  0  0  0
 25 28  1  0  0  0  0
 26 32  1  0  0  0  0
 26 31  1  0  0  0  0
 27 25  1  0  0  0  0
 27 24  1  0  0  0  0
 29 27  1  0  0  0  0
 30 29  2  0  0  0  0
 31 38  1  1  0  0  0
 31 28  1  0  0  0  0
 32 35  1  6  0  0  0
 32 29  1  0  0  0  0
 35 34  2  6  0  0  0
 35 33  1  0  0  0  0
 36 37  1  0  0  0  0
 37 35  1  0  0  0  0
 38 39  1  1  0  0  0
 40 41  1  0  0  0  0
 40 38  1  0  0  0  0
 43 42  1  0  0  0  0
 44 43  1  0  0  0  0
 44 45  2  0  0  0  0
 46 44  1  0  0  0  0
 47 56  1  6  0  0  0
 47 46  1  0  0  0  0
 48 49  1  0  0  0  0
 49 47  1  0  0  0  0
 50 48  1  0  0  0  0
 51 50  1  0  0  0  0
 51 52  1  6  0  0  0
 53 54  1  0  0  0  0
 53 51  1  1  0  0  0
 55 53  1  0  0  0  0
 55 54  1  0  0  0  0
 56 57  1  0  0  0  0
 58 59  1  0  0  0  0
 58 57  1  0  0  0  0
M  END
>  <MODEL>
1

>  <REMARK>
 VINA RESULT:      -5.4      0.000      0.000
  Name = 
  27 active torsions:
  status: ('A' for Active; 'I' for Inactive)
    1  A    between atoms: C_1  and  C_3
    2  A    between atoms: C_1  and  C_49
    3  A    between atoms: C_4  and  C_10
    4  A    between atoms: C_4  and  C_55
    5  A    between atoms: C_5  and  O_32
    6  A    between atoms: N_8  and  N_22
    7  A    between atoms: N_8  and  N_36
    8  A    between atoms: C_11  and  C_14
    9  A    between atoms: C_11  and  O_21
   10  A    between atoms: C_13  and  N_50
   11  A    between atoms: C_14  and  C_26
   12  A    between atoms: C_15  and  N_38
   13  A    between atoms: C_16  and  N_22
   14  A    between atoms: C_16  and  C_37
   15  A    between atoms: C_19  and  C_43
   16  A    between atoms: C_19  and  C_53
   17  A    between atoms: C_23  and  C_28
   18  A    between atoms: C_23  and  C_43
   19  A    between atoms: C_26  and  S_29
   20  A    between atoms: C_26  and  C_37
   21  A    between atoms: C_28  and  O_32
   22  A    between atoms: C_31  and  C_33
   23  A    between atoms: C_33  and  N_38
   24  A    between atoms: N_40  and  C_53
   25  A    between atoms: N_42  and  C_49
   26  A    between atoms: C_57  and  P_58
   27  A    between atoms: P_58  and  O_59
                            x       y       z     vdW  Elec       q    Type
                         _______ _______ _______ _____ _____    ______ ____

>  <TORSDO>
F 27

$$$$
=
 OpenBabel11042415433D

 59 61  0  0  1  0  0  0  0  0999 V2000
  187.6020  176.7820  143.6790 C   0  0  2  0  0  3  0  0  0  0  0  0
  185.8650  178.1200  142.2690 C   0  0  1  0  0  3  0  0  0  0  0  0
  188.1800  177.5010  142.5070 C   0  0  0  0  0  0  0  0  0  0  0  0
  185.8050  176.7040  143.4090 S   0  0  0  0  0  0  0  0  0  0  0  0
  187.2150  178.1370  141.5820 C   0  0  0  0  0  2  0  0  0  0  0  0
  189.4550  177.5640  142.2750 N   0  0  0  0  0  0  0  0  0  0  0  0
  183.0930  178.5380  142.7750 O   0  0  0  0  0  0  0  0  0  0  0  0
  183.4370  178.2710  141.5910 C   0  0  0  0  0  0  0  0  0  0  0  0
  182.4630  178.2300  140.5490 N   0  0  0  0  0  2  0  0  0  0  0  0
  184.8050  178.0030  141.2820 N   0  0  0  0  0  2  0  0  0  0  0  0
  180.2270  177.5590  139.8350 C   0  0  0  0  0  1  0  0  0  0  0  0
  181.0400  178.3880  140.8160 C   0  0  2  0  0  3  0  0  0  0  0  0
  180.6270  179.8580  140.7810 C   0  0  0  0  0  2  0  0  0  0  0  0
  179.1480  180.0500  140.6940 C   0  0  0  0  0  0  0  0  0  0  0  0
  178.6410  180.6040  139.6880 O   0  0  0  0  0  0  0  0  0  0  0  0
  178.3380  179.6190  141.7340 O   0  0  0  0  0  1  0  0  0  0  0  0
  187.8790  177.4940  144.8500 O   0  0  0  0  0  0  0  0  0  0  0  0
  188.1290  176.5210  145.8230 C   0  0  0  0  0  2  0  0  0  0  0  0
  189.2720  178.1080  147.3550 C   0  0  0  0  0  1  0  0  0  0  0  0
  189.4360  176.8200  146.5540 C   0  0  1  0  0  3  0  0  0  0  0  0
  189.8240  175.6580  147.4740 C   0  0  1  0  0  3  0  0  0  0  0  0
  189.1010  174.3860  147.0580 C   0  0  0  0  0  1  0  0  0  0  0  0
  191.3270  175.3980  147.4080 C   0  0  0  0  0  2  0  0  0  0  0  0
  191.6990  174.5770  146.1760 C   0  0  0  0  0  2  0  0  0  0  0  0
  193.6040  176.1520  145.9500 C   0  0  0  0  0  2  0  0  0  0  0  0
  195.9800  174.8800  145.2790 O   0  0  0  0  0  0  0  0  0  0  0  0
  193.0910  174.7910  145.7910 N   0  0  0  0  0  0  0  0  0  0  0  0
  194.3090  176.6250  144.6910 C   0  0  0  0  0  2  0  0  0  0  0  0
  193.8860  173.6960  145.2830 C   0  0  0  0  0  0  0  0  0  0  0  0
  193.4220  172.5210  145.3410 O   0  0  0  0  0  0  0  0  0  0  0  0
  195.7700  176.1680  144.7230 C   0  0  2  0  0  3  0  0  0  0  0  0
  195.2050  173.9410  144.5800 C   0  0  2  0  0  3  0  0  0  0  0  0
  196.9930  172.0250  145.7740 O   0  0  0  0  0  1  0  0  0  0  0  0
  195.2520  171.2780  143.9730 O   0  0  0  0  0  0  0  0  0  0  0  0
  196.1790  172.4130  144.3390 P   0  0  1  0  0  0  0  0  0  0  0  0
  196.5710  172.8470  142.0130 O   0  0  0  0  0  1  0  0  0  0  0  0
  197.3000  172.6340  143.0890 O   0  0  0  0  0  0  0  0  0  0  0  0
  196.5650  176.4570  143.4370 C   0  0  1  0  0  3  0  0  0  0  0  0
  197.7420  175.7130  143.4360 O   0  0  0  0  0  1  0  0  0  0  0  0
  195.7870  176.1780  142.1530 C   0  0  0  0  0  2  0  0  0  0  0  0
  196.4120  176.7960  141.0700 O   0  0  0  0  0  1  0  0  0  0  0  0
  190.3910  176.9680  143.1310 N   0  0  0  0  0  2  0  0  0  0  0  0
  191.3390  176.0340  142.6800 N   0  0  0  0  0  2  0  0  0  0  0  0
  191.1100  174.6270  142.5250 C   0  0  0  0  0  0  0  0  0  0  0  0
  190.1550  173.9960  143.2020 C   0  0  0  0  0  2  0  0  0  0  0  0
  192.1220  173.8250  141.7760 C   0  0  0  0  0  2  0  0  0  0  0  0
  192.0440  174.0670  140.2740 C   0  0  1  0  0  3  0  0  0  0  0  0
  194.2150  175.0330  138.9930 C   0  0  0  0  0  2  0  0  0  0  0  0
  193.5930  173.6150  139.4450 S   0  0  0  0  0  0  0  0  0  0  0  0
  195.4690  175.0770  138.3090 N   0  0  0  0  0  2  0  0  0  0  0  0
  195.8550  173.6980  138.0290 C   0  0  2  0  0  3  0  0  0  0  0  0
  197.2010  173.4180  138.6610 C   0  0  0  0  0  1  0  0  0  0  0  0
  195.9230  173.3570  136.5290 C   0  0  2  0  0  3  0  0  0  0  0  0
  194.6880  172.0920  136.0000 S   0  0  0  0  0  0  0  0  0  0  0  0
  196.5060  172.0360  136.2950 C   0  0  0  0  0  2  0  0  0  0  0  0
  190.8310  173.3580  139.6640 C   0  0  0  0  0  2  0  0  0  0  0  0
  190.6830  171.9000  140.1000 C   0  0  0  0  0  2  0  0  0  0  0  0
  191.3240  171.0510  139.1920 O   0  0  0  0  0  0  0  0  0  0  0  0
  192.1150  170.3060  139.9370 O   0  0  0  0  0  1  0  0  0  0  0  0
  1 17  1  1  0  0  0
  2 10  1  6  0  0  0
  2  4  1  0  0  0  0
  3  1  1  0  0  0  0
  4  1  1  0  0  0  0
  5  2  1  0  0  0  0
  5  3  1  0  0  0  0
  6  3  2  0  0  0  0
  6 42  1  0  0  0  0
  8  7  2  0  0  0  0
  9 12  1  0  0  0  0
  9  8  1  0  0  0  0
 10  8  1  0  0  0  0
 12 11  1  6  0  0  0
 13 12  1  0  0  0  0
 14 13  1  0  0  0  0
 14 16  1  0  0  0  0
 15 14  2  0  0  0  0
 17 18  1  0  0  0  0
 18 20  1  0  0  0  0
 20 19  1  1  0  0  0
 20 21  1  0  0  0  0
 21 22  1  6  0  0  0
 23 21  1  0  0  0  0
 24 23  1  0  0  0  0
 27 25  1  0  0  0  0
 27 24  1  0  0  0  0
 28 31  1  0  0  0  0
 28 25  1  0  0  0  0
 29 30  2  0  0  0  0
 29 27  1  0  0  0  0
 31 38  1  6  0  0  0
 31 26  1  0  0  0  0
 32 35  1  1  0  0  0
 32 26  1  0  0  0  0
 32 29  1  0  0  0  0
 35 34  2  6  0  0  0
 35 33  1  0  0  0  0
 36 37  1  0  0  0  0
 37 35  1  0  0  0  0
 38 39  1  6  0  0  0
 40 38  1  0  0  0  0
 41 40  1  0  0  0  0
 43 42  1  0  0  0  0
 44 43  1  0  0  0  0
 44 45  2  0  0  0  0
 46 44  1  0  0  0  0
 47 56  1  6  0  0  0
 47 46  1  0  0  0  0
 48 49  1  0  0  0  0
 49 47  1  0  0  0  0
 50 48  1  0  0  0  0
 51 50  1  0  0  0  0
 51 52  1  6  0  0  0
 53 51  1  1  0  0  0
 54 55  1  0  0  0  0
 54 53  1  0  0  0  0
 55 53  1  0  0  0  0
 56 57  1  0  0  0  0
 58 59  1  0  0  0  0
 58 57  1  0  0  0  0
M  END
>  <MODEL>
2

>  <REMARK>
 VINA RESULT:      -5.2      1.605      2.691
  Name = 
  27 active torsions:
  status: ('A' for Active; 'I' for Inactive)
    1  A    between atoms: C_1  and  C_3
    2  A    between atoms: C_1  and  C_49
    3  A    between atoms: C_4  and  C_10
    4  A    between atoms: C_4  and  C_55
    5  A    between atoms: C_5  and  O_32
    6  A    between atoms: N_8  and  N_22
    7  A    between atoms: N_8  and  N_36
    8  A    between atoms: C_11  and  C_14
    9  A    between atoms: C_11  and  O_21
   10  A    between atoms: C_13  and  N_50
   11  A    between atoms: C_14  and  C_26
   12  A    between atoms: C_15  and  N_38
   13  A    between atoms: C_16  and  N_22
   14  A    between atoms: C_16  and  C_37
   15  A    between atoms: C_19  and  C_43
   16  A    between atoms: C_19  and  C_53
   17  A    between atoms: C_23  and  C_28
   18  A    between atoms: C_23  and  C_43
   19  A    between atoms: C_26  and  S_29
   20  A    between atoms: C_26  and  C_37
   21  A    between atoms: C_28  and  O_32
   22  A    between atoms: C_31  and  C_33
   23  A    between atoms: C_33  and  N_38
   24  A    between atoms: N_40  and  C_53
   25  A    between atoms: N_42  and  C_49
   26  A    between atoms: C_57  and  P_58
   27  A    between atoms: P_58  and  O_59
                            x       y       z     vdW  Elec       q    Type
                         _______ _______ _______ _____ _____    ______ ____

>  <TORSDO>
F 27

$$$$
=
 OpenBabel11042415433D

 59 61  0  0  1  0  0  0  0  0999 V2000
  186.5230  176.6410  142.9980 C   0  0  2  0  0  3  0  0  0  0  0  0
  185.2310  178.2670  141.4210 C   0  0  1  0  0  3  0  0  0  0  0  0
  187.0610  176.7120  141.6090 C   0  0  0  0  0  0  0  0  0  0  0  0
  184.8490  177.3530  142.9460 S   0  0  0  0  0  0  0  0  0  0  0  0
  186.2660  177.4900  140.6330 C   0  0  0  0  0  2  0  0  0  0  0  0
  188.1540  176.1160  141.2430 N   0  0  0  0  0  0  0  0  0  0  0  0
  182.5810  178.3540  142.4630 O   0  0  0  0  0  0  0  0  0  0  0  0
  182.7260  178.5130  141.2200 C   0  0  0  0  0  0  0  0  0  0  0  0
  181.5950  178.7740  140.3900 N   0  0  0  0  0  2  0  0  0  0  0  0
  184.0240  178.4330  140.6300 N   0  0  0  0  0  2  0  0  0  0  0  0
  179.3510  177.8740  140.0530 C   0  0  0  0  0  1  0  0  0  0  0  0
  180.2360  178.7620  140.9120 C   0  0  2  0  0  3  0  0  0  0  0  0
  179.6690  180.1760  141.0200 C   0  0  0  0  0  2  0  0  0  0  0  0
  179.3050  180.7660  139.6960 C   0  0  0  0  0  0  0  0  0  0  0  0
  178.4880  180.1790  138.9460 O   0  0  0  0  0  0  0  0  0  0  0  0
  179.8800  181.9640  139.2970 O   0  0  0  0  0  1  0  0  0  0  0  0
  187.3340  177.3920  143.8550 O   0  0  0  0  0  0  0  0  0  0  0  0
  187.1990  176.7920  145.1110 C   0  0  0  0  0  2  0  0  0  0  0  0
  187.0760  177.9710  147.2950 C   0  0  0  0  0  1  0  0  0  0  0  0
  188.0060  177.5560  146.1580 C   0  0  1  0  0  3  0  0  0  0  0  0
  189.1590  176.7000  146.6900 C   0  0  1  0  0  3  0  0  0  0  0  0
  188.6700  175.2980  147.0220 C   0  0  0  0  0  1  0  0  0  0  0  0
  190.2700  176.5850  145.6480 C   0  0  0  0  0  2  0  0  0  0  0  0
  190.5530  175.1280  145.2900 C   0  0  0  0  0  2  0  0  0  0  0  0
  192.8490  176.0660  145.1960 C   0  0  0  0  0  2  0  0  0  0  0  0
  194.7810  174.1380  144.6860 O   0  0  0  0  0  0  0  0  0  0  0  0
  191.9680  174.9150  145.0010 N   0  0  0  0  0  0  0  0  0  0  0  0
  193.7420  176.2860  143.9870 C   0  0  0  0  0  2  0  0  0  0  0  0
  192.4350  173.6240  144.5470 C   0  0  0  0  0  0  0  0  0  0  0  0
  191.6410  172.6400  144.5720 O   0  0  0  0  0  0  0  0  0  0  0  0
  194.9980  175.4190  144.1180 C   0  0  2  0  0  3  0  0  0  0  0  0
  193.8100  173.4560  143.9350 C   0  0  2  0  0  3  0  0  0  0  0  0
  193.5070  171.0190  142.4290 O   0  0  0  0  0  0  0  0  0  0  0  0
  195.7950  171.6210  143.5410 O   0  0  0  0  0  1  0  0  0  0  0  0
  194.3020  171.7040  143.7590 P   0  0  1  0  0  0  0  0  0  0  0  0
  195.0450  170.6910  145.8030 O   0  0  0  0  0  1  0  0  0  0  0  0
  193.9030  170.8490  145.1660 O   0  0  0  0  0  0  0  0  0  0  0  0
  195.9240  175.4360  142.8890 C   0  0  1  0  0  3  0  0  0  0  0  0
  195.4040  176.2930  141.9220 O   0  0  0  0  0  1  0  0  0  0  0  0
  197.3630  175.8380  143.2030 C   0  0  0  0  0  2  0  0  0  0  0  0
  197.4760  177.2290  143.2350 O   0  0  0  0  0  1  0  0  0  0  0  0
  188.9240  175.3690  142.1450 N   0  0  0  0  0  2  0  0  0  0  0  0
  189.9720  174.5300  141.7300 N   0  0  0  0  0  2  0  0  0  0  0  0
  189.8710  173.1150  141.5230 C   0  0  0  0  0  0  0  0  0  0  0  0
  189.1200  172.3460  142.3070 C   0  0  0  0  0  2  0  0  0  0  0  0
  190.8170  172.4720  140.5640 C   0  0  0  0  0  2  0  0  0  0  0  0
  190.2040  172.3150  139.1770 C   0  0  1  0  0  3  0  0  0  0  0  0
  192.3230  173.9370  138.7700 C   0  0  0  0  0  2  0  0  0  0  0  0
  191.1080  173.2810  137.9360 S   0  0  0  0  0  0  0  0  0  0  0  0
  193.2750  174.7710  138.1070 N   0  0  0  0  0  2  0  0  0  0  0  0
  194.5830  174.4740  138.6850 C   0  0  2  0  0  3  0  0  0  0  0  0
  195.6150  174.4190  137.5800 C   0  0  0  0  0  1  0  0  0  0  0  0
  194.6310  173.1600  139.4850 C   0  0  2  0  0  3  0  0  0  0  0  0
  196.2990  172.7730  140.1730 S   0  0  0  0  0  0  0  0  0  0  0  0
  195.3310  172.1020  138.7570 C   0  0  0  0  0  2  0  0  0  0  0  0
  190.0870  170.8380  138.7910 C   0  0  0  0  0  2  0  0  0  0  0  0
  190.9900  169.9120  139.6070 C   0  0  0  0  0  2  0  0  0  0  0  0
  192.0510  169.4480  138.8220 O   0  0  0  0  0  0  0  0  0  0  0  0
  193.0220  169.2170  139.6820 O   0  0  0  0  0  1  0  0  0  0  0  0
  1 17  1  1  0  0  0
  2 10  1  6  0  0  0
  2  4  1  0  0  0  0
  3  1  1  0  0  0  0
  4  1  1  0  0  0  0
  5  2  1  0  0  0  0
  5  3  1  0  0  0  0
  6  3  2  0  0  0  0
  6 42  1  0  0  0  0
  8  7  2  0  0  0  0
  9 12  1  0  0  0  0
  9  8  1  0  0  0  0
 10  8  1  0  0  0  0
 12 11  1  6  0  0  0
 12 13  1  0  0  0  0
 14 13  1  0  0  0  0
 15 14  2  0  0  0  0
 16 14  1  0  0  0  0
 17 18  1  0  0  0  0
 18 20  1  0  0  0  0
 20 21  1  0  0  0  0
 20 19  1  1  0  0  0
 21 22  1  6  0  0  0
 23 21  1  0  0  0  0
 24 23  1  0  0  0  0
 27 25  1  0  0  0  0
 27 24  1  0  0  0  0
 28 31  1  0  0  0  0
 28 25  1  0  0  0  0
 29 30  2  0  0  0  0
 29 27  1  0  0  0  0
 31 38  1  6  0  0  0
 31 26  1  0  0  0  0
 32 35  1  1  0  0  0
 32 29  1  0  0  0  0
 32 26  1  0  0  0  0
 34 35  1  0  0  0  0
 35 33  2  6  0  0  0
 35 37  1  0  0  0  0
 37 36  1  0  0  0  0
 38 39  1  6  0  0  0
 38 40  1  0  0  0  0
 40 41  1  0  0  0  0
 43 42  1  0  0  0  0
 44 43  1  0  0  0  0
 44 45  2  0  0  0  0
 46 44  1  0  0  0  0
 47 56  1  6  0  0  0
 47 46  1  0  0  0  0
 49 48  1  0  0  0  0
 49 47  1  0  0  0  0
 50 51  1  0  0  0  0
 50 48  1  0  0  0  0
 51 52  1  6  0  0  0
 53 51  1  6  0  0  0
 53 54  1  0  0  0  0
 55 53  1  0  0  0  0
 55 54  1  0  0  0  0
 56 57  1  0  0  0  0
 58 57  1  0  0  0  0
 58 59  1  0  0  0  0
M  END
>  <MODEL>
3

>  <REMARK>
 VINA RESULT:      -4.6      1.927      3.200
  Name = 
  27 active torsions:
  status: ('A' for Active; 'I' for Inactive)
    1  A    between atoms: C_1  and  C_3
    2  A    between atoms: C_1  and  C_49
    3  A    between atoms: C_4  and  C_10
    4  A    between atoms: C_4  and  C_55
    5  A    between atoms: C_5  and  O_32
    6  A    between atoms: N_8  and  N_22
    7  A    between atoms: N_8  and  N_36
    8  A    between atoms: C_11  and  C_14
    9  A    between atoms: C_11  and  O_21
   10  A    between atoms: C_13  and  N_50
   11  A    between atoms: C_14  and  C_26
   12  A    between atoms: C_15  and  N_38
   13  A    between atoms: C_16  and  N_22
   14  A    between atoms: C_16  and  C_37
   15  A    between atoms: C_19  and  C_43
   16  A    between atoms: C_19  and  C_53
   17  A    between atoms: C_23  and  C_28
   18  A    between atoms: C_23  and  C_43
   19  A    between atoms: C_26  and  S_29
   20  A    between atoms: C_26  and  C_37
   21  A    between atoms: C_28  and  O_32
   22  A    between atoms: C_31  and  C_33
   23  A    between atoms: C_33  and  N_38
   24  A    between atoms: N_40  and  C_53
   25  A    between atoms: N_42  and  C_49
   26  A    between atoms: C_57  and  P_58
   27  A    between atoms: P_58  and  O_59
                            x       y       z     vdW  Elec       q    Type
                         _______ _______ _______ _____ _____    ______ ____

>  <TORSDO>
F 27

$$$$
=
 OpenBabel11042415433D

 59 61  0  0  1  0  0  0  0  0999 V2000
  187.3320  176.4510  143.3610 C   0  0  2  0  0  3  0  0  0  0  0  0
  185.8480  177.8890  141.7720 C   0  0  1  0  0  3  0  0  0  0  0  0
  187.9020  176.6520  141.9970 C   0  0  0  0  0  0  0  0  0  0  0  0
  185.5670  176.8780  143.2580 S   0  0  0  0  0  0  0  0  0  0  0  0
  187.0250  177.3190  141.0080 C   0  0  0  0  0  2  0  0  0  0  0  0
  189.0910  176.2560  141.6630 N   0  0  0  0  0  0  0  0  0  0  0  0
  183.2180  178.5540  142.6440 O   0  0  0  0  0  0  0  0  0  0  0  0
  183.3750  178.2670  141.4250 C   0  0  0  0  0  0  0  0  0  0  0  0
  182.2710  178.3250  140.5230 N   0  0  0  0  0  2  0  0  0  0  0  0
  184.6600  177.8790  140.9360 N   0  0  0  0  0  2  0  0  0  0  0  0
  179.9540  177.5630  140.4430 C   0  0  0  0  0  1  0  0  0  0  0  0
  180.9170  178.6100  140.9780 C   0  0  2  0  0  3  0  0  0  0  0  0
  180.4830  180.0200  140.5840 C   0  0  0  0  0  2  0  0  0  0  0  0
  179.0130  180.2450  140.7310 C   0  0  0  0  0  0  0  0  0  0  0  0
  178.3630  180.7980  139.8110 O   0  0  0  0  0  0  0  0  0  0  0  0
  178.3710  179.8430  141.8940 O   0  0  0  0  0  1  0  0  0  0  0  0
  187.9760  177.2980  144.2690 O   0  0  0  0  0  0  0  0  0  0  0  0
  188.1050  176.5500  145.4440 C   0  0  0  0  0  2  0  0  0  0  0  0
  189.3220  177.9060  147.1320 C   0  0  0  0  0  1  0  0  0  0  0  0
  189.4650  176.8000  146.0910 C   0  0  1  0  0  3  0  0  0  0  0  0
  190.0060  175.5200  146.7330 C   0  0  1  0  0  3  0  0  0  0  0  0
  189.4380  174.2940  146.0360 C   0  0  0  0  0  1  0  0  0  0  0  0
  191.5290  175.4680  146.6300 C   0  0  0  0  0  2  0  0  0  0  0  0
  192.0080  175.8690  145.2370 C   0  0  0  0  0  2  0  0  0  0  0  0
  192.5630  173.4570  145.0410 C   0  0  0  0  0  2  0  0  0  0  0  0
  194.4510  172.9420  143.0710 O   0  0  0  0  0  0  0  0  0  0  0  0
  192.8530  174.8350  144.6450 N   0  0  0  0  0  0  0  0  0  0  0  0
  193.8270  172.7300  145.4680 C   0  0  0  0  0  2  0  0  0  0  0  0
  193.9100  175.1930  143.7260 C   0  0  0  0  0  0  0  0  0  0  0  0
  193.9810  176.3820  143.3040 O   0  0  0  0  0  0  0  0  0  0  0  0
  194.5120  172.1340  144.2350 C   0  0  2  0  0  3  0  0  0  0  0  0
  194.9960  174.2050  143.3530 C   0  0  2  0  0  3  0  0  0  0  0  0
  196.9050  173.4540  141.3310 O   0  0  0  0  0  1  0  0  0  0  0  0
  195.0970  175.2780  140.8420 O   0  0  0  0  0  0  0  0  0  0  0  0
  196.0060  174.7580  141.9320 P   0  0  1  0  0  0  0  0  0  0  0  0
  197.4260  175.6720  143.6350 O   0  0  0  0  0  1  0  0  0  0  0  0
  197.0520  176.0000  142.4160 O   0  0  0  0  0  0  0  0  0  0  0  0
  195.8840  171.4910  144.5070 C   0  0  1  0  0  3  0  0  0  0  0  0
  196.1140  171.4420  145.8800 O   0  0  0  0  0  1  0  0  0  0  0  0
  196.0410  170.0920  143.9160 C   0  0  0  0  0  2  0  0  0  0  0  0
  194.8740  169.3550  144.1150 O   0  0  0  0  0  1  0  0  0  0  0  0
  189.9410  175.6180  142.5770 N   0  0  0  0  0  2  0  0  0  0  0  0
  190.4910  174.3480  142.3380 N   0  0  0  0  0  2  0  0  0  0  0  0
  189.8350  173.2760  141.6480 C   0  0  0  0  0  0  0  0  0  0  0  0
  188.7990  172.6330  142.1790 C   0  0  0  0  0  2  0  0  0  0  0  0
  190.4850  172.7220  140.4230 C   0  0  0  0  0  2  0  0  0  0  0  0
  189.5210  171.8800  139.5960 C   0  0  1  0  0  3  0  0  0  0  0  0
  189.7130  172.3680  136.9480 C   0  0  0  0  0  2  0  0  0  0  0  0
  188.8260  172.8270  138.2140 S   0  0  0  0  0  0  0  0  0  0  0  0
  189.4410  172.9050  135.6520 N   0  0  0  0  0  2  0  0  0  0  0  0
  190.4980  173.8670  135.3550 C   0  0  2  0  0  3  0  0  0  0  0  0
  191.7560  173.4700  136.0970 C   0  0  0  0  0  1  0  0  0  0  0  0
  190.1420  175.3220  135.7120 C   0  0  2  0  0  3  0  0  0  0  0  0
  188.3810  175.7580  135.3740 S   0  0  0  0  0  0  0  0  0  0  0  0
  189.9660  176.1500  134.5190 C   0  0  0  0  0  2  0  0  0  0  0  0
  190.1830  170.5790  139.1340 C   0  0  0  0  0  2  0  0  0  0  0  0
  191.3150  170.1040  140.0460 C   0  0  0  0  0  2  0  0  0  0  0  0
  190.8380  169.1730  140.9750 O   0  0  0  0  0  0  0  0  0  0  0  0
  191.4270  169.5030  142.1060 O   0  0  0  0  0  1  0  0  0  0  0  0
  1 17  1  1  0  0  0
  2 10  1  6  0  0  0
  2  4  1  0  0  0  0
  3  1  1  0  0  0  0
  4  1  1  0  0  0  0
  5  2  1  0  0  0  0
  5  3  1  0  0  0  0
  6  3  2  0  0  0  0
  6 42  1  0  0  0  0
  8  7  2  0  0  0  0
  9 12  1  0  0  0  0
  9  8  1  0  0  0  0
 10  8  1  0  0  0  0
 12 11  1  6  0  0  0
 13 14  1  0  0  0  0
 13 12  1  0  0  0  0
 14 16  1  0  0  0  0
 15 14  2  0  0  0  0
 17 18  1  0  0  0  0
 18 20  1  0  0  0  0
 20 21  1  0  0  0  0
 20 19  1  1  0  0  0
 21 22  1  6  0  0  0
 23 21  1  0  0  0  0
 24 23  1  0  0  0  0
 25 28  1  0  0  0  0
 26 32  1  0  0  0  0
 26 31  1  0  0  0  0
 27 25  1  0  0  0  0
 27 24  1  0  0  0  0
 29 27  1  0  0  0  0
 30 29  2  0  0  0  0
 31 38  1  1  0  0  0
 31 28  1  0  0  0  0
 32 35  1  6  0  0  0
 32 29  1  0  0  0  0
 33 35  1  0  0  0  0
 35 34  2  6  0  0  0
 35 37  1  0  0  0  0
 37 36  1  0  0  0  0
 38 39  1  1  0  0  0
 40 41  1  0  0  0  0
 40 38  1  0  0  0  0
 43 42  1  0  0  0  0
 44 45  2  0  0  0  0
 44 43  1  0  0  0  0
 46 44  1  0  0  0  0
 47 56  1  6  0  0  0
 47 46  1  0  0  0  0
 48 49  1  0  0  0  0
 49 47  1  0  0  0  0
 50 48  1  0  0  0  0
 51 50  1  0  0  0  0
 51 52  1  1  0  0  0
 53 51  1  6  0  0  0
 54 53  1  0  0  0  0
 55 54  1  0  0  0  0
 55 53  1  0  0  0  0
 56 57  1  0  0  0  0
 57 58  1  0  0  0  0
 58 59  1  0  0  0  0
M  END
>  <MODEL>
4

>  <REMARK>
 VINA RESULT:      -4.5      1.723      2.109
  Name = 
  27 active torsions:
  status: ('A' for Active; 'I' for Inactive)
    1  A    between atoms: C_1  and  C_3
    2  A    between atoms: C_1  and  C_49
    3  A    between atoms: C_4  and  C_10
    4  A    between atoms: C_4  and  C_55
    5  A    between atoms: C_5  and  O_32
    6  A    between atoms: N_8  and  N_22
    7  A    between atoms: N_8  and  N_36
    8  A    between atoms: C_11  and  C_14
    9  A    between atoms: C_11  and  O_21
   10  A    between atoms: C_13  and  N_50
   11  A    between atoms: C_14  and  C_26
   12  A    between atoms: C_15  and  N_38
   13  A    between atoms: C_16  and  N_22
   14  A    between atoms: C_16  and  C_37
   15  A    between atoms: C_19  and  C_43
   16  A    between atoms: C_19  and  C_53
   17  A    between atoms: C_23  and  C_28
   18  A    between atoms: C_23  and  C_43
   19  A    between atoms: C_26  and  S_29
   20  A    between atoms: C_26  and  C_37
   21  A    between atoms: C_28  and  O_32
   22  A    between atoms: C_31  and  C_33
   23  A    between atoms: C_33  and  N_38
   24  A    between atoms: N_40  and  C_53
   25  A    between atoms: N_42  and  C_49
   26  A    between atoms: C_57  and  P_58
   27  A    between atoms: P_58  and  O_59
                            x       y       z     vdW  Elec       q    Type
                         _______ _______ _______ _____ _____    ______ ____

>  <TORSDO>
F 27

$$$$
=
 OpenBabel11042415433D

 59 61  0  0  1  0  0  0  0  0999 V2000
  187.2250  176.3180  143.4240 C   0  0  2  0  0  3  0  0  0  0  0  0
  185.6870  177.7750  141.9030 C   0  0  1  0  0  3  0  0  0  0  0  0
  187.6500  176.3810  141.9960 C   0  0  0  0  0  0  0  0  0  0  0  0
  185.4980  176.8890  143.4800 S   0  0  0  0  0  0  0  0  0  0  0  0
  186.7220  177.0560  141.0610 C   0  0  0  0  0  2  0  0  0  0  0  0
  188.7590  175.8640  141.5650 N   0  0  0  0  0  0  0  0  0  0  0  0
  183.2840  178.9160  142.9210 O   0  0  0  0  0  0  0  0  0  0  0  0
  183.2570  178.4420  141.7530 C   0  0  0  0  0  0  0  0  0  0  0  0
  182.0670  178.5260  140.9680 N   0  0  0  0  0  2  0  0  0  0  0  0
  184.4150  177.8130  141.2030 N   0  0  0  0  0  2  0  0  0  0  0  0
  179.8610  177.9240  141.8210 C   0  0  0  0  0  1  0  0  0  0  0  0
  180.8240  179.0580  141.5080 C   0  0  2  0  0  3  0  0  0  0  0  0
  180.1960  180.0760  140.5590 C   0  0  0  0  0  2  0  0  0  0  0  0
  178.8880  179.6260  139.9940 C   0  0  0  0  0  0  0  0  0  0  0  0
  177.8200  180.1720  140.3610 O   0  0  0  0  0  1  0  0  0  0  0  0
  178.8610  178.5950  139.0650 O   0  0  0  0  0  0  0  0  0  0  0  0
  188.0320  177.1630  144.1930 O   0  0  0  0  0  0  0  0  0  0  0  0
  187.8870  176.7160  145.5090 C   0  0  0  0  0  2  0  0  0  0  0  0
  188.3200  177.9200  147.6390 C   0  0  0  0  0  1  0  0  0  0  0  0
  188.9730  177.3140  146.4000 C   0  0  1  0  0  3  0  0  0  0  0  0
  189.9990  176.2490  146.7980 C   0  0  1  0  0  3  0  0  0  0  0  0
  189.3340  174.8850  146.9110 C   0  0  0  0  0  1  0  0  0  0  0  0
  191.1100  176.1550  145.7540 C   0  0  0  0  0  2  0  0  0  0  0  0
  191.8030  174.7950  145.7960 C   0  0  0  0  0  2  0  0  0  0  0  0
  193.7990  176.2570  145.6010 C   0  0  0  0  0  2  0  0  0  0  0  0
  196.1490  174.8280  145.2150 O   0  0  0  0  0  0  0  0  0  0  0  0
  193.2290  174.9140  145.5060 N   0  0  0  0  0  0  0  0  0  0  0  0
  194.6190  176.5960  144.3680 C   0  0  0  0  0  2  0  0  0  0  0  0
  194.0010  173.7460  145.1450 C   0  0  0  0  0  0  0  0  0  0  0  0
  193.4740  172.6020  145.2550 O   0  0  0  0  0  0  0  0  0  0  0  0
  196.0480  176.0760  144.5490 C   0  0  2  0  0  3  0  0  0  0  0  0
  195.3790  173.8730  144.5300 C   0  0  2  0  0  3  0  0  0  0  0  0
  195.2550  171.0540  143.9500 O   0  0  0  0  0  1  0  0  0  0  0  0
  197.4520  172.4040  143.5270 O   0  0  0  0  0  0  0  0  0  0  0  0
  196.2880  172.2870  144.4830 P   0  0  1  0  0  0  0  0  0  0  0  0
  197.0470  170.6080  146.0180 O   0  0  0  0  0  1  0  0  0  0  0  0
  196.8770  171.9130  146.0260 O   0  0  0  0  0  0  0  0  0  0  0  0
  196.9500  176.2250  143.3100 C   0  0  1  0  0  3  0  0  0  0  0  0
  197.8730  175.1840  143.2740 O   0  0  0  0  0  1  0  0  0  0  0  0
  196.1840  176.2700  141.9890 C   0  0  0  0  0  2  0  0  0  0  0  0
  197.0050  175.8410  140.9450 O   0  0  0  0  0  1  0  0  0  0  0  0
  189.6540  175.2150  142.4270 N   0  0  0  0  0  2  0  0  0  0  0  0
  189.5580  173.8460  142.7260 N   0  0  0  0  0  2  0  0  0  0  0  0
  190.6110  172.8860  142.5680 C   0  0  0  0  0  0  0  0  0  0  0  0
  190.6300  171.7500  143.2600 C   0  0  0  0  0  2  0  0  0  0  0  0
  191.8230  173.2870  141.7950 C   0  0  0  0  0  2  0  0  0  0  0  0
  191.7520  172.8290  140.3430 C   0  0  1  0  0  3  0  0  0  0  0  0
  193.3100  170.7680  139.5640 C   0  0  0  0  0  2  0  0  0  0  0  0
  191.8540  171.0230  140.2080 S   0  0  0  0  0  0  0  0  0  0  0  0
  193.7580  169.4330  139.3190 N   0  0  0  0  0  2  0  0  0  0  0  0
  195.0150  169.2620  140.0420 C   0  0  2  0  0  3  0  0  0  0  0  0
  194.7270  168.6840  141.4110 C   0  0  0  0  0  1  0  0  0  0  0  0
  195.8270  170.5590  140.2040 C   0  0  2  0  0  3  0  0  0  0  0  0
  197.0730  170.8250  138.8690 S   0  0  0  0  0  0  0  0  0  0  0  0
  197.2020  170.2930  140.6280 C   0  0  0  0  0  2  0  0  0  0  0  0
  190.5100  173.3940  139.6480 C   0  0  0  0  0  2  0  0  0  0  0  0
  190.1970  172.7320  138.3060 C   0  0  0  0  0  2  0  0  0  0  0  0
  188.8470  172.9010  137.9800 O   0  0  0  0  0  0  0  0  0  0  0  0
  188.3090  173.4250  139.0620 O   0  0  0  0  0  1  0  0  0  0  0  0
  1  4  1  0  0  0  0
  1 17  1  1  0  0  0
  2 10  1  6  0  0  0
  2  4  1  0  0  0  0
  3  1  1  0  0  0  0
  5  2  1  0  0  0  0
  5  3  1  0  0  0  0
  6  3  2  0  0  0  0
  6 42  1  0  0  0  0
  8  7  2  0  0  0  0
  9 12  1  0  0  0  0
  9  8  1  0  0  0  0
 10  8  1  0  0  0  0
 12 11  1  6  0  0  0
 13 12  1  0  0  0  0
 14 15  1  0  0  0  0
 14 13  1  0  0  0  0
 16 14  2  0  0  0  0
 17 18  1  0  0  0  0
 18 20  1  0  0  0  0
 20 21  1  0  0  0  0
 20 19  1  1  0  0  0
 21 22  1  6  0  0  0
 23 24  1  0  0  0  0
 23 21  1  0  0  0  0
 27 25  1  0  0  0  0
 27 24  1  0  0  0  0
 28 31  1  0  0  0  0
 28 25  1  0  0  0  0
 29 30  2  0  0  0  0
 29 27  1  0  0  0  0
 31 38  1  6  0  0  0
 31 26  1  0  0  0  0
 32 35  1  1  0  0  0
 32 29  1  0  0  0  0
 32 26  1  0  0  0  0
 33 35  1  0  0  0  0
 35 34  2  6  0  0  0
 35 37  1  0  0  0  0
 36 37  1  0  0  0  0
 38 39  1  6  0  0  0
 40 38  1  0  0  0  0
 41 40  1  0  0  0  0
 42 43  1  0  0  0  0
 44 43  1  0  0  0  0
 44 45  2  0  0  0  0
 46 44  1  0  0  0  0
 47 56  1  1  0  0  0
 47 46  1  0  0  0  0
 48 49  1  0  0  0  0
 49 47  1  0  0  0  0
 50 48  1  0  0  0  0
 50 51  1  0  0  0  0
 51 52  1  1  0  0  0
 53 51  1  6  0  0  0
 53 55  1  0  0  0  0
 54 53  1  0  0  0  0
 54 55  1  0  0  0  0
 57 56  1  0  0  0  0
 58 57  1  0  0  0  0
 58 59  1  0  0  0  0
M  END
>  <MODEL>
5

>  <REMARK>
 VINA RESULT:      -4.3      2.249      3.683
  Name = 
  27 active torsions:
  status: ('A' for Active; 'I' for Inactive)
    1  A    between atoms: C_1  and  C_3
    2  A    between atoms: C_1  and  C_49
    3  A    between atoms: C_4  and  C_10
    4  A    between atoms: C_4  and  C_55
    5  A    between atoms: C_5  and  O_32
    6  A    between atoms: N_8  and  N_22
    7  A    between atoms: N_8  and  N_36
    8  A    between atoms: C_11  and  C_14
    9  A    between atoms: C_11  and  O_21
   10  A    between atoms: C_13  and  N_50
   11  A    between atoms: C_14  and  C_26
   12  A    between atoms: C_15  and  N_38
   13  A    between atoms: C_16  and  N_22
   14  A    between atoms: C_16  and  C_37
   15  A    between atoms: C_19  and  C_43
   16  A    between atoms: C_19  and  C_53
   17  A    between atoms: C_23  and  C_28
   18  A    between atoms: C_23  and  C_43
   19  A    between atoms: C_26  and  S_29
   20  A    between atoms: C_26  and  C_37
   21  A    between atoms: C_28  and  O_32
   22  A    between atoms: C_31  and  C_33
   23  A    between atoms: C_33  and  N_38
   24  A    between atoms: N_40  and  C_53
   25  A    between atoms: N_42  and  C_49
   26  A    between atoms: C_57  and  P_58
   27  A    between atoms: P_58  and  O_59
                            x       y       z     vdW  Elec       q    Type
                         _______ _______ _______ _____ _____    ______ ____

>  <TORSDO>
F 27

$$$$
=
 OpenBabel11042415433D

 59 61  0  0  1  0  0  0  0  0999 V2000
  189.9860  174.4290  143.7370 C   0  0  2  0  0  3  0  0  0  0  0  0
  189.5500  171.9170  143.1940 C   0  0  1  0  0  3  0  0  0  0  0  0
  188.9420  174.1940  142.6980 C   0  0  0  0  0  0  0  0  0  0  0  0
  190.9250  172.8790  143.8930 S   0  0  0  0  0  0  0  0  0  0  0  0
  188.7750  172.7980  142.2350 C   0  0  0  0  0  2  0  0  0  0  0  0
  188.2190  175.1460  142.1950 N   0  0  0  0  0  0  0  0  0  0  0  0
  190.3980  171.8770  140.4740 O   0  0  0  0  0  0  0  0  0  0  0  0
  190.5170  170.8120  141.1390 C   0  0  0  0  0  0  0  0  0  0  0  0
  191.1020  169.6530  140.5460 N   0  0  0  0  0  2  0  0  0  0  0  0
  190.0660  170.7530  142.4930 N   0  0  0  0  0  2  0  0  0  0  0  0
  190.3360  169.0790  138.3010 C   0  0  0  0  0  1  0  0  0  0  0  0
  191.4830  169.6150  139.1410 C   0  0  2  0  0  3  0  0  0  0  0  0
  192.7560  168.7970  138.9320 C   0  0  0  0  0  2  0  0  0  0  0  0
  193.7550  169.4770  138.0540 C   0  0  0  0  0  0  0  0  0  0  0  0
  194.1330  170.6450  138.3140 O   0  0  0  0  0  1  0  0  0  0  0  0
  194.2570  168.8130  136.9440 O   0  0  0  0  0  0  0  0  0  0  0  0
  189.3750  174.7420  144.9550 O   0  0  0  0  0  0  0  0  0  0  0  0
  189.7140  176.0750  145.2070 C   0  0  0  0  0  2  0  0  0  0  0  0
  191.5450  177.4530  144.2490 C   0  0  0  0  0  1  0  0  0  0  0  0
  191.2280  176.2610  145.1470 C   0  0  1  0  0  3  0  0  0  0  0  0
  191.8070  176.4740  146.5490 C   0  0  1  0  0  3  0  0  0  0  0  0
  191.0010  175.6990  147.5800 C   0  0  0  0  0  1  0  0  0  0  0  0
  193.2550  175.9930  146.6120 C   0  0  0  0  0  2  0  0  0  0  0  0
  193.3710  174.5190  146.2320 C   0  0  0  0  0  2  0  0  0  0  0  0
  195.3560  175.4370  145.0590 C   0  0  0  0  0  2  0  0  0  0  0  0
  197.1130  173.4630  144.2050 O   0  0  0  0  0  0  0  0  0  0  0  0
  194.5790  174.2620  145.4530 N   0  0  0  0  0  0  0  0  0  0  0  0
  195.6920  175.4040  143.5780 C   0  0  0  0  0  2  0  0  0  0  0  0
  194.9520  172.9090  145.1070 C   0  0  0  0  0  0  0  0  0  0  0  0
  194.3240  171.9450  145.6320 O   0  0  0  0  0  0  0  0  0  0  0  0
  196.9750  174.5960  143.3640 C   0  0  2  0  0  3  0  0  0  0  0  0
  195.9950  172.6270  144.0450 C   0  0  2  0  0  3  0  0  0  0  0  0
  197.1690  170.4680  145.5460 O   0  0  0  0  0  1  0  0  0  0  0  0
  195.3630  169.9900  143.7180 O   0  0  0  0  0  0  0  0  0  0  0  0
  196.5420  170.8830  144.0280 P   0  0  1  0  0  0  0  0  0  0  0  0
  197.0580  170.4410  141.7280 O   0  0  0  0  0  1  0  0  0  0  0  0
  197.7280  170.6620  142.8390 O   0  0  0  0  0  0  0  0  0  0  0  0
  197.3510  174.3610  141.8900 C   0  0  1  0  0  3  0  0  0  0  0  0
  196.3920  173.5520  141.2860 O   0  0  0  0  0  1  0  0  0  0  0  0
  197.5160  175.6450  141.0800 C   0  0  0  0  0  2  0  0  0  0  0  0
  196.5570  175.6990  140.0680 O   0  0  0  0  0  1  0  0  0  0  0  0
  188.3590  176.4780  142.6110 N   0  0  0  0  0  2  0  0  0  0  0  0
  187.6730  177.5380  141.9950 N   0  0  0  0  0  2  0  0  0  0  0  0
  186.4430  177.4200  141.2690 C   0  0  0  0  0  0  0  0  0  0  0  0
  186.3940  177.5620  139.9470 C   0  0  0  0  0  2  0  0  0  0  0  0
  185.1670  177.3780  142.0430 C   0  0  0  0  0  2  0  0  0  0  0  0
  184.8590  178.7130  142.7100 C   0  0  1  0  0  3  0  0  0  0  0  0
  182.1930  179.0500  142.4550 C   0  0  0  0  0  2  0  0  0  0  0  0
  183.2730  178.6680  143.5900 S   0  0  0  0  0  0  0  0  0  0  0  0
  180.8030  179.1020  142.7810 N   0  0  0  0  0  2  0  0  0  0  0  0
  180.0760  178.5240  141.6550 C   0  0  2  0  0  3  0  0  0  0  0  0
  180.1770  179.4550  140.4650 C   0  0  0  0  0  1  0  0  0  0  0  0
  178.5910  178.2390  141.9460 C   0  0  2  0  0  3  0  0  0  0  0  0
  178.2030  178.0950  143.7440 S   0  0  0  0  0  0  0  0  0  0  0  0
  178.3750  176.8610  142.3870 C   0  0  0  0  0  2  0  0  0  0  0  0
  186.0130  179.1550  143.6140 C   0  0  0  0  0  2  0  0  0  0  0  0
  185.6120  179.3530  145.0760 C   0  0  0  0  0  2  0  0  0  0  0  0
  186.3030  178.4550  145.8980 O   0  0  0  0  0  0  0  0  0  0  0  0
  185.3610  177.8630  146.6050 O   0  0  0  0  0  1  0  0  0  0  0  0
  1  4  1  0  0  0  0
  1 17  1  1  0  0  0
  2 10  1  6  0  0  0
  2  4  1  0  0  0  0
  3  1  1  0  0  0  0
  5  3  1  0  0  0  0
  5  2  1  0  0  0  0
  6 42  1  0  0  0  0
  6  3  2  0  0  0  0
  7  8  2  0  0  0  0
  8 10  1  0  0  0  0
  9  8  1  0  0  0  0
 12 11  1  6  0  0  0
 12  9  1  0  0  0  0
 13 12  1  0  0  0  0
 14 15  1  0  0  0  0
 14 13  1  0  0  0  0
 16 14  2  0  0  0  0
 17 18  1  0  0  0  0
 20 19  1  6  0  0  0
 20 18  1  0  0  0  0
 20 21  1  0  0  0  0
 21 23  1  0  0  0  0
 21 22  1  1  0  0  0
 24 23  1  0  0  0  0
 25 27  1  0  0  0  0
 27 24  1  0  0  0  0
 28 25  1  0  0  0  0
 29 27  1  0  0  0  0
 29 30  2  0  0  0  0
 31 38  1  6  0  0  0
 31 28  1  0  0  0  0
 31 26  1  0  0  0  0
 32 35  1  1  0  0  0
 32 26  1  0  0  0  0
 32 29  1  0  0  0  0
 35 34  2  6  0  0  0
 35 33  1  0  0  0  0
 36 37  1  0  0  0  0
 37 35  1  0  0  0  0
 38 39  1  6  0  0  0
 40 38  1  0  0  0  0
 41 40  1  0  0  0  0
 43 42  1  0  0  0  0
 44 43  1  0  0  0  0
 44 46  1  0  0  0  0
 45 44  2  0  0  0  0
 47 46  1  1  0  0  0
 47 49  1  0  0  0  0
 47 56  1  0  0  0  0
 48 50  1  0  0  0  0
 48 49  1  0  0  0  0
 51 52  1  6  0  0  0
 51 50  1  0  0  0  0
 53 51  1  1  0  0  0
 53 55  1  0  0  0  0
 53 54  1  0  0  0  0
 55 54  1  0  0  0  0
 56 57  1  0  0  0  0
 57 58  1  0  0  0  0
 58 59  1  0  0  0  0
M  END
>  <MODEL>
6

>  <REMARK>
 VINA RESULT:      -3.8      3.494      9.561
  Name = 
  27 active torsions:
  status: ('A' for Active; 'I' for Inactive)
    1  A    between atoms: C_1  and  C_3
    2  A    between atoms: C_1  and  C_49
    3  A    between atoms: C_4  and  C_10
    4  A    between atoms: C_4  and  C_55
    5  A    between atoms: C_5  and  O_32
    6  A    between atoms: N_8  and  N_22
    7  A    between atoms: N_8  and  N_36
    8  A    between atoms: C_11  and  C_14
    9  A    between atoms: C_11  and  O_21
   10  A    between atoms: C_13  and  N_50
   11  A    between atoms: C_14  and  C_26
   12  A    between atoms: C_15  and  N_38
   13  A    between atoms: C_16  and  N_22
   14  A    between atoms: C_16  and  C_37
   15  A    between atoms: C_19  and  C_43
   16  A    between atoms: C_19  and  C_53
   17  A    between atoms: C_23  and  C_28
   18  A    between atoms: C_23  and  C_43
   19  A    between atoms: C_26  and  S_29
   20  A    between atoms: C_26  and  C_37
   21  A    between atoms: C_28  and  O_32
   22  A    between atoms: C_31  and  C_33
   23  A    between atoms: C_33  and  N_38
   24  A    between atoms: N_40  and  C_53
   25  A    between atoms: N_42  and  C_49
   26  A    between atoms: C_57  and  P_58
   27  A    between atoms: P_58  and  O_59
                            x       y       z     vdW  Elec       q    Type
                         _______ _______ _______ _____ _____    ______ ____

>  <TORSDO>
F 27

$$$$
=
 OpenBabel11042415433D

 59 61  0  0  1  0  0  0  0  0999 V2000
  190.0510  175.1920  143.5460 C   0  0  2  0  0  3  0  0  0  0  0  0
  190.9320  173.7590  141.5540 C   0  0  1  0  0  3  0  0  0  0  0  0
  189.0270  174.8820  142.5070 C   0  0  0  0  0  0  0  0  0  0  0  0
  191.6740  174.8650  142.7920 S   0  0  0  0  0  0  0  0  0  0  0  0
  189.5140  174.2150  141.2790 C   0  0  0  0  0  2  0  0  0  0  0  0
  187.7730  175.1870  142.6380 N   0  0  0  0  0  0  0  0  0  0  0  0
  191.0090  171.6940  139.5930 O   0  0  0  0  0  0  0  0  0  0  0  0
  191.6720  172.7420  139.3640 C   0  0  0  0  0  0  0  0  0  0  0  0
  192.3910  172.8880  138.1390 N   0  0  0  0  0  2  0  0  0  0  0  0
  191.7130  173.7940  140.3290 N   0  0  0  0  0  2  0  0  0  0  0  0
  193.9270  171.4130  136.9470 C   0  0  0  0  0  1  0  0  0  0  0  0
  192.4760  171.8110  137.1620 C   0  0  2  0  0  3  0  0  0  0  0  0
  191.8030  172.1990  135.8470 C   0  0  0  0  0  2  0  0  0  0  0  0
  190.5170  171.4770  135.6100 C   0  0  0  0  0  0  0  0  0  0  0  0
  189.8800  171.6540  134.5430 O   0  0  0  0  0  0  0  0  0  0  0  0
  190.0250  170.6150  136.5800 O   0  0  0  0  0  1  0  0  0  0  0  0
  189.8640  174.3590  144.6540 O   0  0  0  0  0  0  0  0  0  0  0  0
  189.8710  175.2120  145.7620 C   0  0  0  0  0  2  0  0  0  0  0  0
  189.9370  177.6960  145.7930 C   0  0  0  0  0  1  0  0  0  0  0  0
  190.7420  176.4360  145.4890 C   0  0  1  0  0  3  0  0  0  0  0  0
  192.0190  176.3950  146.3330 C   0  0  1  0  0  3  0  0  0  0  0  0
  192.2440  174.9970  146.8880 C   0  0  0  0  0  1  0  0  0  0  0  0
  193.2340  176.7780  145.4910 C   0  0  0  0  0  2  0  0  0  0  0  0
  194.5210  176.1990  146.0720 C   0  0  0  0  0  2  0  0  0  0  0  0
  196.0390  176.8020  144.2020 C   0  0  0  0  0  2  0  0  0  0  0  0
  197.4520  174.6250  143.2160 O   0  0  0  0  0  0  0  0  0  0  0  0
  195.4290  175.7530  145.0180 N   0  0  0  0  0  0  0  0  0  0  0  0
  195.8970  176.4990  142.7210 C   0  0  0  0  0  2  0  0  0  0  0  0
  195.6820  174.3430  144.8210 C   0  0  0  0  0  0  0  0  0  0  0  0
  195.2540  173.5160  145.6760 O   0  0  0  0  0  0  0  0  0  0  0  0
  197.0540  175.6040  142.2700 C   0  0  2  0  0  3  0  0  0  0  0  0
  196.3450  173.8320  143.5580 C   0  0  2  0  0  3  0  0  0  0  0  0
  197.7610  171.6570  142.3090 O   0  0  0  0  0  0  0  0  0  0  0  0
  197.7310  171.9060  144.9110 O   0  0  0  0  0  1  0  0  0  0  0  0
  196.8680  172.0850  143.6840 P   0  0  1  0  0  0  0  0  0  0  0  0
  195.9940  169.8740  144.0080 O   0  0  0  0  0  1  0  0  0  0  0  0
  195.5080  171.0830  143.8170 O   0  0  0  0  0  0  0  0  0  0  0  0
  196.9540  175.1010  140.8190 C   0  0  1  0  0  3  0  0  0  0  0  0
  197.8500  174.0540  140.6220 O   0  0  0  0  0  1  0  0  0  0  0  0
  195.5510  174.6520  140.4150 C   0  0  0  0  0  2  0  0  0  0  0  0
  195.2630  175.0880  139.1210 O   0  0  0  0  0  1  0  0  0  0  0  0
  187.2840  175.8220  143.7880 N   0  0  0  0  0  0  0  0  0  0  0  0
  186.9980  177.1970  143.8280 N   0  0  0  0  0  0  0  0  0  0  0  0
  187.2710  178.1330  142.7770 C   0  0  0  0  0  0  0  0  0  0  0  0
  188.4430  178.7540  142.6820 C   0  0  0  0  0  2  0  0  0  0  0  0
  186.1330  178.5910  141.9260 C   0  0  0  0  0  2  0  0  0  0  0  0
  185.6210  177.4830  141.0130 C   0  0  1  0  0  3  0  0  0  0  0  0
  183.1030  178.4110  141.3060 C   0  0  0  0  0  2  0  0  0  0  0  0
  184.1210  177.9900  140.1280 S   0  0  0  0  0  0  0  0  0  0  0  0
  181.7950  178.8880  140.9830 N   0  0  0  0  0  2  0  0  0  0  0  0
  181.1720  179.3130  142.2330 C   0  0  2  0  0  3  0  0  0  0  0  0
  182.1320  179.0670  143.3770 C   0  0  0  0  0  1  0  0  0  0  0  0
  179.8350  178.6130  142.5380 C   0  0  2  0  0  3  0  0  0  0  0  0
  178.9860  177.9530  141.0390 S   0  0  0  0  0  0  0  0  0  0  0  0
  178.6890  179.4180  142.1160 C   0  0  0  0  0  2  0  0  0  0  0  0
  186.7210  177.0000  140.0630 C   0  0  0  0  0  2  0  0  0  0  0  0
  186.3590  177.1260  138.5820 C   0  0  0  0  0  2  0  0  0  0  0  0
  186.7050  175.9590  137.8930 O   0  0  0  0  0  0  0  0  0  0  0  0
  187.1580  176.3830  136.7310 O   0  0  0  0  0  1  0  0  0  0  0  0
  1 17  1  1  0  0  0
  2 10  1  6  0  0  0
  2  4  1  0  0  0  0
  3  6  2  0  0  0  0
  3  1  1  0  0  0  0
  4  1  1  0  0  0  0
  5  2  1  0  0  0  0
  5  3  1  0  0  0  0
  6 42  1  0  0  0  0
  8  7  2  0  0  0  0
  8 10  1  0  0  0  0
  9  8  1  0  0  0  0
 12 11  1  6  0  0  0
 12  9  1  0  0  0  0
 13 12  1  0  0  0  0
 14 13  1  0  0  0  0
 14 16  1  0  0  0  0
 15 14  2  0  0  0  0
 17 18  1  0  0  0  0
 20 18  1  0  0  0  0
 20 19  1  1  0  0  0
 20 21  1  0  0  0  0
 21 22  1  6  0  0  0
 23 24  1  0  0  0  0
 23 21  1  0  0  0  0
 25 27  1  0  0  0  0
 26 32  1  0  0  0  0
 27 24  1  0  0  0  0
 28 25  1  0  0  0  0
 29 27  1  0  0  0  0
 29 30  2  0  0  0  0
 31 38  1  6  0  0  0
 31 28  1  0  0  0  0
 31 26  1  0  0  0  0
 32 35  1  1  0  0  0
 32 29  1  0  0  0  0
 35 33  2  6  0  0  0
 35 37  1  0  0  0  0
 35 34  1  0  0  0  0
 37 36  1  0  0  0  0
 38 39  1  1  0  0  0
 40 38  1  0  0  0  0
 41 40  1  0  0  0  0
 42 43  2  0  0  0  0
 44 43  1  0  0  0  0
 45 44  2  0  0  0  0
 46 44  1  0  0  0  0
 47 56  1  6  0  0  0
 47 46  1  0  0  0  0
 49 47  1  0  0  0  0
 49 48  1  0  0  0  0
 50 48  1  0  0  0  0
 50 51  1  0  0  0  0
 51 52  1  1  0  0  0
 53 51  1  6  0  0  0
 54 55  1  0  0  0  0
 54 53  1  0  0  0  0
 55 53  1  0  0  0  0
 57 56  1  0  0  0  0
 58 57  1  0  0  0  0
 59 58  1  0  0  0  0
M  END
>  <MODEL>
7

>  <REMARK>
 VINA RESULT:      -3.7      3.207      8.749
  Name = 
  27 active torsions:
  status: ('A' for Active; 'I' for Inactive)
    1  A    between atoms: C_1  and  C_3
    2  A    between atoms: C_1  and  C_49
    3  A    between atoms: C_4  and  C_10
    4  A    between atoms: C_4  and  C_55
    5  A    between atoms: C_5  and  O_32
    6  A    between atoms: N_8  and  N_22
    7  A    between atoms: N_8  and  N_36
    8  A    between atoms: C_11  and  C_14
    9  A    between atoms: C_11  and  O_21
   10  A    between atoms: C_13  and  N_50
   11  A    between atoms: C_14  and  C_26
   12  A    between atoms: C_15  and  N_38
   13  A    between atoms: C_16  and  N_22
   14  A    between atoms: C_16  and  C_37
   15  A    between atoms: C_19  and  C_43
   16  A    between atoms: C_19  and  C_53
   17  A    between atoms: C_23  and  C_28
   18  A    between atoms: C_23  and  C_43
   19  A    between atoms: C_26  and  S_29
   20  A    between atoms: C_26  and  C_37
   21  A    between atoms: C_28  and  O_32
   22  A    between atoms: C_31  and  C_33
   23  A    between atoms: C_33  and  N_38
   24  A    between atoms: N_40  and  C_53
   25  A    between atoms: N_42  and  C_49
   26  A    between atoms: C_57  and  P_58
   27  A    between atoms: P_58  and  O_59
                            x       y       z     vdW  Elec       q    Type
                         _______ _______ _______ _____ _____    ______ ____

>  <TORSDO>
F 27

$$$$
=
 OpenBabel11042415433D

 59 61  0  0  1  0  0  0  0  0999 V2000
  187.0320  177.2080  141.8050 C   0  0  2  0  0  3  0  0  0  0  0  0
  184.4680  177.5150  142.1620 C   0  0  1  0  0  3  0  0  0  0  0  0
  186.6020  177.2000  143.2330 C   0  0  0  0  0  0  0  0  0  0  0  0
  185.6590  177.9240  140.8500 S   0  0  0  0  0  0  0  0  0  0  0  0
  185.1850  177.5360  143.4970 C   0  0  0  0  0  2  0  0  0  0  0  0
  187.4100  176.9360  144.2130 N   0  0  0  0  0  0  0  0  0  0  0  0
  182.2970  177.5570  140.3180 O   0  0  0  0  0  0  0  0  0  0  0  0
  182.3000  178.4210  141.2370 C   0  0  0  0  0  0  0  0  0  0  0  0
  181.2210  179.3470  141.3590 N   0  0  0  0  0  2  0  0  0  0  0  0
  183.3840  178.4830  142.1640 N   0  0  0  0  0  2  0  0  0  0  0  0
  179.3810  180.7150  140.5210 C   0  0  0  0  0  1  0  0  0  0  0  0
  180.1400  179.4060  140.3840 C   0  0  2  0  0  3  0  0  0  0  0  0
  179.2070  178.2040  140.5150 C   0  0  0  0  0  2  0  0  0  0  0  0
  178.7550  177.9610  141.9180 C   0  0  0  0  0  0  0  0  0  0  0  0
  177.7470  178.5580  142.3690 O   0  0  0  0  0  0  0  0  0  0  0  0
  179.4580  177.0760  142.7220 O   0  0  0  0  0  1  0  0  0  0  0  0
  187.2760  175.8980  141.3800 O   0  0  0  0  0  0  0  0  0  0  0  0
  188.1570  176.0180  140.3000 C   0  0  0  0  0  2  0  0  0  0  0  0
  188.1660  173.5900  140.8290 C   0  0  0  0  0  1  0  0  0  0  0  0
  188.5810  174.6380  139.8010 C   0  0  1  0  0  3  0  0  0  0  0  0
  187.9510  174.3350  138.4380 C   0  0  1  0  0  3  0  0  0  0  0  0
  187.0940  175.5040  137.9770 C   0  0  0  0  0  1  0  0  0  0  0  0
  189.0330  174.0910  137.3880 C   0  0  0  0  0  2  0  0  0  0  0  0
  190.2640  173.4260  137.9980 C   0  0  0  0  0  2  0  0  0  0  0  0
  191.4680  174.7000  136.2410 C   0  0  0  0  0  2  0  0  0  0  0  0
  193.9490  175.6190  137.0840 O   0  0  0  0  0  0  0  0  0  0  0  0
  191.4940  174.0840  137.5670 N   0  0  0  0  0  0  0  0  0  0  0  0
  192.6750  174.2860  135.4170 C   0  0  0  0  0  2  0  0  0  0  0  0
  192.6540  174.1020  138.4290 C   0  0  0  0  0  0  0  0  0  0  0  0
  192.5390  173.7000  139.6230 O   0  0  0  0  0  0  0  0  0  0  0  0
  193.8480  175.2200  135.7270 C   0  0  2  0  0  3  0  0  0  0  0  0
  194.0220  174.4780  137.9000 C   0  0  2  0  0  3  0  0  0  0  0  0
  194.5360  175.6620  140.4750 O   0  0  0  0  0  1  0  0  0  0  0  0
  195.7100  173.4330  139.7770 O   0  0  0  0  0  0  0  0  0  0  0  0
  195.2470  174.7620  139.2270 P   0  0  1  0  0  0  0  0  0  0  0  0
  197.5110  175.4920  139.5380 O   0  0  0  0  0  1  0  0  0  0  0  0
  196.5840  175.5980  138.6090 O   0  0  0  0  0  0  0  0  0  0  0  0
  195.1810  174.8220  135.0670 C   0  0  1  0  0  3  0  0  0  0  0  0
  196.1520  175.7750  135.3610 O   0  0  0  0  0  1  0  0  0  0  0  0
  195.6860  173.4400  135.4740 C   0  0  0  0  0  2  0  0  0  0  0  0
  195.2730  172.4860  134.5440 O   0  0  0  0  0  1  0  0  0  0  0  0
  188.7580  176.6190  143.9930 N   0  0  0  0  0  2  0  0  0  0  0  0
  189.8030  177.2140  144.7200 N   0  0  0  0  0  2  0  0  0  0  0  0
  190.7920  176.5070  145.4800 C   0  0  0  0  0  0  0  0  0  0  0  0
  191.1850  176.9280  146.6790 C   0  0  0  0  0  2  0  0  0  0  0  0
  191.5600  175.4210  144.8020 C   0  0  0  0  0  2  0  0  0  0  0  0
  193.0430  175.4650  145.1540 C   0  0  1  0  0  3  0  0  0  0  0  0
  193.1860  172.8110  144.6860 C   0  0  0  0  0  2  0  0  0  0  0  0
  193.6170  173.8770  145.8160 S   0  0  0  0  0  0  0  0  0  0  0  0
  193.4930  171.4250  144.8580 N   0  0  0  0  0  2  0  0  0  0  0  0
  194.8090  171.2010  144.2670 C   0  0  2  0  0  3  0  0  0  0  0  0
  194.9580  172.0700  143.0370 C   0  0  0  0  0  1  0  0  0  0  0  0
  195.0840  169.7350  143.8850 C   0  0  2  0  0  3  0  0  0  0  0  0
  196.1500  168.8400  145.0960 S   0  0  0  0  0  0  0  0  0  0  0  0
  196.4570  169.5400  143.4190 C   0  0  0  0  0  2  0  0  0  0  0  0
  193.8780  175.9340  143.9600 C   0  0  0  0  0  2  0  0  0  0  0  0
  195.2910  176.3850  144.3320 C   0  0  0  0  0  2  0  0  0  0  0  0
  196.2440  175.6160  143.6560 O   0  0  0  0  0  0  0  0  0  0  0  0
  196.8530  174.9350  144.6050 O   0  0  0  0  0  1  0  0  0  0  0  0
  1 17  1  6  0  0  0
  1  3  1  0  0  0  0
  2 10  1  1  0  0  0
  2  5  1  0  0  0  0
  3  5  1  0  0  0  0
  3  6  2  0  0  0  0
  4  1  1  0  0  0  0
  4  2  1  0  0  0  0
  7  8  2  0  0  0  0
  8  9  1  0  0  0  0
  8 10  1  0  0  0  0
 12 13  1  0  0  0  0
 12 11  1  1  0  0  0
 12  9  1  0  0  0  0
 13 14  1  0  0  0  0
 14 15  2  0  0  0  0
 14 16  1  0  0  0  0
 18 17  1  0  0  0  0
 20 18  1  0  0  0  0
 20 19  1  1  0  0  0
 21 22  1  6  0  0  0
 21 20  1  0  0  0  0
 23 24  1  0  0  0  0
 23 21  1  0  0  0  0
 25 27  1  0  0  0  0
 26 32  1  0  0  0  0
 27 24  1  0  0  0  0
 27 29  1  0  0  0  0
 28 31  1  0  0  0  0
 28 25  1  0  0  0  0
 29 30  2  0  0  0  0
 31 38  1  1  0  0  0
 31 26  1  0  0  0  0
 32 29  1  0  0  0  0
 32 35  1  1  0  0  0
 35 34  2  1  0  0  0
 35 33  1  0  0  0  0
 37 35  1  0  0  0  0
 37 36  1  0  0  0  0
 38 39  1  1  0  0  0
 38 40  1  0  0  0  0
 41 40  1  0  0  0  0
 42  6  1  0  0  0  0
 42 43  1  0  0  0  0
 43 44  1  0  0  0  0
 44 45  2  0  0  0  0
 46 47  1  0  0  0  0
 46 44  1  0  0  0  0
 47 56  1  6  0  0  0
 47 49  1  0  0  0  0
 48 50  1  0  0  0  0
 48 49  1  0  0  0  0
 51 52  1  6  0  0  0
 51 50  1  0  0  0  0
 53 51  1  1  0  0  0
 53 54  1  0  0  0  0
 55 53  1  0  0  0  0
 55 54  1  0  0  0  0
 56 57  1  0  0  0  0
 58 57  1  0  0  0  0
 58 59  1  0  0  0  0
M  END
>  <MODEL>
8

>  <REMARK>
 VINA RESULT:      -3.6      2.885      6.394
  Name = 
  27 active torsions:
  status: ('A' for Active; 'I' for Inactive)
    1  A    between atoms: C_1  and  C_3
    2  A    between atoms: C_1  and  C_49
    3  A    between atoms: C_4  and  C_10
    4  A    between atoms: C_4  and  C_55
    5  A    between atoms: C_5  and  O_32
    6  A    between atoms: N_8  and  N_22
    7  A    between atoms: N_8  and  N_36
    8  A    between atoms: C_11  and  C_14
    9  A    between atoms: C_11  and  O_21
   10  A    between atoms: C_13  and  N_50
   11  A    between atoms: C_14  and  C_26
   12  A    between atoms: C_15  and  N_38
   13  A    between atoms: C_16  and  N_22
   14  A    between atoms: C_16  and  C_37
   15  A    between atoms: C_19  and  C_43
   16  A    between atoms: C_19  and  C_53
   17  A    between atoms: C_23  and  C_28
   18  A    between atoms: C_23  and  C_43
   19  A    between atoms: C_26  and  S_29
   20  A    between atoms: C_26  and  C_37
   21  A    between atoms: C_28  and  O_32
   22  A    between atoms: C_31  and  C_33
   23  A    between atoms: C_33  and  N_38
   24  A    between atoms: N_40  and  C_53
   25  A    between atoms: N_42  and  C_49
   26  A    between atoms: C_57  and  P_58
   27  A    between atoms: P_58  and  O_59
                            x       y       z     vdW  Elec       q    Type
                         _______ _______ _______ _____ _____    ______ ____

>  <TORSDO>
F 27

$$$$
=
 OpenBabel11042415433D

 59 61  0  0  1  0  0  0  0  0999 V2000
  186.9730  176.9480  141.4540 C   0  0  2  0  0  3  0  0  0  0  0  0
  184.4540  177.5610  141.7230 C   0  0  1  0  0  3  0  0  0  0  0  0
  186.5140  177.0660  142.8680 C   0  0  0  0  0  0  0  0  0  0  0  0
  185.7120  177.7620  140.4260 S   0  0  0  0  0  0  0  0  0  0  0  0
  185.1380  177.5730  143.0740 C   0  0  0  0  0  2  0  0  0  0  0  0
  187.2650  176.7670  143.8830 N   0  0  0  0  0  0  0  0  0  0  0  0
  181.8690  177.3760  140.5390 O   0  0  0  0  0  0  0  0  0  0  0  0
  182.1890  178.4710  141.0760 C   0  0  0  0  0  0  0  0  0  0  0  0
  181.2570  179.5510  141.1200 N   0  0  0  0  0  2  0  0  0  0  0  0
  183.4870  178.6440  141.6440 N   0  0  0  0  0  2  0  0  0  0  0  0
  179.6930  180.7490  139.6790 C   0  0  0  0  0  1  0  0  0  0  0  0
  179.9580  179.4760  140.4660 C   0  0  2  0  0  3  0  0  0  0  0  0
  178.8430  179.2010  141.4730 C   0  0  0  0  0  2  0  0  0  0  0  0
  178.5740  177.7450  141.6690 C   0  0  0  0  0  0  0  0  0  0  0  0
  178.6810  176.9470  140.7060 O   0  0  0  0  0  0  0  0  0  0  0  0
  178.2000  177.2790  142.9220 O   0  0  0  0  0  1  0  0  0  0  0  0
  187.0760  175.5980  141.1040 O   0  0  0  0  0  0  0  0  0  0  0  0
  188.4470  175.3240  141.0890 C   0  0  0  0  0  2  0  0  0  0  0  0
  187.8390  172.9480  141.4850 C   0  0  0  0  0  1  0  0  0  0  0  0
  188.6990  173.8850  140.6430 C   0  0  1  0  0  3  0  0  0  0  0  0
  188.3860  173.7130  139.1540 C   0  0  1  0  0  3  0  0  0  0  0  0
  187.8120  175.0000  138.5800 C   0  0  0  0  0  1  0  0  0  0  0  0
  189.6510  173.3630  138.3750 C   0  0  0  0  0  2  0  0  0  0  0  0
  190.2690  172.0570  138.8690 C   0  0  0  0  0  2  0  0  0  0  0  0
  192.2560  172.8600  140.1210 C   0  0  0  0  0  2  0  0  0  0  0  0
  194.6470  171.9140  139.0690 O   0  0  0  0  0  0  0  0  0  0  0  0
  191.7230  172.1540  138.9560 N   0  0  0  0  0  0  0  0  0  0  0  0
  193.2890  173.8960  139.7110 C   0  0  0  0  0  2  0  0  0  0  0  0
  192.5570  171.5750  137.9270 C   0  0  0  0  0  0  0  0  0  0  0  0
  192.0260  170.8360  137.0490 O   0  0  0  0  0  0  0  0  0  0  0  0
  194.6630  173.2290  139.6010 C   0  0  2  0  0  3  0  0  0  0  0  0
  194.0240  171.9300  137.8100 C   0  0  2  0  0  3  0  0  0  0  0  0
  196.4380  170.4280  137.3480 O   0  0  0  0  0  1  0  0  0  0  0  0
  194.1400  169.5640  136.4500 O   0  0  0  0  0  0  0  0  0  0  0  0
  194.9370  170.8290  136.6720 P   0  0  1  0  0  0  0  0  0  0  0  0
  195.9980  170.8230  134.5200 O   0  0  0  0  0  1  0  0  0  0  0  0
  195.1690  171.6020  135.1820 O   0  0  0  0  0  0  0  0  0  0  0  0
  195.7790  174.1370  139.0520 C   0  0  1  0  0  3  0  0  0  0  0  0
  195.2360  175.0590  138.1610 O   0  0  0  0  0  1  0  0  0  0  0  0
  196.5630  174.8770  140.1330 C   0  0  0  0  0  2  0  0  0  0  0  0
  197.9280  174.8330  139.8480 O   0  0  0  0  0  1  0  0  0  0  0  0
  188.5720  176.2890  143.7180 N   0  0  0  0  0  2  0  0  0  0  0  0
  189.6070  176.5940  144.6170 N   0  0  0  0  0  2  0  0  0  0  0  0
  190.0150  175.7750  145.7210 C   0  0  0  0  0  0  0  0  0  0  0  0
  189.3360  175.7520  146.8640 C   0  0  0  0  0  2  0  0  0  0  0  0
  191.3600  175.1280  145.6610 C   0  0  0  0  0  2  0  0  0  0  0  0
  192.0280  175.3240  144.3060 C   0  0  1  0  0  3  0  0  0  0  0  0
  194.3850  174.8990  145.5530 C   0  0  0  0  0  2  0  0  0  0  0  0
  193.7340  175.9160  144.4840 S   0  0  0  0  0  0  0  0  0  0  0  0
  195.7530  175.0470  145.9380 N   0  0  0  0  0  2  0  0  0  0  0  0
  196.4750  173.8930  145.4130 C   0  0  2  0  0  3  0  0  0  0  0  0
  197.1360  174.2710  144.1050 C   0  0  0  0  0  1  0  0  0  0  0  0
  195.5950  172.6490  145.1910 C   0  0  2  0  0  3  0  0  0  0  0  0
  196.3720  171.0790  145.7690 S   0  0  0  0  0  0  0  0  0  0  0  0
  196.0980  171.8120  144.1010 C   0  0  0  0  0  2  0  0  0  0  0  0
  191.9410  174.0510  143.4600 C   0  0  0  0  0  2  0  0  0  0  0  0
  191.3420  172.8550  144.2020 C   0  0  0  0  0  2  0  0  0  0  0  0
  192.3420  171.9340  144.5320 O   0  0  0  0  0  0  0  0  0  0  0  0
  192.2940  171.0360  143.5690 O   0  0  0  0  0  1  0  0  0  0  0  0
  1 17  1  6  0  0  0
  1  3  1  0  0  0  0
  2 10  1  1  0  0  0
  2  5  1  0  0  0  0
  3  5  1  0  0  0  0
  3  6  2  0  0  0  0
  4  1  1  0  0  0  0
  4  2  1  0  0  0  0
  7  8  2  0  0  0  0
  8  9  1  0  0  0  0
  8 10  1  0  0  0  0
 12 11  1  1  0  0  0
 12  9  1  0  0  0  0
 12 13  1  0  0  0  0
 13 14  1  0  0  0  0
 14 16  1  0  0  0  0
 15 14  2  0  0  0  0
 18 17  1  0  0  0  0
 20 18  1  0  0  0  0
 20 19  1  1  0  0  0
 21 22  1  6  0  0  0
 21 20  1  0  0  0  0
 23 24  1  0  0  0  0
 23 21  1  0  0  0  0
 24 27  1  0  0  0  0
 26 31  1  0  0  0  0
 27 25  1  0  0  0  0
 28 25  1  0  0  0  0
 29 27  1  0  0  0  0
 30 29  2  0  0  0  0
 31 38  1  6  0  0  0
 31 28  1  0  0  0  0
 32 35  1  6  0  0  0
 32 29  1  0  0  0  0
 32 26  1  0  0  0  0
 35 34  2  6  0  0  0
 35 33  1  0  0  0  0
 36 37  1  0  0  0  0
 37 35  1  0  0  0  0
 38 39  1  6  0  0  0
 38 40  1  0  0  0  0
 41 40  1  0  0  0  0
 42  6  1  0  0  0  0
 42 43  1  0  0  0  0
 43 44  1  0  0  0  0
 44 45  2  0  0  0  0
 46 44  1  0  0  0  0
 47 56  1  1  0  0  0
 47 49  1  0  0  0  0
 47 46  1  0  0  0  0
 48 50  1  0  0  0  0
 49 48  1  0  0  0  0
 51 52  1  6  0  0  0
 51 50  1  0  0  0  0
 53 51  1  1  0  0  0
 53 54  1  0  0  0  0
 55 53  1  0  0  0  0
 55 54  1  0  0  0  0
 56 57  1  0  0  0  0
 57 58  1  0  0  0  0
 59 58  1  0  0  0  0
M  END
>  <MODEL>
9

>  <REMARK>
 VINA RESULT:      -3.5      3.214      6.157
  Name = 
  27 active torsions:
  status: ('A' for Active; 'I' for Inactive)
    1  A    between atoms: C_1  and  C_3
    2  A    between atoms: C_1  and  C_49
    3  A    between atoms: C_4  and  C_10
    4  A    between atoms: C_4  and  C_55
    5  A    between atoms: C_5  and  O_32
    6  A    between atoms: N_8  and  N_22
    7  A    between atoms: N_8  and  N_36
    8  A    between atoms: C_11  and  C_14
    9  A    between atoms: C_11  and  O_21
   10  A    between atoms: C_13  and  N_50
   11  A    between atoms: C_14  and  C_26
   12  A    between atoms: C_15  and  N_38
   13  A    between atoms: C_16  and  N_22
   14  A    between atoms: C_16  and  C_37
   15  A    between atoms: C_19  and  C_43
   16  A    between atoms: C_19  and  C_53
   17  A    between atoms: C_23  and  C_28
   18  A    between atoms: C_23  and  C_43
   19  A    between atoms: C_26  and  S_29
   20  A    between atoms: C_26  and  C_37
   21  A    between atoms: C_28  and  O_32
   22  A    between atoms: C_31  and  C_33
   23  A    between atoms: C_33  and  N_38
   24  A    between atoms: N_40  and  C_53
   25  A    between atoms: N_42  and  C_49
   26  A    between atoms: C_57  and  P_58
   27  A    between atoms: P_58  and  O_59
                            x       y       z     vdW  Elec       q    Type
                         _______ _______ _______ _____ _____    ______ ____

>  <TORSDO>
F 27

$$$$
