=
 OpenBabel11042418023D

 35 39  0  0  1  0  0  0  0  0999 V2000
  191.1350  174.8980  144.3500 N   0  0  0  0  0  0  0  0  0  0  0  0
  189.9540  175.1630  143.7200 C   0  0  0  0  0  0  0  0  0  0  0  0
  189.6290  177.0330  145.2200 C   0  0  0  0  0  3  0  0  0  0  0  0
  187.9390  176.5510  143.4920 C   0  0  0  0  0  0  0  0  0  0  0  0
  187.5650  175.7650  142.3940 C   0  0  0  0  0  3  0  0  0  0  0  0
  190.8370  176.7300  145.8460 C   0  0  0  0  0  3  0  0  0  0  0  0
  188.3500  174.6970  141.9680 C   0  0  0  0  0  3  0  0  0  0  0  0
  189.5440  174.3780  142.6220 C   0  0  0  0  0  0  0  0  0  0  0  0
  189.1560  176.2530  144.1560 C   0  0  0  0  0  0  0  0  0  0  0  0
  191.5800  175.6360  145.4030 C   0  0  0  0  0  0  0  0  0  0  0  0
  192.6790  169.9630  140.7830 N   0  0  0  0  0  1  0  0  0  0  0  0
  190.1740  171.9260  142.7190 C   0  0  0  0  0  0  0  0  0  0  0  0
  189.2040  171.6810  143.7330 N   0  0  0  0  0  1  0  0  0  0  0  0
  191.2810  173.3920  141.1330 C   0  0  0  0  0  3  0  0  0  0  0  0
  190.9530  170.8590  142.2580 C   0  0  0  0  0  3  0  0  0  0  0  0
  192.0550  172.3210  140.6810 C   0  0  0  0  0  3  0  0  0  0  0  0
  190.3320  173.2110  142.1520 C   0  0  0  0  0  0  0  0  0  0  0  0
  191.8920  171.0540  141.2450 C   0  0  0  0  0  0  0  0  0  0  0  0
  185.7020  179.6260  143.3480 C   0  0  0  0  0  3  0  0  0  0  0  0
  187.0330  177.6620  143.8950 C   0  0  0  0  0  0  0  0  0  0  0  0
  185.3760  179.7890  144.6950 C   0  0  0  0  0  3  0  0  0  0  0  0
  186.7070  177.8450  145.2490 C   0  0  0  0  0  3  0  0  0  0  0  0
  186.5290  178.5720  142.9510 C   0  0  0  0  0  3  0  0  0  0  0  0
  185.8820  178.9000  145.6530 C   0  0  0  0  0  0  0  0  0  0  0  0
  184.3550  178.3820  147.3950 O   0  0  0  0  0  1  0  0  0  0  0  0
  185.5440  179.0500  147.1010 C   0  0  1  0  0  3  0  0  0  0  0  0
  186.6640  178.5160  147.9730 C   0  0  0  0  0  1  0  0  0  0  0  0
  193.5570  176.5830  146.5630 C   0  0  0  0  0  2  0  0  0  0  0  0
  192.8980  175.3200  146.0380 C   0  0  2  0  0  3  0  0  0  0  0  0
  194.0180  175.9840  145.2540 C   0  0  2  0  0  3  0  0  0  0  0  0
  195.2490  175.2460  145.4700 N   0  0  0  0  0  2  0  0  0  0  0  0
  195.9670  175.2910  144.2660 N   0  0  0  0  0  0  0  0  0  0  0  0
  197.2000  174.7980  144.5300 O   0  0  0  0  0  1  0  0  0  0  0  0
  196.8670  176.5970  142.7740 C   0  0  0  0  0  1  0  0  0  0  0  0
  196.1280  176.6000  143.9570 O   0  0  0  0  0  0  0  0  0  0  0  0
  1 10  1  0  0  0  0
  2  9  1  0  0  0  0
  2  1  2  0  0  0  0
  3  6  1  0  0  0  0
  4 20  1  0  0  0  0
  4  9  1  0  0  0  0
  5  4  2  0  0  0  0
  7  5  1  0  0  0  0
  7  8  2  0  0  0  0
  8  2  1  0  0  0  0
  9  3  2  0  0  0  0
 10  6  2  0  0  0  0
 11 18  1  0  0  0  0
 12 13  1  0  0  0  0
 14 17  1  0  0  0  0
 15 12  1  0  0  0  0
 16 14  2  0  0  0  0
 16 18  1  0  0  0  0
 17  8  1  0  0  0  0
 17 12  2  0  0  0  0
 18 15  2  0  0  0  0
 19 21  1  0  0  0  0
 20 22  2  0  0  0  0
 21 24  2  0  0  0  0
 22 24  1  0  0  0  0
 23 19  2  0  0  0  0
 23 20  1  0  0  0  0
 24 26  1  0  0  0  0
 26 25  1  0  0  0  0
 26 27  1  1  0  0  0
 29 10  1  6  0  0  0
 29 28  1  0  0  0  0
 30 31  1  1  0  0  0
 30 29  1  0  0  0  0
 30 28  1  0  0  0  0
 32 33  1  0  0  0  0
 32 31  1  0  0  0  0
 34 35  1  0  0  0  0
 35 32  1  0  0  0  0
M  END
>  <MODEL>
1

>  <REMARK>
 VINA RESULT:      -8.1      0.000      0.000
  Name = 
  7 active torsions:
  status: ('A' for Active; 'I' for Inactive)
    1  A    between atoms: C_8  and  C_33
    2  A    between atoms: C_10  and  C_11
    3  A    between atoms: C_13  and  C_32
    4  A    between atoms: N_22  and  O_28
    5  A    between atoms: N_22  and  N_34
    6  A    between atoms: C_23  and  C_31
    7  A    between atoms: C_27  and  N_34
                            x       y       z     vdW  Elec       q    Type
                         _______ _______ _______ _____ _____    ______ ____

>  <TORSDO>
F 7

$$$$
=
 OpenBabel11042418023D

 35 39  0  0  1  0  0  0  0  0999 V2000
  190.9260  174.1640  143.1020 N   0  0  0  0  0  0  0  0  0  0  0  0
  190.6540  175.4180  143.5650 C   0  0  0  0  0  0  0  0  0  0  0  0
  188.3490  175.1110  142.8970 C   0  0  0  0  0  3  0  0  0  0  0  0
  189.0360  177.2240  143.9630 C   0  0  0  0  0  0  0  0  0  0  0  0
  190.0610  177.9590  144.5740 C   0  0  0  0  0  3  0  0  0  0  0  0
  188.6630  173.8370  142.4280 C   0  0  0  0  0  3  0  0  0  0  0  0
  191.3530  177.4530  144.6730 C   0  0  0  0  0  3  0  0  0  0  0  0
  191.6700  176.1870  144.1700 C   0  0  0  0  0  0  0  0  0  0  0  0
  189.3340  175.9320  143.4630 C   0  0  0  0  0  0  0  0  0  0  0  0
  189.9770  173.3780  142.5250 C   0  0  0  0  0  0  0  0  0  0  0  0
  197.0970  174.4130  144.4770 N   0  0  0  0  0  1  0  0  0  0  0  0
  193.5440  175.0210  145.4140 C   0  0  0  0  0  0  0  0  0  0  0  0
  192.6790  174.7220  146.5050 N   0  0  0  0  0  1  0  0  0  0  0  0
  193.9550  175.9440  143.2080 C   0  0  0  0  0  3  0  0  0  0  0  0
  194.8760  174.5980  145.4720 C   0  0  0  0  0  3  0  0  0  0  0  0
  195.2830  175.5190  143.2750 C   0  0  0  0  0  3  0  0  0  0  0  0
  193.0690  175.7010  144.2690 C   0  0  0  0  0  0  0  0  0  0  0  0
  195.7440  174.8470  144.4090 C   0  0  0  0  0  0  0  0  0  0  0  0
  185.9000  178.8900  142.5940 C   0  0  0  0  0  3  0  0  0  0  0  0
  187.6860  177.8470  143.8800 C   0  0  0  0  0  0  0  0  0  0  0  0
  185.1600  179.0780  143.7630 C   0  0  0  0  0  3  0  0  0  0  0  0
  186.9360  178.0540  145.0490 C   0  0  0  0  0  3  0  0  0  0  0  0
  187.1560  178.2820  142.6540 C   0  0  0  0  0  3  0  0  0  0  0  0
  185.6790  178.6650  144.9980 C   0  0  0  0  0  0  0  0  0  0  0  0
  184.1520  177.7110  146.5450 O   0  0  0  0  0  1  0  0  0  0  0  0
  184.9040  178.8510  146.2620 C   0  0  1  0  0  3  0  0  0  0  0  0
  185.8330  179.1560  147.4220 C   0  0  0  0  0  1  0  0  0  0  0  0
  191.7880  171.9130  141.6740 C   0  0  0  0  0  2  0  0  0  0  0  0
  190.3230  171.9980  142.0620 C   0  0  2  0  0  3  0  0  0  0  0  0
  190.7320  172.0340  140.5990 C   0  0  2  0  0  3  0  0  0  0  0  0
  190.4950  170.7300  140.0080 N   0  0  0  0  0  2  0  0  0  0  0  0
  190.1120  170.9500  138.6770 N   0  0  0  0  0  0  0  0  0  0  0  0
  189.0650  171.8080  138.7120 O   0  0  0  0  0  1  0  0  0  0  0  0
  190.4790  168.8050  138.7570 C   0  0  0  0  0  1  0  0  0  0  0  0
  189.6360  169.7720  138.2080 O   0  0  0  0  0  0  0  0  0  0  0  0
  1  2  1  0  0  0  0
  2  8  1  0  0  0  0
  3  9  1  0  0  0  0
  4  5  2  0  0  0  0
  5  7  1  0  0  0  0
  6 10  1  0  0  0  0
  6  3  2  0  0  0  0
  8 17  1  0  0  0  0
  8  7  2  0  0  0  0
  9  2  2  0  0  0  0
  9  4  1  0  0  0  0
 10  1  2  0  0  0  0
 12 15  1  0  0  0  0
 12 13  1  0  0  0  0
 14 16  2  0  0  0  0
 14 17  1  0  0  0  0
 16 18  1  0  0  0  0
 17 12  2  0  0  0  0
 18 11  1  0  0  0  0
 18 15  2  0  0  0  0
 19 23  2  0  0  0  0
 19 21  1  0  0  0  0
 20  4  1  0  0  0  0
 20 22  2  0  0  0  0
 21 24  2  0  0  0  0
 23 20  1  0  0  0  0
 24 22  1  0  0  0  0
 24 26  1  0  0  0  0
 26 25  1  0  0  0  0
 26 27  1  1  0  0  0
 28 29  1  0  0  0  0
 29 10  1  1  0  0  0
 30 31  1  6  0  0  0
 30 28  1  0  0  0  0
 30 29  1  0  0  0  0
 32 33  1  0  0  0  0
 32 31  1  0  0  0  0
 35 32  1  0  0  0  0
 35 34  1  0  0  0  0
M  END
>  <MODEL>
2

>  <REMARK>
 VINA RESULT:      -8.0      2.938      5.354
  Name = 
  7 active torsions:
  status: ('A' for Active; 'I' for Inactive)
    1  A    between atoms: C_8  and  C_33
    2  A    between atoms: C_10  and  C_11
    3  A    between atoms: C_13  and  C_32
    4  A    between atoms: N_22  and  O_28
    5  A    between atoms: N_22  and  N_34
    6  A    between atoms: C_23  and  C_31
    7  A    between atoms: C_27  and  N_34
                            x       y       z     vdW  Elec       q    Type
                         _______ _______ _______ _____ _____    ______ ____

>  <TORSDO>
F 7

$$$$
=
 OpenBabel11042418023D

 35 39  0  0  1  0  0  0  0  0999 V2000
  190.9640  175.4630  142.3610 N   0  0  0  0  0  0  0  0  0  0  0  0
  189.6050  175.4500  142.4820 C   0  0  0  0  0  0  0  0  0  0  0  0
  189.7350  177.5850  143.6130 C   0  0  0  0  0  3  0  0  0  0  0  0
  187.5360  176.5380  143.2390 C   0  0  0  0  0  0  0  0  0  0  0  0
  186.8140  175.4780  142.6740 C   0  0  0  0  0  3  0  0  0  0  0  0
  191.1220  177.5610  143.4800 C   0  0  0  0  0  3  0  0  0  0  0  0
  187.4590  174.4220  142.0380 C   0  0  0  0  0  3  0  0  0  0  0  0
  188.8530  174.3880  141.9370 C   0  0  0  0  0  0  0  0  0  0  0  0
  188.9490  176.5300  143.1300 C   0  0  0  0  0  0  0  0  0  0  0  0
  191.7300  176.4710  142.8560 C   0  0  0  0  0  0  0  0  0  0  0  0
  191.3990  169.9920  139.3110 N   0  0  0  0  0  1  0  0  0  0  0  0
  189.8620  172.0650  141.9970 C   0  0  0  0  0  0  0  0  0  0  0  0
  189.5690  171.9360  143.3850 N   0  0  0  0  0  1  0  0  0  0  0  0
  189.7830  173.2890  139.9040 C   0  0  0  0  0  3  0  0  0  0  0  0
  190.4880  171.0010  141.3380 C   0  0  0  0  0  3  0  0  0  0  0  0
  190.4090  172.2230  139.2540 C   0  0  0  0  0  3  0  0  0  0  0  0
  189.5000  173.2260  141.2780 C   0  0  0  0  0  0  0  0  0  0  0  0
  190.7630  171.0790  139.9730 C   0  0  0  0  0  0  0  0  0  0  0  0
  185.5630  179.7340  143.8580 C   0  0  0  0  0  3  0  0  0  0  0  0
  186.7690  177.6190  143.9190 C   0  0  0  0  0  0  0  0  0  0  0  0
  185.3820  179.6770  145.2410 C   0  0  0  0  0  3  0  0  0  0  0  0
  186.5900  177.5810  145.3120 C   0  0  0  0  0  3  0  0  0  0  0  0
  186.2570  178.7130  143.2030 C   0  0  0  0  0  3  0  0  0  0  0  0
  185.8990  178.6010  145.9750 C   0  0  0  0  0  0  0  0  0  0  0  0
  186.0760  177.2510  147.9190 O   0  0  0  0  0  1  0  0  0  0  0  0
  185.7140  178.5160  147.4550 C   0  0  1  0  0  3  0  0  0  0  0  0
  186.5350  179.5780  148.1620 C   0  0  0  0  0  1  0  0  0  0  0  0
  193.6630  175.1210  142.0870 C   0  0  0  0  0  2  0  0  0  0  0  0
  193.2150  176.4490  142.6700 C   0  0  2  0  0  3  0  0  0  0  0  0
  193.8290  175.3870  143.5660 C   0  0  2  0  0  3  0  0  0  0  0  0
  195.2110  175.7390  143.8390 N   0  0  0  0  0  2  0  0  0  0  0  0
  195.3420  175.8190  145.2320 N   0  0  0  0  0  0  0  0  0  0  0  0
  194.4290  174.9670  145.7570 O   0  0  0  0  0  1  0  0  0  0  0  0
  194.1310  176.8840  146.6950 C   0  0  0  0  0  1  0  0  0  0  0  0
  194.9620  177.0680  145.5900 O   0  0  0  0  0  0  0  0  0  0  0  0
  1  2  2  0  0  0  0
  1 10  1  0  0  0  0
  2  9  1  0  0  0  0
  4 20  1  0  0  0  0
  5  4  2  0  0  0  0
  6  3  1  0  0  0  0
  7  5  1  0  0  0  0
  8  7  2  0  0  0  0
  8  2  1  0  0  0  0
  9  4  1  0  0  0  0
  9  3  2  0  0  0  0
 10  6  2  0  0  0  0
 11 18  1  0  0  0  0
 12 13  1  0  0  0  0
 14 17  1  0  0  0  0
 15 12  1  0  0  0  0
 16 14  2  0  0  0  0
 16 18  1  0  0  0  0
 17  8  1  0  0  0  0
 17 12  2  0  0  0  0
 18 15  2  0  0  0  0
 19 21  1  0  0  0  0
 20 22  2  0  0  0  0
 21 24  2  0  0  0  0
 22 24  1  0  0  0  0
 23 19  2  0  0  0  0
 23 20  1  0  0  0  0
 24 26  1  0  0  0  0
 26 25  1  0  0  0  0
 26 27  1  1  0  0  0
 28 29  1  0  0  0  0
 28 30  1  0  0  0  0
 29 10  1  1  0  0  0
 29 30  1  0  0  0  0
 30 31  1  6  0  0  0
 31 32  1  0  0  0  0
 32 35  1  0  0  0  0
 32 33  1  0  0  0  0
 35 34  1  0  0  0  0
M  END
>  <MODEL>
3

>  <REMARK>
 VINA RESULT:      -7.9      1.544      1.938
  Name = 
  7 active torsions:
  status: ('A' for Active; 'I' for Inactive)
    1  A    between atoms: C_8  and  C_33
    2  A    between atoms: C_10  and  C_11
    3  A    between atoms: C_13  and  C_32
    4  A    between atoms: N_22  and  O_28
    5  A    between atoms: N_22  and  N_34
    6  A    between atoms: C_23  and  C_31
    7  A    between atoms: C_27  and  N_34
                            x       y       z     vdW  Elec       q    Type
                         _______ _______ _______ _____ _____    ______ ____

>  <TORSDO>
F 7

$$$$
=
 OpenBabel11042418023D

 35 39  0  0  1  0  0  0  0  0999 V2000
  191.2250  174.0420  143.4370 N   0  0  0  0  0  0  0  0  0  0  0  0
  190.9570  175.3500  143.7130 C   0  0  0  0  0  0  0  0  0  0  0  0
  188.6420  174.9480  143.1380 C   0  0  0  0  0  3  0  0  0  0  0  0
  189.3410  177.1950  143.8680 C   0  0  0  0  0  0  0  0  0  0  0  0
  190.3730  178.0130  144.3460 C   0  0  0  0  0  3  0  0  0  0  0  0
  188.9520  173.6190  142.8560 C   0  0  0  0  0  3  0  0  0  0  0  0
  191.6690  177.5270  144.4970 C   0  0  0  0  0  3  0  0  0  0  0  0
  191.9810  176.2020  144.1810 C   0  0  0  0  0  0  0  0  0  0  0  0
  189.6340  175.8430  143.5590 C   0  0  0  0  0  0  0  0  0  0  0  0
  190.2690  173.1790  142.9980 C   0  0  0  0  0  0  0  0  0  0  0  0
  197.3420  174.3270  144.8410 N   0  0  0  0  0  1  0  0  0  0  0  0
  194.2850  175.7260  143.2400 C   0  0  0  0  0  0  0  0  0  0  0  0
  193.9010  176.2190  141.9600 N   0  0  0  0  0  1  0  0  0  0  0  0
  193.8210  175.2680  145.5770 C   0  0  0  0  0  3  0  0  0  0  0  0
  195.5910  175.2600  143.4200 C   0  0  0  0  0  3  0  0  0  0  0  0
  195.1260  174.8040  145.7470 C   0  0  0  0  0  3  0  0  0  0  0  0
  193.3820  175.7360  144.3280 C   0  0  0  0  0  0  0  0  0  0  0  0
  196.0120  174.7980  144.6670 C   0  0  0  0  0  0  0  0  0  0  0  0
  186.2120  178.7190  142.3270 C   0  0  0  0  0  3  0  0  0  0  0  0
  187.9880  177.7980  143.7160 C   0  0  0  0  0  0  0  0  0  0  0  0
  185.4550  178.9960  143.4670 C   0  0  0  0  0  3  0  0  0  0  0  0
  187.2200  178.0940  144.8550 C   0  0  0  0  0  3  0  0  0  0  0  0
  187.4720  178.1290  142.4520 C   0  0  0  0  0  3  0  0  0  0  0  0
  185.9590  178.6880  144.7370 C   0  0  0  0  0  0  0  0  0  0  0  0
  183.8150  178.6990  145.7550 O   0  0  0  0  0  1  0  0  0  0  0  0
  185.1660  178.9700  145.9720 C   0  0  1  0  0  3  0  0  0  0  0  0
  185.6760  178.1460  147.1390 C   0  0  0  0  0  1  0  0  0  0  0  0
  192.0890  171.5940  142.4270 C   0  0  0  0  0  2  0  0  0  0  0  0
  190.6110  171.7460  142.7380 C   0  0  2  0  0  3  0  0  0  0  0  0
  191.0800  171.5820  141.3020 C   0  0  2  0  0  3  0  0  0  0  0  0
  190.8460  170.2130  140.8810 N   0  0  0  0  0  2  0  0  0  0  0  0
  191.0480  170.1740  139.4940 N   0  0  0  0  0  0  0  0  0  0  0  0
  190.6760  171.3850  139.0140 O   0  0  0  0  0  1  0  0  0  0  0  0
  189.8040  169.7800  137.7500 C   0  0  0  0  0  1  0  0  0  0  0  0
  190.1690  169.2710  138.9970 O   0  0  0  0  0  0  0  0  0  0  0  0
  1  2  1  0  0  0  0
  2  8  1  0  0  0  0
  3  9  1  0  0  0  0
  4  5  2  0  0  0  0
  5  7  1  0  0  0  0
  6 10  1  0  0  0  0
  6  3  2  0  0  0  0
  8 17  1  0  0  0  0
  8  7  2  0  0  0  0
  9  2  2  0  0  0  0
  9  4  1  0  0  0  0
 10  1  2  0  0  0  0
 12 15  2  0  0  0  0
 12 17  1  0  0  0  0
 13 12  1  0  0  0  0
 14 16  1  0  0  0  0
 15 18  1  0  0  0  0
 17 14  2  0  0  0  0
 18 11  1  0  0  0  0
 18 16  2  0  0  0  0
 19 23  2  0  0  0  0
 19 21  1  0  0  0  0
 20  4  1  0  0  0  0
 20 22  2  0  0  0  0
 21 24  2  0  0  0  0
 23 20  1  0  0  0  0
 24 22  1  0  0  0  0
 24 26  1  0  0  0  0
 25 26  1  0  0  0  0
 26 27  1  1  0  0  0
 28 29  1  0  0  0  0
 29 10  1  6  0  0  0
 30 31  1  1  0  0  0
 30 28  1  0  0  0  0
 30 29  1  0  0  0  0
 32 31  1  0  0  0  0
 33 32  1  0  0  0  0
 34 35  1  0  0  0  0
 35 32  1  0  0  0  0
M  END
>  <MODEL>
4

>  <REMARK>
 VINA RESULT:      -7.9      2.813      5.361
  Name = 
  7 active torsions:
  status: ('A' for Active; 'I' for Inactive)
    1  A    between atoms: C_8  and  C_33
    2  A    between atoms: C_10  and  C_11
    3  A    between atoms: C_13  and  C_32
    4  A    between atoms: N_22  and  O_28
    5  A    between atoms: N_22  and  N_34
    6  A    between atoms: C_23  and  C_31
    7  A    between atoms: C_27  and  N_34
                            x       y       z     vdW  Elec       q    Type
                         _______ _______ _______ _____ _____    ______ ____

>  <TORSDO>
F 7

$$$$
=
 OpenBabel11042418023D

 35 39  0  0  1  0  0  0  0  0999 V2000
  191.5340  174.1870  142.8640 N   0  0  0  0  0  0  0  0  0  0  0  0
  191.1930  175.4240  143.3260 C   0  0  0  0  0  0  0  0  0  0  0  0
  188.9180  175.0090  142.6150 C   0  0  0  0  0  3  0  0  0  0  0  0
  189.4820  177.1480  143.7010 C   0  0  0  0  0  0  0  0  0  0  0  0
  190.4590  177.9290  144.3340 C   0  0  0  0  0  3  0  0  0  0  0  0
  189.3020  173.7540  142.1460 C   0  0  0  0  0  3  0  0  0  0  0  0
  191.7720  177.4850  144.4550 C   0  0  0  0  0  3  0  0  0  0  0  0
  192.1590  176.2390  143.9530 C   0  0  0  0  0  0  0  0  0  0  0  0
  189.8520  175.8740  143.2020 C   0  0  0  0  0  0  0  0  0  0  0  0
  190.6350  173.3590  142.2660 C   0  0  0  0  0  0  0  0  0  0  0  0
  197.6600  174.7300  144.3560 N   0  0  0  0  0  1  0  0  0  0  0  0
  194.0600  175.1390  145.2170 C   0  0  0  0  0  0  0  0  0  0  0  0
  193.1850  174.7720  146.2800 N   0  0  0  0  0  1  0  0  0  0  0  0
  194.4760  176.1320  143.0420 C   0  0  0  0  0  3  0  0  0  0  0  0
  195.4090  174.7820  145.2990 C   0  0  0  0  0  3  0  0  0  0  0  0
  195.8220  175.7730  143.1330 C   0  0  0  0  0  3  0  0  0  0  0  0
  193.5780  175.8210  144.0770 C   0  0  0  0  0  0  0  0  0  0  0  0
  196.2890  175.0980  144.2630 C   0  0  0  0  0  0  0  0  0  0  0  0
  186.3330  178.7660  142.3070 C   0  0  0  0  0  3  0  0  0  0  0  0
  188.1050  177.7050  143.5960 C   0  0  0  0  0  0  0  0  0  0  0  0
  185.5230  178.8090  143.4430 C   0  0  0  0  0  3  0  0  0  0  0  0
  187.2840  177.7650  144.7340 C   0  0  0  0  0  3  0  0  0  0  0  0
  187.6170  178.2220  142.3840 C   0  0  0  0  0  3  0  0  0  0  0  0
  185.9980  178.3120  144.6640 C   0  0  0  0  0  0  0  0  0  0  0  0
  183.8770  178.8320  145.5940 O   0  0  0  0  0  1  0  0  0  0  0  0
  185.1490  178.3420  145.8930 C   0  0  1  0  0  3  0  0  0  0  0  0
  185.0370  176.9580  146.5040 C   0  0  0  0  0  1  0  0  0  0  0  0
  190.1130  170.9350  142.3350 C   0  0  0  0  0  2  0  0  0  0  0  0
  191.0560  171.9990  141.8040 C   0  0  2  0  0  3  0  0  0  0  0  0
  191.4530  171.1500  143.0000 C   0  0  2  0  0  3  0  0  0  0  0  0
  192.3780  170.1190  142.5630 N   0  0  0  0  0  2  0  0  0  0  0  0
  193.3040  169.9390  143.6010 N   0  0  0  0  0  0  0  0  0  0  0  0
  192.7860  168.9950  144.4220 O   0  0  0  0  0  1  0  0  0  0  0  0
  194.3470  170.9140  145.2440 C   0  0  0  0  0  1  0  0  0  0  0  0
  193.3320  171.0960  144.3040 O   0  0  0  0  0  0  0  0  0  0  0  0
  1  2  1  0  0  0  0
  2  8  1  0  0  0  0
  3  9  1  0  0  0  0
  4  5  2  0  0  0  0
  5  7  1  0  0  0  0
  6 10  1  0  0  0  0
  6  3  2  0  0  0  0
  8 17  1  0  0  0  0
  8  7  2  0  0  0  0
  9  2  2  0  0  0  0
  9  4  1  0  0  0  0
 10  1  2  0  0  0  0
 12 15  1  0  0  0  0
 12 13  1  0  0  0  0
 14 16  2  0  0  0  0
 14 17  1  0  0  0  0
 16 18  1  0  0  0  0
 17 12  2  0  0  0  0
 18 11  1  0  0  0  0
 18 15  2  0  0  0  0
 19 23  2  0  0  0  0
 19 21  1  0  0  0  0
 20  4  1  0  0  0  0
 20 22  2  0  0  0  0
 21 24  2  0  0  0  0
 23 20  1  0  0  0  0
 24 22  1  0  0  0  0
 24 26  1  0  0  0  0
 25 26  1  0  0  0  0
 26 27  1  6  0  0  0
 28 30  1  0  0  0  0
 29 10  1  1  0  0  0
 29 28  1  0  0  0  0
 29 30  1  0  0  0  0
 30 31  1  6  0  0  0
 31 32  1  0  0  0  0
 32 35  1  0  0  0  0
 32 33  1  0  0  0  0
 35 34  1  0  0  0  0
M  END
>  <MODEL>
5

>  <REMARK>
 VINA RESULT:      -7.7      2.235      4.691
  Name = 
  7 active torsions:
  status: ('A' for Active; 'I' for Inactive)
    1  A    between atoms: C_8  and  C_33
    2  A    between atoms: C_10  and  C_11
    3  A    between atoms: C_13  and  C_32
    4  A    between atoms: N_22  and  O_28
    5  A    between atoms: N_22  and  N_34
    6  A    between atoms: C_23  and  C_31
    7  A    between atoms: C_27  and  N_34
                            x       y       z     vdW  Elec       q    Type
                         _______ _______ _______ _____ _____    ______ ____

>  <TORSDO>
F 7

$$$$
=
 OpenBabel11042418023D

 35 39  0  0  1  0  0  0  0  0999 V2000
  191.5200  174.5000  143.0310 N   0  0  0  0  0  0  0  0  0  0  0  0
  191.1930  175.3050  144.0810 C   0  0  0  0  0  0  0  0  0  0  0  0
  188.8770  175.1830  143.3890 C   0  0  0  0  0  3  0  0  0  0  0  0
  189.4820  176.4940  145.3870 C   0  0  0  0  0  0  0  0  0  0  0  0
  190.4900  176.8960  146.2740 C   0  0  0  0  0  3  0  0  0  0  0  0
  189.2480  174.3680  142.3220 C   0  0  0  0  0  3  0  0  0  0  0  0
  191.8180  176.5280  146.0740 C   0  0  0  0  0  3  0  0  0  0  0  0
  192.1880  175.7390  144.9820 C   0  0  0  0  0  0  0  0  0  0  0  0
  189.8370  175.6780  144.2830 C   0  0  0  0  0  0  0  0  0  0  0  0
  190.5940  174.0440  142.1450 C   0  0  0  0  0  0  0  0  0  0  0  0
  197.7350  174.5520  144.2610 N   0  0  0  0  0  1  0  0  0  0  0  0
  194.1540  174.1540  145.2000 C   0  0  0  0  0  0  0  0  0  0  0  0
  193.3210  173.1450  145.7640 N   0  0  0  0  0  1  0  0  0  0  0  0
  194.4790  176.3460  144.2120 C   0  0  0  0  0  3  0  0  0  0  0  0
  195.5140  173.8830  145.0190 C   0  0  0  0  0  3  0  0  0  0  0  0
  195.8350  176.0680  144.0360 C   0  0  0  0  0  3  0  0  0  0  0  0
  193.6200  175.3980  144.7920 C   0  0  0  0  0  0  0  0  0  0  0  0
  196.3530  174.8360  144.4410 C   0  0  0  0  0  0  0  0  0  0  0  0
  186.0330  176.8310  146.9580 C   0  0  0  0  0  3  0  0  0  0  0  0
  188.0910  176.9470  145.6610 C   0  0  0  0  0  0  0  0  0  0  0  0
  185.4420  177.7750  146.1160 C   0  0  0  0  0  3  0  0  0  0  0  0
  187.4800  177.8870  144.8150 C   0  0  0  0  0  3  0  0  0  0  0  0
  187.3470  176.4170  146.7290 C   0  0  0  0  0  3  0  0  0  0  0  0
  186.1630  178.3030  145.0370 C   0  0  0  0  0  0  0  0  0  0  0  0
  186.1910  179.3010  142.8830 O   0  0  0  0  0  1  0  0  0  0  0  0
  185.5540  179.3180  144.1240 C   0  0  1  0  0  3  0  0  0  0  0  0
  184.0700  179.0590  143.9450 C   0  0  0  0  0  1  0  0  0  0  0  0
  189.8560  172.2340  140.6190 C   0  0  0  0  0  2  0  0  0  0  0  0
  191.0040  173.1390  141.0260 C   0  0  2  0  0  3  0  0  0  0  0  0
  190.9630  171.6930  141.4940 C   0  0  2  0  0  3  0  0  0  0  0  0
  191.8760  170.9070  140.6840 N   0  0  0  0  0  2  0  0  0  0  0  0
  192.1110  169.7130  141.3800 N   0  0  0  0  0  0  0  0  0  0  0  0
  191.0260  168.9280  141.1800 O   0  0  0  0  0  1  0  0  0  0  0  0
  192.6700  168.9020  143.3220 C   0  0  0  0  0  1  0  0  0  0  0  0
  192.1290  170.0260  142.6970 O   0  0  0  0  0  0  0  0  0  0  0  0
  1  2  1  0  0  0  0
  2  9  2  0  0  0  0
  2  8  1  0  0  0  0
  3  9  1  0  0  0  0
  4 20  1  0  0  0  0
  4  5  2  0  0  0  0
  6  3  2  0  0  0  0
  7  5  1  0  0  0  0
  8  7  2  0  0  0  0
  9  4  1  0  0  0  0
 10  6  1  0  0  0  0
 10  1  2  0  0  0  0
 11 18  1  0  0  0  0
 12 13  1  0  0  0  0
 14 17  1  0  0  0  0
 15 12  1  0  0  0  0
 16 14  2  0  0  0  0
 16 18  1  0  0  0  0
 17  8  1  0  0  0  0
 17 12  2  0  0  0  0
 18 15  2  0  0  0  0
 20 23  2  0  0  0  0
 21 19  2  0  0  0  0
 22 24  2  0  0  0  0
 22 20  1  0  0  0  0
 23 19  1  0  0  0  0
 24 21  1  0  0  0  0
 25 26  1  0  0  0  0
 26 27  1  6  0  0  0
 26 24  1  0  0  0  0
 28 29  1  0  0  0  0
 28 30  1  0  0  0  0
 29 30  1  0  0  0  0
 29 10  1  1  0  0  0
 30 31  1  6  0  0  0
 31 32  1  0  0  0  0
 32 35  1  0  0  0  0
 33 32  1  0  0  0  0
 35 34  1  0  0  0  0
M  END
>  <MODEL>
6

>  <REMARK>
 VINA RESULT:      -7.6      2.593      5.312
  Name = 
  7 active torsions:
  status: ('A' for Active; 'I' for Inactive)
    1  A    between atoms: C_8  and  C_33
    2  A    between atoms: C_10  and  C_11
    3  A    between atoms: C_13  and  C_32
    4  A    between atoms: N_22  and  O_28
    5  A    between atoms: N_22  and  N_34
    6  A    between atoms: C_23  and  C_31
    7  A    between atoms: C_27  and  N_34
                            x       y       z     vdW  Elec       q    Type
                         _______ _______ _______ _____ _____    ______ ____

>  <TORSDO>
F 7

$$$$
=
 OpenBabel11042418023D

 35 39  0  0  1  0  0  0  0  0999 V2000
  191.1440  174.6900  143.3810 N   0  0  0  0  0  0  0  0  0  0  0  0
  190.7520  175.3200  144.5250 C   0  0  0  0  0  0  0  0  0  0  0  0
  188.5670  175.6480  143.5400 C   0  0  0  0  0  3  0  0  0  0  0  0
  189.0060  176.4630  145.8240 C   0  0  0  0  0  0  0  0  0  0  0  0
  189.9080  176.5490  146.8930 C   0  0  0  0  0  3  0  0  0  0  0  0
  189.0030  175.0060  142.3820 C   0  0  0  0  0  3  0  0  0  0  0  0
  191.2020  176.0480  146.7890 C   0  0  0  0  0  3  0  0  0  0  0  0
  191.6440  175.4360  145.6130 C   0  0  0  0  0  0  0  0  0  0  0  0
  189.4310  175.8290  144.6290 C   0  0  0  0  0  0  0  0  0  0  0  0
  190.3160  174.5410  142.3120 C   0  0  0  0  0  0  0  0  0  0  0  0
  196.9870  173.4260  145.2830 N   0  0  0  0  0  1  0  0  0  0  0  0
  194.1200  175.8020  145.2190 C   0  0  0  0  0  0  0  0  0  0  0  0
  193.9150  177.1970  145.0120 N   0  0  0  0  0  1  0  0  0  0  0  0
  193.3030  173.5830  145.7620 C   0  0  0  0  0  3  0  0  0  0  0  0
  195.4190  175.2920  145.1390 C   0  0  0  0  0  3  0  0  0  0  0  0
  194.6030  173.0810  145.6790 C   0  0  0  0  0  3  0  0  0  0  0  0
  193.0420  174.9440  145.5370 C   0  0  0  0  0  0  0  0  0  0  0  0
  195.6620  173.9360  145.3660 C   0  0  0  0  0  0  0  0  0  0  0  0
  185.5660  177.2260  147.2610 C   0  0  0  0  0  3  0  0  0  0  0  0
  187.6470  177.0420  146.0100 C   0  0  0  0  0  0  0  0  0  0  0  0
  185.0590  178.1020  146.3010 C   0  0  0  0  0  3  0  0  0  0  0  0
  187.1190  177.9150  145.0440 C   0  0  0  0  0  3  0  0  0  0  0  0
  186.8510  176.6960  147.1140 C   0  0  0  0  0  3  0  0  0  0  0  0
  185.8320  178.4470  145.1840 C   0  0  0  0  0  0  0  0  0  0  0  0
  186.1190  179.3470  143.0060 O   0  0  0  0  0  1  0  0  0  0  0  0
  185.3120  179.3860  144.1440 C   0  0  1  0  0  3  0  0  0  0  0  0
  183.8820  179.0410  143.7740 C   0  0  0  0  0  1  0  0  0  0  0  0
  189.6180  173.4610  140.1900 C   0  0  0  0  0  2  0  0  0  0  0  0
  190.7870  173.8150  141.0910 C   0  0  2  0  0  3  0  0  0  0  0  0
  190.2250  172.4030  141.0830 C   0  0  2  0  0  3  0  0  0  0  0  0
  191.0960  171.5510  140.2940 N   0  0  0  0  0  2  0  0  0  0  0  0
  190.8100  170.2280  140.6600 N   0  0  0  0  0  0  0  0  0  0  0  0
  190.7260  170.2100  142.0120 O   0  0  0  0  0  1  0  0  0  0  0  0
  192.0340  169.6630  138.9500 C   0  0  0  0  0  1  0  0  0  0  0  0
  191.8950  169.4880  140.3270 O   0  0  0  0  0  0  0  0  0  0  0  0
  1  2  1  0  0  0  0
  2  9  2  0  0  0  0
  2  8  1  0  0  0  0
  3  9  1  0  0  0  0
  4 20  1  0  0  0  0
  4  5  2  0  0  0  0
  6  3  2  0  0  0  0
  7  5  1  0  0  0  0
  8  7  2  0  0  0  0
  9  4  1  0  0  0  0
 10  6  1  0  0  0  0
 10  1  2  0  0  0  0
 11 18  1  0  0  0  0
 12 17  1  0  0  0  0
 13 12  1  0  0  0  0
 15 12  2  0  0  0  0
 15 18  1  0  0  0  0
 16 14  1  0  0  0  0
 17  8  1  0  0  0  0
 17 14  2  0  0  0  0
 18 16  2  0  0  0  0
 20 23  2  0  0  0  0
 21 19  2  0  0  0  0
 22 24  2  0  0  0  0
 22 20  1  0  0  0  0
 23 19  1  0  0  0  0
 24 21  1  0  0  0  0
 25 26  1  0  0  0  0
 26 27  1  6  0  0  0
 26 24  1  0  0  0  0
 28 30  1  0  0  0  0
 28 29  1  0  0  0  0
 29 10  1  1  0  0  0
 30 31  1  6  0  0  0
 30 29  1  0  0  0  0
 31 32  1  0  0  0  0
 32 33  1  0  0  0  0
 34 35  1  0  0  0  0
 35 32  1  0  0  0  0
M  END
>  <MODEL>
7

>  <REMARK>
 VINA RESULT:      -7.6      2.657      5.455
  Name = 
  7 active torsions:
  status: ('A' for Active; 'I' for Inactive)
    1  A    between atoms: C_8  and  C_33
    2  A    between atoms: C_10  and  C_11
    3  A    between atoms: C_13  and  C_32
    4  A    between atoms: N_22  and  O_28
    5  A    between atoms: N_22  and  N_34
    6  A    between atoms: C_23  and  C_31
    7  A    between atoms: C_27  and  N_34
                            x       y       z     vdW  Elec       q    Type
                         _______ _______ _______ _____ _____    ______ ____

>  <TORSDO>
F 7

$$$$
=
 OpenBabel11042418023D

 35 39  0  0  1  0  0  0  0  0999 V2000
  189.0910  174.9120  142.3140 N   0  0  0  0  0  0  0  0  0  0  0  0
  189.8390  175.6700  143.1650 C   0  0  0  0  0  0  0  0  0  0  0  0
  191.7180  174.2060  142.7390 C   0  0  0  0  0  3  0  0  0  0  0  0
  191.9890  176.1180  144.2700 C   0  0  0  0  0  0  0  0  0  0  0  0
  191.4130  177.2560  144.8500 C   0  0  0  0  0  3  0  0  0  0  0  0
  190.9220  173.4480  141.8820 C   0  0  0  0  0  3  0  0  0  0  0  0
  190.0840  177.5960  144.6110 C   0  0  0  0  0  3  0  0  0  0  0  0
  189.2820  176.8130  143.7760 C   0  0  0  0  0  0  0  0  0  0  0  0
  191.1950  175.3220  143.4070 C   0  0  0  0  0  0  0  0  0  0  0  0
  189.5880  173.8110  141.6890 C   0  0  0  0  0  0  0  0  0  0  0  0
  183.7960  178.2940  143.1310 N   0  0  0  0  0  1  0  0  0  0  0  0
  187.4390  177.9340  142.4460 C   0  0  0  0  0  0  0  0  0  0  0  0
  188.3550  178.2950  141.4160 N   0  0  0  0  0  1  0  0  0  0  0  0
  186.9120  176.8390  144.5460 C   0  0  0  0  0  3  0  0  0  0  0  0
  186.0940  178.2900  142.3070 C   0  0  0  0  0  3  0  0  0  0  0  0
  185.5710  177.2000  144.4000 C   0  0  0  0  0  3  0  0  0  0  0  0
  187.8620  177.1960  143.5750 C   0  0  0  0  0  0  0  0  0  0  0  0
  185.1620  177.9270  143.2800 C   0  0  0  0  0  0  0  0  0  0  0  0
  195.0970  174.8350  146.0510 C   0  0  0  0  0  3  0  0  0  0  0  0
  193.4100  175.8140  144.5940 C   0  0  0  0  0  0  0  0  0  0  0  0
  196.1070  175.3110  145.2130 C   0  0  0  0  0  3  0  0  0  0  0  0
  194.4360  176.2970  143.7660 C   0  0  0  0  0  3  0  0  0  0  0  0
  193.7580  175.0890  145.7460 C   0  0  0  0  0  3  0  0  0  0  0  0
  195.7800  176.0490  144.0670 C   0  0  0  0  0  0  0  0  0  0  0  0
  197.9410  175.7060  143.1480 O   0  0  0  0  0  1  0  0  0  0  0  0
  196.8420  176.5660  143.1520 C   0  0  1  0  0  3  0  0  0  0  0  0
  196.3060  176.7230  141.7410 C   0  0  0  0  0  1  0  0  0  0  0  0
  189.5810  172.1300  139.8650 C   0  0  0  0  0  2  0  0  0  0  0  0
  188.7310  173.0320  140.7420 C   0  0  2  0  0  3  0  0  0  0  0  0
  189.0500  173.4330  139.3110 C   0  0  2  0  0  3  0  0  0  0  0  0
  187.8950  173.1640  138.4750 N   0  0  0  0  0  2  0  0  0  0  0  0
  187.8770  174.1500  137.4780 N   0  0  0  0  0  0  0  0  0  0  0  0
  189.1660  174.3630  137.1200 O   0  0  0  0  0  1  0  0  0  0  0  0
  186.9030  176.0430  137.0200 C   0  0  0  0  0  1  0  0  0  0  0  0
  187.4410  175.2900  138.0640 O   0  0  0  0  0  0  0  0  0  0  0  0
  1  2  1  0  0  0  0
  2  9  2  0  0  0  0
  2  8  1  0  0  0  0
  3  9  1  0  0  0  0
  4 20  1  0  0  0  0
  4  5  2  0  0  0  0
  6  3  2  0  0  0  0
  7  5  1  0  0  0  0
  8  7  2  0  0  0  0
  9  4  1  0  0  0  0
 10  6  1  0  0  0  0
 10  1  2  0  0  0  0
 11 18  1  0  0  0  0
 12 17  1  0  0  0  0
 13 12  1  0  0  0  0
 15 12  2  0  0  0  0
 15 18  1  0  0  0  0
 16 14  1  0  0  0  0
 17  8  1  0  0  0  0
 17 14  2  0  0  0  0
 18 16  2  0  0  0  0
 20 23  2  0  0  0  0
 21 19  2  0  0  0  0
 22 24  2  0  0  0  0
 22 20  1  0  0  0  0
 23 19  1  0  0  0  0
 24 21  1  0  0  0  0
 25 26  1  0  0  0  0
 26 27  1  6  0  0  0
 26 24  1  0  0  0  0
 28 29  1  0  0  0  0
 29 10  1  1  0  0  0
 30 31  1  6  0  0  0
 30 28  1  0  0  0  0
 30 29  1  0  0  0  0
 32 35  1  0  0  0  0
 32 31  1  0  0  0  0
 33 32  1  0  0  0  0
 34 35  1  0  0  0  0
M  END
>  <MODEL>
8

>  <REMARK>
 VINA RESULT:      -7.5      3.686      8.512
  Name = 
  7 active torsions:
  status: ('A' for Active; 'I' for Inactive)
    1  A    between atoms: C_8  and  C_33
    2  A    between atoms: C_10  and  C_11
    3  A    between atoms: C_13  and  C_32
    4  A    between atoms: N_22  and  O_28
    5  A    between atoms: N_22  and  N_34
    6  A    between atoms: C_23  and  C_31
    7  A    between atoms: C_27  and  N_34
                            x       y       z     vdW  Elec       q    Type
                         _______ _______ _______ _____ _____    ______ ____

>  <TORSDO>
F 7

$$$$
=
 OpenBabel11042418023D

 35 39  0  0  1  0  0  0  0  0999 V2000
  191.3710  174.1740  142.9070 N   0  0  0  0  0  0  0  0  0  0  0  0
  191.1170  175.1390  143.8360 C   0  0  0  0  0  0  0  0  0  0  0  0
  188.7510  174.8260  143.4430 C   0  0  0  0  0  3  0  0  0  0  0  0
  189.4980  176.4830  145.1070 C   0  0  0  0  0  0  0  0  0  0  0  0
  190.5730  177.0640  145.7930 C   0  0  0  0  0  3  0  0  0  0  0  0
  189.0460  173.8500  142.4930 C   0  0  0  0  0  3  0  0  0  0  0  0
  191.8890  176.7090  145.5090 C   0  0  0  0  0  3  0  0  0  0  0  0
  192.1800  175.7540  144.5310 C   0  0  0  0  0  0  0  0  0  0  0  0
  189.7740  175.4990  144.1240 C   0  0  0  0  0  0  0  0  0  0  0  0
  190.3800  173.5430  142.2220 C   0  0  0  0  0  0  0  0  0  0  0  0
  197.6690  174.6320  143.3870 N   0  0  0  0  0  1  0  0  0  0  0  0
  194.2620  174.3480  144.8640 C   0  0  0  0  0  0  0  0  0  0  0  0
  193.5760  173.4820  145.7630 N   0  0  0  0  0  1  0  0  0  0  0  0
  194.3140  176.2340  143.3380 C   0  0  0  0  0  3  0  0  0  0  0  0
  195.6060  174.0920  144.5740 C   0  0  0  0  0  3  0  0  0  0  0  0
  195.6560  175.9720  143.0560 C   0  0  0  0  0  3  0  0  0  0  0  0
  193.5990  175.4300  144.2400 C   0  0  0  0  0  0  0  0  0  0  0  0
  196.3030  174.9010  143.6750 C   0  0  0  0  0  0  0  0  0  0  0  0
  186.1460  176.8270  146.8750 C   0  0  0  0  0  3  0  0  0  0  0  0
  188.1230  176.9330  145.4570 C   0  0  0  0  0  0  0  0  0  0  0  0
  185.5010  177.7550  146.0560 C   0  0  0  0  0  3  0  0  0  0  0  0
  187.4570  177.8580  144.6350 C   0  0  0  0  0  3  0  0  0  0  0  0
  187.4470  176.4150  146.5740 C   0  0  0  0  0  3  0  0  0  0  0  0
  186.1540  178.2710  144.9280 C   0  0  0  0  0  0  0  0  0  0  0  0
  186.0080  179.1970  142.7470 O   0  0  0  0  0  1  0  0  0  0  0  0
  185.4860  179.2700  144.0390 C   0  0  1  0  0  3  0  0  0  0  0  0
  183.9870  179.0400  144.0030 C   0  0  0  0  0  1  0  0  0  0  0  0
  192.0760  172.7170  140.6120 C   0  0  0  0  0  2  0  0  0  0  0  0
  190.7140  172.4690  141.2340 C   0  0  2  0  0  3  0  0  0  0  0  0
  190.8240  173.0690  139.8420 C   0  0  2  0  0  3  0  0  0  0  0  0
  190.5570  172.0340  138.8580 N   0  0  0  0  0  2  0  0  0  0  0  0
  190.2290  172.6870  137.6620 N   0  0  0  0  0  0  0  0  0  0  0  0
  191.3950  173.1180  137.1230 O   0  0  0  0  0  1  0  0  0  0  0  0
  188.9410  174.2210  136.8070 C   0  0  0  0  0  1  0  0  0  0  0  0
  189.5230  173.7920  138.0000 O   0  0  0  0  0  0  0  0  0  0  0  0
  1  2  1  0  0  0  0
  2  9  2  0  0  0  0
  2  8  1  0  0  0  0
  3  9  1  0  0  0  0
  4 20  1  0  0  0  0
  4  5  2  0  0  0  0
  6  3  2  0  0  0  0
  7  5  1  0  0  0  0
  8  7  2  0  0  0  0
  9  4  1  0  0  0  0
 10  6  1  0  0  0  0
 10  1  2  0  0  0  0
 11 18  1  0  0  0  0
 12 13  1  0  0  0  0
 14 17  1  0  0  0  0
 15 12  1  0  0  0  0
 16 14  2  0  0  0  0
 16 18  1  0  0  0  0
 17  8  1  0  0  0  0
 17 12  2  0  0  0  0
 18 15  2  0  0  0  0
 20 23  2  0  0  0  0
 21 19  2  0  0  0  0
 22 24  2  0  0  0  0
 22 20  1  0  0  0  0
 23 19  1  0  0  0  0
 24 21  1  0  0  0  0
 25 26  1  0  0  0  0
 26 27  1  6  0  0  0
 26 24  1  0  0  0  0
 28 29  1  0  0  0  0
 29 10  1  1  0  0  0
 30 31  1  6  0  0  0
 30 28  1  0  0  0  0
 30 29  1  0  0  0  0
 32 35  1  0  0  0  0
 32 31  1  0  0  0  0
 33 32  1  0  0  0  0
 34 35  1  0  0  0  0
M  END
>  <MODEL>
9

>  <REMARK>
 VINA RESULT:      -7.5      2.998      5.522
  Name = 
  7 active torsions:
  status: ('A' for Active; 'I' for Inactive)
    1  A    between atoms: C_8  and  C_33
    2  A    between atoms: C_10  and  C_11
    3  A    between atoms: C_13  and  C_32
    4  A    between atoms: N_22  and  O_28
    5  A    between atoms: N_22  and  N_34
    6  A    between atoms: C_23  and  C_31
    7  A    between atoms: C_27  and  N_34
                            x       y       z     vdW  Elec       q    Type
                         _______ _______ _______ _____ _____    ______ ____

>  <TORSDO>
F 7

$$$$
