=
 OpenBabel11042416263D

 38 39  0  0  1  0  0  0  0  0999 V2000
  189.1080  174.1520  146.9940 O   0  0  0  0  0  0  0  0  0  0  0  0
  188.5030  176.2900  145.7490 C   0  0  0  0  0  0  0  0  0  0  0  0
  188.8140  175.1910  146.3900 C   0  0  0  0  0  0  0  0  0  0  0  0
  186.8720  177.8660  147.5780 C   0  0  0  0  0  1  0  0  0  0  0  0
  186.2750  177.3850  146.2620 C   0  0  2  0  0  0  0  0  0  0  0  0
  186.8160  178.0800  145.0130 C   0  0  1  0  0  3  0  0  0  0  0  0
  184.9160  177.0620  146.2620 O   0  0  0  0  0  1  0  0  0  0  0  0
  187.1010  176.5880  145.2630 C   0  0  1  0  0  3  0  0  0  0  0  0
  185.7510  178.2660  143.9190 C   0  0  1  0  0  3  0  0  0  0  0  0
  185.4200  180.6050  144.1790 O   0  0  0  0  0  0  0  0  0  0  0  0
  184.9350  179.4860  144.2480 C   0  0  0  0  0  3  0  0  0  0  0  0
  186.3380  178.3500  142.4800 C   0  0  1  0  0  3  0  0  0  0  0  0
  187.5330  176.2560  141.6830 C   0  0  0  0  0  1  0  0  0  0  0  0
  187.6870  177.6280  142.3080 C   0  0  1  0  0  3  0  0  0  0  0  0
  188.6130  178.4010  141.6060 O   0  0  0  0  0  1  0  0  0  0  0  0
  185.3250  177.8430  141.4230 C   0  0  2  0  0  3  0  0  0  0  0  0
  185.5920  178.3510  140.1470 O   0  0  0  0  0  1  0  0  0  0  0  0
  183.8810  178.1670  141.7990 C   0  0  0  0  0  2  0  0  0  0  0  0
  182.9580  178.1230  140.5900 C   0  0  0  0  0  2  0  0  0  0  0  0
  181.5710  178.4680  141.0020 C   0  0  0  0  0  0  0  0  0  0  0  0
  180.6060  178.2130  140.2360 O   0  0  0  0  0  0  0  0  0  0  0  0
  181.3310  179.0540  142.2750 N   0  0  0  0  0  1  0  0  0  0  0  0
  189.5600  177.3270  145.5570 C   0  0  0  0  0  2  0  0  0  0  0  0
  190.8890  176.0720  143.1340 C   0  0  0  0  0  1  0  0  0  0  0  0
  194.1590  176.6310  146.6060 C   0  0  0  0  0  1  0  0  0  0  0  0
  191.4800  176.1190  144.5030 C   0  0  0  0  0  0  0  0  0  0  0  0
  190.9200  176.6960  145.5500 C   0  0  0  0  0  0  0  0  0  0  0  0
  191.7260  176.5450  146.7050 N   0  0  0  0  0  0  0  0  0  0  0  0
  191.3390  176.9210  148.0550 C   0  0  0  0  0  1  0  0  0  0  0  0
  192.9200  175.7850  146.3730 C   0  0  1  0  0  3  0  0  0  0  0  0
  192.7830  175.4810  144.8730 C   0  0  1  0  0  3  0  0  0  0  0  0
  192.6970  174.0990  144.6880 O   0  0  0  0  0  0  0  0  0  0  0  0
  194.0200  173.6700  144.5630 C   0  0  0  0  0  2  0  0  0  0  0  0
  194.6710  169.5240  145.8620 O   0  0  0  0  0  0  0  0  0  0  0  0
  194.1210  172.2390  144.9570 C   0  0  0  0  0  0  0  0  0  0  0  0
  193.1140  171.4910  144.8370 O   0  0  0  0  0  0  0  0  0  0  0  0
  195.5730  170.4000  145.9390 C   0  0  0  0  0  3  0  0  0  0  0  0
  195.3470  171.7460  145.5060 N   0  0  0  0  0  2  0  0  0  0  0  0
  2  3  2  0  0  0  0
  3  1  2  0  0  0  0
  5  4  1  1  0  0  0
  6  9  1  6  0  0  0
  6  8  1  0  0  0  0
  6  5  1  0  0  0  0
  7  5  1  0  0  0  0
  8  2  1  1  0  0  0
  8  5  1  0  0  0  0
  9 11  1  1  0  0  0
 10 11  2  0  0  0  0
 12 16  1  6  0  0  0
 12  9  1  0  0  0  0
 14 13  1  6  0  0  0
 14 12  1  0  0  0  0
 15 14  1  0  0  0  0
 16 17  1  6  0  0  0
 16 18  1  0  0  0  0
 19 20  1  0  0  0  0
 19 18  1  0  0  0  0
 20 22  1  0  0  0  0
 21 20  2  0  0  0  0
 23  2  1  0  0  0  0
 24 26  1  0  0  0  0
 26 31  1  0  0  0  0
 26 27  2  0  0  0  0
 27 23  1  0  0  0  0
 27 28  1  0  0  0  0
 28 29  1  0  0  0  0
 30 25  1  6  0  0  0
 30 28  1  0  0  0  0
 31 32  1  1  0  0  0
 31 30  1  0  0  0  0
 33 32  1  0  0  0  0
 33 35  1  0  0  0  0
 34 37  2  0  0  0  0
 35 38  1  0  0  0  0
 36 35  2  0  0  0  0
 38 37  1  0  0  0  0
M  END
>  <MODEL>
1

>  <REMARK>
 VINA RESULT:      -7.2      0.000      0.000
  Name = 
  14 active torsions:
  status: ('A' for Active; 'I' for Inactive)
    1  A    between atoms: C_2  and  C_16
    2  A    between atoms: C_2  and  O_33
    3  A    between atoms: C_7  and  C_10
    4  A    between atoms: C_8  and  C_28
    5  A    between atoms: C_8  and  C_35
    6  A    between atoms: C_8  and  C_37
    7  A    between atoms: C_10  and  C_13
    8  A    between atoms: C_12  and  C_31
    9  A    between atoms: C_12  and  C_34
   10  A    between atoms: C_13  and  C_24
   11  A    between atoms: C_14  and  C_31
   12  A    between atoms: C_18  and  C_35
   13  A    between atoms: C_24  and  C_35
   14  A    between atoms: O_33  and  C_36
                            x       y       z     vdW  Elec       q    Type
                         _______ _______ _______ _____ _____    ______ ____

>  <TORSDO>
F 14

$$$$
=
 OpenBabel11042416263D

 38 39  0  0  1  0  0  0  0  0999 V2000
  190.5790  174.3010  144.5430 O   0  0  0  0  0  0  0  0  0  0  0  0
  191.8330  176.5190  144.5650 C   0  0  0  0  0  0  0  0  0  0  0  0
  191.1880  175.3790  144.5530 C   0  0  0  0  0  0  0  0  0  0  0  0
  193.0000  176.6700  147.2310 C   0  0  0  0  0  1  0  0  0  0  0  0
  193.9070  176.7170  146.0090 C   0  0  2  0  0  0  0  0  0  0  0  0
  194.0380  175.3970  145.2490 C   0  0  1  0  0  3  0  0  0  0  0  0
  195.0570  177.5050  146.1010 O   0  0  0  0  0  1  0  0  0  0  0  0
  193.3430  176.6070  144.6000 C   0  0  1  0  0  3  0  0  0  0  0  0
  195.4420  175.1810  144.6580 C   0  0  1  0  0  3  0  0  0  0  0  0
  197.1240  174.1160  145.9570 O   0  0  0  0  0  0  0  0  0  0  0  0
  196.0730  174.0000  145.3450 C   0  0  0  0  0  3  0  0  0  0  0  0
  195.4500  175.0050  143.1110 C   0  0  1  0  0  3  0  0  0  0  0  0
  195.6710  176.7120  141.2450 C   0  0  0  0  0  1  0  0  0  0  0  0
  196.3780  175.9870  142.3720 C   0  0  1  0  0  3  0  0  0  0  0  0
  196.9950  176.8860  143.2430 O   0  0  0  0  0  1  0  0  0  0  0  0
  195.7880  173.5480  142.7080 C   0  0  2  0  0  3  0  0  0  0  0  0
  197.0450  173.4450  142.1000 O   0  0  0  0  0  1  0  0  0  0  0  0
  194.7340  172.9410  141.7850 C   0  0  0  0  0  2  0  0  0  0  0  0
  193.4170  172.7020  142.5100 C   0  0  0  0  0  2  0  0  0  0  0  0
  192.2940  173.2590  141.7100 C   0  0  0  0  0  0  0  0  0  0  0  0
  191.1910  172.6540  141.6680 O   0  0  0  0  0  0  0  0  0  0  0  0
  192.4530  174.4930  141.0210 N   0  0  0  0  0  1  0  0  0  0  0  0
  191.0460  177.7830  144.4630 C   0  0  0  0  0  2  0  0  0  0  0  0
  188.7840  177.3670  142.4820 C   0  0  0  0  0  1  0  0  0  0  0  0
  187.2770  176.1300  146.8710 C   0  0  0  0  0  1  0  0  0  0  0  0
  188.6250  177.3960  143.9650 C   0  0  0  0  0  0  0  0  0  0  0  0
  189.6130  177.5410  144.8300 C   0  0  0  0  0  0  0  0  0  0  0  0
  189.1260  177.5490  146.1590 N   0  0  0  0  0  0  0  0  0  0  0  0
  189.9180  177.8440  147.3430 C   0  0  0  0  0  1  0  0  0  0  0  0
  187.6800  177.4060  146.1520 C   0  0  1  0  0  3  0  0  0  0  0  0
  187.3070  177.2970  144.6660 C   0  0  1  0  0  3  0  0  0  0  0  0
  186.5030  178.3830  144.3100 O   0  0  0  0  0  0  0  0  0  0  0  0
  185.1990  177.8830  144.3170 C   0  0  0  0  0  2  0  0  0  0  0  0
  183.5720  178.6290  140.3060 O   0  0  0  0  0  0  0  0  0  0  0  0
  184.5420  178.1860  143.0170 C   0  0  0  0  0  0  0  0  0  0  0  0
  183.3570  178.6130  143.0060 O   0  0  0  0  0  0  0  0  0  0  0  0
  184.7360  178.1800  140.4840 C   0  0  0  0  0  3  0  0  0  0  0  0
  185.2530  177.9480  141.7980 N   0  0  0  0  0  2  0  0  0  0  0  0
  1  3  2  0  0  0  0
  3  2  2  0  0  0  0
  5  7  1  0  0  0  0
  5  4  1  1  0  0  0
  6  9  1  6  0  0  0
  6  5  1  0  0  0  0
  8  2  1  1  0  0  0
  8  6  1  0  0  0  0
  8  5  1  0  0  0  0
  9 11  1  1  0  0  0
 11 10  2  0  0  0  0
 12 14  1  6  0  0  0
 12  9  1  0  0  0  0
 14 13  1  6  0  0  0
 14 15  1  0  0  0  0
 16 17  1  6  0  0  0
 16 12  1  0  0  0  0
 18 19  1  0  0  0  0
 18 16  1  0  0  0  0
 20 19  1  0  0  0  0
 21 20  2  0  0  0  0
 22 20  1  0  0  0  0
 23  2  1  0  0  0  0
 23 27  1  0  0  0  0
 24 26  1  0  0  0  0
 26 31  1  0  0  0  0
 26 27  2  0  0  0  0
 27 28  1  0  0  0  0
 28 29  1  0  0  0  0
 30 28  1  0  0  0  0
 30 25  1  1  0  0  0
 31 32  1  6  0  0  0
 31 30  1  0  0  0  0
 32 33  1  0  0  0  0
 34 37  2  0  0  0  0
 35 33  1  0  0  0  0
 36 35  2  0  0  0  0
 37 38  1  0  0  0  0
 38 35  1  0  0  0  0
M  END
>  <MODEL>
2

>  <REMARK>
 VINA RESULT:      -6.8      2.839      9.281
  Name = 
  14 active torsions:
  status: ('A' for Active; 'I' for Inactive)
    1  A    between atoms: C_2  and  C_16
    2  A    between atoms: C_2  and  O_33
    3  A    between atoms: C_7  and  C_10
    4  A    between atoms: C_8  and  C_28
    5  A    between atoms: C_8  and  C_35
    6  A    between atoms: C_8  and  C_37
    7  A    between atoms: C_10  and  C_13
    8  A    between atoms: C_12  and  C_31
    9  A    between atoms: C_12  and  C_34
   10  A    between atoms: C_13  and  C_24
   11  A    between atoms: C_14  and  C_31
   12  A    between atoms: C_18  and  C_35
   13  A    between atoms: C_24  and  C_35
   14  A    between atoms: O_33  and  C_36
                            x       y       z     vdW  Elec       q    Type
                         _______ _______ _______ _____ _____    ______ ____

>  <TORSDO>
F 14

$$$$
=
 OpenBabel11042416263D

 38 39  0  0  1  0  0  0  0  0999 V2000
  192.1810  172.5980  140.4790 O   0  0  0  0  0  0  0  0  0  0  0  0
  191.7140  173.0000  142.9510 C   0  0  0  0  0  0  0  0  0  0  0  0
  191.9540  172.7940  141.6800 C   0  0  0  0  0  0  0  0  0  0  0  0
  193.2290  170.7660  144.0490 C   0  0  0  0  0  1  0  0  0  0  0  0
  193.5390  172.1830  144.5100 C   0  0  2  0  0  0  0  0  0  0  0  0
  194.2280  173.0670  143.4710 C   0  0  1  0  0  3  0  0  0  0  0  0
  193.9420  172.3460  145.8380 O   0  0  0  0  0  1  0  0  0  0  0  0
  192.7960  173.3820  143.9390 C   0  0  1  0  0  3  0  0  0  0  0  0
  195.2420  174.0450  144.0890 C   0  0  1  0  0  3  0  0  0  0  0  0
  197.2500  172.8180  144.4270 O   0  0  0  0  0  0  0  0  0  0  0  0
  196.6280  173.5950  143.7170 C   0  0  0  0  0  3  0  0  0  0  0  0
  195.0030  175.5300  143.6900 C   0  0  1  0  0  3  0  0  0  0  0  0
  193.1930  176.9080  144.8180 C   0  0  0  0  0  1  0  0  0  0  0  0
  194.6360  176.4480  144.8700 C   0  0  1  0  0  3  0  0  0  0  0  0
  194.9370  175.8670  146.1030 O   0  0  0  0  0  1  0  0  0  0  0  0
  196.2160  176.1120  142.9210 C   0  0  2  0  0  3  0  0  0  0  0  0
  196.8000  177.1930  143.5920 O   0  0  0  0  0  1  0  0  0  0  0  0
  195.8540  176.5410  141.5010 C   0  0  0  0  0  2  0  0  0  0  0  0
  194.5040  175.9860  141.0690 C   0  0  0  0  0  2  0  0  0  0  0  0
  194.6910  175.0080  139.9640 C   0  0  0  0  0  0  0  0  0  0  0  0
  194.1760  175.2260  138.8360 O   0  0  0  0  0  0  0  0  0  0  0  0
  195.4800  173.8430  140.1700 N   0  0  0  0  0  1  0  0  0  0  0  0
  190.3020  172.9300  143.4300 C   0  0  0  0  0  2  0  0  0  0  0  0
  190.2130  174.3600  146.1060 C   0  0  0  0  0  1  0  0  0  0  0  0
  189.3000  177.5180  142.6060 C   0  0  0  0  0  1  0  0  0  0  0  0
  189.6850  174.9130  144.8260 C   0  0  0  0  0  0  0  0  0  0  0  0
  189.7550  174.3080  143.6540 C   0  0  0  0  0  0  0  0  0  0  0  0
  189.1420  175.0870  142.6430 N   0  0  0  0  0  0  0  0  0  0  0  0
  188.9030  174.6530  141.2760 C   0  0  0  0  0  1  0  0  0  0  0  0
  188.6140  176.3110  143.2210 C   0  0  1  0  0  3  0  0  0  0  0  0
  188.9710  176.2230  144.7130 C   0  0  1  0  0  3  0  0  0  0  0  0
  187.7970  176.1840  145.4680 O   0  0  0  0  0  0  0  0  0  0  0  0
  187.7420  177.4210  146.1130 C   0  0  0  0  0  2  0  0  0  0  0  0
  183.6370  178.9470  145.7830 O   0  0  0  0  0  0  0  0  0  0  0  0
  186.3390  177.9140  146.1300 C   0  0  0  0  0  0  0  0  0  0  0  0
  185.6520  177.7950  147.1790 O   0  0  0  0  0  0  0  0  0  0  0  0
  184.4420  178.9750  144.8140 C   0  0  0  0  0  3  0  0  0  0  0  0
  185.7790  178.4780  144.9400 N   0  0  0  0  0  2  0  0  0  0  0  0
  1  3  2  0  0  0  0
  2 23  1  0  0  0  0
  3  2  2  0  0  0  0
  5  4  1  6  0  0  0
  5  7  1  0  0  0  0
  6  8  1  0  0  0  0
  6  9  1  1  0  0  0
  6  5  1  0  0  0  0
  8  2  1  6  0  0  0
  8  5  1  0  0  0  0
  9 11  1  6  0  0  0
 11 10  2  0  0  0  0
 12 16  1  1  0  0  0
 12  9  1  0  0  0  0
 12 14  1  0  0  0  0
 14 13  1  1  0  0  0
 14 15  1  0  0  0  0
 16 17  1  1  0  0  0
 18 16  1  0  0  0  0
 19 18  1  0  0  0  0
 20 22  1  0  0  0  0
 20 19  1  0  0  0  0
 21 20  2  0  0  0  0
 23 27  1  0  0  0  0
 26 24  1  0  0  0  0
 27 26  2  0  0  0  0
 28 30  1  0  0  0  0
 28 27  1  0  0  0  0
 29 28  1  0  0  0  0
 30 25  1  6  0  0  0
 30 31  1  0  0  0  0
 31 26  1  0  0  0  0
 31 32  1  1  0  0  0
 32 33  1  0  0  0  0
 33 35  1  0  0  0  0
 35 36  2  0  0  0  0
 37 38  1  0  0  0  0
 37 34  2  0  0  0  0
 38 35  1  0  0  0  0
M  END
>  <MODEL>
3

>  <REMARK>
 VINA RESULT:      -6.7      3.158      9.558
  Name = 
  14 active torsions:
  status: ('A' for Active; 'I' for Inactive)
    1  A    between atoms: C_2  and  C_16
    2  A    between atoms: C_2  and  O_33
    3  A    between atoms: C_7  and  C_10
    4  A    between atoms: C_8  and  C_28
    5  A    between atoms: C_8  and  C_35
    6  A    between atoms: C_8  and  C_37
    7  A    between atoms: C_10  and  C_13
    8  A    between atoms: C_12  and  C_31
    9  A    between atoms: C_12  and  C_34
   10  A    between atoms: C_13  and  C_24
   11  A    between atoms: C_14  and  C_31
   12  A    between atoms: C_18  and  C_35
   13  A    between atoms: C_24  and  C_35
   14  A    between atoms: O_33  and  C_36
                            x       y       z     vdW  Elec       q    Type
                         _______ _______ _______ _____ _____    ______ ____

>  <TORSDO>
F 14

$$$$
=
 OpenBabel11042416263D

 38 39  0  0  1  0  0  0  0  0999 V2000
  191.7000  173.4950  140.0690 O   0  0  0  0  0  0  0  0  0  0  0  0
  191.4740  173.2710  142.5960 C   0  0  0  0  0  0  0  0  0  0  0  0
  191.5900  173.3870  141.2970 C   0  0  0  0  0  0  0  0  0  0  0  0
  192.3940  170.7150  143.6490 C   0  0  0  0  0  1  0  0  0  0  0  0
  193.0830  172.0000  144.0870 C   0  0  2  0  0  0  0  0  0  0  0  0
  193.9360  172.6750  143.0140 C   0  0  1  0  0  3  0  0  0  0  0  0
  193.5690  172.0470  145.3960 O   0  0  0  0  0  1  0  0  0  0  0  0
  192.6570  173.3530  143.5370 C   0  0  1  0  0  3  0  0  0  0  0  0
  195.1950  173.3520  143.5830 C   0  0  1  0  0  3  0  0  0  0  0  0
  196.9060  172.2940  144.8500 O   0  0  0  0  0  0  0  0  0  0  0  0
  196.2370  172.2940  143.8270 C   0  0  0  0  0  3  0  0  0  0  0  0
  195.7510  174.4970  142.6870 C   0  0  1  0  0  3  0  0  0  0  0  0
  194.3230  175.9430  141.1660 C   0  0  0  0  0  1  0  0  0  0  0  0
  195.0510  174.6240  141.3220 C   0  0  1  0  0  3  0  0  0  0  0  0
  195.9260  174.4000  140.2580 O   0  0  0  0  0  1  0  0  0  0  0  0
  195.7260  175.8580  143.4260 C   0  0  2  0  0  3  0  0  0  0  0  0
  196.9520  176.5280  143.3440 O   0  0  0  0  0  1  0  0  0  0  0  0
  195.3300  175.7160  144.8940 C   0  0  0  0  0  2  0  0  0  0  0  0
  194.6700  176.9800  145.4270 C   0  0  0  0  0  2  0  0  0  0  0  0
  193.1930  176.8120  145.4390 C   0  0  0  0  0  0  0  0  0  0  0  0
  192.5960  176.5660  146.5190 O   0  0  0  0  0  0  0  0  0  0  0  0
  192.4490  176.9640  144.2360 N   0  0  0  0  0  1  0  0  0  0  0  0
  190.1070  173.1280  143.1800 C   0  0  0  0  0  2  0  0  0  0  0  0
  190.2470  174.1900  146.0190 C   0  0  0  0  0  1  0  0  0  0  0  0
  189.0590  177.7780  143.0570 C   0  0  0  0  0  1  0  0  0  0  0  0
  189.6170  174.9040  144.8720 C   0  0  0  0  0  0  0  0  0  0  0  0
  189.5860  174.4600  143.6280 C   0  0  0  0  0  0  0  0  0  0  0  0
  188.8940  175.3620  142.7840 N   0  0  0  0  0  0  0  0  0  0  0  0
  188.5410  175.1120  141.3960 C   0  0  0  0  0  1  0  0  0  0  0  0
  188.4210  176.4950  143.5610 C   0  0  1  0  0  3  0  0  0  0  0  0
  188.9010  176.2130  144.9930 C   0  0  1  0  0  3  0  0  0  0  0  0
  187.7940  176.0660  145.8320 O   0  0  0  0  0  0  0  0  0  0  0  0
  187.6990  177.2790  146.5180 C   0  0  0  0  0  2  0  0  0  0  0  0
  183.6950  178.9490  145.8250 O   0  0  0  0  0  0  0  0  0  0  0  0
  186.3130  177.8080  146.4060 C   0  0  0  0  0  0  0  0  0  0  0  0
  185.4940  177.6060  147.3420 O   0  0  0  0  0  0  0  0  0  0  0  0
  184.6200  179.0480  144.9740 C   0  0  0  0  0  3  0  0  0  0  0  0
  185.9210  178.5030  145.2170 N   0  0  0  0  0  2  0  0  0  0  0  0
  1  3  2  0  0  0  0
  2 23  1  0  0  0  0
  3  2  2  0  0  0  0
  5  4  1  6  0  0  0
  5  7  1  0  0  0  0
  6  8  1  0  0  0  0
  6  9  1  1  0  0  0
  6  5  1  0  0  0  0
  8  2  1  6  0  0  0
  8  5  1  0  0  0  0
  9 11  1  6  0  0  0
 11 10  2  0  0  0  0
 12 14  1  6  0  0  0
 12 16  1  0  0  0  0
 12  9  1  0  0  0  0
 14 13  1  6  0  0  0
 15 14  1  0  0  0  0
 16 17  1  1  0  0  0
 16 18  1  0  0  0  0
 18 19  1  0  0  0  0
 19 20  1  0  0  0  0
 20 21  2  0  0  0  0
 22 20  1  0  0  0  0
 23 27  1  0  0  0  0
 26 31  1  0  0  0  0
 26 24  1  0  0  0  0
 27 26  2  0  0  0  0
 28 30  1  0  0  0  0
 28 27  1  0  0  0  0
 29 28  1  0  0  0  0
 30 25  1  6  0  0  0
 30 31  1  0  0  0  0
 31 32  1  1  0  0  0
 32 33  1  0  0  0  0
 35 33  1  0  0  0  0
 35 36  2  0  0  0  0
 37 38  1  0  0  0  0
 37 34  2  0  0  0  0
 38 35  1  0  0  0  0
M  END
>  <MODEL>
4

>  <REMARK>
 VINA RESULT:      -6.7      3.045      9.439
  Name = 
  14 active torsions:
  status: ('A' for Active; 'I' for Inactive)
    1  A    between atoms: C_2  and  C_16
    2  A    between atoms: C_2  and  O_33
    3  A    between atoms: C_7  and  C_10
    4  A    between atoms: C_8  and  C_28
    5  A    between atoms: C_8  and  C_35
    6  A    between atoms: C_8  and  C_37
    7  A    between atoms: C_10  and  C_13
    8  A    between atoms: C_12  and  C_31
    9  A    between atoms: C_12  and  C_34
   10  A    between atoms: C_13  and  C_24
   11  A    between atoms: C_14  and  C_31
   12  A    between atoms: C_18  and  C_35
   13  A    between atoms: C_24  and  C_35
   14  A    between atoms: O_33  and  C_36
                            x       y       z     vdW  Elec       q    Type
                         _______ _______ _______ _____ _____    ______ ____

>  <TORSDO>
F 14

$$$$
=
 OpenBabel11042416263D

 38 39  0  0  1  0  0  0  0  0999 V2000
  189.3770  172.0880  145.0660 O   0  0  0  0  0  0  0  0  0  0  0  0
  191.2660  173.6350  144.3380 C   0  0  0  0  0  0  0  0  0  0  0  0
  190.2950  172.8390  144.7110 C   0  0  0  0  0  0  0  0  0  0  0  0
  192.2510  171.0420  143.4450 C   0  0  0  0  0  1  0  0  0  0  0  0
  193.1830  171.9820  144.1970 C   0  0  2  0  0  0  0  0  0  0  0  0
  193.6250  173.2180  143.4150 C   0  0  1  0  0  3  0  0  0  0  0  0
  194.1340  171.3960  145.0360 O   0  0  0  0  0  1  0  0  0  0  0  0
  192.7200  173.3580  144.6520 C   0  0  1  0  0  3  0  0  0  0  0  0
  195.0690  173.6460  143.7330 C   0  0  1  0  0  3  0  0  0  0  0  0
  195.5650  172.3050  141.8340 O   0  0  0  0  0  0  0  0  0  0  0  0
  195.9980  172.9290  142.7910 C   0  0  0  0  0  3  0  0  0  0  0  0
  195.2910  175.1860  143.6830 C   0  0  1  0  0  3  0  0  0  0  0  0
  194.5340  176.9260  145.3680 C   0  0  0  0  0  1  0  0  0  0  0  0
  195.5340  175.8310  145.0590 C   0  0  1  0  0  3  0  0  0  0  0  0
  195.5800  174.8850  146.0840 O   0  0  0  0  0  1  0  0  0  0  0  0
  196.4370  175.5620  142.7090 C   0  0  2  0  0  3  0  0  0  0  0  0
  197.5670  176.0400  143.3820 O   0  0  0  0  0  1  0  0  0  0  0  0
  196.0020  176.5890  141.6670 C   0  0  0  0  0  2  0  0  0  0  0  0
  194.5790  176.3400  141.1860 C   0  0  0  0  0  2  0  0  0  0  0  0
  194.5790  175.2880  140.1350 C   0  0  0  0  0  0  0  0  0  0  0  0
  193.6090  174.4910  140.0410 O   0  0  0  0  0  0  0  0  0  0  0  0
  195.6580  175.2040  139.2110 N   0  0  0  0  0  1  0  0  0  0  0  0
  190.9310  174.8240  143.5000 C   0  0  0  0  0  2  0  0  0  0  0  0
  188.1930  175.1210  142.2240 C   0  0  0  0  0  1  0  0  0  0  0  0
  187.9520  176.5320  146.8090 C   0  0  0  0  0  1  0  0  0  0  0  0
  188.6010  175.7350  143.5210 C   0  0  0  0  0  0  0  0  0  0  0  0
  189.7800  175.5780  144.0950 C   0  0  0  0  0  0  0  0  0  0  0  0
  189.8570  176.3090  145.3050 N   0  0  0  0  0  0  0  0  0  0  0  0
  191.0570  176.4840  146.1070 C   0  0  0  0  0  1  0  0  0  0  0  0
  188.6080  177.0190  145.5280 C   0  0  1  0  0  3  0  0  0  0  0  0
  187.7280  176.6450  144.3270 C   0  0  1  0  0  3  0  0  0  0  0  0
  187.4400  177.7950  143.5880 O   0  0  0  0  0  0  0  0  0  0  0  0
  186.1780  178.1990  144.0270 C   0  0  0  0  0  2  0  0  0  0  0  0
  183.6750  178.1550  140.4170 O   0  0  0  0  0  0  0  0  0  0  0  0
  185.2250  178.1890  142.8830 C   0  0  0  0  0  0  0  0  0  0  0  0
  183.9880  178.1060  143.1080 O   0  0  0  0  0  0  0  0  0  0  0  0
  184.9320  178.2120  140.3600 C   0  0  0  0  0  3  0  0  0  0  0  0
  185.7340  178.2310  141.5460 N   0  0  0  0  0  2  0  0  0  0  0  0
  2  3  2  0  0  0  0
  3  1  2  0  0  0  0
  5  4  1  6  0  0  0
  5  8  1  0  0  0  0
  5  7  1  0  0  0  0
  6  9  1  1  0  0  0
  6  5  1  0  0  0  0
  6  8  1  0  0  0  0
  8  2  1  6  0  0  0
  9 11  1  6  0  0  0
 10 11  2  0  0  0  0
 12 16  1  6  0  0  0
 12  9  1  0  0  0  0
 12 14  1  0  0  0  0
 14 13  1  1  0  0  0
 14 15  1  0  0  0  0
 16 17  1  1  0  0  0
 18 16  1  0  0  0  0
 19 18  1  0  0  0  0
 20 19  1  0  0  0  0
 21 20  2  0  0  0  0
 22 20  1  0  0  0  0
 23 27  1  0  0  0  0
 23  2  1  0  0  0  0
 24 26  1  0  0  0  0
 26 27  2  0  0  0  0
 26 31  1  0  0  0  0
 27 28  1  0  0  0  0
 28 30  1  0  0  0  0
 28 29  1  0  0  0  0
 30 25  1  1  0  0  0
 31 32  1  6  0  0  0
 31 30  1  0  0  0  0
 32 33  1  0  0  0  0
 35 36  2  0  0  0  0
 35 33  1  0  0  0  0
 37 34  2  0  0  0  0
 37 38  1  0  0  0  0
 38 35  1  0  0  0  0
M  END
>  <MODEL>
5

>  <REMARK>
 VINA RESULT:      -6.7      2.924      9.541
  Name = 
  14 active torsions:
  status: ('A' for Active; 'I' for Inactive)
    1  A    between atoms: C_2  and  C_16
    2  A    between atoms: C_2  and  O_33
    3  A    between atoms: C_7  and  C_10
    4  A    between atoms: C_8  and  C_28
    5  A    between atoms: C_8  and  C_35
    6  A    between atoms: C_8  and  C_37
    7  A    between atoms: C_10  and  C_13
    8  A    between atoms: C_12  and  C_31
    9  A    between atoms: C_12  and  C_34
   10  A    between atoms: C_13  and  C_24
   11  A    between atoms: C_14  and  C_31
   12  A    between atoms: C_18  and  C_35
   13  A    between atoms: C_24  and  C_35
   14  A    between atoms: O_33  and  C_36
                            x       y       z     vdW  Elec       q    Type
                         _______ _______ _______ _____ _____    ______ ____

>  <TORSDO>
F 14

$$$$
=
 OpenBabel11042416263D

 38 39  0  0  1  0  0  0  0  0999 V2000
  191.1420  177.5620  142.8220 O   0  0  0  0  0  0  0  0  0  0  0  0
  190.9150  175.0450  143.1410 C   0  0  0  0  0  0  0  0  0  0  0  0
  191.0320  176.3390  142.9780 C   0  0  0  0  0  0  0  0  0  0  0  0
  191.6290  173.7960  140.6070 C   0  0  0  0  0  1  0  0  0  0  0  0
  192.4240  173.4600  141.8610 C   0  0  2  0  0  0  0  0  0  0  0  0
  193.3230  174.5830  142.3780 C   0  0  1  0  0  3  0  0  0  0  0  0
  192.9210  172.1590  141.9690 O   0  0  0  0  0  1  0  0  0  0  0  0
  192.1080  174.1140  143.1980 C   0  0  1  0  0  3  0  0  0  0  0  0
  194.6370  174.0680  142.9900 C   0  0  1  0  0  3  0  0  0  0  0  0
  196.8380  174.6500  142.3060 O   0  0  0  0  0  0  0  0  0  0  0  0
  195.7350  175.0420  142.6540 C   0  0  0  0  0  3  0  0  0  0  0  0
  194.5570  173.8140  144.5240 C   0  0  1  0  0  3  0  0  0  0  0  0
  194.1160  171.5410  145.5640 C   0  0  0  0  0  1  0  0  0  0  0  0
  195.1560  172.4680  144.9700 C   0  0  1  0  0  3  0  0  0  0  0  0
  195.8650  171.8400  143.9440 O   0  0  0  0  0  1  0  0  0  0  0  0
  195.2000  174.9740  145.3250 C   0  0  2  0  0  3  0  0  0  0  0  0
  196.2630  174.5390  146.1250 O   0  0  0  0  0  1  0  0  0  0  0  0
  194.1860  175.7110  146.1960 C   0  0  0  0  0  2  0  0  0  0  0  0
  192.8900  174.9260  146.3450 C   0  0  0  0  0  2  0  0  0  0  0  0
  191.9530  175.6640  147.2340 C   0  0  0  0  0  0  0  0  0  0  0  0
  192.2490  176.8170  147.6410 O   0  0  0  0  0  0  0  0  0  0  0  0
  190.7070  175.0820  147.5950 N   0  0  0  0  0  1  0  0  0  0  0  0
  189.5530  174.4730  143.3580 C   0  0  0  0  0  2  0  0  0  0  0  0
  188.2020  176.3310  145.3410 C   0  0  0  0  0  1  0  0  0  0  0  0
  187.2110  177.8070  140.8800 C   0  0  0  0  0  1  0  0  0  0  0  0
  187.8880  176.2650  143.8850 C   0  0  0  0  0  0  0  0  0  0  0  0
  188.5000  175.4830  143.0140 C   0  0  0  0  0  0  0  0  0  0  0  0
  187.9530  175.6410  141.7180 N   0  0  0  0  0  0  0  0  0  0  0  0
  188.2830  174.8260  140.5600 C   0  0  0  0  0  1  0  0  0  0  0  0
  186.8730  176.6140  141.7570 C   0  0  1  0  0  3  0  0  0  0  0  0
  186.8060  177.0600  143.2250 C   0  0  1  0  0  3  0  0  0  0  0  0
  185.5670  176.7010  143.7620 O   0  0  0  0  0  0  0  0  0  0  0  0
  184.8540  177.8990  143.8550 C   0  0  0  0  0  2  0  0  0  0  0  0
  185.9440  179.6840  147.7180 O   0  0  0  0  0  0  0  0  0  0  0  0
  185.2440  178.6160  145.0990 C   0  0  0  0  0  0  0  0  0  0  0  0
  185.6820  179.7950  145.0240 O   0  0  0  0  0  0  0  0  0  0  0  0
  185.5110  178.5040  147.6230 C   0  0  0  0  0  3  0  0  0  0  0  0
  185.1550  177.9390  146.3570 N   0  0  0  0  0  2  0  0  0  0  0  0
  1  3  2  0  0  0  0
  2 23  1  0  0  0  0
  3  2  2  0  0  0  0
  5  4  1  6  0  0  0
  5  7  1  0  0  0  0
  5  6  1  0  0  0  0
  5  8  1  0  0  0  0
  6  9  1  1  0  0  0
  6  8  1  0  0  0  0
  8  2  1  6  0  0  0
  9 11  1  1  0  0  0
 10 11  2  0  0  0  0
 12  9  1  6  0  0  0
 12 14  1  0  0  0  0
 12 16  1  0  0  0  0
 14 13  1  6  0  0  0
 15 14  1  0  0  0  0
 16 17  1  1  0  0  0
 16 18  1  0  0  0  0
 18 19  1  0  0  0  0
 19 20  1  0  0  0  0
 20 22  1  0  0  0  0
 20 21  2  0  0  0  0
 26 24  1  0  0  0  0
 27 23  1  0  0  0  0
 27 26  2  0  0  0  0
 28 30  1  0  0  0  0
 28 27  1  0  0  0  0
 29 28  1  0  0  0  0
 30 25  1  6  0  0  0
 30 31  1  0  0  0  0
 31 32  1  1  0  0  0
 31 26  1  0  0  0  0
 32 33  1  0  0  0  0
 33 35  1  0  0  0  0
 35 38  1  0  0  0  0
 36 35  2  0  0  0  0
 37 34  2  0  0  0  0
 38 37  1  0  0  0  0
M  END
>  <MODEL>
6

>  <REMARK>
 VINA RESULT:      -6.6      2.706      9.570
  Name = 
  14 active torsions:
  status: ('A' for Active; 'I' for Inactive)
    1  A    between atoms: C_2  and  C_16
    2  A    between atoms: C_2  and  O_33
    3  A    between atoms: C_7  and  C_10
    4  A    between atoms: C_8  and  C_28
    5  A    between atoms: C_8  and  C_35
    6  A    between atoms: C_8  and  C_37
    7  A    between atoms: C_10  and  C_13
    8  A    between atoms: C_12  and  C_31
    9  A    between atoms: C_12  and  C_34
   10  A    between atoms: C_13  and  C_24
   11  A    between atoms: C_14  and  C_31
   12  A    between atoms: C_18  and  C_35
   13  A    between atoms: C_24  and  C_35
   14  A    between atoms: O_33  and  C_36
                            x       y       z     vdW  Elec       q    Type
                         _______ _______ _______ _____ _____    ______ ____

>  <TORSDO>
F 14

$$$$
=
 OpenBabel11042416263D

 38 39  0  0  1  0  0  0  0  0999 V2000
  191.1250  178.6770  143.8830 O   0  0  0  0  0  0  0  0  0  0  0  0
  191.7720  176.2670  144.3980 C   0  0  0  0  0  0  0  0  0  0  0  0
  191.4400  177.5060  144.1340 C   0  0  0  0  0  0  0  0  0  0  0  0
  193.7680  176.7200  146.4720 C   0  0  0  0  0  1  0  0  0  0  0  0
  194.1630  175.9920  145.1950 C   0  0  2  0  0  0  0  0  0  0  0  0
  193.5940  174.5810  145.0510 C   0  0  1  0  0  3  0  0  0  0  0  0
  195.4620  176.1960  144.7230 O   0  0  0  0  0  1  0  0  0  0  0  0
  193.1450  175.7050  144.1000 C   0  0  1  0  0  3  0  0  0  0  0  0
  194.5600  173.6120  144.3480 C   0  0  1  0  0  3  0  0  0  0  0  0
  196.3760  172.8590  145.6850 O   0  0  0  0  0  0  0  0  0  0  0  0
  195.1970  172.7320  145.3890 C   0  0  0  0  0  3  0  0  0  0  0  0
  193.8920  172.7650  143.2250 C   0  0  1  0  0  3  0  0  0  0  0  0
  193.9770  173.1320  140.7140 C   0  0  0  0  0  1  0  0  0  0  0  0
  194.7300  172.6530  141.9390 C   0  0  1  0  0  3  0  0  0  0  0  0
  195.9640  173.2950  142.0560 O   0  0  0  0  0  1  0  0  0  0  0  0
  193.5050  171.3540  143.7330 C   0  0  2  0  0  3  0  0  0  0  0  0
  193.9890  170.3400  142.8980 O   0  0  0  0  0  1  0  0  0  0  0  0
  191.9970  171.1880  143.9010 C   0  0  0  0  0  2  0  0  0  0  0  0
  191.2260  172.3270  143.2500 C   0  0  0  0  0  2  0  0  0  0  0  0
  190.1370  171.7780  142.3990 C   0  0  0  0  0  0  0  0  0  0  0  0
  188.9350  171.9230  142.7440 O   0  0  0  0  0  0  0  0  0  0  0  0
  190.4500  171.1200  141.1780 N   0  0  0  0  0  1  0  0  0  0  0  0
  190.7790  175.3950  145.0910 C   0  0  0  0  0  2  0  0  0  0  0  0
  188.5480  175.5170  143.0370 C   0  0  0  0  0  1  0  0  0  0  0  0
  186.8870  177.1010  147.2550 C   0  0  0  0  0  1  0  0  0  0  0  0
  188.5250  176.2010  144.3620 C   0  0  0  0  0  0  0  0  0  0  0  0
  189.4790  176.1200  145.2720 C   0  0  0  0  0  0  0  0  0  0  0  0
  189.1640  176.9030  146.4080 N   0  0  0  0  0  0  0  0  0  0  0  0
  190.0590  177.1640  147.5250 C   0  0  0  0  0  1  0  0  0  0  0  0
  187.8850  177.5650  146.2080 C   0  0  1  0  0  3  0  0  0  0  0  0
  187.4220  177.1020  144.8180 C   0  0  1  0  0  3  0  0  0  0  0  0
  187.3370  178.2080  143.9680 O   0  0  0  0  0  0  0  0  0  0  0  0
  186.0580  178.7270  144.1790 C   0  0  0  0  0  2  0  0  0  0  0  0
  183.9310  178.0580  140.3940 O   0  0  0  0  0  0  0  0  0  0  0  0
  185.2260  178.5120  142.9640 C   0  0  0  0  0  0  0  0  0  0  0  0
  183.9750  178.4100  143.0800 O   0  0  0  0  0  0  0  0  0  0  0  0
  185.1860  178.1600  140.4480 C   0  0  0  0  0  3  0  0  0  0  0  0
  185.8640  178.3840  141.6890 N   0  0  0  0  0  2  0  0  0  0  0  0
  1  3  2  0  0  0  0
  2 23  1  0  0  0  0
  3  2  2  0  0  0  0
  5  4  1  1  0  0  0
  6  9  1  6  0  0  0
  6  5  1  0  0  0  0
  7  5  1  0  0  0  0
  8  2  1  1  0  0  0
  8  6  1  0  0  0  0
  8  5  1  0  0  0  0
  9 11  1  1  0  0  0
 11 10  2  0  0  0  0
 12 14  1  6  0  0  0
 12 16  1  0  0  0  0
 12  9  1  0  0  0  0
 14 13  1  6  0  0  0
 14 15  1  0  0  0  0
 16 17  1  6  0  0  0
 16 18  1  0  0  0  0
 19 18  1  0  0  0  0
 20 21  2  0  0  0  0
 20 19  1  0  0  0  0
 22 20  1  0  0  0  0
 23 27  1  0  0  0  0
 24 26  1  0  0  0  0
 26 31  1  0  0  0  0
 26 27  2  0  0  0  0
 27 28  1  0  0  0  0
 28 29  1  0  0  0  0
 30 28  1  0  0  0  0
 30 25  1  1  0  0  0
 31 32  1  6  0  0  0
 31 30  1  0  0  0  0
 32 33  1  0  0  0  0
 34 37  2  0  0  0  0
 35 36  2  0  0  0  0
 35 33  1  0  0  0  0
 37 38  1  0  0  0  0
 38 35  1  0  0  0  0
M  END
>  <MODEL>
7

>  <REMARK>
 VINA RESULT:      -6.5      2.633      9.017
  Name = 
  14 active torsions:
  status: ('A' for Active; 'I' for Inactive)
    1  A    between atoms: C_2  and  C_16
    2  A    between atoms: C_2  and  O_33
    3  A    between atoms: C_7  and  C_10
    4  A    between atoms: C_8  and  C_28
    5  A    between atoms: C_8  and  C_35
    6  A    between atoms: C_8  and  C_37
    7  A    between atoms: C_10  and  C_13
    8  A    between atoms: C_12  and  C_31
    9  A    between atoms: C_12  and  C_34
   10  A    between atoms: C_13  and  C_24
   11  A    between atoms: C_14  and  C_31
   12  A    between atoms: C_18  and  C_35
   13  A    between atoms: C_24  and  C_35
   14  A    between atoms: O_33  and  C_36
                            x       y       z     vdW  Elec       q    Type
                         _______ _______ _______ _____ _____    ______ ____

>  <TORSDO>
F 14

$$$$
=
 OpenBabel11042416263D

 38 39  0  0  1  0  0  0  0  0999 V2000
  195.3060  175.6910  146.1600 O   0  0  0  0  0  0  0  0  0  0  0  0
  193.2260  175.8980  144.7040 C   0  0  0  0  0  0  0  0  0  0  0  0
  194.2950  175.7910  145.4530 C   0  0  0  0  0  0  0  0  0  0  0  0
  194.2070  176.1960  141.9760 C   0  0  0  0  0  1  0  0  0  0  0  0
  193.2940  175.0280  142.3240 C   0  0  2  0  0  0  0  0  0  0  0  0
  193.9310  173.9450  143.1950 C   0  0  1  0  0  3  0  0  0  0  0  0
  192.4090  174.5960  141.3330 O   0  0  0  0  0  1  0  0  0  0  0  0
  192.7860  174.8160  143.7430 C   0  0  1  0  0  3  0  0  0  0  0  0
  193.4360  172.5290  142.8510 C   0  0  1  0  0  3  0  0  0  0  0  0
  195.0160  172.1690  141.1120 O   0  0  0  0  0  0  0  0  0  0  0  0
  194.5540  171.7830  142.1760 C   0  0  0  0  0  3  0  0  0  0  0  0
  192.8910  171.7410  144.0780 C   0  0  1  0  0  3  0  0  0  0  0  0
  190.4140  172.2110  144.3810 C   0  0  0  0  0  1  0  0  0  0  0  0
  191.4540  171.2180  143.9020 C   0  0  1  0  0  3  0  0  0  0  0  0
  191.1980  170.8120  142.5920 O   0  0  0  0  0  1  0  0  0  0  0  0
  193.8360  170.5780  144.4700 C   0  0  2  0  0  3  0  0  0  0  0  0
  193.1480  169.3720  144.6440 O   0  0  0  0  0  1  0  0  0  0  0  0
  194.6410  170.8820  145.7320 C   0  0  0  0  0  2  0  0  0  0  0  0
  196.1300  170.6460  145.5240 C   0  0  0  0  0  2  0  0  0  0  0  0
  196.8470  171.9480  145.4890 C   0  0  0  0  0  0  0  0  0  0  0  0
  196.8200  172.7080  146.4920 O   0  0  0  0  0  0  0  0  0  0  0  0
  197.5930  172.3210  144.3370 N   0  0  0  0  0  1  0  0  0  0  0  0
  192.3630  177.1070  144.8620 C   0  0  0  0  0  2  0  0  0  0  0  0
  189.8960  176.9980  143.0980 C   0  0  0  0  0  1  0  0  0  0  0  0
  188.9560  174.7810  147.2530 C   0  0  0  0  0  1  0  0  0  0  0  0
  189.9130  176.7040  144.5600 C   0  0  0  0  0  0  0  0  0  0  0  0
  190.9910  176.7160  145.3220 C   0  0  0  0  0  0  0  0  0  0  0  0
  190.6660  176.4150  146.6670 N   0  0  0  0  0  0  0  0  0  0  0  0
  191.5840  176.4960  147.7920 C   0  0  0  0  0  1  0  0  0  0  0  0
  189.2340  176.2000  146.7880 C   0  0  1  0  0  3  0  0  0  0  0  0
  188.6900  176.3880  145.3640 C   0  0  1  0  0  3  0  0  0  0  0  0
  187.8190  177.4800  145.3410 O   0  0  0  0  0  0  0  0  0  0  0  0
  186.5720  176.9520  145.6820 C   0  0  0  0  0  2  0  0  0  0  0  0
  183.6900  178.4930  142.7460 O   0  0  0  0  0  0  0  0  0  0  0  0
  185.5280  177.5230  144.7880 C   0  0  0  0  0  0  0  0  0  0  0  0
  184.4990  178.0470  145.2930 O   0  0  0  0  0  0  0  0  0  0  0  0
  184.7590  177.9220  142.4000 C   0  0  0  0  0  3  0  0  0  0  0  0
  185.6910  177.4300  143.3690 N   0  0  0  0  0  2  0  0  0  0  0  0
  2 23  1  0  0  0  0
  2  3  2  0  0  0  0
  3  1  2  0  0  0  0
  5  4  1  6  0  0  0
  5  6  1  0  0  0  0
  5  8  1  0  0  0  0
  6  9  1  6  0  0  0
  6  8  1  0  0  0  0
  7  5  1  0  0  0  0
  8  2  1  1  0  0  0
  9 11  1  1  0  0  0
 10 11  2  0  0  0  0
 12  9  1  6  0  0  0
 12 16  1  0  0  0  0
 14 12  1  0  0  0  0
 14 13  1  6  0  0  0
 15 14  1  0  0  0  0
 16 17  1  1  0  0  0
 16 18  1  0  0  0  0
 19 18  1  0  0  0  0
 20 19  1  0  0  0  0
 20 21  2  0  0  0  0
 22 20  1  0  0  0  0
 23 27  1  0  0  0  0
 24 26  1  0  0  0  0
 26 27  2  0  0  0  0
 26 31  1  0  0  0  0
 27 28  1  0  0  0  0
 28 30  1  0  0  0  0
 28 29  1  0  0  0  0
 30 25  1  6  0  0  0
 31 32  1  1  0  0  0
 31 30  1  0  0  0  0
 32 33  1  0  0  0  0
 35 36  2  0  0  0  0
 35 33  1  0  0  0  0
 37 34  2  0  0  0  0
 37 38  1  0  0  0  0
 38 35  1  0  0  0  0
M  END
>  <MODEL>
8

>  <REMARK>
 VINA RESULT:      -6.5      2.316      9.888
  Name = 
  14 active torsions:
  status: ('A' for Active; 'I' for Inactive)
    1  A    between atoms: C_2  and  C_16
    2  A    between atoms: C_2  and  O_33
    3  A    between atoms: C_7  and  C_10
    4  A    between atoms: C_8  and  C_28
    5  A    between atoms: C_8  and  C_35
    6  A    between atoms: C_8  and  C_37
    7  A    between atoms: C_10  and  C_13
    8  A    between atoms: C_12  and  C_31
    9  A    between atoms: C_12  and  C_34
   10  A    between atoms: C_13  and  C_24
   11  A    between atoms: C_14  and  C_31
   12  A    between atoms: C_18  and  C_35
   13  A    between atoms: C_24  and  C_35
   14  A    between atoms: O_33  and  C_36
                            x       y       z     vdW  Elec       q    Type
                         _______ _______ _______ _____ _____    ______ ____

>  <TORSDO>
F 14

$$$$
=
 OpenBabel11042416263D

 38 39  0  0  1  0  0  0  0  0999 V2000
  189.2130  172.9210  142.5190 O   0  0  0  0  0  0  0  0  0  0  0  0
  190.4080  175.0000  143.3800 C   0  0  0  0  0  0  0  0  0  0  0  0
  189.7940  173.9310  142.9370 C   0  0  0  0  0  0  0  0  0  0  0  0
  189.8420  174.1540  146.1100 C   0  0  0  0  0  1  0  0  0  0  0  0
  191.2660  174.5200  145.7160 C   0  0  2  0  0  0  0  0  0  0  0  0
  191.9600  173.5210  144.7910 C   0  0  1  0  0  3  0  0  0  0  0  0
  192.0600  175.1260  146.6940 O   0  0  0  0  0  1  0  0  0  0  0  0
  191.6120  174.9350  144.2940 C   0  0  1  0  0  3  0  0  0  0  0  0
  193.4670  173.3870  145.0730 C   0  0  1  0  0  3  0  0  0  0  0  0
  194.5010  171.3970  145.8610 O   0  0  0  0  0  0  0  0  0  0  0  0
  193.8420  171.9320  144.9820 C   0  0  0  0  0  3  0  0  0  0  0  0
  194.3580  174.2600  144.1420 C   0  0  1  0  0  3  0  0  0  0  0  0
  194.9330  176.5850  144.9840 C   0  0  0  0  0  1  0  0  0  0  0  0
  195.3770  175.1390  144.8900 C   0  0  1  0  0  3  0  0  0  0  0  0
  195.6930  174.6250  146.1490 O   0  0  0  0  0  1  0  0  0  0  0  0
  195.0810  173.3970  143.0770 C   0  0  2  0  0  3  0  0  0  0  0  0
  196.4570  173.6520  143.0350 O   0  0  0  0  0  1  0  0  0  0  0  0
  194.4940  173.5820  141.6810 C   0  0  0  0  0  2  0  0  0  0  0  0
  193.9840  175.0000  141.4650 C   0  0  0  0  0  2  0  0  0  0  0  0
  194.9740  175.7760  140.6710 C   0  0  0  0  0  0  0  0  0  0  0  0
  195.0880  175.5720  139.4340 O   0  0  0  0  0  0  0  0  0  0  0  0
  195.7680  176.7730  141.3010 N   0  0  0  0  0  1  0  0  0  0  0  0
  189.9460  176.3370  142.9010 C   0  0  0  0  0  2  0  0  0  0  0  0
  187.0400  176.0860  142.0620 C   0  0  0  0  0  1  0  0  0  0  0  0
  187.2360  177.2540  146.7160 C   0  0  0  0  0  1  0  0  0  0  0  0
  187.5110  176.7280  143.3230 C   0  0  0  0  0  0  0  0  0  0  0  0
  188.7720  176.8070  143.7070 C   0  0  0  0  0  0  0  0  0  0  0  0
  188.8860  177.4960  144.9390 N   0  0  0  0  0  0  0  0  0  0  0  0
  190.1360  177.8950  145.5670 C   0  0  0  0  0  1  0  0  0  0  0  0
  187.5690  177.9140  145.3890 C   0  0  1  0  0  3  0  0  0  0  0  0
  186.6070  177.4020  144.3070 C   0  0  1  0  0  3  0  0  0  0  0  0
  185.9770  178.4890  143.6960 O   0  0  0  0  0  0  0  0  0  0  0  0
  184.6580  178.4440  144.1530 C   0  0  0  0  0  2  0  0  0  0  0  0
  182.1750  178.6860  140.5380 O   0  0  0  0  0  0  0  0  0  0  0  0
  183.7260  178.5840  143.0020 C   0  0  0  0  0  0  0  0  0  0  0  0
  182.5600  179.0220  143.1990 O   0  0  0  0  0  0  0  0  0  0  0  0
  183.3570  178.2480  140.5110 C   0  0  0  0  0  3  0  0  0  0  0  0
  184.1550  178.1810  141.6980 N   0  0  0  0  0  2  0  0  0  0  0  0
  1  3  2  0  0  0  0
  3  2  2  0  0  0  0
  5  4  1  1  0  0  0
  5  7  1  0  0  0  0
  6  9  1  1  0  0  0
  6  5  1  0  0  0  0
  8  2  1  6  0  0  0
  8  6  1  0  0  0  0
  8  5  1  0  0  0  0
  9 11  1  6  0  0  0
 11 10  2  0  0  0  0
 12 16  1  6  0  0  0
 12 14  1  0  0  0  0
 12  9  1  0  0  0  0
 14 13  1  1  0  0  0
 14 15  1  0  0  0  0
 16 17  1  6  0  0  0
 18 16  1  0  0  0  0
 19 18  1  0  0  0  0
 20 22  1  0  0  0  0
 20 19  1  0  0  0  0
 21 20  2  0  0  0  0
 23  2  1  0  0  0  0
 23 27  1  0  0  0  0
 24 26  1  0  0  0  0
 26 27  2  0  0  0  0
 26 31  1  0  0  0  0
 27 28  1  0  0  0  0
 28 30  1  0  0  0  0
 28 29  1  0  0  0  0
 30 25  1  1  0  0  0
 31 32  1  6  0  0  0
 31 30  1  0  0  0  0
 32 33  1  0  0  0  0
 35 36  2  0  0  0  0
 35 33  1  0  0  0  0
 37 34  2  0  0  0  0
 37 38  1  0  0  0  0
 38 35  1  0  0  0  0
M  END
>  <MODEL>
9

>  <REMARK>
 VINA RESULT:      -6.5      2.615      9.548
  Name = 
  14 active torsions:
  status: ('A' for Active; 'I' for Inactive)
    1  A    between atoms: C_2  and  C_16
    2  A    between atoms: C_2  and  O_33
    3  A    between atoms: C_7  and  C_10
    4  A    between atoms: C_8  and  C_28
    5  A    between atoms: C_8  and  C_35
    6  A    between atoms: C_8  and  C_37
    7  A    between atoms: C_10  and  C_13
    8  A    between atoms: C_12  and  C_31
    9  A    between atoms: C_12  and  C_34
   10  A    between atoms: C_13  and  C_24
   11  A    between atoms: C_14  and  C_31
   12  A    between atoms: C_18  and  C_35
   13  A    between atoms: C_24  and  C_35
   14  A    between atoms: O_33  and  C_36
                            x       y       z     vdW  Elec       q    Type
                         _______ _______ _______ _____ _____    ______ ____

>  <TORSDO>
F 14

$$$$
