=
 OpenBabel11042415183D

 45 50  0  0  1  0  0  0  0  0999 V2000
  192.8190  174.0400  145.7910 O   0  0  0  0  0  0  0  0  0  0  0  0
  193.5470  174.7890  144.8330 C   0  0  1  0  0  3  0  0  0  0  0  0
  192.3490  175.3360  145.5210 C   0  0  1  0  0  0  0  0  0  0  0  0
  188.7610  175.6720  143.1740 C   0  0  0  0  0  0  0  0  0  0  0  0
  190.8820  176.5810  143.9300 C   0  0  0  0  0  3  0  0  0  0  0  0
  189.0010  174.5160  143.9280 C   0  0  0  0  0  3  0  0  0  0  0  0
  189.7190  176.6980  143.1680 C   0  0  0  0  0  3  0  0  0  0  0  0
  191.1030  175.4360  144.6990 C   0  0  0  0  0  0  0  0  0  0  0  0
  190.1600  174.4020  144.6950 C   0  0  0  0  0  3  0  0  0  0  0  0
  186.2700  176.1150  143.1000 C   0  0  0  0  0  2  0  0  0  0  0  0
  184.8370  177.9450  143.6920 O   0  0  0  0  0  1  0  0  0  0  0  0
  187.5340  175.7430  142.3120 C   0  0  1  0  0  3  0  0  0  0  0  0
  186.7710  177.7510  140.9180 C   0  0  0  0  0  2  0  0  0  0  0  0
  187.7780  176.6110  141.0680 C   0  0  0  0  0  2  0  0  0  0  0  0
  186.1590  177.6240  143.3790 C   0  0  2  0  0  3  0  0  0  0  0  0
  186.6580  178.5130  142.2350 C   0  0  0  0  0  2  0  0  0  0  0  0
  192.0700  177.3460  148.5880 O   0  0  0  0  0  0  0  0  0  0  0  0
  192.6070  176.2950  146.5930 N   0  0  0  0  0  2  0  0  0  0  0  0
  191.6660  176.6940  147.5940 C   0  0  0  0  0  0  0  0  0  0  0  0
  190.2100  176.3900  147.4590 C   0  0  0  0  0  2  0  0  0  0  0  0
  189.3870  177.6670  147.3040 C   0  0  0  0  0  2  0  0  0  0  0  0
  188.2070  177.4750  146.3630 C   0  0  0  0  0  2  0  0  0  0  0  0
  187.2620  176.3800  146.8350 C   0  0  0  0  0  2  0  0  0  0  0  0
  185.8760  178.4430  147.0000 C   0  0  0  0  0  1  0  0  0  0  0  0
  185.8530  176.9280  147.0430 C   0  0  0  0  0  2  0  0  0  0  0  0
  194.7490  175.2370  145.4060 O   0  0  0  0  0  0  0  0  0  0  0  0
  195.7020  175.1940  144.3800 C   0  0  1  0  0  3  0  0  0  0  0  0
  196.7410  176.9200  143.0700 O   0  0  0  0  0  1  0  0  0  0  0  0
  194.3300  175.5060  141.0930 C   0  0  1  0  0  3  0  0  0  0  0  0
  195.0690  175.3280  142.4030 C   0  0  2  0  0  0  0  0  0  0  0  0
  195.2590  174.1620  143.3230 C   0  0  0  0  0  2  0  0  0  0  0  0
  195.4960  176.3700  143.3970 C   0  0  1  0  0  3  0  0  0  0  0  0
  195.8360  175.2070  141.1030 C   0  0  0  0  0  2  0  0  0  0  0  0
  192.2120  174.3130  141.6050 C   0  0  0  0  0  2  0  0  0  0  0  0
  192.2820  173.0420  138.9770 C   0  0  2  0  0  3  0  0  0  0  0  0
  190.9570  173.2990  139.6680 C   0  0  0  0  0  0  0  0  0  0  0  0
  193.5110  174.2630  140.7720 C   0  0  1  0  0  3  0  0  0  0  0  0
  190.9630  173.8820  140.8780 C   0  0  0  0  0  3  0  0  0  0  0  0
  193.2440  174.1850  139.2690 C   0  0  0  0  0  2  0  0  0  0  0  0
  192.1450  172.9100  137.5920 O   0  0  0  0  0  0  0  0  0  0  0  0
  192.5960  174.1310  137.0730 C   0  0  0  0  0  1  0  0  0  0  0  0
  189.6510  172.9050  139.0680 C   0  0  0  0  0  0  0  0  0  0  0  0
  189.2610  171.7070  139.1160 O   0  0  0  0  0  0  0  0  0  0  0  0
  189.0410  174.2880  137.2310 O   0  0  0  0  0  0  0  0  0  0  0  0
  188.7970  173.9030  138.4060 C   0  0  0  0  0  3  0  0  0  0  0  0
  2 26  1  1  0  0  0
  2  3  1  0  0  0  0
  2  1  1  0  0  0  0
  3  1  1  0  0  0  0
  3 18  1  1  0  0  0
  4  6  1  0  0  0  0
  5  8  2  0  0  0  0
  6  9  2  0  0  0  0
  7  4  2  0  0  0  0
  7  5  1  0  0  0  0
  8  3  1  0  0  0  0
  9  8  1  0  0  0  0
 10 15  1  0  0  0  0
 12 10  1  0  0  0  0
 12  4  1  1  0  0  0
 13 14  1  0  0  0  0
 13 16  1  0  0  0  0
 14 12  1  0  0  0  0
 15 11  1  6  0  0  0
 16 15  1  0  0  0  0
 18 19  1  0  0  0  0
 19 17  2  0  0  0  0
 20 19  1  0  0  0  0
 21 20  1  0  0  0  0
 22 23  1  0  0  0  0
 22 21  1  0  0  0  0
 23 25  1  0  0  0  0
 24 25  1  0  0  0  0
 27 26  1  1  0  0  0
 29 33  1  6  0  0  0
 29 30  1  0  0  0  0
 30 33  1  6  0  0  0
 30 31  1  0  0  0  0
 30 32  1  0  0  0  0
 31 27  1  0  0  0  0
 32 28  1  6  0  0  0
 32 27  1  0  0  0  0
 35 40  1  6  0  0  0
 35 39  1  0  0  0  0
 35 36  1  0  0  0  0
 36 38  2  0  0  0  0
 37 39  1  6  0  0  0
 37 29  1  0  0  0  0
 37 34  1  0  0  0  0
 38 34  1  0  0  0  0
 41 40  1  0  0  0  0
 42 43  2  0  0  0  0
 42 36  1  0  0  0  0
 44 45  2  0  0  0  0
 45 42  1  0  0  0  0
M  END
>  <MODEL>
1

>  <REMARK>
 VINA RESULT:      -6.7      0.000      0.000
  Name = 
  14 active torsions:
  status: ('A' for Active; 'I' for Inactive)
    1  A    between atoms: C_2  and  O_32
    2  A    between atoms: C_3  and  C_34
    3  A    between atoms: C_3  and  C_41
    4  A    between atoms: O_4  and  C_24
    5  A    between atoms: C_7  and  C_18
    6  A    between atoms: C_10  and  C_30
    7  A    between atoms: C_13  and  C_29
    8  A    between atoms: C_13  and  C_33
    9  A    between atoms: C_15  and  C_22
   10  A    between atoms: C_15  and  C_40
   11  A    between atoms: C_22  and  C_41
   12  A    between atoms: N_27  and  C_43
   13  A    between atoms: C_31  and  O_32
   14  A    between atoms: C_37  and  C_43
                            x       y       z     vdW  Elec       q    Type
                         _______ _______ _______ _____ _____    ______ ____

>  <TORSDO>
F 14

$$$$
=
 OpenBabel11042415183D

 45 50  0  0  1  0  0  0  0  0999 V2000
  189.2480  172.4870  139.5130 O   0  0  0  0  0  0  0  0  0  0  0  0
  190.3750  173.2060  139.0430 C   0  0  1  0  0  3  0  0  0  0  0  0
  190.0830  173.0510  140.4920 C   0  0  1  0  0  0  0  0  0  0  0  0
  188.6130  176.5260  142.5540 C   0  0  0  0  0  0  0  0  0  0  0  0
  190.4420  175.0510  141.9410 C   0  0  0  0  0  3  0  0  0  0  0  0
  187.7410  175.7460  141.7840 C   0  0  0  0  0  3  0  0  0  0  0  0
  189.9710  176.1790  142.6150 C   0  0  0  0  0  3  0  0  0  0  0  0
  189.5620  174.2640  141.1940 C   0  0  0  0  0  0  0  0  0  0  0  0
  188.2090  174.6150  141.1160 C   0  0  0  0  0  3  0  0  0  0  0  0
  186.6670  178.1300  142.7750 C   0  0  0  0  0  2  0  0  0  0  0  0
  184.3570  177.9460  143.3940 O   0  0  0  0  0  1  0  0  0  0  0  0
  188.0940  177.7710  143.2140 C   0  0  1  0  0  3  0  0  0  0  0  0
  186.9940  177.9220  145.5210 C   0  0  0  0  0  2  0  0  0  0  0  0
  188.2890  177.7160  144.7360 C   0  0  0  0  0  2  0  0  0  0  0  0
  185.5910  177.3010  143.4980 C   0  0  2  0  0  3  0  0  0  0  0  0
  185.9070  177.0050  144.9680 C   0  0  0  0  0  2  0  0  0  0  0  0
  191.1940  170.4020  142.7890 O   0  0  0  0  0  0  0  0  0  0  0  0
  190.8980  172.0720  141.2090 N   0  0  0  0  0  2  0  0  0  0  0  0
  190.5060  171.3770  142.3960 C   0  0  0  0  0  0  0  0  0  0  0  0
  189.3250  171.8120  143.2000 C   0  0  0  0  0  2  0  0  0  0  0  0
  189.6910  171.9970  144.6710 C   0  0  0  0  0  2  0  0  0  0  0  0
  190.5070  173.2610  144.9000 C   0  0  0  0  0  2  0  0  0  0  0  0
  189.7910  174.2570  145.8020 C   0  0  0  0  0  2  0  0  0  0  0  0
  190.9910  175.3780  147.6760 C   0  0  0  0  0  1  0  0  0  0  0  0
  190.7170  175.4080  146.1850 C   0  0  0  0  0  2  0  0  0  0  0  0
  191.3500  172.3010  138.5900 O   0  0  0  0  0  0  0  0  0  0  0  0
  192.3270  173.0780  137.9540 C   0  0  1  0  0  3  0  0  0  0  0  0
  194.4000  172.5020  136.8820 O   0  0  0  0  0  1  0  0  0  0  0  0
  195.2050  173.7520  139.9660 C   0  0  1  0  0  3  0  0  0  0  0  0
  194.0530  173.5910  138.9970 C   0  0  2  0  0  0  0  0  0  0  0  0
  192.7150  174.2530  138.8720 C   0  0  0  0  0  2  0  0  0  0  0  0
  193.7220  172.4280  138.1050 C   0  0  1  0  0  3  0  0  0  0  0  0
  195.2120  174.4880  138.6200 C   0  0  0  0  0  2  0  0  0  0  0  0
  193.9500  173.8670  142.1080 C   0  0  0  0  0  2  0  0  0  0  0  0
  195.6690  176.0500  143.0070 C   0  0  2  0  0  3  0  0  0  0  0  0
  195.0270  175.1150  144.0150 C   0  0  0  0  0  0  0  0  0  0  0  0
  194.8090  174.6750  141.1110 C   0  0  1  0  0  3  0  0  0  0  0  0
  194.2400  174.1250  143.5660 C   0  0  0  0  0  3  0  0  0  0  0  0
  196.0590  175.2710  141.7600 C   0  0  0  0  0  2  0  0  0  0  0  0
  196.8050  176.6850  143.5170 O   0  0  0  0  0  0  0  0  0  0  0  0
  197.8830  175.9810  142.9640 C   0  0  0  0  0  1  0  0  0  0  0  0
  195.2160  175.2710  145.4850 C   0  0  0  0  0  0  0  0  0  0  0  0
  196.0410  174.5450  146.1030 O   0  0  0  0  0  0  0  0  0  0  0  0
  193.7530  177.1390  145.6450 O   0  0  0  0  0  0  0  0  0  0  0  0
  194.4440  176.2690  146.2400 C   0  0  0  0  0  3  0  0  0  0  0  0
  1  3  1  0  0  0  0
  2 26  1  1  0  0  0
  2  1  1  0  0  0  0
  2  3  1  0  0  0  0
  3  8  1  0  0  0  0
  3 18  1  1  0  0  0
  4  7  1  0  0  0  0
  5  7  2  0  0  0  0
  6  4  2  0  0  0  0
  8  5  1  0  0  0  0
  9  8  2  0  0  0  0
  9  6  1  0  0  0  0
 10 12  1  0  0  0  0
 10 15  1  0  0  0  0
 12  4  1  6  0  0  0
 12 14  1  0  0  0  0
 14 13  1  0  0  0  0
 15 11  1  1  0  0  0
 15 16  1  0  0  0  0
 16 13  1  0  0  0  0
 18 19  1  0  0  0  0
 19 17  2  0  0  0  0
 19 20  1  0  0  0  0
 20 21  1  0  0  0  0
 21 22  1  0  0  0  0
 22 23  1  0  0  0  0
 23 25  1  0  0  0  0
 25 24  1  0  0  0  0
 27 32  1  0  0  0  0
 27 26  1  1  0  0  0
 27 31  1  0  0  0  0
 29 33  1  6  0  0  0
 29 37  1  0  0  0  0
 30 33  1  6  0  0  0
 30 29  1  0  0  0  0
 31 30  1  0  0  0  0
 32 28  1  6  0  0  0
 32 30  1  0  0  0  0
 34 38  1  0  0  0  0
 35 40  1  1  0  0  0
 35 36  1  0  0  0  0
 36 42  1  0  0  0  0
 37 39  1  1  0  0  0
 37 34  1  0  0  0  0
 38 36  2  0  0  0  0
 39 35  1  0  0  0  0
 41 40  1  0  0  0  0
 42 43  2  0  0  0  0
 42 45  1  0  0  0  0
 44 45  2  0  0  0  0
M  END
>  <MODEL>
2

>  <REMARK>
 VINA RESULT:      -6.3      1.952      5.830
  Name = 
  14 active torsions:
  status: ('A' for Active; 'I' for Inactive)
    1  A    between atoms: C_2  and  O_32
    2  A    between atoms: C_3  and  C_34
    3  A    between atoms: C_3  and  C_41
    4  A    between atoms: O_4  and  C_24
    5  A    between atoms: C_7  and  C_18
    6  A    between atoms: C_10  and  C_30
    7  A    between atoms: C_13  and  C_29
    8  A    between atoms: C_13  and  C_33
    9  A    between atoms: C_15  and  C_22
   10  A    between atoms: C_15  and  C_40
   11  A    between atoms: C_22  and  C_41
   12  A    between atoms: N_27  and  C_43
   13  A    between atoms: C_31  and  O_32
   14  A    between atoms: C_37  and  C_43
                            x       y       z     vdW  Elec       q    Type
                         _______ _______ _______ _____ _____    ______ ____

>  <TORSDO>
F 14

$$$$
=
 OpenBabel11042415183D

 45 50  0  0  1  0  0  0  0  0999 V2000
  193.3270  174.8680  143.4840 O   0  0  0  0  0  0  0  0  0  0  0  0
  193.6510  175.9170  142.5890 C   0  0  1  0  0  3  0  0  0  0  0  0
  192.6370  176.0780  143.6630 C   0  0  1  0  0  0  0  0  0  0  0  0
  188.5170  176.1820  142.4350 C   0  0  0  0  0  0  0  0  0  0  0  0
  190.5650  177.3300  143.0560 C   0  0  0  0  0  3  0  0  0  0  0  0
  189.1750  174.9540  142.5810 C   0  0  0  0  0  3  0  0  0  0  0  0
  189.2270  177.3720  142.6600 C   0  0  0  0  0  3  0  0  0  0  0  0
  191.2070  176.1020  143.2230 C   0  0  0  0  0  0  0  0  0  0  0  0
  190.5090  174.9120  142.9830 C   0  0  0  0  0  3  0  0  0  0  0  0
  186.0730  176.3190  143.0810 C   0  0  0  0  0  2  0  0  0  0  0  0
  184.7050  177.8780  144.2850 O   0  0  0  0  0  1  0  0  0  0  0  0
  187.0980  176.2000  141.9440 C   0  0  1  0  0  3  0  0  0  0  0  0
  185.8070  178.2450  141.1030 C   0  0  0  0  0  2  0  0  0  0  0  0
  186.9130  177.2280  140.8180 C   0  0  0  0  0  2  0  0  0  0  0  0
  185.9120  177.7610  143.5930 C   0  0  2  0  0  3  0  0  0  0  0  0
  185.9950  178.8310  142.5000 C   0  0  0  0  0  2  0  0  0  0  0  0
  193.5990  177.0150  147.0870 O   0  0  0  0  0  0  0  0  0  0  0  0
  193.0630  176.8340  144.8390 N   0  0  0  0  0  2  0  0  0  0  0  0
  192.9990  176.3710  146.1910 C   0  0  0  0  0  0  0  0  0  0  0  0
  192.2010  175.1650  146.5650 C   0  0  0  0  0  2  0  0  0  0  0  0
  191.2230  175.4750  147.6950 C   0  0  0  0  0  2  0  0  0  0  0  0
  189.8410  174.8960  147.4280 C   0  0  0  0  0  2  0  0  0  0  0  0
  189.1600  175.5490  146.2330 C   0  0  0  0  0  2  0  0  0  0  0  0
  187.5040  177.3490  146.7060 C   0  0  0  0  0  1  0  0  0  0  0  0
  188.9700  177.0450  146.4660 C   0  0  0  0  0  2  0  0  0  0  0  0
  194.8980  176.4620  142.9400 O   0  0  0  0  0  0  0  0  0  0  0  0
  195.8070  175.9810  141.9880 C   0  0  1  0  0  3  0  0  0  0  0  0
  195.5010  175.0120  139.8100 O   0  0  0  0  0  1  0  0  0  0  0  0
  196.1480  172.4220  141.9530 C   0  0  1  0  0  3  0  0  0  0  0  0
  196.1500  173.9330  141.8570 C   0  0  2  0  0  0  0  0  0  0  0  0
  196.7910  175.0130  142.6740 C   0  0  0  0  0  2  0  0  0  0  0  0
  195.1740  174.8390  141.1600 C   0  0  1  0  0  3  0  0  0  0  0  0
  197.1310  173.1410  141.0200 C   0  0  0  0  0  2  0  0  0  0  0  0
  195.9560  172.4450  144.4310 C   0  0  0  0  0  2  0  0  0  0  0  0
  197.5320  169.9910  144.5830 C   0  0  2  0  0  3  0  0  0  0  0  0
  196.5050  170.3100  145.6530 C   0  0  0  0  0  0  0  0  0  0  0  0
  196.8210  171.9710  143.2420 C   0  0  1  0  0  3  0  0  0  0  0  0
  195.8020  171.4490  145.5530 C   0  0  0  0  0  3  0  0  0  0  0  0
  197.0210  170.4550  143.2270 C   0  0  0  0  0  2  0  0  0  0  0  0
  197.8220  168.6250  144.5130 O   0  0  0  0  0  0  0  0  0  0  0  0
  197.1140  168.1690  143.3930 C   0  0  0  0  0  1  0  0  0  0  0  0
  196.2670  169.4210  146.8250 C   0  0  0  0  0  0  0  0  0  0  0  0
  197.1650  169.2590  147.6970 O   0  0  0  0  0  0  0  0  0  0  0  0
  194.4220  168.1670  146.0000 O   0  0  0  0  0  0  0  0  0  0  0  0
  194.9880  168.7140  146.9850 C   0  0  0  0  0  3  0  0  0  0  0  0
  1  3  1  0  0  0  0
  2 26  1  1  0  0  0
  2  1  1  0  0  0  0
  2  3  1  0  0  0  0
  3 18  1  1  0  0  0
  4  6  2  0  0  0  0
  4  7  1  0  0  0  0
  5  8  1  0  0  0  0
  6  9  1  0  0  0  0
  7  5  2  0  0  0  0
  8  3  1  0  0  0  0
  9  8  2  0  0  0  0
 10 15  1  0  0  0  0
 12  4  1  1  0  0  0
 12 10  1  0  0  0  0
 13 16  1  0  0  0  0
 14 13  1  0  0  0  0
 14 12  1  0  0  0  0
 15 11  1  6  0  0  0
 16 15  1  0  0  0  0
 18 19  1  0  0  0  0
 19 20  1  0  0  0  0
 19 17  2  0  0  0  0
 20 21  1  0  0  0  0
 22 21  1  0  0  0  0
 23 25  1  0  0  0  0
 23 22  1  0  0  0  0
 25 24  1  0  0  0  0
 27 31  1  0  0  0  0
 27 26  1  1  0  0  0
 29 33  1  6  0  0  0
 29 37  1  0  0  0  0
 30 33  1  6  0  0  0
 30 29  1  0  0  0  0
 30 31  1  0  0  0  0
 32 28  1  6  0  0  0
 32 30  1  0  0  0  0
 32 27  1  0  0  0  0
 34 38  1  0  0  0  0
 35 40  1  6  0  0  0
 35 36  1  0  0  0  0
 36 42  1  0  0  0  0
 37 39  1  6  0  0  0
 37 34  1  0  0  0  0
 38 36  2  0  0  0  0
 39 35  1  0  0  0  0
 41 40  1  0  0  0  0
 42 45  1  0  0  0  0
 42 43  2  0  0  0  0
 44 45  2  0  0  0  0
M  END
>  <MODEL>
3

>  <REMARK>
 VINA RESULT:      -6.1      3.068      5.105
  Name = 
  14 active torsions:
  status: ('A' for Active; 'I' for Inactive)
    1  A    between atoms: C_2  and  O_32
    2  A    between atoms: C_3  and  C_34
    3  A    between atoms: C_3  and  C_41
    4  A    between atoms: O_4  and  C_24
    5  A    between atoms: C_7  and  C_18
    6  A    between atoms: C_10  and  C_30
    7  A    between atoms: C_13  and  C_29
    8  A    between atoms: C_13  and  C_33
    9  A    between atoms: C_15  and  C_22
   10  A    between atoms: C_15  and  C_40
   11  A    between atoms: C_22  and  C_41
   12  A    between atoms: N_27  and  C_43
   13  A    between atoms: C_31  and  O_32
   14  A    between atoms: C_37  and  C_43
                            x       y       z     vdW  Elec       q    Type
                         _______ _______ _______ _____ _____    ______ ____

>  <TORSDO>
F 14

$$$$
=
 OpenBabel11042415183D

 45 50  0  0  1  0  0  0  0  0999 V2000
  193.2190  176.3260  146.3400 O   0  0  0  0  0  0  0  0  0  0  0  0
  193.0520  174.9190  146.3510 C   0  0  1  0  0  3  0  0  0  0  0  0
  192.2460  175.8050  145.4710 C   0  0  1  0  0  0  0  0  0  0  0  0
  188.1280  176.3840  146.5660 C   0  0  0  0  0  0  0  0  0  0  0  0
  189.8490  175.1110  145.4190 C   0  0  0  0  0  3  0  0  0  0  0  0
  189.1100  177.2670  147.0340 C   0  0  0  0  0  3  0  0  0  0  0  0
  188.5100  175.2940  145.7690 C   0  0  0  0  0  3  0  0  0  0  0  0
  190.8190  176.0090  145.8700 C   0  0  0  0  0  0  0  0  0  0  0  0
  190.4460  177.0880  146.6800 C   0  0  0  0  0  3  0  0  0  0  0  0
  186.5220  177.7690  147.9470 C   0  0  0  0  0  2  0  0  0  0  0  0
  185.8680  180.0760  148.0130 O   0  0  0  0  0  1  0  0  0  0  0  0
  186.7060  176.5660  147.0110 C   0  0  1  0  0  3  0  0  0  0  0  0
  184.8560  177.7870  145.7300 C   0  0  0  0  0  2  0  0  0  0  0  0
  185.7420  176.5440  145.8160 C   0  0  0  0  0  2  0  0  0  0  0  0
  186.4550  179.1090  147.1940 C   0  0  2  0  0  3  0  0  0  0  0  0
  185.7180  179.0410  145.8520 C   0  0  0  0  0  2  0  0  0  0  0  0
  192.8780  176.8940  142.0160 O   0  0  0  0  0  0  0  0  0  0  0  0
  192.6340  175.8330  144.0620 N   0  0  0  0  0  2  0  0  0  0  0  0
  192.3020  176.8680  143.1320 C   0  0  0  0  0  0  0  0  0  0  0  0
  191.2570  177.8890  143.4420 C   0  0  0  0  0  2  0  0  0  0  0  0
  189.9860  177.6470  142.6310 C   0  0  0  0  0  2  0  0  0  0  0  0
  188.7360  178.0640  143.3930 C   0  0  0  0  0  2  0  0  0  0  0  0
  187.4780  177.4070  142.8430 C   0  0  0  0  0  2  0  0  0  0  0  0
  186.0890  177.9160  140.8370 C   0  0  0  0  0  1  0  0  0  0  0  0
  187.4550  177.4660  141.3180 C   0  0  0  0  0  2  0  0  0  0  0  0
  194.1240  174.3160  145.6720 O   0  0  0  0  0  0  0  0  0  0  0  0
  193.9060  172.9350  145.7630 C   0  0  1  0  0  3  0  0  0  0  0  0
  195.3500  171.0470  145.4050 O   0  0  0  0  0  1  0  0  0  0  0  0
  193.3890  171.3230  142.6130 C   0  0  1  0  0  3  0  0  0  0  0  0
  193.5540  171.8480  144.0240 C   0  0  2  0  0  0  0  0  0  0  0  0
  192.6390  172.5700  144.9640 C   0  0  0  0  0  2  0  0  0  0  0  0
  194.8170  172.1740  144.7700 C   0  0  1  0  0  3  0  0  0  0  0  0
  193.1880  170.3930  143.8170 C   0  0  0  0  0  2  0  0  0  0  0  0
  192.1810  173.2800  141.6700 C   0  0  0  0  0  2  0  0  0  0  0  0
  190.4560  171.4890  140.1400 C   0  0  2  0  0  3  0  0  0  0  0  0
  190.7540  172.8860  139.6300 C   0  0  0  0  0  0  0  0  0  0  0  0
  192.0600  171.7830  142.0280 C   0  0  1  0  0  3  0  0  0  0  0  0
  191.5480  173.6840  140.3620 C   0  0  0  0  0  3  0  0  0  0  0  0
  191.6900  170.9180  140.8230 C   0  0  0  0  0  2  0  0  0  0  0  0
  190.0630  170.6200  139.1170 O   0  0  0  0  0  0  0  0  0  0  0  0
  191.2010  169.8460  138.8530 C   0  0  0  0  0  1  0  0  0  0  0  0
  190.1760  173.4160  138.3630 C   0  0  0  0  0  0  0  0  0  0  0  0
  190.8430  173.3800  137.2930 O   0  0  0  0  0  0  0  0  0  0  0  0
  188.1920  174.2120  139.4050 O   0  0  0  0  0  0  0  0  0  0  0  0
  188.8240  173.9930  138.3370 C   0  0  0  0  0  3  0  0  0  0  0  0
  1  2  1  0  0  0  0
  2 26  1  6  0  0  0
  3 18  1  6  0  0  0
  3  8  1  0  0  0  0
  3  1  1  0  0  0  0
  3  2  1  0  0  0  0
  4  6  1  0  0  0  0
  5  7  1  0  0  0  0
  5  8  2  0  0  0  0
  7  4  2  0  0  0  0
  8  9  1  0  0  0  0
  9  6  2  0  0  0  0
 12  4  1  6  0  0  0
 12 10  1  0  0  0  0
 13 14  1  0  0  0  0
 13 16  1  0  0  0  0
 14 12  1  0  0  0  0
 15 10  1  0  0  0  0
 15 11  1  1  0  0  0
 16 15  1  0  0  0  0
 17 19  2  0  0  0  0
 19 20  1  0  0  0  0
 19 18  1  0  0  0  0
 21 22  1  0  0  0  0
 21 20  1  0  0  0  0
 23 22  1  0  0  0  0
 24 25  1  0  0  0  0
 25 23  1  0  0  0  0
 27 26  1  6  0  0  0
 29 33  1  1  0  0  0
 29 30  1  0  0  0  0
 30 33  1  1  0  0  0
 30 32  1  0  0  0  0
 30 31  1  0  0  0  0
 31 27  1  0  0  0  0
 32 28  1  1  0  0  0
 32 27  1  0  0  0  0
 34 37  1  0  0  0  0
 35 40  1  6  0  0  0
 35 39  1  0  0  0  0
 36 35  1  0  0  0  0
 36 38  2  0  0  0  0
 37 39  1  6  0  0  0
 37 29  1  0  0  0  0
 38 34  1  0  0  0  0
 41 40  1  0  0  0  0
 42 36  1  0  0  0  0
 43 42  2  0  0  0  0
 45 42  1  0  0  0  0
 45 44  2  0  0  0  0
M  END
>  <MODEL>
4

>  <REMARK>
 VINA RESULT:      -5.9      2.094      3.899
  Name = 
  14 active torsions:
  status: ('A' for Active; 'I' for Inactive)
    1  A    between atoms: C_2  and  O_32
    2  A    between atoms: C_3  and  C_34
    3  A    between atoms: C_3  and  C_41
    4  A    between atoms: O_4  and  C_24
    5  A    between atoms: C_7  and  C_18
    6  A    between atoms: C_10  and  C_30
    7  A    between atoms: C_13  and  C_29
    8  A    between atoms: C_13  and  C_33
    9  A    between atoms: C_15  and  C_22
   10  A    between atoms: C_15  and  C_40
   11  A    between atoms: C_22  and  C_41
   12  A    between atoms: N_27  and  C_43
   13  A    between atoms: C_31  and  O_32
   14  A    between atoms: C_37  and  C_43
                            x       y       z     vdW  Elec       q    Type
                         _______ _______ _______ _____ _____    ______ ____

>  <TORSDO>
F 14

$$$$
=
 OpenBabel11042415183D

 45 50  0  0  1  0  0  0  0  0999 V2000
  187.5120  173.1120  141.5760 O   0  0  0  0  0  0  0  0  0  0  0  0
  188.1010  174.1880  142.2850 C   0  0  1  0  0  3  0  0  0  0  0  0
  188.7230  173.6090  141.0670 C   0  0  1  0  0  0  0  0  0  0  0  0
  192.2230  171.1760  141.6420 C   0  0  0  0  0  0  0  0  0  0  0  0
  191.1690  173.1920  140.7920 C   0  0  0  0  0  3  0  0  0  0  0  0
  190.9870  170.7610  142.1540 C   0  0  0  0  0  3  0  0  0  0  0  0
  192.3080  172.4070  140.9730 C   0  0  0  0  0  3  0  0  0  0  0  0
  189.9360  172.7600  141.2840 C   0  0  0  0  0  0  0  0  0  0  0  0
  189.8470  171.5420  141.9680 C   0  0  0  0  0  3  0  0  0  0  0  0
  194.2530  170.8410  143.1150 C   0  0  0  0  0  2  0  0  0  0  0  0
  194.6310  170.4910  145.4570 O   0  0  0  0  0  1  0  0  0  0  0  0
  193.4440  170.3450  141.9080 C   0  0  1  0  0  3  0  0  0  0  0  0
  193.5360  168.1660  143.2500 C   0  0  0  0  0  2  0  0  0  0  0  0
  193.0990  168.8490  141.9540 C   0  0  0  0  0  2  0  0  0  0  0  0
  193.6580  170.3940  144.4610 C   0  0  2  0  0  3  0  0  0  0  0  0
  193.0590  168.9840  144.4470 C   0  0  0  0  0  2  0  0  0  0  0  0
  188.0890  174.6010  137.5830 O   0  0  0  0  0  0  0  0  0  0  0  0
  188.5750  174.3880  139.8390 N   0  0  0  0  0  2  0  0  0  0  0  0
  188.4340  173.8440  138.5240 C   0  0  0  0  0  0  0  0  0  0  0  0
  188.7300  172.4080  138.2380 C   0  0  0  0  0  2  0  0  0  0  0  0
  189.9780  172.2590  137.3710 C   0  0  0  0  0  2  0  0  0  0  0  0
  190.7340  170.9740  137.6750 C   0  0  0  0  0  2  0  0  0  0  0  0
  189.8080  169.8450  138.1040 C   0  0  0  0  0  2  0  0  0  0  0  0
  191.8370  168.4860  138.5970 C   0  0  0  0  0  1  0  0  0  0  0  0
  190.4890  168.9390  139.1250 C   0  0  0  0  0  2  0  0  0  0  0  0
  187.3890  175.3690  142.0170 O   0  0  0  0  0  0  0  0  0  0  0  0
  187.2750  176.0340  143.2450 C   0  0  1  0  0  3  0  0  0  0  0  0
  187.1460  178.3670  143.8100 O   0  0  0  0  0  1  0  0  0  0  0  0
  190.3520  177.3720  144.4800 C   0  0  1  0  0  3  0  0  0  0  0  0
  188.9790  176.8440  144.1220 C   0  0  2  0  0  0  0  0  0  0  0  0
  188.3430  175.4910  144.2150 C   0  0  0  0  0  2  0  0  0  0  0  0
  187.9600  177.4190  143.1790 C   0  0  1  0  0  3  0  0  0  0  0  0
  189.1840  177.5120  145.4650 C   0  0  0  0  0  2  0  0  0  0  0  0
  191.6280  175.4370  143.5810 C   0  0  0  0  0  2  0  0  0  0  0  0
  193.5150  175.6410  145.8000 C   0  0  2  0  0  3  0  0  0  0  0  0
  193.9620  175.0800  144.4630 C   0  0  0  0  0  0  0  0  0  0  0  0
  191.2780  176.2250  144.8630 C   0  0  1  0  0  3  0  0  0  0  0  0
  193.0660  174.9970  143.4670 C   0  0  0  0  0  3  0  0  0  0  0  0
  192.5170  176.7670  145.5770 C   0  0  0  0  0  2  0  0  0  0  0  0
  194.5840  176.1280  146.5580 O   0  0  0  0  0  0  0  0  0  0  0  0
  194.6240  177.5000  146.2740 C   0  0  0  0  0  1  0  0  0  0  0  0
  195.3490  174.5920  144.2230 C   0  0  0  0  0  0  0  0  0  0  0  0
  196.0390  175.0660  143.2800 O   0  0  0  0  0  0  0  0  0  0  0  0
  196.7930  173.8370  145.9560 O   0  0  0  0  0  0  0  0  0  0  0  0
  195.9370  173.5490  145.0760 C   0  0  0  0  0  3  0  0  0  0  0  0
  1  2  1  0  0  0  0
  2 26  1  6  0  0  0
  3 18  1  6  0  0  0
  3  8  1  0  0  0  0
  3  1  1  0  0  0  0
  3  2  1  0  0  0  0
  4  6  1  0  0  0  0
  5  7  1  0  0  0  0
  5  8  2  0  0  0  0
  7  4  2  0  0  0  0
  8  9  1  0  0  0  0
  9  6  2  0  0  0  0
 10 15  1  0  0  0  0
 12  4  1  1  0  0  0
 12 14  1  0  0  0  0
 12 10  1  0  0  0  0
 13 16  1  0  0  0  0
 14 13  1  0  0  0  0
 15 11  1  1  0  0  0
 16 15  1  0  0  0  0
 17 19  2  0  0  0  0
 19 18  1  0  0  0  0
 20 19  1  0  0  0  0
 21 22  1  0  0  0  0
 21 20  1  0  0  0  0
 22 23  1  0  0  0  0
 23 25  1  0  0  0  0
 24 25  1  0  0  0  0
 27 26  1  6  0  0  0
 27 31  1  0  0  0  0
 29 37  1  0  0  0  0
 29 33  1  1  0  0  0
 30 31  1  1  0  0  0
 30 29  1  0  0  0  0
 30 33  1  0  0  0  0
 32 27  1  0  0  0  0
 32 28  1  1  0  0  0
 32 30  1  0  0  0  0
 35 40  1  6  0  0  0
 36 35  1  0  0  0  0
 37 34  1  6  0  0  0
 37 39  1  0  0  0  0
 38 34  1  0  0  0  0
 38 36  2  0  0  0  0
 39 35  1  0  0  0  0
 41 40  1  0  0  0  0
 42 36  1  0  0  0  0
 42 45  1  0  0  0  0
 43 42  2  0  0  0  0
 45 44  2  0  0  0  0
M  END
>  <MODEL>
5

>  <REMARK>
 VINA RESULT:      -5.8      3.016      8.725
  Name = 
  14 active torsions:
  status: ('A' for Active; 'I' for Inactive)
    1  A    between atoms: C_2  and  O_32
    2  A    between atoms: C_3  and  C_34
    3  A    between atoms: C_3  and  C_41
    4  A    between atoms: O_4  and  C_24
    5  A    between atoms: C_7  and  C_18
    6  A    between atoms: C_10  and  C_30
    7  A    between atoms: C_13  and  C_29
    8  A    between atoms: C_13  and  C_33
    9  A    between atoms: C_15  and  C_22
   10  A    between atoms: C_15  and  C_40
   11  A    between atoms: C_22  and  C_41
   12  A    between atoms: N_27  and  C_43
   13  A    between atoms: C_31  and  O_32
   14  A    between atoms: C_37  and  C_43
                            x       y       z     vdW  Elec       q    Type
                         _______ _______ _______ _____ _____    ______ ____

>  <TORSDO>
F 14

$$$$
=
 OpenBabel11042415183D

 45 50  0  0  1  0  0  0  0  0999 V2000
  190.2640  170.7230  141.9900 O   0  0  0  0  0  0  0  0  0  0  0  0
  189.8600  171.9820  141.4810 C   0  0  1  0  0  3  0  0  0  0  0  0
  191.2790  171.5410  141.4680 C   0  0  1  0  0  0  0  0  0  0  0  0
  193.9170  173.4320  144.2890 C   0  0  0  0  0  0  0  0  0  0  0  0
  192.9140  173.3250  142.0800 C   0  0  0  0  0  3  0  0  0  0  0  0
  193.1640  172.3150  144.6720 C   0  0  0  0  0  3  0  0  0  0  0  0
  193.7740  173.9420  142.9900 C   0  0  0  0  0  3  0  0  0  0  0  0
  192.1840  172.1980  142.4620 C   0  0  0  0  0  0  0  0  0  0  0  0
  192.3090  171.6940  143.7620 C   0  0  0  0  0  3  0  0  0  0  0  0
  195.8700  174.9960  144.6710 C   0  0  0  0  0  2  0  0  0  0  0  0
  196.4050  177.2510  144.0530 O   0  0  0  0  0  1  0  0  0  0  0  0
  194.7830  174.1160  145.3060 C   0  0  1  0  0  3  0  0  0  0  0  0
  194.2660  176.3170  146.5090 C   0  0  0  0  0  2  0  0  0  0  0  0
  193.9350  174.8310  146.3680 C   0  0  0  0  0  2  0  0  0  0  0  0
  195.3380  176.3630  144.2080 C   0  0  2  0  0  3  0  0  0  0  0  0
  194.2780  176.9730  145.1310 C   0  0  0  0  0  2  0  0  0  0  0  0
  192.7920  169.5160  138.7960 O   0  0  0  0  0  0  0  0  0  0  0  0
  191.7990  171.0890  140.1790 N   0  0  0  0  0  2  0  0  0  0  0  0
  192.5980  169.9210  139.9690 C   0  0  0  0  0  0  0  0  0  0  0  0
  193.2390  169.2010  141.1100 C   0  0  0  0  0  2  0  0  0  0  0  0
  194.7620  169.2910  141.0380 C   0  0  0  0  0  2  0  0  0  0  0  0
  195.2580  170.7200  141.2100 C   0  0  0  0  0  2  0  0  0  0  0  0
  196.3730  170.8250  142.2410 C   0  0  0  0  0  2  0  0  0  0  0  0
  196.4890  170.8610  144.7300 C   0  0  0  0  0  1  0  0  0  0  0  0
  196.0010  170.0840  143.5220 C   0  0  0  0  0  2  0  0  0  0  0  0
  189.2290  171.8020  140.2380 O   0  0  0  0  0  0  0  0  0  0  0  0
  188.2090  172.7610  140.1840 C   0  0  1  0  0  3  0  0  0  0  0  0
  188.0010  174.8290  138.9770 O   0  0  0  0  0  1  0  0  0  0  0  0
  188.8100  175.6530  142.2000 C   0  0  1  0  0  3  0  0  0  0  0  0
  188.3840  174.4920  141.3260 C   0  0  2  0  0  0  0  0  0  0  0  0
  187.8010  173.1450  141.6210 C   0  0  0  0  0  2  0  0  0  0  0  0
  188.7980  174.1670  139.9180 C   0  0  1  0  0  3  0  0  0  0  0  0
  187.4180  175.6350  141.5530 C   0  0  0  0  0  2  0  0  0  0  0  0
  190.0900  174.5810  144.0410 C   0  0  0  0  0  2  0  0  0  0  0  0
  188.5740  176.1230  146.0040 C   0  0  2  0  0  3  0  0  0  0  0  0
  189.9910  175.6750  146.3090 C   0  0  0  0  0  0  0  0  0  0  0  0
  188.7520  175.2590  143.6700 C   0  0  1  0  0  3  0  0  0  0  0  0
  190.6560  174.9650  145.3850 C   0  0  0  0  0  3  0  0  0  0  0  0
  188.4570  176.4880  144.5310 C   0  0  0  0  0  2  0  0  0  0  0  0
  188.1840  177.2230  146.7730 O   0  0  0  0  0  0  0  0  0  0  0  0
  186.8210  177.0150  147.0230 C   0  0  0  0  0  1  0  0  0  0  0  0
  190.6610  175.9720  147.6070 C   0  0  0  0  0  0  0  0  0  0  0  0
  190.9950  175.0350  148.3820 O   0  0  0  0  0  0  0  0  0  0  0  0
  191.5980  177.6100  149.0550 O   0  0  0  0  0  0  0  0  0  0  0  0
  190.9430  177.3580  148.0080 C   0  0  0  0  0  3  0  0  0  0  0  0
  2 26  1  6  0  0  0
  2  1  1  0  0  0  0
  3 18  1  6  0  0  0
  3  2  1  0  0  0  0
  3  1  1  0  0  0  0
  3  8  1  0  0  0  0
  4  6  1  0  0  0  0
  5  8  2  0  0  0  0
  5  7  1  0  0  0  0
  7  4  2  0  0  0  0
  8  9  1  0  0  0  0
  9  6  2  0  0  0  0
 10 12  1  0  0  0  0
 12  4  1  6  0  0  0
 12 14  1  0  0  0  0
 14 13  1  0  0  0  0
 15 11  1  1  0  0  0
 15 10  1  0  0  0  0
 15 16  1  0  0  0  0
 16 13  1  0  0  0  0
 17 19  2  0  0  0  0
 19 18  1  0  0  0  0
 19 20  1  0  0  0  0
 21 20  1  0  0  0  0
 21 22  1  0  0  0  0
 22 23  1  0  0  0  0
 23 25  1  0  0  0  0
 25 24  1  0  0  0  0
 27 26  1  1  0  0  0
 27 31  1  0  0  0  0
 29 33  1  1  0  0  0
 29 37  1  0  0  0  0
 30 33  1  6  0  0  0
 30 31  1  0  0  0  0
 30 29  1  0  0  0  0
 32 28  1  6  0  0  0
 32 27  1  0  0  0  0
 32 30  1  0  0  0  0
 34 38  1  0  0  0  0
 35 36  1  0  0  0  0
 35 40  1  1  0  0  0
 36 42  1  0  0  0  0
 37 34  1  1  0  0  0
 37 39  1  0  0  0  0
 38 36  2  0  0  0  0
 39 35  1  0  0  0  0
 40 41  1  0  0  0  0
 42 45  1  0  0  0  0
 42 43  2  0  0  0  0
 45 44  2  0  0  0  0
M  END
>  <MODEL>
6

>  <REMARK>
 VINA RESULT:      -5.7      2.692      8.777
  Name = 
  14 active torsions:
  status: ('A' for Active; 'I' for Inactive)
    1  A    between atoms: C_2  and  O_32
    2  A    between atoms: C_3  and  C_34
    3  A    between atoms: C_3  and  C_41
    4  A    between atoms: O_4  and  C_24
    5  A    between atoms: C_7  and  C_18
    6  A    between atoms: C_10  and  C_30
    7  A    between atoms: C_13  and  C_29
    8  A    between atoms: C_13  and  C_33
    9  A    between atoms: C_15  and  C_22
   10  A    between atoms: C_15  and  C_40
   11  A    between atoms: C_22  and  C_41
   12  A    between atoms: N_27  and  C_43
   13  A    between atoms: C_31  and  O_32
   14  A    between atoms: C_37  and  C_43
                            x       y       z     vdW  Elec       q    Type
                         _______ _______ _______ _____ _____    ______ ____

>  <TORSDO>
F 14

$$$$
=
 OpenBabel11042415183D

 45 50  0  0  1  0  0  0  0  0999 V2000
  193.6630  170.9100  143.6690 O   0  0  0  0  0  0  0  0  0  0  0  0
  193.5530  172.2160  143.1290 C   0  0  1  0  0  3  0  0  0  0  0  0
  192.3860  171.3020  143.2320 C   0  0  1  0  0  0  0  0  0  0  0  0
  190.9840  169.6110  139.5350 C   0  0  0  0  0  0  0  0  0  0  0  0
  192.0510  171.4150  140.7610 C   0  0  0  0  0  3  0  0  0  0  0  0
  190.8640  168.8870  140.7280 C   0  0  0  0  0  3  0  0  0  0  0  0
  191.5960  170.8740  139.5580 C   0  0  0  0  0  3  0  0  0  0  0  0
  191.9070  170.6980  141.9500 C   0  0  0  0  0  0  0  0  0  0  0  0
  191.3130  169.4300  141.9310 C   0  0  0  0  0  3  0  0  0  0  0  0
  189.5410  169.8380  137.4680 C   0  0  0  0  0  2  0  0  0  0  0  0
  189.3410  171.4300  135.6850 O   0  0  0  0  0  1  0  0  0  0  0  0
  190.5470  168.9780  138.2460 C   0  0  1  0  0  3  0  0  0  0  0  0
  191.7760  169.0950  136.0020 C   0  0  0  0  0  2  0  0  0  0  0  0
  191.7540  168.5150  137.4160 C   0  0  0  0  0  2  0  0  0  0  0  0
  190.2110  170.9770  136.6790 C   0  0  2  0  0  3  0  0  0  0  0  0
  191.5640  170.6050  136.0630 C   0  0  0  0  0  2  0  0  0  0  0  0
  189.3180  171.9550  145.1510 O   0  0  0  0  0  0  0  0  0  0  0  0
  191.4480  171.5800  144.3170 N   0  0  0  0  0  2  0  0  0  0  0  0
  190.0800  171.9650  144.1520 C   0  0  0  0  0  0  0  0  0  0  0  0
  189.5520  172.4180  142.8310 C   0  0  0  0  0  2  0  0  0  0  0  0
  188.7310  173.6990  142.9710 C   0  0  0  0  0  2  0  0  0  0  0  0
  188.5590  174.4140  141.6390 C   0  0  0  0  0  2  0  0  0  0  0  0
  189.7280  174.1690  140.6950 C   0  0  0  0  0  2  0  0  0  0  0  0
  188.1930  172.6680  139.4310 C   0  0  0  0  0  1  0  0  0  0  0  0
  189.2330  173.7650  139.3090 C   0  0  0  0  0  2  0  0  0  0  0  0
  193.5940  173.1570  144.1720 O   0  0  0  0  0  0  0  0  0  0  0  0
  193.6610  174.4120  143.5520 C   0  0  1  0  0  3  0  0  0  0  0  0
  194.8550  176.4230  144.1070 O   0  0  0  0  0  1  0  0  0  0  0  0
  191.6090  176.9120  145.0790 C   0  0  1  0  0  3  0  0  0  0  0  0
  192.5020  175.9730  144.2950 C   0  0  2  0  0  0  0  0  0  0  0  0
  192.2300  174.9130  143.2710 C   0  0  0  0  0  2  0  0  0  0  0  0
  193.9030  175.5240  144.6000 C   0  0  1  0  0  3  0  0  0  0  0  0
  192.2860  177.3810  143.7840 C   0  0  0  0  0  2  0  0  0  0  0  0
  189.6700  175.6860  146.0340 C   0  0  0  0  0  2  0  0  0  0  0  0
  187.8370  177.4910  144.6520 C   0  0  2  0  0  3  0  0  0  0  0  0
  187.4250  176.8280  145.9530 C   0  0  0  0  0  0  0  0  0  0  0  0
  190.1440  176.5620  144.8540 C   0  0  1  0  0  3  0  0  0  0  0  0
  188.2910  176.0010  146.5580 C   0  0  0  0  0  3  0  0  0  0  0  0
  189.3180  177.8390  144.7010 C   0  0  0  0  0  2  0  0  0  0  0  0
  187.1080  178.6540  144.3910 O   0  0  0  0  0  0  0  0  0  0  0  0
  186.4050  178.3740  143.2120 C   0  0  0  0  0  1  0  0  0  0  0  0
  186.0840  177.0390  146.5680 C   0  0  0  0  0  0  0  0  0  0  0  0
  185.0770  176.4160  146.1360 O   0  0  0  0  0  0  0  0  0  0  0  0
  185.9210  179.2240  147.4940 O   0  0  0  0  0  0  0  0  0  0  0  0
  185.9100  177.9780  147.6860 C   0  0  0  0  0  3  0  0  0  0  0  0
  2  3  1  0  0  0  0
  2  1  1  0  0  0  0
  2 26  1  1  0  0  0
  3  1  1  0  0  0  0
  3 18  1  1  0  0  0
  4  7  2  0  0  0  0
  4  6  1  0  0  0  0
  5  8  2  0  0  0  0
  6  9  2  0  0  0  0
  7  5  1  0  0  0  0
  8  3  1  0  0  0  0
  9  8  1  0  0  0  0
 10 12  1  0  0  0  0
 12  4  1  1  0  0  0
 13 16  1  0  0  0  0
 13 14  1  0  0  0  0
 14 12  1  0  0  0  0
 15 11  1  6  0  0  0
 15 10  1  0  0  0  0
 16 15  1  0  0  0  0
 19 18  1  0  0  0  0
 19 17  2  0  0  0  0
 20 21  1  0  0  0  0
 20 19  1  0  0  0  0
 22 21  1  0  0  0  0
 23 22  1  0  0  0  0
 25 24  1  0  0  0  0
 25 23  1  0  0  0  0
 27 26  1  1  0  0  0
 27 32  1  0  0  0  0
 29 33  1  6  0  0  0
 30 31  1  6  0  0  0
 30 32  1  0  0  0  0
 30 29  1  0  0  0  0
 31 27  1  0  0  0  0
 32 28  1  6  0  0  0
 33 30  1  0  0  0  0
 34 38  1  0  0  0  0
 35 40  1  1  0  0  0
 35 39  1  0  0  0  0
 35 36  1  0  0  0  0
 36 38  2  0  0  0  0
 36 42  1  0  0  0  0
 37 39  1  1  0  0  0
 37 29  1  0  0  0  0
 37 34  1  0  0  0  0
 41 40  1  0  0  0  0
 42 45  1  0  0  0  0
 43 42  2  0  0  0  0
 44 45  2  0  0  0  0
M  END
>  <MODEL>
7

>  <REMARK>
 VINA RESULT:      -5.6      2.813      7.437
  Name = 
  14 active torsions:
  status: ('A' for Active; 'I' for Inactive)
    1  A    between atoms: C_2  and  O_32
    2  A    between atoms: C_3  and  C_34
    3  A    between atoms: C_3  and  C_41
    4  A    between atoms: O_4  and  C_24
    5  A    between atoms: C_7  and  C_18
    6  A    between atoms: C_10  and  C_30
    7  A    between atoms: C_13  and  C_29
    8  A    between atoms: C_13  and  C_33
    9  A    between atoms: C_15  and  C_22
   10  A    between atoms: C_15  and  C_40
   11  A    between atoms: C_22  and  C_41
   12  A    between atoms: N_27  and  C_43
   13  A    between atoms: C_31  and  O_32
   14  A    between atoms: C_37  and  C_43
                            x       y       z     vdW  Elec       q    Type
                         _______ _______ _______ _____ _____    ______ ____

>  <TORSDO>
F 14

$$$$
=
 OpenBabel11042415183D

 45 50  0  0  1  0  0  0  0  0999 V2000
  187.6800  173.1380  141.4590 O   0  0  0  0  0  0  0  0  0  0  0  0
  188.2900  174.2240  142.1340 C   0  0  1  0  0  3  0  0  0  0  0  0
  188.7190  173.7930  140.7780 C   0  0  1  0  0  0  0  0  0  0  0  0
  192.4860  171.7370  140.5030 C   0  0  0  0  0  0  0  0  0  0  0  0
  191.1920  173.7910  140.4370 C   0  0  0  0  0  3  0  0  0  0  0  0
  191.3150  171.0220  140.7870 C   0  0  0  0  0  3  0  0  0  0  0  0
  192.4170  173.1290  140.3440 C   0  0  0  0  0  3  0  0  0  0  0  0
  190.0250  173.0690  140.6980 C   0  0  0  0  0  0  0  0  0  0  0  0
  190.0890  171.6810  140.8740 C   0  0  0  0  0  3  0  0  0  0  0  0
  193.9510  170.0980  139.2490 C   0  0  0  0  0  2  0  0  0  0  0  0
  194.8840  169.9740  137.0430 O   0  0  0  0  0  1  0  0  0  0  0  0
  193.7990  171.0100  140.4740 C   0  0  1  0  0  3  0  0  0  0  0  0
  196.0180  171.9180  139.5750 C   0  0  0  0  0  2  0  0  0  0  0  0
  194.9730  171.9760  140.6890 C   0  0  0  0  0  2  0  0  0  0  0  0
  194.3500  170.8640  137.9770 C   0  0  2  0  0  3  0  0  0  0  0  0
  195.3270  172.0200  138.2180 C   0  0  0  0  0  2  0  0  0  0  0  0
  187.5490  174.9380  137.4850 O   0  0  0  0  0  0  0  0  0  0  0  0
  188.2650  174.6280  139.6670 N   0  0  0  0  0  2  0  0  0  0  0  0
  188.1620  174.2080  138.3040 C   0  0  0  0  0  0  0  0  0  0  0  0
  188.8020  172.9470  137.8250 C   0  0  0  0  0  2  0  0  0  0  0  0
  190.0880  173.2340  137.0540 C   0  0  0  0  0  2  0  0  0  0  0  0
  190.9680  171.9990  136.9310 C   0  0  0  0  0  2  0  0  0  0  0  0
  190.1650  170.7440  136.6180 C   0  0  0  0  0  2  0  0  0  0  0  0
  190.0660  168.8770  138.2650 C   0  0  0  0  0  1  0  0  0  0  0  0
  190.8740  169.4990  137.1420 C   0  0  0  0  0  2  0  0  0  0  0  0
  187.4330  175.3360  142.1000 O   0  0  0  0  0  0  0  0  0  0  0  0
  187.5250  175.9300  143.3660 C   0  0  1  0  0  3  0  0  0  0  0  0
  187.3030  178.2080  144.0990 O   0  0  0  0  0  1  0  0  0  0  0  0
  190.6580  177.5320  144.0070 C   0  0  1  0  0  3  0  0  0  0  0  0
  189.2960  176.8770  143.9140 C   0  0  2  0  0  0  0  0  0  0  0  0
  188.8250  175.4610  144.0490 C   0  0  0  0  0  2  0  0  0  0  0  0
  188.0460  177.3820  143.2480 C   0  0  1  0  0  3  0  0  0  0  0  0
  189.7240  177.5030  145.2240 C   0  0  0  0  0  2  0  0  0  0  0  0
  192.2930  176.2030  142.6890 C   0  0  0  0  0  2  0  0  0  0  0  0
  194.0040  175.9600  145.0420 C   0  0  2  0  0  3  0  0  0  0  0  0
  194.6070  175.9330  143.6500 C   0  0  0  0  0  0  0  0  0  0  0  0
  191.7490  176.4740  144.1080 C   0  0  1  0  0  3  0  0  0  0  0  0
  193.7900  176.0430  142.5910 C   0  0  0  0  0  3  0  0  0  0  0  0
  192.8370  176.9350  145.0780 C   0  0  0  0  0  2  0  0  0  0  0  0
  194.9330  176.3300  146.0190 O   0  0  0  0  0  0  0  0  0  0  0  0
  194.2190  177.1660  146.8880 C   0  0  0  0  0  1  0  0  0  0  0  0
  196.0680  175.7610  143.4140 C   0  0  0  0  0  0  0  0  0  0  0  0
  196.8190  176.7680  143.2940 O   0  0  0  0  0  0  0  0  0  0  0  0
  196.1640  173.4430  143.9360 O   0  0  0  0  0  0  0  0  0  0  0  0
  196.6610  174.4190  143.3130 C   0  0  0  0  0  3  0  0  0  0  0  0
  1  2  1  0  0  0  0
  2 26  1  6  0  0  0
  3 18  1  6  0  0  0
  3  1  1  0  0  0  0
  3  2  1  0  0  0  0
  4  6  1  0  0  0  0
  5  8  2  0  0  0  0
  6  9  2  0  0  0  0
  7  5  1  0  0  0  0
  7  4  2  0  0  0  0
  8  3  1  0  0  0  0
  8  9  1  0  0  0  0
 10 12  1  0  0  0  0
 12  4  1  6  0  0  0
 12 14  1  0  0  0  0
 13 14  1  0  0  0  0
 15 11  1  6  0  0  0
 15 16  1  0  0  0  0
 15 10  1  0  0  0  0
 16 13  1  0  0  0  0
 17 19  2  0  0  0  0
 19 18  1  0  0  0  0
 20 19  1  0  0  0  0
 21 20  1  0  0  0  0
 22 21  1  0  0  0  0
 23 22  1  0  0  0  0
 23 25  1  0  0  0  0
 25 24  1  0  0  0  0
 27 26  1  6  0  0  0
 27 31  1  0  0  0  0
 29 37  1  0  0  0  0
 29 33  1  1  0  0  0
 30 29  1  0  0  0  0
 30 31  1  1  0  0  0
 30 33  1  0  0  0  0
 32 27  1  0  0  0  0
 32 30  1  0  0  0  0
 32 28  1  1  0  0  0
 35 39  1  0  0  0  0
 35 40  1  1  0  0  0
 36 35  1  0  0  0  0
 37 34  1  6  0  0  0
 37 39  1  0  0  0  0
 38 34  1  0  0  0  0
 38 36  2  0  0  0  0
 40 41  1  0  0  0  0
 42 36  1  0  0  0  0
 43 42  2  0  0  0  0
 45 42  1  0  0  0  0
 45 44  2  0  0  0  0
M  END
>  <MODEL>
8

>  <REMARK>
 VINA RESULT:      -5.6      2.616      8.799
  Name = 
  14 active torsions:
  status: ('A' for Active; 'I' for Inactive)
    1  A    between atoms: C_2  and  O_32
    2  A    between atoms: C_3  and  C_34
    3  A    between atoms: C_3  and  C_41
    4  A    between atoms: O_4  and  C_24
    5  A    between atoms: C_7  and  C_18
    6  A    between atoms: C_10  and  C_30
    7  A    between atoms: C_13  and  C_29
    8  A    between atoms: C_13  and  C_33
    9  A    between atoms: C_15  and  C_22
   10  A    between atoms: C_15  and  C_40
   11  A    between atoms: C_22  and  C_41
   12  A    between atoms: N_27  and  C_43
   13  A    between atoms: C_31  and  O_32
   14  A    between atoms: C_37  and  C_43
                            x       y       z     vdW  Elec       q    Type
                         _______ _______ _______ _____ _____    ______ ____

>  <TORSDO>
F 14

$$$$
=
 OpenBabel11042415183D

 45 50  0  0  1  0  0  0  0  0999 V2000
  195.2790  175.2020  143.5540 O   0  0  0  0  0  0  0  0  0  0  0  0
  194.1490  175.7100  144.2410 C   0  0  1  0  0  3  0  0  0  0  0  0
  194.6900  174.3520  144.5050 C   0  0  1  0  0  0  0  0  0  0  0  0
  192.3840  171.0860  142.9200 C   0  0  0  0  0  0  0  0  0  0  0  0
  194.1730  172.7130  142.6940 C   0  0  0  0  0  3  0  0  0  0  0  0
  192.1210  171.5710  144.2070 C   0  0  0  0  0  3  0  0  0  0  0  0
  193.4280  171.6550  142.1730 C   0  0  0  0  0  3  0  0  0  0  0  0
  193.8900  173.2070  143.9690 C   0  0  0  0  0  0  0  0  0  0  0  0
  192.8620  172.6320  144.7270 C   0  0  0  0  0  3  0  0  0  0  0  0
  190.5330  170.2910  141.3880 C   0  0  0  0  0  2  0  0  0  0  0  0
  190.0690  170.4420  139.0400 O   0  0  0  0  0  1  0  0  0  0  0  0
  191.6120  169.9040  142.4100 C   0  0  1  0  0  3  0  0  0  0  0  0
  192.3010  168.3490  140.4950 C   0  0  0  0  0  2  0  0  0  0  0  0
  192.5530  168.7860  141.9390 C   0  0  0  0  0  2  0  0  0  0  0  0
  191.1000  170.5260  139.9780 C   0  0  2  0  0  3  0  0  0  0  0  0
  192.2400  169.5780  139.5910 C   0  0  0  0  0  2  0  0  0  0  0  0
  197.3940  173.6130  146.8850 O   0  0  0  0  0  0  0  0  0  0  0  0
  195.4730  174.2000  145.7290 N   0  0  0  0  0  2  0  0  0  0  0  0
  196.7050  173.4830  145.8430 C   0  0  0  0  0  0  0  0  0  0  0  0
  197.1660  172.5520  144.7700 C   0  0  0  0  0  2  0  0  0  0  0  0
  197.1910  171.1060  145.2620 C   0  0  0  0  0  2  0  0  0  0  0  0
  195.8290  170.6520  145.7670 C   0  0  0  0  0  2  0  0  0  0  0  0
  195.2150  169.5730  144.8860 C   0  0  0  0  0  2  0  0  0  0  0  0
  194.5880  168.6190  147.1010 C   0  0  0  0  0  1  0  0  0  0  0  0
  194.1640  168.7760  145.6530 C   0  0  0  0  0  2  0  0  0  0  0  0
  194.5670  176.6520  145.1960 O   0  0  0  0  0  0  0  0  0  0  0  0
  193.3980  177.2610  145.6710 C   0  0  1  0  0  3  0  0  0  0  0  0
  191.9580  176.7620  147.5290 O   0  0  0  0  0  1  0  0  0  0  0  0
  190.3840  175.5830  144.7270 C   0  0  1  0  0  3  0  0  0  0  0  0
  191.5530  176.4310  145.1840 C   0  0  2  0  0  0  0  0  0  0  0  0
  192.4140  177.4470  144.4980 C   0  0  0  0  0  2  0  0  0  0  0  0
  192.4780  176.2190  146.3490 C   0  0  1  0  0  3  0  0  0  0  0  0
  190.1430  176.9130  145.4540 C   0  0  0  0  0  2  0  0  0  0  0  0
  190.9440  174.5660  142.5300 C   0  0  0  0  0  2  0  0  0  0  0  0
  188.5040  175.6860  141.3810 C   0  0  2  0  0  3  0  0  0  0  0  0
  189.0940  174.4040  140.8250 C   0  0  0  0  0  0  0  0  0  0  0  0
  190.1860  175.7190  143.2240 C   0  0  1  0  0  3  0  0  0  0  0  0
  190.2190  173.9200  141.3750 C   0  0  0  0  0  3  0  0  0  0  0  0
  188.6940  175.7260  142.8900 C   0  0  0  0  0  2  0  0  0  0  0  0
  187.1420  175.8150  141.0930 O   0  0  0  0  0  0  0  0  0  0  0  0
  186.9810  177.1600  140.7360 C   0  0  0  0  0  1  0  0  0  0  0  0
  188.4880  173.6760  139.6740 C   0  0  0  0  0  0  0  0  0  0  0  0
  187.8170  172.6260  139.8650 O   0  0  0  0  0  0  0  0  0  0  0  0
  189.2800  173.4800  137.4400 O   0  0  0  0  0  0  0  0  0  0  0  0
  188.6630  174.1660  138.2990 C   0  0  0  0  0  3  0  0  0  0  0  0
  1  2  1  0  0  0  0
  1  3  1  0  0  0  0
  2  3  1  0  0  0  0
  2 26  1  1  0  0  0
  3 18  1  1  0  0  0
  4  6  1  0  0  0  0
  5  8  2  0  0  0  0
  6  9  2  0  0  0  0
  7  5  1  0  0  0  0
  7  4  2  0  0  0  0
  8  3  1  0  0  0  0
  8  9  1  0  0  0  0
 10 12  1  0  0  0  0
 12  4  1  6  0  0  0
 13 14  1  0  0  0  0
 14 12  1  0  0  0  0
 15 11  1  6  0  0  0
 15 10  1  0  0  0  0
 16 15  1  0  0  0  0
 16 13  1  0  0  0  0
 18 19  1  0  0  0  0
 19 17  2  0  0  0  0
 20 21  1  0  0  0  0
 20 19  1  0  0  0  0
 21 22  1  0  0  0  0
 23 25  1  0  0  0  0
 23 22  1  0  0  0  0
 25 24  1  0  0  0  0
 27 26  1  6  0  0  0
 27 32  1  0  0  0  0
 29 30  1  0  0  0  0
 29 33  1  1  0  0  0
 30 31  1  6  0  0  0
 30 33  1  0  0  0  0
 30 32  1  0  0  0  0
 31 27  1  0  0  0  0
 32 28  1  1  0  0  0
 35 40  1  1  0  0  0
 35 39  1  0  0  0  0
 36 38  2  0  0  0  0
 36 35  1  0  0  0  0
 37 34  1  6  0  0  0
 37 29  1  0  0  0  0
 38 34  1  0  0  0  0
 39 37  1  0  0  0  0
 41 40  1  0  0  0  0
 42 43  2  0  0  0  0
 42 36  1  0  0  0  0
 44 45  2  0  0  0  0
 45 42  1  0  0  0  0
M  END
>  <MODEL>
9

>  <REMARK>
 VINA RESULT:      -5.6      2.929      6.643
  Name = 
  14 active torsions:
  status: ('A' for Active; 'I' for Inactive)
    1  A    between atoms: C_2  and  O_32
    2  A    between atoms: C_3  and  C_34
    3  A    between atoms: C_3  and  C_41
    4  A    between atoms: O_4  and  C_24
    5  A    between atoms: C_7  and  C_18
    6  A    between atoms: C_10  and  C_30
    7  A    between atoms: C_13  and  C_29
    8  A    between atoms: C_13  and  C_33
    9  A    between atoms: C_15  and  C_22
   10  A    between atoms: C_15  and  C_40
   11  A    between atoms: C_22  and  C_41
   12  A    between atoms: N_27  and  C_43
   13  A    between atoms: C_31  and  O_32
   14  A    between atoms: C_37  and  C_43
                            x       y       z     vdW  Elec       q    Type
                         _______ _______ _______ _____ _____    ______ ____

>  <TORSDO>
F 14

$$$$
