=
 OpenBabel11042418283D

 30 32  0  0  1  0  0  0  0  0999 V2000
  188.4470  177.6490  145.2870 C   0  0  0  0  0  2  0  0  0  0  0  0
  189.3720  176.7280  143.2400 C   0  0  0  0  0  0  0  0  0  0  0  0
  189.1460  176.1490  142.0930 C   0  0  0  0  0  3  0  0  0  0  0  0
  189.5910  177.3130  144.3870 C   0  0  0  0  0  0  0  0  0  0  0  0
  188.1330  175.0630  141.9810 C   0  0  0  0  0  3  0  0  0  0  0  0
  187.8180  174.8650  140.6500 F   0  0  0  0  0  0  0  0  0  0  0  0
  186.9870  175.4100  142.6750 F   0  0  0  0  0  0  0  0  0  0  0  0
  190.9920  177.4630  144.8790 C   0  0  0  0  0  2  0  0  0  0  0  0
  191.3760  176.3260  145.8150 C   0  0  0  0  0  2  0  0  0  0  0  0
  192.2110  175.4150  145.1610 O   0  0  0  0  0  0  0  0  0  0  0  0
  193.1500  175.0260  146.1200 C   0  0  0  0  0  3  0  0  0  0  0  0
  194.9180  174.2840  144.4930 C   0  0  0  0  0  2  0  0  0  0  0  0
  194.0630  176.2050  146.4650 C   0  0  0  0  0  2  0  0  0  0  0  0
  193.9730  173.8400  145.6100 C   0  0  0  0  0  2  0  0  0  0  0  0
  195.8060  175.3390  144.9790 N   0  0  0  0  0  2  0  0  0  0  0  0
  194.9970  176.5140  145.2960 C   0  0  0  0  0  2  0  0  0  0  0  0
  187.6400  176.4060  145.6090 C   0  0  0  0  0  2  0  0  0  0  0  0
  187.4680  176.3130  146.9900 O   0  0  0  0  0  0  0  0  0  0  0  0
  186.4330  177.2050  147.2820 C   0  0  0  0  0  2  0  0  0  0  0  0
  185.3190  177.0740  146.2560 C   0  0  0  0  0  2  0  0  0  0  0  0
  184.1750  178.0080  146.5950 C   0  0  0  0  0  2  0  0  0  0  0  0
  183.9610  178.8850  145.5310 O   0  0  0  0  0  0  0  0  0  0  0  0
  186.3100  178.7890  142.7650 C   0  0  0  0  0  3  0  0  0  0  0  0
  182.2350  178.0930  141.5360 N   0  0  0  0  0  1  0  0  0  0  0  0
  186.0160  178.2310  141.5580 C   0  0  0  0  0  3  0  0  0  0  0  0
  184.6110  178.0120  141.0740 C   0  0  0  0  0  3  0  0  0  0  0  0
  185.2400  179.3010  143.7140 C   0  0  1  0  0  3  0  0  0  0  0  0
  183.5980  178.2600  141.9050 C   0  0  0  0  0  0  0  0  0  0  0  0
  183.9860  178.7150  143.1800 N   0  0  0  0  0  0  0  0  0  0  0  0
  184.6490  178.3160  144.4610 C   0  0  2  0  0  3  0  0  0  0  0  0
  1 17  1  0  0  0  0
  2  4  2  0  0  0  0
  3  2  2  0  0  0  0
  4  8  1  0  0  0  0
  4  1  1  0  0  0  0
  5  3  1  0  0  0  0
  5  7  1  0  0  0  0
  6  5  1  0  0  0  0
  8  9  1  0  0  0  0
 10  9  1  0  0  0  0
 10 11  1  0  0  0  0
 11 13  1  0  0  0  0
 12 15  1  0  0  0  0
 12 14  1  0  0  0  0
 14 11  1  0  0  0  0
 15 16  1  0  0  0  0
 16 13  1  0  0  0  0
 17 18  1  0  0  0  0
 18 19  1  0  0  0  0
 20 21  1  0  0  0  0
 20 19  1  0  0  0  0
 22 21  1  0  0  0  0
 24 28  1  0  0  0  0
 25 23  2  0  0  0  0
 26 25  1  0  0  0  0
 26 28  2  0  0  0  0
 27 23  1  6  0  0  0
 27 30  1  0  0  0  0
 28 29  1  0  0  0  0
 29 27  1  0  0  0  0
 29 30  1  0  0  0  0
 30 22  1  1  0  0  0
M  END
>  <MODEL>
1

>  <REMARK>
 VINA RESULT:      -6.4      0.000      0.000
  Name = 
  13 active torsions:
  status: ('A' for Active; 'I' for Inactive)
    1  A    between atoms: O_3  and  C_23
    2  A    between atoms: O_3  and  C_26
    3  A    between atoms: O_6  and  C_10
    4  A    between atoms: O_6  and  C_15
    5  A    between atoms: C_8  and  O_9
    6  A    between atoms: O_9  and  C_18
    7  A    between atoms: C_10  and  C_21
    8  A    between atoms: C_12  and  C_15
    9  A    between atoms: C_12  and  C_30
   10  A    between atoms: C_18  and  C_22
   11  A    between atoms: C_21  and  C_23
   12  A    between atoms: C_22  and  C_30
   13  A    between atoms: C_24  and  C_29
                            x       y       z     vdW  Elec       q    Type
                         _______ _______ _______ _____ _____    ______ ____

>  <TORSDO>
F 13

$$$$
=
 OpenBabel11042418283D

 30 32  0  0  1  0  0  0  0  0999 V2000
  189.4600  174.5360  145.5220 C   0  0  0  0  0  2  0  0  0  0  0  0
  190.0170  176.8920  145.3480 C   0  0  0  0  0  0  0  0  0  0  0  0
  190.0490  177.9640  144.6040 C   0  0  0  0  0  3  0  0  0  0  0  0
  189.9770  175.8180  146.0890 C   0  0  0  0  0  0  0  0  0  0  0  0
  190.4740  177.8830  143.1790 C   0  0  0  0  0  3  0  0  0  0  0  0
  191.6740  178.5470  143.0200 F   0  0  0  0  0  0  0  0  0  0  0  0
  189.5170  178.4660  142.3670 F   0  0  0  0  0  0  0  0  0  0  0  0
  190.6290  175.8260  147.4310 C   0  0  0  0  0  2  0  0  0  0  0  0
  192.0600  176.3380  147.3500 C   0  0  0  0  0  2  0  0  0  0  0  0
  192.9000  175.3590  146.8140 O   0  0  0  0  0  0  0  0  0  0  0  0
  194.0510  176.0440  146.4130 C   0  0  0  0  0  3  0  0  0  0  0  0
  194.8990  174.2700  144.8450 C   0  0  0  0  0  2  0  0  0  0  0  0
  193.7490  176.8930  145.1770 C   0  0  0  0  0  2  0  0  0  0  0  0
  195.1860  175.0570  146.1250 C   0  0  0  0  0  2  0  0  0  0  0  0
  194.7340  175.1890  143.7200 N   0  0  0  0  0  2  0  0  0  0  0  0
  193.5410  175.9990  143.9550 C   0  0  0  0  0  2  0  0  0  0  0  0
  190.4930  173.9020  144.6100 C   0  0  0  0  0  2  0  0  0  0  0  0
  190.2830  174.3370  143.3010 O   0  0  0  0  0  0  0  0  0  0  0  0
  188.9570  173.9960  143.0200 C   0  0  0  0  0  2  0  0  0  0  0  0
  188.3660  174.9680  142.0120 C   0  0  0  0  0  2  0  0  0  0  0  0
  187.0390  175.5050  142.5110 C   0  0  0  0  0  2  0  0  0  0  0  0
  187.2230  176.7850  143.0340 O   0  0  0  0  0  0  0  0  0  0  0  0
  184.5850  178.8850  144.3800 C   0  0  0  0  0  3  0  0  0  0  0  0
  186.6820  176.6630  147.4220 N   0  0  0  0  0  1  0  0  0  0  0  0
  184.0620  178.7170  145.6250 C   0  0  0  0  0  3  0  0  0  0  0  0
  184.7790  177.9870  146.7260 C   0  0  0  0  0  3  0  0  0  0  0  0
  185.9750  178.4030  144.0010 C   0  0  1  0  0  3  0  0  0  0  0  0
  185.9260  177.3700  146.4470 C   0  0  0  0  0  0  0  0  0  0  0  0
  186.3410  177.4830  145.1060 N   0  0  0  0  0  0  0  0  0  0  0  0
  186.0320  177.0680  143.7020 C   0  0  2  0  0  3  0  0  0  0  0  0
  1  4  1  0  0  0  0
  2  4  2  0  0  0  0
  3  2  2  0  0  0  0
  4  8  1  0  0  0  0
  5  3  1  0  0  0  0
  6  5  1  0  0  0  0
  7  5  1  0  0  0  0
  9  8  1  0  0  0  0
 10  9  1  0  0  0  0
 11 10  1  0  0  0  0
 12 14  1  0  0  0  0
 13 11  1  0  0  0  0
 14 11  1  0  0  0  0
 15 16  1  0  0  0  0
 15 12  1  0  0  0  0
 16 13  1  0  0  0  0
 17  1  1  0  0  0  0
 18 17  1  0  0  0  0
 19 18  1  0  0  0  0
 20 21  1  0  0  0  0
 20 19  1  0  0  0  0
 21 22  1  0  0  0  0
 23 25  2  0  0  0  0
 25 26  1  0  0  0  0
 27 23  1  1  0  0  0
 27 29  1  0  0  0  0
 28 26  2  0  0  0  0
 28 24  1  0  0  0  0
 29 28  1  0  0  0  0
 30 22  1  6  0  0  0
 30 27  1  0  0  0  0
 30 29  1  0  0  0  0
M  END
>  <MODEL>
2

>  <REMARK>
 VINA RESULT:      -6.3      2.371      3.845
  Name = 
  13 active torsions:
  status: ('A' for Active; 'I' for Inactive)
    1  A    between atoms: O_3  and  C_23
    2  A    between atoms: O_3  and  C_26
    3  A    between atoms: O_6  and  C_10
    4  A    between atoms: O_6  and  C_15
    5  A    between atoms: C_8  and  O_9
    6  A    between atoms: O_9  and  C_18
    7  A    between atoms: C_10  and  C_21
    8  A    between atoms: C_12  and  C_15
    9  A    between atoms: C_12  and  C_30
   10  A    between atoms: C_18  and  C_22
   11  A    between atoms: C_21  and  C_23
   12  A    between atoms: C_22  and  C_30
   13  A    between atoms: C_24  and  C_29
                            x       y       z     vdW  Elec       q    Type
                         _______ _______ _______ _____ _____    ______ ____

>  <TORSDO>
F 13

$$$$
=
 OpenBabel11042418283D

 30 32  0  0  1  0  0  0  0  0999 V2000
  188.6490  175.7070  145.7300 C   0  0  0  0  0  2  0  0  0  0  0  0
  187.2870  177.7010  145.9710 C   0  0  0  0  0  0  0  0  0  0  0  0
  186.2420  178.2620  146.5140 C   0  0  0  0  0  3  0  0  0  0  0  0
  188.3360  177.1370  145.4340 C   0  0  0  0  0  0  0  0  0  0  0  0
  184.9560  177.5180  146.6230 C   0  0  0  0  0  3  0  0  0  0  0  0
  185.0960  176.2730  146.0410 F   0  0  0  0  0  0  0  0  0  0  0  0
  183.9500  178.2150  145.9760 F   0  0  0  0  0  0  0  0  0  0  0  0
  189.1010  177.8620  144.3780 C   0  0  0  0  0  2  0  0  0  0  0  0
  188.9810  177.1650  143.0290 C   0  0  0  0  0  2  0  0  0  0  0  0
  188.0660  177.8360  142.2120 O   0  0  0  0  0  0  0  0  0  0  0  0
  187.2610  176.8330  141.6650 C   0  0  0  0  0  3  0  0  0  0  0  0
  185.1540  177.4770  142.8760 C   0  0  0  0  0  2  0  0  0  0  0  0
  186.5950  177.3390  140.3830 C   0  0  0  0  0  2  0  0  0  0  0  0
  186.2050  176.3850  142.6800 C   0  0  0  0  0  2  0  0  0  0  0  0
  184.5190  177.7960  141.5990 N   0  0  0  0  0  2  0  0  0  0  0  0
  185.5260  178.3790  140.7150 C   0  0  0  0  0  2  0  0  0  0  0  0
  188.7750  175.4860  147.2250 C   0  0  0  0  0  2  0  0  0  0  0  0
  189.9190  174.7320  147.4860 O   0  0  0  0  0  0  0  0  0  0  0  0
  190.9410  175.6740  147.6330 C   0  0  0  0  0  2  0  0  0  0  0  0
  192.2230  175.1650  146.9920 C   0  0  0  0  0  2  0  0  0  0  0  0
  192.3770  175.7330  145.5950 C   0  0  0  0  0  2  0  0  0  0  0  0
  192.5810  174.6910  144.6900 O   0  0  0  0  0  0  0  0  0  0  0  0
  189.5410  173.4230  143.1640 C   0  0  0  0  0  3  0  0  0  0  0  0
  192.6660  174.1980  140.2960 N   0  0  0  0  0  1  0  0  0  0  0  0
  189.2740  173.5340  141.8330 C   0  0  0  0  0  3  0  0  0  0  0  0
  190.3380  173.7600  140.7970 C   0  0  0  0  0  3  0  0  0  0  0  0
  190.9530  173.4560  143.7230 C   0  0  1  0  0  3  0  0  0  0  0  0
  191.5900  173.9830  141.1990 C   0  0  0  0  0  0  0  0  0  0  0  0
  191.7650  173.9780  142.5970 N   0  0  0  0  0  0  0  0  0  0  0  0
  191.4610  174.7200  143.8600 C   0  0  2  0  0  3  0  0  0  0  0  0
  1 17  1  0  0  0  0
  2  3  2  0  0  0  0
  3  5  1  0  0  0  0
  4  1  1  0  0  0  0
  4  2  2  0  0  0  0
  6  5  1  0  0  0  0
  7  5  1  0  0  0  0
  8  4  1  0  0  0  0
  9  8  1  0  0  0  0
 10  9  1  0  0  0  0
 11 10  1  0  0  0  0
 11 14  1  0  0  0  0
 13 16  1  0  0  0  0
 13 11  1  0  0  0  0
 14 12  1  0  0  0  0
 15 12  1  0  0  0  0
 16 15  1  0  0  0  0
 17 18  1  0  0  0  0
 18 19  1  0  0  0  0
 20 19  1  0  0  0  0
 21 20  1  0  0  0  0
 22 21  1  0  0  0  0
 24 28  1  0  0  0  0
 25 23  2  0  0  0  0
 26 28  2  0  0  0  0
 26 25  1  0  0  0  0
 27 23  1  6  0  0  0
 27 30  1  0  0  0  0
 28 29  1  0  0  0  0
 29 27  1  0  0  0  0
 29 30  1  0  0  0  0
 30 22  1  1  0  0  0
M  END
>  <MODEL>
3

>  <REMARK>
 VINA RESULT:      -6.3      2.714      7.293
  Name = 
  13 active torsions:
  status: ('A' for Active; 'I' for Inactive)
    1  A    between atoms: O_3  and  C_23
    2  A    between atoms: O_3  and  C_26
    3  A    between atoms: O_6  and  C_10
    4  A    between atoms: O_6  and  C_15
    5  A    between atoms: C_8  and  O_9
    6  A    between atoms: O_9  and  C_18
    7  A    between atoms: C_10  and  C_21
    8  A    between atoms: C_12  and  C_15
    9  A    between atoms: C_12  and  C_30
   10  A    between atoms: C_18  and  C_22
   11  A    between atoms: C_21  and  C_23
   12  A    between atoms: C_22  and  C_30
   13  A    between atoms: C_24  and  C_29
                            x       y       z     vdW  Elec       q    Type
                         _______ _______ _______ _____ _____    ______ ____

>  <TORSDO>
F 13

$$$$
=
 OpenBabel11042418283D

 30 32  0  0  1  0  0  0  0  0999 V2000
  191.2300  175.2610  147.8620 C   0  0  0  0  0  2  0  0  0  0  0  0
  189.8920  174.3600  146.0480 C   0  0  0  0  0  0  0  0  0  0  0  0
  189.7040  173.3910  145.1950 C   0  0  0  0  0  3  0  0  0  0  0  0
  190.0820  175.3240  146.9080 C   0  0  0  0  0  0  0  0  0  0  0  0
  190.8590  172.7690  144.4900 C   0  0  0  0  0  3  0  0  0  0  0  0
  190.7970  171.3970  144.6300 F   0  0  0  0  0  0  0  0  0  0  0  0
  192.0470  173.2310  145.0280 F   0  0  0  0  0  0  0  0  0  0  0  0
  189.2730  176.5730  146.8030 C   0  0  0  0  0  2  0  0  0  0  0  0
  187.7820  176.2670  146.7590 C   0  0  0  0  0  2  0  0  0  0  0  0
  187.0860  177.3090  146.1380 O   0  0  0  0  0  0  0  0  0  0  0  0
  185.9030  176.7300  145.6710 C   0  0  0  0  0  3  0  0  0  0  0  0
  184.4030  178.6680  146.2380 C   0  0  0  0  0  2  0  0  0  0  0  0
  185.6920  177.0890  144.1980 C   0  0  0  0  0  2  0  0  0  0  0  0
  184.7120  177.1960  146.5150 C   0  0  0  0  0  2  0  0  0  0  0  0
  184.1180  178.8610  144.8170 N   0  0  0  0  0  2  0  0  0  0  0  0
  185.3310  178.5680  144.0580 C   0  0  0  0  0  2  0  0  0  0  0  0
  192.3170  176.2370  147.4520 C   0  0  0  0  0  2  0  0  0  0  0  0
  193.0830  175.6740  146.4320 O   0  0  0  0  0  0  0  0  0  0  0  0
  193.2520  176.7050  145.5030 C   0  0  0  0  0  2  0  0  0  0  0  0
  193.7640  176.1470  144.1850 C   0  0  0  0  0  2  0  0  0  0  0  0
  192.6080  175.8580  143.2480 C   0  0  0  0  0  2  0  0  0  0  0  0
  191.4160  176.2820  143.8370 O   0  0  0  0  0  0  0  0  0  0  0  0
  188.8380  178.2430  142.1980 C   0  0  0  0  0  3  0  0  0  0  0  0
  188.1080  173.9980  141.9920 N   0  0  0  0  0  1  0  0  0  0  0  0
  187.9570  177.7150  141.3040 C   0  0  0  0  0  3  0  0  0  0  0  0
  187.6410  176.2480  141.2290 C   0  0  0  0  0  3  0  0  0  0  0  0
  189.5430  177.4030  143.2490 C   0  0  1  0  0  3  0  0  0  0  0  0
  188.3390  175.4010  141.9860 C   0  0  0  0  0  0  0  0  0  0  0  0
  189.3210  176.0090  142.7920 N   0  0  0  0  0  0  0  0  0  0  0  0
  190.6340  176.7260  142.7720 C   0  0  2  0  0  3  0  0  0  0  0  0
  2  4  2  0  0  0  0
  3  2  2  0  0  0  0
  4  1  1  0  0  0  0
  5  6  1  0  0  0  0
  5  7  1  0  0  0  0
  5  3  1  0  0  0  0
  8  4  1  0  0  0  0
  9  8  1  0  0  0  0
 10  9  1  0  0  0  0
 11 10  1  0  0  0  0
 11 14  1  0  0  0  0
 12 14  1  0  0  0  0
 13 11  1  0  0  0  0
 15 12  1  0  0  0  0
 16 13  1  0  0  0  0
 16 15  1  0  0  0  0
 17  1  1  0  0  0  0
 18 17  1  0  0  0  0
 19 18  1  0  0  0  0
 20 19  1  0  0  0  0
 21 22  1  0  0  0  0
 21 20  1  0  0  0  0
 25 23  2  0  0  0  0
 26 25  1  0  0  0  0
 26 28  2  0  0  0  0
 27 23  1  6  0  0  0
 28 24  1  0  0  0  0
 28 29  1  0  0  0  0
 29 27  1  0  0  0  0
 30 29  1  0  0  0  0
 30 27  1  0  0  0  0
 30 22  1  1  0  0  0
M  END
>  <MODEL>
4

>  <REMARK>
 VINA RESULT:      -6.2      2.802      6.726
  Name = 
  13 active torsions:
  status: ('A' for Active; 'I' for Inactive)
    1  A    between atoms: O_3  and  C_23
    2  A    between atoms: O_3  and  C_26
    3  A    between atoms: O_6  and  C_10
    4  A    between atoms: O_6  and  C_15
    5  A    between atoms: C_8  and  O_9
    6  A    between atoms: O_9  and  C_18
    7  A    between atoms: C_10  and  C_21
    8  A    between atoms: C_12  and  C_15
    9  A    between atoms: C_12  and  C_30
   10  A    between atoms: C_18  and  C_22
   11  A    between atoms: C_21  and  C_23
   12  A    between atoms: C_22  and  C_30
   13  A    between atoms: C_24  and  C_29
                            x       y       z     vdW  Elec       q    Type
                         _______ _______ _______ _____ _____    ______ ____

>  <TORSDO>
F 13

$$$$
=
 OpenBabel11042418283D

 30 32  0  0  1  0  0  0  0  0999 V2000
  187.6970  176.0550  141.5100 C   0  0  0  0  0  2  0  0  0  0  0  0
  188.9510  177.8250  142.5980 C   0  0  0  0  0  0  0  0  0  0  0  0
  190.0670  178.1960  143.1640 C   0  0  0  0  0  3  0  0  0  0  0  0
  187.8390  177.4500  142.0250 C   0  0  0  0  0  0  0  0  0  0  0  0
  190.7830  177.2820  144.0950 C   0  0  0  0  0  3  0  0  0  0  0  0
  190.4570  177.6070  145.3980 F   0  0  0  0  0  0  0  0  0  0  0  0
  192.1500  177.4050  143.9220 F   0  0  0  0  0  0  0  0  0  0  0  0
  186.6510  178.3510  142.0660 C   0  0  0  0  0  2  0  0  0  0  0  0
  185.5460  177.7740  142.9420 C   0  0  0  0  0  2  0  0  0  0  0  0
  185.5480  178.3860  144.1980 O   0  0  0  0  0  0  0  0  0  0  0  0
  185.3140  177.3520  145.1090 C   0  0  0  0  0  3  0  0  0  0  0  0
  187.3980  177.7050  146.4720 C   0  0  0  0  0  2  0  0  0  0  0  0
  184.5250  177.8800  146.3080 C   0  0  0  0  0  2  0  0  0  0  0  0
  186.6390  176.7350  145.5660 C   0  0  0  0  0  2  0  0  0  0  0  0
  186.5780  178.0510  147.6320 N   0  0  0  0  0  2  0  0  0  0  0  0
  185.4060  178.7880  147.1660 C   0  0  0  0  0  2  0  0  0  0  0  0
  188.2510  175.0580  142.5090 C   0  0  0  0  0  2  0  0  0  0  0  0
  188.2750  173.7890  141.9320 O   0  0  0  0  0  0  0  0  0  0  0  0
  189.6040  173.5980  141.5450 C   0  0  0  0  0  2  0  0  0  0  0  0
  190.5390  173.8890  142.7080 C   0  0  0  0  0  2  0  0  0  0  0  0
  191.1390  172.6030  143.2390 C   0  0  0  0  0  2  0  0  0  0  0  0
  191.4310  172.7520  144.5950 O   0  0  0  0  0  0  0  0  0  0  0  0
  194.3970  174.7830  145.1000 C   0  0  0  0  0  3  0  0  0  0  0  0
  191.2590  175.6580  147.9250 N   0  0  0  0  0  1  0  0  0  0  0  0
  194.3970  175.9320  145.8290 C   0  0  0  0  0  3  0  0  0  0  0  0
  193.3470  176.2560  146.8550 C   0  0  0  0  0  3  0  0  0  0  0  0
  193.3660  173.6850  145.2980 C   0  0  1  0  0  3  0  0  0  0  0  0
  192.2980  175.4420  146.9790 C   0  0  0  0  0  0  0  0  0  0  0  0
  192.3050  174.3400  146.1020 N   0  0  0  0  0  0  0  0  0  0  0  0
  192.1740  173.9290  144.6690 C   0  0  2  0  0  3  0  0  0  0  0  0
  1  4  1  0  0  0  0
  1 17  1  0  0  0  0
  2  3  2  0  0  0  0
  3  5  1  0  0  0  0
  4  8  1  0  0  0  0
  4  2  2  0  0  0  0
  5  6  1  0  0  0  0
  7  5  1  0  0  0  0
  8  9  1  0  0  0  0
  9 10  1  0  0  0  0
 10 11  1  0  0  0  0
 11 14  1  0  0  0  0
 11 13  1  0  0  0  0
 12 15  1  0  0  0  0
 13 16  1  0  0  0  0
 14 12  1  0  0  0  0
 16 15  1  0  0  0  0
 18 17  1  0  0  0  0
 19 18  1  0  0  0  0
 19 20  1  0  0  0  0
 20 21  1  0  0  0  0
 21 22  1  0  0  0  0
 23 25  2  0  0  0  0
 25 26  1  0  0  0  0
 26 28  2  0  0  0  0
 27 23  1  6  0  0  0
 27 29  1  0  0  0  0
 28 24  1  0  0  0  0
 29 28  1  0  0  0  0
 30 22  1  1  0  0  0
 30 27  1  0  0  0  0
 30 29  1  0  0  0  0
M  END
>  <MODEL>
5

>  <REMARK>
 VINA RESULT:      -6.2      2.729      7.915
  Name = 
  13 active torsions:
  status: ('A' for Active; 'I' for Inactive)
    1  A    between atoms: O_3  and  C_23
    2  A    between atoms: O_3  and  C_26
    3  A    between atoms: O_6  and  C_10
    4  A    between atoms: O_6  and  C_15
    5  A    between atoms: C_8  and  O_9
    6  A    between atoms: O_9  and  C_18
    7  A    between atoms: C_10  and  C_21
    8  A    between atoms: C_12  and  C_15
    9  A    between atoms: C_12  and  C_30
   10  A    between atoms: C_18  and  C_22
   11  A    between atoms: C_21  and  C_23
   12  A    between atoms: C_22  and  C_30
   13  A    between atoms: C_24  and  C_29
                            x       y       z     vdW  Elec       q    Type
                         _______ _______ _______ _____ _____    ______ ____

>  <TORSDO>
F 13

$$$$
=
 OpenBabel11042418283D

 30 32  0  0  1  0  0  0  0  0999 V2000
  188.8580  177.3030  145.3900 C   0  0  0  0  0  2  0  0  0  0  0  0
  190.8290  177.0210  146.7770 C   0  0  0  0  0  0  0  0  0  0  0  0
  191.3220  176.9120  147.9810 C   0  0  0  0  0  3  0  0  0  0  0  0
  190.3290  177.1250  145.5750 C   0  0  0  0  0  0  0  0  0  0  0  0
  190.8160  177.7710  149.0860 C   0  0  0  0  0  3  0  0  0  0  0  0
  190.0730  178.8080  148.5580 F   0  0  0  0  0  0  0  0  0  0  0  0
  191.8780  178.2890  149.8070 F   0  0  0  0  0  0  0  0  0  0  0  0
  191.2470  177.2640  144.4070 C   0  0  0  0  0  2  0  0  0  0  0  0
  191.6050  175.9070  143.8170 C   0  0  0  0  0  2  0  0  0  0  0  0
  192.6630  175.3300  144.5240 O   0  0  0  0  0  0  0  0  0  0  0  0
  193.6840  176.2840  144.4960 C   0  0  0  0  0  3  0  0  0  0  0  0
  195.3150  174.9880  145.9050 C   0  0  0  0  0  2  0  0  0  0  0  0
  194.6110  176.0230  143.3080 C   0  0  0  0  0  2  0  0  0  0  0  0
  194.4730  176.2600  145.8090 C   0  0  0  0  0  2  0  0  0  0  0  0
  196.2310  174.9080  144.7680 N   0  0  0  0  0  2  0  0  0  0  0  0
  195.4410  174.7620  143.5470 C   0  0  0  0  0  2  0  0  0  0  0  0
  188.0950  176.6650  146.5340 C   0  0  0  0  0  2  0  0  0  0  0  0
  187.4380  177.6560  147.2630 O   0  0  0  0  0  0  0  0  0  0  0  0
  186.0780  177.3770  147.1000 C   0  0  0  0  0  2  0  0  0  0  0  0
  185.2990  178.6640  146.8780 C   0  0  0  0  0  2  0  0  0  0  0  0
  185.1590  178.9480  145.3960 C   0  0  0  0  0  2  0  0  0  0  0  0
  185.1280  177.7430  144.6930 O   0  0  0  0  0  0  0  0  0  0  0  0
  185.4790  178.1050  141.0970 C   0  0  0  0  0  3  0  0  0  0  0  0
  188.0520  175.0590  142.7420 N   0  0  0  0  0  1  0  0  0  0  0  0
  186.5460  177.6230  140.4020 C   0  0  0  0  0  3  0  0  0  0  0  0
  187.4410  176.5320  140.9200 C   0  0  0  0  0  3  0  0  0  0  0  0
  185.0540  177.5400  142.4420 C   0  0  1  0  0  3  0  0  0  0  0  0
  187.2630  176.0930  142.1660 C   0  0  0  0  0  0  0  0  0  0  0  0
  186.2200  176.7280  142.8680 N   0  0  0  0  0  0  0  0  0  0  0  0
  185.7890  178.0160  143.4960 C   0  0  2  0  0  3  0  0  0  0  0  0
  1  4  1  0  0  0  0
  1 17  1  0  0  0  0
  2  3  2  0  0  0  0
  3  5  1  0  0  0  0
  4  2  2  0  0  0  0
  5  7  1  0  0  0  0
  6  5  1  0  0  0  0
  8  4  1  0  0  0  0
  9  8  1  0  0  0  0
  9 10  1  0  0  0  0
 11 10  1  0  0  0  0
 11 14  1  0  0  0  0
 13 16  1  0  0  0  0
 13 11  1  0  0  0  0
 14 12  1  0  0  0  0
 15 12  1  0  0  0  0
 16 15  1  0  0  0  0
 17 18  1  0  0  0  0
 19 18  1  0  0  0  0
 20 19  1  0  0  0  0
 21 20  1  0  0  0  0
 22 21  1  0  0  0  0
 25 26  1  0  0  0  0
 25 23  2  0  0  0  0
 26 28  2  0  0  0  0
 27 23  1  6  0  0  0
 27 29  1  0  0  0  0
 27 30  1  0  0  0  0
 28 24  1  0  0  0  0
 28 29  1  0  0  0  0
 29 30  1  0  0  0  0
 30 22  1  1  0  0  0
M  END
>  <MODEL>
6

>  <REMARK>
 VINA RESULT:      -6.2      2.813      3.792
  Name = 
  13 active torsions:
  status: ('A' for Active; 'I' for Inactive)
    1  A    between atoms: O_3  and  C_23
    2  A    between atoms: O_3  and  C_26
    3  A    between atoms: O_6  and  C_10
    4  A    between atoms: O_6  and  C_15
    5  A    between atoms: C_8  and  O_9
    6  A    between atoms: O_9  and  C_18
    7  A    between atoms: C_10  and  C_21
    8  A    between atoms: C_12  and  C_15
    9  A    between atoms: C_12  and  C_30
   10  A    between atoms: C_18  and  C_22
   11  A    between atoms: C_21  and  C_23
   12  A    between atoms: C_22  and  C_30
   13  A    between atoms: C_24  and  C_29
                            x       y       z     vdW  Elec       q    Type
                         _______ _______ _______ _____ _____    ______ ____

>  <TORSDO>
F 13

$$$$
=
 OpenBabel11042418283D

 30 32  0  0  1  0  0  0  0  0999 V2000
  188.0540  176.5360  145.5180 C   0  0  0  0  0  2  0  0  0  0  0  0
  190.4300  176.6220  145.0300 C   0  0  0  0  0  0  0  0  0  0  0  0
  191.4400  177.3250  144.5960 C   0  0  0  0  0  3  0  0  0  0  0  0
  189.4160  175.9250  145.4680 C   0  0  0  0  0  0  0  0  0  0  0  0
  191.2890  178.2180  143.4140 C   0  0  0  0  0  3  0  0  0  0  0  0
  191.4640  179.5310  143.8060 F   0  0  0  0  0  0  0  0  0  0  0  0
  190.0270  178.0690  142.8670 F   0  0  0  0  0  0  0  0  0  0  0  0
  189.5850  174.4660  145.7290 C   0  0  0  0  0  2  0  0  0  0  0  0
  190.5580  173.8350  144.7420 C   0  0  0  0  0  2  0  0  0  0  0  0
  189.8780  173.0010  143.8500 O   0  0  0  0  0  0  0  0  0  0  0  0
  189.3840  173.8540  142.8580 C   0  0  0  0  0  3  0  0  0  0  0  0
  191.2890  173.5370  141.2460 C   0  0  0  0  0  2  0  0  0  0  0  0
  188.5150  173.0660  141.8760 C   0  0  0  0  0  2  0  0  0  0  0  0
  190.5390  174.5410  142.1230 C   0  0  0  0  0  2  0  0  0  0  0  0
  190.3710  172.9300  140.2830 N   0  0  0  0  0  2  0  0  0  0  0  0
  189.3820  172.1450  141.0190 C   0  0  0  0  0  2  0  0  0  0  0  0
  187.8020  177.1690  146.8730 C   0  0  0  0  0  2  0  0  0  0  0  0
  186.4750  176.9560  147.2440 O   0  0  0  0  0  0  0  0  0  0  0  0
  186.0770  178.1500  147.8510 C   0  0  0  0  0  2  0  0  0  0  0  0
  184.7280  178.5930  147.3100 C   0  0  0  0  0  2  0  0  0  0  0  0
  184.3880  177.8270  146.0460 C   0  0  0  0  0  2  0  0  0  0  0  0
  184.2900  178.7180  144.9760 O   0  0  0  0  0  0  0  0  0  0  0  0
  186.8700  178.4500  142.4360 C   0  0  0  0  0  3  0  0  0  0  0  0
  182.8810  178.2930  140.8050 N   0  0  0  0  0  1  0  0  0  0  0  0
  186.6320  177.9780  141.1810 C   0  0  0  0  0  3  0  0  0  0  0  0
  185.2640  177.9470  140.5590 C   0  0  0  0  0  3  0  0  0  0  0  0
  185.7790  179.0490  143.3080 C   0  0  1  0  0  3  0  0  0  0  0  0
  184.2120  178.2820  141.3050 C   0  0  0  0  0  0  0  0  0  0  0  0
  184.5240  178.6380  142.6320 N   0  0  0  0  0  0  0  0  0  0  0  0
  185.0100  178.1130  143.9470 C   0  0  2  0  0  3  0  0  0  0  0  0
  1 17  1  0  0  0  0
  2  4  2  0  0  0  0
  3  2  2  0  0  0  0
  4  1  1  0  0  0  0
  4  8  1  0  0  0  0
  5  6  1  0  0  0  0
  5  3  1  0  0  0  0
  7  5  1  0  0  0  0
  9  8  1  0  0  0  0
 10  9  1  0  0  0  0
 11 10  1  0  0  0  0
 12 14  1  0  0  0  0
 13 11  1  0  0  0  0
 14 11  1  0  0  0  0
 15 16  1  0  0  0  0
 15 12  1  0  0  0  0
 16 13  1  0  0  0  0
 17 18  1  0  0  0  0
 18 19  1  0  0  0  0
 20 19  1  0  0  0  0
 21 20  1  0  0  0  0
 22 21  1  0  0  0  0
 24 28  1  0  0  0  0
 25 23  2  0  0  0  0
 26 25  1  0  0  0  0
 26 28  2  0  0  0  0
 27 23  1  6  0  0  0
 27 30  1  0  0  0  0
 28 29  1  0  0  0  0
 29 27  1  0  0  0  0
 29 30  1  0  0  0  0
 30 22  1  1  0  0  0
M  END
>  <MODEL>
7

>  <REMARK>
 VINA RESULT:      -6.2      2.592      3.721
  Name = 
  13 active torsions:
  status: ('A' for Active; 'I' for Inactive)
    1  A    between atoms: O_3  and  C_23
    2  A    between atoms: O_3  and  C_26
    3  A    between atoms: O_6  and  C_10
    4  A    between atoms: O_6  and  C_15
    5  A    between atoms: C_8  and  O_9
    6  A    between atoms: O_9  and  C_18
    7  A    between atoms: C_10  and  C_21
    8  A    between atoms: C_12  and  C_15
    9  A    between atoms: C_12  and  C_30
   10  A    between atoms: C_18  and  C_22
   11  A    between atoms: C_21  and  C_23
   12  A    between atoms: C_22  and  C_30
   13  A    between atoms: C_24  and  C_29
                            x       y       z     vdW  Elec       q    Type
                         _______ _______ _______ _____ _____    ______ ____

>  <TORSDO>
F 13

$$$$
=
 OpenBabel11042418283D

 30 32  0  0  1  0  0  0  0  0999 V2000
  187.4170  175.5220  141.9970 C   0  0  0  0  0  2  0  0  0  0  0  0
  188.5730  177.6550  142.0720 C   0  0  0  0  0  0  0  0  0  0  0  0
  189.6890  178.2960  142.2870 C   0  0  0  0  0  3  0  0  0  0  0  0
  187.4590  177.0080  141.8540 C   0  0  0  0  0  0  0  0  0  0  0  0
  190.5740  177.9140  143.4210 C   0  0  0  0  0  3  0  0  0  0  0  0
  189.8380  177.8920  144.5900 F   0  0  0  0  0  0  0  0  0  0  0  0
  191.6050  178.8300  143.5470 F   0  0  0  0  0  0  0  0  0  0  0  0
  186.1920  177.7710  141.6570 C   0  0  0  0  0  2  0  0  0  0  0  0
  186.0150  178.8380  142.7280 C   0  0  0  0  0  2  0  0  0  0  0  0
  185.1720  178.3760  143.7440 O   0  0  0  0  0  0  0  0  0  0  0  0
  185.6570  178.9640  144.9150 C   0  0  0  0  0  3  0  0  0  0  0  0
  184.4420  177.4460  146.5110 C   0  0  0  0  0  2  0  0  0  0  0  0
  186.9500  178.2720  145.3520 C   0  0  0  0  0  2  0  0  0  0  0  0
  184.6040  178.8870  146.0250 C   0  0  0  0  0  2  0  0  0  0  0  0
  185.7220  176.9360  146.9980 N   0  0  0  0  0  2  0  0  0  0  0  0
  186.6500  176.8660  145.8710 C   0  0  0  0  0  2  0  0  0  0  0  0
  187.9720  174.8500  140.7550 C   0  0  0  0  0  2  0  0  0  0  0  0
  188.9010  173.8800  141.1300 O   0  0  0  0  0  0  0  0  0  0  0  0
  188.7740  173.7830  142.5190 C   0  0  0  0  0  2  0  0  0  0  0  0
  189.0130  172.3510  142.9710 C   0  0  0  0  0  2  0  0  0  0  0  0
  190.0080  172.3170  144.1140 C   0  0  0  0  0  2  0  0  0  0  0  0
  190.8500  173.4260  144.0300 O   0  0  0  0  0  0  0  0  0  0  0  0
  190.0950  174.9180  147.2520 C   0  0  0  0  0  3  0  0  0  0  0  0
  193.5010  176.7230  145.3200 N   0  0  0  0  0  1  0  0  0  0  0  0
  190.9830  175.6830  147.9450 C   0  0  0  0  0  3  0  0  0  0  0  0
  192.1580  176.3650  147.3020 C   0  0  0  0  0  3  0  0  0  0  0  0
  190.1720  174.7320  145.7460 C   0  0  1  0  0  3  0  0  0  0  0  0
  192.4200  176.1200  146.0180 C   0  0  0  0  0  0  0  0  0  0  0  0
  191.5300  175.2190  145.4010 N   0  0  0  0  0  0  0  0  0  0  0  0
  191.0870  173.7910  145.3550 C   0  0  2  0  0  3  0  0  0  0  0  0
  2  3  2  0  0  0  0
  3  5  1  0  0  0  0
  4  1  1  0  0  0  0
  4  2  2  0  0  0  0
  5  7  1  0  0  0  0
  5  6  1  0  0  0  0
  8  4  1  0  0  0  0
  8  9  1  0  0  0  0
  9 10  1  0  0  0  0
 10 11  1  0  0  0  0
 11 13  1  0  0  0  0
 11 14  1  0  0  0  0
 12 15  1  0  0  0  0
 13 16  1  0  0  0  0
 14 12  1  0  0  0  0
 16 15  1  0  0  0  0
 17 18  1  0  0  0  0
 17  1  1  0  0  0  0
 18 19  1  0  0  0  0
 19 20  1  0  0  0  0
 20 21  1  0  0  0  0
 22 21  1  0  0  0  0
 23 25  2  0  0  0  0
 24 28  1  0  0  0  0
 26 25  1  0  0  0  0
 27 23  1  1  0  0  0
 28 26  2  0  0  0  0
 29 27  1  0  0  0  0
 29 28  1  0  0  0  0
 30 22  1  6  0  0  0
 30 29  1  0  0  0  0
 30 27  1  0  0  0  0
M  END
>  <MODEL>
8

>  <REMARK>
 VINA RESULT:      -6.1      2.676      7.644
  Name = 
  13 active torsions:
  status: ('A' for Active; 'I' for Inactive)
    1  A    between atoms: O_3  and  C_23
    2  A    between atoms: O_3  and  C_26
    3  A    between atoms: O_6  and  C_10
    4  A    between atoms: O_6  and  C_15
    5  A    between atoms: C_8  and  O_9
    6  A    between atoms: O_9  and  C_18
    7  A    between atoms: C_10  and  C_21
    8  A    between atoms: C_12  and  C_15
    9  A    between atoms: C_12  and  C_30
   10  A    between atoms: C_18  and  C_22
   11  A    between atoms: C_21  and  C_23
   12  A    between atoms: C_22  and  C_30
   13  A    between atoms: C_24  and  C_29
                            x       y       z     vdW  Elec       q    Type
                         _______ _______ _______ _____ _____    ______ ____

>  <TORSDO>
F 13

$$$$
=
 OpenBabel11042418283D

 30 32  0  0  1  0  0  0  0  0999 V2000
  184.2010  178.5470  143.5690 C   0  0  0  0  0  2  0  0  0  0  0  0
  185.6980  177.4240  142.0220 C   0  0  0  0  0  0  0  0  0  0  0  0
  186.8690  176.8860  141.8180 C   0  0  0  0  0  3  0  0  0  0  0  0
  184.5250  177.9590  142.2350 C   0  0  0  0  0  0  0  0  0  0  0  0
  188.1000  177.5300  142.3520 C   0  0  0  0  0  3  0  0  0  0  0  0
  187.8300  178.0800  143.5900 F   0  0  0  0  0  0  0  0  0  0  0  0
  188.5250  178.5270  141.4920 F   0  0  0  0  0  0  0  0  0  0  0  0
  183.5890  178.1580  141.0890 C   0  0  0  0  0  2  0  0  0  0  0  0
  182.1500  178.2940  141.5660 C   0  0  0  0  0  2  0  0  0  0  0  0
  181.3380  178.7810  140.5370 O   0  0  0  0  0  0  0  0  0  0  0  0
  180.3280  179.5030  141.1790 C   0  0  0  0  0  3  0  0  0  0  0  0
  178.5150  178.9830  139.5160 C   0  0  0  0  0  2  0  0  0  0  0  0
  179.5860  178.5990  142.1650 C   0  0  0  0  0  2  0  0  0  0  0  0
  179.3570  180.0900  140.1510 C   0  0  0  0  0  2  0  0  0  0  0  0
  177.7750  178.2620  140.5510 N   0  0  0  0  0  2  0  0  0  0  0  0
  178.7360  177.5760  141.4120 C   0  0  0  0  0  2  0  0  0  0  0  0
  185.2400  179.5790  143.9640 C   0  0  0  0  0  2  0  0  0  0  0  0
  185.1680  179.8060  145.3380 O   0  0  0  0  0  0  0  0  0  0  0  0
  184.6100  178.6370  145.8640 C   0  0  0  0  0  2  0  0  0  0  0  0
  185.1070  178.4090  147.2820 C   0  0  0  0  0  2  0  0  0  0  0  0
  186.5580  177.9690  147.2700 C   0  0  0  0  0  2  0  0  0  0  0  0
  186.6920  176.8320  146.4730 O   0  0  0  0  0  0  0  0  0  0  0  0
  190.2260  176.8150  147.3040 C   0  0  0  0  0  3  0  0  0  0  0  0
  189.2940  174.3820  143.8670 N   0  0  0  0  0  1  0  0  0  0  0  0
  191.0940  175.8740  146.8420 C   0  0  0  0  0  3  0  0  0  0  0  0
  190.8270  175.0360  145.6240 C   0  0  0  0  0  3  0  0  0  0  0  0
  188.9260  177.1520  146.5920 C   0  0  1  0  0  3  0  0  0  0  0  0
  189.6370  175.1260  145.0300 C   0  0  0  0  0  0  0  0  0  0  0  0
  188.7450  176.0290  145.6400 N   0  0  0  0  0  0  0  0  0  0  0  0
  187.9100  176.2730  146.8570 C   0  0  2  0  0  3  0  0  0  0  0  0
  1 17  1  0  0  0  0
  2  4  2  0  0  0  0
  3  2  2  0  0  0  0
  3  5  1  0  0  0  0
  4  1  1  0  0  0  0
  5  6  1  0  0  0  0
  7  5  1  0  0  0  0
  8  9  1  0  0  0  0
  8  4  1  0  0  0  0
 10 11  1  0  0  0  0
 10  9  1  0  0  0  0
 11 13  1  0  0  0  0
 12 14  1  0  0  0  0
 12 15  1  0  0  0  0
 14 11  1  0  0  0  0
 15 16  1  0  0  0  0
 16 13  1  0  0  0  0
 17 18  1  0  0  0  0
 18 19  1  0  0  0  0
 19 20  1  0  0  0  0
 21 20  1  0  0  0  0
 22 21  1  0  0  0  0
 24 28  1  0  0  0  0
 25 23  2  0  0  0  0
 26 25  1  0  0  0  0
 27 30  1  0  0  0  0
 27 23  1  1  0  0  0
 28 26  2  0  0  0  0
 28 29  1  0  0  0  0
 29 27  1  0  0  0  0
 29 30  1  0  0  0  0
 30 22  1  6  0  0  0
M  END
>  <MODEL>
9

>  <REMARK>
 VINA RESULT:      -6.1      3.161      9.234
  Name = 
  13 active torsions:
  status: ('A' for Active; 'I' for Inactive)
    1  A    between atoms: O_3  and  C_23
    2  A    between atoms: O_3  and  C_26
    3  A    between atoms: O_6  and  C_10
    4  A    between atoms: O_6  and  C_15
    5  A    between atoms: C_8  and  O_9
    6  A    between atoms: O_9  and  C_18
    7  A    between atoms: C_10  and  C_21
    8  A    between atoms: C_12  and  C_15
    9  A    between atoms: C_12  and  C_30
   10  A    between atoms: C_18  and  C_22
   11  A    between atoms: C_21  and  C_23
   12  A    between atoms: C_22  and  C_30
   13  A    between atoms: C_24  and  C_29
                            x       y       z     vdW  Elec       q    Type
                         _______ _______ _______ _____ _____    ______ ____

>  <TORSDO>
F 13

$$$$
