=
 OpenBabel11042414303D

 52 54  0  0  1  0  0  0  0  0999 V2000
  189.4980  177.1010  142.5550 F   0  0  0  0  0  0  0  0  0  0  0  0
  186.2170  178.5010  143.3910 C   0  0  0  0  0  0  0  0  0  0  0  0
  185.4270  177.9310  142.3630 C   0  0  0  0  0  0  0  0  0  0  0  0
  187.5840  178.2000  143.4360 C   0  0  0  0  0  3  0  0  0  0  0  0
  186.0220  177.0900  141.4170 C   0  0  0  0  0  3  0  0  0  0  0  0
  188.1690  177.3630  142.4830 C   0  0  0  0  0  0  0  0  0  0  0  0
  187.3920  176.8040  141.4640 C   0  0  0  0  0  0  0  0  0  0  0  0
  188.0150  175.9460  140.4950 N   0  0  0  0  0  2  0  0  0  0  0  0
  188.0520  173.9520  141.7310 O   0  0  0  0  0  0  0  0  0  0  0  0
  188.9010  173.8410  139.5660 N   0  0  0  0  0  2  0  0  0  0  0  0
  188.3110  174.5520  140.6540 C   0  0  0  0  0  0  0  0  0  0  0  0
  189.1680  172.4140  139.6480 C   0  0  0  0  0  2  0  0  0  0  0  0
  193.5360  170.0170  138.5990 N   0  0  0  0  0  0  0  0  0  0  0  0
  191.6900  170.9110  137.1080 C   0  0  2  0  0  3  0  0  0  0  0  0
  193.9930  170.7920  136.4510 O   0  0  0  0  0  0  0  0  0  0  0  0
  191.4090  170.5010  139.5900 C   0  0  0  0  0  2  0  0  0  0  0  0
  189.2100  172.2240  137.2830 O   0  0  0  0  0  0  0  0  0  0  0  0
  193.0200  169.2850  140.9590 C   0  0  0  0  0  1  0  0  0  0  0  0
  189.7730  171.9300  138.3710 C   0  0  0  0  0  0  0  0  0  0  0  0
  192.6130  169.9410  139.6880 C   0  0  0  0  0  0  0  0  0  0  0  0
  193.1370  170.5890  137.3520 C   0  0  0  0  0  0  0  0  0  0  0  0
  190.9780  171.1380  138.3730 N   0  0  0  0  0  0  0  0  0  0  0  0
  190.8960  168.5470  137.2080 C   0  0  0  0  0  1  0  0  0  0  0  0
  191.0240  169.7810  136.3340 C   0  0  0  0  0  2  0  0  0  0  0  0
  185.4770  180.6350  144.1550 O   0  0  0  0  0  0  0  0  0  0  0  0
  185.6590  179.4170  144.4150 C   0  0  0  0  0  0  0  0  0  0  0  0
  185.2260  178.8200  146.0520 S   0  0  0  0  0  0  0  0  0  0  0  0
  185.6820  177.1060  145.6510 C   0  0  0  0  0  2  0  0  0  0  0  0
  187.5480  177.8520  147.0920 C   0  0  0  0  0  2  0  0  0  0  0  0
  187.7840  175.9430  145.7140 O   0  0  0  0  0  0  0  0  0  0  0  0
  188.9840  177.4380  147.1500 C   0  0  0  0  0  2  0  0  0  0  0  0
  189.0560  176.2210  146.2480 C   0  0  1  0  0  3  0  0  0  0  0  0
  186.8570  176.6540  146.4980 C   0  0  2  0  0  3  0  0  0  0  0  0
  189.6050  175.0090  146.9920 C   0  0  0  0  0  2  0  0  0  0  0  0
  191.0040  174.9140  146.8350 O   0  0  0  0  0  0  0  0  0  0  0  0
  191.3230  174.9250  145.4570 C   0  0  2  0  0  3  0  0  0  0  0  0
  191.1790  173.6020  144.8440 N   0  0  0  0  0  2  0  0  0  0  0  0
  191.1400  173.7820  143.4010 C   0  0  0  0  0  2  0  0  0  0  0  0
  191.6560  171.3890  143.7600 C   0  0  0  0  0  1  0  0  0  0  0  0
  191.4150  172.4580  142.7110 C   0  0  0  0  0  2  0  0  0  0  0  0
  192.7080  175.5250  145.1840 C   0  0  0  0  0  2  0  0  0  0  0  0
  193.5420  175.5730  146.4540 C   0  0  0  0  0  2  0  0  0  0  0  0
  194.2150  176.9190  146.6010 C   0  0  0  0  0  1  0  0  0  0  0  0
  183.9420  178.1110  142.2890 C   0  0  0  0  0  2  0  0  0  0  0  0
  183.4920  178.3920  140.8630 C   0  0  0  0  0  2  0  0  0  0  0  0
  182.0760  177.8950  140.6370 C   0  0  0  0  0  2  0  0  0  0  0  0
  181.1010  178.7200  141.4540 C   0  0  0  0  0  2  0  0  0  0  0  0
  180.5880  179.8220  140.6560 N   0  0  0  0  0  2  0  0  0  0  0  0
  178.0320  179.6090  141.8210 O   0  0  0  0  0  1  0  0  0  0  0  0
  178.8890  179.5060  140.3670 P   0  0  0  0  0  0  0  0  0  0  0  0
  178.7300  178.1200  139.7900 O   0  0  0  0  0  1  0  0  0  0  0  0
  178.2800  180.6390  139.2670 O   0  0  0  0  0  0  0  0  0  0  0  0
  2  4  1  0  0  0  0
  2 26  1  0  0  0  0
  3  2  2  0  0  0  0
  5  7  2  0  0  0  0
  5  3  1  0  0  0  0
  6  1  1  0  0  0  0
  6  4  2  0  0  0  0
  7  6  1  0  0  0  0
  8 11  1  0  0  0  0
  8  7  1  0  0  0  0
 10 12  1  0  0  0  0
 10 11  1  0  0  0  0
 11  9  2  0  0  0  0
 13 20  2  0  0  0  0
 14 24  1  1  0  0  0
 14 21  1  0  0  0  0
 14 22  1  0  0  0  0
 15 21  2  0  0  0  0
 16 20  1  0  0  0  0
 17 19  2  0  0  0  0
 19 22  1  0  0  0  0
 19 12  1  0  0  0  0
 20 18  1  0  0  0  0
 21 13  1  0  0  0  0
 22 16  1  0  0  0  0
 24 23  1  0  0  0  0
 25 26  2  0  0  0  0
 26 27  1  0  0  0  0
 28 27  1  0  0  0  0
 29 31  1  0  0  0  0
 30 32  1  0  0  0  0
 30 33  1  0  0  0  0
 32 34  1  1  0  0  0
 32 31  1  0  0  0  0
 33 28  1  6  0  0  0
 33 29  1  0  0  0  0
 35 34  1  0  0  0  0
 36 41  1  1  0  0  0
 36 35  1  0  0  0  0
 37 36  1  0  0  0  0
 38 37  1  0  0  0  0
 40 38  1  0  0  0  0
 40 39  1  0  0  0  0
 41 42  1  0  0  0  0
 42 43  1  0  0  0  0
 44  3  1  0  0  0  0
 45 44  1  0  0  0  0
 46 45  1  0  0  0  0
 46 47  1  0  0  0  0
 48 47  1  0  0  0  0
 50 48  1  0  0  0  0
 50 49  1  0  0  0  0
 51 50  1  0  0  0  0
 52 50  2  0  0  0  0
M  END
>  <MODEL>
1

>  <REMARK>
 VINA RESULT:      -6.3      0.000      0.000
  Name = 
  22 active torsions:
  status: ('A' for Active; 'I' for Inactive)
    1  A    between atoms: C_5  and  C_10
    2  A    between atoms: C_5  and  C_19
    3  A    between atoms: N_6  and  C_44
    4  A    between atoms: C_8  and  C_40
    5  A    between atoms: C_9  and  C_48
    6  A    between atoms: C_12  and  C_51
    7  A    between atoms: S_13  and  C_37
    8  A    between atoms: S_13  and  C_40
    9  A    between atoms: C_14  and  C_45
   10  A    between atoms: C_14  and  N_50
   11  A    between atoms: N_16  and  C_36
   12  A    between atoms: C_17  and  C_31
   13  A    between atoms: C_19  and  C_45
   14  A    between atoms: N_20  and  C_28
   15  A    between atoms: N_20  and  C_39
   16  A    between atoms: C_28  and  C_48
   17  A    between atoms: C_28  and  O_49
   18  A    between atoms: C_31  and  O_49
   19  A    between atoms: C_33  and  C_36
   20  A    between atoms: C_34  and  C_39
   21  A    between atoms: C_37  and  C_41
   22  A    between atoms: P_42  and  N_50
                            x       y       z     vdW  Elec       q    Type
                         _______ _______ _______ _____ _____    ______ ____

>  <TORSDO>
F 22

$$$$
=
 OpenBabel11042414303D

 52 54  0  0  1  0  0  0  0  0999 V2000
  185.4670  176.4070  146.2480 F   0  0  0  0  0  0  0  0  0  0  0  0
  189.0600  177.1240  146.3170 C   0  0  0  0  0  0  0  0  0  0  0  0
  189.2580  177.5590  144.9840 C   0  0  0  0  0  0  0  0  0  0  0  0
  187.7710  176.7470  146.7180 C   0  0  0  0  0  3  0  0  0  0  0  0
  188.1760  177.5980  144.0990 C   0  0  0  0  0  3  0  0  0  0  0  0
  186.6980  176.7860  145.8250 C   0  0  0  0  0  0  0  0  0  0  0  0
  186.8940  177.2100  144.5070 C   0  0  0  0  0  0  0  0  0  0  0  0
  185.7760  177.2410  143.6060 N   0  0  0  0  0  2  0  0  0  0  0  0
  184.8320  179.2890  144.2540 O   0  0  0  0  0  0  0  0  0  0  0  0
  183.7670  178.1660  142.5160 N   0  0  0  0  0  2  0  0  0  0  0  0
  184.7940  178.2810  143.5000 C   0  0  0  0  0  0  0  0  0  0  0  0
  182.7800  179.2160  142.3220 C   0  0  0  0  0  2  0  0  0  0  0  0
  177.9950  177.6720  143.1230 N   0  0  0  0  0  0  0  0  0  0  0  0
  179.4110  177.7900  141.0240 C   0  0  2  0  0  3  0  0  0  0  0  0
  177.6930  176.1570  141.3810 O   0  0  0  0  0  0  0  0  0  0  0  0
  179.9580  179.0460  143.1520 C   0  0  0  0  0  2  0  0  0  0  0  0
  181.9800  178.5660  140.1850 O   0  0  0  0  0  0  0  0  0  0  0  0
  178.4230  179.2640  145.0350 C   0  0  0  0  0  1  0  0  0  0  0  0
  181.7030  178.7450  141.4000 C   0  0  0  0  0  0  0  0  0  0  0  0
  178.8160  178.6750  143.7280 C   0  0  0  0  0  0  0  0  0  0  0  0
  178.3280  177.1430  141.8390 C   0  0  0  0  0  0  0  0  0  0  0  0
  180.3660  178.5030  141.8830 N   0  0  0  0  0  0  0  0  0  0  0  0
  178.4840  178.0310  138.7190 C   0  0  0  0  0  1  0  0  0  0  0  0
  178.8030  178.7550  140.0140 C   0  0  0  0  0  2  0  0  0  0  0  0
  190.5110  178.0460  147.9690 O   0  0  0  0  0  0  0  0  0  0  0  0
  190.1630  177.0360  147.3040 C   0  0  0  0  0  0  0  0  0  0  0  0
  191.0340  175.4900  147.5810 S   0  0  0  0  0  0  0  0  0  0  0  0
  189.6450  174.4880  146.9700 C   0  0  0  0  0  2  0  0  0  0  0  0
  191.5640  173.7800  145.5810 C   0  0  0  0  0  2  0  0  0  0  0  0
  189.3680  173.7450  144.7020 O   0  0  0  0  0  0  0  0  0  0  0  0
  191.6770  173.4870  144.1190 C   0  0  0  0  0  2  0  0  0  0  0  0
  190.2420  173.4840  143.6290 C   0  0  1  0  0  3  0  0  0  0  0  0
  190.1080  173.5400  145.8800 C   0  0  2  0  0  3  0  0  0  0  0  0
  189.8870  172.1640  142.9540 C   0  0  0  0  0  2  0  0  0  0  0  0
  189.0140  172.3750  141.8660 O   0  0  0  0  0  0  0  0  0  0  0  0
  189.7560  172.3720  140.6620 C   0  0  2  0  0  3  0  0  0  0  0  0
  188.9070  172.5920  139.4890 N   0  0  0  0  0  2  0  0  0  0  0  0
  188.4620  173.9770  139.5140 C   0  0  0  0  0  2  0  0  0  0  0  0
  189.0520  173.8290  137.1150 C   0  0  0  0  0  1  0  0  0  0  0  0
  188.0720  174.4150  138.1140 C   0  0  0  0  0  2  0  0  0  0  0  0
  190.6150  171.1110  140.5080 C   0  0  0  0  0  2  0  0  0  0  0  0
  191.9340  171.4300  139.8230 C   0  0  0  0  0  2  0  0  0  0  0  0
  192.6780  172.5110  140.5740 C   0  0  0  0  0  1  0  0  0  0  0  0
  190.5740  178.0750  144.4880 C   0  0  0  0  0  2  0  0  0  0  0  0
  191.4390  176.9480  143.9450 C   0  0  0  0  0  2  0  0  0  0  0  0
  192.8420  177.0220  144.5200 C   0  0  0  0  0  2  0  0  0  0  0  0
  193.8420  176.4800  143.5170 C   0  0  0  0  0  2  0  0  0  0  0  0
  195.0790  176.1190  144.1900 N   0  0  0  0  0  2  0  0  0  0  0  0
  197.1580  174.5990  143.0490 O   0  0  0  0  0  1  0  0  0  0  0  0
  196.3380  176.0750  142.9710 P   0  0  0  0  0  0  0  0  0  0  0  0
  197.3110  177.2020  143.2180 O   0  0  0  0  0  1  0  0  0  0  0  0
  195.6490  176.2620  141.4370 O   0  0  0  0  0  0  0  0  0  0  0  0
  2  4  1  0  0  0  0
  2 26  1  0  0  0  0
  3  2  2  0  0  0  0
  5  7  2  0  0  0  0
  5  3  1  0  0  0  0
  6  1  1  0  0  0  0
  6  4  2  0  0  0  0
  7  6  1  0  0  0  0
  8  7  1  0  0  0  0
 10 11  1  0  0  0  0
 11  8  1  0  0  0  0
 11  9  2  0  0  0  0
 12 10  1  0  0  0  0
 13 20  2  0  0  0  0
 14 24  1  6  0  0  0
 14 21  1  0  0  0  0
 14 22  1  0  0  0  0
 15 21  2  0  0  0  0
 16 20  1  0  0  0  0
 17 19  2  0  0  0  0
 19 22  1  0  0  0  0
 19 12  1  0  0  0  0
 20 18  1  0  0  0  0
 21 13  1  0  0  0  0
 22 16  1  0  0  0  0
 23 24  1  0  0  0  0
 26 27  1  0  0  0  0
 26 25  2  0  0  0  0
 28 27  1  0  0  0  0
 29 33  1  0  0  0  0
 30 33  1  0  0  0  0
 31 29  1  0  0  0  0
 32 34  1  1  0  0  0
 32 31  1  0  0  0  0
 32 30  1  0  0  0  0
 33 28  1  1  0  0  0
 35 34  1  0  0  0  0
 36 41  1  6  0  0  0
 36 35  1  0  0  0  0
 37 38  1  0  0  0  0
 37 36  1  0  0  0  0
 39 40  1  0  0  0  0
 40 38  1  0  0  0  0
 42 41  1  0  0  0  0
 42 43  1  0  0  0  0
 44  3  1  0  0  0  0
 45 44  1  0  0  0  0
 45 46  1  0  0  0  0
 47 48  1  0  0  0  0
 47 46  1  0  0  0  0
 50 49  1  0  0  0  0
 50 51  1  0  0  0  0
 50 48  1  0  0  0  0
 52 50  2  0  0  0  0
M  END
>  <MODEL>
2

>  <REMARK>
 VINA RESULT:      -6.3      3.988     10.700
  Name = 
  22 active torsions:
  status: ('A' for Active; 'I' for Inactive)
    1  A    between atoms: C_5  and  C_10
    2  A    between atoms: C_5  and  C_19
    3  A    between atoms: N_6  and  C_44
    4  A    between atoms: C_8  and  C_40
    5  A    between atoms: C_9  and  C_48
    6  A    between atoms: C_12  and  C_51
    7  A    between atoms: S_13  and  C_37
    8  A    between atoms: S_13  and  C_40
    9  A    between atoms: C_14  and  C_45
   10  A    between atoms: C_14  and  N_50
   11  A    between atoms: N_16  and  C_36
   12  A    between atoms: C_17  and  C_31
   13  A    between atoms: C_19  and  C_45
   14  A    between atoms: N_20  and  C_28
   15  A    between atoms: N_20  and  C_39
   16  A    between atoms: C_28  and  C_48
   17  A    between atoms: C_28  and  O_49
   18  A    between atoms: C_31  and  O_49
   19  A    between atoms: C_33  and  C_36
   20  A    between atoms: C_34  and  C_39
   21  A    between atoms: C_37  and  C_41
   22  A    between atoms: P_42  and  N_50
                            x       y       z     vdW  Elec       q    Type
                         _______ _______ _______ _____ _____    ______ ____

>  <TORSDO>
F 22

$$$$
=
 OpenBabel11042414303D

 52 54  0  0  1  0  0  0  0  0999 V2000
  189.1600  171.9680  143.8830 F   0  0  0  0  0  0  0  0  0  0  0  0
  190.9120  174.4640  145.9150 C   0  0  0  0  0  0  0  0  0  0  0  0
  192.2570  174.1410  145.6120 C   0  0  0  0  0  0  0  0  0  0  0  0
  189.8880  173.7200  145.3140 C   0  0  0  0  0  3  0  0  0  0  0  0
  192.5360  173.0900  144.7320 C   0  0  0  0  0  3  0  0  0  0  0  0
  190.1780  172.6700  144.4400 C   0  0  0  0  0  0  0  0  0  0  0  0
  191.5060  172.3460  144.1440 C   0  0  0  0  0  0  0  0  0  0  0  0
  191.7800  171.2620  143.2430 N   0  0  0  0  0  2  0  0  0  0  0  0
  191.9960  172.4810  141.2500 O   0  0  0  0  0  0  0  0  0  0  0  0
  192.3250  170.1820  141.0950 N   0  0  0  0  0  2  0  0  0  0  0  0
  192.0290  171.3660  141.8340 C   0  0  0  0  0  0  0  0  0  0  0  0
  192.6440  170.2320  139.6770 C   0  0  0  0  0  2  0  0  0  0  0  0
  190.5310  174.1380  137.1850 N   0  0  0  0  0  0  0  0  0  0  0  0
  189.7500  171.7600  137.5870 C   0  0  2  0  0  3  0  0  0  0  0  0
  188.2650  173.6260  137.3450 O   0  0  0  0  0  0  0  0  0  0  0  0
  192.1500  172.5120  137.8760 C   0  0  0  0  0  2  0  0  0  0  0  0
  190.5910  169.3860  138.8390 O   0  0  0  0  0  0  0  0  0  0  0  0
  192.9980  174.6720  137.1250 C   0  0  0  0  0  1  0  0  0  0  0  0
  191.3920  170.3580  138.8720 C   0  0  0  0  0  0  0  0  0  0  0  0
  191.8840  173.7240  137.3930 C   0  0  0  0  0  0  0  0  0  0  0  0
  189.4560  173.2170  137.3800 C   0  0  0  0  0  0  0  0  0  0  0  0
  191.0980  171.5650  138.1400 N   0  0  0  0  0  0  0  0  0  0  0  0
  190.9520  170.9530  135.5540 C   0  0  0  0  0  1  0  0  0  0  0  0
  189.6160  171.0040  136.2720 C   0  0  0  0  0  2  0  0  0  0  0  0
  190.7850  175.4440  148.0850 O   0  0  0  0  0  0  0  0  0  0  0  0
  190.5410  175.5490  146.8540 C   0  0  0  0  0  0  0  0  0  0  0  0
  189.7360  177.0440  146.2700 S   0  0  0  0  0  0  0  0  0  0  0  0
  188.0950  176.4900  146.8230 C   0  0  0  0  0  2  0  0  0  0  0  0
  186.6660  178.2960  147.7230 C   0  0  0  0  0  2  0  0  0  0  0  0
  185.8840  176.9030  145.9790 O   0  0  0  0  0  0  0  0  0  0  0  0
  185.2180  178.6110  147.5200 C   0  0  0  0  0  2  0  0  0  0  0  0
  184.7910  177.6840  146.3980 C   0  0  1  0  0  3  0  0  0  0  0  0
  187.0390  177.5250  146.4850 C   0  0  2  0  0  3  0  0  0  0  0  0
  184.2040  178.4630  145.2260 C   0  0  0  0  0  2  0  0  0  0  0  0
  185.1540  178.6090  144.1940 O   0  0  0  0  0  0  0  0  0  0  0  0
  184.7480  177.8540  143.0700 C   0  0  2  0  0  3  0  0  0  0  0  0
  185.8580  177.1090  142.4730 N   0  0  0  0  0  2  0  0  0  0  0  0
  187.0650  177.9060  142.6320 C   0  0  0  0  0  2  0  0  0  0  0  0
  189.5370  177.8450  142.5370 C   0  0  0  0  0  1  0  0  0  0  0  0
  188.2660  177.1230  142.1300 C   0  0  0  0  0  2  0  0  0  0  0  0
  184.0150  178.7070  142.0270 C   0  0  0  0  0  2  0  0  0  0  0  0
  183.6600  177.8820  140.8010 C   0  0  0  0  0  2  0  0  0  0  0  0
  182.1970  178.0460  140.4520 C   0  0  0  0  0  1  0  0  0  0  0  0
  193.4170  174.9390  146.1240 C   0  0  0  0  0  2  0  0  0  0  0  0
  194.7370  174.3830  145.6110 C   0  0  0  0  0  2  0  0  0  0  0  0
  195.5400  175.4640  144.9120 C   0  0  0  0  0  2  0  0  0  0  0  0
  195.0870  175.5960  143.4710 C   0  0  0  0  0  2  0  0  0  0  0  0
  195.7590  174.6080  142.6430 N   0  0  0  0  0  2  0  0  0  0  0  0
  196.3400  174.0100  139.9520 O   0  0  0  0  0  0  0  0  0  0  0  0
  195.5950  175.1290  140.9780 P   0  0  0  0  0  0  0  0  0  0  0  0
  196.2530  176.4770  140.8090 O   0  0  0  0  0  1  0  0  0  0  0  0
  193.9550  175.2570  140.5820 O   0  0  0  0  0  1  0  0  0  0  0  0
  1  6  1  0  0  0  0
  2 26  1  0  0  0  0
  3  2  1  0  0  0  0
  3 44  1  0  0  0  0
  4  2  2  0  0  0  0
  5  3  2  0  0  0  0
  6  4  1  0  0  0  0
  7  6  2  0  0  0  0
  7  5  1  0  0  0  0
  8  7  1  0  0  0  0
  9 11  2  0  0  0  0
 10 11  1  0  0  0  0
 11  8  1  0  0  0  0
 12 10  1  0  0  0  0
 13 21  1  0  0  0  0
 13 20  2  0  0  0  0
 14 24  1  6  0  0  0
 14 22  1  0  0  0  0
 15 21  2  0  0  0  0
 16 22  1  0  0  0  0
 17 19  2  0  0  0  0
 18 20  1  0  0  0  0
 19 12  1  0  0  0  0
 20 16  1  0  0  0  0
 21 14  1  0  0  0  0
 22 19  1  0  0  0  0
 23 24  1  0  0  0  0
 26 25  2  0  0  0  0
 27 28  1  0  0  0  0
 27 26  1  0  0  0  0
 30 32  1  0  0  0  0
 30 33  1  0  0  0  0
 31 29  1  0  0  0  0
 32 34  1  6  0  0  0
 32 31  1  0  0  0  0
 33 28  1  1  0  0  0
 33 29  1  0  0  0  0
 35 34  1  0  0  0  0
 36 41  1  6  0  0  0
 36 35  1  0  0  0  0
 37 38  1  0  0  0  0
 37 36  1  0  0  0  0
 40 39  1  0  0  0  0
 40 38  1  0  0  0  0
 42 41  1  0  0  0  0
 43 42  1  0  0  0  0
 45 44  1  0  0  0  0
 46 45  1  0  0  0  0
 47 46  1  0  0  0  0
 48 47  1  0  0  0  0
 49 50  2  0  0  0  0
 50 48  1  0  0  0  0
 51 50  1  0  0  0  0
 52 50  1  0  0  0  0
M  END
>  <MODEL>
3

>  <REMARK>
 VINA RESULT:      -6.1      3.769      8.521
  Name = 
  22 active torsions:
  status: ('A' for Active; 'I' for Inactive)
    1  A    between atoms: C_5  and  C_10
    2  A    between atoms: C_5  and  C_19
    3  A    between atoms: N_6  and  C_44
    4  A    between atoms: C_8  and  C_40
    5  A    between atoms: C_9  and  C_48
    6  A    between atoms: C_12  and  C_51
    7  A    between atoms: S_13  and  C_37
    8  A    between atoms: S_13  and  C_40
    9  A    between atoms: C_14  and  C_45
   10  A    between atoms: C_14  and  N_50
   11  A    between atoms: N_16  and  C_36
   12  A    between atoms: C_17  and  C_31
   13  A    between atoms: C_19  and  C_45
   14  A    between atoms: N_20  and  C_28
   15  A    between atoms: N_20  and  C_39
   16  A    between atoms: C_28  and  C_48
   17  A    between atoms: C_28  and  O_49
   18  A    between atoms: C_31  and  O_49
   19  A    between atoms: C_33  and  C_36
   20  A    between atoms: C_34  and  C_39
   21  A    between atoms: C_37  and  C_41
   22  A    between atoms: P_42  and  N_50
                            x       y       z     vdW  Elec       q    Type
                         _______ _______ _______ _____ _____    ______ ____

>  <TORSDO>
F 22

$$$$
=
 OpenBabel11042414303D

 52 54  0  0  1  0  0  0  0  0999 V2000
  189.2390  172.2810  144.2800 F   0  0  0  0  0  0  0  0  0  0  0  0
  191.2090  174.7310  146.1620 C   0  0  0  0  0  0  0  0  0  0  0  0
  192.5200  174.3400  145.7950 C   0  0  0  0  0  0  0  0  0  0  0  0
  190.1220  174.0240  145.6330 C   0  0  0  0  0  3  0  0  0  0  0  0
  192.7030  173.2620  144.9240 C   0  0  0  0  0  3  0  0  0  0  0  0
  190.3160  172.9460  144.7670 C   0  0  0  0  0  0  0  0  0  0  0  0
  191.6100  172.5540  144.4080 C   0  0  0  0  0  0  0  0  0  0  0  0
  191.7860  171.4430  143.5160 N   0  0  0  0  0  2  0  0  0  0  0  0
  192.2740  172.6180  141.5460 O   0  0  0  0  0  0  0  0  0  0  0  0
  192.2980  170.2960  141.3950 N   0  0  0  0  0  2  0  0  0  0  0  0
  192.1240  171.5100  142.1240 C   0  0  0  0  0  0  0  0  0  0  0  0
  192.7000  170.3010  139.9970 C   0  0  0  0  0  2  0  0  0  0  0  0
  190.6850  174.0870  137.2520 N   0  0  0  0  0  0  0  0  0  0  0  0
  189.9140  171.7120  137.6900 C   0  0  2  0  0  3  0  0  0  0  0  0
  188.4210  173.5450  137.2970 O   0  0  0  0  0  0  0  0  0  0  0  0
  192.2820  172.5100  138.0920 C   0  0  0  0  0  2  0  0  0  0  0  0
  190.7120  169.3950  139.0710 O   0  0  0  0  0  0  0  0  0  0  0  0
  193.1430  174.6560  137.3170 C   0  0  0  0  0  1  0  0  0  0  0  0
  191.4950  170.3800  139.1160 C   0  0  0  0  0  0  0  0  0  0  0  0
  192.0290  173.7010  137.5530 C   0  0  0  0  0  0  0  0  0  0  0  0
  189.6130  173.1570  137.4150 C   0  0  0  0  0  0  0  0  0  0  0  0
  191.2290  171.5570  138.3270 N   0  0  0  0  0  0  0  0  0  0  0  0
  189.3530  171.7720  135.2590 C   0  0  0  0  0  1  0  0  0  0  0  0
  189.8670  170.9090  136.3970 C   0  0  0  0  0  2  0  0  0  0  0  0
  191.0850  175.6980  148.3390 O   0  0  0  0  0  0  0  0  0  0  0  0
  190.9390  175.8500  147.0970 C   0  0  0  0  0  0  0  0  0  0  0  0
  190.3990  177.4510  146.4910 S   0  0  0  0  0  0  0  0  0  0  0  0
  188.7570  177.2920  147.2540 C   0  0  0  0  0  2  0  0  0  0  0  0
  186.3940  177.9670  146.9770 C   0  0  0  0  0  2  0  0  0  0  0  0
  187.4200  176.5180  145.4140 O   0  0  0  0  0  0  0  0  0  0  0  0
  185.3200  177.4700  146.0640 C   0  0  0  0  0  2  0  0  0  0  0  0
  186.0480  176.5520  145.1000 C   0  0  1  0  0  3  0  0  0  0  0  0
  187.6670  177.6200  146.2510 C   0  0  2  0  0  3  0  0  0  0  0  0
  185.8370  176.9840  143.6530 C   0  0  0  0  0  2  0  0  0  0  0  0
  186.6100  178.1260  143.3530 O   0  0  0  0  0  0  0  0  0  0  0  0
  186.7800  178.2220  141.9520 C   0  0  2  0  0  3  0  0  0  0  0  0
  185.9590  177.2510  141.2260 N   0  0  0  0  0  2  0  0  0  0  0  0
  185.2410  177.9670  140.1820 C   0  0  0  0  0  2  0  0  0  0  0  0
  182.7750  177.7850  140.2560 C   0  0  0  0  0  1  0  0  0  0  0  0
  183.9720  178.5720  140.7550 C   0  0  0  0  0  2  0  0  0  0  0  0
  188.2540  178.1370  141.5360 C   0  0  0  0  0  2  0  0  0  0  0  0
  189.1330  177.7560  142.7170 C   0  0  0  0  0  2  0  0  0  0  0  0
  189.5690  176.3120  142.6140 C   0  0  0  0  0  1  0  0  0  0  0  0
  193.7400  175.0930  146.2270 C   0  0  0  0  0  2  0  0  0  0  0  0
  194.4860  175.6660  145.0310 C   0  0  0  0  0  2  0  0  0  0  0  0
  195.9190  175.1670  145.0020 C   0  0  0  0  0  2  0  0  0  0  0  0
  196.3870  175.0220  143.5670 C   0  0  0  0  0  2  0  0  0  0  0  0
  195.5930  175.8710  142.6940 N   0  0  0  0  0  2  0  0  0  0  0  0
  196.9480  176.0870  140.2340 O   0  0  0  0  0  0  0  0  0  0  0  0
  195.7500  175.2350  141.0680 P   0  0  0  0  0  0  0  0  0  0  0  0
  194.4340  175.3830  140.3440 O   0  0  0  0  0  1  0  0  0  0  0  0
  196.1640  173.5950  141.1380 O   0  0  0  0  0  1  0  0  0  0  0  0
  1  6  1  0  0  0  0
  2 26  1  0  0  0  0
  3  2  1  0  0  0  0
  3 44  1  0  0  0  0
  4  2  2  0  0  0  0
  5  3  2  0  0  0  0
  6  4  1  0  0  0  0
  7  6  2  0  0  0  0
  7  5  1  0  0  0  0
  8  7  1  0  0  0  0
  9 11  2  0  0  0  0
 10 11  1  0  0  0  0
 11  8  1  0  0  0  0
 12 10  1  0  0  0  0
 13 21  1  0  0  0  0
 13 20  2  0  0  0  0
 14 24  1  6  0  0  0
 14 22  1  0  0  0  0
 15 21  2  0  0  0  0
 16 22  1  0  0  0  0
 17 19  2  0  0  0  0
 18 20  1  0  0  0  0
 19 12  1  0  0  0  0
 20 16  1  0  0  0  0
 21 14  1  0  0  0  0
 22 19  1  0  0  0  0
 23 24  1  0  0  0  0
 26 25  2  0  0  0  0
 27 26  1  0  0  0  0
 27 28  1  0  0  0  0
 30 33  1  0  0  0  0
 31 29  1  0  0  0  0
 32 34  1  6  0  0  0
 32 30  1  0  0  0  0
 32 31  1  0  0  0  0
 33 29  1  0  0  0  0
 33 28  1  1  0  0  0
 35 34  1  0  0  0  0
 36 41  1  1  0  0  0
 36 35  1  0  0  0  0
 37 36  1  0  0  0  0
 38 40  1  0  0  0  0
 38 37  1  0  0  0  0
 39 40  1  0  0  0  0
 41 42  1  0  0  0  0
 43 42  1  0  0  0  0
 45 44  1  0  0  0  0
 46 45  1  0  0  0  0
 47 46  1  0  0  0  0
 48 47  1  0  0  0  0
 49 50  2  0  0  0  0
 50 52  1  0  0  0  0
 50 48  1  0  0  0  0
 51 50  1  0  0  0  0
M  END
>  <MODEL>
4

>  <REMARK>
 VINA RESULT:      -6.1      3.937      8.438
  Name = 
  22 active torsions:
  status: ('A' for Active; 'I' for Inactive)
    1  A    between atoms: C_5  and  C_10
    2  A    between atoms: C_5  and  C_19
    3  A    between atoms: N_6  and  C_44
    4  A    between atoms: C_8  and  C_40
    5  A    between atoms: C_9  and  C_48
    6  A    between atoms: C_12  and  C_51
    7  A    between atoms: S_13  and  C_37
    8  A    between atoms: S_13  and  C_40
    9  A    between atoms: C_14  and  C_45
   10  A    between atoms: C_14  and  N_50
   11  A    between atoms: N_16  and  C_36
   12  A    between atoms: C_17  and  C_31
   13  A    between atoms: C_19  and  C_45
   14  A    between atoms: N_20  and  C_28
   15  A    between atoms: N_20  and  C_39
   16  A    between atoms: C_28  and  C_48
   17  A    between atoms: C_28  and  O_49
   18  A    between atoms: C_31  and  O_49
   19  A    between atoms: C_33  and  C_36
   20  A    between atoms: C_34  and  C_39
   21  A    between atoms: C_37  and  C_41
   22  A    between atoms: P_42  and  N_50
                            x       y       z     vdW  Elec       q    Type
                         _______ _______ _______ _____ _____    ______ ____

>  <TORSDO>
F 22

$$$$
=
 OpenBabel11042414303D

 52 54  0  0  1  0  0  0  0  0999 V2000
  194.8790  173.9060  146.0240 F   0  0  0  0  0  0  0  0  0  0  0  0
  191.8060  175.8960  145.8710 C   0  0  0  0  0  0  0  0  0  0  0  0
  192.1260  176.7770  144.8090 C   0  0  0  0  0  0  0  0  0  0  0  0
  192.7500  174.9350  146.2570 C   0  0  0  0  0  3  0  0  0  0  0  0
  193.3680  176.6750  144.1740 C   0  0  0  0  0  3  0  0  0  0  0  0
  193.9890  174.8450  145.6190 C   0  0  0  0  0  0  0  0  0  0  0  0
  194.3080  175.7170  144.5730 C   0  0  0  0  0  0  0  0  0  0  0  0
  195.5880  175.6070  143.9320 N   0  0  0  0  0  2  0  0  0  0  0  0
  194.8960  175.7200  141.6940 O   0  0  0  0  0  0  0  0  0  0  0  0
  197.1880  175.5430  142.0570 N   0  0  0  0  0  2  0  0  0  0  0  0
  195.8410  175.6250  142.5210 C   0  0  0  0  0  0  0  0  0  0  0  0
  197.5090  175.6170  140.6410 C   0  0  0  0  0  2  0  0  0  0  0  0
  195.7550  174.1370  136.0960 N   0  0  0  0  0  0  0  0  0  0  0  0
  196.5530  172.8290  138.1150 C   0  0  2  0  0  3  0  0  0  0  0  0
  194.8800  172.0370  136.5910 O   0  0  0  0  0  0  0  0  0  0  0  0
  197.0600  175.2820  137.7480 C   0  0  0  0  0  2  0  0  0  0  0  0
  197.5760  173.2460  140.7000 O   0  0  0  0  0  0  0  0  0  0  0  0
  196.6480  176.4560  135.6510 C   0  0  0  0  0  1  0  0  0  0  0  0
  197.3530  174.2730  140.0070 C   0  0  0  0  0  0  0  0  0  0  0  0
  196.5150  175.2670  136.5330 C   0  0  0  0  0  0  0  0  0  0  0  0
  195.6700  172.9650  136.9070 C   0  0  0  0  0  0  0  0  0  0  0  0
  196.9580  174.1460  138.6260 N   0  0  0  0  0  0  0  0  0  0  0  0
  197.5360  170.5350  138.0570 C   0  0  0  0  0  1  0  0  0  0  0  0
  197.7870  172.0040  137.7730 C   0  0  0  0  0  2  0  0  0  0  0  0
  190.4470  176.5250  147.7270 O   0  0  0  0  0  0  0  0  0  0  0  0
  190.5190  175.9590  146.6040 C   0  0  0  0  0  0  0  0  0  0  0  0
  189.0270  175.2350  145.9160 S   0  0  0  0  0  0  0  0  0  0  0  0
  189.8110  173.6120  145.6770 C   0  0  0  0  0  2  0  0  0  0  0  0
  191.0380  172.4780  143.8540 C   0  0  0  0  0  2  0  0  0  0  0  0
  189.6610  174.3460  143.3940 O   0  0  0  0  0  0  0  0  0  0  0  0
  191.2710  172.8600  142.4270 C   0  0  0  0  0  2  0  0  0  0  0  0
  190.3630  174.0560  142.2100 C   0  0  1  0  0  3  0  0  0  0  0  0
  189.7720  173.2100  144.2150 C   0  0  2  0  0  3  0  0  0  0  0  0
  189.3970  173.8180  141.0540 C   0  0  0  0  0  2  0  0  0  0  0  0
  189.3250  172.4460  140.7340 O   0  0  0  0  0  0  0  0  0  0  0  0
  189.2270  172.2960  139.3320 C   0  0  2  0  0  3  0  0  0  0  0  0
  189.8760  171.0710  138.8590 N   0  0  0  0  0  2  0  0  0  0  0  0
  191.1840  171.4340  138.3360 C   0  0  0  0  0  2  0  0  0  0  0  0
  191.2910  170.4600  136.0640 C   0  0  0  0  0  1  0  0  0  0  0  0
  191.7390  170.2910  137.5030 C   0  0  0  0  0  2  0  0  0  0  0  0
  189.7330  173.5310  138.5740 C   0  0  0  0  0  2  0  0  0  0  0  0
  188.8090  173.8770  137.4180 C   0  0  0  0  0  2  0  0  0  0  0  0
  187.7140  174.8160  137.8730 C   0  0  0  0  0  1  0  0  0  0  0  0
  191.1490  177.7700  144.2590 C   0  0  0  0  0  2  0  0  0  0  0  0
  190.7680  177.4320  142.8250 C   0  0  0  0  0  2  0  0  0  0  0  0
  189.5590  178.2370  142.3860 C   0  0  0  0  0  2  0  0  0  0  0  0
  188.3150  177.7270  143.0880 C   0  0  0  0  0  2  0  0  0  0  0  0
  187.1360  178.3950  142.5620 N   0  0  0  0  0  2  0  0  0  0  0  0
  185.5610  180.2260  144.0140 O   0  0  0  0  0  1  0  0  0  0  0  0
  186.0200  178.6030  143.8970 P   0  0  0  0  0  0  0  0  0  0  0  0
  186.6920  178.1790  145.1810 O   0  0  0  0  0  1  0  0  0  0  0  0
  184.6490  177.6430  143.6450 O   0  0  0  0  0  0  0  0  0  0  0  0
  2  4  1  0  0  0  0
  2 26  1  0  0  0  0
  3  2  2  0  0  0  0
  5  7  2  0  0  0  0
  5  3  1  0  0  0  0
  6  1  1  0  0  0  0
  6  4  2  0  0  0  0
  7  6  1  0  0  0  0
  8  7  1  0  0  0  0
  9 11  2  0  0  0  0
 10 11  1  0  0  0  0
 11  8  1  0  0  0  0
 12 10  1  0  0  0  0
 13 20  2  0  0  0  0
 13 21  1  0  0  0  0
 14 24  1  6  0  0  0
 14 22  1  0  0  0  0
 15 21  2  0  0  0  0
 16 22  1  0  0  0  0
 18 20  1  0  0  0  0
 19 12  1  0  0  0  0
 19 17  2  0  0  0  0
 20 16  1  0  0  0  0
 21 14  1  0  0  0  0
 22 19  1  0  0  0  0
 24 23  1  0  0  0  0
 26 25  2  0  0  0  0
 27 26  1  0  0  0  0
 28 27  1  0  0  0  0
 29 33  1  0  0  0  0
 30 33  1  0  0  0  0
 31 29  1  0  0  0  0
 32 34  1  6  0  0  0
 32 31  1  0  0  0  0
 32 30  1  0  0  0  0
 33 28  1  1  0  0  0
 35 34  1  0  0  0  0
 36 41  1  6  0  0  0
 36 35  1  0  0  0  0
 37 36  1  0  0  0  0
 38 37  1  0  0  0  0
 39 40  1  0  0  0  0
 40 38  1  0  0  0  0
 42 43  1  0  0  0  0
 42 41  1  0  0  0  0
 44  3  1  0  0  0  0
 45 44  1  0  0  0  0
 46 45  1  0  0  0  0
 46 47  1  0  0  0  0
 48 47  1  0  0  0  0
 48 50  1  0  0  0  0
 50 49  1  0  0  0  0
 50 51  1  0  0  0  0
 52 50  2  0  0  0  0
M  END
>  <MODEL>
5

>  <REMARK>
 VINA RESULT:      -5.8      3.807      7.250
  Name = 
  22 active torsions:
  status: ('A' for Active; 'I' for Inactive)
    1  A    between atoms: C_5  and  C_10
    2  A    between atoms: C_5  and  C_19
    3  A    between atoms: N_6  and  C_44
    4  A    between atoms: C_8  and  C_40
    5  A    between atoms: C_9  and  C_48
    6  A    between atoms: C_12  and  C_51
    7  A    between atoms: S_13  and  C_37
    8  A    between atoms: S_13  and  C_40
    9  A    between atoms: C_14  and  C_45
   10  A    between atoms: C_14  and  N_50
   11  A    between atoms: N_16  and  C_36
   12  A    between atoms: C_17  and  C_31
   13  A    between atoms: C_19  and  C_45
   14  A    between atoms: N_20  and  C_28
   15  A    between atoms: N_20  and  C_39
   16  A    between atoms: C_28  and  C_48
   17  A    between atoms: C_28  and  O_49
   18  A    between atoms: C_31  and  O_49
   19  A    between atoms: C_33  and  C_36
   20  A    between atoms: C_34  and  C_39
   21  A    between atoms: C_37  and  C_41
   22  A    between atoms: P_42  and  N_50
                            x       y       z     vdW  Elec       q    Type
                         _______ _______ _______ _____ _____    ______ ____

>  <TORSDO>
F 22

$$$$
=
 OpenBabel11042414303D

 52 54  0  0  1  0  0  0  0  0999 V2000
  194.5050  176.8780  146.9670 F   0  0  0  0  0  0  0  0  0  0  0  0
  195.5740  173.8650  145.1760 C   0  0  0  0  0  0  0  0  0  0  0  0
  194.3440  173.4610  144.6010 C   0  0  0  0  0  0  0  0  0  0  0  0
  195.6010  175.0230  145.9640 C   0  0  0  0  0  3  0  0  0  0  0  0
  193.1890  174.2140  144.8330 C   0  0  0  0  0  3  0  0  0  0  0  0
  194.4410  175.7660  146.1930 C   0  0  0  0  0  0  0  0  0  0  0  0
  193.2240  175.3650  145.6310 C   0  0  0  0  0  0  0  0  0  0  0  0
  192.0450  176.1440  145.8800 N   0  0  0  0  0  2  0  0  0  0  0  0
  190.5810  174.4180  146.4990 O   0  0  0  0  0  0  0  0  0  0  0  0
  189.7130  176.5770  146.5540 N   0  0  0  0  0  2  0  0  0  0  0  0
  190.7710  175.6500  146.3160 C   0  0  0  0  0  0  0  0  0  0  0  0
  188.4190  176.1400  147.0550 C   0  0  0  0  0  2  0  0  0  0  0  0
  186.9240  177.4430  142.3650 N   0  0  0  0  0  0  0  0  0  0  0  0
  186.1670  178.2070  144.6610 C   0  0  2  0  0  3  0  0  0  0  0  0
  186.1200  179.6010  142.7110 O   0  0  0  0  0  0  0  0  0  0  0  0
  187.4920  176.0880  144.2580 C   0  0  0  0  0  2  0  0  0  0  0  0
  186.6980  177.7410  147.3830 O   0  0  0  0  0  0  0  0  0  0  0  0
  187.8900  175.1320  142.0500 C   0  0  0  0  0  1  0  0  0  0  0  0
  187.3410  177.0450  146.5530 C   0  0  0  0  0  0  0  0  0  0  0  0
  187.4130  176.2260  142.9360 C   0  0  0  0  0  0  0  0  0  0  0  0
  186.4050  178.4770  143.2030 C   0  0  0  0  0  0  0  0  0  0  0  0
  187.0330  177.1230  145.1470 N   0  0  0  0  0  0  0  0  0  0  0  0
  184.0140  178.9460  145.6830 C   0  0  0  0  0  1  0  0  0  0  0  0
  184.7060  177.8480  144.8980 C   0  0  0  0  0  2  0  0  0  0  0  0
  197.2410  172.3120  145.8820 O   0  0  0  0  0  0  0  0  0  0  0  0
  196.8330  173.1040  144.9920 C   0  0  0  0  0  0  0  0  0  0  0  0
  197.8120  173.2860  143.4980 S   0  0  0  0  0  0  0  0  0  0  0  0
  197.6240  175.0940  143.4800 C   0  0  0  0  0  2  0  0  0  0  0  0
  195.6600  176.1430  142.4040 C   0  0  0  0  0  2  0  0  0  0  0  0
  196.9010  174.4760  141.2740 O   0  0  0  0  0  0  0  0  0  0  0  0
  194.9030  175.7930  141.1630 C   0  0  0  0  0  2  0  0  0  0  0  0
  195.7520  174.7250  140.4990 C   0  0  1  0  0  3  0  0  0  0  0  0
  197.0260  175.5560  142.1650 C   0  0  2  0  0  3  0  0  0  0  0  0
  196.1370  175.1240  139.0780 C   0  0  0  0  0  2  0  0  0  0  0  0
  197.0640  174.2110  138.5340 O   0  0  0  0  0  0  0  0  0  0  0  0
  196.4050  173.3690  137.6080 C   0  0  2  0  0  3  0  0  0  0  0  0
  197.2500  172.2540  137.1740 N   0  0  0  0  0  2  0  0  0  0  0  0
  196.7820  171.0530  137.8490 C   0  0  0  0  0  2  0  0  0  0  0  0
  195.2150  170.1620  139.5450 C   0  0  0  0  0  1  0  0  0  0  0  0
  195.6180  171.3980  138.7620 C   0  0  0  0  0  2  0  0  0  0  0  0
  195.8400  174.1460  136.4120 C   0  0  0  0  0  2  0  0  0  0  0  0
  194.7680  173.3410  135.6960 C   0  0  0  0  0  2  0  0  0  0  0  0
  193.4860  173.3260  136.4970 C   0  0  0  0  0  1  0  0  0  0  0  0
  194.2320  172.2970  143.6650 C   0  0  0  0  0  2  0  0  0  0  0  0
  193.9760  171.0030  144.4230 C   0  0  0  0  0  2  0  0  0  0  0  0
  192.9950  170.1230  143.6700 C   0  0  0  0  0  2  0  0  0  0  0  0
  192.7330  170.7010  142.2920 C   0  0  0  0  0  2  0  0  0  0  0  0
  191.3240  170.5760  141.9580 N   0  0  0  0  0  2  0  0  0  0  0  0
  189.4190  172.2470  140.7260 O   0  0  0  0  0  0  0  0  0  0  0  0
  190.6680  172.1990  141.8660 P   0  0  0  0  0  0  0  0  0  0  0  0
  191.7590  173.1560  141.4530 O   0  0  0  0  0  1  0  0  0  0  0  0
  190.0710  172.6570  143.3820 O   0  0  0  0  0  1  0  0  0  0  0  0
  2  4  1  0  0  0  0
  3  5  1  0  0  0  0
  3  2  2  0  0  0  0
  4  6  2  0  0  0  0
  5  7  2  0  0  0  0
  6  1  1  0  0  0  0
  7  8  1  0  0  0  0
  7  6  1  0  0  0  0
  8 11  1  0  0  0  0
 10 12  1  0  0  0  0
 11  9  2  0  0  0  0
 11 10  1  0  0  0  0
 13 20  2  0  0  0  0
 13 21  1  0  0  0  0
 14 24  1  6  0  0  0
 14 22  1  0  0  0  0
 15 21  2  0  0  0  0
 16 22  1  0  0  0  0
 18 20  1  0  0  0  0
 19 12  1  0  0  0  0
 19 17  2  0  0  0  0
 20 16  1  0  0  0  0
 21 14  1  0  0  0  0
 22 19  1  0  0  0  0
 24 23  1  0  0  0  0
 26  2  1  0  0  0  0
 26 25  2  0  0  0  0
 27 26  1  0  0  0  0
 28 27  1  0  0  0  0
 30 33  1  0  0  0  0
 31 29  1  0  0  0  0
 32 34  1  6  0  0  0
 32 31  1  0  0  0  0
 32 30  1  0  0  0  0
 33 29  1  0  0  0  0
 33 28  1  1  0  0  0
 35 34  1  0  0  0  0
 36 41  1  6  0  0  0
 36 35  1  0  0  0  0
 37 36  1  0  0  0  0
 37 38  1  0  0  0  0
 38 40  1  0  0  0  0
 40 39  1  0  0  0  0
 42 41  1  0  0  0  0
 42 43  1  0  0  0  0
 44 45  1  0  0  0  0
 44  3  1  0  0  0  0
 46 45  1  0  0  0  0
 47 46  1  0  0  0  0
 48 47  1  0  0  0  0
 49 50  2  0  0  0  0
 50 48  1  0  0  0  0
 50 52  1  0  0  0  0
 51 50  1  0  0  0  0
M  END
>  <MODEL>
6

>  <REMARK>
 VINA RESULT:      -5.6      4.483     10.785
  Name = 
  22 active torsions:
  status: ('A' for Active; 'I' for Inactive)
    1  A    between atoms: C_5  and  C_10
    2  A    between atoms: C_5  and  C_19
    3  A    between atoms: N_6  and  C_44
    4  A    between atoms: C_8  and  C_40
    5  A    between atoms: C_9  and  C_48
    6  A    between atoms: C_12  and  C_51
    7  A    between atoms: S_13  and  C_37
    8  A    between atoms: S_13  and  C_40
    9  A    between atoms: C_14  and  C_45
   10  A    between atoms: C_14  and  N_50
   11  A    between atoms: N_16  and  C_36
   12  A    between atoms: C_17  and  C_31
   13  A    between atoms: C_19  and  C_45
   14  A    between atoms: N_20  and  C_28
   15  A    between atoms: N_20  and  C_39
   16  A    between atoms: C_28  and  C_48
   17  A    between atoms: C_28  and  O_49
   18  A    between atoms: C_31  and  O_49
   19  A    between atoms: C_33  and  C_36
   20  A    between atoms: C_34  and  C_39
   21  A    between atoms: C_37  and  C_41
   22  A    between atoms: P_42  and  N_50
                            x       y       z     vdW  Elec       q    Type
                         _______ _______ _______ _____ _____    ______ ____

>  <TORSDO>
F 22

$$$$
=
 OpenBabel11042414303D

 52 54  0  0  1  0  0  0  0  0999 V2000
  189.3090  177.1830  142.4350 F   0  0  0  0  0  0  0  0  0  0  0  0
  186.0890  178.5640  143.5100 C   0  0  0  0  0  0  0  0  0  0  0  0
  185.2180  177.9190  142.5970 C   0  0  0  0  0  0  0  0  0  0  0  0
  187.4620  178.2930  143.4360 C   0  0  0  0  0  3  0  0  0  0  0  0
  185.7400  177.0380  141.6450 C   0  0  0  0  0  3  0  0  0  0  0  0
  187.9730  177.4140  142.4790 C   0  0  0  0  0  0  0  0  0  0  0  0
  187.1150  176.7810  141.5740 C   0  0  0  0  0  0  0  0  0  0  0  0
  187.6630  175.8820  140.5980 N   0  0  0  0  0  2  0  0  0  0  0  0
  186.5780  176.7000  138.6850 O   0  0  0  0  0  0  0  0  0  0  0  0
  188.0560  174.9320  138.3570 N   0  0  0  0  0  2  0  0  0  0  0  0
  187.3880  175.8790  139.1900 C   0  0  0  0  0  0  0  0  0  0  0  0
  187.8630  174.9210  136.9150 C   0  0  0  0  0  2  0  0  0  0  0  0
  191.7160  171.6700  137.6300 N   0  0  0  0  0  2  0  0  0  0  0  0
  191.4180  173.6260  136.0460 C   0  0  2  0  0  3  0  0  0  0  0  0
  193.5380  172.9400  136.9310 O   0  0  0  0  0  0  0  0  0  0  0  0
  189.4980  172.4920  137.2440 C   0  0  0  0  0  3  0  0  0  0  0  0
  189.5200  175.5800  135.3490 O   0  0  0  0  0  0  0  0  0  0  0  0
  189.7050  170.3830  138.4520 C   0  0  0  0  0  1  0  0  0  0  0  0
  189.1750  174.7410  136.2230 C   0  0  0  0  0  0  0  0  0  0  0  0
  190.2950  171.5460  137.7360 C   0  0  0  0  0  0  0  0  0  0  0  0
  192.2940  172.7480  136.8930 C   0  0  0  0  0  0  0  0  0  0  0  0
  190.0340  173.6270  136.5390 N   0  0  0  0  0  0  0  0  0  0  0  0
  191.7400  171.6710  134.5280 C   0  0  0  0  0  1  0  0  0  0  0  0
  191.4520  173.1600  134.5960 C   0  0  0  0  0  2  0  0  0  0  0  0
  185.2460  180.6850  144.1990 O   0  0  0  0  0  0  0  0  0  0  0  0
  185.6110  179.5260  144.5300 C   0  0  0  0  0  0  0  0  0  0  0  0
  185.5340  179.0720  146.2660 S   0  0  0  0  0  0  0  0  0  0  0  0
  185.5620  177.2910  145.8990 C   0  0  0  0  0  2  0  0  0  0  0  0
  187.7020  177.6900  147.0710 C   0  0  0  0  0  2  0  0  0  0  0  0
  187.4740  175.8730  145.5730 O   0  0  0  0  0  0  0  0  0  0  0  0
  189.0620  177.0960  146.8840 C   0  0  0  0  0  2  0  0  0  0  0  0
  188.8370  175.9500  145.9170 C   0  0  1  0  0  3  0  0  0  0  0  0
  186.7760  176.6340  146.5270 C   0  0  2  0  0  3  0  0  0  0  0  0
  189.3200  174.6260  146.5010 C   0  0  0  0  0  2  0  0  0  0  0  0
  190.5370  174.2300  145.9080 O   0  0  0  0  0  0  0  0  0  0  0  0
  190.6540  174.8280  144.6320 C   0  0  2  0  0  3  0  0  0  0  0  0
  190.1880  173.9430  143.5610 N   0  0  0  0  0  2  0  0  0  0  0  0
  191.2720  173.0270  143.2380 C   0  0  0  0  0  2  0  0  0  0  0  0
  190.1220  173.4130  141.0820 C   0  0  0  0  0  1  0  0  0  0  0  0
  191.3830  172.8750  141.7320 C   0  0  0  0  0  2  0  0  0  0  0  0
  192.0720  175.3470  144.3580 C   0  0  0  0  0  2  0  0  0  0  0  0
  192.2100  176.8010  144.7790 C   0  0  0  0  0  2  0  0  0  0  0  0
  192.0010  177.7210  143.5970 C   0  0  0  0  0  1  0  0  0  0  0  0
  183.7290  178.0660  142.6590 C   0  0  0  0  0  2  0  0  0  0  0  0
  183.1530  178.4150  141.2950 C   0  0  0  0  0  2  0  0  0  0  0  0
  181.7020  177.9800  141.1960 C   0  0  0  0  0  2  0  0  0  0  0  0
  180.7960  179.0770  141.7220 C   0  0  0  0  0  2  0  0  0  0  0  0
  180.1720  179.7830  140.6140 N   0  0  0  0  0  2  0  0  0  0  0  0
  178.3860  177.7350  139.8670 O   0  0  0  0  0  1  0  0  0  0  0  0
  178.4950  179.2760  140.5560 P   0  0  0  0  0  0  0  0  0  0  0  0
  177.7060  180.2540  139.7210 O   0  0  0  0  0  0  0  0  0  0  0  0
  177.8580  179.2420  142.1240 O   0  0  0  0  0  1  0  0  0  0  0  0
  1  6  1  0  0  0  0
  2 26  1  0  0  0  0
  3 44  1  0  0  0  0
  3  2  2  0  0  0  0
  4  2  1  0  0  0  0
  5  3  1  0  0  0  0
  6  4  2  0  0  0  0
  7  5  2  0  0  0  0
  7  6  1  0  0  0  0
  8  7  1  0  0  0  0
  9 11  2  0  0  0  0
 10 11  1  0  0  0  0
 11  8  1  0  0  0  0
 12 10  1  0  0  0  0
 13 20  1  0  0  0  0
 14 24  1  6  0  0  0
 14 22  1  0  0  0  0
 14 21  1  0  0  0  0
 16 20  2  0  0  0  0
 17 19  2  0  0  0  0
 19 22  1  0  0  0  0
 19 12  1  0  0  0  0
 20 18  1  0  0  0  0
 21 15  2  0  0  0  0
 21 13  1  0  0  0  0
 22 16  1  0  0  0  0
 23 24  1  0  0  0  0
 25 26  2  0  0  0  0
 26 27  1  0  0  0  0
 28 27  1  0  0  0  0
 30 32  1  0  0  0  0
 30 33  1  0  0  0  0
 31 29  1  0  0  0  0
 32 34  1  1  0  0  0
 32 31  1  0  0  0  0
 33 28  1  6  0  0  0
 33 29  1  0  0  0  0
 35 34  1  0  0  0  0
 36 41  1  6  0  0  0
 36 35  1  0  0  0  0
 37 36  1  0  0  0  0
 38 37  1  0  0  0  0
 39 40  1  0  0  0  0
 40 38  1  0  0  0  0
 41 42  1  0  0  0  0
 43 42  1  0  0  0  0
 45 44  1  0  0  0  0
 46 45  1  0  0  0  0
 46 47  1  0  0  0  0
 48 47  1  0  0  0  0
 49 50  1  0  0  0  0
 50 48  1  0  0  0  0
 50 52  1  0  0  0  0
 51 50  2  0  0  0  0
M  END
>  <MODEL>
7

>  <REMARK>
 VINA RESULT:      -5.6      1.694      2.204
  Name = 
  22 active torsions:
  status: ('A' for Active; 'I' for Inactive)
    1  A    between atoms: C_5  and  C_10
    2  A    between atoms: C_5  and  C_19
    3  A    between atoms: N_6  and  C_44
    4  A    between atoms: C_8  and  C_40
    5  A    between atoms: C_9  and  C_48
    6  A    between atoms: C_12  and  C_51
    7  A    between atoms: S_13  and  C_37
    8  A    between atoms: S_13  and  C_40
    9  A    between atoms: C_14  and  C_45
   10  A    between atoms: C_14  and  N_50
   11  A    between atoms: N_16  and  C_36
   12  A    between atoms: C_17  and  C_31
   13  A    between atoms: C_19  and  C_45
   14  A    between atoms: N_20  and  C_28
   15  A    between atoms: N_20  and  C_39
   16  A    between atoms: C_28  and  C_48
   17  A    between atoms: C_28  and  O_49
   18  A    between atoms: C_31  and  O_49
   19  A    between atoms: C_33  and  C_36
   20  A    between atoms: C_34  and  C_39
   21  A    between atoms: C_37  and  C_41
   22  A    between atoms: P_42  and  N_50
                            x       y       z     vdW  Elec       q    Type
                         _______ _______ _______ _____ _____    ______ ____

>  <TORSDO>
F 22

$$$$
=
 OpenBabel11042414303D

 52 54  0  0  1  0  0  0  0  0999 V2000
  194.1060  176.4740  147.2530 F   0  0  0  0  0  0  0  0  0  0  0  0
  195.3760  173.9600  144.9100 C   0  0  0  0  0  0  0  0  0  0  0  0
  194.3780  174.0190  143.9070 C   0  0  0  0  0  0  0  0  0  0  0  0
  195.2630  174.8020  146.0240 C   0  0  0  0  0  3  0  0  0  0  0  0
  193.3050  174.9050  144.0480 C   0  0  0  0  0  3  0  0  0  0  0  0
  194.1850  175.6790  146.1570 C   0  0  0  0  0  0  0  0  0  0  0  0
  193.1950  175.7350  145.1700 C   0  0  0  0  0  0  0  0  0  0  0  0
  192.0960  176.6450  145.3290 N   0  0  0  0  0  2  0  0  0  0  0  0
  190.5360  175.1810  146.2900 O   0  0  0  0  0  0  0  0  0  0  0  0
  189.8450  177.3860  146.0100 N   0  0  0  0  0  2  0  0  0  0  0  0
  190.8130  176.3430  145.8930 C   0  0  0  0  0  0  0  0  0  0  0  0
  188.5500  177.1530  146.6280 C   0  0  0  0  0  2  0  0  0  0  0  0
  187.2860  176.4510  141.7460 N   0  0  0  0  0  0  0  0  0  0  0  0
  186.3540  177.9850  143.5370 C   0  0  2  0  0  3  0  0  0  0  0  0
  186.3600  178.5160  141.1990 O   0  0  0  0  0  0  0  0  0  0  0  0
  187.8000  175.9680  144.0370 C   0  0  0  0  0  2  0  0  0  0  0  0
  186.7380  178.6370  146.2450 O   0  0  0  0  0  0  0  0  0  0  0  0
  188.3790  174.2670  142.3870 C   0  0  0  0  0  1  0  0  0  0  0  0
  187.4630  177.7210  145.7740 C   0  0  0  0  0  0  0  0  0  0  0  0
  187.7960  175.5830  142.7620 C   0  0  0  0  0  0  0  0  0  0  0  0
  186.6680  177.6900  142.0980 C   0  0  0  0  0  0  0  0  0  0  0  0
  187.2380  177.2320  144.4370 N   0  0  0  0  0  0  0  0  0  0  0  0
  184.3070  178.6650  144.7920 C   0  0  0  0  0  1  0  0  0  0  0  0
  184.8990  177.6460  143.8370 C   0  0  0  0  0  2  0  0  0  0  0  0
  196.5850  172.0170  145.5830 O   0  0  0  0  0  0  0  0  0  0  0  0
  196.5290  173.0310  144.8380 C   0  0  0  0  0  0  0  0  0  0  0  0
  197.8790  173.3200  143.6890 S   0  0  0  0  0  0  0  0  0  0  0  0
  197.8430  175.1190  143.9520 C   0  0  0  0  0  2  0  0  0  0  0  0
  196.4450  176.6340  142.5870 C   0  0  0  0  0  2  0  0  0  0  0  0
  197.7320  174.9360  141.5580 O   0  0  0  0  0  0  0  0  0  0  0  0
  196.0520  176.5920  141.1440 C   0  0  0  0  0  2  0  0  0  0  0  0
  196.9100  175.4870  140.5580 C   0  0  1  0  0  3  0  0  0  0  0  0
  197.7300  175.8500  142.6280 C   0  0  2  0  0  3  0  0  0  0  0  0
  197.7490  175.9950  139.3900 C   0  0  0  0  0  2  0  0  0  0  0  0
  197.9290  174.9830  138.4240 O   0  0  0  0  0  0  0  0  0  0  0  0
  196.6800  174.3890  138.1270 C   0  0  2  0  0  3  0  0  0  0  0  0
  196.8060  172.9660  137.8040 N   0  0  0  0  0  2  0  0  0  0  0  0
  196.8720  172.2290  139.0570 C   0  0  0  0  0  2  0  0  0  0  0  0
  196.1760  169.8770  139.3780 C   0  0  0  0  0  1  0  0  0  0  0  0
  197.2380  170.7820  138.7820 C   0  0  0  0  0  2  0  0  0  0  0  0
  195.9170  175.1500  137.0350 C   0  0  0  0  0  2  0  0  0  0  0  0
  196.7700  175.3150  135.7880 C   0  0  0  0  0  2  0  0  0  0  0  0
  196.8150  176.7640  135.3590 C   0  0  0  0  0  1  0  0  0  0  0  0
  194.4610  173.2340  142.6340 C   0  0  0  0  0  2  0  0  0  0  0  0
  193.4150  173.6970  141.6310 C   0  0  0  0  0  2  0  0  0  0  0  0
  193.5740  172.9660  140.3110 C   0  0  0  0  0  2  0  0  0  0  0  0
  192.8140  173.6960  139.2200 C   0  0  0  0  0  2  0  0  0  0  0  0
  193.1020  173.0980  137.9260 N   0  0  0  0  0  2  0  0  0  0  0  0
  190.4250  173.9090  137.5890 O   0  0  0  0  0  1  0  0  0  0  0  0
  191.9060  173.7050  136.7980 P   0  0  0  0  0  0  0  0  0  0  0  0
  191.7380  172.7180  135.6680 O   0  0  0  0  0  0  0  0  0  0  0  0
  192.4210  175.1890  136.1680 O   0  0  0  0  0  1  0  0  0  0  0  0
  2  4  1  0  0  0  0
  3  5  1  0  0  0  0
  3  2  2  0  0  0  0
  4  6  2  0  0  0  0
  5  7  2  0  0  0  0
  6  1  1  0  0  0  0
  7  8  1  0  0  0  0
  7  6  1  0  0  0  0
  8 11  1  0  0  0  0
 10 12  1  0  0  0  0
 11 10  1  0  0  0  0
 11  9  2  0  0  0  0
 13 21  1  0  0  0  0
 13 20  2  0  0  0  0
 14 24  1  1  0  0  0
 14 22  1  0  0  0  0
 15 21  2  0  0  0  0
 16 22  1  0  0  0  0
 18 20  1  0  0  0  0
 19 17  2  0  0  0  0
 19 12  1  0  0  0  0
 20 16  1  0  0  0  0
 21 14  1  0  0  0  0
 22 19  1  0  0  0  0
 24 23  1  0  0  0  0
 26  2  1  0  0  0  0
 26 25  2  0  0  0  0
 27 28  1  0  0  0  0
 27 26  1  0  0  0  0
 29 33  1  0  0  0  0
 30 33  1  0  0  0  0
 31 29  1  0  0  0  0
 32 34  1  6  0  0  0
 32 31  1  0  0  0  0
 32 30  1  0  0  0  0
 33 28  1  1  0  0  0
 35 34  1  0  0  0  0
 36 41  1  6  0  0  0
 36 35  1  0  0  0  0
 37 36  1  0  0  0  0
 37 38  1  0  0  0  0
 40 38  1  0  0  0  0
 40 39  1  0  0  0  0
 42 41  1  0  0  0  0
 43 42  1  0  0  0  0
 44  3  1  0  0  0  0
 45 44  1  0  0  0  0
 46 45  1  0  0  0  0
 47 46  1  0  0  0  0
 48 47  1  0  0  0  0
 50 49  1  0  0  0  0
 50 48  1  0  0  0  0
 51 50  2  0  0  0  0
 52 50  1  0  0  0  0
M  END
>  <MODEL>
8

>  <REMARK>
 VINA RESULT:      -5.5      4.850     10.588
  Name = 
  22 active torsions:
  status: ('A' for Active; 'I' for Inactive)
    1  A    between atoms: C_5  and  C_10
    2  A    between atoms: C_5  and  C_19
    3  A    between atoms: N_6  and  C_44
    4  A    between atoms: C_8  and  C_40
    5  A    between atoms: C_9  and  C_48
    6  A    between atoms: C_12  and  C_51
    7  A    between atoms: S_13  and  C_37
    8  A    between atoms: S_13  and  C_40
    9  A    between atoms: C_14  and  C_45
   10  A    between atoms: C_14  and  N_50
   11  A    between atoms: N_16  and  C_36
   12  A    between atoms: C_17  and  C_31
   13  A    between atoms: C_19  and  C_45
   14  A    between atoms: N_20  and  C_28
   15  A    between atoms: N_20  and  C_39
   16  A    between atoms: C_28  and  C_48
   17  A    between atoms: C_28  and  O_49
   18  A    between atoms: C_31  and  O_49
   19  A    between atoms: C_33  and  C_36
   20  A    between atoms: C_34  and  C_39
   21  A    between atoms: C_37  and  C_41
   22  A    between atoms: P_42  and  N_50
                            x       y       z     vdW  Elec       q    Type
                         _______ _______ _______ _____ _____    ______ ____

>  <TORSDO>
F 22

$$$$
=
 OpenBabel11042414303D

 52 54  0  0  1  0  0  0  0  0999 V2000
  192.9390  176.3010  141.5990 F   0  0  0  0  0  0  0  0  0  0  0  0
  193.9660  175.8460  145.0870 C   0  0  0  0  0  0  0  0  0  0  0  0
  195.0920  175.0040  144.9130 C   0  0  0  0  0  0  0  0  0  0  0  0
  193.2620  176.2730  143.9530 C   0  0  0  0  0  3  0  0  0  0  0  0
  195.4730  174.6130  143.6260 C   0  0  0  0  0  3  0  0  0  0  0  0
  193.6490  175.8730  142.6720 C   0  0  0  0  0  0  0  0  0  0  0  0
  194.7570  175.0370  142.4990 C   0  0  0  0  0  0  0  0  0  0  0  0
  195.1360  174.6380  141.1730 N   0  0  0  0  0  2  0  0  0  0  0  0
  193.7060  172.7960  140.9140 O   0  0  0  0  0  0  0  0  0  0  0  0
  195.0610  173.3150  139.0940 N   0  0  0  0  0  2  0  0  0  0  0  0
  194.5910  173.5450  140.4220 C   0  0  0  0  0  0  0  0  0  0  0  0
  194.5030  172.2600  138.2630 C   0  0  0  0  0  2  0  0  0  0  0  0
  189.9180  170.4820  136.9410 N   0  0  0  0  0  0  0  0  0  0  0  0
  191.1990  172.5570  136.2470 C   0  0  2  0  0  3  0  0  0  0  0  0
  189.6480  171.4110  134.8230 O   0  0  0  0  0  0  0  0  0  0  0  0
  191.7570  171.1920  138.3050 C   0  0  0  0  0  2  0  0  0  0  0  0
  193.6420  173.8600  136.7380 O   0  0  0  0  0  0  0  0  0  0  0  0
  190.3180  169.4410  139.2060 C   0  0  0  0  0  1  0  0  0  0  0  0
  193.4190  172.8080  137.3930 C   0  0  0  0  0  0  0  0  0  0  0  0
  190.6850  170.4180  138.1470 C   0  0  0  0  0  0  0  0  0  0  0  0
  190.2220  171.4570  135.9430 C   0  0  0  0  0  0  0  0  0  0  0  0
  192.1380  172.1540  137.3040 N   0  0  0  0  0  0  0  0  0  0  0  0
  190.3460  174.7800  135.4990 C   0  0  0  0  0  1  0  0  0  0  0  0
  190.4550  173.8180  136.6680 C   0  0  0  0  0  2  0  0  0  0  0  0
  194.0260  177.2620  147.0050 O   0  0  0  0  0  0  0  0  0  0  0  0
  193.4910  176.2820  146.4210 C   0  0  0  0  0  0  0  0  0  0  0  0
  192.1420  175.4330  147.2460 S   0  0  0  0  0  0  0  0  0  0  0  0
  191.2710  175.1000  145.6840 C   0  0  0  0  0  2  0  0  0  0  0  0
  190.2150  177.2560  146.2740 C   0  0  0  0  0  2  0  0  0  0  0  0
  188.9330  175.2690  146.2110 O   0  0  0  0  0  0  0  0  0  0  0  0
  188.8660  177.5810  146.8320 C   0  0  0  0  0  2  0  0  0  0  0  0
  188.1100  176.2690  146.7620 C   0  0  1  0  0  3  0  0  0  0  0  0
  190.0070  175.9310  145.5890 C   0  0  2  0  0  3  0  0  0  0  0  0
  186.8230  176.4110  145.9570 C   0  0  0  0  0  2  0  0  0  0  0  0
  187.1050  176.6730  144.6000 O   0  0  0  0  0  0  0  0  0  0  0  0
  186.0520  177.4310  144.0390 C   0  0  2  0  0  3  0  0  0  0  0  0
  185.6430  176.9240  142.7270 N   0  0  0  0  0  2  0  0  0  0  0  0
  186.8320  176.8320  141.8940 C   0  0  0  0  0  2  0  0  0  0  0  0
  186.5950  177.2460  139.4660 C   0  0  0  0  0  1  0  0  0  0  0  0
  186.7900  177.9040  140.8190 C   0  0  0  0  0  2  0  0  0  0  0  0
  186.3740  178.9300  143.9880 C   0  0  0  0  0  2  0  0  0  0  0  0
  185.2020  179.7570  144.4910 C   0  0  0  0  0  2  0  0  0  0  0  0
  184.3270  178.9370  145.4130 C   0  0  0  0  0  1  0  0  0  0  0  0
  195.9670  174.5760  146.0510 C   0  0  0  0  0  2  0  0  0  0  0  0
  197.0050  173.5610  145.5960 C   0  0  0  0  0  2  0  0  0  0  0  0
  196.6710  172.1770  146.1210 C   0  0  0  0  0  2  0  0  0  0  0  0
  196.9170  171.1410  145.0420 C   0  0  0  0  0  2  0  0  0  0  0  0
  195.8810  171.2220  144.0260 N   0  0  0  0  0  2  0  0  0  0  0  0
  194.7410  169.7410  146.1340 O   0  0  0  0  0  1  0  0  0  0  0  0
  194.3910  170.6610  144.7580 P   0  0  0  0  0  0  0  0  0  0  0  0
  193.6360  169.8100  143.7660 O   0  0  0  0  0  0  0  0  0  0  0  0
  193.4360  171.9890  145.1910 O   0  0  0  0  0  1  0  0  0  0  0  0
  1  6  1  0  0  0  0
  2 26  1  0  0  0  0
  3  2  1  0  0  0  0
  3 44  1  0  0  0  0
  4  2  2  0  0  0  0
  5  3  2  0  0  0  0
  6  4  1  0  0  0  0
  7  6  2  0  0  0  0
  7  5  1  0  0  0  0
  8  7  1  0  0  0  0
 10 11  1  0  0  0  0
 11  9  2  0  0  0  0
 11  8  1  0  0  0  0
 12 10  1  0  0  0  0
 13 20  2  0  0  0  0
 14 24  1  1  0  0  0
 14 22  1  0  0  0  0
 15 21  2  0  0  0  0
 17 19  2  0  0  0  0
 19 12  1  0  0  0  0
 20 16  1  0  0  0  0
 20 18  1  0  0  0  0
 21 14  1  0  0  0  0
 21 13  1  0  0  0  0
 22 19  1  0  0  0  0
 22 16  1  0  0  0  0
 23 24  1  0  0  0  0
 26 25  2  0  0  0  0
 26 27  1  0  0  0  0
 28 27  1  0  0  0  0
 29 31  1  0  0  0  0
 30 32  1  0  0  0  0
 32 34  1  6  0  0  0
 32 31  1  0  0  0  0
 33 28  1  1  0  0  0
 33 30  1  0  0  0  0
 33 29  1  0  0  0  0
 35 34  1  0  0  0  0
 36 41  1  6  0  0  0
 36 35  1  0  0  0  0
 37 36  1  0  0  0  0
 38 37  1  0  0  0  0
 39 40  1  0  0  0  0
 40 38  1  0  0  0  0
 41 42  1  0  0  0  0
 42 43  1  0  0  0  0
 45 44  1  0  0  0  0
 45 46  1  0  0  0  0
 47 46  1  0  0  0  0
 48 50  1  0  0  0  0
 48 47  1  0  0  0  0
 50 52  1  0  0  0  0
 50 49  1  0  0  0  0
 51 50  2  0  0  0  0
M  END
>  <MODEL>
9

>  <REMARK>
 VINA RESULT:      -5.5      4.547      9.088
  Name = 
  22 active torsions:
  status: ('A' for Active; 'I' for Inactive)
    1  A    between atoms: C_5  and  C_10
    2  A    between atoms: C_5  and  C_19
    3  A    between atoms: N_6  and  C_44
    4  A    between atoms: C_8  and  C_40
    5  A    between atoms: C_9  and  C_48
    6  A    between atoms: C_12  and  C_51
    7  A    between atoms: S_13  and  C_37
    8  A    between atoms: S_13  and  C_40
    9  A    between atoms: C_14  and  C_45
   10  A    between atoms: C_14  and  N_50
   11  A    between atoms: N_16  and  C_36
   12  A    between atoms: C_17  and  C_31
   13  A    between atoms: C_19  and  C_45
   14  A    between atoms: N_20  and  C_28
   15  A    between atoms: N_20  and  C_39
   16  A    between atoms: C_28  and  C_48
   17  A    between atoms: C_28  and  O_49
   18  A    between atoms: C_31  and  O_49
   19  A    between atoms: C_33  and  C_36
   20  A    between atoms: C_34  and  C_39
   21  A    between atoms: C_37  and  C_41
   22  A    between atoms: P_42  and  N_50
                            x       y       z     vdW  Elec       q    Type
                         _______ _______ _______ _____ _____    ______ ____

>  <TORSDO>
F 22

$$$$
