=
 OpenBabel11042417183D

 63 69  0  0  1  0  0  0  0  0999 V2000
  187.2940  176.4660  145.6030 C   0  0  1  0  0  3  0  0  0  0  0  0
  187.8740  176.4190  144.1730 C   0  0  0  0  0  2  0  0  0  0  0  0
  189.2940  176.0670  144.4040 C   0  0  2  0  0  3  0  0  0  0  0  0
  191.4990  176.5780  144.7340 C   0  0  0  0  0  0  0  0  0  0  0  0
  190.9560  176.3950  145.9000 N   0  0  0  0  0  0  0  0  0  0  0  0
  189.6020  176.0400  145.6620 C   0  0  1  0  0  3  0  0  0  0  0  0
  190.4770  176.5210  143.6240 C   0  0  1  0  0  3  0  0  0  0  0  0
  188.4710  176.3040  146.5740 C   0  0  0  0  0  2  0  0  0  0  0  0
  186.4870  177.7470  145.8810 C   0  0  1  0  0  3  0  0  0  0  0  0
  185.2850  177.9630  144.9280 C   0  0  1  0  0  3  0  0  0  0  0  0
  184.1160  178.2580  145.6370 O   0  0  0  0  0  1  0  0  0  0  0  0
  185.5530  179.0640  143.9520 C   0  0  0  0  0  0  0  0  0  0  0  0
  185.7080  178.7370  142.5050 C   0  0  0  0  0  1  0  0  0  0  0  0
  185.6030  180.2280  144.3230 O   0  0  0  0  0  0  0  0  0  0  0  0
  186.1540  177.8790  147.3730 C   0  0  0  0  0  2  0  0  0  0  0  0
  186.6970  179.1610  147.9970 C   0  0  0  0  0  1  0  0  0  0  0  0
  190.8360  175.5290  142.5270 C   0  0  0  0  0  2  0  0  0  0  0  0
  189.8670  173.2220  143.0150 C   0  0  0  0  0  0  0  0  0  0  0  0
  188.8560  172.2640  142.8050 C   0  0  0  0  0  3  0  0  0  0  0  0
  188.7020  174.7230  141.5040 C   0  0  0  0  0  3  0  0  0  0  0  0
  189.7700  174.4790  142.3760 C   0  0  0  0  0  0  0  0  0  0  0  0
  187.7000  173.7700  141.3120 C   0  0  0  0  0  3  0  0  0  0  0  0
  187.7790  172.5370  141.9640 C   0  0  0  0  0  3  0  0  0  0  0  0
  191.0470  172.8680  143.8240 C   0  0  0  0  0  3  0  0  0  0  0  0
  191.4920  171.6490  143.8440 N   0  0  0  0  0  0  0  0  0  0  0  0
  192.6200  171.3390  144.6090 N   0  0  0  0  0  2  0  0  0  0  0  0
  193.5330  170.3820  144.1650 N   0  0  0  0  0  2  0  0  0  0  0  0
  192.7570  169.2680  143.6330 C   0  0  0  0  0  2  0  0  0  0  0  0
  193.5910  168.4660  142.6340 C   0  0  2  0  0  3  0  0  0  0  0  0
  194.9810  168.8890  142.6900 N   0  0  0  0  0  1  0  0  0  0  0  0
  193.0800  168.5660  141.1900 C   0  0  0  0  0  2  0  0  0  0  0  0
  191.0130  169.1510  138.2920 C   0  0  0  0  0  0  0  0  0  0  0  0
  190.7290  168.4560  141.0280 C   0  0  0  0  0  2  0  0  0  0  0  0
  191.5870  170.2710  137.5990 N   0  0  0  0  0  2  0  0  0  0  0  0
  190.2150  168.3830  137.6950 O   0  0  0  0  0  0  0  0  0  0  0  0
  191.1680  169.0270  139.7060 N   0  0  0  0  0  0  0  0  0  0  0  0
  191.7830  169.3520  141.0350 C   0  0  2  0  0  3  0  0  0  0  0  0
  190.3480  173.0290  134.8280 C   0  0  1  0  0  3  0  0  0  0  0  0
  191.2990  170.6060  136.1950 C   0  0  2  0  0  0  0  0  0  0  0  0
  191.5250  169.3420  135.3800 C   0  0  0  0  0  1  0  0  0  0  0  0
  189.7250  171.6310  134.8440 C   0  0  0  0  0  2  0  0  0  0  0  0
  189.3980  174.0110  135.4690 C   0  0  0  0  0  1  0  0  0  0  0  0
  192.3180  171.6650  135.6770 C   0  0  0  0  0  2  0  0  0  0  0  0
  191.6880  173.0630  135.5760 C   0  0  0  0  0  2  0  0  0  0  0  0
  189.9400  171.0130  136.0950 O   0  0  0  0  0  0  0  0  0  0  0  0
  192.8650  177.1720  144.5810 C   0  0  0  0  0  2  0  0  0  0  0  0
  195.3150  176.8600  144.8970 C   0  0  0  0  0  2  0  0  0  0  0  0
  195.9320  176.8130  142.4780 C   0  0  0  0  0  1  0  0  0  0  0  0
  193.9220  174.9280  144.6870 C   0  0  1  0  0  3  0  0  0  0  0  0
  195.8200  175.9980  143.7580 C   0  0  2  0  0  3  0  0  0  0  0  0
  193.9460  176.3270  145.2530 C   0  0  2  0  0  3  0  0  0  0  0  0
  194.8860  174.8890  143.5620 N   0  0  0  0  0  0  0  0  0  0  0  0
  193.2220  174.1330  146.6530 C   0  0  0  0  0  1  0  0  0  0  0  0
  194.2360  174.0060  145.6980 O   0  0  0  0  0  0  0  0  0  0  0  0
  195.6330  173.6960  143.5830 N   0  0  0  0  0  2  0  0  0  0  0  0
  196.3980  173.6400  142.3400 C   0  0  0  0  0  2  0  0  0  0  0  0
  193.0480  172.8930  140.9380 C   0  0  0  0  0  2  0  0  0  0  0  0
  192.7940  172.8130  139.4340 C   0  0  0  0  0  2  0  0  0  0  0  0
  194.9040  173.9420  138.8970 O   0  0  0  0  0  0  0  0  0  0  0  0
  194.0720  172.8220  138.5880 C   0  0  0  0  0  2  0  0  0  0  0  0
  194.4180  172.3330  141.3400 C   0  0  0  0  0  2  0  0  0  0  0  0
  195.6500  174.0960  140.0780 C   0  0  0  0  0  3  0  0  0  0  0  0
  195.4780  173.3800  141.1950 C   0  0  0  0  0  0  0  0  0  0  0  0
  1  9  1  1  0  0  0
  1  8  1  0  0  0  0
  2  1  1  0  0  0  0
  3  2  1  1  0  0  0
  3  6  1  0  0  0  0
  4  5  2  0  0  0  0
  6  5  1  0  0  0  0
  6  8  1  1  0  0  0
  7 17  1  6  0  0  0
  7  3  1  0  0  0  0
  7  4  1  0  0  0  0
  9 15  1  1  0  0  0
 10 11  1  1  0  0  0
 10  9  1  0  0  0  0
 12 14  2  0  0  0  0
 12 10  1  0  0  0  0
 13 12  1  0  0  0  0
 15 16  1  0  0  0  0
 18 24  1  0  0  0  0
 19 18  1  0  0  0  0
 20 21  1  0  0  0  0
 21 17  1  0  0  0  0
 21 18  2  0  0  0  0
 22 20  2  0  0  0  0
 22 23  1  0  0  0  0
 23 19  2  0  0  0  0
 24 25  2  0  0  0  0
 25 26  1  0  0  0  0
 27 26  1  0  0  0  0
 28 27  1  0  0  0  0
 29 30  1  6  0  0  0
 29 28  1  0  0  0  0
 31 29  1  0  0  0  0
 32 36  1  0  0  0  0
 33 37  1  0  0  0  0
 34 32  1  0  0  0  0
 35 32  2  0  0  0  0
 36 33  1  0  0  0  0
 36 37  1  0  0  0  0
 37 31  1  6  0  0  0
 38 41  1  0  0  0  0
 38 42  1  1  0  0  0
 38 44  1  0  0  0  0
 39 40  1  6  0  0  0
 39 34  1  0  0  0  0
 41 45  1  0  0  0  0
 43 39  1  0  0  0  0
 44 43  1  0  0  0  0
 45 39  1  0  0  0  0
 46  4  1  0  0  0  0
 47 51  1  0  0  0  0
 49 51  1  0  0  0  0
 49 54  1  1  0  0  0
 50 48  1  6  0  0  0
 50 47  1  0  0  0  0
 51 46  1  6  0  0  0
 52 55  1  0  0  0  0
 52 50  1  0  0  0  0
 52 49  1  0  0  0  0
 54 53  1  0  0  0  0
 56 55  1  0  0  0  0
 57 61  1  0  0  0  0
 58 57  1  0  0  0  0
 59 62  1  0  0  0  0
 60 59  1  0  0  0  0
 60 58  1  0  0  0  0
 62 63  2  0  0  0  0
 63 61  1  0  0  0  0
 63 56  1  0  0  0  0
M  END
>  <MODEL>
1

>  <REMARK>
 VINA RESULT:      -6.2      0.000      0.000
  Name = 
  20 active torsions:
  status: ('A' for Active; 'I' for Inactive)
    1  A    between atoms: C_1  and  C_15
    2  A    between atoms: C_1  and  C_41
    3  A    between atoms: C_6  and  C_14
    4  A    between atoms: C_8  and  C_28
    5  A    between atoms: N_12  and  N_16
    6  A    between atoms: N_12  and  C_61
    7  A    between atoms: C_15  and  C_61
    8  A    between atoms: N_16  and  N_20
    9  A    between atoms: C_17  and  N_27
   10  A    between atoms: C_18  and  C_28
   11  A    between atoms: C_23  and  O_50
   12  A    between atoms: C_28  and  C_42
   13  A    between atoms: C_31  and  C_32
   14  A    between atoms: C_31  and  C_59
   15  A    between atoms: C_33  and  C_42
   16  A    between atoms: C_34  and  C_43
   17  A    between atoms: C_34  and  C_52
   18  A    between atoms: N_40  and  N_49
   19  A    between atoms: N_40  and  C_51
   20  A    between atoms: C_51  and  C_54
                            x       y       z     vdW  Elec       q    Type
                         _______ _______ _______ _____ _____    ______ ____

>  <TORSDO>
F 20

$$$$
=
 OpenBabel11042417183D

 63 69  0  0  1  0  0  0  0  0999 V2000
  191.7160  173.4230  141.6820 C   0  0  1  0  0  3  0  0  0  0  0  0
  190.7860  174.1840  140.7120 C   0  0  0  0  0  2  0  0  0  0  0  0
  190.0750  173.0910  140.0110 C   0  0  2  0  0  3  0  0  0  0  0  0
  189.8000  171.6010  138.2980 C   0  0  0  0  0  0  0  0  0  0  0  0
  190.4080  170.9830  139.2650 N   0  0  0  0  0  0  0  0  0  0  0  0
  190.5280  171.9190  140.3270 C   0  0  1  0  0  3  0  0  0  0  0  0
  189.6200  173.0700  138.5940 C   0  0  1  0  0  3  0  0  0  0  0  0
  191.5960  171.9310  141.3450 C   0  0  0  0  0  2  0  0  0  0  0  0
  193.1740  173.9140  141.6240 C   0  0  1  0  0  3  0  0  0  0  0  0
  194.0760  173.3710  142.7610 C   0  0  1  0  0  3  0  0  0  0  0  0
  195.4310  173.5710  142.4800 O   0  0  0  0  0  1  0  0  0  0  0  0
  193.7500  174.0160  144.0700 C   0  0  0  0  0  0  0  0  0  0  0  0
  192.9700  173.2530  145.0880 C   0  0  0  0  0  1  0  0  0  0  0  0
  194.1520  175.1410  144.3280 O   0  0  0  0  0  0  0  0  0  0  0  0
  193.7560  173.7530  140.2130 C   0  0  0  0  0  2  0  0  0  0  0  0
  194.4800  175.0020  139.7180 C   0  0  0  0  0  1  0  0  0  0  0  0
  188.1780  173.5380  138.4640 C   0  0  0  0  0  2  0  0  0  0  0  0
  187.3670  175.8630  137.8040 C   0  0  0  0  0  0  0  0  0  0  0  0
  187.2600  176.8780  136.8330 C   0  0  0  0  0  3  0  0  0  0  0  0
  188.5820  174.5100  136.1960 C   0  0  0  0  0  3  0  0  0  0  0  0
  188.0640  174.6750  137.4860 C   0  0  0  0  0  0  0  0  0  0  0  0
  188.4790  175.5270  135.2450 C   0  0  0  0  0  3  0  0  0  0  0  0
  187.8150  176.7130  135.5660 C   0  0  0  0  0  3  0  0  0  0  0  0
  186.6810  176.0210  139.0990 C   0  0  0  0  0  3  0  0  0  0  0  0
  187.2600  176.6400  140.0810 N   0  0  0  0  0  0  0  0  0  0  0  0
  186.5850  176.7890  141.2970 N   0  0  0  0  0  2  0  0  0  0  0  0
  185.4800  177.6340  141.3910 N   0  0  0  0  0  2  0  0  0  0  0  0
  185.0560  177.6260  142.7870 C   0  0  0  0  0  2  0  0  0  0  0  0
  184.9750  179.0540  143.3280 C   0  0  2  0  0  3  0  0  0  0  0  0
  186.2950  179.6640  143.3280 N   0  0  0  0  0  1  0  0  0  0  0  0
  184.3660  179.1430  144.7340 C   0  0  0  0  0  2  0  0  0  0  0  0
  187.2430  177.4710  146.1250 C   0  0  0  0  0  0  0  0  0  0  0  0
  184.6070  178.1980  146.8810 C   0  0  0  0  0  2  0  0  0  0  0  0
  187.7940  176.6610  145.0730 N   0  0  0  0  0  2  0  0  0  0  0  0
  187.9420  177.7580  147.1310 O   0  0  0  0  0  0  0  0  0  0  0  0
  185.8470  177.7680  146.1430 N   0  0  0  0  0  0  0  0  0  0  0  0
  184.4730  177.8590  145.5470 C   0  0  2  0  0  3  0  0  0  0  0  0
  191.2160  175.7990  147.1640 C   0  0  1  0  0  3  0  0  0  0  0  0
  189.1610  176.1170  145.0850 C   0  0  2  0  0  0  0  0  0  0  0  0
  189.4920  175.7130  143.6560 C   0  0  0  0  0  1  0  0  0  0  0  0
  191.3030  176.5620  145.8400 C   0  0  0  0  0  2  0  0  0  0  0  0
  191.3740  176.7650  148.3120 C   0  0  0  0  0  1  0  0  0  0  0  0
  189.2130  174.8180  145.9450 C   0  0  0  0  0  2  0  0  0  0  0  0
  189.8780  175.0610  147.3080 C   0  0  0  0  0  2  0  0  0  0  0  0
  190.0520  177.1350  145.5210 O   0  0  0  0  0  0  0  0  0  0  0  0
  189.6820  171.0060  136.9290 C   0  0  0  0  0  2  0  0  0  0  0  0
  190.7910  170.7790  134.7100 C   0  0  0  0  0  2  0  0  0  0  0  0
  191.8100  168.5340  135.1050 C   0  0  0  0  0  1  0  0  0  0  0  0
  192.0080  171.7660  136.5150 C   0  0  1  0  0  3  0  0  0  0  0  0
  192.0840  170.0190  134.9170 C   0  0  2  0  0  3  0  0  0  0  0  0
  190.6250  171.6650  135.9230 C   0  0  2  0  0  3  0  0  0  0  0  0
  192.7550  170.5540  136.1020 N   0  0  0  0  0  0  0  0  0  0  0  0
  192.2830  173.9210  137.0290 C   0  0  0  0  0  1  0  0  0  0  0  0
  192.6220  172.9510  136.0810 O   0  0  0  0  0  0  0  0  0  0  0  0
  194.0740  170.8800  135.7310 N   0  0  0  0  0  2  0  0  0  0  0  0
  194.9680  170.0220  136.5040 C   0  0  0  0  0  2  0  0  0  0  0  0
  196.8310  173.1630  137.1430 C   0  0  0  0  0  2  0  0  0  0  0  0
  197.6610  173.3750  138.4070 C   0  0  0  0  0  2  0  0  0  0  0  0
  196.6000  171.4900  139.5630 O   0  0  0  0  0  0  0  0  0  0  0  0
  197.8490  172.1050  139.2460 C   0  0  0  0  0  2  0  0  0  0  0  0
  196.8990  171.7220  136.6220 C   0  0  0  0  0  2  0  0  0  0  0  0
  195.7790  170.8030  138.6530 C   0  0  0  0  0  3  0  0  0  0  0  0
  195.8910  170.8630  137.3210 C   0  0  0  0  0  0  0  0  0  0  0  0
  1  9  1  6  0  0  0
  2  1  1  0  0  0  0
  3  6  1  0  0  0  0
  3  2  1  6  0  0  0
  4  7  1  0  0  0  0
  4  5  2  0  0  0  0
  5  6  1  0  0  0  0
  6  8  1  6  0  0  0
  7 17  1  1  0  0  0
  7  3  1  0  0  0  0
  8  1  1  0  0  0  0
  9 15  1  6  0  0  0
  9 10  1  0  0  0  0
 10 11  1  6  0  0  0
 10 12  1  0  0  0  0
 12 14  2  0  0  0  0
 12 13  1  0  0  0  0
 16 15  1  0  0  0  0
 18 24  1  0  0  0  0
 19 18  2  0  0  0  0
 20 21  2  0  0  0  0
 21 18  1  0  0  0  0
 21 17  1  0  0  0  0
 22 23  2  0  0  0  0
 22 20  1  0  0  0  0
 23 19  1  0  0  0  0
 24 25  2  0  0  0  0
 25 26  1  0  0  0  0
 26 27  1  0  0  0  0
 27 28  1  0  0  0  0
 28 29  1  0  0  0  0
 29 30  1  1  0  0  0
 29 31  1  0  0  0  0
 32 36  1  0  0  0  0
 32 35  2  0  0  0  0
 34 39  1  0  0  0  0
 34 32  1  0  0  0  0
 36 33  1  0  0  0  0
 37 31  1  6  0  0  0
 37 36  1  0  0  0  0
 37 33  1  0  0  0  0
 38 44  1  0  0  0  0
 38 42  1  1  0  0  0
 39 40  1  6  0  0  0
 39 45  1  0  0  0  0
 39 43  1  0  0  0  0
 41 38  1  0  0  0  0
 43 44  1  0  0  0  0
 45 41  1  0  0  0  0
 46  4  1  0  0  0  0
 47 50  1  0  0  0  0
 47 51  1  0  0  0  0
 49 54  1  6  0  0  0
 50 48  1  1  0  0  0
 50 52  1  0  0  0  0
 51 49  1  0  0  0  0
 51 46  1  1  0  0  0
 52 49  1  0  0  0  0
 54 53  1  0  0  0  0
 55 52  1  0  0  0  0
 55 56  1  0  0  0  0
 56 63  1  0  0  0  0
 57 58  1  0  0  0  0
 58 60  1  0  0  0  0
 60 59  1  0  0  0  0
 61 57  1  0  0  0  0
 61 63  1  0  0  0  0
 62 59  1  0  0  0  0
 63 62  2  0  0  0  0
M  END
>  <MODEL>
2

>  <REMARK>
 VINA RESULT:      -6.1      3.006      9.636
  Name = 
  20 active torsions:
  status: ('A' for Active; 'I' for Inactive)
    1  A    between atoms: C_1  and  C_15
    2  A    between atoms: C_1  and  C_41
    3  A    between atoms: C_6  and  C_14
    4  A    between atoms: C_8  and  C_28
    5  A    between atoms: N_12  and  N_16
    6  A    between atoms: N_12  and  C_61
    7  A    between atoms: C_15  and  C_61
    8  A    between atoms: N_16  and  N_20
    9  A    between atoms: C_17  and  N_27
   10  A    between atoms: C_18  and  C_28
   11  A    between atoms: C_23  and  O_50
   12  A    between atoms: C_28  and  C_42
   13  A    between atoms: C_31  and  C_32
   14  A    between atoms: C_31  and  C_59
   15  A    between atoms: C_33  and  C_42
   16  A    between atoms: C_34  and  C_43
   17  A    between atoms: C_34  and  C_52
   18  A    between atoms: N_40  and  N_49
   19  A    between atoms: N_40  and  C_51
   20  A    between atoms: C_51  and  C_54
                            x       y       z     vdW  Elec       q    Type
                         _______ _______ _______ _____ _____    ______ ____

>  <TORSDO>
F 20

$$$$
=
 OpenBabel11042417183D

 63 69  0  0  1  0  0  0  0  0999 V2000
  194.9290  174.5720  137.2760 C   0  0  1  0  0  3  0  0  0  0  0  0
  193.6480  173.7120  137.3510 C   0  0  0  0  0  2  0  0  0  0  0  0
  193.0480  174.1240  138.6410 C   0  0  2  0  0  3  0  0  0  0  0  0
  192.7050  173.9220  140.8930 C   0  0  0  0  0  0  0  0  0  0  0  0
  193.6490  174.7960  140.7140 N   0  0  0  0  0  0  0  0  0  0  0  0
  193.8110  174.9300  139.3100 C   0  0  1  0  0  3  0  0  0  0  0  0
  192.2820  173.2770  139.5940 C   0  0  1  0  0  3  0  0  0  0  0  0
  195.0630  175.2990  138.6210 C   0  0  0  0  0  2  0  0  0  0  0  0
  196.1840  173.7490  136.9350 C   0  0  1  0  0  3  0  0  0  0  0  0
  195.9130  172.5110  136.0440 C   0  0  1  0  0  3  0  0  0  0  0  0
  195.8300  172.8610  134.6930 O   0  0  0  0  0  1  0  0  0  0  0  0
  196.9770  171.4730  136.2140 C   0  0  0  0  0  0  0  0  0  0  0  0
  197.2680  170.9390  137.5760 C   0  0  0  0  0  1  0  0  0  0  0  0
  197.5760  171.0310  135.2440 O   0  0  0  0  0  0  0  0  0  0  0  0
  197.3220  174.6540  136.4450 C   0  0  0  0  0  2  0  0  0  0  0  0
  196.8240  175.9130  135.7410 C   0  0  0  0  0  1  0  0  0  0  0  0
  190.7850  173.3640  139.3400 C   0  0  0  0  0  2  0  0  0  0  0  0
  190.7090  171.3200  137.8180 C   0  0  0  0  0  0  0  0  0  0  0  0
  190.3730  170.7470  136.5760 C   0  0  0  0  0  3  0  0  0  0  0  0
  189.8500  173.4470  137.0220 C   0  0  0  0  0  3  0  0  0  0  0  0
  190.4150  172.6830  138.0510 C   0  0  0  0  0  0  0  0  0  0  0  0
  189.5120  172.8660  135.7990 C   0  0  0  0  0  3  0  0  0  0  0  0
  189.7760  171.5120  135.5760 C   0  0  0  0  0  3  0  0  0  0  0  0
  191.4340  170.5160  138.8170 C   0  0  0  0  0  3  0  0  0  0  0  0
  190.7890  169.8850  139.7500 N   0  0  0  0  0  0  0  0  0  0  0  0
  191.4970  169.1170  140.6790 N   0  0  0  0  0  2  0  0  0  0  0  0
  191.7180  169.5970  141.9700 N   0  0  0  0  0  2  0  0  0  0  0  0
  192.2030  168.4740  142.7650 C   0  0  0  0  0  2  0  0  0  0  0  0
  192.8880  168.9770  144.0350 C   0  0  2  0  0  3  0  0  0  0  0  0
  192.7170  170.4160  144.1590 N   0  0  0  0  0  1  0  0  0  0  0  0
  194.3800  168.6270  144.1070 C   0  0  0  0  0  2  0  0  0  0  0  0
  196.5610  171.5010  144.1390 C   0  0  0  0  0  0  0  0  0  0  0  0
  196.5340  168.8350  143.1680 C   0  0  0  0  0  2  0  0  0  0  0  0
  195.7250  172.6510  143.9270 N   0  0  0  0  0  2  0  0  0  0  0  0
  197.7130  171.6410  144.6230 O   0  0  0  0  0  0  0  0  0  0  0  0
  196.1820  170.2320  143.6050 N   0  0  0  0  0  0  0  0  0  0  0  0
  195.2250  169.2480  143.0000 C   0  0  2  0  0  3  0  0  0  0  0  0
  194.9280  176.2100  145.8010 C   0  0  1  0  0  3  0  0  0  0  0  0
  196.1310  174.0310  144.2380 C   0  0  2  0  0  0  0  0  0  0  0  0
  197.4350  174.2890  143.4980 C   0  0  0  0  0  1  0  0  0  0  0  0
  195.3290  176.1990  144.3250 C   0  0  0  0  0  2  0  0  0  0  0  0
  193.4360  176.4080  145.9160 C   0  0  0  0  0  1  0  0  0  0  0  0
  196.4400  174.1680  145.7590 C   0  0  0  0  0  2  0  0  0  0  0  0
  195.3180  174.9030  146.5060 C   0  0  0  0  0  2  0  0  0  0  0  0
  195.1230  174.9170  143.7700 O   0  0  0  0  0  0  0  0  0  0  0  0
  192.3950  173.3560  142.2440 C   0  0  0  0  0  2  0  0  0  0  0  0
  191.5270  173.7860  144.5380 C   0  0  0  0  0  2  0  0  0  0  0  0
  189.5810  172.2250  144.4270 C   0  0  0  0  0  1  0  0  0  0  0  0
  190.7050  175.1080  142.7250 C   0  0  1  0  0  3  0  0  0  0  0  0
  190.0170  173.6820  144.4860 C   0  0  2  0  0  3  0  0  0  0  0  0
  191.9500  174.4280  143.2370 C   0  0  2  0  0  3  0  0  0  0  0  0
  189.5410  174.3930  143.2990 N   0  0  0  0  0  0  0  0  0  0  0  0
  192.0160  176.9150  142.7630 C   0  0  0  0  0  1  0  0  0  0  0  0
  190.7300  176.4660  143.0800 O   0  0  0  0  0  0  0  0  0  0  0  0
  188.5500  175.3000  143.7170 N   0  0  0  0  0  2  0  0  0  0  0  0
  187.6520  175.5180  142.5860 C   0  0  0  0  0  2  0  0  0  0  0  0
  186.4940  178.3940  144.6180 C   0  0  0  0  0  2  0  0  0  0  0  0
  185.1810  179.1190  144.3300 C   0  0  0  0  0  2  0  0  0  0  0  0
  184.9930  178.1370  142.0900 O   0  0  0  0  0  0  0  0  0  0  0  0
  184.2910  178.4060  143.3050 C   0  0  0  0  0  2  0  0  0  0  0  0
  186.4030  176.8820  144.3770 C   0  0  0  0  0  2  0  0  0  0  0  0
  186.0000  177.1700  141.9330 C   0  0  0  0  0  3  0  0  0  0  0  0
  186.6480  176.5640  142.9350 C   0  0  0  0  0  0  0  0  0  0  0  0
  1  9  1  1  0  0  0
  1  2  1  0  0  0  0
  1  8  1  0  0  0  0
  3  2  1  6  0  0  0
  3  6  1  0  0  0  0
  3  7  1  0  0  0  0
  4 46  1  0  0  0  0
  5  4  2  0  0  0  0
  6  8  1  1  0  0  0
  6  5  1  0  0  0  0
  7 17  1  6  0  0  0
  7  4  1  0  0  0  0
  9 15  1  6  0  0  0
 10 11  1  6  0  0  0
 10 12  1  0  0  0  0
 10  9  1  0  0  0  0
 12 13  1  0  0  0  0
 14 12  2  0  0  0  0
 16 15  1  0  0  0  0
 18 21  1  0  0  0  0
 18 24  1  0  0  0  0
 19 18  2  0  0  0  0
 20 21  2  0  0  0  0
 21 17  1  0  0  0  0
 22 20  1  0  0  0  0
 23 22  2  0  0  0  0
 23 19  1  0  0  0  0
 24 25  2  0  0  0  0
 25 26  1  0  0  0  0
 26 27  1  0  0  0  0
 27 28  1  0  0  0  0
 28 29  1  0  0  0  0
 29 31  1  0  0  0  0
 29 30  1  6  0  0  0
 32 35  2  0  0  0  0
 33 36  1  0  0  0  0
 34 32  1  0  0  0  0
 34 39  1  0  0  0  0
 36 32  1  0  0  0  0
 37 33  1  0  0  0  0
 37 36  1  0  0  0  0
 37 31  1  1  0  0  0
 38 42  1  6  0  0  0
 38 44  1  0  0  0  0
 39 40  1  6  0  0  0
 39 43  1  0  0  0  0
 41 38  1  0  0  0  0
 43 44  1  0  0  0  0
 45 39  1  0  0  0  0
 45 41  1  0  0  0  0
 49 54  1  1  0  0  0
 49 51  1  0  0  0  0
 49 52  1  0  0  0  0
 50 48  1  6  0  0  0
 50 47  1  0  0  0  0
 51 46  1  6  0  0  0
 51 47  1  0  0  0  0
 52 55  1  0  0  0  0
 52 50  1  0  0  0  0
 53 54  1  0  0  0  0
 56 63  1  0  0  0  0
 56 55  1  0  0  0  0
 58 57  1  0  0  0  0
 59 60  1  0  0  0  0
 60 58  1  0  0  0  0
 61 57  1  0  0  0  0
 62 59  1  0  0  0  0
 62 63  2  0  0  0  0
 63 61  1  0  0  0  0
M  END
>  <MODEL>
3

>  <REMARK>
 VINA RESULT:      -5.9      2.409      9.221
  Name = 
  20 active torsions:
  status: ('A' for Active; 'I' for Inactive)
    1  A    between atoms: C_1  and  C_15
    2  A    between atoms: C_1  and  C_41
    3  A    between atoms: C_6  and  C_14
    4  A    between atoms: C_8  and  C_28
    5  A    between atoms: N_12  and  N_16
    6  A    between atoms: N_12  and  C_61
    7  A    between atoms: C_15  and  C_61
    8  A    between atoms: N_16  and  N_20
    9  A    between atoms: C_17  and  N_27
   10  A    between atoms: C_18  and  C_28
   11  A    between atoms: C_23  and  O_50
   12  A    between atoms: C_28  and  C_42
   13  A    between atoms: C_31  and  C_32
   14  A    between atoms: C_31  and  C_59
   15  A    between atoms: C_33  and  C_42
   16  A    between atoms: C_34  and  C_43
   17  A    between atoms: C_34  and  C_52
   18  A    between atoms: N_40  and  N_49
   19  A    between atoms: N_40  and  C_51
   20  A    between atoms: C_51  and  C_54
                            x       y       z     vdW  Elec       q    Type
                         _______ _______ _______ _____ _____    ______ ____

>  <TORSDO>
F 20

$$$$
=
 OpenBabel11042417183D

 63 69  0  0  1  0  0  0  0  0999 V2000
  190.6410  174.6200  145.8890 C   0  0  1  0  0  3  0  0  0  0  0  0
  190.8690  174.7360  144.3660 C   0  0  0  0  0  2  0  0  0  0  0  0
  192.3390  174.6040  144.2410 C   0  0  2  0  0  3  0  0  0  0  0  0
  194.4620  175.4440  144.1090 C   0  0  0  0  0  0  0  0  0  0  0  0
  194.2410  175.1200  145.3470 N   0  0  0  0  0  0  0  0  0  0  0  0
  192.9350  174.5660  145.3900 C   0  0  1  0  0  3  0  0  0  0  0  0
  193.2270  175.2790  143.2560 C   0  0  1  0  0  3  0  0  0  0  0  0
  192.0250  174.6010  146.5530 C   0  0  0  0  0  2  0  0  0  0  0  0
  189.7460  175.7410  146.4490 C   0  0  1  0  0  3  0  0  0  0  0  0
  190.4300  177.1290  146.5130 C   0  0  1  0  0  3  0  0  0  0  0  0
  189.7260  178.0820  145.7700 O   0  0  0  0  0  1  0  0  0  0  0  0
  190.5570  177.6100  147.9240 C   0  0  0  0  0  0  0  0  0  0  0  0
  189.6250  178.6610  148.4260 C   0  0  0  0  0  1  0  0  0  0  0  0
  191.3850  177.1190  148.6780 O   0  0  0  0  0  0  0  0  0  0  0  0
  188.3680  175.7360  145.7750 C   0  0  0  0  0  2  0  0  0  0  0  0
  187.2550  176.2460  146.6870 C   0  0  0  0  0  1  0  0  0  0  0  0
  193.4570  174.4120  142.0270 C   0  0  0  0  0  2  0  0  0  0  0  0
  191.9580  172.4340  141.4430 C   0  0  0  0  0  0  0  0  0  0  0  0
  191.5080  171.1300  141.7280 C   0  0  0  0  0  3  0  0  0  0  0  0
  193.4470  172.2940  143.3560 C   0  0  0  0  0  3  0  0  0  0  0  0
  192.9630  173.0100  142.2540 C   0  0  0  0  0  0  0  0  0  0  0  0
  193.0020  170.9980  143.6220 C   0  0  0  0  0  3  0  0  0  0  0  0
  192.0290  170.4160  142.8060 C   0  0  0  0  0  3  0  0  0  0  0  0
  191.3160  173.2040  140.3640 C   0  0  0  0  0  3  0  0  0  0  0  0
  190.1120  172.9170  139.9740 N   0  0  0  0  0  0  0  0  0  0  0  0
  189.5170  173.6700  138.9560 N   0  0  0  0  0  2  0  0  0  0  0  0
  190.1730  173.8520  137.7390 N   0  0  0  0  0  2  0  0  0  0  0  0
  189.1940  173.5970  136.6870 C   0  0  0  0  0  2  0  0  0  0  0  0
  189.0530  174.8210  135.7830 C   0  0  2  0  0  3  0  0  0  0  0  0
  190.3540  175.4330  135.5620 N   0  0  0  0  0  1  0  0  0  0  0  0
  188.0740  175.8730  136.3230 C   0  0  0  0  0  2  0  0  0  0  0  0
  186.7600  176.9830  139.4940 C   0  0  0  0  0  0  0  0  0  0  0  0
  185.8180  176.0580  136.9830 C   0  0  0  0  0  2  0  0  0  0  0  0
  187.6130  176.4270  140.5080 N   0  0  0  0  0  2  0  0  0  0  0  0
  186.0090  177.9540  139.7660 O   0  0  0  0  0  0  0  0  0  0  0  0
  186.5970  176.3080  138.2460 N   0  0  0  0  0  0  0  0  0  0  0  0
  186.9580  175.3040  137.1910 C   0  0  2  0  0  3  0  0  0  0  0  0
  185.6650  177.9150  143.7960 C   0  0  1  0  0  3  0  0  0  0  0  0
  187.6740  176.9200  141.8930 C   0  0  2  0  0  0  0  0  0  0  0  0
  189.1380  176.9180  142.3030 C   0  0  0  0  0  1  0  0  0  0  0  0
  186.9150  178.6220  143.2650 C   0  0  0  0  0  2  0  0  0  0  0  0
  184.4360  178.6760  143.3640 C   0  0  0  0  0  1  0  0  0  0  0  0
  186.9380  175.9310  142.8460 C   0  0  0  0  0  2  0  0  0  0  0  0
  185.5680  176.4710  143.2850 C   0  0  0  0  0  2  0  0  0  0  0  0
  187.1610  178.2450  141.9270 O   0  0  0  0  0  0  0  0  0  0  0  0
  195.6530  176.2550  143.7030 C   0  0  0  0  0  2  0  0  0  0  0  0
  197.9400  175.9060  142.7810 C   0  0  0  0  0  2  0  0  0  0  0  0
  197.2560  175.4680  140.4200 C   0  0  0  0  0  1  0  0  0  0  0  0
  196.7210  174.0170  143.5950 C   0  0  1  0  0  3  0  0  0  0  0  0
  197.8410  174.8630  141.6870 C   0  0  2  0  0  3  0  0  0  0  0  0
  196.9630  175.4830  143.8540 C   0  0  2  0  0  3  0  0  0  0  0  0
  196.9870  173.7720  142.1580 N   0  0  0  0  0  0  0  0  0  0  0  0
  196.7490  172.9100  145.5330 C   0  0  0  0  0  1  0  0  0  0  0  0
  197.5430  173.2490  144.4340 O   0  0  0  0  0  0  0  0  0  0  0  0
  197.6970  172.5700  141.9770 N   0  0  0  0  0  2  0  0  0  0  0  0
  196.7150  171.5140  141.7460 C   0  0  0  0  0  2  0  0  0  0  0  0
  194.5910  172.0720  138.7590 C   0  0  0  0  0  2  0  0  0  0  0  0
  195.0420  171.6770  137.3530 C   0  0  0  0  0  2  0  0  0  0  0  0
  197.3850  171.4450  138.0410 O   0  0  0  0  0  0  0  0  0  0  0  0
  196.3150  170.8230  137.3280 C   0  0  0  0  0  2  0  0  0  0  0  0
  195.0490  171.0770  139.8310 C   0  0  0  0  0  2  0  0  0  0  0  0
  197.4620  171.5710  139.4380 C   0  0  0  0  0  3  0  0  0  0  0  0
  196.4400  171.3950  140.2840 C   0  0  0  0  0  0  0  0  0  0  0  0
  1  9  1  1  0  0  0
  1  8  1  0  0  0  0
  2  1  1  0  0  0  0
  3  2  1  1  0  0  0
  3  6  1  0  0  0  0
  4  5  2  0  0  0  0
  5  6  1  0  0  0  0
  6  8  1  1  0  0  0
  7 17  1  6  0  0  0
  7  4  1  0  0  0  0
  7  3  1  0  0  0  0
  9 15  1  6  0  0  0
  9 10  1  0  0  0  0
 10 11  1  6  0  0  0
 10 12  1  0  0  0  0
 12 13  1  0  0  0  0
 12 14  2  0  0  0  0
 15 16  1  0  0  0  0
 17 21  1  0  0  0  0
 18 19  2  0  0  0  0
 18 21  1  0  0  0  0
 19 23  1  0  0  0  0
 20 22  1  0  0  0  0
 21 20  2  0  0  0  0
 23 22  2  0  0  0  0
 24 18  1  0  0  0  0
 25 24  2  0  0  0  0
 26 25  1  0  0  0  0
 27 26  1  0  0  0  0
 28 27  1  0  0  0  0
 29 30  1  1  0  0  0
 29 31  1  0  0  0  0
 29 28  1  0  0  0  0
 32 35  2  0  0  0  0
 32 34  1  0  0  0  0
 33 37  1  0  0  0  0
 33 36  1  0  0  0  0
 34 39  1  0  0  0  0
 36 32  1  0  0  0  0
 37 31  1  6  0  0  0
 37 36  1  0  0  0  0
 38 42  1  6  0  0  0
 39 45  1  0  0  0  0
 39 40  1  1  0  0  0
 39 43  1  0  0  0  0
 41 38  1  0  0  0  0
 43 44  1  0  0  0  0
 44 38  1  0  0  0  0
 45 41  1  0  0  0  0
 46  4  1  0  0  0  0
 47 51  1  0  0  0  0
 49 51  1  0  0  0  0
 49 54  1  1  0  0  0
 50 48  1  6  0  0  0
 50 52  1  0  0  0  0
 50 47  1  0  0  0  0
 51 46  1  6  0  0  0
 52 49  1  0  0  0  0
 54 53  1  0  0  0  0
 55 52  1  0  0  0  0
 56 55  1  0  0  0  0
 57 61  1  0  0  0  0
 58 57  1  0  0  0  0
 59 62  1  0  0  0  0
 60 58  1  0  0  0  0
 60 59  1  0  0  0  0
 61 63  1  0  0  0  0
 62 63  2  0  0  0  0
 63 56  1  0  0  0  0
M  END
>  <MODEL>
4

>  <REMARK>
 VINA RESULT:      -5.8      2.961      6.388
  Name = 
  20 active torsions:
  status: ('A' for Active; 'I' for Inactive)
    1  A    between atoms: C_1  and  C_15
    2  A    between atoms: C_1  and  C_41
    3  A    between atoms: C_6  and  C_14
    4  A    between atoms: C_8  and  C_28
    5  A    between atoms: N_12  and  N_16
    6  A    between atoms: N_12  and  C_61
    7  A    between atoms: C_15  and  C_61
    8  A    between atoms: N_16  and  N_20
    9  A    between atoms: C_17  and  N_27
   10  A    between atoms: C_18  and  C_28
   11  A    between atoms: C_23  and  O_50
   12  A    between atoms: C_28  and  C_42
   13  A    between atoms: C_31  and  C_32
   14  A    between atoms: C_31  and  C_59
   15  A    between atoms: C_33  and  C_42
   16  A    between atoms: C_34  and  C_43
   17  A    between atoms: C_34  and  C_52
   18  A    between atoms: N_40  and  N_49
   19  A    between atoms: N_40  and  C_51
   20  A    between atoms: C_51  and  C_54
                            x       y       z     vdW  Elec       q    Type
                         _______ _______ _______ _____ _____    ______ ____

>  <TORSDO>
F 20

$$$$
=
 OpenBabel11042417183D

 63 69  0  0  1  0  0  0  0  0999 V2000
  194.6540  169.3400  139.2930 C   0  0  1  0  0  3  0  0  0  0  0  0
  194.6000  170.4290  138.2000 C   0  0  0  0  0  2  0  0  0  0  0  0
  195.8920  171.1320  138.3690 C   0  0  2  0  0  3  0  0  0  0  0  0
  197.2240  172.7800  139.2280 C   0  0  0  0  0  0  0  0  0  0  0  0
  197.3590  171.7300  139.9810 N   0  0  0  0  0  0  0  0  0  0  0  0
  196.5540  170.7140  139.4010 C   0  0  1  0  0  3  0  0  0  0  0  0
  196.1670  172.5810  138.1690 C   0  0  1  0  0  3  0  0  0  0  0  0
  195.9110  169.6060  140.1330 C   0  0  0  0  0  2  0  0  0  0  0  0
  193.3800  169.2930  140.1560 C   0  0  1  0  0  3  0  0  0  0  0  0
  193.5950  169.7090  141.6330 C   0  0  1  0  0  3  0  0  0  0  0  0
  193.9380  171.0610  141.7400 O   0  0  0  0  0  1  0  0  0  0  0  0
  192.3740  169.4500  142.4560 C   0  0  0  0  0  0  0  0  0  0  0  0
  191.9490  170.4560  143.4730 C   0  0  0  0  0  1  0  0  0  0  0  0
  191.7000  168.4460  142.2730 O   0  0  0  0  0  0  0  0  0  0  0  0
  192.2110  169.9980  139.4560 C   0  0  0  0  0  2  0  0  0  0  0  0
  191.1400  169.0320  138.9590 C   0  0  0  0  0  1  0  0  0  0  0  0
  196.6660  172.8650  136.7600 C   0  0  0  0  0  2  0  0  0  0  0  0
  194.7720  174.2430  135.7530 C   0  0  0  0  0  0  0  0  0  0  0  0
  194.3090  175.4690  135.2370 C   0  0  0  0  0  3  0  0  0  0  0  0
  196.9390  175.2700  136.1340 C   0  0  0  0  0  3  0  0  0  0  0  0
  196.0980  174.1550  136.2350 C   0  0  0  0  0  0  0  0  0  0  0  0
  196.4650  176.4830  135.6310 C   0  0  0  0  0  3  0  0  0  0  0  0
  195.1470  176.5810  135.1800 C   0  0  0  0  0  3  0  0  0  0  0  0
  193.8990  173.0570  135.7040 C   0  0  0  0  0  3  0  0  0  0  0  0
  192.6740  173.1220  136.1280 N   0  0  0  0  0  0  0  0  0  0  0  0
  191.8590  171.9880  136.0600 N   0  0  0  0  0  2  0  0  0  0  0  0
  190.7420  171.8710  136.8860 N   0  0  0  0  0  2  0  0  0  0  0  0
  189.8930  173.0270  136.6200 C   0  0  0  0  0  2  0  0  0  0  0  0
  188.6970  173.0400  137.5730 C   0  0  2  0  0  3  0  0  0  0  0  0
  188.1170  174.3730  137.6280 N   0  0  0  0  0  1  0  0  0  0  0  0
  189.0400  172.5670  138.9920 C   0  0  0  0  0  2  0  0  0  0  0  0
  188.2270  174.8730  141.6450 C   0  0  0  0  0  0  0  0  0  0  0  0
  190.2140  172.9520  141.0010 C   0  0  0  0  0  2  0  0  0  0  0  0
  187.7570  176.0750  141.0130 N   0  0  0  0  0  2  0  0  0  0  0  0
  187.9730  174.6580  142.8580 O   0  0  0  0  0  0  0  0  0  0  0  0
  189.1620  174.0280  140.9720 N   0  0  0  0  0  0  0  0  0  0  0  0
  189.9220  173.5290  139.7790 C   0  0  2  0  0  3  0  0  0  0  0  0
  186.4970  177.7730  144.5270 C   0  0  1  0  0  3  0  0  0  0  0  0
  186.9770  177.1150  141.7020 C   0  0  2  0  0  0  0  0  0  0  0  0
  186.2730  177.9290  140.6270 C   0  0  0  0  0  1  0  0  0  0  0  0
  185.4790  177.4330  143.4370 C   0  0  0  0  0  2  0  0  0  0  0  0
  186.4410  176.7270  145.6120 C   0  0  0  0  0  1  0  0  0  0  0  0
  187.9320  178.0910  142.4530 C   0  0  0  0  0  2  0  0  0  0  0  0
  187.9260  177.8430  143.9690 C   0  0  0  0  0  2  0  0  0  0  0  0
  186.0190  176.4840  142.5400 O   0  0  0  0  0  0  0  0  0  0  0  0
  197.7530  174.1210  139.6370 C   0  0  0  0  0  2  0  0  0  0  0  0
  197.1610  176.3430  140.5900 C   0  0  0  0  0  2  0  0  0  0  0  0
  197.9360  175.8930  142.9210 C   0  0  0  0  0  1  0  0  0  0  0  0
  195.5460  174.5830  140.6740 C   0  0  1  0  0  3  0  0  0  0  0  0
  196.7290  176.1280  142.0260 C   0  0  2  0  0  3  0  0  0  0  0  0
  196.6430  175.1560  139.8120 C   0  0  2  0  0  3  0  0  0  0  0  0
  195.8380  174.9680  142.0750 N   0  0  0  0  0  0  0  0  0  0  0  0
  193.5300  173.9230  139.9810 C   0  0  0  0  0  1  0  0  0  0  0  0
  194.3020  175.0610  140.2330 O   0  0  0  0  0  0  0  0  0  0  0  0
  194.6630  175.3630  142.7420 N   0  0  0  0  0  2  0  0  0  0  0  0
  194.6660  174.7150  144.0510 C   0  0  0  0  0  2  0  0  0  0  0  0
  191.4550  176.5300  144.4240 C   0  0  0  0  0  2  0  0  0  0  0  0
  190.7340  176.6430  145.7660 C   0  0  0  0  0  2  0  0  0  0  0  0
  192.0570  174.8350  146.7640 O   0  0  0  0  0  0  0  0  0  0  0  0
  191.5670  176.1620  146.9600 C   0  0  0  0  0  2  0  0  0  0  0  0
  192.9810  176.5940  144.5630 C   0  0  0  0  0  2  0  0  0  0  0  0
  193.0760  174.4710  145.8680 C   0  0  0  0  0  3  0  0  0  0  0  0
  193.5370  175.2390  144.8740 C   0  0  0  0  0  0  0  0  0  0  0  0
  1  8  1  0  0  0  0
  1  9  1  1  0  0  0
  2  1  1  0  0  0  0
  3  2  1  1  0  0  0
  3  6  1  0  0  0  0
  4 46  1  0  0  0  0
  4  5  2  0  0  0  0
  6  5  1  0  0  0  0
  6  8  1  1  0  0  0
  7 17  1  6  0  0  0
  7  3  1  0  0  0  0
  7  4  1  0  0  0  0
  9 15  1  6  0  0  0
  9 10  1  0  0  0  0
 10 11  1  6  0  0  0
 10 12  1  0  0  0  0
 12 13  1  0  0  0  0
 14 12  2  0  0  0  0
 16 15  1  0  0  0  0
 18 21  1  0  0  0  0
 19 18  2  0  0  0  0
 20 21  2  0  0  0  0
 21 17  1  0  0  0  0
 22 20  1  0  0  0  0
 23 19  1  0  0  0  0
 23 22  2  0  0  0  0
 24 18  1  0  0  0  0
 24 25  2  0  0  0  0
 26 25  1  0  0  0  0
 26 27  1  0  0  0  0
 28 27  1  0  0  0  0
 28 29  1  0  0  0  0
 29 30  1  1  0  0  0
 29 31  1  0  0  0  0
 32 35  2  0  0  0  0
 34 32  1  0  0  0  0
 34 39  1  0  0  0  0
 36 33  1  0  0  0  0
 36 32  1  0  0  0  0
 37 31  1  6  0  0  0
 37 36  1  0  0  0  0
 37 33  1  0  0  0  0
 38 42  1  1  0  0  0
 39 40  1  6  0  0  0
 39 43  1  0  0  0  0
 39 45  1  0  0  0  0
 41 38  1  0  0  0  0
 43 44  1  0  0  0  0
 44 38  1  0  0  0  0
 45 41  1  0  0  0  0
 47 50  1  0  0  0  0
 49 54  1  6  0  0  0
 49 52  1  0  0  0  0
 50 52  1  0  0  0  0
 50 48  1  1  0  0  0
 51 46  1  1  0  0  0
 51 47  1  0  0  0  0
 51 49  1  0  0  0  0
 52 55  1  0  0  0  0
 53 54  1  0  0  0  0
 55 56  1  0  0  0  0
 56 63  1  0  0  0  0
 57 61  1  0  0  0  0
 57 58  1  0  0  0  0
 58 60  1  0  0  0  0
 59 60  1  0  0  0  0
 61 63  1  0  0  0  0
 62 59  1  0  0  0  0
 63 62  2  0  0  0  0
M  END
>  <MODEL>
5

>  <REMARK>
 VINA RESULT:      -5.8      2.783      8.975
  Name = 
  20 active torsions:
  status: ('A' for Active; 'I' for Inactive)
    1  A    between atoms: C_1  and  C_15
    2  A    between atoms: C_1  and  C_41
    3  A    between atoms: C_6  and  C_14
    4  A    between atoms: C_8  and  C_28
    5  A    between atoms: N_12  and  N_16
    6  A    between atoms: N_12  and  C_61
    7  A    between atoms: C_15  and  C_61
    8  A    between atoms: N_16  and  N_20
    9  A    between atoms: C_17  and  N_27
   10  A    between atoms: C_18  and  C_28
   11  A    between atoms: C_23  and  O_50
   12  A    between atoms: C_28  and  C_42
   13  A    between atoms: C_31  and  C_32
   14  A    between atoms: C_31  and  C_59
   15  A    between atoms: C_33  and  C_42
   16  A    between atoms: C_34  and  C_43
   17  A    between atoms: C_34  and  C_52
   18  A    between atoms: N_40  and  N_49
   19  A    between atoms: N_40  and  C_51
   20  A    between atoms: C_51  and  C_54
                            x       y       z     vdW  Elec       q    Type
                         _______ _______ _______ _____ _____    ______ ____

>  <TORSDO>
F 20

$$$$
=
 OpenBabel11042417183D

 63 69  0  0  1  0  0  0  0  0999 V2000
  187.3400  176.1360  145.3160 C   0  0  1  0  0  3  0  0  0  0  0  0
  187.8070  176.1800  143.8450 C   0  0  0  0  0  2  0  0  0  0  0  0
  189.2010  175.6850  143.9250 C   0  0  2  0  0  3  0  0  0  0  0  0
  191.4620  175.9680  144.1200 C   0  0  0  0  0  0  0  0  0  0  0  0
  190.9910  175.7190  145.3050 N   0  0  0  0  0  0  0  0  0  0  0  0
  189.5960  175.5080  145.1470 C   0  0  1  0  0  3  0  0  0  0  0  0
  190.3610  176.1090  143.0960 C   0  0  1  0  0  3  0  0  0  0  0  0
  188.5650  175.7780  146.1680 C   0  0  0  0  0  2  0  0  0  0  0  0
  186.6800  177.4490  145.7740 C   0  0  1  0  0  3  0  0  0  0  0  0
  185.4330  177.8570  144.9500 C   0  0  1  0  0  3  0  0  0  0  0  0
  184.3130  178.0300  145.7680 O   0  0  0  0  0  1  0  0  0  0  0  0
  185.6750  179.1180  144.1830 C   0  0  0  0  0  0  0  0  0  0  0  0
  186.1400  179.0370  142.7680 C   0  0  0  0  0  1  0  0  0  0  0  0
  185.4550  180.2090  144.6910 O   0  0  0  0  0  0  0  0  0  0  0  0
  186.4750  177.4640  147.2950 C   0  0  0  0  0  2  0  0  0  0  0  0
  186.8110  178.8100  147.9310 C   0  0  0  0  0  1  0  0  0  0  0  0
  190.5440  175.2020  141.8880 C   0  0  0  0  0  2  0  0  0  0  0  0
  192.6260  173.7350  141.7700 C   0  0  0  0  0  0  0  0  0  0  0  0
  193.2860  172.5390  142.1130 C   0  0  0  0  0  3  0  0  0  0  0  0
  190.6840  172.9730  143.0120 C   0  0  0  0  0  3  0  0  0  0  0  0
  191.3170  173.9640  142.2530 C   0  0  0  0  0  0  0  0  0  0  0  0
  191.3520  171.7960  143.3550 C   0  0  0  0  0  3  0  0  0  0  0  0
  192.6560  171.5790  142.9030 C   0  0  0  0  0  3  0  0  0  0  0  0
  193.2750  174.6840  140.8480 C   0  0  0  0  0  3  0  0  0  0  0  0
  194.5660  174.6930  140.7100 N   0  0  0  0  0  0  0  0  0  0  0  0
  195.1590  175.5930  139.8210 N   0  0  0  0  0  2  0  0  0  0  0  0
  196.3730  175.2840  139.2080 N   0  0  0  0  0  2  0  0  0  0  0  0
  197.0930  174.3960  140.1150 C   0  0  0  0  0  2  0  0  0  0  0  0
  197.5070  173.1160  139.3910 C   0  0  2  0  0  3  0  0  0  0  0  0
  197.7120  173.3860  137.9760 N   0  0  0  0  0  1  0  0  0  0  0  0
  196.5030  171.9660  139.5560 C   0  0  0  0  0  2  0  0  0  0  0  0
  193.1080  172.2370  138.3670 C   0  0  0  0  0  0  0  0  0  0  0  0
  195.7550  172.5850  137.4060 C   0  0  0  0  0  2  0  0  0  0  0  0
  192.3870  171.1300  138.9320 N   0  0  0  0  0  2  0  0  0  0  0  0
  192.4830  173.2300  137.9140 O   0  0  0  0  0  0  0  0  0  0  0  0
  194.5100  172.1270  138.1170 N   0  0  0  0  0  0  0  0  0  0  0  0
  195.8650  171.4980  138.2530 C   0  0  2  0  0  3  0  0  0  0  0  0
  188.7290  172.6090  137.8140 C   0  0  1  0  0  3  0  0  0  0  0  0
  190.9200  171.0620  139.0200 C   0  0  2  0  0  0  0  0  0  0  0  0
  190.5830  169.9580  140.0100 C   0  0  0  0  0  1  0  0  0  0  0  0
  189.0400  172.3830  139.2950 C   0  0  0  0  0  2  0  0  0  0  0  0
  188.8450  174.0790  137.4950 C   0  0  0  0  0  1  0  0  0  0  0  0
  190.3210  170.6350  137.6460 C   0  0  0  0  0  2  0  0  0  0  0  0
  189.6830  171.8200  136.9060 C   0  0  0  0  0  2  0  0  0  0  0  0
  190.4350  172.3100  139.4980 O   0  0  0  0  0  0  0  0  0  0  0  0
  192.8630  176.4540  143.9100 C   0  0  0  0  0  2  0  0  0  0  0  0
  195.0480  176.8670  145.0290 C   0  0  0  0  0  2  0  0  0  0  0  0
  196.4640  176.7990  142.9740 C   0  0  0  0  0  1  0  0  0  0  0  0
  194.3140  174.6130  144.7260 C   0  0  1  0  0  3  0  0  0  0  0  0
  196.1070  176.0920  144.2730 C   0  0  2  0  0  3  0  0  0  0  0  0
  193.8090  176.0030  145.0220 C   0  0  2  0  0  3  0  0  0  0  0  0
  195.5900  174.7540  143.9860 N   0  0  0  0  0  0  0  0  0  0  0  0
  193.2290  173.2860  146.1570 C   0  0  0  0  0  1  0  0  0  0  0  0
  194.4640  173.9010  145.9260 O   0  0  0  0  0  0  0  0  0  0  0  0
  196.5420  173.8240  144.4450 N   0  0  0  0  0  2  0  0  0  0  0  0
  196.7410  172.8420  143.3830 C   0  0  0  0  0  2  0  0  0  0  0  0
  195.5610  170.4820  145.9870 C   0  0  0  0  0  2  0  0  0  0  0  0
  195.6870  168.9680  145.8320 C   0  0  0  0  0  2  0  0  0  0  0  0
  196.1060  169.1310  143.4210 O   0  0  0  0  0  0  0  0  0  0  0  0
  196.5510  168.5370  144.6420 C   0  0  0  0  0  2  0  0  0  0  0  0
  196.7570  171.2410  145.4000 C   0  0  0  0  0  2  0  0  0  0  0  0
  196.2550  170.4850  143.0770 C   0  0  0  0  0  3  0  0  0  0  0  0
  196.5670  171.4660  143.9320 C   0  0  0  0  0  0  0  0  0  0  0  0
  1  9  1  1  0  0  0
  1  8  1  0  0  0  0
  2  1  1  0  0  0  0
  3  2  1  1  0  0  0
  3  6  1  0  0  0  0
  4  5  2  0  0  0  0
  6  5  1  0  0  0  0
  6  8  1  1  0  0  0
  7 17  1  6  0  0  0
  7  3  1  0  0  0  0
  7  4  1  0  0  0  0
  9 15  1  1  0  0  0
 10 11  1  1  0  0  0
 10  9  1  0  0  0  0
 12 14  2  0  0  0  0
 12 10  1  0  0  0  0
 13 12  1  0  0  0  0
 15 16  1  0  0  0  0
 17 21  1  0  0  0  0
 18 19  2  0  0  0  0
 18 21  1  0  0  0  0
 19 23  1  0  0  0  0
 20 22  1  0  0  0  0
 21 20  2  0  0  0  0
 23 22  2  0  0  0  0
 24 18  1  0  0  0  0
 25 24  2  0  0  0  0
 26 25  1  0  0  0  0
 27 26  1  0  0  0  0
 27 28  1  0  0  0  0
 29 30  1  6  0  0  0
 29 31  1  0  0  0  0
 29 28  1  0  0  0  0
 32 34  1  0  0  0  0
 33 36  1  0  0  0  0
 33 37  1  0  0  0  0
 34 39  1  0  0  0  0
 35 32  2  0  0  0  0
 36 37  1  0  0  0  0
 36 32  1  0  0  0  0
 37 31  1  1  0  0  0
 38 42  1  6  0  0  0
 38 41  1  0  0  0  0
 39 45  1  0  0  0  0
 39 40  1  1  0  0  0
 41 45  1  0  0  0  0
 43 39  1  0  0  0  0
 44 43  1  0  0  0  0
 44 38  1  0  0  0  0
 46  4  1  0  0  0  0
 49 51  1  0  0  0  0
 49 54  1  1  0  0  0
 50 48  1  6  0  0  0
 50 47  1  0  0  0  0
 51 46  1  6  0  0  0
 51 47  1  0  0  0  0
 52 50  1  0  0  0  0
 52 55  1  0  0  0  0
 52 49  1  0  0  0  0
 54 53  1  0  0  0  0
 56 63  1  0  0  0  0
 56 55  1  0  0  0  0
 58 57  1  0  0  0  0
 59 60  1  0  0  0  0
 60 58  1  0  0  0  0
 61 57  1  0  0  0  0
 62 59  1  0  0  0  0
 62 63  2  0  0  0  0
 63 61  1  0  0  0  0
M  END
>  <MODEL>
6

>  <REMARK>
 VINA RESULT:      -5.8      2.217      3.882
  Name = 
  20 active torsions:
  status: ('A' for Active; 'I' for Inactive)
    1  A    between atoms: C_1  and  C_15
    2  A    between atoms: C_1  and  C_41
    3  A    between atoms: C_6  and  C_14
    4  A    between atoms: C_8  and  C_28
    5  A    between atoms: N_12  and  N_16
    6  A    between atoms: N_12  and  C_61
    7  A    between atoms: C_15  and  C_61
    8  A    between atoms: N_16  and  N_20
    9  A    between atoms: C_17  and  N_27
   10  A    between atoms: C_18  and  C_28
   11  A    between atoms: C_23  and  O_50
   12  A    between atoms: C_28  and  C_42
   13  A    between atoms: C_31  and  C_32
   14  A    between atoms: C_31  and  C_59
   15  A    between atoms: C_33  and  C_42
   16  A    between atoms: C_34  and  C_43
   17  A    between atoms: C_34  and  C_52
   18  A    between atoms: N_40  and  N_49
   19  A    between atoms: N_40  and  C_51
   20  A    between atoms: C_51  and  C_54
                            x       y       z     vdW  Elec       q    Type
                         _______ _______ _______ _____ _____    ______ ____

>  <TORSDO>
F 20

$$$$
=
 OpenBabel11042417183D

 63 69  0  0  1  0  0  0  0  0999 V2000
  188.5670  177.8890  143.8500 C   0  0  1  0  0  3  0  0  0  0  0  0
  188.9970  176.4100  143.9670 C   0  0  0  0  0  2  0  0  0  0  0  0
  190.4730  176.4870  143.8740 C   0  0  2  0  0  3  0  0  0  0  0  0
  192.4530  176.4420  142.7310 C   0  0  0  0  0  0  0  0  0  0  0  0
  192.1010  177.6860  142.8640 N   0  0  0  0  0  0  0  0  0  0  0  0
  190.8940  177.6840  143.6100 C   0  0  1  0  0  3  0  0  0  0  0  0
  191.3920  175.5000  143.2450 C   0  0  1  0  0  3  0  0  0  0  0  0
  189.8280  178.7010  143.5230 C   0  0  0  0  0  2  0  0  0  0  0  0
  187.4520  178.1080  142.8120 C   0  0  1  0  0  3  0  0  0  0  0  0
  186.8730  176.8020  142.2130 C   0  0  1  0  0  3  0  0  0  0  0  0
  185.4740  176.8160  142.2100 O   0  0  0  0  0  1  0  0  0  0  0  0
  187.3600  176.5800  140.8170 C   0  0  0  0  0  0  0  0  0  0  0  0
  188.0250  175.2910  140.4700 C   0  0  0  0  0  1  0  0  0  0  0  0
  187.1800  177.4260  139.9520 O   0  0  0  0  0  0  0  0  0  0  0  0
  186.3990  179.0960  143.3320 C   0  0  0  0  0  2  0  0  0  0  0  0
  185.9790  178.8200  144.7730 C   0  0  0  0  0  1  0  0  0  0  0  0
  191.9190  174.5010  144.2650 C   0  0  0  0  0  2  0  0  0  0  0  0
  189.9920  173.8760  145.8120 C   0  0  0  0  0  0  0  0  0  0  0  0
  189.3150  174.0510  147.0350 C   0  0  0  0  0  3  0  0  0  0  0  0
  191.6140  175.5390  146.5190 C   0  0  0  0  0  3  0  0  0  0  0  0
  191.1740  174.6110  145.5660 C   0  0  0  0  0  0  0  0  0  0  0  0
  190.9420  175.6960  147.7320 C   0  0  0  0  0  3  0  0  0  0  0  0
  189.7890  174.9500  147.9890 C   0  0  0  0  0  3  0  0  0  0  0  0
  189.4120  172.9990  144.7800 C   0  0  0  0  0  3  0  0  0  0  0  0
  190.1780  172.2780  144.0200 N   0  0  0  0  0  0  0  0  0  0  0  0
  189.6050  171.4430  143.0560 N   0  0  0  0  0  2  0  0  0  0  0  0
  190.3640  170.9820  141.9810 N   0  0  0  0  0  2  0  0  0  0  0  0
  191.7660  171.1750  142.3360 C   0  0  0  0  0  2  0  0  0  0  0  0
  192.4710  169.8270  142.4800 C   0  0  2  0  0  3  0  0  0  0  0  0
  192.8130  169.5870  143.8730 N   0  0  0  0  0  1  0  0  0  0  0  0
  193.7290  169.6970  141.6100 C   0  0  0  0  0  2  0  0  0  0  0  0
  192.4360  171.1790  138.5860 C   0  0  0  0  0  0  0  0  0  0  0  0
  194.5300  169.4490  139.4050 C   0  0  0  0  0  2  0  0  0  0  0  0
  191.0030  171.1330  138.6880 N   0  0  0  0  0  2  0  0  0  0  0  0
  192.9840  171.9580  137.7650 O   0  0  0  0  0  0  0  0  0  0  0  0
  193.2330  170.1970  139.2490 N   0  0  0  0  0  0  0  0  0  0  0  0
  193.4810  169.0920  140.2330 C   0  0  2  0  0  3  0  0  0  0  0  0
  190.3120  173.2350  135.2350 C   0  0  1  0  0  3  0  0  0  0  0  0
  190.0930  171.9520  137.8720 C   0  0  2  0  0  0  0  0  0  0  0  0
  188.8250  172.1560  138.6860 C   0  0  0  0  0  1  0  0  0  0  0  0
  190.0160  173.8780  136.5920 C   0  0  0  0  0  2  0  0  0  0  0  0
  191.6120  173.7770  134.6940 C   0  0  0  0  0  1  0  0  0  0  0  0
  189.6820  171.1750  136.5850 C   0  0  0  0  0  2  0  0  0  0  0  0
  190.4080  171.7060  135.3400 C   0  0  0  0  0  2  0  0  0  0  0  0
  190.7150  173.2050  137.6170 O   0  0  0  0  0  0  0  0  0  0  0  0
  193.5650  176.0280  141.8170 C   0  0  0  0  0  2  0  0  0  0  0  0
  195.9220  176.6480  141.3050 C   0  0  0  0  0  2  0  0  0  0  0  0
  196.3540  174.8500  139.6270 C   0  0  0  0  0  1  0  0  0  0  0  0
  195.4960  175.0660  143.0460 C   0  0  1  0  0  3  0  0  0  0  0  0
  196.6830  175.3700  141.0190 C   0  0  2  0  0  3  0  0  0  0  0  0
  194.9440  176.3170  142.4090 C   0  0  2  0  0  3  0  0  0  0  0  0
  196.3120  174.3710  142.0230 N   0  0  0  0  0  0  0  0  0  0  0  0
  195.3070  175.5170  145.2240 C   0  0  0  0  0  1  0  0  0  0  0  0
  196.2380  175.4070  144.1870 O   0  0  0  0  0  0  0  0  0  0  0  0
  197.5040  173.8740  142.5850 N   0  0  0  0  0  2  0  0  0  0  0  0
  197.6170  172.4710  142.1940 C   0  0  0  0  0  2  0  0  0  0  0  0
  196.3850  171.8030  145.6260 C   0  0  0  0  0  2  0  0  0  0  0  0
  196.6070  170.4630  146.3250 C   0  0  0  0  0  2  0  0  0  0  0  0
  197.1910  169.3310  144.2280 O   0  0  0  0  0  0  0  0  0  0  0  0
  197.5790  169.5330  145.5890 C   0  0  0  0  0  2  0  0  0  0  0  0
  197.5760  172.2240  144.7570 C   0  0  0  0  0  2  0  0  0  0  0  0
  197.2890  170.2920  143.2070 C   0  0  0  0  0  3  0  0  0  0  0  0
  197.4810  171.6010  143.3990 C   0  0  0  0  0  0  0  0  0  0  0  0
  1  9  1  6  0  0  0
  1  2  1  0  0  0  0
  3  2  1  6  0  0  0
  4  5  2  0  0  0  0
  4  7  1  0  0  0  0
  5  6  1  0  0  0  0
  6  8  1  6  0  0  0
  6  3  1  0  0  0  0
  7  3  1  0  0  0  0
  7 17  1  1  0  0  0
  8  1  1  0  0  0  0
  9 15  1  1  0  0  0
 10 11  1  6  0  0  0
 10  9  1  0  0  0  0
 12 10  1  0  0  0  0
 13 12  1  0  0  0  0
 14 12  2  0  0  0  0
 15 16  1  0  0  0  0
 17 21  1  0  0  0  0
 18 19  1  0  0  0  0
 19 23  2  0  0  0  0
 20 22  2  0  0  0  0
 21 18  2  0  0  0  0
 21 20  1  0  0  0  0
 22 23  1  0  0  0  0
 24 18  1  0  0  0  0
 25 24  2  0  0  0  0
 26 25  1  0  0  0  0
 27 28  1  0  0  0  0
 27 26  1  0  0  0  0
 28 29  1  0  0  0  0
 29 30  1  1  0  0  0
 31 29  1  0  0  0  0
 32 34  1  0  0  0  0
 32 36  1  0  0  0  0
 33 37  1  0  0  0  0
 35 32  2  0  0  0  0
 36 33  1  0  0  0  0
 36 37  1  0  0  0  0
 37 31  1  1  0  0  0
 38 42  1  1  0  0  0
 38 44  1  0  0  0  0
 38 41  1  0  0  0  0
 39 40  1  1  0  0  0
 39 34  1  0  0  0  0
 41 45  1  0  0  0  0
 43 39  1  0  0  0  0
 44 43  1  0  0  0  0
 45 39  1  0  0  0  0
 46  4  1  0  0  0  0
 47 51  1  0  0  0  0
 49 54  1  1  0  0  0
 50 48  1  6  0  0  0
 50 47  1  0  0  0  0
 50 52  1  0  0  0  0
 51 46  1  6  0  0  0
 51 49  1  0  0  0  0
 52 55  1  0  0  0  0
 52 49  1  0  0  0  0
 54 53  1  0  0  0  0
 56 55  1  0  0  0  0
 56 63  1  0  0  0  0
 57 58  1  0  0  0  0
 59 60  1  0  0  0  0
 60 58  1  0  0  0  0
 61 57  1  0  0  0  0
 62 63  2  0  0  0  0
 62 59  1  0  0  0  0
 63 61  1  0  0  0  0
M  END
>  <MODEL>
7

>  <REMARK>
 VINA RESULT:      -5.8      2.422      3.825
  Name = 
  20 active torsions:
  status: ('A' for Active; 'I' for Inactive)
    1  A    between atoms: C_1  and  C_15
    2  A    between atoms: C_1  and  C_41
    3  A    between atoms: C_6  and  C_14
    4  A    between atoms: C_8  and  C_28
    5  A    between atoms: N_12  and  N_16
    6  A    between atoms: N_12  and  C_61
    7  A    between atoms: C_15  and  C_61
    8  A    between atoms: N_16  and  N_20
    9  A    between atoms: C_17  and  N_27
   10  A    between atoms: C_18  and  C_28
   11  A    between atoms: C_23  and  O_50
   12  A    between atoms: C_28  and  C_42
   13  A    between atoms: C_31  and  C_32
   14  A    between atoms: C_31  and  C_59
   15  A    between atoms: C_33  and  C_42
   16  A    between atoms: C_34  and  C_43
   17  A    between atoms: C_34  and  C_52
   18  A    between atoms: N_40  and  N_49
   19  A    between atoms: N_40  and  C_51
   20  A    between atoms: C_51  and  C_54
                            x       y       z     vdW  Elec       q    Type
                         _______ _______ _______ _____ _____    ______ ____

>  <TORSDO>
F 20

$$$$
=
 OpenBabel11042417183D

 63 69  0  0  1  0  0  0  0  0999 V2000
  191.9130  170.7510  142.1440 C   0  0  1  0  0  3  0  0  0  0  0  0
  192.0350  171.8880  143.1800 C   0  0  0  0  0  2  0  0  0  0  0  0
  192.2740  173.0820  142.3360 C   0  0  2  0  0  3  0  0  0  0  0  0
  193.6160  174.5960  141.2710 C   0  0  0  0  0  0  0  0  0  0  0  0
  193.2860  173.6840  140.4070 N   0  0  0  0  0  0  0  0  0  0  0  0
  192.4230  172.7830  141.0840 C   0  0  1  0  0  3  0  0  0  0  0  0
  193.1180  174.2630  142.6570 C   0  0  1  0  0  3  0  0  0  0  0  0
  192.2640  171.3480  140.7740 C   0  0  0  0  0  2  0  0  0  0  0  0
  192.7900  169.5320  142.4850 C   0  0  1  0  0  3  0  0  0  0  0  0
  193.3920  169.5600  143.9120 C   0  0  1  0  0  3  0  0  0  0  0  0
  192.8450  168.5560  144.7180 O   0  0  0  0  0  1  0  0  0  0  0  0
  194.8790  169.4020  143.8800 C   0  0  0  0  0  0  0  0  0  0  0  0
  195.6450  169.9190  142.7090 C   0  0  0  0  0  1  0  0  0  0  0  0
  195.4730  168.8950  144.8210 O   0  0  0  0  0  0  0  0  0  0  0  0
  192.0850  168.2220  142.1120 C   0  0  0  0  0  2  0  0  0  0  0  0
  190.6460  168.4270  141.6490 C   0  0  0  0  0  1  0  0  0  0  0  0
  192.2990  175.3800  143.2860 C   0  0  0  0  0  2  0  0  0  0  0  0
  192.1540  176.4100  145.6140 C   0  0  0  0  0  0  0  0  0  0  0  0
  192.8010  176.8760  146.7740 C   0  0  0  0  0  3  0  0  0  0  0  0
  194.3220  175.8400  144.6820 C   0  0  0  0  0  3  0  0  0  0  0  0
  192.9260  175.8570  144.5670 C   0  0  0  0  0  0  0  0  0  0  0  0
  194.9520  176.2950  145.8410 C   0  0  0  0  0  3  0  0  0  0  0  0
  194.1890  176.8150  146.8890 C   0  0  0  0  0  3  0  0  0  0  0  0
  190.6970  176.5830  145.4760 C   0  0  0  0  0  3  0  0  0  0  0  0
  189.9810  176.9820  146.4820 N   0  0  0  0  0  0  0  0  0  0  0  0
  188.6030  177.1520  146.3250 N   0  0  0  0  0  2  0  0  0  0  0  0
  187.7190  176.1470  146.7170 N   0  0  0  0  0  2  0  0  0  0  0  0
  186.7490  176.7620  147.6180 C   0  0  0  0  0  2  0  0  0  0  0  0
  186.5970  178.2490  147.3030 C   0  0  2  0  0  3  0  0  0  0  0  0
  187.0670  179.0480  148.4230 N   0  0  0  0  0  1  0  0  0  0  0  0
  185.1610  178.6570  146.9450 C   0  0  0  0  0  2  0  0  0  0  0  0
  186.1830  177.4550  143.7010 C   0  0  0  0  0  0  0  0  0  0  0  0
  183.9360  178.6780  144.9300 C   0  0  0  0  0  2  0  0  0  0  0  0
  187.5610  177.8270  143.5430 N   0  0  0  0  0  2  0  0  0  0  0  0
  185.6850  176.5570  142.9740 O   0  0  0  0  0  0  0  0  0  0  0  0
  185.3180  178.2410  144.5220 N   0  0  0  0  0  0  0  0  0  0  0  0
  185.0100  179.2780  145.5620 C   0  0  2  0  0  3  0  0  0  0  0  0
  188.3470  174.8080  140.8800 C   0  0  1  0  0  3  0  0  0  0  0  0
  188.4680  177.2220  142.5550 C   0  0  2  0  0  0  0  0  0  0  0  0
  189.7210  178.0840  142.5130 C   0  0  0  0  0  1  0  0  0  0  0  0
  189.3990  175.2010  141.9200 C   0  0  0  0  0  2  0  0  0  0  0  0
  187.6530  173.5430  141.3190 C   0  0  0  0  0  1  0  0  0  0  0  0
  187.8310  177.2840  141.1340 C   0  0  0  0  0  2  0  0  0  0  0  0
  187.3000  175.9140  140.6850 C   0  0  0  0  0  2  0  0  0  0  0  0
  188.7970  175.9080  142.9840 O   0  0  0  0  0  0  0  0  0  0  0  0
  194.6880  175.6040  140.9890 C   0  0  0  0  0  2  0  0  0  0  0  0
  197.1340  175.8020  140.5690 C   0  0  0  0  0  2  0  0  0  0  0  0
  197.0530  175.4170  138.1030 C   0  0  0  0  0  1  0  0  0  0  0  0
  196.2140  173.6470  141.0410 C   0  0  1  0  0  3  0  0  0  0  0  0
  197.4870  174.8490  139.4460 C   0  0  2  0  0  3  0  0  0  0  0  0
  196.0750  175.1070  141.3930 C   0  0  2  0  0  3  0  0  0  0  0  0
  196.8120  173.5730  139.6880 N   0  0  0  0  0  0  0  0  0  0  0  0
  196.4770  173.4070  143.2450 C   0  0  0  0  0  1  0  0  0  0  0  0
  196.9950  173.0000  142.0120 O   0  0  0  0  0  0  0  0  0  0  0  0
  197.7870  172.5590  139.6240 N   0  0  0  0  0  2  0  0  0  0  0  0
  197.1240  171.3450  139.1560 C   0  0  0  0  0  2  0  0  0  0  0  0
  195.1350  172.4490  136.2280 C   0  0  0  0  0  2  0  0  0  0  0  0
  195.5960  172.2070  134.7920 C   0  0  0  0  0  2  0  0  0  0  0  0
  197.8940  171.7080  135.4880 O   0  0  0  0  0  0  0  0  0  0  0  0
  196.8030  171.2680  134.6780 C   0  0  0  0  0  2  0  0  0  0  0  0
  195.4870  171.2900  137.1680 C   0  0  0  0  0  2  0  0  0  0  0  0
  197.9400  171.6450  136.8910 C   0  0  0  0  0  3  0  0  0  0  0  0
  196.8840  171.4390  137.6860 C   0  0  0  0  0  0  0  0  0  0  0  0
  1  9  1  1  0  0  0
  1  2  1  0  0  0  0
  3  7  1  0  0  0  0
  3  2  1  1  0  0  0
  4  7  1  0  0  0  0
  5  6  1  0  0  0  0
  5  4  2  0  0  0  0
  6  8  1  1  0  0  0
  6  3  1  0  0  0  0
  7 17  1  6  0  0  0
  8  1  1  0  0  0  0
  9 15  1  1  0  0  0
  9 10  1  0  0  0  0
 10 11  1  1  0  0  0
 12 10  1  0  0  0  0
 12 14  2  0  0  0  0
 13 12  1  0  0  0  0
 16 15  1  0  0  0  0
 17 21  1  0  0  0  0
 18 19  1  0  0  0  0
 19 23  2  0  0  0  0
 20 22  2  0  0  0  0
 21 20  1  0  0  0  0
 21 18  2  0  0  0  0
 22 23  1  0  0  0  0
 24 18  1  0  0  0  0
 24 25  2  0  0  0  0
 26 25  1  0  0  0  0
 26 27  1  0  0  0  0
 27 28  1  0  0  0  0
 29 28  1  0  0  0  0
 29 30  1  1  0  0  0
 31 29  1  0  0  0  0
 32 36  1  0  0  0  0
 33 37  1  0  0  0  0
 34 32  1  0  0  0  0
 35 32  2  0  0  0  0
 36 33  1  0  0  0  0
 36 37  1  0  0  0  0
 37 31  1  1  0  0  0
 38 42  1  1  0  0  0
 38 41  1  0  0  0  0
 39 40  1  6  0  0  0
 39 45  1  0  0  0  0
 39 34  1  0  0  0  0
 41 45  1  0  0  0  0
 43 39  1  0  0  0  0
 44 38  1  0  0  0  0
 44 43  1  0  0  0  0
 46  4  1  0  0  0  0
 47 51  1  0  0  0  0
 49 51  1  0  0  0  0
 49 54  1  1  0  0  0
 50 48  1  6  0  0  0
 50 52  1  0  0  0  0
 50 47  1  0  0  0  0
 51 46  1  6  0  0  0
 52 49  1  0  0  0  0
 54 53  1  0  0  0  0
 55 52  1  0  0  0  0
 56 55  1  0  0  0  0
 57 61  1  0  0  0  0
 58 57  1  0  0  0  0
 59 62  1  0  0  0  0
 60 58  1  0  0  0  0
 60 59  1  0  0  0  0
 61 63  1  0  0  0  0
 62 63  2  0  0  0  0
 63 56  1  0  0  0  0
M  END
>  <MODEL>
8

>  <REMARK>
 VINA RESULT:      -5.8      3.144      8.540
  Name = 
  20 active torsions:
  status: ('A' for Active; 'I' for Inactive)
    1  A    between atoms: C_1  and  C_15
    2  A    between atoms: C_1  and  C_41
    3  A    between atoms: C_6  and  C_14
    4  A    between atoms: C_8  and  C_28
    5  A    between atoms: N_12  and  N_16
    6  A    between atoms: N_12  and  C_61
    7  A    between atoms: C_15  and  C_61
    8  A    between atoms: N_16  and  N_20
    9  A    between atoms: C_17  and  N_27
   10  A    between atoms: C_18  and  C_28
   11  A    between atoms: C_23  and  O_50
   12  A    between atoms: C_28  and  C_42
   13  A    between atoms: C_31  and  C_32
   14  A    between atoms: C_31  and  C_59
   15  A    between atoms: C_33  and  C_42
   16  A    between atoms: C_34  and  C_43
   17  A    between atoms: C_34  and  C_52
   18  A    between atoms: N_40  and  N_49
   19  A    between atoms: N_40  and  C_51
   20  A    between atoms: C_51  and  C_54
                            x       y       z     vdW  Elec       q    Type
                         _______ _______ _______ _____ _____    ______ ____

>  <TORSDO>
F 20

$$$$
=
 OpenBabel11042417183D

 63 69  0  0  1  0  0  0  0  0999 V2000
  188.2270  177.8130  144.7030 C   0  0  1  0  0  3  0  0  0  0  0  0
  188.6650  176.5370  145.4540 C   0  0  0  0  0  2  0  0  0  0  0  0
  189.8120  176.0570  144.6500 C   0  0  2  0  0  3  0  0  0  0  0  0
  190.7620  174.7950  142.9960 C   0  0  0  0  0  0  0  0  0  0  0  0
  190.5360  175.9790  142.5100 N   0  0  0  0  0  0  0  0  0  0  0  0
  189.9860  176.7490  143.5690 C   0  0  1  0  0  3  0  0  0  0  0  0
  190.2090  174.6460  144.3930 C   0  0  1  0  0  3  0  0  0  0  0  0
  189.0530  177.8820  143.4110 C   0  0  0  0  0  2  0  0  0  0  0  0
  186.7140  177.8550  144.4250 C   0  0  1  0  0  3  0  0  0  0  0  0
  186.3450  178.0520  142.9330 C   0  0  1  0  0  3  0  0  0  0  0  0
  186.3740  176.8410  142.2340 O   0  0  0  0  0  1  0  0  0  0  0  0
  184.9900  178.6680  142.7830 C   0  0  0  0  0  0  0  0  0  0  0  0
  184.0880  178.1960  141.6920 C   0  0  0  0  0  1  0  0  0  0  0  0
  184.6010  179.5200  143.5690 O   0  0  0  0  0  0  0  0  0  0  0  0
  185.9920  176.6910  145.1150 C   0  0  0  0  0  2  0  0  0  0  0  0
  185.6560  176.9750  146.5760 C   0  0  0  0  0  1  0  0  0  0  0  0
  191.2430  174.1660  145.4010 C   0  0  0  0  0  2  0  0  0  0  0  0
  192.6860  176.1350  146.1370 C   0  0  0  0  0  0  0  0  0  0  0  0
  192.9990  177.1130  147.1000 C   0  0  0  0  0  3  0  0  0  0  0  0
  190.9010  175.3430  147.5800 C   0  0  0  0  0  3  0  0  0  0  0  0
  191.6020  175.2580  146.3710 C   0  0  0  0  0  0  0  0  0  0  0  0
  191.2130  176.3240  148.5230 C   0  0  0  0  0  3  0  0  0  0  0  0
  192.2660  177.2100  148.2820 C   0  0  0  0  0  3  0  0  0  0  0  0
  193.5430  175.9870  144.9470 C   0  0  0  0  0  3  0  0  0  0  0  0
  194.5420  175.1590  144.9520 N   0  0  0  0  0  0  0  0  0  0  0  0
  195.3330  175.0250  143.8070 N   0  0  0  0  0  2  0  0  0  0  0  0
  194.7800  174.5480  142.6190 N   0  0  0  0  0  2  0  0  0  0  0  0
  195.4540  173.2910  142.3110 C   0  0  0  0  0  2  0  0  0  0  0  0
  196.8800  173.5550  141.8280 C   0  0  2  0  0  3  0  0  0  0  0  0
  196.9110  174.7420  140.9870 N   0  0  0  0  0  1  0  0  0  0  0  0
  197.4990  172.3710  141.0710 C   0  0  0  0  0  2  0  0  0  0  0  0
  196.4620  173.0120  137.6760 C   0  0  0  0  0  0  0  0  0  0  0  0
  197.2540  170.8280  139.3050 C   0  0  0  0  0  2  0  0  0  0  0  0
  195.4020  173.9800  137.7480 N   0  0  0  0  0  2  0  0  0  0  0  0
  197.0710  172.8240  136.5920 O   0  0  0  0  0  0  0  0  0  0  0  0
  196.6840  172.1100  138.7610 N   0  0  0  0  0  0  0  0  0  0  0  0
  196.5250  171.6210  140.1710 C   0  0  2  0  0  3  0  0  0  0  0  0
  192.5280  174.8200  134.9460 C   0  0  1  0  0  3  0  0  0  0  0  0
  194.9540  174.7940  136.6070 C   0  0  2  0  0  0  0  0  0  0  0  0
  196.0850  175.7530  136.2720 C   0  0  0  0  0  1  0  0  0  0  0  0
  193.9830  174.6330  134.5130 C   0  0  0  0  0  2  0  0  0  0  0  0
  191.7420  173.5730  134.6260 C   0  0  0  0  0  1  0  0  0  0  0  0
  193.7300  175.6660  137.0200 C   0  0  0  0  0  2  0  0  0  0  0  0
  192.4150  175.1130  136.4490 C   0  0  0  0  0  2  0  0  0  0  0  0
  194.7040  173.9320  135.5050 O   0  0  0  0  0  0  0  0  0  0  0  0
  191.1440  173.6400  142.1230 C   0  0  0  0  0  2  0  0  0  0  0  0
  190.0200  171.4560  142.5310 C   0  0  0  0  0  2  0  0  0  0  0  0
  191.9970  170.0030  142.0660 C   0  0  0  0  0  1  0  0  0  0  0  0
  190.0280  172.3550  140.3160 C   0  0  1  0  0  3  0  0  0  0  0  0
  190.6240  170.4430  141.5800 C   0  0  2  0  0  3  0  0  0  0  0  0
  189.9480  172.7580  141.7670 C   0  0  2  0  0  3  0  0  0  0  0  0
  190.7370  171.0560  140.2560 N   0  0  0  0  0  0  0  0  0  0  0  0
  188.2190  173.5850  139.8710 C   0  0  0  0  0  1  0  0  0  0  0  0
  188.7350  172.2890  139.7730 O   0  0  0  0  0  0  0  0  0  0  0  0
  190.1190  170.1890  139.3340 N   0  0  0  0  0  2  0  0  0  0  0  0
  190.9430  168.9860  139.2480 C   0  0  0  0  0  2  0  0  0  0  0  0
  193.0130  171.1870  137.0990 C   0  0  0  0  0  2  0  0  0  0  0  0
  194.2440  170.6740  136.3550 C   0  0  0  0  0  2  0  0  0  0  0  0
  194.3630  168.6350  137.7130 O   0  0  0  0  0  0  0  0  0  0  0  0
  194.3940  169.1480  136.3800 C   0  0  0  0  0  2  0  0  0  0  0  0
  191.8800  170.1550  137.1530 C   0  0  0  0  0  2  0  0  0  0  0  0
  193.2220  168.5670  138.5290 C   0  0  0  0  0  3  0  0  0  0  0  0
  192.0760  169.2190  138.3050 C   0  0  0  0  0  0  0  0  0  0  0  0
  1  9  1  6  0  0  0
  1  2  1  0  0  0  0
  3  2  1  6  0  0  0
  4  7  1  0  0  0  0
  5  4  2  0  0  0  0
  5  6  1  0  0  0  0
  6  8  1  6  0  0  0
  6  3  1  0  0  0  0
  7  3  1  0  0  0  0
  7 17  1  1  0  0  0
  8  1  1  0  0  0  0
  9 15  1  6  0  0  0
 10 11  1  6  0  0  0
 10  9  1  0  0  0  0
 12 10  1  0  0  0  0
 12 14  2  0  0  0  0
 13 12  1  0  0  0  0
 15 16  1  0  0  0  0
 17 21  1  0  0  0  0
 18 21  2  0  0  0  0
 18 19  1  0  0  0  0
 19 23  2  0  0  0  0
 20 22  2  0  0  0  0
 21 20  1  0  0  0  0
 23 22  1  0  0  0  0
 24 25  2  0  0  0  0
 24 18  1  0  0  0  0
 26 25  1  0  0  0  0
 27 26  1  0  0  0  0
 28 27  1  0  0  0  0
 29 30  1  6  0  0  0
 29 28  1  0  0  0  0
 31 29  1  0  0  0  0
 32 34  1  0  0  0  0
 32 36  1  0  0  0  0
 33 37  1  0  0  0  0
 35 32  2  0  0  0  0
 36 33  1  0  0  0  0
 36 37  1  0  0  0  0
 37 31  1  1  0  0  0
 38 42  1  1  0  0  0
 38 44  1  0  0  0  0
 39 40  1  6  0  0  0
 39 43  1  0  0  0  0
 39 34  1  0  0  0  0
 41 38  1  0  0  0  0
 41 45  1  0  0  0  0
 44 43  1  0  0  0  0
 45 39  1  0  0  0  0
 46  4  1  0  0  0  0
 49 54  1  1  0  0  0
 49 51  1  0  0  0  0
 50 48  1  1  0  0  0
 50 47  1  0  0  0  0
 51 46  1  1  0  0  0
 51 47  1  0  0  0  0
 52 49  1  0  0  0  0
 52 50  1  0  0  0  0
 54 53  1  0  0  0  0
 55 52  1  0  0  0  0
 56 55  1  0  0  0  0
 57 61  1  0  0  0  0
 58 60  1  0  0  0  0
 58 57  1  0  0  0  0
 59 62  1  0  0  0  0
 60 59  1  0  0  0  0
 61 63  1  0  0  0  0
 63 62  2  0  0  0  0
 63 56  1  0  0  0  0
M  END
>  <MODEL>
9

>  <REMARK>
 VINA RESULT:      -5.6      2.446      5.435
  Name = 
  20 active torsions:
  status: ('A' for Active; 'I' for Inactive)
    1  A    between atoms: C_1  and  C_15
    2  A    between atoms: C_1  and  C_41
    3  A    between atoms: C_6  and  C_14
    4  A    between atoms: C_8  and  C_28
    5  A    between atoms: N_12  and  N_16
    6  A    between atoms: N_12  and  C_61
    7  A    between atoms: C_15  and  C_61
    8  A    between atoms: N_16  and  N_20
    9  A    between atoms: C_17  and  N_27
   10  A    between atoms: C_18  and  C_28
   11  A    between atoms: C_23  and  O_50
   12  A    between atoms: C_28  and  C_42
   13  A    between atoms: C_31  and  C_32
   14  A    between atoms: C_31  and  C_59
   15  A    between atoms: C_33  and  C_42
   16  A    between atoms: C_34  and  C_43
   17  A    between atoms: C_34  and  C_52
   18  A    between atoms: N_40  and  N_49
   19  A    between atoms: N_40  and  C_51
   20  A    between atoms: C_51  and  C_54
                            x       y       z     vdW  Elec       q    Type
                         _______ _______ _______ _____ _____    ______ ____

>  <TORSDO>
F 20

$$$$
