=
 OpenBabel11042414533D

 32 37  0  0  1  0  0  0  0  0999 V2000
  190.8710  177.7370  142.7860 O   0  0  0  0  0  0  0  0  0  0  0  0
  188.2320  177.1950  141.9600 N   0  0  0  0  0  2  0  0  0  0  0  0
  184.1030  177.7990  140.4420 N   0  0  0  0  0  0  0  0  0  0  0  0
  188.2550  176.7330  143.2920 N   0  0  1  0  0  0  0  0  0  0  0  0
  183.3410  178.0540  141.4780 C   0  0  0  0  0  0  0  0  0  0  0  0
  189.4480  176.0070  143.4960 N   0  0  0  0  0  0  0  0  0  0  0  0
  187.4630  178.9680  143.4210 C   0  0  2  0  0  3  0  0  0  0  0  0
  189.3160  174.6540  144.0300 C   0  0  0  0  0  2  0  0  0  0  0  0
  185.5430  177.9160  140.4830 C   0  0  0  0  0  3  0  0  0  0  0  0
  186.1230  178.3040  141.6160 C   0  0  0  0  0  0  0  0  0  0  0  0
  186.0340  178.9520  143.7810 N   0  0  0  0  0  0  0  0  0  0  0  0
  187.7090  177.5660  145.5450 C   0  0  0  0  0  2  0  0  0  0  0  0
  190.6760  176.7700  147.7260 C   0  0  0  0  0  1  0  0  0  0  0  0
  190.7550  176.5570  143.2150 C   0  0  0  0  0  0  0  0  0  0  0  0
  185.3400  178.5940  142.7620 C   0  0  0  0  0  0  0  0  0  0  0  0
  188.7230  176.7900  146.3220 C   0  0  0  0  0  0  0  0  0  0  0  0
  183.9220  178.4710  142.7280 N   0  0  0  0  0  2  0  0  0  0  0  0
  181.9300  177.9160  141.3660 N   0  0  0  0  0  1  0  0  0  0  0  0
  188.5990  175.2910  146.3660 C   0  0  0  0  0  2  0  0  0  0  0  0
  187.5510  178.4890  141.9580 C   0  0  2  0  0  3  0  0  0  0  0  0
  189.6700  174.6170  145.5140 C   0  0  0  0  0  2  0  0  0  0  0  0
  189.6640  177.4260  146.9350 N   0  0  0  0  0  0  0  0  0  0  0  0
  188.2520  177.9070  144.1580 C   0  0  1  0  0  3  0  0  0  0  0  0
  196.3690  174.4340  145.0230 C   0  0  0  0  0  2  0  0  0  0  0  0
  195.9950  174.4140  143.6560 O   0  0  0  0  0  0  0  0  0  0  0  0
  194.1320  175.0090  142.3520 N   0  0  0  0  0  0  0  0  0  0  0  0
  192.7930  175.5800  142.1510 C   0  0  0  0  0  2  0  0  0  0  0  0
  191.9910  175.7430  143.4490 C   0  0  1  0  0  3  0  0  0  0  0  0
  195.1910  175.0860  145.7630 C   0  0  0  0  0  2  0  0  0  0  0  0
  193.0030  176.4860  144.7710 S   0  0  0  0  0  0  0  0  0  0  0  0
  194.6800  174.7890  143.5090 C   0  0  0  0  0  0  0  0  0  0  0  0
  194.0090  174.9810  144.8080 C   0  0  1  0  0  3  0  0  0  0  0  0
  1 14  2  0  0  0  0
  3  9  1  0  0  0  0
  3  5  2  0  0  0  0
  4  2  1  6  0  0  0
  4  6  1  0  0  0  0
  4 23  1  0  0  0  0
  5 17  1  0  0  0  0
  6  8  1  0  0  0  0
  7 11  1  1  0  0  0
  7 23  1  0  0  0  0
  8 21  1  0  0  0  0
  9 10  2  0  0  0  0
 10 15  1  0  0  0  0
 12 16  1  0  0  0  0
 14  6  1  0  0  0  0
 15 11  2  0  0  0  0
 16 19  1  0  0  0  0
 16 22  2  0  0  0  0
 17 15  1  0  0  0  0
 18  5  1  0  0  0  0
 20 10  1  1  0  0  0
 20  2  1  0  0  0  0
 20  7  1  0  0  0  0
 21 19  1  0  0  0  0
 22 13  1  0  0  0  0
 23 12  1  1  0  0  0
 24 29  1  0  0  0  0
 25 24  1  0  0  0  0
 26 31  2  0  0  0  0
 27 26  1  0  0  0  0
 27 28  1  0  0  0  0
 28 14  1  6  0  0  0
 28 30  1  0  0  0  0
 30 32  1  0  0  0  0
 31 25  1  0  0  0  0
 31 32  1  0  0  0  0
 32 29  1  1  0  0  0
M  END
>  <MODEL>
1

>  <REMARK>
 VINA RESULT:      -8.4      0.000      0.000
  Name = 
  1 active torsions:
  status: ('A' for Active; 'I' for Inactive)
    1  A    between atoms: C_16  and  C_20
                            x       y       z     vdW  Elec       q    Type
                         _______ _______ _______ _____ _____    ______ ____

>  <TORSDO>
F 1

$$$$
=
 OpenBabel11042414533D

 32 37  0  0  1  0  0  0  0  0999 V2000
  189.1600  174.5410  142.4120 O   0  0  0  0  0  0  0  0  0  0  0  0
  191.9490  174.8490  142.6730 N   0  0  0  0  0  2  0  0  0  0  0  0
  196.2610  173.8640  143.0630 N   0  0  0  0  0  0  0  0  0  0  0  0
  191.4430  175.5130  143.8090 N   0  0  1  0  0  0  0  0  0  0  0  0
  196.5190  173.7450  144.3430 C   0  0  0  0  0  0  0  0  0  0  0  0
  190.3440  176.3060  143.4150 N   0  0  0  0  0  0  0  0  0  0  0  0
  191.8970  173.2980  144.5330 C   0  0  2  0  0  3  0  0  0  0  0  0
  190.3820  177.7190  143.7810 C   0  0  0  0  0  2  0  0  0  0  0  0
  194.9210  173.8090  142.5270 C   0  0  0  0  0  3  0  0  0  0  0  0
  193.9030  173.6220  143.3650 C   0  0  0  0  0  0  0  0  0  0  0  0
  193.0590  173.3160  145.4400 N   0  0  0  0  0  0  0  0  0  0  0  0
  190.9630  175.0200  146.1750 C   0  0  0  0  0  2  0  0  0  0  0  0
  187.4650  176.2540  146.8350 C   0  0  0  0  0  1  0  0  0  0  0  0
  189.2100  175.7680  142.6970 C   0  0  0  0  0  0  0  0  0  0  0  0
  194.1320  173.4850  144.7560 C   0  0  0  0  0  0  0  0  0  0  0  0
  189.8030  175.9440  146.3650 C   0  0  0  0  0  0  0  0  0  0  0  0
  195.4520  173.5480  145.2890 N   0  0  0  0  0  2  0  0  0  0  0  0
  197.8640  173.8120  144.8010 N   0  0  0  0  0  1  0  0  0  0  0  0
  190.0450  177.4270  146.2660 C   0  0  0  0  0  2  0  0  0  0  0  0
  192.4460  173.5460  143.1140 C   0  0  2  0  0  3  0  0  0  0  0  0
  189.4720  177.9990  144.9730 C   0  0  0  0  0  2  0  0  0  0  0  0
  188.6400  175.4460  146.6160 N   0  0  0  0  0  0  0  0  0  0  0  0
  190.9870  174.4890  144.7430 C   0  0  1  0  0  3  0  0  0  0  0  0
  183.5910  178.4260  141.8900 C   0  0  0  0  0  2  0  0  0  0  0  0
  184.4140  178.1250  140.7760 O   0  0  0  0  0  0  0  0  0  0  0  0
  186.5350  177.1900  140.3810 N   0  0  0  0  0  0  0  0  0  0  0  0
  187.7880  176.5460  140.7970 C   0  0  0  0  0  2  0  0  0  0  0  0
  188.0690  176.6530  142.3010 C   0  0  1  0  0  3  0  0  0  0  0  0
  184.3600  177.9200  143.1200 C   0  0  0  0  0  2  0  0  0  0  0  0
  186.5850  176.2620  143.2870 S   0  0  0  0  0  0  0  0  0  0  0  0
  185.6490  177.6840  141.1930 C   0  0  0  0  0  0  0  0  0  0  0  0
  185.8030  177.7680  142.6570 C   0  0  1  0  0  3  0  0  0  0  0  0
  1 14  2  0  0  0  0
  3  5  2  0  0  0  0
  4  2  1  6  0  0  0
  4 23  1  0  0  0  0
  5 18  1  0  0  0  0
  5 17  1  0  0  0  0
  6  8  1  0  0  0  0
  6  4  1  0  0  0  0
  7 23  1  0  0  0  0
  7 11  1  1  0  0  0
  8 21  1  0  0  0  0
  9  3  1  0  0  0  0
  9 10  2  0  0  0  0
 10 15  1  0  0  0  0
 12 16  1  0  0  0  0
 14  6  1  0  0  0  0
 15 17  1  0  0  0  0
 15 11  2  0  0  0  0
 16 22  2  0  0  0  0
 19 16  1  0  0  0  0
 20  2  1  1  0  0  0
 20 10  1  0  0  0  0
 20  7  1  0  0  0  0
 21 19  1  0  0  0  0
 22 13  1  0  0  0  0
 23 12  1  1  0  0  0
 24 29  1  0  0  0  0
 25 31  1  0  0  0  0
 25 24  1  0  0  0  0
 26 27  1  0  0  0  0
 26 31  2  0  0  0  0
 27 28  1  0  0  0  0
 28 14  1  1  0  0  0
 28 30  1  0  0  0  0
 31 32  1  0  0  0  0
 32 29  1  1  0  0  0
 32 30  1  0  0  0  0
M  END
>  <MODEL>
2

>  <REMARK>
 VINA RESULT:      -7.9      2.702      8.379
  Name = 
  1 active torsions:
  status: ('A' for Active; 'I' for Inactive)
    1  A    between atoms: C_16  and  C_20
                            x       y       z     vdW  Elec       q    Type
                         _______ _______ _______ _____ _____    ______ ____

>  <TORSDO>
F 1

$$$$
=
 OpenBabel11042414533D

 32 37  0  0  1  0  0  0  0  0999 V2000
  190.7020  177.6510  144.7570 O   0  0  0  0  0  0  0  0  0  0  0  0
  192.7270  175.7800  145.3410 N   0  0  0  0  0  2  0  0  0  0  0  0
  196.7350  173.8940  145.6480 N   0  0  0  0  0  0  0  0  0  0  0  0
  191.8550  175.0610  144.4980 N   0  0  1  0  0  0  0  0  0  0  0  0
  196.9330  173.2200  144.5410 C   0  0  0  0  0  0  0  0  0  0  0  0
  190.5270  175.3120  144.9040 N   0  0  0  0  0  0  0  0  0  0  0  0
  193.5010  175.9780  143.0540 C   0  0  2  0  0  3  0  0  0  0  0  0
  189.6870  174.1500  145.1820 C   0  0  0  0  0  2  0  0  0  0  0  0
  195.7310  174.9260  145.7650 C   0  0  0  0  0  3  0  0  0  0  0  0
  194.9790  175.2120  144.7040 C   0  0  0  0  0  0  0  0  0  0  0  0
  194.3620  174.8910  142.5530 N   0  0  0  0  0  0  0  0  0  0  0  0
  191.6220  174.5270  142.1040 C   0  0  0  0  0  2  0  0  0  0  0  0
  188.0500  175.2920  141.1820 C   0  0  0  0  0  1  0  0  0  0  0  0
  189.9880  176.6480  145.0300 C   0  0  0  0  0  0  0  0  0  0  0  0
  195.1580  174.5130  143.4850 C   0  0  0  0  0  0  0  0  0  0  0  0
  190.1310  174.4430  142.0380 C   0  0  0  0  0  0  0  0  0  0  0  0
  196.1410  173.4880  143.3690 N   0  0  0  0  0  2  0  0  0  0  0  0
  197.9390  172.2150  144.4990 N   0  0  0  0  0  1  0  0  0  0  0  0
  189.4410  173.3440  142.8020 C   0  0  0  0  0  2  0  0  0  0  0  0
  193.8770  176.1870  144.5340 C   0  0  2  0  0  3  0  0  0  0  0  0
  188.7210  173.8880  144.0320 C   0  0  0  0  0  2  0  0  0  0  0  0
  189.4860  175.3030  141.3260 N   0  0  0  0  0  0  0  0  0  0  0  0
  192.0480  175.5640  143.1430 C   0  0  1  0  0  3  0  0  0  0  0  0
  184.0940  178.6630  145.7280 C   0  0  0  0  0  2  0  0  0  0  0  0
  184.9630  178.5720  146.8440 O   0  0  0  0  0  0  0  0  0  0  0  0
  187.1780  177.9140  147.2760 N   0  0  0  0  0  0  0  0  0  0  0  0
  188.5150  177.4500  146.8810 C   0  0  0  0  0  2  0  0  0  0  0  0
  188.5710  176.8610  145.4650 C   0  0  1  0  0  3  0  0  0  0  0  0
  184.9370  178.2460  144.5130 C   0  0  0  0  0  2  0  0  0  0  0  0
  187.6870  177.9140  144.2680 S   0  0  0  0  0  0  0  0  0  0  0  0
  186.1490  177.9750  146.4850 C   0  0  0  0  0  0  0  0  0  0  0  0
  186.1300  177.4950  145.0910 C   0  0  1  0  0  3  0  0  0  0  0  0
  1 14  2  0  0  0  0
  3  9  1  0  0  0  0
  4  6  1  0  0  0  0
  4  2  1  1  0  0  0
  5  3  2  0  0  0  0
  6 14  1  0  0  0  0
  6  8  1  0  0  0  0
  7 11  1  1  0  0  0
  7 23  1  0  0  0  0
  7 20  1  0  0  0  0
 10  9  2  0  0  0  0
 11 15  2  0  0  0  0
 13 22  1  0  0  0  0
 15 10  1  0  0  0  0
 16 12  1  0  0  0  0
 16 19  1  0  0  0  0
 17 15  1  0  0  0  0
 17  5  1  0  0  0  0
 18  5  1  0  0  0  0
 19 21  1  0  0  0  0
 20 10  1  1  0  0  0
 20  2  1  0  0  0  0
 21  8  1  0  0  0  0
 22 16  2  0  0  0  0
 23 12  1  6  0  0  0
 23  4  1  0  0  0  0
 24 25  1  0  0  0  0
 27 26  1  0  0  0  0
 28 14  1  6  0  0  0
 28 27  1  0  0  0  0
 29 24  1  0  0  0  0
 30 32  1  0  0  0  0
 30 28  1  0  0  0  0
 31 25  1  0  0  0  0
 31 26  2  0  0  0  0
 32 29  1  6  0  0  0
 32 31  1  0  0  0  0
M  END
>  <MODEL>
3

>  <REMARK>
 VINA RESULT:      -7.6      3.167      8.755
  Name = 
  1 active torsions:
  status: ('A' for Active; 'I' for Inactive)
    1  A    between atoms: C_16  and  C_20
                            x       y       z     vdW  Elec       q    Type
                         _______ _______ _______ _____ _____    ______ ____

>  <TORSDO>
F 1

$$$$
=
 OpenBabel11042414533D

 32 37  0  0  1  0  0  0  0  0999 V2000
  191.5400  173.5030  142.7190 O   0  0  0  0  0  0  0  0  0  0  0  0
  189.1040  174.7300  143.4290 N   0  0  0  0  0  2  0  0  0  0  0  0
  185.3100  177.0170  143.1160 N   0  0  0  0  0  0  0  0  0  0  0  0
  190.0390  175.3500  144.2830 N   0  0  1  0  0  0  0  0  0  0  0  0
  185.5950  178.2760  143.3490 C   0  0  0  0  0  0  0  0  0  0  0  0
  190.8930  174.3580  144.8110 N   0  0  0  0  0  0  0  0  0  0  0  0
  189.8870  176.7730  142.3890 C   0  0  2  0  0  3  0  0  0  0  0  0
  191.0270  174.3040  146.2640 C   0  0  0  0  0  2  0  0  0  0  0  0
  186.3160  176.0410  142.7630 C   0  0  0  0  0  3  0  0  0  0  0  0
  187.5840  176.4340  142.6640 C   0  0  0  0  0  0  0  0  0  0  0  0
  189.1950  178.0170  142.7750 N   0  0  0  0  0  0  0  0  0  0  0  0
  191.4330  177.3800  144.3330 C   0  0  0  0  0  2  0  0  0  0  0  0
  194.9130  176.2630  145.2450 C   0  0  0  0  0  1  0  0  0  0  0  0
  191.6280  173.4350  143.9760 C   0  0  0  0  0  0  0  0  0  0  0  0
  187.9390  177.7850  142.9040 C   0  0  0  0  0  0  0  0  0  0  0  0
  192.5820  176.8420  145.1230 C   0  0  0  0  0  0  0  0  0  0  0  0
  186.9520  178.7480  143.2600 N   0  0  0  0  0  2  0  0  0  0  0  0
  184.5540  179.1810  143.6940 N   0  0  0  0  0  1  0  0  0  0  0  0
  192.3430  176.4400  146.5530 C   0  0  0  0  0  2  0  0  0  0  0  0
  188.8110  175.6700  142.3470 C   0  0  2  0  0  3  0  0  0  0  0  0
  192.3470  174.9220  146.7130 C   0  0  0  0  0  2  0  0  0  0  0  0
  193.7400  176.7490  144.5610 N   0  0  0  0  0  0  0  0  0  0  0  0
  190.8200  176.2760  143.4720 C   0  0  1  0  0  3  0  0  0  0  0  0
  196.4790  169.8460  145.6710 C   0  0  0  0  0  2  0  0  0  0  0  0
  195.2890  169.2620  145.1690 O   0  0  0  0  0  0  0  0  0  0  0  0
  193.1860  169.9810  144.4030 N   0  0  0  0  0  0  0  0  0  0  0  0
  192.1960  171.0040  144.0400 C   0  0  0  0  0  2  0  0  0  0  0  0
  192.5220  172.4000  144.5860 C   0  0  1  0  0  3  0  0  0  0  0  0
  196.2520  171.3640  145.6100 C   0  0  0  0  0  2  0  0  0  0  0  0
  194.2730  172.8300  144.3180 S   0  0  0  0  0  0  0  0  0  0  0  0
  194.3160  170.2180  144.9990 C   0  0  0  0  0  0  0  0  0  0  0  0
  194.7420  171.5390  145.4980 C   0  0  1  0  0  3  0  0  0  0  0  0
  1 14  2  0  0  0  0
  3  5  2  0  0  0  0
  4  2  1  6  0  0  0
  4  6  1  0  0  0  0
  5 18  1  0  0  0  0
  6  8  1  0  0  0  0
  7 11  1  1  0  0  0
  7 23  1  0  0  0  0
  8 21  1  0  0  0  0
  9  3  1  0  0  0  0
 10  9  2  0  0  0  0
 10 15  1  0  0  0  0
 11 15  2  0  0  0  0
 12 16  1  0  0  0  0
 14  6  1  0  0  0  0
 15 17  1  0  0  0  0
 16 19  1  0  0  0  0
 17  5  1  0  0  0  0
 19 21  1  0  0  0  0
 20  7  1  0  0  0  0
 20 10  1  1  0  0  0
 20  2  1  0  0  0  0
 22 16  2  0  0  0  0
 22 13  1  0  0  0  0
 23  4  1  0  0  0  0
 23 12  1  1  0  0  0
 25 24  1  0  0  0  0
 26 31  2  0  0  0  0
 27 26  1  0  0  0  0
 27 28  1  0  0  0  0
 28 14  1  6  0  0  0
 29 24  1  0  0  0  0
 30 28  1  0  0  0  0
 30 32  1  0  0  0  0
 31 25  1  0  0  0  0
 31 32  1  0  0  0  0
 32 29  1  6  0  0  0
M  END
>  <MODEL>
4

>  <REMARK>
 VINA RESULT:      -7.5      2.850      3.770
  Name = 
  1 active torsions:
  status: ('A' for Active; 'I' for Inactive)
    1  A    between atoms: C_16  and  C_20
                            x       y       z     vdW  Elec       q    Type
                         _______ _______ _______ _____ _____    ______ ____

>  <TORSDO>
F 1

$$$$
=
 OpenBabel11042414533D

 32 37  0  0  1  0  0  0  0  0999 V2000
  189.0520  175.4480  142.4110 O   0  0  0  0  0  0  0  0  0  0  0  0
  191.8340  175.6500  142.0120 N   0  0  0  0  0  2  0  0  0  0  0  0
  195.9710  174.6700  140.7310 N   0  0  0  0  0  0  0  0  0  0  0  0
  191.7040  175.7100  143.4150 N   0  0  1  0  0  0  0  0  0  0  0  0
  196.5260  173.9820  141.6990 C   0  0  0  0  0  0  0  0  0  0  0  0
  190.6350  176.5770  143.7310 N   0  0  0  0  0  0  0  0  0  0  0  0
  192.0770  173.4180  142.9210 C   0  0  2  0  0  3  0  0  0  0  0  0
  190.9200  177.6660  144.6620 C   0  0  0  0  0  2  0  0  0  0  0  0
  194.5420  174.8440  140.6140 C   0  0  0  0  0  3  0  0  0  0  0  0
  193.7510  174.2770  141.5230 C   0  0  0  0  0  0  0  0  0  0  0  0
  193.4240  173.0380  143.3860 N   0  0  0  0  0  0  0  0  0  0  0  0
  191.7790  174.1800  145.3430 C   0  0  0  0  0  2  0  0  0  0  0  0
  188.7150  174.9140  147.4090 C   0  0  0  0  0  1  0  0  0  0  0  0
  189.3060  176.4090  143.1880 C   0  0  0  0  0  0  0  0  0  0  0  0
  194.3040  173.5210  142.5860 C   0  0  0  0  0  0  0  0  0  0  0  0
  190.8120  174.8930  146.2330 C   0  0  0  0  0  0  0  0  0  0  0  0
  195.7130  173.3550  142.7090 N   0  0  0  0  0  2  0  0  0  0  0  0
  197.9410  173.8550  141.7530 N   0  0  0  0  0  1  0  0  0  0  0  0
  191.1830  176.2600  146.7430 C   0  0  0  0  0  2  0  0  0  0  0  0
  192.2780  174.2990  141.6720 C   0  0  2  0  0  3  0  0  0  0  0  0
  190.3720  177.3520  146.0510 C   0  0  0  0  0  2  0  0  0  0  0  0
  189.7010  174.3160  146.5420 N   0  0  0  0  0  0  0  0  0  0  0  0
  191.3850  174.3650  143.8780 C   0  0  1  0  0  3  0  0  0  0  0  0
  183.9800  179.0410  145.1870 C   0  0  0  0  0  2  0  0  0  0  0  0
  184.4780  179.3140  143.8880 O   0  0  0  0  0  0  0  0  0  0  0  0
  186.3290  178.7110  142.5700 N   0  0  0  0  0  0  0  0  0  0  0  0
  187.5680  177.9670  142.3010 C   0  0  0  0  0  2  0  0  0  0  0  0
  188.2070  177.3570  143.5550 C   0  0  1  0  0  3  0  0  0  0  0  0
  184.9590  178.0270  145.7990 C   0  0  0  0  0  2  0  0  0  0  0  0
  186.9660  176.5230  144.5990 S   0  0  0  0  0  0  0  0  0  0  0  0
  185.7200  178.7490  143.7180 C   0  0  0  0  0  0  0  0  0  0  0  0
  186.2260  178.1350  144.9600 C   0  0  1  0  0  3  0  0  0  0  0  0
  1 14  2  0  0  0  0
  3  5  2  0  0  0  0
  4  2  1  6  0  0  0
  4  6  1  0  0  0  0
  4 23  1  0  0  0  0
  5 18  1  0  0  0  0
  5 17  1  0  0  0  0
  6  8  1  0  0  0  0
  7 11  1  1  0  0  0
  7 23  1  0  0  0  0
  8 21  1  0  0  0  0
  9  3  1  0  0  0  0
  9 10  2  0  0  0  0
 10 15  1  0  0  0  0
 12 16  1  0  0  0  0
 14  6  1  0  0  0  0
 15 17  1  0  0  0  0
 15 11  2  0  0  0  0
 16 22  2  0  0  0  0
 16 19  1  0  0  0  0
 20 10  1  1  0  0  0
 20  2  1  0  0  0  0
 20  7  1  0  0  0  0
 21 19  1  0  0  0  0
 22 13  1  0  0  0  0
 23 12  1  1  0  0  0
 24 29  1  0  0  0  0
 25 24  1  0  0  0  0
 26 31  2  0  0  0  0
 27 26  1  0  0  0  0
 27 28  1  0  0  0  0
 28 14  1  6  0  0  0
 28 30  1  0  0  0  0
 30 32  1  0  0  0  0
 31 25  1  0  0  0  0
 31 32  1  0  0  0  0
 32 29  1  1  0  0  0
M  END
>  <MODEL>
5

>  <REMARK>
 VINA RESULT:      -7.4      2.757      8.196
  Name = 
  1 active torsions:
  status: ('A' for Active; 'I' for Inactive)
    1  A    between atoms: C_16  and  C_20
                            x       y       z     vdW  Elec       q    Type
                         _______ _______ _______ _____ _____    ______ ____

>  <TORSDO>
F 1

$$$$
=
 OpenBabel11042414533D

 32 37  0  0  1  0  0  0  0  0999 V2000
  186.9240  174.8590  142.6730 O   0  0  0  0  0  0  0  0  0  0  0  0
  188.1870  174.9780  140.1570 N   0  0  0  0  0  2  0  0  0  0  0  0
  189.8900  173.7210  136.2540 N   0  0  0  0  0  0  0  0  0  0  0  0
  189.1670  175.4840  141.0360 N   0  0  1  0  0  0  0  0  0  0  0  0
  191.1430  173.3940  136.4630 C   0  0  0  0  0  0  0  0  0  0  0  0
  188.5490  176.3850  141.9290 N   0  0  0  0  0  0  0  0  0  0  0  0
  189.6350  173.1640  140.8530 C   0  0  2  0  0  3  0  0  0  0  0  0
  189.1290  177.7210  142.0300 C   0  0  0  0  0  2  0  0  0  0  0  0
  188.9200  173.8180  137.3190 C   0  0  0  0  0  3  0  0  0  0  0  0
  189.3080  173.5590  138.5660 C   0  0  0  0  0  0  0  0  0  0  0  0
  190.8800  172.9820  140.0850 N   0  0  0  0  0  0  0  0  0  0  0  0
  191.1040  174.6600  142.3150 C   0  0  0  0  0  2  0  0  0  0  0  0
  190.6950  175.9580  145.8280 C   0  0  0  0  0  1  0  0  0  0  0  0
  187.4040  176.0230  142.7350 C   0  0  0  0  0  0  0  0  0  0  0  0
  190.6500  173.1980  138.8410 C   0  0  0  0  0  0  0  0  0  0  0  0
  191.0250  175.6030  143.4720 C   0  0  0  0  0  0  0  0  0  0  0  0
  191.6120  173.1100  137.7940 N   0  0  0  0  0  2  0  0  0  0  0  0
  192.0450  173.3190  135.3660 N   0  0  0  0  0  1  0  0  0  0  0  0
  191.2580  177.0680  143.2200 C   0  0  0  0  0  2  0  0  0  0  0  0
  188.5560  173.5980  139.8410 C   0  0  2  0  0  3  0  0  0  0  0  0
  189.9570  177.8610  143.3030 C   0  0  0  0  0  2  0  0  0  0  0  0
  190.7710  175.1330  144.6470 N   0  0  0  0  0  0  0  0  0  0  0  0
  189.7040  174.3540  141.7850 C   0  0  1  0  0  3  0  0  0  0  0  0
  184.9830  179.0010  147.6900 C   0  0  0  0  0  2  0  0  0  0  0  0
  184.2670  178.9320  146.4680 O   0  0  0  0  0  0  0  0  0  0  0  0
  184.5770  178.0350  144.3180 N   0  0  0  0  0  0  0  0  0  0  0  0
  185.3140  177.2670  143.3050 C   0  0  0  0  0  2  0  0  0  0  0  0
  186.7840  177.0170  143.6680 C   0  0  1  0  0  3  0  0  0  0  0  0
  186.2730  178.1990  147.4590 C   0  0  0  0  0  2  0  0  0  0  0  0
  186.9610  176.4660  145.3970 S   0  0  0  0  0  0  0  0  0  0  0  0
  185.0430  178.3630  145.4860 C   0  0  0  0  0  0  0  0  0  0  0  0
  186.4200  178.1040  145.9460 C   0  0  1  0  0  3  0  0  0  0  0  0
  1 14  2  0  0  0  0
  3  5  2  0  0  0  0
  3  9  1  0  0  0  0
  4  2  1  6  0  0  0
  4 23  1  0  0  0  0
  4  6  1  0  0  0  0
  5 17  1  0  0  0  0
  6  8  1  0  0  0  0
  6 14  1  0  0  0  0
  7 11  1  6  0  0  0
  7 23  1  0  0  0  0
  8 21  1  0  0  0  0
  9 10  2  0  0  0  0
 10 15  1  0  0  0  0
 12 16  1  0  0  0  0
 15 11  2  0  0  0  0
 16 22  2  0  0  0  0
 17 15  1  0  0  0  0
 18  5  1  0  0  0  0
 19 21  1  0  0  0  0
 19 16  1  0  0  0  0
 20 10  1  6  0  0  0
 20  2  1  0  0  0  0
 20  7  1  0  0  0  0
 22 13  1  0  0  0  0
 23 12  1  6  0  0  0
 25 24  1  0  0  0  0
 26 31  2  0  0  0  0
 27 28  1  0  0  0  0
 27 26  1  0  0  0  0
 28 14  1  6  0  0  0
 28 30  1  0  0  0  0
 29 24  1  0  0  0  0
 30 32  1  0  0  0  0
 31 32  1  0  0  0  0
 31 25  1  0  0  0  0
 32 29  1  1  0  0  0
M  END
>  <MODEL>
6

>  <REMARK>
 VINA RESULT:      -7.4      4.007      7.409
  Name = 
  1 active torsions:
  status: ('A' for Active; 'I' for Inactive)
    1  A    between atoms: C_16  and  C_20
                            x       y       z     vdW  Elec       q    Type
                         _______ _______ _______ _____ _____    ______ ____

>  <TORSDO>
F 1

$$$$
=
 OpenBabel11042414533D

 32 37  0  0  1  0  0  0  0  0999 V2000
  189.6090  174.5260  140.1420 O   0  0  0  0  0  0  0  0  0  0  0  0
  187.4340  175.3940  141.7100 N   0  0  0  0  0  2  0  0  0  0  0  0
  184.4620  178.0590  143.6540 N   0  0  0  0  0  0  0  0  0  0  0  0
  188.2660  174.7420  142.6430 N   0  0  1  0  0  0  0  0  0  0  0  0
  184.9730  178.4420  144.7990 C   0  0  0  0  0  0  0  0  0  0  0  0
  188.7180  173.5320  142.0760 N   0  0  0  0  0  0  0  0  0  0  0  0
  188.8930  177.0300  142.7400 C   0  0  2  0  0  3  0  0  0  0  0  0
  188.4980  172.3130  142.8510 C   0  0  0  0  0  2  0  0  0  0  0  0
  185.2630  177.5030  142.5880 C   0  0  0  0  0  3  0  0  0  0  0  0
  186.5750  177.3780  142.7700 C   0  0  0  0  0  0  0  0  0  0  0  0
  188.4440  177.5990  144.0240 N   0  0  0  0  0  0  0  0  0  0  0  0
  190.0490  175.3160  144.2440 C   0  0  0  0  0  2  0  0  0  0  0  0
  192.8630  172.8890  143.6210 C   0  0  0  0  0  1  0  0  0  0  0  0
  189.3870  173.4710  140.7960 C   0  0  0  0  0  0  0  0  0  0  0  0
  187.1740  177.7810  143.9900 C   0  0  0  0  0  0  0  0  0  0  0  0
  190.8270  174.0400  144.1780 C   0  0  0  0  0  0  0  0  0  0  0  0
  186.3860  178.3220  145.0470 N   0  0  0  0  0  2  0  0  0  0  0  0
  184.1240  178.9790  145.8060 N   0  0  0  0  0  1  0  0  0  0  0  0
  190.1770  172.7780  144.6790 C   0  0  0  0  0  2  0  0  0  0  0  0
  187.6270  176.8330  141.8820 C   0  0  2  0  0  3  0  0  0  0  0  0
  189.7870  171.8570  143.5270 C   0  0  0  0  0  2  0  0  0  0  0  0
  192.0270  174.0620  143.7060 N   0  0  0  0  0  0  0  0  0  0  0  0
  189.4090  175.6150  142.8890 C   0  0  1  0  0  3  0  0  0  0  0  0
  192.6880  168.7630  138.2990 C   0  0  0  0  0  2  0  0  0  0  0  0
  191.4420  169.1480  137.7410 O   0  0  0  0  0  0  0  0  0  0  0  0
  189.7610  170.7340  138.1660 N   0  0  0  0  0  0  0  0  0  0  0  0
  189.1770  171.8740  138.8870 C   0  0  0  0  0  2  0  0  0  0  0  0
  189.8470  172.1600  140.2370 C   0  0  1  0  0  3  0  0  0  0  0  0
  192.9410  169.7410  139.4570 C   0  0  0  0  0  2  0  0  0  0  0  0
  191.6650  172.1260  140.1010 S   0  0  0  0  0  0  0  0  0  0  0  0
  190.8330  170.0960  138.5290 C   0  0  0  0  0  0  0  0  0  0  0  0
  191.5800  170.3470  139.7750 C   0  0  1  0  0  3  0  0  0  0  0  0
  1 14  2  0  0  0  0
  3  5  2  0  0  0  0
  4  2  1  6  0  0  0
  4 23  1  0  0  0  0
  5 17  1  0  0  0  0
  5 18  1  0  0  0  0
  6  4  1  0  0  0  0
  6  8  1  0  0  0  0
  7 23  1  0  0  0  0
  7 11  1  1  0  0  0
  8 21  1  0  0  0  0
  9 10  2  0  0  0  0
  9  3  1  0  0  0  0
 10 15  1  0  0  0  0
 13 22  1  0  0  0  0
 14  6  1  0  0  0  0
 15 11  2  0  0  0  0
 15 17  1  0  0  0  0
 16 12  1  0  0  0  0
 16 19  1  0  0  0  0
 20  2  1  1  0  0  0
 20  7  1  0  0  0  0
 20 10  1  0  0  0  0
 21 19  1  0  0  0  0
 22 16  2  0  0  0  0
 23 12  1  1  0  0  0
 24 29  1  0  0  0  0
 25 24  1  0  0  0  0
 25 31  1  0  0  0  0
 26 31  2  0  0  0  0
 26 27  1  0  0  0  0
 27 28  1  0  0  0  0
 28 14  1  6  0  0  0
 30 28  1  0  0  0  0
 31 32  1  0  0  0  0
 32 29  1  6  0  0  0
 32 30  1  0  0  0  0
M  END
>  <MODEL>
7

>  <REMARK>
 VINA RESULT:      -7.3      4.089      5.002
  Name = 
  1 active torsions:
  status: ('A' for Active; 'I' for Inactive)
    1  A    between atoms: C_16  and  C_20
                            x       y       z     vdW  Elec       q    Type
                         _______ _______ _______ _____ _____    ______ ____

>  <TORSDO>
F 1

$$$$
=
 OpenBabel11042414533D

 32 37  0  0  1  0  0  0  0  0999 V2000
  187.7530  174.3200  142.0090 O   0  0  0  0  0  0  0  0  0  0  0  0
  190.0910  173.4570  140.6940 N   0  0  0  0  0  2  0  0  0  0  0  0
  192.9630  170.8720  138.5050 N   0  0  0  0  0  0  0  0  0  0  0  0
  190.5550  173.8120  141.9770 N   0  0  1  0  0  0  0  0  0  0  0  0
  193.6620  170.2210  139.4020 C   0  0  0  0  0  0  0  0  0  0  0  0
  189.9650  175.0400  142.3450 N   0  0  0  0  0  0  0  0  0  0  0  0
  190.0970  171.4850  142.1020 C   0  0  2  0  0  3  0  0  0  0  0  0
  190.8680  176.1090  142.7630 C   0  0  0  0  0  2  0  0  0  0  0  0
  191.7040  171.5120  138.8090 C   0  0  0  0  0  3  0  0  0  0  0  0
  191.2270  171.4330  140.0490 C   0  0  0  0  0  0  0  0  0  0  0  0
  191.3700  170.7480  142.2000 N   0  0  0  0  0  0  0  0  0  0  0  0
  191.0020  172.7280  144.1440 C   0  0  0  0  0  2  0  0  0  0  0  0
  189.3260  174.8520  146.7660 C   0  0  0  0  0  1  0  0  0  0  0  0
  188.5350  175.2540  142.3370 C   0  0  0  0  0  0  0  0  0  0  0  0
  191.9460  170.7370  141.0530 C   0  0  0  0  0  0  0  0  0  0  0  0
  190.6930  173.8840  145.0400 C   0  0  0  0  0  0  0  0  0  0  0  0
  193.1920  170.1130  140.7590 N   0  0  0  0  0  2  0  0  0  0  0  0
  194.8950  169.6160  139.0320 N   0  0  0  0  0  1  0  0  0  0  0  0
  191.5740  175.1020  144.9680 C   0  0  0  0  0  2  0  0  0  0  0  0
  189.9980  171.9980  140.6510 C   0  0  2  0  0  3  0  0  0  0  0  0
  190.8640  176.2640  144.2800 C   0  0  0  0  0  2  0  0  0  0  0  0
  189.6910  173.8000  145.8490 N   0  0  0  0  0  0  0  0  0  0  0  0
  190.1150  172.7710  142.9000 C   0  0  1  0  0  3  0  0  0  0  0  0
  185.1950  179.8850  144.9210 C   0  0  0  0  0  2  0  0  0  0  0  0
  185.3300  179.7910  143.5130 O   0  0  0  0  0  0  0  0  0  0  0  0
  186.3990  178.3900  141.9570 N   0  0  0  0  0  0  0  0  0  0  0  0
  187.1950  177.2160  141.5700 C   0  0  0  0  0  2  0  0  0  0  0  0
  187.9600  176.5770  142.7360 C   0  0  1  0  0  3  0  0  0  0  0  0
  185.9410  178.6690  145.4900 C   0  0  0  0  0  2  0  0  0  0  0  0
  186.9020  176.3950  144.2100 S   0  0  0  0  0  0  0  0  0  0  0  0
  186.2160  178.7930  143.1790 C   0  0  0  0  0  0  0  0  0  0  0  0
  186.8560  178.1980  144.3660 C   0  0  1  0  0  3  0  0  0  0  0  0
  1 14  2  0  0  0  0
  3  9  1  0  0  0  0
  3  5  2  0  0  0  0
  4  2  1  6  0  0  0
  4  6  1  0  0  0  0
  4 23  1  0  0  0  0
  5 17  1  0  0  0  0
  6  8  1  0  0  0  0
  7 11  1  6  0  0  0
  7 23  1  0  0  0  0
  8 21  1  0  0  0  0
  9 10  2  0  0  0  0
 10 15  1  0  0  0  0
 12 16  1  0  0  0  0
 14  6  1  0  0  0  0
 15 11  2  0  0  0  0
 16 22  2  0  0  0  0
 17 15  1  0  0  0  0
 18  5  1  0  0  0  0
 19 16  1  0  0  0  0
 20 10  1  6  0  0  0
 20  2  1  0  0  0  0
 20  7  1  0  0  0  0
 21 19  1  0  0  0  0
 22 13  1  0  0  0  0
 23 12  1  1  0  0  0
 24 29  1  0  0  0  0
 25 24  1  0  0  0  0
 26 31  2  0  0  0  0
 27 26  1  0  0  0  0
 27 28  1  0  0  0  0
 28 14  1  6  0  0  0
 28 30  1  0  0  0  0
 30 32  1  0  0  0  0
 31 25  1  0  0  0  0
 31 32  1  0  0  0  0
 32 29  1  1  0  0  0
M  END
>  <MODEL>
8

>  <REMARK>
 VINA RESULT:      -7.2      3.763      8.063
  Name = 
  1 active torsions:
  status: ('A' for Active; 'I' for Inactive)
    1  A    between atoms: C_16  and  C_20
                            x       y       z     vdW  Elec       q    Type
                         _______ _______ _______ _____ _____    ______ ____

>  <TORSDO>
F 1

$$$$
=
 OpenBabel11042414533D

 32 37  0  0  1  0  0  0  0  0999 V2000
  188.4980  174.4450  143.1400 O   0  0  0  0  0  0  0  0  0  0  0  0
  190.7290  174.3500  141.4220 N   0  0  0  0  0  2  0  0  0  0  0  0
  194.1040  172.7630  139.0110 N   0  0  0  0  0  0  0  0  0  0  0  0
  191.1620  175.1920  142.4660 N   0  0  1  0  0  0  0  0  0  0  0  0
  195.1580  172.7330  139.7900 C   0  0  0  0  0  0  0  0  0  0  0  0
  190.1250  176.1000  142.7710 N   0  0  0  0  0  0  0  0  0  0  0  0
  191.8870  173.0160  143.0800 C   0  0  2  0  0  3  0  0  0  0  0  0
  190.4650  177.5210  142.7620 C   0  0  0  0  0  2  0  0  0  0  0  0
  192.7570  172.8590  139.5240 C   0  0  0  0  0  3  0  0  0  0  0  0
  192.5740  172.9140  140.8410 C   0  0  0  0  0  0  0  0  0  0  0  0
  193.3550  172.9470  142.9630 N   0  0  0  0  0  0  0  0  0  0  0  0
  192.3990  175.0150  144.5890 C   0  0  0  0  0  2  0  0  0  0  0  0
  190.3450  176.8270  147.1760 C   0  0  0  0  0  1  0  0  0  0  0  0
  188.7830  175.6730  143.0980 C   0  0  0  0  0  0  0  0  0  0  0  0
  193.6820  172.8820  141.7230 C   0  0  0  0  0  0  0  0  0  0  0  0
  191.7210  176.1190  145.3350 C   0  0  0  0  0  0  0  0  0  0  0  0
  195.0130  172.7960  141.2220 N   0  0  0  0  0  2  0  0  0  0  0  0
  196.4560  172.6390  139.2170 N   0  0  0  0  0  1  0  0  0  0  0  0
  191.8970  177.5300  144.8420 C   0  0  0  0  0  2  0  0  0  0  0  0
  191.3340  173.0360  141.6410 C   0  0  2  0  0  3  0  0  0  0  0  0
  190.6230  178.0520  144.1830 C   0  0  0  0  0  2  0  0  0  0  0  0
  191.0190  175.8320  146.3790 N   0  0  0  0  0  0  0  0  0  0  0  0
  191.4180  174.3470  143.6270 C   0  0  1  0  0  3  0  0  0  0  0  0
  184.2170  179.0400  145.7630 C   0  0  0  0  0  2  0  0  0  0  0  0
  184.0660  178.5310  144.4490 O   0  0  0  0  0  0  0  0  0  0  0  0
  185.3250  177.2700  142.9160 N   0  0  0  0  0  0  0  0  0  0  0  0
  186.4990  176.4870  142.5030 C   0  0  0  0  0  2  0  0  0  0  0  0
  187.7190  176.6780  143.4130 C   0  0  1  0  0  3  0  0  0  0  0  0
  185.5840  178.5320  146.2480 C   0  0  0  0  0  2  0  0  0  0  0  0
  187.2580  176.5890  145.1750 S   0  0  0  0  0  0  0  0  0  0  0  0
  185.2370  177.9530  144.0170 C   0  0  0  0  0  0  0  0  0  0  0  0
  186.3360  178.1350  144.9840 C   0  0  1  0  0  3  0  0  0  0  0  0
  2 20  1  0  0  0  0
  3  9  1  0  0  0  0
  3  5  2  0  0  0  0
  4  2  1  6  0  0  0
  4  6  1  0  0  0  0
  4 23  1  0  0  0  0
  5 17  1  0  0  0  0
  6 14  1  0  0  0  0
  7 11  1  6  0  0  0
  7 23  1  0  0  0  0
  8  6  1  0  0  0  0
  8 21  1  0  0  0  0
  9 10  2  0  0  0  0
 10 15  1  0  0  0  0
 12 16  1  0  0  0  0
 14  1  2  0  0  0  0
 15 11  2  0  0  0  0
 16 22  2  0  0  0  0
 17 15  1  0  0  0  0
 18  5  1  0  0  0  0
 19 16  1  0  0  0  0
 20 10  1  6  0  0  0
 20  7  1  0  0  0  0
 21 19  1  0  0  0  0
 22 13  1  0  0  0  0
 23 12  1  1  0  0  0
 24 29  1  0  0  0  0
 25 24  1  0  0  0  0
 26 31  2  0  0  0  0
 27 26  1  0  0  0  0
 27 28  1  0  0  0  0
 28 14  1  6  0  0  0
 28 30  1  0  0  0  0
 31 25  1  0  0  0  0
 31 32  1  0  0  0  0
 32 30  1  0  0  0  0
 32 29  1  1  0  0  0
M  END
>  <MODEL>
9

>  <REMARK>
 VINA RESULT:      -7.1      2.981      8.062
  Name = 
  1 active torsions:
  status: ('A' for Active; 'I' for Inactive)
    1  A    between atoms: C_16  and  C_20
                            x       y       z     vdW  Elec       q    Type
                         _______ _______ _______ _____ _____    ______ ____

>  <TORSDO>
F 1

$$$$
