=
 OpenBabel11042416003D

 52 55  0  0  1  0  0  0  0  0999 V2000
  193.9680  174.0000  145.5840 C   0  0  0  0  0  0  0  0  0  0  0  0
  193.4870  176.6960  146.2490 C   0  0  0  0  0  3  0  0  0  0  0  0
  194.9840  174.9690  145.2890 C   0  0  2  0  0  3  0  0  0  0  0  0
  194.5310  172.7280  145.1620 C   0  0  0  0  0  0  0  0  0  0  0  0
  197.2190  174.8960  144.3230 N   0  0  0  0  0  1  0  0  0  0  0  0
  192.5470  175.7490  146.4850 C   0  0  0  0  0  0  0  0  0  0  0  0
  192.8030  174.3180  146.1400 C   0  0  0  0  0  3  0  0  0  0  0  0
  195.9920  174.3060  144.7440 C   0  0  0  0  0  0  0  0  0  0  0  0
  195.7170  172.9010  144.6590 N   0  0  0  0  0  0  0  0  0  0  0  0
  194.8440  176.4210  145.6250 C   0  0  0  0  0  3  0  0  0  0  0  0
  191.4170  176.9520  148.4060 C   0  0  0  0  0  1  0  0  0  0  0  0
  191.2440  176.1870  147.0970 C   0  0  2  0  0  3  0  0  0  0  0  0
  190.3190  174.9910  147.3010 C   0  0  0  0  0  2  0  0  0  0  0  0
  189.1220  175.0740  146.4140 C   0  0  0  0  0  3  0  0  0  0  0  0
  188.3630  176.1670  146.4050 C   0  0  0  0  0  3  0  0  0  0  0  0
  187.2390  176.3130  145.5850 O   0  0  0  0  0  0  0  0  0  0  0  0
  186.8990  177.5220  144.9020 C   0  0  2  0  0  3  0  0  0  0  0  0
  184.6980  177.6600  143.9870 O   0  0  0  0  0  0  0  0  0  0  0  0
  185.4300  177.8020  145.0040 C   0  0  0  0  0  0  0  0  0  0  0  0
  184.8900  178.2240  146.2210 O   0  0  0  0  0  0  0  0  0  0  0  0
  185.9610  178.0300  148.2380 O   0  0  0  0  0  1  0  0  0  0  0  0
  185.6760  178.9000  147.1910 C   0  0  0  0  0  2  0  0  0  0  0  0
  187.3300  177.5010  143.5580 O   0  0  0  0  0  0  0  0  0  0  0  0
  188.3760  178.3030  143.4750 O   0  0  0  0  0  0  0  0  0  0  0  0
  189.1180  177.8160  142.3950 C   0  0  0  0  0  2  0  0  0  0  0  0
  190.8070  178.2190  144.1760 C   0  0  0  0  0  1  0  0  0  0  0  0
  190.5490  177.5590  142.8350 C   0  0  1  0  0  3  0  0  0  0  0  0
  189.9030  175.1510  143.0900 C   0  0  0  0  0  3  0  0  0  0  0  0
  191.9870  175.5210  142.6440 C   0  0  0  0  0  0  0  0  0  0  0  0
  190.8140  176.1220  142.9000 N   0  0  0  0  0  0  0  0  0  0  0  0
  193.2510  176.2380  142.3150 C   0  0  0  0  0  1  0  0  0  0  0  0
  191.8590  174.1520  142.7010 C   0  0  0  0  0  3  0  0  0  0  0  0
  190.5220  173.9160  142.9860 C   0  0  0  0  0  3  0  0  0  0  0  0
  193.8800  171.3900  145.2810 C   0  0  0  0  0  2  0  0  0  0  0  0
  195.5030  169.7270  144.8620 O   0  0  0  0  0  0  0  0  0  0  0  0
  194.5610  170.3680  144.4260 C   0  0  0  0  0  0  0  0  0  0  0  0
  194.0420  170.0730  143.0520 C   0  0  0  0  0  2  0  0  0  0  0  0
  192.6310  170.6170  142.8820 C   0  0  0  0  0  2  0  0  0  0  0  0
  190.8920  170.7490  141.0590 C   0  0  0  0  0  0  0  0  0  0  0  0
  189.9660  170.8500  141.9090 O   0  0  0  0  0  0  0  0  0  0  0  0
  192.2500  170.6030  141.4780 N   0  0  0  0  0  2  0  0  0  0  0  0
  190.5720  170.8130  139.6010 C   0  0  0  0  0  2  0  0  0  0  0  0
  188.4600  172.7880  139.7740 C   0  0  0  0  0  1  0  0  0  0  0  0
  189.9690  172.5520  137.8230 C   0  0  2  0  0  3  0  0  0  0  0  0
  189.7540  173.2820  139.1440 C   0  0  2  0  0  3  0  0  0  0  0  0
  190.8400  172.2110  139.0360 C   0  0  1  0  0  0  0  0  0  0  0  0
  192.2600  172.7040  139.0280 C   0  0  0  0  0  0  0  0  0  0  0  0
  192.5530  173.9810  139.4900 O   0  0  0  0  0  1  0  0  0  0  0  0
  193.1800  171.9820  138.5640 O   0  0  0  0  0  0  0  0  0  0  0  0
  190.6180  173.5150  136.8330 C   0  0  0  0  0  2  0  0  0  0  0  0
  188.8750  174.9680  136.1020 O   0  0  0  0  0  1  0  0  0  0  0  0
  189.6430  173.8650  135.7280 C   0  0  0  0  0  2  0  0  0  0  0  0
  1  7  1  0  0  0  0
  2  6  1  0  0  0  0
  3  1  1  0  0  0  0
  3 10  1  1  0  0  0
  4 34  1  0  0  0  0
  4  1  2  0  0  0  0
  5  8  1  0  0  0  0
  6 12  1  0  0  0  0
  7  6  2  0  0  0  0
  8  3  1  0  0  0  0
  9  8  2  0  0  0  0
  9  4  1  0  0  0  0
 10  2  2  0  0  0  0
 12 13  1  0  0  0  0
 12 11  1  1  0  0  0
 14 13  1  0  0  0  0
 15 14  2  0  0  0  0
 16 15  1  0  0  0  0
 17 23  1  6  0  0  0
 17 19  1  0  0  0  0
 17 16  1  0  0  0  0
 18 19  2  0  0  0  0
 19 20  1  0  0  0  0
 20 22  1  0  0  0  0
 22 21  1  0  0  0  0
 24 23  1  0  0  0  0
 25 27  1  0  0  0  0
 25 24  1  0  0  0  0
 27 30  1  0  0  0  0
 27 26  1  1  0  0  0
 29 32  2  0  0  0  0
 29 30  1  0  0  0  0
 30 28  1  0  0  0  0
 31 29  1  0  0  0  0
 32 33  1  0  0  0  0
 33 28  2  0  0  0  0
 36 35  2  0  0  0  0
 36 34  1  0  0  0  0
 37 36  1  0  0  0  0
 38 37  1  0  0  0  0
 39 41  1  0  0  0  0
 39 40  2  0  0  0  0
 41 38  1  0  0  0  0
 42 39  1  0  0  0  0
 44 50  1  6  0  0  0
 44 46  1  0  0  0  0
 44 45  1  0  0  0  0
 45 43  1  1  0  0  0
 46 45  1  0  0  0  0
 46 42  1  1  0  0  0
 47 46  1  0  0  0  0
 47 48  1  0  0  0  0
 49 47  2  0  0  0  0
 52 51  1  0  0  0  0
 52 50  1  0  0  0  0
M  END
>  <MODEL>
1

>  <REMARK>
 VINA RESULT:      -5.8      0.000      0.000
  Name = 
  23 active torsions:
  status: ('A' for Active; 'I' for Inactive)
    1  A    between atoms: C_2  and  O_23
    2  A    between atoms: C_2  and  C_28
    3  A    between atoms: C_4  and  C_9
    4  A    between atoms: C_4  and  C_52
    5  A    between atoms: O_5  and  C_40
    6  A    between atoms: O_5  and  C_49
    7  A    between atoms: C_6  and  C_15
    8  A    between atoms: C_6  and  C_37
    9  A    between atoms: C_8  and  C_11
   10  A    between atoms: C_8  and  C_22
   11  A    between atoms: C_10  and  C_22
   12  A    between atoms: C_13  and  O_27
   13  A    between atoms: C_13  and  O_35
   14  A    between atoms: C_13  and  C_49
   15  A    between atoms: C_14  and  C_33
   16  A    between atoms: C_14  and  C_43
   17  A    between atoms: C_16  and  C_25
   18  A    between atoms: C_16  and  N_46
   19  A    between atoms: O_23  and  O_27
   20  A    between atoms: C_25  and  C_43
   21  A    between atoms: N_26  and  C_28
   22  A    between atoms: O_35  and  C_44
   23  A    between atoms: C_37  and  C_38
                            x       y       z     vdW  Elec       q    Type
                         _______ _______ _______ _____ _____    ______ ____

>  <TORSDO>
F 23

$$$$
=
 OpenBabel11042416003D

 52 55  0  0  1  0  0  0  0  0999 V2000
  194.9780  175.1230  145.4520 C   0  0  0  0  0  0  0  0  0  0  0  0
  192.7510  176.8070  145.0670 C   0  0  0  0  0  3  0  0  0  0  0  0
  195.0280  176.0930  144.3970 C   0  0  0  0  0  0  0  0  0  0  0  0
  196.2690  174.4570  145.4100 C   0  0  1  0  0  3  0  0  0  0  0  0
  196.6800  176.7590  142.7350 N   0  0  0  0  0  1  0  0  0  0  0  0
  192.7400  175.8580  146.0340 C   0  0  0  0  0  0  0  0  0  0  0  0
  193.9220  174.9690  146.2450 C   0  0  0  0  0  3  0  0  0  0  0  0
  196.2130  175.9630  143.8210 C   0  0  0  0  0  0  0  0  0  0  0  0
  196.9980  174.9390  144.4480 N   0  0  0  0  0  0  0  0  0  0  0  0
  193.9150  177.0550  144.1220 C   0  0  0  0  0  3  0  0  0  0  0  0
  191.7770  175.1980  148.2820 C   0  0  0  0  0  1  0  0  0  0  0  0
  191.5010  175.7290  146.8790 C   0  0  2  0  0  3  0  0  0  0  0  0
  190.4620  174.8590  146.1780 C   0  0  0  0  0  2  0  0  0  0  0  0
  189.0760  175.2590  146.5550 C   0  0  0  0  0  3  0  0  0  0  0  0
  188.7190  176.5410  146.5530 C   0  0  0  0  0  3  0  0  0  0  0  0
  187.4320  176.9800  146.8780 O   0  0  0  0  0  0  0  0  0  0  0  0
  186.5200  177.5520  145.9380 C   0  0  2  0  0  3  0  0  0  0  0  0
  185.2250  178.1010  147.8670 O   0  0  0  0  0  0  0  0  0  0  0  0
  185.2520  177.9830  146.6130 C   0  0  0  0  0  0  0  0  0  0  0  0
  184.1140  178.2390  145.8450 O   0  0  0  0  0  0  0  0  0  0  0  0
  183.6100  178.8190  143.6850 O   0  0  0  0  0  1  0  0  0  0  0  0
  184.0710  179.3020  144.9050 C   0  0  0  0  0  2  0  0  0  0  0  0
  186.2610  176.6760  144.8620 O   0  0  0  0  0  0  0  0  0  0  0  0
  186.5910  177.3160  143.7550 O   0  0  0  0  0  0  0  0  0  0  0  0
  186.0370  176.5550  142.7210 C   0  0  0  0  0  2  0  0  0  0  0  0
  186.5790  177.6610  140.5600 C   0  0  0  0  0  1  0  0  0  0  0  0
  186.9750  176.5600  141.5260 C   0  0  1  0  0  3  0  0  0  0  0  0
  189.0150  177.8850  142.1270 C   0  0  0  0  0  3  0  0  0  0  0  0
  189.1700  175.7460  142.4070 C   0  0  0  0  0  0  0  0  0  0  0  0
  188.3610  176.7220  141.9630 N   0  0  0  0  0  0  0  0  0  0  0  0
  188.8050  174.3030  142.4610 C   0  0  0  0  0  1  0  0  0  0  0  0
  190.3730  176.2630  142.8300 C   0  0  0  0  0  3  0  0  0  0  0  0
  190.2720  177.6340  142.6520 C   0  0  0  0  0  3  0  0  0  0  0  0
  196.7370  173.3770  146.3280 C   0  0  0  0  0  2  0  0  0  0  0  0
  195.1950  171.6230  145.9770 O   0  0  0  0  0  0  0  0  0  0  0  0
  196.3390  172.0220  145.8320 C   0  0  0  0  0  0  0  0  0  0  0  0
  197.3260  171.1750  145.0880 C   0  0  0  0  0  2  0  0  0  0  0  0
  197.3110  171.5100  143.6040 C   0  0  0  0  0  2  0  0  0  0  0  0
  195.3000  170.7900  142.2610 C   0  0  0  0  0  0  0  0  0  0  0  0
  195.9220  169.7900  141.8100 O   0  0  0  0  0  0  0  0  0  0  0  0
  195.9440  171.7090  143.1460 N   0  0  0  0  0  2  0  0  0  0  0  0
  193.8680  171.0020  141.8920 C   0  0  0  0  0  2  0  0  0  0  0  0
  192.5150  172.7600  143.7560 C   0  0  0  0  0  1  0  0  0  0  0  0
  192.1270  172.7840  141.3090 C   0  0  2  0  0  3  0  0  0  0  0  0
  192.9310  173.4090  142.4440 C   0  0  2  0  0  3  0  0  0  0  0  0
  193.6130  172.4510  141.4670 C   0  0  1  0  0  0  0  0  0  0  0  0
  194.5690  173.0730  140.4870 C   0  0  0  0  0  0  0  0  0  0  0  0
  195.2340  174.2470  140.8170 O   0  0  0  0  0  1  0  0  0  0  0  0
  194.7380  172.5580  139.3510 O   0  0  0  0  0  0  0  0  0  0  0  0
  191.8310  173.8630  140.2700 C   0  0  0  0  0  2  0  0  0  0  0  0
  191.0710  173.3380  138.0720 O   0  0  0  0  0  1  0  0  0  0  0  0
  190.6620  173.4460  139.4010 C   0  0  0  0  0  2  0  0  0  0  0  0
  1  7  1  0  0  0  0
  2  6  1  0  0  0  0
  3  1  2  0  0  0  0
  4  1  1  0  0  0  0
  4 34  1  1  0  0  0
  5  8  1  0  0  0  0
  6  7  2  0  0  0  0
  6 12  1  0  0  0  0
  8  3  1  0  0  0  0
  8  9  2  0  0  0  0
  9  4  1  0  0  0  0
 10  3  1  0  0  0  0
 10  2  2  0  0  0  0
 12 11  1  1  0  0  0
 13 14  1  0  0  0  0
 13 12  1  0  0  0  0
 15 14  2  0  0  0  0
 15 16  1  0  0  0  0
 17 23  1  6  0  0  0
 17 19  1  0  0  0  0
 17 16  1  0  0  0  0
 19 18  2  0  0  0  0
 20 19  1  0  0  0  0
 21 22  1  0  0  0  0
 22 20  1  0  0  0  0
 24 23  1  0  0  0  0
 25 24  1  0  0  0  0
 27 26  1  6  0  0  0
 27 30  1  0  0  0  0
 27 25  1  0  0  0  0
 28 33  2  0  0  0  0
 29 31  1  0  0  0  0
 29 32  2  0  0  0  0
 30 28  1  0  0  0  0
 30 29  1  0  0  0  0
 33 32  1  0  0  0  0
 36 35  2  0  0  0  0
 36 34  1  0  0  0  0
 37 36  1  0  0  0  0
 38 37  1  0  0  0  0
 39 41  1  0  0  0  0
 40 39  2  0  0  0  0
 41 38  1  0  0  0  0
 42 39  1  0  0  0  0
 44 50  1  6  0  0  0
 44 46  1  0  0  0  0
 44 45  1  0  0  0  0
 45 43  1  1  0  0  0
 46 42  1  1  0  0  0
 46 45  1  0  0  0  0
 47 48  1  0  0  0  0
 47 46  1  0  0  0  0
 49 47  2  0  0  0  0
 51 52  1  0  0  0  0
 52 50  1  0  0  0  0
M  END
>  <MODEL>
2

>  <REMARK>
 VINA RESULT:      -5.7      1.907      3.193
  Name = 
  23 active torsions:
  status: ('A' for Active; 'I' for Inactive)
    1  A    between atoms: C_2  and  O_23
    2  A    between atoms: C_2  and  C_28
    3  A    between atoms: C_4  and  C_9
    4  A    between atoms: C_4  and  C_52
    5  A    between atoms: O_5  and  C_40
    6  A    between atoms: O_5  and  C_49
    7  A    between atoms: C_6  and  C_15
    8  A    between atoms: C_6  and  C_37
    9  A    between atoms: C_8  and  C_11
   10  A    between atoms: C_8  and  C_22
   11  A    between atoms: C_10  and  C_22
   12  A    between atoms: C_13  and  O_27
   13  A    between atoms: C_13  and  O_35
   14  A    between atoms: C_13  and  C_49
   15  A    between atoms: C_14  and  C_33
   16  A    between atoms: C_14  and  C_43
   17  A    between atoms: C_16  and  C_25
   18  A    between atoms: C_16  and  N_46
   19  A    between atoms: O_23  and  O_27
   20  A    between atoms: C_25  and  C_43
   21  A    between atoms: N_26  and  C_28
   22  A    between atoms: O_35  and  C_44
   23  A    between atoms: C_37  and  C_38
                            x       y       z     vdW  Elec       q    Type
                         _______ _______ _______ _____ _____    ______ ____

>  <TORSDO>
F 23

$$$$
=
 OpenBabel11042416003D

 52 55  0  0  1  0  0  0  0  0999 V2000
  193.9510  174.0680  145.6710 C   0  0  0  0  0  0  0  0  0  0  0  0
  193.4980  176.7650  146.3510 C   0  0  0  0  0  3  0  0  0  0  0  0
  194.9690  175.0310  145.3640 C   0  0  2  0  0  3  0  0  0  0  0  0
  194.4990  172.7930  145.2380 C   0  0  0  0  0  0  0  0  0  0  0  0
  197.1890  174.9450  144.3650 N   0  0  0  0  0  1  0  0  0  0  0  0
  192.5560  175.8240  146.5980 C   0  0  0  0  0  0  0  0  0  0  0  0
  192.7970  174.3920  146.2460 C   0  0  0  0  0  3  0  0  0  0  0  0
  195.9640  174.3610  144.8030 C   0  0  0  0  0  0  0  0  0  0  0  0
  195.6790  172.9590  144.7180 N   0  0  0  0  0  0  0  0  0  0  0  0
  194.8450  176.4820  145.7060 C   0  0  0  0  0  3  0  0  0  0  0  0
  191.4650  177.0750  148.5110 C   0  0  0  0  0  1  0  0  0  0  0  0
  191.2650  176.2690  147.2310 C   0  0  2  0  0  3  0  0  0  0  0  0
  190.3560  175.0730  147.4940 C   0  0  0  0  0  2  0  0  0  0  0  0
  189.1570  175.0960  146.6070 C   0  0  0  0  0  3  0  0  0  0  0  0
  188.4280  176.2020  146.4870 C   0  0  0  0  0  3  0  0  0  0  0  0
  187.3040  176.2940  145.6590 O   0  0  0  0  0  0  0  0  0  0  0  0
  186.9520  177.4630  144.9140 C   0  0  2  0  0  3  0  0  0  0  0  0
  184.7610  177.5000  143.9670 O   0  0  0  0  0  0  0  0  0  0  0  0
  185.4770  177.7190  144.9810 C   0  0  0  0  0  0  0  0  0  0  0  0
  184.9130  178.2040  146.1630 O   0  0  0  0  0  0  0  0  0  0  0  0
  185.8950  177.9560  148.2200 O   0  0  0  0  0  1  0  0  0  0  0  0
  185.7020  178.8370  147.1610 C   0  0  0  0  0  2  0  0  0  0  0  0
  187.4040  177.3870  143.5790 O   0  0  0  0  0  0  0  0  0  0  0  0
  188.4670  178.1650  143.4860 O   0  0  0  0  0  0  0  0  0  0  0  0
  189.1900  177.6570  142.4020 C   0  0  0  0  0  2  0  0  0  0  0  0
  190.9060  178.1390  144.1360 C   0  0  0  0  0  1  0  0  0  0  0  0
  190.6420  177.4650  142.8030 C   0  0  1  0  0  3  0  0  0  0  0  0
  190.1070  175.0290  143.0460 C   0  0  0  0  0  3  0  0  0  0  0  0
  192.1730  175.4970  142.6060 C   0  0  0  0  0  0  0  0  0  0  0  0
  190.9720  176.0420  142.8620 N   0  0  0  0  0  0  0  0  0  0  0  0
  193.4030  176.2720  142.2830 C   0  0  0  0  0  1  0  0  0  0  0  0
  192.1080  174.1230  142.6570 C   0  0  0  0  0  3  0  0  0  0  0  0
  190.7830  173.8240  142.9370 C   0  0  0  0  0  3  0  0  0  0  0  0
  193.8410  171.4590  145.3630 C   0  0  0  0  0  2  0  0  0  0  0  0
  195.5670  169.9260  145.8560 O   0  0  0  0  0  0  0  0  0  0  0  0
  194.7810  170.3460  145.0230 C   0  0  0  0  0  0  0  0  0  0  0  0
  194.7120  169.6900  143.6780 C   0  0  0  0  0  2  0  0  0  0  0  0
  193.6560  170.3560  142.8080 C   0  0  0  0  0  2  0  0  0  0  0  0
  193.4310  171.0900  140.4050 C   0  0  0  0  0  0  0  0  0  0  0  0
  192.1770  170.9650  140.4540 O   0  0  0  0  0  0  0  0  0  0  0  0
  194.2370  170.7770  141.5430 N   0  0  0  0  0  2  0  0  0  0  0  0
  194.0790  171.5980  139.1590 C   0  0  0  0  0  2  0  0  0  0  0  0
  192.2960  173.8640  138.8730 C   0  0  0  0  0  1  0  0  0  0  0  0
  194.6490  173.8540  138.0940 C   0  0  2  0  0  3  0  0  0  0  0  0
  193.7270  174.2140  139.2550 C   0  0  2  0  0  3  0  0  0  0  0  0
  194.6530  173.0030  139.3670 C   0  0  1  0  0  0  0  0  0  0  0  0
  195.8290  173.1510  140.2920 C   0  0  0  0  0  0  0  0  0  0  0  0
  195.7670  174.0450  141.3540 O   0  0  0  0  0  1  0  0  0  0  0  0
  196.8850  172.4990  140.0870 O   0  0  0  0  0  0  0  0  0  0  0  0
  195.7700  174.8870  138.0240 C   0  0  0  0  0  2  0  0  0  0  0  0
  197.2530  175.8750  136.4400 O   0  0  0  0  0  1  0  0  0  0  0  0
  196.5800  174.6950  136.7580 C   0  0  0  0  0  2  0  0  0  0  0  0
  1  7  1  0  0  0  0
  2  6  1  0  0  0  0
  3  1  1  0  0  0  0
  3 10  1  1  0  0  0
  4 34  1  0  0  0  0
  4  1  2  0  0  0  0
  5  8  1  0  0  0  0
  6 12  1  0  0  0  0
  7  6  2  0  0  0  0
  8  3  1  0  0  0  0
  9  8  2  0  0  0  0
  9  4  1  0  0  0  0
 10  2  2  0  0  0  0
 12 13  1  0  0  0  0
 12 11  1  1  0  0  0
 14 13  1  0  0  0  0
 15 14  2  0  0  0  0
 16 15  1  0  0  0  0
 17 23  1  6  0  0  0
 17 19  1  0  0  0  0
 17 16  1  0  0  0  0
 18 19  2  0  0  0  0
 19 20  1  0  0  0  0
 20 22  1  0  0  0  0
 22 21  1  0  0  0  0
 24 23  1  0  0  0  0
 25 27  1  0  0  0  0
 25 24  1  0  0  0  0
 27 30  1  0  0  0  0
 27 26  1  1  0  0  0
 29 32  2  0  0  0  0
 29 30  1  0  0  0  0
 30 28  1  0  0  0  0
 31 29  1  0  0  0  0
 32 33  1  0  0  0  0
 33 28  2  0  0  0  0
 36 34  1  0  0  0  0
 36 35  2  0  0  0  0
 37 36  1  0  0  0  0
 38 37  1  0  0  0  0
 39 40  2  0  0  0  0
 39 41  1  0  0  0  0
 41 38  1  0  0  0  0
 42 39  1  0  0  0  0
 44 50  1  1  0  0  0
 44 45  1  0  0  0  0
 44 46  1  0  0  0  0
 45 43  1  6  0  0  0
 45 46  1  0  0  0  0
 46 42  1  6  0  0  0
 46 47  1  0  0  0  0
 47 48  1  0  0  0  0
 49 47  2  0  0  0  0
 51 52  1  0  0  0  0
 52 50  1  0  0  0  0
M  END
>  <MODEL>
3

>  <REMARK>
 VINA RESULT:      -5.5      1.801      2.415
  Name = 
  23 active torsions:
  status: ('A' for Active; 'I' for Inactive)
    1  A    between atoms: C_2  and  O_23
    2  A    between atoms: C_2  and  C_28
    3  A    between atoms: C_4  and  C_9
    4  A    between atoms: C_4  and  C_52
    5  A    between atoms: O_5  and  C_40
    6  A    between atoms: O_5  and  C_49
    7  A    between atoms: C_6  and  C_15
    8  A    between atoms: C_6  and  C_37
    9  A    between atoms: C_8  and  C_11
   10  A    between atoms: C_8  and  C_22
   11  A    between atoms: C_10  and  C_22
   12  A    between atoms: C_13  and  O_27
   13  A    between atoms: C_13  and  O_35
   14  A    between atoms: C_13  and  C_49
   15  A    between atoms: C_14  and  C_33
   16  A    between atoms: C_14  and  C_43
   17  A    between atoms: C_16  and  C_25
   18  A    between atoms: C_16  and  N_46
   19  A    between atoms: O_23  and  O_27
   20  A    between atoms: C_25  and  C_43
   21  A    between atoms: N_26  and  C_28
   22  A    between atoms: O_35  and  C_44
   23  A    between atoms: C_37  and  C_38
                            x       y       z     vdW  Elec       q    Type
                         _______ _______ _______ _____ _____    ______ ____

>  <TORSDO>
F 23

$$$$
=
 OpenBabel11042416003D

 52 55  0  0  1  0  0  0  0  0999 V2000
  194.8520  173.9780  145.2190 C   0  0  0  0  0  0  0  0  0  0  0  0
  193.4150  176.3990  145.1010 C   0  0  0  0  0  3  0  0  0  0  0  0
  195.4770  175.1150  144.6080 C   0  0  0  0  0  0  0  0  0  0  0  0
  195.8510  172.9240  145.1560 C   0  0  1  0  0  3  0  0  0  0  0  0
  197.6470  175.5630  143.5960 N   0  0  0  0  0  1  0  0  0  0  0  0
  192.8570  175.2910  145.6460 C   0  0  0  0  0  0  0  0  0  0  0  0
  193.6200  174.0080  145.7160 C   0  0  0  0  0  3  0  0  0  0  0  0
  196.6840  174.7240  144.2290 C   0  0  0  0  0  0  0  0  0  0  0  0
  196.9270  173.3520  144.5660 N   0  0  0  0  0  0  0  0  0  0  0  0
  194.8160  176.4550  144.5160 C   0  0  0  0  0  3  0  0  0  0  0  0
  191.3770  175.5380  147.6860 C   0  0  0  0  0  1  0  0  0  0  0  0
  191.4500  175.3960  146.1690 C   0  0  2  0  0  3  0  0  0  0  0  0
  190.6160  174.2050  145.7080 C   0  0  0  0  0  2  0  0  0  0  0  0
  189.9380  174.4870  144.4090 C   0  0  0  0  0  3  0  0  0  0  0  0
  190.0400  175.6860  143.8410 C   0  0  0  0  0  3  0  0  0  0  0  0
  189.4440  176.0080  142.6170 O   0  0  0  0  0  0  0  0  0  0  0  0
  188.1430  175.5680  142.2200 C   0  0  2  0  0  3  0  0  0  0  0  0
  187.6630  173.2790  141.7410 O   0  0  0  0  0  0  0  0  0  0  0  0
  188.2300  174.3400  141.3650 C   0  0  0  0  0  0  0  0  0  0  0  0
  188.9440  174.3840  140.1650 O   0  0  0  0  0  0  0  0  0  0  0  0
  188.9620  173.2450  138.1760 O   0  0  0  0  0  1  0  0  0  0  0  0
  188.3030  174.2260  138.9080 C   0  0  0  0  0  2  0  0  0  0  0  0
  187.4180  176.5950  141.5790 O   0  0  0  0  0  0  0  0  0  0  0  0
  186.2290  176.6450  142.1540 O   0  0  0  0  0  0  0  0  0  0  0  0
  186.4930  176.6440  143.5270 C   0  0  0  0  0  2  0  0  0  0  0  0
  185.7940  178.9910  143.0880 C   0  0  0  0  0  1  0  0  0  0  0  0
  186.5450  178.0750  144.0360 C   0  0  1  0  0  3  0  0  0  0  0  0
  184.7280  178.4670  145.7160 C   0  0  0  0  0  3  0  0  0  0  0  0
  186.6230  177.8040  146.5210 C   0  0  0  0  0  0  0  0  0  0  0  0
  185.9940  178.1570  145.3880 N   0  0  0  0  0  0  0  0  0  0  0  0
  188.0330  177.3280  146.5940 C   0  0  0  0  0  1  0  0  0  0  0  0
  185.7800  177.9150  147.6030 C   0  0  0  0  0  3  0  0  0  0  0  0
  184.5650  178.3390  147.0860 C   0  0  0  0  0  3  0  0  0  0  0  0
  195.7070  171.5360  145.6870 C   0  0  0  0  0  2  0  0  0  0  0  0
  197.7150  170.3840  145.2240 O   0  0  0  0  0  0  0  0  0  0  0  0
  196.5470  170.5630  144.9220 C   0  0  0  0  0  0  0  0  0  0  0  0
  195.9360  169.7450  143.8240 C   0  0  0  0  0  2  0  0  0  0  0  0
  196.4260  170.2190  142.4640 C   0  0  0  0  0  2  0  0  0  0  0  0
  195.2910  172.0750  141.1870 C   0  0  0  0  0  0  0  0  0  0  0  0
  196.2250  172.8760  141.4620 O   0  0  0  0  0  0  0  0  0  0  0  0
  195.3150  170.7340  141.6780 N   0  0  0  0  0  2  0  0  0  0  0  0
  194.1640  172.5210  140.3130 C   0  0  0  0  0  2  0  0  0  0  0  0
  192.9160  174.7760  141.6360 C   0  0  0  0  0  1  0  0  0  0  0  0
  192.8710  172.4620  142.5200 C   0  0  2  0  0  3  0  0  0  0  0  0
  192.1160  173.4820  141.6760 C   0  0  2  0  0  3  0  0  0  0  0  0
  192.8120  172.3010  140.9990 C   0  0  1  0  0  0  0  0  0  0  0  0
  191.9130  171.2270  140.4520 C   0  0  0  0  0  0  0  0  0  0  0  0
  190.5460  171.4530  140.3490 O   0  0  0  0  0  1  0  0  0  0  0  0
  192.3870  170.1080  140.1260 O   0  0  0  0  0  0  0  0  0  0  0  0
  191.8560  171.6140  143.2830 C   0  0  0  0  0  2  0  0  0  0  0  0
  192.4390  169.3050  143.3930 O   0  0  0  0  0  1  0  0  0  0  0  0
  192.5640  170.5230  144.0600 C   0  0  0  0  0  2  0  0  0  0  0  0
  1  7  1  0  0  0  0
  2  6  1  0  0  0  0
  3  1  2  0  0  0  0
  4  1  1  0  0  0  0
  4 34  1  1  0  0  0
  5  8  1  0  0  0  0
  6  7  2  0  0  0  0
  6 12  1  0  0  0  0
  8  9  2  0  0  0  0
  8  3  1  0  0  0  0
  9  4  1  0  0  0  0
 10  3  1  0  0  0  0
 10  2  2  0  0  0  0
 12 11  1  1  0  0  0
 13 12  1  0  0  0  0
 14 13  1  0  0  0  0
 15 14  2  0  0  0  0
 16 15  1  0  0  0  0
 17 19  1  6  0  0  0
 17 16  1  0  0  0  0
 19 18  2  0  0  0  0
 20 19  1  0  0  0  0
 21 22  1  0  0  0  0
 22 20  1  0  0  0  0
 23 24  1  0  0  0  0
 23 17  1  0  0  0  0
 24 25  1  0  0  0  0
 25 27  1  0  0  0  0
 27 26  1  6  0  0  0
 27 30  1  0  0  0  0
 28 33  2  0  0  0  0
 29 31  1  0  0  0  0
 29 32  2  0  0  0  0
 30 28  1  0  0  0  0
 30 29  1  0  0  0  0
 33 32  1  0  0  0  0
 36 35  2  0  0  0  0
 36 34  1  0  0  0  0
 37 36  1  0  0  0  0
 38 37  1  0  0  0  0
 39 40  2  0  0  0  0
 39 41  1  0  0  0  0
 41 38  1  0  0  0  0
 42 39  1  0  0  0  0
 44 50  1  1  0  0  0
 45 43  1  6  0  0  0
 45 44  1  0  0  0  0
 46 42  1  6  0  0  0
 46 45  1  0  0  0  0
 46 44  1  0  0  0  0
 47 46  1  0  0  0  0
 48 47  1  0  0  0  0
 49 47  2  0  0  0  0
 50 52  1  0  0  0  0
 51 52  1  0  0  0  0
M  END
>  <MODEL>
4

>  <REMARK>
 VINA RESULT:      -5.3      2.314      4.941
  Name = 
  23 active torsions:
  status: ('A' for Active; 'I' for Inactive)
    1  A    between atoms: C_2  and  O_23
    2  A    between atoms: C_2  and  C_28
    3  A    between atoms: C_4  and  C_9
    4  A    between atoms: C_4  and  C_52
    5  A    between atoms: O_5  and  C_40
    6  A    between atoms: O_5  and  C_49
    7  A    between atoms: C_6  and  C_15
    8  A    between atoms: C_6  and  C_37
    9  A    between atoms: C_8  and  C_11
   10  A    between atoms: C_8  and  C_22
   11  A    between atoms: C_10  and  C_22
   12  A    between atoms: C_13  and  O_27
   13  A    between atoms: C_13  and  O_35
   14  A    between atoms: C_13  and  C_49
   15  A    between atoms: C_14  and  C_33
   16  A    between atoms: C_14  and  C_43
   17  A    between atoms: C_16  and  C_25
   18  A    between atoms: C_16  and  N_46
   19  A    between atoms: O_23  and  O_27
   20  A    between atoms: C_25  and  C_43
   21  A    between atoms: N_26  and  C_28
   22  A    between atoms: O_35  and  C_44
   23  A    between atoms: C_37  and  C_38
                            x       y       z     vdW  Elec       q    Type
                         _______ _______ _______ _____ _____    ______ ____

>  <TORSDO>
F 23

$$$$
=
 OpenBabel11042416003D

 52 55  0  0  1  0  0  0  0  0999 V2000
  194.3180  173.8530  145.5110 C   0  0  0  0  0  0  0  0  0  0  0  0
  193.6220  176.5650  145.8350 C   0  0  0  0  0  3  0  0  0  0  0  0
  195.2650  174.8550  145.1160 C   0  0  0  0  0  0  0  0  0  0  0  0
  194.9840  172.5870  145.2560 C   0  0  1  0  0  3  0  0  0  0  0  0
  197.5230  174.8370  144.2000 N   0  0  0  0  0  1  0  0  0  0  0  0
  192.7500  175.5840  146.1700 C   0  0  0  0  0  0  0  0  0  0  0  0
  193.1190  174.1460  146.0060 C   0  0  0  0  0  3  0  0  0  0  0  0
  196.3330  174.2090  144.6710 C   0  0  0  0  0  0  0  0  0  0  0  0
  196.1650  172.7880  144.7540 N   0  0  0  0  0  0  0  0  0  0  0  0
  195.0110  176.3210  145.2690 C   0  0  0  0  0  3  0  0  0  0  0  0
  191.4170  176.3180  148.1950 C   0  0  0  0  0  1  0  0  0  0  0  0
  191.4030  175.9920  146.7050 C   0  0  2  0  0  3  0  0  0  0  0  0
  190.3600  174.9190  146.4060 C   0  0  0  0  0  2  0  0  0  0  0  0
  189.7580  175.1090  145.0550 C   0  0  0  0  0  3  0  0  0  0  0  0
  189.9480  174.2050  144.0980 C   0  0  0  0  0  3  0  0  0  0  0  0
  189.3970  174.3160  142.8170 O   0  0  0  0  0  0  0  0  0  0  0  0
  188.3630  173.4660  142.3140 C   0  0  2  0  0  3  0  0  0  0  0  0
  189.7960  171.9910  141.1020 O   0  0  0  0  0  0  0  0  0  0  0  0
  188.8030  172.7660  141.0640 C   0  0  0  0  0  0  0  0  0  0  0  0
  188.1140  172.9890  139.8690 O   0  0  0  0  0  0  0  0  0  0  0  0
  187.8980  174.6190  138.2720 O   0  0  0  0  0  1  0  0  0  0  0  0
  188.7320  173.6170  138.7560 C   0  0  0  0  0  2  0  0  0  0  0  0
  187.1570  174.1720  142.1150 O   0  0  0  0  0  0  0  0  0  0  0  0
  187.4630  175.4560  142.0800 O   0  0  0  0  0  0  0  0  0  0  0  0
  186.4370  176.0900  142.7870 C   0  0  0  0  0  2  0  0  0  0  0  0
  188.0710  177.8480  143.4390 C   0  0  0  0  0  1  0  0  0  0  0  0
  187.0260  176.8730  143.9480 C   0  0  1  0  0  3  0  0  0  0  0  0
  184.9710  178.2930  144.1450 C   0  0  0  0  0  3  0  0  0  0  0  0
  185.7450  177.5000  146.0020 C   0  0  0  0  0  0  0  0  0  0  0  0
  185.9720  177.5730  144.6800 N   0  0  0  0  0  0  0  0  0  0  0  0
  186.5880  176.7380  146.9650 C   0  0  0  0  0  1  0  0  0  0  0  0
  184.6130  178.2050  146.3440 C   0  0  0  0  0  3  0  0  0  0  0  0
  184.1170  178.7110  145.1520 C   0  0  0  0  0  3  0  0  0  0  0  0
  194.4310  171.2270  145.5270 C   0  0  0  0  0  2  0  0  0  0  0  0
  196.1520  169.9220  146.4800 O   0  0  0  0  0  0  0  0  0  0  0  0
  195.4980  170.1790  145.4830 C   0  0  0  0  0  0  0  0  0  0  0  0
  195.7190  169.3860  144.2320 C   0  0  0  0  0  2  0  0  0  0  0  0
  194.4740  169.4020  143.3580 C   0  0  0  0  0  2  0  0  0  0  0  0
  193.7490  170.3810  141.1490 C   0  0  0  0  0  0  0  0  0  0  0  0
  192.5340  170.1880  141.4290 O   0  0  0  0  0  0  0  0  0  0  0  0
  194.7760  169.9880  142.0600 N   0  0  0  0  0  2  0  0  0  0  0  0
  194.1170  171.0550  139.8670 C   0  0  0  0  0  2  0  0  0  0  0  0
  191.8550  171.6160  138.1470 C   0  0  0  0  0  1  0  0  0  0  0  0
  193.7660  173.1620  138.4590 C   0  0  2  0  0  3  0  0  0  0  0  0
  192.3660  172.8050  138.9470 C   0  0  2  0  0  3  0  0  0  0  0  0
  193.5800  172.4890  139.8210 C   0  0  1  0  0  0  0  0  0  0  0  0
  193.7570  173.3440  141.0450 C   0  0  0  0  0  0  0  0  0  0  0  0
  195.0340  173.6400  141.5050 O   0  0  0  0  0  0  0  0  0  0  0  0
  192.7530  173.7600  141.6800 O   0  0  0  0  0  1  0  0  0  0  0  0
  193.9320  174.6780  138.5240 C   0  0  0  0  0  2  0  0  0  0  0  0
  196.2320  175.2510  138.2620 O   0  0  0  0  0  1  0  0  0  0  0  0
  195.0250  175.1260  137.5740 C   0  0  0  0  0  2  0  0  0  0  0  0
  1  7  1  0  0  0  0
  2  6  1  0  0  0  0
  3 10  1  0  0  0  0
  3  1  2  0  0  0  0
  4  1  1  0  0  0  0
  4 34  1  1  0  0  0
  5  8  1  0  0  0  0
  6 12  1  0  0  0  0
  7  6  2  0  0  0  0
  8  9  2  0  0  0  0
  8  3  1  0  0  0  0
  9  4  1  0  0  0  0
 10  2  2  0  0  0  0
 12 11  1  1  0  0  0
 13 12  1  0  0  0  0
 14 13  1  0  0  0  0
 15 14  2  0  0  0  0
 16 15  1  0  0  0  0
 17 19  1  6  0  0  0
 17 16  1  0  0  0  0
 19 18  2  0  0  0  0
 20 19  1  0  0  0  0
 21 22  1  0  0  0  0
 22 20  1  0  0  0  0
 23 17  1  0  0  0  0
 24 23  1  0  0  0  0
 24 25  1  0  0  0  0
 25 27  1  0  0  0  0
 27 26  1  6  0  0  0
 27 30  1  0  0  0  0
 28 30  1  0  0  0  0
 28 33  2  0  0  0  0
 29 32  2  0  0  0  0
 29 31  1  0  0  0  0
 30 29  1  0  0  0  0
 33 32  1  0  0  0  0
 36 34  1  0  0  0  0
 36 35  2  0  0  0  0
 37 36  1  0  0  0  0
 38 37  1  0  0  0  0
 39 40  2  0  0  0  0
 39 41  1  0  0  0  0
 41 38  1  0  0  0  0
 42 39  1  0  0  0  0
 44 50  1  1  0  0  0
 44 45  1  0  0  0  0
 44 46  1  0  0  0  0
 45 43  1  6  0  0  0
 45 46  1  0  0  0  0
 46 42  1  1  0  0  0
 46 47  1  0  0  0  0
 47 48  2  0  0  0  0
 47 49  1  0  0  0  0
 52 51  1  0  0  0  0
 52 50  1  0  0  0  0
M  END
>  <MODEL>
5

>  <REMARK>
 VINA RESULT:      -5.3      2.368      4.611
  Name = 
  23 active torsions:
  status: ('A' for Active; 'I' for Inactive)
    1  A    between atoms: C_2  and  O_23
    2  A    between atoms: C_2  and  C_28
    3  A    between atoms: C_4  and  C_9
    4  A    between atoms: C_4  and  C_52
    5  A    between atoms: O_5  and  C_40
    6  A    between atoms: O_5  and  C_49
    7  A    between atoms: C_6  and  C_15
    8  A    between atoms: C_6  and  C_37
    9  A    between atoms: C_8  and  C_11
   10  A    between atoms: C_8  and  C_22
   11  A    between atoms: C_10  and  C_22
   12  A    between atoms: C_13  and  O_27
   13  A    between atoms: C_13  and  O_35
   14  A    between atoms: C_13  and  C_49
   15  A    between atoms: C_14  and  C_33
   16  A    between atoms: C_14  and  C_43
   17  A    between atoms: C_16  and  C_25
   18  A    between atoms: C_16  and  N_46
   19  A    between atoms: O_23  and  O_27
   20  A    between atoms: C_25  and  C_43
   21  A    between atoms: N_26  and  C_28
   22  A    between atoms: O_35  and  C_44
   23  A    between atoms: C_37  and  C_38
                            x       y       z     vdW  Elec       q    Type
                         _______ _______ _______ _____ _____    ______ ____

>  <TORSDO>
F 23

$$$$
=
 OpenBabel11042416003D

 52 55  0  0  1  0  0  0  0  0999 V2000
  194.2500  174.1170  145.5800 C   0  0  0  0  0  0  0  0  0  0  0  0
  193.4120  176.7970  145.8250 C   0  0  0  0  0  3  0  0  0  0  0  0
  195.0950  175.1490  145.0540 C   0  0  0  0  0  0  0  0  0  0  0  0
  194.9720  172.8800  145.3340 C   0  0  1  0  0  3  0  0  0  0  0  0
  197.2640  175.2140  143.9470 N   0  0  0  0  0  1  0  0  0  0  0  0
  192.6350  175.7860  146.2850 C   0  0  0  0  0  0  0  0  0  0  0  0
  193.0810  174.3650  146.1630 C   0  0  0  0  0  3  0  0  0  0  0  0
  196.1600  174.5440  144.5510 C   0  0  0  0  0  0  0  0  0  0  0  0
  196.0920  173.1220  144.7200 N   0  0  0  0  0  0  0  0  0  0  0  0
  194.7610  176.6050  145.1540 C   0  0  0  0  0  3  0  0  0  0  0  0
  191.4550  176.8140  148.2770 C   0  0  0  0  0  1  0  0  0  0  0  0
  191.3150  176.1430  146.9130 C   0  0  2  0  0  3  0  0  0  0  0  0
  190.4210  174.9120  147.0180 C   0  0  0  0  0  2  0  0  0  0  0  0
  189.2190  175.0380  146.1430 C   0  0  0  0  0  3  0  0  0  0  0  0
  189.0250  176.1350  145.4160 C   0  0  0  0  0  3  0  0  0  0  0  0
  187.9300  176.3070  144.5640 O   0  0  0  0  0  0  0  0  0  0  0  0
  187.5380  177.5650  144.0090 C   0  0  2  0  0  3  0  0  0  0  0  0
  185.2130  178.0910  143.8730 O   0  0  0  0  0  0  0  0  0  0  0  0
  186.2410  178.0320  144.6000 C   0  0  0  0  0  0  0  0  0  0  0  0
  186.1890  178.4050  145.9450 O   0  0  0  0  0  0  0  0  0  0  0  0
  185.0330  178.6340  147.9110 O   0  0  0  0  0  1  0  0  0  0  0  0
  185.3180  177.7630  146.8640 C   0  0  0  0  0  2  0  0  0  0  0  0
  187.4770  177.5180  142.6000 O   0  0  0  0  0  0  0  0  0  0  0  0
  187.1420  176.2840  142.2690 O   0  0  0  0  0  0  0  0  0  0  0  0
  187.8020  176.0450  141.0590 C   0  0  0  0  0  2  0  0  0  0  0  0
  188.5870  174.1800  139.6130 C   0  0  0  0  0  1  0  0  0  0  0  0
  188.3350  174.6230  141.0420 C   0  0  1  0  0  3  0  0  0  0  0  0
  190.4560  175.5000  142.0480 C   0  0  0  0  0  3  0  0  0  0  0  0
  189.9090  173.4870  142.6190 C   0  0  0  0  0  0  0  0  0  0  0  0
  189.5540  174.5240  141.8430 N   0  0  0  0  0  0  0  0  0  0  0  0
  189.1400  172.2170  142.7380 C   0  0  0  0  0  1  0  0  0  0  0  0
  191.0670  173.7660  143.3090 C   0  0  0  0  0  3  0  0  0  0  0  0
  191.4150  175.0570  142.9440 C   0  0  0  0  0  3  0  0  0  0  0  0
  194.5310  171.5070  145.7210 C   0  0  0  0  0  2  0  0  0  0  0  0
  195.1040  169.7990  144.1960 O   0  0  0  0  0  0  0  0  0  0  0  0
  194.2900  170.6470  144.5210 C   0  0  0  0  0  0  0  0  0  0  0  0
  193.0090  170.7720  143.7540 C   0  0  0  0  0  2  0  0  0  0  0  0
  192.7210  169.4960  142.9770 C   0  0  0  0  0  2  0  0  0  0  0  0
  193.3270  169.6840  140.5350 C   0  0  0  0  0  0  0  0  0  0  0  0
  194.5150  169.3330  140.7720 O   0  0  0  0  0  0  0  0  0  0  0  0
  192.3800  169.8100  141.5980 N   0  0  0  0  0  2  0  0  0  0  0  0
  192.8960  169.9390  139.1280 C   0  0  0  0  0  2  0  0  0  0  0  0
  190.0790  170.5830  138.9140 C   0  0  0  0  0  1  0  0  0  0  0  0
  191.8490  171.6770  137.5680 C   0  0  2  0  0  3  0  0  0  0  0  0
  191.0200  171.7770  138.8440 C   0  0  2  0  0  3  0  0  0  0  0  0
  192.5010  171.4060  138.9270 C   0  0  1  0  0  0  0  0  0  0  0  0
  193.4200  172.4610  139.4760 C   0  0  0  0  0  0  0  0  0  0  0  0
  192.9210  173.4410  140.3250 O   0  0  0  0  0  1  0  0  0  0  0  0
  194.6310  172.4880  139.1360 O   0  0  0  0  0  0  0  0  0  0  0  0
  192.0830  173.0850  137.0280 C   0  0  0  0  0  2  0  0  0  0  0  0
  192.8850  172.0050  135.0600 O   0  0  0  0  0  1  0  0  0  0  0  0
  192.1040  173.0670  135.5130 C   0  0  0  0  0  2  0  0  0  0  0  0
  1  7  1  0  0  0  0
  2  6  1  0  0  0  0
  3 10  1  0  0  0  0
  3  1  2  0  0  0  0
  4  1  1  0  0  0  0
  4 34  1  1  0  0  0
  5  8  1  0  0  0  0
  6 12  1  0  0  0  0
  7  6  2  0  0  0  0
  8  9  2  0  0  0  0
  8  3  1  0  0  0  0
  9  4  1  0  0  0  0
 10  2  2  0  0  0  0
 12 13  1  0  0  0  0
 12 11  1  1  0  0  0
 14 13  1  0  0  0  0
 15 14  2  0  0  0  0
 16 15  1  0  0  0  0
 17 23  1  6  0  0  0
 17 16  1  0  0  0  0
 17 19  1  0  0  0  0
 18 19  2  0  0  0  0
 19 20  1  0  0  0  0
 20 22  1  0  0  0  0
 22 21  1  0  0  0  0
 24 23  1  0  0  0  0
 25 24  1  0  0  0  0
 27 26  1  6  0  0  0
 27 25  1  0  0  0  0
 27 30  1  0  0  0  0
 28 33  2  0  0  0  0
 29 31  1  0  0  0  0
 29 32  2  0  0  0  0
 30 28  1  0  0  0  0
 30 29  1  0  0  0  0
 33 32  1  0  0  0  0
 35 36  2  0  0  0  0
 36 34  1  0  0  0  0
 37 36  1  0  0  0  0
 38 37  1  0  0  0  0
 39 40  2  0  0  0  0
 39 41  1  0  0  0  0
 41 38  1  0  0  0  0
 42 39  1  0  0  0  0
 44 50  1  1  0  0  0
 44 45  1  0  0  0  0
 44 46  1  0  0  0  0
 45 43  1  6  0  0  0
 45 46  1  0  0  0  0
 46 42  1  1  0  0  0
 46 47  1  0  0  0  0
 47 48  1  0  0  0  0
 49 47  2  0  0  0  0
 51 52  1  0  0  0  0
 52 50  1  0  0  0  0
M  END
>  <MODEL>
6

>  <REMARK>
 VINA RESULT:      -5.3      1.549      2.153
  Name = 
  23 active torsions:
  status: ('A' for Active; 'I' for Inactive)
    1  A    between atoms: C_2  and  O_23
    2  A    between atoms: C_2  and  C_28
    3  A    between atoms: C_4  and  C_9
    4  A    between atoms: C_4  and  C_52
    5  A    between atoms: O_5  and  C_40
    6  A    between atoms: O_5  and  C_49
    7  A    between atoms: C_6  and  C_15
    8  A    between atoms: C_6  and  C_37
    9  A    between atoms: C_8  and  C_11
   10  A    between atoms: C_8  and  C_22
   11  A    between atoms: C_10  and  C_22
   12  A    between atoms: C_13  and  O_27
   13  A    between atoms: C_13  and  O_35
   14  A    between atoms: C_13  and  C_49
   15  A    between atoms: C_14  and  C_33
   16  A    between atoms: C_14  and  C_43
   17  A    between atoms: C_16  and  C_25
   18  A    between atoms: C_16  and  N_46
   19  A    between atoms: O_23  and  O_27
   20  A    between atoms: C_25  and  C_43
   21  A    between atoms: N_26  and  C_28
   22  A    between atoms: O_35  and  C_44
   23  A    between atoms: C_37  and  C_38
                            x       y       z     vdW  Elec       q    Type
                         _______ _______ _______ _____ _____    ______ ____

>  <TORSDO>
F 23

$$$$
=
 OpenBabel11042416003D

 52 55  0  0  1  0  0  0  0  0999 V2000
  194.5690  174.0220  145.4480 C   0  0  0  0  0  0  0  0  0  0  0  0
  193.4500  176.5700  145.8950 C   0  0  0  0  0  3  0  0  0  0  0  0
  195.2960  175.1760  145.0040 C   0  0  0  0  0  0  0  0  0  0  0  0
  195.4180  172.8920  145.1090 C   0  0  1  0  0  3  0  0  0  0  0  0
  197.4390  175.5570  143.9100 N   0  0  0  0  0  1  0  0  0  0  0  0
  192.7890  175.4500  146.2740 C   0  0  0  0  0  0  0  0  0  0  0  0
  193.3840  174.0980  146.0450 C   0  0  0  0  0  3  0  0  0  0  0  0
  196.4170  174.7290  144.4590 C   0  0  0  0  0  0  0  0  0  0  0  0
  196.5020  173.2990  144.5190 N   0  0  0  0  0  0  0  0  0  0  0  0
  194.8080  176.5750  145.2140 C   0  0  0  0  0  3  0  0  0  0  0  0
  191.4510  175.3120  148.4200 C   0  0  0  0  0  1  0  0  0  0  0  0
  191.4420  175.6140  146.9250 C   0  0  2  0  0  3  0  0  0  0  0  0
  190.3970  174.7560  146.2180 C   0  0  0  0  0  2  0  0  0  0  0  0
  190.2450  175.1540  144.7880 C   0  0  0  0  0  3  0  0  0  0  0  0
  189.2370  174.6820  144.0590 C   0  0  0  0  0  3  0  0  0  0  0  0
  189.0300  175.0290  142.7200 O   0  0  0  0  0  0  0  0  0  0  0  0
  188.1590  176.0780  142.2910 C   0  0  2  0  0  3  0  0  0  0  0  0
  188.3790  178.3070  141.4660 O   0  0  0  0  0  0  0  0  0  0  0  0
  188.9130  177.3600  142.1030 C   0  0  0  0  0  0  0  0  0  0  0  0
  190.2000  177.4860  142.6290 O   0  0  0  0  0  0  0  0  0  0  0  0
  191.4930  179.1310  143.5660 O   0  0  0  0  0  1  0  0  0  0  0  0
  190.4550  178.2370  143.8070 C   0  0  0  0  0  2  0  0  0  0  0  0
  187.0680  176.2430  143.1710 O   0  0  0  0  0  0  0  0  0  0  0  0
  186.0710  176.7400  142.4610 O   0  0  0  0  0  0  0  0  0  0  0  0
  185.2160  177.3240  143.4020 C   0  0  0  0  0  2  0  0  0  0  0  0
  185.5990  179.7800  143.5110 C   0  0  0  0  0  1  0  0  0  0  0  0
  185.9460  178.4390  144.1310 C   0  0  1  0  0  3  0  0  0  0  0  0
  184.5490  178.9990  146.1340 C   0  0  0  0  0  3  0  0  0  0  0  0
  186.2470  177.7100  146.5050 C   0  0  0  0  0  0  0  0  0  0  0  0
  185.6160  178.4210  145.5550 N   0  0  0  0  0  0  0  0  0  0  0  0
  187.4500  176.8650  146.2700 C   0  0  0  0  0  1  0  0  0  0  0  0
  185.6150  177.8490  147.7200 C   0  0  0  0  0  3  0  0  0  0  0  0
  184.5260  178.6730  147.4810 C   0  0  0  0  0  3  0  0  0  0  0  0
  195.1290  171.4550  145.3890 C   0  0  0  0  0  2  0  0  0  0  0  0
  193.0750  171.0700  144.2900 O   0  0  0  0  0  0  0  0  0  0  0  0
  194.2740  170.8460  144.3230 C   0  0  0  0  0  0  0  0  0  0  0  0
  194.8990  170.0150  143.2430 C   0  0  0  0  0  2  0  0  0  0  0  0
  195.2660  170.8780  142.0450 C   0  0  0  0  0  2  0  0  0  0  0  0
  193.9510  171.9640  140.1860 C   0  0  0  0  0  0  0  0  0  0  0  0
  194.6450  173.0140  140.2680 O   0  0  0  0  0  0  0  0  0  0  0  0
  194.1910  170.8630  141.0640 N   0  0  0  0  0  2  0  0  0  0  0  0
  192.8870  171.8570  139.1420 C   0  0  0  0  0  2  0  0  0  0  0  0
  191.4400  169.3540  138.9680 C   0  0  0  0  0  1  0  0  0  0  0  0
  190.3730  171.5800  138.7530 C   0  0  2  0  0  3  0  0  0  0  0  0
  190.7230  170.4610  139.7270 C   0  0  2  0  0  3  0  0  0  0  0  0
  191.4950  171.7790  139.7760 C   0  0  1  0  0  0  0  0  0  0  0  0
  191.2070  172.6720  140.9500 C   0  0  0  0  0  0  0  0  0  0  0  0
  191.3340  174.0500  140.8210 O   0  0  0  0  0  0  0  0  0  0  0  0
  190.8930  172.1770  142.0630 O   0  0  0  0  0  1  0  0  0  0  0  0
  189.0320  172.1820  139.1630 C   0  0  0  0  0  2  0  0  0  0  0  0
  189.7340  173.9930  137.7800 O   0  0  0  0  0  1  0  0  0  0  0  0
  188.6180  173.2570  138.1790 C   0  0  0  0  0  2  0  0  0  0  0  0
  1  7  1  0  0  0  0
  2  6  1  0  0  0  0
  3 10  1  0  0  0  0
  3  1  2  0  0  0  0
  4 34  1  1  0  0  0
  4  1  1  0  0  0  0
  5  8  1  0  0  0  0
  6 12  1  0  0  0  0
  7  6  2  0  0  0  0
  8  9  2  0  0  0  0
  8  3  1  0  0  0  0
  9  4  1  0  0  0  0
 10  2  2  0  0  0  0
 12 11  1  1  0  0  0
 13 12  1  0  0  0  0
 14 13  1  0  0  0  0
 15 14  2  0  0  0  0
 16 15  1  0  0  0  0
 17 19  1  1  0  0  0
 17 16  1  0  0  0  0
 17 23  1  0  0  0  0
 18 19  2  0  0  0  0
 19 20  1  0  0  0  0
 20 22  1  0  0  0  0
 21 22  1  0  0  0  0
 24 23  1  0  0  0  0
 24 25  1  0  0  0  0
 25 27  1  0  0  0  0
 27 26  1  6  0  0  0
 27 30  1  0  0  0  0
 28 33  2  0  0  0  0
 29 32  2  0  0  0  0
 30 28  1  0  0  0  0
 30 29  1  0  0  0  0
 31 29  1  0  0  0  0
 33 32  1  0  0  0  0
 35 36  2  0  0  0  0
 36 34  1  0  0  0  0
 37 36  1  0  0  0  0
 38 37  1  0  0  0  0
 39 40  2  0  0  0  0
 39 41  1  0  0  0  0
 41 38  1  0  0  0  0
 42 39  1  0  0  0  0
 44 50  1  1  0  0  0
 44 45  1  0  0  0  0
 44 46  1  0  0  0  0
 45 43  1  6  0  0  0
 45 46  1  0  0  0  0
 46 42  1  6  0  0  0
 46 47  1  0  0  0  0
 47 49  1  0  0  0  0
 48 47  2  0  0  0  0
 51 52  1  0  0  0  0
 52 50  1  0  0  0  0
M  END
>  <MODEL>
7

>  <REMARK>
 VINA RESULT:      -5.1      2.009      3.918
  Name = 
  23 active torsions:
  status: ('A' for Active; 'I' for Inactive)
    1  A    between atoms: C_2  and  O_23
    2  A    between atoms: C_2  and  C_28
    3  A    between atoms: C_4  and  C_9
    4  A    between atoms: C_4  and  C_52
    5  A    between atoms: O_5  and  C_40
    6  A    between atoms: O_5  and  C_49
    7  A    between atoms: C_6  and  C_15
    8  A    between atoms: C_6  and  C_37
    9  A    between atoms: C_8  and  C_11
   10  A    between atoms: C_8  and  C_22
   11  A    between atoms: C_10  and  C_22
   12  A    between atoms: C_13  and  O_27
   13  A    between atoms: C_13  and  O_35
   14  A    between atoms: C_13  and  C_49
   15  A    between atoms: C_14  and  C_33
   16  A    between atoms: C_14  and  C_43
   17  A    between atoms: C_16  and  C_25
   18  A    between atoms: C_16  and  N_46
   19  A    between atoms: O_23  and  O_27
   20  A    between atoms: C_25  and  C_43
   21  A    between atoms: N_26  and  C_28
   22  A    between atoms: O_35  and  C_44
   23  A    between atoms: C_37  and  C_38
                            x       y       z     vdW  Elec       q    Type
                         _______ _______ _______ _____ _____    ______ ____

>  <TORSDO>
F 23

$$$$
=
 OpenBabel11042416003D

 52 55  0  0  1  0  0  0  0  0999 V2000
  186.8850  177.3490  145.4210 C   0  0  0  0  0  0  0  0  0  0  0  0
  185.8520  178.9080  143.3130 C   0  0  0  0  0  3  0  0  0  0  0  0
  185.7860  178.2290  145.6960 C   0  0  0  0  0  0  0  0  0  0  0  0
  187.1480  176.6740  146.6810 C   0  0  0  0  0  0  0  0  0  0  0  0
  184.4340  178.7510  147.6540 N   0  0  0  0  0  1  0  0  0  0  0  0
  186.9050  178.0810  143.1080 C   0  0  0  0  0  0  0  0  0  0  0  0
  187.4490  177.2480  144.2220 C   0  0  0  0  0  3  0  0  0  0  0  0
  185.4890  178.0720  146.9770 C   0  0  0  0  0  0  0  0  0  0  0  0
  186.3380  177.1010  147.6030 N   0  0  0  0  0  0  0  0  0  0  0  0
  185.1440  179.0800  144.6470 C   0  0  0  0  0  2  0  0  0  0  0  0
  186.4670  177.8930  140.6200 C   0  0  0  0  0  1  0  0  0  0  0  0
  187.5050  178.0360  141.7280 C   0  0  2  0  0  3  0  0  0  0  0  0
  188.5420  176.9210  141.6310 C   0  0  0  0  0  2  0  0  0  0  0  0
  187.9690  175.7030  140.9860 C   0  0  0  0  0  3  0  0  0  0  0  0
  188.5770  174.5260  141.1090 C   0  0  0  0  0  3  0  0  0  0  0  0
  188.0830  173.3450  140.5440 O   0  0  0  0  0  0  0  0  0  0  0  0
  188.9080  172.2670  140.0940 C   0  0  2  0  0  3  0  0  0  0  0  0
  191.0470  173.2870  140.3840 O   0  0  0  0  0  0  0  0  0  0  0  0
  190.2740  172.3450  140.7070 C   0  0  0  0  0  0  0  0  0  0  0  0
  190.6770  171.3690  141.6210 O   0  0  0  0  0  0  0  0  0  0  0  0
  189.8110  172.5390  143.3910 O   0  0  0  0  0  1  0  0  0  0  0  0
  190.8110  171.6520  143.0060 C   0  0  0  0  0  2  0  0  0  0  0  0
  188.9750  172.2130  138.6860 O   0  0  0  0  0  0  0  0  0  0  0  0
  188.2060  173.1830  138.2250 O   0  0  0  0  0  0  0  0  0  0  0  0
  188.9090  173.7150  137.1400 C   0  0  0  0  0  2  0  0  0  0  0  0
  189.7180  172.2270  135.3180 C   0  0  0  0  0  1  0  0  0  0  0  0
  190.0000  172.7470  136.7150 C   0  0  1  0  0  3  0  0  0  0  0  0
  191.5680  174.6960  136.5730 C   0  0  0  0  0  3  0  0  0  0  0  0
  192.4560  172.8200  137.1850 C   0  0  0  0  0  0  0  0  0  0  0  0
  191.3100  173.3920  136.7780 N   0  0  0  0  0  0  0  0  0  0  0  0
  192.5940  171.3900  137.5790 C   0  0  0  0  0  1  0  0  0  0  0  0
  193.4790  173.7410  137.2140 C   0  0  0  0  0  3  0  0  0  0  0  0
  192.9080  174.9420  136.8230 C   0  0  0  0  0  3  0  0  0  0  0  0
  188.1850  175.6280  146.9240 C   0  0  0  0  0  2  0  0  0  0  0  0
  189.7400  177.3730  147.2550 O   0  0  0  0  0  0  0  0  0  0  0  0
  189.5630  176.2090  146.9340 C   0  0  0  0  0  0  0  0  0  0  0  0
  190.7450  175.3430  146.6200 C   0  0  0  0  0  2  0  0  0  0  0  0
  192.0430  176.1130  146.8160 C   0  0  0  0  0  2  0  0  0  0  0  0
  194.4580  175.8910  146.1220 C   0  0  0  0  0  0  0  0  0  0  0  0
  194.6370  177.1340  146.2380 O   0  0  0  0  0  0  0  0  0  0  0  0
  193.1750  175.3140  146.3720 N   0  0  0  0  0  2  0  0  0  0  0  0
  195.6050  175.0080  145.7510 C   0  0  0  0  0  2  0  0  0  0  0  0
  194.5390  172.5500  144.6490 C   0  0  0  0  0  1  0  0  0  0  0  0
  196.5990  173.6510  143.8220 C   0  0  2  0  0  3  0  0  0  0  0  0
  195.0920  173.5290  143.6240 C   0  0  2  0  0  3  0  0  0  0  0  0
  195.6770  174.8020  144.2340 C   0  0  1  0  0  0  0  0  0  0  0  0
  195.6640  176.0240  143.3590 C   0  0  0  0  0  0  0  0  0  0  0  0
  196.6430  176.9970  143.5130 O   0  0  0  0  0  1  0  0  0  0  0  0
  194.7460  176.1910  142.5150 O   0  0  0  0  0  0  0  0  0  0  0  0
  197.2580  173.8300  142.4570 C   0  0  0  0  0  2  0  0  0  0  0  0
  195.9770  173.1490  140.5650 O   0  0  0  0  0  1  0  0  0  0  0  0
  196.8690  172.6920  141.5350 C   0  0  0  0  0  2  0  0  0  0  0  0
  1  3  1  0  0  0  0
  1  4  1  0  0  0  0
  2 10  1  0  0  0  0
  3  8  2  0  0  0  0
  4 34  1  0  0  0  0
  4  9  2  0  0  0  0
  6  2  2  0  0  0  0
  6  7  1  0  0  0  0
  7  1  2  0  0  0  0
  8  9  1  0  0  0  0
  8  5  1  0  0  0  0
 10  3  1  0  0  0  0
 12 11  1  6  0  0  0
 12  6  1  0  0  0  0
 13 12  1  0  0  0  0
 14 15  2  0  0  0  0
 14 13  1  0  0  0  0
 16 15  1  0  0  0  0
 17 23  1  6  0  0  0
 17 16  1  0  0  0  0
 17 19  1  0  0  0  0
 18 19  2  0  0  0  0
 19 20  1  0  0  0  0
 20 22  1  0  0  0  0
 22 21  1  0  0  0  0
 24 23  1  0  0  0  0
 25 24  1  0  0  0  0
 27 26  1  6  0  0  0
 27 30  1  0  0  0  0
 27 25  1  0  0  0  0
 28 30  1  0  0  0  0
 28 33  2  0  0  0  0
 29 32  2  0  0  0  0
 29 31  1  0  0  0  0
 30 29  1  0  0  0  0
 33 32  1  0  0  0  0
 34 36  1  0  0  0  0
 36 35  2  0  0  0  0
 37 38  1  0  0  0  0
 37 36  1  0  0  0  0
 39 40  2  0  0  0  0
 39 41  1  0  0  0  0
 41 38  1  0  0  0  0
 42 39  1  0  0  0  0
 44 50  1  6  0  0  0
 44 46  1  0  0  0  0
 45 44  1  0  0  0  0
 45 46  1  0  0  0  0
 45 43  1  1  0  0  0
 46 42  1  1  0  0  0
 47 48  1  0  0  0  0
 47 46  1  0  0  0  0
 49 47  2  0  0  0  0
 51 52  1  0  0  0  0
 52 50  1  0  0  0  0
M  END
>  <MODEL>
8

>  <REMARK>
 VINA RESULT:      -5.0      2.938      8.122
  Name = 
  23 active torsions:
  status: ('A' for Active; 'I' for Inactive)
    1  A    between atoms: C_2  and  O_23
    2  A    between atoms: C_2  and  C_28
    3  A    between atoms: C_4  and  C_9
    4  A    between atoms: C_4  and  C_52
    5  A    between atoms: O_5  and  C_40
    6  A    between atoms: O_5  and  C_49
    7  A    between atoms: C_6  and  C_15
    8  A    between atoms: C_6  and  C_37
    9  A    between atoms: C_8  and  C_11
   10  A    between atoms: C_8  and  C_22
   11  A    between atoms: C_10  and  C_22
   12  A    between atoms: C_13  and  O_27
   13  A    between atoms: C_13  and  O_35
   14  A    between atoms: C_13  and  C_49
   15  A    between atoms: C_14  and  C_33
   16  A    between atoms: C_14  and  C_43
   17  A    between atoms: C_16  and  C_25
   18  A    between atoms: C_16  and  N_46
   19  A    between atoms: O_23  and  O_27
   20  A    between atoms: C_25  and  C_43
   21  A    between atoms: N_26  and  C_28
   22  A    between atoms: O_35  and  C_44
   23  A    between atoms: C_37  and  C_38
                            x       y       z     vdW  Elec       q    Type
                         _______ _______ _______ _____ _____    ______ ____

>  <TORSDO>
F 23

$$$$
=
 OpenBabel11042416003D

 52 55  0  0  1  0  0  0  0  0999 V2000
  194.0070  174.1200  145.0110 C   0  0  0  0  0  0  0  0  0  0  0  0
  193.0940  176.4970  146.2190 C   0  0  0  0  0  3  0  0  0  0  0  0
  194.7980  175.3080  144.8680 C   0  0  2  0  0  3  0  0  0  0  0  0
  194.7580  173.0850  144.3210 C   0  0  0  0  0  0  0  0  0  0  0  0
  196.9200  175.8560  143.8060 N   0  0  0  0  0  1  0  0  0  0  0  0
  192.3680  175.3560  146.3050 C   0  0  0  0  0  0  0  0  0  0  0  0
  192.8540  174.0930  145.6720 C   0  0  0  0  0  3  0  0  0  0  0  0
  195.8620  174.9680  144.1570 C   0  0  0  0  0  0  0  0  0  0  0  0
  195.8460  173.5780  143.8080 N   0  0  0  0  0  0  0  0  0  0  0  0
  194.4220  176.6160  145.4910 C   0  0  0  0  0  3  0  0  0  0  0  0
  190.0130  174.4450  146.5030 C   0  0  0  0  0  1  0  0  0  0  0  0
  191.0620  175.4080  147.0510 C   0  0  2  0  0  3  0  0  0  0  0  0
  190.5130  176.8310  147.0740 C   0  0  0  0  0  2  0  0  0  0  0  0
  189.0250  176.8410  146.9740 C   0  0  0  0  0  3  0  0  0  0  0  0
  188.4210  177.4240  145.9420 C   0  0  0  0  0  3  0  0  0  0  0  0
  187.0320  177.4520  145.7810 O   0  0  0  0  0  0  0  0  0  0  0  0
  186.3750  177.6260  144.5230 C   0  0  2  0  0  3  0  0  0  0  0  0
  185.6140  179.8680  144.2180 O   0  0  0  0  0  0  0  0  0  0  0  0
  185.3340  178.7020  144.6050 C   0  0  0  0  0  0  0  0  0  0  0  0
  184.0700  178.4010  145.1170 O   0  0  0  0  0  0  0  0  0  0  0  0
  184.6610  178.3150  147.3300 O   0  0  0  0  0  1  0  0  0  0  0  0
  183.6940  178.7640  146.4380 C   0  0  0  0  0  2  0  0  0  0  0  0
  185.8300  176.4150  144.0470 O   0  0  0  0  0  0  0  0  0  0  0  0
  186.1200  176.3410  142.7600 O   0  0  0  0  0  0  0  0  0  0  0  0
  187.2160  175.4750  142.6870 C   0  0  0  0  0  2  0  0  0  0  0  0
  187.4700  176.9090  140.6700 C   0  0  0  0  0  1  0  0  0  0  0  0
  188.1810  175.9640  141.6210 C   0  0  1  0  0  3  0  0  0  0  0  0
  189.4420  177.9150  142.5600 C   0  0  0  0  0  3  0  0  0  0  0  0
  190.4330  175.9990  142.7090 C   0  0  0  0  0  0  0  0  0  0  0  0
  189.3370  176.6140  142.2370 N   0  0  0  0  0  0  0  0  0  0  0  0
  190.6860  174.5330  142.6180 C   0  0  0  0  0  1  0  0  0  0  0  0
  191.2790  176.9010  143.3130 C   0  0  0  0  0  3  0  0  0  0  0  0
  190.6420  178.1280  143.2180 C   0  0  0  0  0  3  0  0  0  0  0  0
  194.3770  171.6460  144.2020 C   0  0  0  0  0  2  0  0  0  0  0  0
  195.8190  170.3680  142.8380 O   0  0  0  0  0  0  0  0  0  0  0  0
  194.8190  171.0650  142.8960 C   0  0  0  0  0  0  0  0  0  0  0  0
  193.9950  171.2740  141.6630 C   0  0  0  0  0  2  0  0  0  0  0  0
  192.6880  170.5000  141.7520 C   0  0  0  0  0  2  0  0  0  0  0  0
  190.7320  170.9570  140.2260 C   0  0  0  0  0  0  0  0  0  0  0  0
  190.0640  171.4440  141.1790 O   0  0  0  0  0  0  0  0  0  0  0  0
  192.0460  170.4420  140.4480 N   0  0  0  0  0  2  0  0  0  0  0  0
  190.1580  170.9460  138.8470 C   0  0  0  0  0  2  0  0  0  0  0  0
  191.6960  170.5470  136.4240 C   0  0  0  0  0  1  0  0  0  0  0  0
  192.1150  172.3820  138.0360 C   0  0  2  0  0  3  0  0  0  0  0  0
  191.3810  171.9980  136.7560 C   0  0  2  0  0  3  0  0  0  0  0  0
  190.5970  172.1820  138.0550 C   0  0  1  0  0  0  0  0  0  0  0  0
  189.7390  173.4130  138.1430 C   0  0  0  0  0  0  0  0  0  0  0  0
  189.3150  174.0470  136.9830 O   0  0  0  0  0  0  0  0  0  0  0  0
  189.4380  173.8980  139.2650 O   0  0  0  0  0  1  0  0  0  0  0  0
  192.5570  173.8380  137.9270 C   0  0  0  0  0  2  0  0  0  0  0  0
  194.1540  175.3140  138.9050 O   0  0  0  0  0  1  0  0  0  0  0  0
  193.9610  174.0020  138.4720 C   0  0  0  0  0  2  0  0  0  0  0  0
  1  7  1  0  0  0  0
  2  6  1  0  0  0  0
  3  1  1  0  0  0  0
  3 10  1  1  0  0  0
  4  1  2  0  0  0  0
  5  8  1  0  0  0  0
  6 12  1  0  0  0  0
  7  6  2  0  0  0  0
  8  3  1  0  0  0  0
  9  8  2  0  0  0  0
  9  4  1  0  0  0  0
 10  2  2  0  0  0  0
 12 11  1  6  0  0  0
 12 13  1  0  0  0  0
 14 13  1  0  0  0  0
 15 14  2  0  0  0  0
 16 15  1  0  0  0  0
 17 23  1  1  0  0  0
 17 19  1  0  0  0  0
 17 16  1  0  0  0  0
 18 19  2  0  0  0  0
 19 20  1  0  0  0  0
 20 22  1  0  0  0  0
 22 21  1  0  0  0  0
 24 23  1  0  0  0  0
 25 24  1  0  0  0  0
 27 26  1  6  0  0  0
 27 30  1  0  0  0  0
 27 25  1  0  0  0  0
 28 33  2  0  0  0  0
 29 32  2  0  0  0  0
 30 28  1  0  0  0  0
 30 29  1  0  0  0  0
 31 29  1  0  0  0  0
 33 32  1  0  0  0  0
 34  4  1  0  0  0  0
 35 36  2  0  0  0  0
 36 34  1  0  0  0  0
 37 38  1  0  0  0  0
 37 36  1  0  0  0  0
 39 41  1  0  0  0  0
 39 40  2  0  0  0  0
 41 38  1  0  0  0  0
 42 39  1  0  0  0  0
 44 50  1  6  0  0  0
 44 46  1  0  0  0  0
 45 43  1  1  0  0  0
 45 44  1  0  0  0  0
 45 46  1  0  0  0  0
 46 47  1  0  0  0  0
 46 42  1  1  0  0  0
 47 49  1  0  0  0  0
 48 47  2  0  0  0  0
 50 52  1  0  0  0  0
 52 51  1  0  0  0  0
M  END
>  <MODEL>
9

>  <REMARK>
 VINA RESULT:      -5.0      1.474      2.481
  Name = 
  23 active torsions:
  status: ('A' for Active; 'I' for Inactive)
    1  A    between atoms: C_2  and  O_23
    2  A    between atoms: C_2  and  C_28
    3  A    between atoms: C_4  and  C_9
    4  A    between atoms: C_4  and  C_52
    5  A    between atoms: O_5  and  C_40
    6  A    between atoms: O_5  and  C_49
    7  A    between atoms: C_6  and  C_15
    8  A    between atoms: C_6  and  C_37
    9  A    between atoms: C_8  and  C_11
   10  A    between atoms: C_8  and  C_22
   11  A    between atoms: C_10  and  C_22
   12  A    between atoms: C_13  and  O_27
   13  A    between atoms: C_13  and  O_35
   14  A    between atoms: C_13  and  C_49
   15  A    between atoms: C_14  and  C_33
   16  A    between atoms: C_14  and  C_43
   17  A    between atoms: C_16  and  C_25
   18  A    between atoms: C_16  and  N_46
   19  A    between atoms: O_23  and  O_27
   20  A    between atoms: C_25  and  C_43
   21  A    between atoms: N_26  and  C_28
   22  A    between atoms: O_35  and  C_44
   23  A    between atoms: C_37  and  C_38
                            x       y       z     vdW  Elec       q    Type
                         _______ _______ _______ _____ _____    ______ ____

>  <TORSDO>
F 23

$$$$
