=
 OpenBabel11042417343D

 68 74  0  0  1  0  0  0  0  0999 V2000
  186.3870  177.9880  142.0610 C   0  0  1  0  0  3  0  0  0  0  0  0
  188.0000  173.9810  141.9590 C   0  0  0  0  0  2  0  0  0  0  0  0
  187.8490  174.5960  143.3440 C   0  0  0  0  0  2  0  0  0  0  0  0
  188.6010  174.9940  140.9650 C   0  0  2  0  0  3  0  0  0  0  0  0
  186.8370  175.7530  143.3190 C   0  0  0  0  0  2  0  0  0  0  0  0
  188.2590  176.4450  141.3210 C   0  0  0  0  0  2  0  0  0  0  0  0
  186.8900  176.5350  141.9920 C   0  0  2  0  0  3  0  0  0  0  0  0
  188.1060  174.6860  139.5590 C   0  0  0  0  0  2  0  0  0  0  0  0
  188.5990  173.3420  139.0620 C   0  0  0  0  0  2  0  0  0  0  0  0
  190.6040  172.5030  137.8370 C   0  0  1  0  0  0  0  0  0  0  0  0
  189.5080  173.5060  137.8500 C   0  0  1  0  0  3  0  0  0  0  0  0
  190.7020  171.5760  138.8890 O   0  0  0  0  0  1  0  0  0  0  0  0
  189.4530  172.3360  137.0520 O   0  0  0  0  0  0  0  0  0  0  0  0
  191.7650  172.8140  137.0990 O   0  0  0  0  0  0  0  0  0  0  0  0
  192.3210  173.9980  137.6360 C   0  0  2  0  0  3  0  0  0  0  0  0
  193.2480  176.0560  136.7960 O   0  0  0  0  0  1  0  0  0  0  0  0
  192.8800  174.8710  136.5490 C   0  0  0  0  0  0  0  0  0  0  0  0
  192.9750  174.3760  135.2560 O   0  0  0  0  0  0  0  0  0  0  0  0
  193.4510  174.7470  139.6790 O   0  0  0  0  0  1  0  0  0  0  0  0
  193.3310  173.6870  138.7740 C   0  0  2  0  0  3  0  0  0  0  0  0
  196.5080  175.0270  142.2620 N   0  0  0  0  0  0  0  0  0  0  0  0
  196.8620  173.7760  142.9130 C   0  0  0  0  0  2  0  0  0  0  0  0
  196.3840  173.8580  140.1330 C   0  0  1  0  0  0  0  0  0  0  0  0
  194.8930  170.5580  140.8150 O   0  0  0  0  0  0  0  0  0  0  0  0
  194.9210  171.7230  138.7320 C   0  0  0  0  0  2  0  0  0  0  0  0
  195.8570  174.0850  138.7690 C   0  0  2  0  0  0  0  0  0  0  0  0
  197.1840  176.0940  142.9810 C   0  0  0  0  0  1  0  0  0  0  0  0
  195.2180  171.6110  140.1990 C   0  0  0  0  0  0  0  0  0  0  0  0
  194.7040  173.1800  138.2970 C   0  0  2  0  0  3  0  0  0  0  0  0
  195.9370  172.6650  140.8790 N   0  0  0  0  0  0  0  0  0  0  0  0
  197.1150  173.4830  138.9860 O   0  0  0  0  0  0  0  0  0  0  0  0
  197.0680  174.9750  140.9190 C   0  0  0  0  0  2  0  0  0  0  0  0
  195.9830  175.3720  138.2430 O   0  0  0  0  0  1  0  0  0  0  0  0
  196.0190  172.6260  142.3440 C   0  0  0  0  0  2  0  0  0  0  0  0
  186.3340  178.5700  140.7780 O   0  0  0  0  0  0  0  0  0  0  0  0
  185.9950  177.5250  139.9060 C   0  0  0  0  0  1  0  0  0  0  0  0
  185.0760  178.2150  142.8410 C   0  0  1  0  0  3  0  0  0  0  0  0
  183.9160  177.6300  142.0490 C   0  0  0  0  0  2  0  0  0  0  0  0
  182.9310  178.7330  141.6970 C   0  0  0  0  0  2  0  0  0  0  0  0
  182.2250  178.3870  140.4690 N   0  0  0  0  0  2  0  0  0  0  0  0
  180.5000  178.5800  140.7410 P   0  0  1  0  0  0  0  0  0  0  0  0
  178.8480  178.2800  142.5860 C   0  0  0  0  0  2  0  0  0  0  0  0
  177.7570  177.3540  142.0360 C   0  0  0  0  0  2  0  0  0  0  0  0
  178.2790  177.8130  139.8750 C   0  0  0  0  0  2  0  0  0  0  0  0
  179.6190  177.8410  139.4690 O   0  0  0  0  0  0  0  0  0  0  0  0
  178.0910  176.7700  140.7940 O   0  0  0  0  0  0  0  0  0  0  0  0
  180.1220  177.8290  142.2270 O   0  0  0  0  0  0  0  0  0  0  0  0
  180.1820  180.0610  140.8050 O   0  0  0  0  0  0  0  0  0  0  0  0
  185.1170  177.5870  144.2300 C   0  0  0  0  0  2  0  0  0  0  0  0
  185.3400  178.6300  145.2200 N   0  0  0  0  0  2  0  0  0  0  0  0
  185.8860  178.3690  146.5060 C   0  0  0  0  0  0  0  0  0  0  0  0
  185.9560  179.3160  147.3350 O   0  0  0  0  0  0  0  0  0  0  0  0
  186.3380  177.0090  146.8710 C   0  0  0  0  0  3  0  0  0  0  0  0
  187.6040  176.5780  146.9350 C   0  0  0  0  0  3  0  0  0  0  0  0
  188.7980  177.4280  146.6530 C   0  0  0  0  0  2  0  0  0  0  0  0
  188.9660  177.6010  145.1510 C   0  0  0  0  0  2  0  0  0  0  0  0
  190.3200  177.8340  144.8780 O   0  0  0  0  0  0  0  0  0  0  0  0
  191.4230  177.4780  142.8630 O   0  0  0  0  0  1  0  0  0  0  0  0
  190.7620  176.8740  143.9380 C   0  0  1  0  0  3  0  0  0  0  0  0
  191.5690  175.8930  144.5350 O   0  0  0  0  0  0  0  0  0  0  0  0
  193.8070  176.3050  144.3060 O   0  0  0  0  0  1  0  0  0  0  0  0
  192.6760  175.7570  143.6950 C   0  0  1  0  0  3  0  0  0  0  0  0
  192.9230  174.2760  143.4320 C   0  0  1  0  0  3  0  0  0  0  0  0
  192.0190  173.4960  144.1810 O   0  0  0  0  0  0  0  0  0  0  0  0
  191.7340  173.6660  142.8100 C   0  0  2  0  0  3  0  0  0  0  0  0
  192.1400  172.4150  142.0590 C   0  0  0  0  0  2  0  0  0  0  0  0
  191.4670  171.2170  142.6940 C   0  0  0  0  0  2  0  0  0  0  0  0
  190.0760  171.1590  142.2720 N   0  0  0  0  0  1  0  0  0  0  0  0
  1 35  1  6  0  0  0
  1 37  1  0  0  0  0
  2  3  1  0  0  0  0
  4  8  1  6  0  0  0
  4  6  1  0  0  0  0
  4  2  1  0  0  0  0
  5  3  1  0  0  0  0
  6  7  1  0  0  0  0
  7  1  1  1  0  0  0
  7  5  1  0  0  0  0
  9  8  1  0  0  0  0
 10 11  1  0  0  0  0
 10 12  1  1  0  0  0
 11  9  1  1  0  0  0
 13 10  1  0  0  0  0
 13 11  1  0  0  0  0
 14 15  1  0  0  0  0
 14 10  1  0  0  0  0
 15 17  1  6  0  0  0
 15 20  1  0  0  0  0
 17 16  1  0  0  0  0
 18 17  2  0  0  0  0
 20 19  1  6  0  0  0
 21 22  1  0  0  0  0
 21 27  1  0  0  0  0
 23 30  1  0  0  0  0
 23 32  1  1  0  0  0
 25 28  1  0  0  0  0
 26 33  1  6  0  0  0
 26 31  1  0  0  0  0
 26 23  1  0  0  0  0
 28 24  2  0  0  0  0
 28 30  1  0  0  0  0
 29 25  1  0  0  0  0
 29 26  1  0  0  0  0
 29 20  1  1  0  0  0
 30 34  1  0  0  0  0
 31 23  1  0  0  0  0
 32 21  1  0  0  0  0
 34 22  1  0  0  0  0
 36 35  1  0  0  0  0
 37 38  1  6  0  0  0
 37 49  1  0  0  0  0
 39 38  1  0  0  0  0
 40 41  1  0  0  0  0
 40 39  1  0  0  0  0
 41 48  2  1  0  0  0
 41 47  1  0  0  0  0
 43 42  1  0  0  0  0
 44 46  1  0  0  0  0
 45 44  1  0  0  0  0
 45 41  1  0  0  0  0
 46 43  1  0  0  0  0
 47 42  1  0  0  0  0
 49 50  1  0  0  0  0
 50 51  1  0  0  0  0
 51 53  1  0  0  0  0
 51 52  2  0  0  0  0
 53 54  2  0  0  0  0
 55 54  1  0  0  0  0
 56 55  1  0  0  0  0
 57 56  1  0  0  0  0
 59 58  1  6  0  0  0
 59 60  1  0  0  0  0
 59 57  1  0  0  0  0
 62 61  1  1  0  0  0
 62 60  1  0  0  0  0
 63 62  1  1  0  0  0
 63 64  1  0  0  0  0
 65 66  1  6  0  0  0
 65 63  1  0  0  0  0
 65 64  1  0  0  0  0
 66 67  1  0  0  0  0
 68 67  1  0  0  0  0
M  END
>  <MODEL>
1

>  <REMARK>
 VINA RESULT:      -5.7      0.000      0.000
  Name = 
  27 active torsions:
  status: ('A' for Active; 'I' for Inactive)
    1  A    between atoms: C_1  and  C_48
    2  A    between atoms: P_2  and  N_22
    3  A    between atoms: O_3  and  C_5
    4  A    between atoms: O_3  and  C_62
    5  A    between atoms: C_4  and  C_9
    6  A    between atoms: C_4  and  N_31
    7  A    between atoms: O_8  and  C_66
    8  A    between atoms: C_9  and  C_33
    9  A    between atoms: C_9  and  C_66
   10  A    between atoms: C_10  and  C_49
   11  A    between atoms: C_12  and  C_42
   12  A    between atoms: C_13  and  C_34
   13  A    between atoms: C_17  and  C_34
   14  A    between atoms: N_22  and  C_51
   15  A    between atoms: C_24  and  C_39
   16  A    between atoms: C_28  and  C_44
   17  A    between atoms: C_28  and  C_62
   18  A    between atoms: C_29  and  O_52
   19  A    between atoms: C_29  and  O_56
   20  A    between atoms: C_32  and  C_67
   21  A    between atoms: C_33  and  C_51
   22  A    between atoms: C_37  and  C_62
   23  A    between atoms: C_39  and  C_53
   24  A    between atoms: C_47  and  C_66
   25  A    between atoms: C_48  and  O_52
   26  A    between atoms: C_49  and  C_67
   27  A    between atoms: C_53  and  O_56
                            x       y       z     vdW  Elec       q    Type
                         _______ _______ _______ _____ _____    ______ ____

>  <TORSDO>
F 27

$$$$
=
 OpenBabel11042417343D

 68 74  0  0  1  0  0  0  0  0999 V2000
  190.8290  175.6120  142.2780 C   0  0  1  0  0  3  0  0  0  0  0  0
  189.1730  172.1640  140.2680 C   0  0  0  0  0  2  0  0  0  0  0  0
  189.4660  171.9850  141.7520 C   0  0  0  0  0  2  0  0  0  0  0  0
  190.3330  172.8880  139.5570 C   0  0  2  0  0  3  0  0  0  0  0  0
  189.5560  173.3470  142.4580 C   0  0  0  0  0  2  0  0  0  0  0  0
  191.0980  173.8340  140.4890 C   0  0  0  0  0  2  0  0  0  0  0  0
  190.1710  174.4280  141.5470 C   0  0  2  0  0  3  0  0  0  0  0  0
  189.7950  173.6710  138.3680 C   0  0  0  0  0  2  0  0  0  0  0  0
  189.7750  172.8420  137.1000 C   0  0  0  0  0  2  0  0  0  0  0  0
  191.4860  173.1210  135.3060 C   0  0  1  0  0  0  0  0  0  0  0  0
  190.2380  173.6620  135.9020 C   0  0  1  0  0  3  0  0  0  0  0  0
  192.0920  171.9920  135.8830 O   0  0  0  0  0  1  0  0  0  0  0  0
  190.2310  172.8520  134.7400 O   0  0  0  0  0  0  0  0  0  0  0  0
  192.2840  174.0040  134.5480 O   0  0  0  0  0  0  0  0  0  0  0  0
  192.9900  174.8370  135.4450 C   0  0  2  0  0  3  0  0  0  0  0  0
  191.4340  176.6750  135.3900 O   0  0  0  0  0  1  0  0  0  0  0  0
  192.6270  176.2800  135.2380 C   0  0  0  0  0  0  0  0  0  0  0  0
  193.6090  177.1840  134.8590 O   0  0  0  0  0  0  0  0  0  0  0  0
  194.8030  173.2540  134.9810 O   0  0  0  0  0  1  0  0  0  0  0  0
  194.5170  174.5590  135.3970 C   0  0  2  0  0  3  0  0  0  0  0  0
  193.9240  170.7590  138.4410 N   0  0  0  0  0  0  0  0  0  0  0  0
  195.2340  170.1300  138.4750 C   0  0  0  0  0  2  0  0  0  0  0  0
  194.9980  172.9360  138.2830 C   0  0  1  0  0  0  0  0  0  0  0  0
  197.9400  172.5150  136.1030 O   0  0  0  0  0  0  0  0  0  0  0  0
  196.7610  174.5400  136.5570 C   0  0  0  0  0  2  0  0  0  0  0  0
  194.6400  174.3300  137.9410 C   0  0  2  0  0  0  0  0  0  0  0  0
  193.0320  169.9430  139.2480 C   0  0  0  0  0  1  0  0  0  0  0  0
  196.9620  173.0590  136.6890 C   0  0  0  0  0  0  0  0  0  0  0  0
  195.2820  174.9350  136.6780 C   0  0  2  0  0  3  0  0  0  0  0  0
  196.0900  172.2780  137.5380 N   0  0  0  0  0  0  0  0  0  0  0  0
  195.4910  174.0290  139.0270 O   0  0  0  0  0  0  0  0  0  0  0  0
  194.0610  172.0500  139.1020 C   0  0  0  0  0  2  0  0  0  0  0  0
  193.3950  174.7920  138.3700 O   0  0  0  0  0  1  0  0  0  0  0  0
  196.1760  170.8150  137.4740 C   0  0  0  0  0  2  0  0  0  0  0  0
  189.8880  176.3130  143.0600 O   0  0  0  0  0  0  0  0  0  0  0  0
  190.0660  177.6670  142.7400 C   0  0  0  0  0  1  0  0  0  0  0  0
  192.1040  175.2880  143.0830 C   0  0  1  0  0  3  0  0  0  0  0  0
  193.1900  176.2890  142.7220 C   0  0  0  0  0  2  0  0  0  0  0  0
  194.3930  175.5540  142.1530 C   0  0  0  0  0  2  0  0  0  0  0  0
  194.2840  174.1300  142.4470 N   0  0  0  0  0  2  0  0  0  0  0  0
  195.5450  173.6950  143.5900 P   0  0  1  0  0  0  0  0  0  0  0  0
  197.8980  172.8680  143.5600 C   0  0  0  0  0  2  0  0  0  0  0  0
  197.9150  171.5960  144.4170 C   0  0  0  0  0  2  0  0  0  0  0  0
  196.0060  172.1570  145.5120 C   0  0  0  0  0  2  0  0  0  0  0  0
  194.9100  172.6550  144.7970 O   0  0  0  0  0  0  0  0  0  0  0  0
  196.6250  171.1400  144.7680 O   0  0  0  0  0  0  0  0  0  0  0  0
  196.7800  172.8980  142.7220 O   0  0  0  0  0  0  0  0  0  0  0  0
  196.0840  174.9630  144.2230 O   0  0  0  0  0  0  0  0  0  0  0  0
  191.8570  175.3190  144.5880 C   0  0  0  0  0  2  0  0  0  0  0  0
  192.9420  176.0420  145.2350 N   0  0  0  0  0  2  0  0  0  0  0  0
  192.9530  176.3330  146.6270 C   0  0  0  0  0  0  0  0  0  0  0  0
  193.8850  177.0480  147.0860 O   0  0  0  0  0  0  0  0  0  0  0  0
  191.8790  175.8290  147.5100 C   0  0  0  0  0  3  0  0  0  0  0  0
  190.6540  176.3500  147.6540 C   0  0  0  0  0  3  0  0  0  0  0  0
  190.1550  177.5460  146.9150 C   0  0  0  0  0  2  0  0  0  0  0  0
  188.8700  177.2000  146.1780 C   0  0  0  0  0  2  0  0  0  0  0  0
  187.7990  177.3100  147.0740 O   0  0  0  0  0  0  0  0  0  0  0  0
  185.5300  176.8260  147.2270 O   0  0  0  0  0  1  0  0  0  0  0  0
  186.5930  177.1140  146.3630 C   0  0  1  0  0  3  0  0  0  0  0  0
  186.2870  178.2110  145.5420 O   0  0  0  0  0  0  0  0  0  0  0  0
  184.2580  179.2400  145.7730 O   0  0  0  0  0  1  0  0  0  0  0  0
  184.9200  178.1130  145.2790 C   0  0  1  0  0  3  0  0  0  0  0  0
  184.7060  178.0330  143.7730 C   0  0  1  0  0  3  0  0  0  0  0  0
  185.3580  179.1090  143.1360 O   0  0  0  0  0  0  0  0  0  0  0  0
  185.9990  177.8530  143.0860 C   0  0  2  0  0  3  0  0  0  0  0  0
  185.7680  177.2310  141.7250 C   0  0  0  0  0  2  0  0  0  0  0  0
  187.0440  177.3230  140.9160 C   0  0  0  0  0  2  0  0  0  0  0  0
  186.7180  177.5620  139.5180 N   0  0  0  0  0  1  0  0  0  0  0  0
  1 35  1  1  0  0  0
  1 37  1  0  0  0  0
  2  3  1  0  0  0  0
  3  5  1  0  0  0  0
  4  8  1  6  0  0  0
  4  2  1  0  0  0  0
  4  6  1  0  0  0  0
  6  7  1  0  0  0  0
  7  1  1  1  0  0  0
  7  5  1  0  0  0  0
  9  8  1  0  0  0  0
 10 12  1  1  0  0  0
 10 11  1  0  0  0  0
 11  9  1  1  0  0  0
 13 10  1  0  0  0  0
 13 11  1  0  0  0  0
 14 10  1  0  0  0  0
 15 14  1  6  0  0  0
 17 16  1  0  0  0  0
 17 15  1  0  0  0  0
 18 17  2  0  0  0  0
 20 19  1  1  0  0  0
 20 15  1  0  0  0  0
 21 22  1  0  0  0  0
 21 32  1  0  0  0  0
 21 27  1  0  0  0  0
 23 31  1  0  0  0  0
 23 32  1  1  0  0  0
 24 28  2  0  0  0  0
 25 29  1  0  0  0  0
 25 28  1  0  0  0  0
 26 23  1  0  0  0  0
 26 33  1  1  0  0  0
 26 31  1  0  0  0  0
 28 30  1  0  0  0  0
 29 20  1  6  0  0  0
 29 26  1  0  0  0  0
 30 23  1  0  0  0  0
 34 30  1  0  0  0  0
 34 22  1  0  0  0  0
 36 35  1  0  0  0  0
 37 38  1  1  0  0  0
 37 49  1  0  0  0  0
 39 40  1  0  0  0  0
 39 38  1  0  0  0  0
 40 41  1  0  0  0  0
 41 48  2  1  0  0  0
 41 45  1  0  0  0  0
 42 43  1  0  0  0  0
 43 46  1  0  0  0  0
 45 44  1  0  0  0  0
 46 44  1  0  0  0  0
 47 42  1  0  0  0  0
 47 41  1  0  0  0  0
 49 50  1  0  0  0  0
 50 51  1  0  0  0  0
 51 52  2  0  0  0  0
 51 53  1  0  0  0  0
 53 54  2  0  0  0  0
 55 54  1  0  0  0  0
 56 55  1  0  0  0  0
 56 57  1  0  0  0  0
 59 57  1  0  0  0  0
 59 58  1  1  0  0  0
 60 59  1  0  0  0  0
 62 60  1  0  0  0  0
 62 61  1  6  0  0  0
 63 62  1  1  0  0  0
 64 63  1  0  0  0  0
 65 66  1  6  0  0  0
 65 64  1  0  0  0  0
 65 63  1  0  0  0  0
 67 66  1  0  0  0  0
 68 67  1  0  0  0  0
M  END
>  <MODEL>
2

>  <REMARK>
 VINA RESULT:      -5.5      3.597      8.338
  Name = 
  27 active torsions:
  status: ('A' for Active; 'I' for Inactive)
    1  A    between atoms: C_1  and  C_48
    2  A    between atoms: P_2  and  N_22
    3  A    between atoms: O_3  and  C_5
    4  A    between atoms: O_3  and  C_62
    5  A    between atoms: C_4  and  C_9
    6  A    between atoms: C_4  and  N_31
    7  A    between atoms: O_8  and  C_66
    8  A    between atoms: C_9  and  C_33
    9  A    between atoms: C_9  and  C_66
   10  A    between atoms: C_10  and  C_49
   11  A    between atoms: C_12  and  C_42
   12  A    between atoms: C_13  and  C_34
   13  A    between atoms: C_17  and  C_34
   14  A    between atoms: N_22  and  C_51
   15  A    between atoms: C_24  and  C_39
   16  A    between atoms: C_28  and  C_44
   17  A    between atoms: C_28  and  C_62
   18  A    between atoms: C_29  and  O_52
   19  A    between atoms: C_29  and  O_56
   20  A    between atoms: C_32  and  C_67
   21  A    between atoms: C_33  and  C_51
   22  A    between atoms: C_37  and  C_62
   23  A    between atoms: C_39  and  C_53
   24  A    between atoms: C_47  and  C_66
   25  A    between atoms: C_48  and  O_52
   26  A    between atoms: C_49  and  C_67
   27  A    between atoms: C_53  and  O_56
                            x       y       z     vdW  Elec       q    Type
                         _______ _______ _______ _____ _____    ______ ____

>  <TORSDO>
F 27

$$$$
=
 OpenBabel11042417343D

 68 74  0  0  1  0  0  0  0  0999 V2000
  192.6750  169.7510  137.3470 C   0  0  1  0  0  3  0  0  0  0  0  0
  192.3110  169.5310  141.6470 C   0  0  0  0  0  2  0  0  0  0  0  0
  193.5050  168.8010  141.0480 C   0  0  0  0  0  2  0  0  0  0  0  0
  191.0320  169.2660  140.8300 C   0  0  2  0  0  3  0  0  0  0  0  0
  193.8280  169.3410  139.6460 C   0  0  0  0  0  2  0  0  0  0  0  0
  191.3220  168.9860  139.3520 C   0  0  0  0  0  2  0  0  0  0  0  0
  192.5550  169.7550  138.8820 C   0  0  2  0  0  3  0  0  0  0  0  0
  190.0930  170.4580  140.9460 C   0  0  0  0  0  2  0  0  0  0  0  0
  190.3110  171.2330  142.2310 C   0  0  0  0  0  2  0  0  0  0  0  0
  191.1500  173.3980  143.1420 C   0  0  1  0  0  0  0  0  0  0  0  0
  190.6280  172.6950  141.9420 C   0  0  1  0  0  3  0  0  0  0  0  0
  191.2690  172.6970  144.3540 O   0  0  0  0  0  1  0  0  0  0  0  0
  192.0120  172.9290  142.1390 O   0  0  0  0  0  0  0  0  0  0  0  0
  191.0220  174.8030  143.1820 O   0  0  0  0  0  0  0  0  0  0  0  0
  191.6290  175.2640  144.3730 C   0  0  2  0  0  3  0  0  0  0  0  0
  190.0170  177.0300  144.6580 O   0  0  0  0  0  0  0  0  0  0  0  0
  190.6660  176.0810  145.1860 C   0  0  0  0  0  0  0  0  0  0  0  0
  190.5020  175.8010  146.5350 O   0  0  0  0  0  1  0  0  0  0  0  0
  193.5480  175.5640  142.8760 O   0  0  0  0  0  1  0  0  0  0  0  0
  192.9750  175.9820  144.0830 C   0  0  2  0  0  3  0  0  0  0  0  0
  195.9880  172.2430  143.0820 N   0  0  0  0  0  0  0  0  0  0  0  0
  197.2360  172.8890  142.7100 C   0  0  0  0  0  2  0  0  0  0  0  0
  195.5930  173.9990  144.7190 C   0  0  1  0  0  0  0  0  0  0  0  0
  196.7500  177.1510  143.2000 O   0  0  0  0  0  0  0  0  0  0  0  0
  195.1590  176.8990  144.9610 C   0  0  0  0  0  2  0  0  0  0  0  0
  194.4820  174.5200  145.5440 C   0  0  2  0  0  0  0  0  0  0  0  0
  196.1760  170.8120  142.9150 C   0  0  0  0  0  1  0  0  0  0  0  0
  196.0960  176.3500  143.9250 C   0  0  0  0  0  0  0  0  0  0  0  0
  193.9870  175.9480  145.2420 C   0  0  2  0  0  3  0  0  0  0  0  0
  196.3030  174.9230  143.8120 N   0  0  0  0  0  0  0  0  0  0  0  0
  195.7860  174.3760  146.0650 O   0  0  0  0  0  0  0  0  0  0  0  0
  195.7900  172.4990  144.5030 C   0  0  0  0  0  2  0  0  0  0  0  0
  193.5990  173.5860  146.0890 O   0  0  0  0  0  1  0  0  0  0  0  0
  197.0490  174.4120  142.6570 C   0  0  0  0  0  2  0  0  0  0  0  0
  192.1550  168.5600  136.8000 O   0  0  0  0  0  0  0  0  0  0  0  0
  193.0740  168.1660  135.8160 C   0  0  0  0  0  1  0  0  0  0  0  0
  192.1260  170.9960  136.6200 C   0  0  1  0  0  3  0  0  0  0  0  0
  192.6430  171.0080  135.1900 C   0  0  0  0  0  2  0  0  0  0  0  0
  193.6350  172.1470  135.0160 C   0  0  0  0  0  2  0  0  0  0  0  0
  194.8340  171.8790  135.8020 N   0  0  0  0  0  2  0  0  0  0  0  0
  195.1550  173.2700  136.8250 P   0  0  1  0  0  0  0  0  0  0  0  0
  195.8940  173.7500  139.1580 C   0  0  0  0  0  2  0  0  0  0  0  0
  194.8260  174.6670  139.7650 C   0  0  0  0  0  2  0  0  0  0  0  0
  194.0610  175.3320  137.7340 C   0  0  0  0  0  2  0  0  0  0  0  0
  193.8590  174.3890  136.7190 O   0  0  0  0  0  0  0  0  0  0  0  0
  193.6680  174.7850  138.9650 O   0  0  0  0  0  0  0  0  0  0  0  0
  195.3130  172.7090  138.4300 O   0  0  0  0  0  0  0  0  0  0  0  0
  196.4460  173.9210  136.3680 O   0  0  0  0  0  0  0  0  0  0  0  0
  190.6010  171.0310  136.6150 C   0  0  0  0  0  2  0  0  0  0  0  0
  190.1490  172.0200  135.6460 N   0  0  0  0  0  2  0  0  0  0  0  0
  190.1140  173.4130  135.9260 C   0  0  0  0  0  0  0  0  0  0  0  0
  189.6180  174.1880  135.0640 O   0  0  0  0  0  0  0  0  0  0  0  0
  190.6230  173.9370  137.2110 C   0  0  0  0  0  3  0  0  0  0  0  0
  190.0370  173.8200  138.4100 C   0  0  0  0  0  3  0  0  0  0  0  0
  188.7470  173.1100  138.6510 C   0  0  0  0  0  2  0  0  0  0  0  0
  187.8670  173.9380  139.5760 C   0  0  0  0  0  2  0  0  0  0  0  0
  188.6820  174.8310  140.2830 O   0  0  0  0  0  0  0  0  0  0  0  0
  187.6990  174.4640  142.3570 O   0  0  0  0  0  1  0  0  0  0  0  0
  187.9250  175.3940  141.3370 C   0  0  1  0  0  3  0  0  0  0  0  0
  188.5230  176.5580  141.8440 O   0  0  0  0  0  0  0  0  0  0  0  0
  186.5550  177.1180  140.8230 O   0  0  0  0  0  1  0  0  0  0  0  0
  187.7320  177.6150  141.3910 C   0  0  1  0  0  3  0  0  0  0  0  0
  187.3730  178.5100  142.5700 C   0  0  1  0  0  3  0  0  0  0  0  0
  185.9760  178.6820  142.6380 O   0  0  0  0  0  0  0  0  0  0  0  0
  186.5520  177.7660  143.5420 C   0  0  2  0  0  3  0  0  0  0  0  0
  186.6650  178.4150  144.9050 C   0  0  0  0  0  2  0  0  0  0  0  0
  186.4930  177.3570  145.9730 C   0  0  0  0  0  2  0  0  0  0  0  0
  185.1020  176.9290  146.0150 N   0  0  0  0  0  1  0  0  0  0  0  0
  1 35  1  6  0  0  0
  3  2  1  0  0  0  0
  4  8  1  6  0  0  0
  4  2  1  0  0  0  0
  5  3  1  0  0  0  0
  6  4  1  0  0  0  0
  7  1  1  6  0  0  0
  7  6  1  0  0  0  0
  7  5  1  0  0  0  0
  8  9  1  0  0  0  0
 10 14  1  0  0  0  0
 10 12  1  1  0  0  0
 11 13  1  0  0  0  0
 11  9  1  1  0  0  0
 11 10  1  0  0  0  0
 13 10  1  0  0  0  0
 15 14  1  6  0  0  0
 15 17  1  0  0  0  0
 16 17  2  0  0  0  0
 17 18  1  0  0  0  0
 20 19  1  6  0  0  0
 20 15  1  0  0  0  0
 21 32  1  0  0  0  0
 22 21  1  0  0  0  0
 23 32  1  6  0  0  0
 23 26  1  0  0  0  0
 23 31  1  0  0  0  0
 24 28  2  0  0  0  0
 25 29  1  0  0  0  0
 26 31  1  0  0  0  0
 26 33  1  1  0  0  0
 27 21  1  0  0  0  0
 28 25  1  0  0  0  0
 29 20  1  6  0  0  0
 29 26  1  0  0  0  0
 30 28  1  0  0  0  0
 30 23  1  0  0  0  0
 34 22  1  0  0  0  0
 34 30  1  0  0  0  0
 36 35  1  0  0  0  0
 37 38  1  6  0  0  0
 37  1  1  0  0  0  0
 39 38  1  0  0  0  0
 39 40  1  0  0  0  0
 40 41  1  0  0  0  0
 41 48  2  6  0  0  0
 41 47  1  0  0  0  0
 42 43  1  0  0  0  0
 44 46  1  0  0  0  0
 45 41  1  0  0  0  0
 45 44  1  0  0  0  0
 46 43  1  0  0  0  0
 47 42  1  0  0  0  0
 49 37  1  0  0  0  0
 50 51  1  0  0  0  0
 50 49  1  0  0  0  0
 51 53  1  0  0  0  0
 52 51  2  0  0  0  0
 53 54  2  0  0  0  0
 54 55  1  0  0  0  0
 55 56  1  0  0  0  0
 56 57  1  0  0  0  0
 57 59  1  0  0  0  0
 59 60  1  0  0  0  0
 59 58  1  1  0  0  0
 62 61  1  1  0  0  0
 62 60  1  0  0  0  0
 63 62  1  6  0  0  0
 63 64  1  0  0  0  0
 63 65  1  0  0  0  0
 64 65  1  0  0  0  0
 65 66  1  1  0  0  0
 66 67  1  0  0  0  0
 67 68  1  0  0  0  0
M  END
>  <MODEL>
3

>  <REMARK>
 VINA RESULT:      -5.5      3.787      9.687
  Name = 
  27 active torsions:
  status: ('A' for Active; 'I' for Inactive)
    1  A    between atoms: C_1  and  C_48
    2  A    between atoms: P_2  and  N_22
    3  A    between atoms: O_3  and  C_5
    4  A    between atoms: O_3  and  C_62
    5  A    between atoms: C_4  and  C_9
    6  A    between atoms: C_4  and  N_31
    7  A    between atoms: O_8  and  C_66
    8  A    between atoms: C_9  and  C_33
    9  A    between atoms: C_9  and  C_66
   10  A    between atoms: C_10  and  C_49
   11  A    between atoms: C_12  and  C_42
   12  A    between atoms: C_13  and  C_34
   13  A    between atoms: C_17  and  C_34
   14  A    between atoms: N_22  and  C_51
   15  A    between atoms: C_24  and  C_39
   16  A    between atoms: C_28  and  C_44
   17  A    between atoms: C_28  and  C_62
   18  A    between atoms: C_29  and  O_52
   19  A    between atoms: C_29  and  O_56
   20  A    between atoms: C_32  and  C_67
   21  A    between atoms: C_33  and  C_51
   22  A    between atoms: C_37  and  C_62
   23  A    between atoms: C_39  and  C_53
   24  A    between atoms: C_47  and  C_66
   25  A    between atoms: C_48  and  O_52
   26  A    between atoms: C_49  and  C_67
   27  A    between atoms: C_53  and  O_56
                            x       y       z     vdW  Elec       q    Type
                         _______ _______ _______ _____ _____    ______ ____

>  <TORSDO>
F 27

$$$$
=
 OpenBabel11042417343D

 68 74  0  0  1  0  0  0  0  0999 V2000
  189.7130  172.8050  141.6240 C   0  0  1  0  0  3  0  0  0  0  0  0
  188.1530  173.3470  137.6320 C   0  0  0  0  0  2  0  0  0  0  0  0
  189.3260  172.3840  137.7570 C   0  0  0  0  0  2  0  0  0  0  0  0
  188.3950  174.6250  138.4590 C   0  0  2  0  0  3  0  0  0  0  0  0
  189.4670  171.8810  139.2020 C   0  0  0  0  0  2  0  0  0  0  0  0
  189.2870  174.3770  139.6800 C   0  0  0  0  0  2  0  0  0  0  0  0
  189.0850  172.9670  140.2280 C   0  0  2  0  0  3  0  0  0  0  0  0
  187.0610  175.2000  138.9130 C   0  0  0  0  0  2  0  0  0  0  0  0
  187.0900  176.7130  138.9940 C   0  0  0  0  0  2  0  0  0  0  0  0
  186.4470  177.9160  141.0830 C   0  0  1  0  0  0  0  0  0  0  0  0
  187.5270  177.1800  140.3770 C   0  0  1  0  0  3  0  0  0  0  0  0
  185.2150  178.1170  140.4380 O   0  0  0  0  0  1  0  0  0  0  0  0
  186.7150  176.5680  141.3640 O   0  0  0  0  0  0  0  0  0  0  0  0
  186.8270  178.8060  142.1090 O   0  0  0  0  0  0  0  0  0  0  0  0
  186.2500  178.3530  143.3180 C   0  0  2  0  0  3  0  0  0  0  0  0
  185.5060  180.5050  144.1030 O   0  0  0  0  0  1  0  0  0  0  0  0
  185.2030  179.3130  143.8070 C   0  0  0  0  0  0  0  0  0  0  0  0
  183.8930  178.8790  143.9510 O   0  0  0  0  0  0  0  0  0  0  0  0
  188.6090  177.8950  143.8040 O   0  0  0  0  0  1  0  0  0  0  0  0
  187.3370  178.0160  144.3740 C   0  0  2  0  0  3  0  0  0  0  0  0
  191.5520  176.8290  146.5860 N   0  0  0  0  0  0  0  0  0  0  0  0
  191.3590  177.2590  147.9610 C   0  0  0  0  0  2  0  0  0  0  0  0
  189.2040  176.2010  146.4760 C   0  0  1  0  0  0  0  0  0  0  0  0
  187.3290  178.7580  148.3550 O   0  0  0  0  0  0  0  0  0  0  0  0
  186.4870  177.3170  146.6490 C   0  0  0  0  0  2  0  0  0  0  0  0
  188.1910  175.8600  145.4530 C   0  0  2  0  0  0  0  0  0  0  0  0
  192.9110  176.3260  146.4770 C   0  0  0  0  0  1  0  0  0  0  0  0
  187.5920  177.8600  147.5070 C   0  0  0  0  0  0  0  0  0  0  0  0
  187.0010  176.8240  145.2880 C   0  0  2  0  0  3  0  0  0  0  0  0
  188.9250  177.3060  147.4150 N   0  0  0  0  0  0  0  0  0  0  0  0
  188.2900  175.1440  146.6660 O   0  0  0  0  0  0  0  0  0  0  0  0
  190.6460  175.7100  146.3640 C   0  0  0  0  0  2  0  0  0  0  0  0
  188.6170  175.0980  144.3640 O   0  0  0  0  0  1  0  0  0  0  0  0
  190.0200  177.9990  148.1020 C   0  0  0  0  0  2  0  0  0  0  0  0
  188.8480  172.1080  142.4930 O   0  0  0  0  0  0  0  0  0  0  0  0
  187.5600  172.5750  142.1950 C   0  0  0  0  0  1  0  0  0  0  0  0
  191.1420  172.2240  141.6620 C   0  0  1  0  0  3  0  0  0  0  0  0
  191.8380  172.5230  140.3440 C   0  0  0  0  0  2  0  0  0  0  0  0
  193.2290  171.9110  140.3510 C   0  0  0  0  0  2  0  0  0  0  0  0
  194.0810  172.6170  139.4020 N   0  0  0  0  0  2  0  0  0  0  0  0
  193.6770  172.0790  137.7790 P   0  0  1  0  0  0  0  0  0  0  0  0
  192.3130  170.3050  136.6770 C   0  0  0  0  0  2  0  0  0  0  0  0
  193.2630  169.5630  135.7290 C   0  0  0  0  0  2  0  0  0  0  0  0
  194.7370  171.2870  135.6530 C   0  0  0  0  0  2  0  0  0  0  0  0
  195.1000  171.9500  136.8310 O   0  0  0  0  0  0  0  0  0  0  0  0
  194.6190  169.9120  135.9080 O   0  0  0  0  0  0  0  0  0  0  0  0
  192.9220  170.5540  137.9100 O   0  0  0  0  0  0  0  0  0  0  0  0
  192.7260  173.0840  137.1580 O   0  0  0  0  0  0  0  0  0  0  0  0
  191.9630  172.7940  142.8160 C   0  0  0  0  0  2  0  0  0  0  0  0
  191.4750  174.1260  143.1380 N   0  0  0  0  0  2  0  0  0  0  0  0
  192.1340  175.3120  142.7160 C   0  0  0  0  0  0  0  0  0  0  0  0
  191.6960  176.4230  143.1210 O   0  0  0  0  0  0  0  0  0  0  0  0
  193.3240  175.2420  141.8410 C   0  0  0  0  0  3  0  0  0  0  0  0
  194.5730  175.6070  142.1610 C   0  0  0  0  0  3  0  0  0  0  0  0
  194.9780  176.1450  143.4920 C   0  0  0  0  0  2  0  0  0  0  0  0
  196.4950  176.1390  143.6110 C   0  0  0  0  0  2  0  0  0  0  0  0
  196.9720  174.9030  143.1560 O   0  0  0  0  0  0  0  0  0  0  0  0
  196.4920  174.1810  145.3130 O   0  0  0  0  0  1  0  0  0  0  0  0
  197.4230  174.1560  144.2690 C   0  0  1  0  0  3  0  0  0  0  0  0
  197.7430  172.8360  143.9160 O   0  0  0  0  0  0  0  0  0  0  0  0
  195.9660  171.8410  142.8740 O   0  0  0  0  0  1  0  0  0  0  0  0
  196.5720  172.1010  144.1070 C   0  0  1  0  0  3  0  0  0  0  0  0
  196.9170  170.7780  144.7790 C   0  0  1  0  0  3  0  0  0  0  0  0
  197.2290  170.9930  146.1360 O   0  0  0  0  0  0  0  0  0  0  0  0
  195.9460  170.4820  145.8480 C   0  0  2  0  0  3  0  0  0  0  0  0
  195.9300  168.9940  146.1210 C   0  0  0  0  0  2  0  0  0  0  0  0
  194.5180  168.5700  146.4680 C   0  0  0  0  0  2  0  0  0  0  0  0
  193.7120  168.5240  145.2570 N   0  0  0  0  0  1  0  0  0  0  0  0
  1 37  1  0  0  0  0
  1 35  1  1  0  0  0
  2  3  1  0  0  0  0
  2  4  1  0  0  0  0
  3  5  1  0  0  0  0
  4  8  1  1  0  0  0
  4  6  1  0  0  0  0
  5  7  1  0  0  0  0
  6  7  1  0  0  0  0
  7  1  1  1  0  0  0
  8  9  1  0  0  0  0
 10 12  1  6  0  0  0
 10 13  1  0  0  0  0
 10 14  1  0  0  0  0
 11  9  1  6  0  0  0
 11 10  1  0  0  0  0
 11 13  1  0  0  0  0
 15 14  1  6  0  0  0
 15 17  1  0  0  0  0
 15 20  1  0  0  0  0
 17 18  2  0  0  0  0
 17 16  1  0  0  0  0
 20 19  1  6  0  0  0
 21 22  1  0  0  0  0
 22 34  1  0  0  0  0
 23 32  1  6  0  0  0
 23 31  1  0  0  0  0
 23 30  1  0  0  0  0
 25 28  1  0  0  0  0
 26 33  1  6  0  0  0
 26 23  1  0  0  0  0
 26 31  1  0  0  0  0
 27 21  1  0  0  0  0
 28 24  2  0  0  0  0
 29 20  1  6  0  0  0
 29 26  1  0  0  0  0
 29 25  1  0  0  0  0
 30 28  1  0  0  0  0
 30 34  1  0  0  0  0
 32 21  1  0  0  0  0
 36 35  1  0  0  0  0
 37 38  1  6  0  0  0
 37 49  1  0  0  0  0
 38 39  1  0  0  0  0
 40 39  1  0  0  0  0
 41 48  2  6  0  0  0
 41 47  1  0  0  0  0
 41 40  1  0  0  0  0
 42 47  1  0  0  0  0
 43 46  1  0  0  0  0
 43 42  1  0  0  0  0
 44 46  1  0  0  0  0
 44 45  1  0  0  0  0
 45 41  1  0  0  0  0
 49 50  1  0  0  0  0
 51 52  2  0  0  0  0
 51 50  1  0  0  0  0
 53 54  2  0  0  0  0
 53 51  1  0  0  0  0
 54 55  1  0  0  0  0
 55 56  1  0  0  0  0
 57 56  1  0  0  0  0
 57 59  1  0  0  0  0
 59 58  1  1  0  0  0
 60 62  1  0  0  0  0
 60 59  1  0  0  0  0
 62 61  1  6  0  0  0
 63 62  1  6  0  0  0
 63 65  1  0  0  0  0
 63 64  1  0  0  0  0
 65 66  1  1  0  0  0
 65 64  1  0  0  0  0
 66 67  1  0  0  0  0
 68 67  1  0  0  0  0
M  END
>  <MODEL>
4

>  <REMARK>
 VINA RESULT:      -5.4      3.711      9.725
  Name = 
  27 active torsions:
  status: ('A' for Active; 'I' for Inactive)
    1  A    between atoms: C_1  and  C_48
    2  A    between atoms: P_2  and  N_22
    3  A    between atoms: O_3  and  C_5
    4  A    between atoms: O_3  and  C_62
    5  A    between atoms: C_4  and  C_9
    6  A    between atoms: C_4  and  N_31
    7  A    between atoms: O_8  and  C_66
    8  A    between atoms: C_9  and  C_33
    9  A    between atoms: C_9  and  C_66
   10  A    between atoms: C_10  and  C_49
   11  A    between atoms: C_12  and  C_42
   12  A    between atoms: C_13  and  C_34
   13  A    between atoms: C_17  and  C_34
   14  A    between atoms: N_22  and  C_51
   15  A    between atoms: C_24  and  C_39
   16  A    between atoms: C_28  and  C_44
   17  A    between atoms: C_28  and  C_62
   18  A    between atoms: C_29  and  O_52
   19  A    between atoms: C_29  and  O_56
   20  A    between atoms: C_32  and  C_67
   21  A    between atoms: C_33  and  C_51
   22  A    between atoms: C_37  and  C_62
   23  A    between atoms: C_39  and  C_53
   24  A    between atoms: C_47  and  C_66
   25  A    between atoms: C_48  and  O_52
   26  A    between atoms: C_49  and  C_67
   27  A    between atoms: C_53  and  O_56
                            x       y       z     vdW  Elec       q    Type
                         _______ _______ _______ _____ _____    ______ ____

>  <TORSDO>
F 27

$$$$
=
 OpenBabel11042417343D

 68 74  0  0  1  0  0  0  0  0999 V2000
  185.9160  178.4050  141.4430 C   0  0  1  0  0  3  0  0  0  0  0  0
  188.3330  175.4950  143.5300 C   0  0  0  0  0  2  0  0  0  0  0  0
  186.8460  175.4730  143.8550 C   0  0  0  0  0  2  0  0  0  0  0  0
  188.8700  176.9390  143.4900 C   0  0  2  0  0  3  0  0  0  0  0  0
  186.0340  176.1510  142.7410 C   0  0  0  0  0  2  0  0  0  0  0  0
  187.7990  177.9560  143.0820 C   0  0  0  0  0  2  0  0  0  0  0  0
  186.7960  177.3340  142.1130 C   0  0  2  0  0  3  0  0  0  0  0  0
  190.0430  177.0210  142.5240 C   0  0  0  0  0  2  0  0  0  0  0  0
  191.2590  176.2760  143.0370 C   0  0  0  0  0  2  0  0  0  0  0  0
  191.8190  173.9530  142.3220 C   0  0  1  0  0  0  0  0  0  0  0  0
  191.8570  175.3900  141.9510 C   0  0  1  0  0  3  0  0  0  0  0  0
  191.2900  173.5770  143.5680 O   0  0  0  0  0  1  0  0  0  0  0  0
  190.8650  174.5080  141.4560 O   0  0  0  0  0  0  0  0  0  0  0  0
  192.7390  173.0900  141.6900 O   0  0  0  0  0  0  0  0  0  0  0  0
  192.0230  172.2730  140.7850 C   0  0  2  0  0  3  0  0  0  0  0  0
  192.8090  170.3970  142.0750 O   0  0  0  0  0  1  0  0  0  0  0  0
  191.9300  170.8620  141.2940 C   0  0  0  0  0  0  0  0  0  0  0  0
  190.8750  170.0570  140.8860 O   0  0  0  0  0  0  0  0  0  0  0  0
  193.9540  172.0660  139.2880 O   0  0  0  0  0  1  0  0  0  0  0  0
  192.5920  172.3860  139.3450 C   0  0  2  0  0  3  0  0  0  0  0  0
  196.5250  173.3300  136.5700 N   0  0  0  0  0  0  0  0  0  0  0  0
  196.0590  173.1020  135.2120 C   0  0  0  0  0  2  0  0  0  0  0  0
  194.3350  174.2140  137.1510 C   0  0  1  0  0  0  0  0  0  0  0  0
  191.8500  172.1540  135.3710 O   0  0  0  0  0  0  0  0  0  0  0  0
  191.4970  173.4600  137.3380 C   0  0  0  0  0  2  0  0  0  0  0  0
  193.5540  174.5420  138.3630 C   0  0  2  0  0  0  0  0  0  0  0  0
  197.9410  173.6500  136.4930 C   0  0  0  0  0  1  0  0  0  0  0  0
  192.3660  172.9010  136.2490 C   0  0  0  0  0  0  0  0  0  0  0  0
  192.2830  173.7140  138.6320 C   0  0  2  0  0  3  0  0  0  0  0  0
  193.7600  173.2760  136.1650 N   0  0  0  0  0  0  0  0  0  0  0  0
  193.5570  175.3880  137.2330 O   0  0  0  0  0  0  0  0  0  0  0  0
  195.8300  174.5120  137.0600 C   0  0  0  0  0  2  0  0  0  0  0  0
  194.2480  175.1070  139.4350 O   0  0  0  0  0  1  0  0  0  0  0  0
  194.6260  172.5500  135.2310 C   0  0  0  0  0  2  0  0  0  0  0  0
  185.8410  178.2020  140.0490 O   0  0  0  0  0  0  0  0  0  0  0  0
  186.7850  177.2040  139.7640 C   0  0  0  0  0  1  0  0  0  0  0  0
  184.5180  178.6180  142.0600 C   0  0  1  0  0  3  0  0  0  0  0  0
  183.5010  177.7880  141.2920 C   0  0  0  0  0  2  0  0  0  0  0  0
  182.3100  178.6560  140.9210 C   0  0  0  0  0  2  0  0  0  0  0  0
  181.3400  178.6520  142.0100 N   0  0  0  0  0  2  0  0  0  0  0  0
  179.7310  178.4840  141.3260 P   0  0  1  0  0  0  0  0  0  0  0  0
  178.6340  177.4270  139.3510 C   0  0  0  0  0  2  0  0  0  0  0  0
  177.8500  178.5430  138.6490 C   0  0  0  0  0  2  0  0  0  0  0  0
  177.7950  179.8460  140.5080 C   0  0  0  0  0  2  0  0  0  0  0  0
  178.9500  180.0100  141.2820 O   0  0  0  0  0  0  0  0  0  0  0  0
  178.1420  179.8320  139.1480 O   0  0  0  0  0  0  0  0  0  0  0  0
  179.9010  177.8680  139.7430 O   0  0  0  0  0  0  0  0  0  0  0  0
  178.9380  177.5160  142.1830 O   0  0  0  0  0  0  0  0  0  0  0  0
  184.4780  178.2390  143.5370 C   0  0  0  0  0  2  0  0  0  0  0  0
  185.2550  179.2050  144.2990 N   0  0  0  0  0  2  0  0  0  0  0  0
  185.2270  179.2690  145.7190 C   0  0  0  0  0  0  0  0  0  0  0  0
  185.8560  180.1990  146.2930 O   0  0  0  0  0  0  0  0  0  0  0  0
  184.4570  178.2800  146.5030 C   0  0  0  0  0  3  0  0  0  0  0  0
  184.8550  177.0480  146.8460 C   0  0  0  0  0  3  0  0  0  0  0  0
  186.1830  176.4640  146.4950 C   0  0  0  0  0  2  0  0  0  0  0  0
  187.2750  177.1340  147.3160 C   0  0  0  0  0  2  0  0  0  0  0  0
  188.2830  177.5660  146.4450 O   0  0  0  0  0  0  0  0  0  0  0  0
  189.1510  178.6750  148.2950 O   0  0  0  0  0  1  0  0  0  0  0  0
  189.4430  177.8500  147.2030 C   0  0  1  0  0  3  0  0  0  0  0  0
  190.0930  176.6780  147.6200 O   0  0  0  0  0  0  0  0  0  0  0  0
  191.6150  177.2940  149.2130 O   0  0  0  0  0  1  0  0  0  0  0  0
  191.4200  177.0470  147.8510 C   0  0  1  0  0  3  0  0  0  0  0  0
  192.3360  175.9100  147.4170 C   0  0  1  0  0  3  0  0  0  0  0  0
  192.1170  175.6060  146.0580 O   0  0  0  0  0  0  0  0  0  0  0  0
  193.2590  176.3760  146.3650 C   0  0  2  0  0  3  0  0  0  0  0  0
  194.4820  175.4850  146.3330 C   0  0  0  0  0  2  0  0  0  0  0  0
  194.8870  175.2530  144.8930 C   0  0  0  0  0  2  0  0  0  0  0  0
  194.6730  176.4710  144.1250 N   0  0  0  0  0  1  0  0  0  0  0  0
  1 35  1  6  0  0  0
  1 37  1  0  0  0  0
  2  3  1  0  0  0  0
  4  8  1  6  0  0  0
  4  2  1  0  0  0  0
  5  3  1  0  0  0  0
  6  4  1  0  0  0  0
  7  1  1  1  0  0  0
  7  5  1  0  0  0  0
  7  6  1  0  0  0  0
  8  9  1  0  0  0  0
 10 12  1  1  0  0  0
 11 10  1  0  0  0  0
 11  9  1  1  0  0  0
 13 11  1  0  0  0  0
 13 10  1  0  0  0  0
 14 10  1  0  0  0  0
 15 17  1  1  0  0  0
 15 14  1  0  0  0  0
 17 16  1  0  0  0  0
 18 17  2  0  0  0  0
 20 19  1  1  0  0  0
 20 15  1  0  0  0  0
 21 32  1  0  0  0  0
 22 34  1  0  0  0  0
 22 21  1  0  0  0  0
 23 32  1  1  0  0  0
 23 31  1  0  0  0  0
 23 26  1  0  0  0  0
 24 28  2  0  0  0  0
 25 29  1  0  0  0  0
 26 29  1  0  0  0  0
 26 33  1  1  0  0  0
 27 21  1  0  0  0  0
 28 25  1  0  0  0  0
 29 20  1  6  0  0  0
 30 28  1  0  0  0  0
 30 23  1  0  0  0  0
 31 26  1  0  0  0  0
 34 30  1  0  0  0  0
 36 35  1  0  0  0  0
 37 38  1  6  0  0  0
 37 49  1  0  0  0  0
 39 38  1  0  0  0  0
 39 40  1  0  0  0  0
 41 40  1  0  0  0  0
 41 48  2  1  0  0  0
 42 47  1  0  0  0  0
 43 46  1  0  0  0  0
 43 42  1  0  0  0  0
 44 45  1  0  0  0  0
 45 41  1  0  0  0  0
 46 44  1  0  0  0  0
 47 41  1  0  0  0  0
 49 50  1  0  0  0  0
 50 51  1  0  0  0  0
 51 52  2  0  0  0  0
 51 53  1  0  0  0  0
 53 54  2  0  0  0  0
 55 54  1  0  0  0  0
 55 56  1  0  0  0  0
 57 59  1  0  0  0  0
 57 56  1  0  0  0  0
 59 60  1  0  0  0  0
 59 58  1  1  0  0  0
 60 62  1  0  0  0  0
 62 61  1  1  0  0  0
 63 62  1  6  0  0  0
 64 65  1  0  0  0  0
 64 63  1  0  0  0  0
 65 66  1  1  0  0  0
 65 63  1  0  0  0  0
 67 66  1  0  0  0  0
 68 67  1  0  0  0  0
M  END
>  <MODEL>
5

>  <REMARK>
 VINA RESULT:      -5.4      2.232      4.104
  Name = 
  27 active torsions:
  status: ('A' for Active; 'I' for Inactive)
    1  A    between atoms: C_1  and  C_48
    2  A    between atoms: P_2  and  N_22
    3  A    between atoms: O_3  and  C_5
    4  A    between atoms: O_3  and  C_62
    5  A    between atoms: C_4  and  C_9
    6  A    between atoms: C_4  and  N_31
    7  A    between atoms: O_8  and  C_66
    8  A    between atoms: C_9  and  C_33
    9  A    between atoms: C_9  and  C_66
   10  A    between atoms: C_10  and  C_49
   11  A    between atoms: C_12  and  C_42
   12  A    between atoms: C_13  and  C_34
   13  A    between atoms: C_17  and  C_34
   14  A    between atoms: N_22  and  C_51
   15  A    between atoms: C_24  and  C_39
   16  A    between atoms: C_28  and  C_44
   17  A    between atoms: C_28  and  C_62
   18  A    between atoms: C_29  and  O_52
   19  A    between atoms: C_29  and  O_56
   20  A    between atoms: C_32  and  C_67
   21  A    between atoms: C_33  and  C_51
   22  A    between atoms: C_37  and  C_62
   23  A    between atoms: C_39  and  C_53
   24  A    between atoms: C_47  and  C_66
   25  A    between atoms: C_48  and  O_52
   26  A    between atoms: C_49  and  C_67
   27  A    between atoms: C_53  and  O_56
                            x       y       z     vdW  Elec       q    Type
                         _______ _______ _______ _____ _____    ______ ____

>  <TORSDO>
F 27

$$$$
=
 OpenBabel11042417343D

 68 74  0  0  1  0  0  0  0  0999 V2000
  194.4260  170.2510  138.0250 C   0  0  1  0  0  3  0  0  0  0  0  0
  190.3330  169.7270  136.7420 C   0  0  0  0  0  2  0  0  0  0  0  0
  191.2300  168.5040  136.6020 C   0  0  0  0  0  2  0  0  0  0  0  0
  191.0520  171.0010  136.2570 C   0  0  2  0  0  3  0  0  0  0  0  0
  192.4580  168.6220  137.5180 C   0  0  0  0  0  2  0  0  0  0  0  0
  192.5730  170.9210  136.4270 C   0  0  0  0  0  2  0  0  0  0  0  0
  192.9430  170.0800  137.6460 C   0  0  2  0  0  3  0  0  0  0  0  0
  190.5180  172.2090  137.0130 C   0  0  0  0  0  2  0  0  0  0  0  0
  189.5890  171.8110  138.1420 C   0  0  0  0  0  2  0  0  0  0  0  0
  188.5060  173.7830  139.2190 C   0  0  1  0  0  0  0  0  0  0  0  0
  189.6400  172.8260  139.2770 C   0  0  1  0  0  3  0  0  0  0  0  0
  187.5700  173.6800  138.1750 O   0  0  0  0  0  1  0  0  0  0  0  0
  188.4890  172.6860  140.0930 O   0  0  0  0  0  0  0  0  0  0  0  0
  188.6690  175.0290  139.8610 O   0  0  0  0  0  0  0  0  0  0  0  0
  187.4300  175.3920  140.4350 C   0  0  2  0  0  3  0  0  0  0  0  0
  186.2100  177.4670  140.3670 O   0  0  0  0  0  1  0  0  0  0  0  0
  186.8340  176.5740  139.7240 C   0  0  0  0  0  0  0  0  0  0  0  0
  186.9560  176.6750  138.3450 O   0  0  0  0  0  0  0  0  0  0  0  0
  186.3380  175.9780  142.5500 O   0  0  0  0  0  1  0  0  0  0  0  0
  187.5470  175.5760  141.9720 C   0  0  2  0  0  3  0  0  0  0  0  0
  186.1320  177.5500  146.2340 N   0  0  0  0  0  0  0  0  0  0  0  0
  186.9480  176.8680  147.2240 C   0  0  0  0  0  2  0  0  0  0  0  0
  188.0030  177.4870  144.6800 C   0  0  1  0  0  0  0  0  0  0  0  0
  189.6670  174.2330  145.1500 O   0  0  0  0  0  0  0  0  0  0  0  0
  189.7480  175.6260  143.2130 C   0  0  0  0  0  2  0  0  0  0  0  0
  188.2560  177.6830  143.2360 C   0  0  2  0  0  0  0  0  0  0  0  0
  185.2290  178.4330  146.9520 C   0  0  0  0  0  1  0  0  0  0  0  0
  189.2630  175.2920  144.5940 C   0  0  0  0  0  0  0  0  0  0  0  0
  188.7240  176.4580  142.4280 C   0  0  2  0  0  3  0  0  0  0  0  0
  188.4060  176.2120  145.3080 N   0  0  0  0  0  0  0  0  0  0  0  0
  189.1340  178.1930  144.2180 O   0  0  0  0  0  0  0  0  0  0  0  0
  187.0330  178.3830  145.4480 C   0  0  0  0  0  2  0  0  0  0  0  0
  187.5460  178.7010  142.5970 O   0  0  0  0  0  1  0  0  0  0  0  0
  187.7790  175.7620  146.5550 C   0  0  0  0  0  2  0  0  0  0  0  0
  195.2160  170.5040  136.8850 O   0  0  0  0  0  0  0  0  0  0  0  0
  196.4640  169.9260  137.1570 C   0  0  0  0  0  1  0  0  0  0  0  0
  194.7240  171.2580  139.1550 C   0  0  1  0  0  3  0  0  0  0  0  0
  193.6670  172.3500  139.1440 C   0  0  0  0  0  2  0  0  0  0  0  0
  194.2840  173.6530  138.6610 C   0  0  0  0  0  2  0  0  0  0  0  0
  195.6370  173.4060  138.1770 N   0  0  0  0  0  2  0  0  0  0  0  0
  195.8140  174.1610  136.6010 P   0  0  1  0  0  0  0  0  0  0  0  0
  197.5580  175.3620  135.2830 C   0  0  0  0  0  2  0  0  0  0  0  0
  196.9330  176.7000  134.8680 C   0  0  0  0  0  2  0  0  0  0  0  0
  194.8120  175.9440  135.1560 C   0  0  0  0  0  2  0  0  0  0  0  0
  194.4830  175.1990  136.2940 O   0  0  0  0  0  0  0  0  0  0  0  0
  195.7040  176.9690  135.5100 O   0  0  0  0  0  0  0  0  0  0  0  0
  197.2650  175.0600  136.6160 O   0  0  0  0  0  0  0  0  0  0  0  0
  195.8810  173.0730  135.5470 O   0  0  0  0  0  0  0  0  0  0  0  0
  194.7560  170.5890  140.5270 C   0  0  0  0  0  2  0  0  0  0  0  0
  196.1000  170.0940  140.7860 N   0  0  0  0  0  2  0  0  0  0  0  0
  196.7410  170.2290  142.0470 C   0  0  0  0  0  0  0  0  0  0  0  0
  197.9410  169.8580  142.1560 O   0  0  0  0  0  0  0  0  0  0  0  0
  196.0230  170.8160  143.1990 C   0  0  0  0  0  3  0  0  0  0  0  0
  196.0550  172.0960  143.5920 C   0  0  0  0  0  3  0  0  0  0  0  0
  196.8300  173.1690  142.9030 C   0  0  0  0  0  2  0  0  0  0  0  0
  195.9670  173.8260  141.8360 C   0  0  0  0  0  2  0  0  0  0  0  0
  195.3940  174.9830  142.3780 O   0  0  0  0  0  0  0  0  0  0  0  0
  196.8710  176.6400  141.6870 O   0  0  0  0  0  1  0  0  0  0  0  0
  196.4320  175.8620  142.7640 C   0  0  1  0  0  3  0  0  0  0  0  0
  196.0540  176.6730  143.8460 O   0  0  0  0  0  0  0  0  0  0  0  0
  195.7400  175.3420  145.6790 O   0  0  0  0  0  1  0  0  0  0  0  0
  195.1240  175.9250  144.5680 C   0  0  1  0  0  3  0  0  0  0  0  0
  194.0080  176.8450  145.0470 C   0  0  1  0  0  3  0  0  0  0  0  0
  192.9450  176.8360  144.1220 O   0  0  0  0  0  0  0  0  0  0  0  0
  192.7790  176.0680  145.2940 C   0  0  2  0  0  3  0  0  0  0  0  0
  191.8890  176.8210  146.2600 C   0  0  0  0  0  2  0  0  0  0  0  0
  191.6560  175.9650  147.4870 C   0  0  0  0  0  2  0  0  0  0  0  0
  191.2270  176.8070  148.5930 N   0  0  0  0  0  1  0  0  0  0  0  0
  1 35  1  6  0  0  0
  1 37  1  0  0  0  0
  3  2  1  0  0  0  0
  3  5  1  0  0  0  0
  4  6  1  0  0  0  0
  4  2  1  0  0  0  0
  4  8  1  1  0  0  0
  5  7  1  0  0  0  0
  6  7  1  0  0  0  0
  7  1  1  6  0  0  0
  8  9  1  0  0  0  0
 10 12  1  6  0  0  0
 10 11  1  0  0  0  0
 10 14  1  0  0  0  0
 10 13  1  0  0  0  0
 11  9  1  6  0  0  0
 11 13  1  0  0  0  0
 14 15  1  0  0  0  0
 15 17  1  6  0  0  0
 15 20  1  0  0  0  0
 17 16  1  0  0  0  0
 18 17  2  0  0  0  0
 20 19  1  6  0  0  0
 21 27  1  0  0  0  0
 21 22  1  0  0  0  0
 23 30  1  0  0  0  0
 23 32  1  1  0  0  0
 25 28  1  0  0  0  0
 26 33  1  6  0  0  0
 26 31  1  0  0  0  0
 26 23  1  0  0  0  0
 28 24  2  0  0  0  0
 28 30  1  0  0  0  0
 29 20  1  1  0  0  0
 29 25  1  0  0  0  0
 29 26  1  0  0  0  0
 30 34  1  0  0  0  0
 31 23  1  0  0  0  0
 32 21  1  0  0  0  0
 34 22  1  0  0  0  0
 35 36  1  0  0  0  0
 37 38  1  1  0  0  0
 37 49  1  0  0  0  0
 39 38  1  0  0  0  0
 40 39  1  0  0  0  0
 41 48  2  6  0  0  0
 41 47  1  0  0  0  0
 41 40  1  0  0  0  0
 42 47  1  0  0  0  0
 43 42  1  0  0  0  0
 43 46  1  0  0  0  0
 44 46  1  0  0  0  0
 44 45  1  0  0  0  0
 45 41  1  0  0  0  0
 49 50  1  0  0  0  0
 50 51  1  0  0  0  0
 51 52  2  0  0  0  0
 51 53  1  0  0  0  0
 53 54  2  0  0  0  0
 55 54  1  0  0  0  0
 56 57  1  0  0  0  0
 56 55  1  0  0  0  0
 57 59  1  0  0  0  0
 59 58  1  6  0  0  0
 59 60  1  0  0  0  0
 60 62  1  0  0  0  0
 62 61  1  1  0  0  0
 63 62  1  6  0  0  0
 63 65  1  0  0  0  0
 64 63  1  0  0  0  0
 64 65  1  0  0  0  0
 65 66  1  1  0  0  0
 66 67  1  0  0  0  0
 67 68  1  0  0  0  0
M  END
>  <MODEL>
6

>  <REMARK>
 VINA RESULT:      -5.4      3.961     10.579
  Name = 
  27 active torsions:
  status: ('A' for Active; 'I' for Inactive)
    1  A    between atoms: C_1  and  C_48
    2  A    between atoms: P_2  and  N_22
    3  A    between atoms: O_3  and  C_5
    4  A    between atoms: O_3  and  C_62
    5  A    between atoms: C_4  and  C_9
    6  A    between atoms: C_4  and  N_31
    7  A    between atoms: O_8  and  C_66
    8  A    between atoms: C_9  and  C_33
    9  A    between atoms: C_9  and  C_66
   10  A    between atoms: C_10  and  C_49
   11  A    between atoms: C_12  and  C_42
   12  A    between atoms: C_13  and  C_34
   13  A    between atoms: C_17  and  C_34
   14  A    between atoms: N_22  and  C_51
   15  A    between atoms: C_24  and  C_39
   16  A    between atoms: C_28  and  C_44
   17  A    between atoms: C_28  and  C_62
   18  A    between atoms: C_29  and  O_52
   19  A    between atoms: C_29  and  O_56
   20  A    between atoms: C_32  and  C_67
   21  A    between atoms: C_33  and  C_51
   22  A    between atoms: C_37  and  C_62
   23  A    between atoms: C_39  and  C_53
   24  A    between atoms: C_47  and  C_66
   25  A    between atoms: C_48  and  O_52
   26  A    between atoms: C_49  and  C_67
   27  A    between atoms: C_53  and  O_56
                            x       y       z     vdW  Elec       q    Type
                         _______ _______ _______ _____ _____    ______ ____

>  <TORSDO>
F 27

$$$$
=
 OpenBabel11042417343D

 68 74  0  0  1  0  0  0  0  0999 V2000
  186.3250  178.3730  141.5220 C   0  0  1  0  0  3  0  0  0  0  0  0
  188.7490  175.3670  143.4620 C   0  0  0  0  0  2  0  0  0  0  0  0
  187.2730  175.3690  143.8390 C   0  0  0  0  0  2  0  0  0  0  0  0
  189.3160  176.7990  143.4330 C   0  0  2  0  0  3  0  0  0  0  0  0
  186.4380  176.0890  142.7690 C   0  0  0  0  0  2  0  0  0  0  0  0
  188.2540  177.8480  143.0840 C   0  0  0  0  0  2  0  0  0  0  0  0
  187.2040  177.2690  142.1390 C   0  0  2  0  0  3  0  0  0  0  0  0
  190.4570  176.8780  142.4280 C   0  0  0  0  0  2  0  0  0  0  0  0
  191.8040  176.6210  143.0720 C   0  0  0  0  0  2  0  0  0  0  0  0
  192.5980  174.2870  142.6900 C   0  0  1  0  0  0  0  0  0  0  0  0
  192.6540  175.6930  142.2130 C   0  0  1  0  0  3  0  0  0  0  0  0
  191.8350  173.9750  143.8270 O   0  0  0  0  0  1  0  0  0  0  0  0
  191.8260  174.7190  141.6010 O   0  0  0  0  0  0  0  0  0  0  0  0
  193.6670  173.4350  142.3370 O   0  0  0  0  0  0  0  0  0  0  0  0
  193.2680  172.1030  142.5920 C   0  0  2  0  0  3  0  0  0  0  0  0
  193.6750  171.5300  144.8950 O   0  0  0  0  0  1  0  0  0  0  0  0
  194.0840  171.5000  143.6980 C   0  0  0  0  0  0  0  0  0  0  0  0
  195.3100  170.9190  143.4040 O   0  0  0  0  0  0  0  0  0  0  0  0
  192.8370  172.0040  140.1800 O   0  0  0  0  0  1  0  0  0  0  0  0
  193.2490  171.2570  141.2900 C   0  0  2  0  0  3  0  0  0  0  0  0
  190.8680  170.7510  137.0310 N   0  0  0  0  0  0  0  0  0  0  0  0
  191.5840  169.6820  136.3540 C   0  0  0  0  0  2  0  0  0  0  0  0
  191.2490  169.6310  139.1570 C   0  0  1  0  0  0  0  0  0  0  0  0
  194.6480  168.2110  139.0180 O   0  0  0  0  0  0  0  0  0  0  0  0
  193.3920  168.7540  140.9740 C   0  0  0  0  0  2  0  0  0  0  0  0
  191.1720  169.9330  140.6020 C   0  0  2  0  0  0  0  0  0  0  0  0
  189.8410  171.2270  136.1200 C   0  0  0  0  0  1  0  0  0  0  0  0
  193.5820  168.7010  139.4860 C   0  0  0  0  0  0  0  0  0  0  0  0
  192.4900  169.9220  141.3990 C   0  0  2  0  0  3  0  0  0  0  0  0
  192.5240  169.1340  138.6000 N   0  0  0  0  0  0  0  0  0  0  0  0
  190.7140  168.7050  140.0780 O   0  0  0  0  0  0  0  0  0  0  0  0
  190.1990  170.1490  138.1760 C   0  0  0  0  0  2  0  0  0  0  0  0
  190.1150  170.7400  141.0290 O   0  0  0  0  0  1  0  0  0  0  0  0
  192.8200  169.2730  137.1700 C   0  0  0  0  0  2  0  0  0  0  0  0
  186.2540  178.2420  140.1200 O   0  0  0  0  0  0  0  0  0  0  0  0
  187.0310  177.1160  139.8080 C   0  0  0  0  0  1  0  0  0  0  0  0
  184.9260  178.5530  142.1460 C   0  0  1  0  0  3  0  0  0  0  0  0
  183.9150  177.7460  141.3490 C   0  0  0  0  0  2  0  0  0  0  0  0
  182.7100  178.6140  141.0240 C   0  0  0  0  0  2  0  0  0  0  0  0
  181.8310  178.6880  142.1840 N   0  0  0  0  0  2  0  0  0  0  0  0
  180.2000  179.0300  141.6300 P   0  0  1  0  0  0  0  0  0  0  0  0
  178.3070  177.8390  140.5260 C   0  0  0  0  0  2  0  0  0  0  0  0
  177.9490  178.6640  139.2830 C   0  0  0  0  0  2  0  0  0  0  0  0
  178.9260  180.5460  140.0960 C   0  0  0  0  0  2  0  0  0  0  0  0
  180.1840  180.4740  140.7040 O   0  0  0  0  0  0  0  0  0  0  0  0
  178.8900  179.6780  138.9940 O   0  0  0  0  0  0  0  0  0  0  0  0
  179.6910  177.7140  140.6690 O   0  0  0  0  0  0  0  0  0  0  0  0
  179.2970  179.1760  142.8400 O   0  0  0  0  0  0  0  0  0  0  0  0
  184.8890  178.1200  143.6090 C   0  0  0  0  0  2  0  0  0  0  0  0
  185.4620  179.1740  144.4340 N   0  0  0  0  0  2  0  0  0  0  0  0
  185.2290  179.2700  145.8330 C   0  0  0  0  0  0  0  0  0  0  0  0
  185.6850  180.2690  146.4520 O   0  0  0  0  0  0  0  0  0  0  0  0
  184.4470  178.2340  146.5400 C   0  0  0  0  0  3  0  0  0  0  0  0
  184.8380  176.9800  146.8050 C   0  0  0  0  0  3  0  0  0  0  0  0
  186.1670  176.4160  146.4300 C   0  0  0  0  0  2  0  0  0  0  0  0
  187.2460  176.9910  147.3370 C   0  0  0  0  0  2  0  0  0  0  0  0
  188.2590  177.5320  146.5350 O   0  0  0  0  0  0  0  0  0  0  0  0
  188.8740  178.8080  148.3780 O   0  0  0  0  0  1  0  0  0  0  0  0
  189.3220  177.9480  147.3700 C   0  0  1  0  0  3  0  0  0  0  0  0
  190.0150  176.8560  147.9150 O   0  0  0  0  0  0  0  0  0  0  0  0
  191.6960  177.7550  149.1780 O   0  0  0  0  0  1  0  0  0  0  0  0
  191.3590  177.2330  147.9260 C   0  0  1  0  0  3  0  0  0  0  0  0
  192.2220  176.0080  147.6510 C   0  0  1  0  0  3  0  0  0  0  0  0
  191.6560  175.2420  146.6130 O   0  0  0  0  0  0  0  0  0  0  0  0
  192.7550  176.0600  146.2770 C   0  0  2  0  0  3  0  0  0  0  0  0
  194.0000  175.2060  146.1830 C   0  0  0  0  0  2  0  0  0  0  0  0
  195.0580  175.9580  145.4030 C   0  0  0  0  0  2  0  0  0  0  0  0
  196.0120  175.0130  144.8410 N   0  0  0  0  0  1  0  0  0  0  0  0
  1 35  1  6  0  0  0
  1 37  1  0  0  0  0
  2  3  1  0  0  0  0
  4  8  1  6  0  0  0
  4  2  1  0  0  0  0
  5  3  1  0  0  0  0
  6  4  1  0  0  0  0
  7  1  1  1  0  0  0
  7  5  1  0  0  0  0
  7  6  1  0  0  0  0
  8  9  1  0  0  0  0
 10 12  1  1  0  0  0
 11 10  1  0  0  0  0
 11  9  1  1  0  0  0
 13 11  1  0  0  0  0
 13 10  1  0  0  0  0
 14 10  1  0  0  0  0
 15 14  1  6  0  0  0
 15 17  1  0  0  0  0
 17 16  1  0  0  0  0
 18 17  2  0  0  0  0
 20 19  1  6  0  0  0
 20 15  1  0  0  0  0
 21 32  1  0  0  0  0
 22 21  1  0  0  0  0
 22 34  1  0  0  0  0
 23 32  1  6  0  0  0
 23 31  1  0  0  0  0
 23 26  1  0  0  0  0
 24 28  2  0  0  0  0
 25 29  1  0  0  0  0
 26 33  1  1  0  0  0
 26 29  1  0  0  0  0
 27 21  1  0  0  0  0
 28 25  1  0  0  0  0
 29 20  1  6  0  0  0
 30 23  1  0  0  0  0
 30 28  1  0  0  0  0
 31 26  1  0  0  0  0
 34 30  1  0  0  0  0
 36 35  1  0  0  0  0
 37 38  1  6  0  0  0
 37 49  1  0  0  0  0
 39 38  1  0  0  0  0
 39 40  1  0  0  0  0
 41 40  1  0  0  0  0
 41 48  2  1  0  0  0
 42 47  1  0  0  0  0
 43 42  1  0  0  0  0
 44 45  1  0  0  0  0
 45 41  1  0  0  0  0
 46 43  1  0  0  0  0
 46 44  1  0  0  0  0
 47 41  1  0  0  0  0
 49 50  1  0  0  0  0
 50 51  1  0  0  0  0
 51 52  2  0  0  0  0
 51 53  1  0  0  0  0
 53 54  2  0  0  0  0
 55 54  1  0  0  0  0
 55 56  1  0  0  0  0
 57 56  1  0  0  0  0
 57 59  1  0  0  0  0
 59 60  1  0  0  0  0
 59 58  1  1  0  0  0
 60 62  1  0  0  0  0
 62 61  1  1  0  0  0
 63 62  1  6  0  0  0
 64 63  1  0  0  0  0
 65 66  1  1  0  0  0
 65 64  1  0  0  0  0
 65 63  1  0  0  0  0
 67 66  1  0  0  0  0
 68 67  1  0  0  0  0
M  END
>  <MODEL>
7

>  <REMARK>
 VINA RESULT:      -5.1      2.720      4.914
  Name = 
  27 active torsions:
  status: ('A' for Active; 'I' for Inactive)
    1  A    between atoms: C_1  and  C_48
    2  A    between atoms: P_2  and  N_22
    3  A    between atoms: O_3  and  C_5
    4  A    between atoms: O_3  and  C_62
    5  A    between atoms: C_4  and  C_9
    6  A    between atoms: C_4  and  N_31
    7  A    between atoms: O_8  and  C_66
    8  A    between atoms: C_9  and  C_33
    9  A    between atoms: C_9  and  C_66
   10  A    between atoms: C_10  and  C_49
   11  A    between atoms: C_12  and  C_42
   12  A    between atoms: C_13  and  C_34
   13  A    between atoms: C_17  and  C_34
   14  A    between atoms: N_22  and  C_51
   15  A    between atoms: C_24  and  C_39
   16  A    between atoms: C_28  and  C_44
   17  A    between atoms: C_28  and  C_62
   18  A    between atoms: C_29  and  O_52
   19  A    between atoms: C_29  and  O_56
   20  A    between atoms: C_32  and  C_67
   21  A    between atoms: C_33  and  C_51
   22  A    between atoms: C_37  and  C_62
   23  A    between atoms: C_39  and  C_53
   24  A    between atoms: C_47  and  C_66
   25  A    between atoms: C_48  and  O_52
   26  A    between atoms: C_49  and  C_67
   27  A    between atoms: C_53  and  O_56
                            x       y       z     vdW  Elec       q    Type
                         _______ _______ _______ _____ _____    ______ ____

>  <TORSDO>
F 27

$$$$
=
 OpenBabel11042417343D

 68 74  0  0  1  0  0  0  0  0999 V2000
  191.0130  171.5270  141.2920 C   0  0  1  0  0  3  0  0  0  0  0  0
  188.9630  172.9510  137.7650 C   0  0  0  0  0  2  0  0  0  0  0  0
  190.2040  172.1070  137.5110 C   0  0  0  0  0  2  0  0  0  0  0  0
  189.2110  173.9810  138.8830 C   0  0  2  0  0  3  0  0  0  0  0  0
  190.5480  171.2570  138.7440 C   0  0  0  0  0  2  0  0  0  0  0  0
  190.2560  173.5080  139.9000 C   0  0  0  0  0  2  0  0  0  0  0  0
  190.2160  171.9900  140.0580 C   0  0  2  0  0  3  0  0  0  0  0  0
  187.9040  174.2830  139.6010 C   0  0  0  0  0  2  0  0  0  0  0  0
  187.8180  175.7290  140.0470 C   0  0  0  0  0  2  0  0  0  0  0  0
  187.5790  176.9730  142.1960 C   0  0  1  0  0  0  0  0  0  0  0  0
  188.3020  175.8890  141.4830 C   0  0  1  0  0  3  0  0  0  0  0  0
  186.5990  177.7140  141.5120 O   0  0  0  0  0  1  0  0  0  0  0  0
  187.2340  175.6260  142.3770 O   0  0  0  0  0  0  0  0  0  0  0  0
  188.2160  177.5610  143.3090 O   0  0  0  0  0  0  0  0  0  0  0  0
  187.9000  176.7900  144.4520 C   0  0  2  0  0  3  0  0  0  0  0  0
  186.1760  178.4360  144.7960 O   0  0  0  0  0  0  0  0  0  0  0  0
  186.6790  177.3280  145.1420 C   0  0  0  0  0  0  0  0  0  0  0  0
  186.1110  176.6080  146.1840 O   0  0  0  0  0  1  0  0  0  0  0  0
  190.2150  177.4090  144.9700 O   0  0  0  0  0  1  0  0  0  0  0  0
  189.1310  176.6280  145.3850 C   0  0  2  0  0  3  0  0  0  0  0  0
  193.9720  176.4670  144.6130 N   0  0  0  0  0  0  0  0  0  0  0  0
  194.5350  176.3230  145.9450 C   0  0  0  0  0  2  0  0  0  0  0  0
  192.0920  175.0750  145.2790 C   0  0  1  0  0  0  0  0  0  0  0  0
  191.2770  175.9820  148.7570 O   0  0  0  0  0  0  0  0  0  0  0  0
  189.8280  174.9660  147.1560 C   0  0  0  0  0  2  0  0  0  0  0  0
  190.7380  174.7280  144.7950 C   0  0  2  0  0  0  0  0  0  0  0  0
  195.0840  176.5760  143.6830 C   0  0  0  0  0  1  0  0  0  0  0  0
  191.1350  175.5750  147.5700 C   0  0  0  0  0  0  0  0  0  0  0  0
  189.5430  175.1710  145.6610 C   0  0  2  0  0  3  0  0  0  0  0  0
  192.2420  175.6260  146.6410 N   0  0  0  0  0  0  0  0  0  0  0  0
  191.6060  173.7510  145.3290 O   0  0  0  0  0  0  0  0  0  0  0  0
  193.2690  175.2260  144.3170 C   0  0  0  0  0  2  0  0  0  0  0  0
  190.5730  174.5780  143.4170 O   0  0  0  0  0  1  0  0  0  0  0  0
  193.4240  176.4170  147.0020 C   0  0  0  0  0  2  0  0  0  0  0  0
  190.3270  170.5120  141.9890 O   0  0  0  0  0  0  0  0  0  0  0  0
  191.0350  169.3300  141.7260 C   0  0  0  0  0  1  0  0  0  0  0  0
  192.4870  171.1460  141.0430 C   0  0  1  0  0  3  0  0  0  0  0  0
  193.1520  172.2340  140.2160 C   0  0  0  0  0  2  0  0  0  0  0  0
  194.2250  171.6200  139.3310 C   0  0  0  0  0  2  0  0  0  0  0  0
  193.6680  170.4930  138.5940 N   0  0  0  0  0  2  0  0  0  0  0  0
  194.6350  170.2350  137.1500 P   0  0  1  0  0  0  0  0  0  0  0  0
  194.9470  168.4970  135.3890 C   0  0  0  0  0  2  0  0  0  0  0  0
  196.4450  168.1660  135.3750 C   0  0  0  0  0  2  0  0  0  0  0  0
  197.0150  170.1220  136.3770 C   0  0  0  0  0  2  0  0  0  0  0  0
  196.2820  170.5840  137.4770 O   0  0  0  0  0  0  0  0  0  0  0  0
  197.1530  168.7280  136.4600 O   0  0  0  0  0  0  0  0  0  0  0  0
  194.4640  168.5980  136.6960 O   0  0  0  0  0  0  0  0  0  0  0  0
  194.1170  171.1410  136.0510 O   0  0  0  0  0  0  0  0  0  0  0  0
  193.2570  170.9480  142.3450 C   0  0  0  0  0  2  0  0  0  0  0  0
  194.5370  170.3210  142.0520 N   0  0  0  0  0  2  0  0  0  0  0  0
  195.2470  169.5370  143.0020 C   0  0  0  0  0  0  0  0  0  0  0  0
  196.3940  169.1120  142.6960 O   0  0  0  0  0  0  0  0  0  0  0  0
  194.6620  169.2480  144.3290 C   0  0  0  0  0  3  0  0  0  0  0  0
  195.2500  169.4350  145.5180 C   0  0  0  0  0  3  0  0  0  0  0  0
  196.6210  169.9930  145.7010 C   0  0  0  0  0  2  0  0  0  0  0  0
  196.5540  171.5100  145.7940 C   0  0  0  0  0  2  0  0  0  0  0  0
  197.1910  172.0530  144.6710 O   0  0  0  0  0  0  0  0  0  0  0  0
  197.3000  174.1040  145.7610 O   0  0  0  0  0  1  0  0  0  0  0  0
  196.8880  173.4330  144.6040 C   0  0  1  0  0  3  0  0  0  0  0  0
  197.4340  174.0320  143.4580 O   0  0  0  0  0  0  0  0  0  0  0  0
  195.6660  173.6270  142.0640 O   0  0  0  0  0  1  0  0  0  0  0  0
  196.9790  173.2670  142.3820 C   0  0  1  0  0  3  0  0  0  0  0  0
  197.8700  173.5260  141.1740 C   0  0  1  0  0  3  0  0  0  0  0  0
  197.8810  172.3960  140.3320 O   0  0  0  0  0  0  0  0  0  0  0  0
  197.0720  173.4820  139.9350 C   0  0  2  0  0  3  0  0  0  0  0  0
  197.7810  174.2590  138.8470 C   0  0  0  0  0  2  0  0  0  0  0  0
  196.9760  174.1670  137.5690 C   0  0  0  0  0  2  0  0  0  0  0  0
  197.1930  175.3640  136.7690 N   0  0  0  0  0  1  0  0  0  0  0  0
  1 35  1  6  0  0  0
  2  4  1  0  0  0  0
  3  2  1  0  0  0  0
  3  5  1  0  0  0  0
  4  8  1  1  0  0  0
  4  6  1  0  0  0  0
  5  7  1  0  0  0  0
  6  7  1  0  0  0  0
  7  1  1  1  0  0  0
  8  9  1  0  0  0  0
 10 12  1  6  0  0  0
 10 13  1  0  0  0  0
 10 14  1  0  0  0  0
 11  9  1  6  0  0  0
 11 10  1  0  0  0  0
 11 13  1  0  0  0  0
 15 14  1  6  0  0  0
 15 17  1  0  0  0  0
 15 20  1  0  0  0  0
 16 17  2  0  0  0  0
 17 18  1  0  0  0  0
 20 19  1  6  0  0  0
 21 22  1  0  0  0  0
 22 34  1  0  0  0  0
 23 32  1  6  0  0  0
 23 31  1  0  0  0  0
 23 30  1  0  0  0  0
 25 28  1  0  0  0  0
 26 33  1  6  0  0  0
 26 23  1  0  0  0  0
 26 31  1  0  0  0  0
 26 29  1  0  0  0  0
 27 21  1  0  0  0  0
 28 24  2  0  0  0  0
 29 20  1  1  0  0  0
 29 25  1  0  0  0  0
 30 34  1  0  0  0  0
 30 28  1  0  0  0  0
 32 21  1  0  0  0  0
 36 35  1  0  0  0  0
 37 38  1  6  0  0  0
 37  1  1  0  0  0  0
 37 49  1  0  0  0  0
 39 38  1  0  0  0  0
 40 39  1  0  0  0  0
 41 48  2  6  0  0  0
 41 45  1  0  0  0  0
 41 40  1  0  0  0  0
 42 47  1  0  0  0  0
 43 42  1  0  0  0  0
 43 46  1  0  0  0  0
 44 46  1  0  0  0  0
 44 45  1  0  0  0  0
 47 41  1  0  0  0  0
 50 49  1  0  0  0  0
 50 51  1  0  0  0  0
 51 53  1  0  0  0  0
 52 51  2  0  0  0  0
 53 54  2  0  0  0  0
 54 55  1  0  0  0  0
 55 56  1  0  0  0  0
 57 56  1  0  0  0  0
 59 57  1  0  0  0  0
 59 58  1  1  0  0  0
 60 59  1  0  0  0  0
 62 61  1  6  0  0  0
 62 60  1  0  0  0  0
 63 62  1  1  0  0  0
 64 63  1  0  0  0  0
 65 66  1  6  0  0  0
 65 64  1  0  0  0  0
 65 63  1  0  0  0  0
 67 66  1  0  0  0  0
 68 67  1  0  0  0  0
M  END
>  <MODEL>
8

>  <REMARK>
 VINA RESULT:      -5.0      4.389     10.429
  Name = 
  27 active torsions:
  status: ('A' for Active; 'I' for Inactive)
    1  A    between atoms: C_1  and  C_48
    2  A    between atoms: P_2  and  N_22
    3  A    between atoms: O_3  and  C_5
    4  A    between atoms: O_3  and  C_62
    5  A    between atoms: C_4  and  C_9
    6  A    between atoms: C_4  and  N_31
    7  A    between atoms: O_8  and  C_66
    8  A    between atoms: C_9  and  C_33
    9  A    between atoms: C_9  and  C_66
   10  A    between atoms: C_10  and  C_49
   11  A    between atoms: C_12  and  C_42
   12  A    between atoms: C_13  and  C_34
   13  A    between atoms: C_17  and  C_34
   14  A    between atoms: N_22  and  C_51
   15  A    between atoms: C_24  and  C_39
   16  A    between atoms: C_28  and  C_44
   17  A    between atoms: C_28  and  C_62
   18  A    between atoms: C_29  and  O_52
   19  A    between atoms: C_29  and  O_56
   20  A    between atoms: C_32  and  C_67
   21  A    between atoms: C_33  and  C_51
   22  A    between atoms: C_37  and  C_62
   23  A    between atoms: C_39  and  C_53
   24  A    between atoms: C_47  and  C_66
   25  A    between atoms: C_48  and  O_52
   26  A    between atoms: C_49  and  C_67
   27  A    between atoms: C_53  and  O_56
                            x       y       z     vdW  Elec       q    Type
                         _______ _______ _______ _____ _____    ______ ____

>  <TORSDO>
F 27

$$$$
=
 OpenBabel11042417343D

 68 74  0  0  1  0  0  0  0  0999 V2000
  191.8260  170.0110  138.0830 C   0  0  1  0  0  3  0  0  0  0  0  0
  192.3870  169.9400  142.3670 C   0  0  0  0  0  2  0  0  0  0  0  0
  193.3000  169.0220  141.5660 C   0  0  0  0  0  2  0  0  0  0  0  0
  190.9350  169.8590  141.8590 C   0  0  2  0  0  3  0  0  0  0  0  0
  193.3820  169.4770  140.1010 C   0  0  0  0  0  2  0  0  0  0  0  0
  190.8490  169.5070  140.3690 C   0  0  0  0  0  2  0  0  0  0  0  0
  192.0470  170.0660  139.6060 C   0  0  2  0  0  3  0  0  0  0  0  0
  190.2300  171.1840  142.1080 C   0  0  0  0  0  2  0  0  0  0  0  0
  190.0420  171.4620  143.5860 C   0  0  0  0  0  2  0  0  0  0  0  0
  189.8390  173.9070  144.0390 C   0  0  1  0  0  0  0  0  0  0  0  0
  190.7590  172.7410  143.9990 C   0  0  1  0  0  3  0  0  0  0  0  0
  188.4890  173.7320  143.6900 O   0  0  0  0  0  1  0  0  0  0  0  0
  190.2060  173.2270  145.2100 O   0  0  0  0  0  0  0  0  0  0  0  0
  190.4090  175.1920  143.9160 O   0  0  0  0  0  0  0  0  0  0  0  0
  191.2600  175.4020  145.0250 C   0  0  2  0  0  3  0  0  0  0  0  0
  190.4670  176.1160  147.1840 O   0  0  0  0  0  1  0  0  0  0  0  0
  190.6730  176.4100  145.9710 C   0  0  0  0  0  0  0  0  0  0  0  0
  190.3370  177.6720  145.5010 O   0  0  0  0  0  0  0  0  0  0  0  0
  193.0090  175.1870  143.3210 O   0  0  0  0  0  1  0  0  0  0  0  0
  192.7090  175.7310  144.5740 C   0  0  2  0  0  3  0  0  0  0  0  0
  195.9410  172.8630  142.2540 N   0  0  0  0  0  0  0  0  0  0  0  0
  197.1040  173.7160  142.0780 C   0  0  0  0  0  2  0  0  0  0  0  0
  195.5170  173.9190  144.4030 C   0  0  1  0  0  0  0  0  0  0  0  0
  196.3080  177.4970  144.0040 O   0  0  0  0  0  0  0  0  0  0  0  0
  194.8660  176.5130  145.6320 C   0  0  0  0  0  2  0  0  0  0  0  0
  194.4250  174.0220  145.3950 C   0  0  2  0  0  0  0  0  0  0  0  0
  196.2320  171.5960  141.6020 C   0  0  0  0  0  1  0  0  0  0  0  0
  195.7720  176.4390  144.4380 C   0  0  0  0  0  0  0  0  0  0  0  0
  193.7970  175.4110  145.6150 C   0  0  2  0  0  3  0  0  0  0  0  0
  196.0860  175.1600  143.8390 N   0  0  0  0  0  0  0  0  0  0  0  0
  195.7690  173.8410  145.7890 O   0  0  0  0  0  0  0  0  0  0  0  0
  195.8190  172.6070  143.6830 C   0  0  0  0  0  2  0  0  0  0  0  0
  193.6600  172.8760  145.6220 O   0  0  0  0  0  1  0  0  0  0  0  0
  196.7900  175.1430  142.5530 C   0  0  0  0  0  2  0  0  0  0  0  0
  191.3270  168.7530  137.6870 O   0  0  0  0  0  0  0  0  0  0  0  0
  192.3380  168.1770  136.9040 C   0  0  0  0  0  1  0  0  0  0  0  0
  191.0010  171.1640  137.4760 C   0  0  1  0  0  3  0  0  0  0  0  0
  190.9780  171.0200  135.9630 C   0  0  0  0  0  2  0  0  0  0  0  0
  192.2490  171.6110  135.3740 C   0  0  0  0  0  2  0  0  0  0  0  0
  192.3290  173.0290  135.7010 N   0  0  0  0  0  2  0  0  0  0  0  0
  193.9560  173.3850  136.2610 P   0  0  1  0  0  0  0  0  0  0  0  0
  195.3880  172.9520  138.2570 C   0  0  0  0  0  2  0  0  0  0  0  0
  195.8780  174.3240  138.7360 C   0  0  0  0  0  2  0  0  0  0  0  0
  195.4960  175.3040  136.7250 C   0  0  0  0  0  2  0  0  0  0  0  0
  194.3030  175.0490  136.0370 O   0  0  0  0  0  0  0  0  0  0  0  0
  195.2300  175.4050  138.0990 O   0  0  0  0  0  0  0  0  0  0  0  0
  194.0320  172.9900  137.9200 O   0  0  0  0  0  0  0  0  0  0  0  0
  194.9360  172.5360  135.4740 O   0  0  0  0  0  0  0  0  0  0  0  0
  189.5710  171.1920  138.0100 C   0  0  0  0  0  2  0  0  0  0  0  0
  188.8750  172.3410  137.4520 N   0  0  0  0  0  2  0  0  0  0  0  0
  188.8570  173.6140  138.0840 C   0  0  0  0  0  0  0  0  0  0  0  0
  188.1480  174.5270  137.5810 O   0  0  0  0  0  0  0  0  0  0  0  0
  189.6320  173.8520  139.3210 C   0  0  0  0  0  3  0  0  0  0  0  0
  189.1680  174.3670  140.4670 C   0  0  0  0  0  3  0  0  0  0  0  0
  187.7540  174.7840  140.6910 C   0  0  0  0  0  2  0  0  0  0  0  0
  187.7170  176.0870  141.4760 C   0  0  0  0  0  2  0  0  0  0  0  0
  187.0640  177.0540  140.7020 O   0  0  0  0  0  0  0  0  0  0  0  0
  187.0660  178.8570  142.1690 O   0  0  0  0  0  1  0  0  0  0  0  0
  186.2870  177.8680  141.5580 C   0  0  1  0  0  3  0  0  0  0  0  0
  185.1930  178.4360  140.8870 O   0  0  0  0  0  0  0  0  0  0  0  0
  184.1400  178.5610  142.9140 O   0  0  0  0  0  1  0  0  0  0  0  0
  184.0660  178.0510  141.6140 C   0  0  1  0  0  3  0  0  0  0  0  0
  182.8200  178.6070  140.9340 C   0  0  1  0  0  3  0  0  0  0  0  0
  181.8510  177.5940  140.7990 O   0  0  0  0  0  0  0  0  0  0  0  0
  181.6640  178.5220  141.8450 C   0  0  2  0  0  3  0  0  0  0  0  0
  180.6160  179.5330  141.4310 C   0  0  0  0  0  2  0  0  0  0  0  0
  179.9460  179.0580  140.1590 C   0  0  0  0  0  2  0  0  0  0  0  0
  178.6110  179.6310  140.0690 N   0  0  0  0  0  1  0  0  0  0  0  0
  1 35  1  1  0  0  0
  3  2  1  0  0  0  0
  4  8  1  6  0  0  0
  4  2  1  0  0  0  0
  5  3  1  0  0  0  0
  6  4  1  0  0  0  0
  7  1  1  6  0  0  0
  7  5  1  0  0  0  0
  7  6  1  0  0  0  0
  8  9  1  0  0  0  0
 10 12  1  6  0  0  0
 10 13  1  0  0  0  0
 11  9  1  6  0  0  0
 11 10  1  0  0  0  0
 11 13  1  0  0  0  0
 14 10  1  0  0  0  0
 15 14  1  6  0  0  0
 15 17  1  0  0  0  0
 17 16  1  0  0  0  0
 18 17  2  0  0  0  0
 20 19  1  6  0  0  0
 20 15  1  0  0  0  0
 21 32  1  0  0  0  0
 22 21  1  0  0  0  0
 22 34  1  0  0  0  0
 23 32  1  6  0  0  0
 23 26  1  0  0  0  0
 23 31  1  0  0  0  0
 24 28  2  0  0  0  0
 26 29  1  0  0  0  0
 26 33  1  1  0  0  0
 26 31  1  0  0  0  0
 27 21  1  0  0  0  0
 28 25  1  0  0  0  0
 29 20  1  6  0  0  0
 29 25  1  0  0  0  0
 30 23  1  0  0  0  0
 30 28  1  0  0  0  0
 34 30  1  0  0  0  0
 36 35  1  0  0  0  0
 37 38  1  6  0  0  0
 37 49  1  0  0  0  0
 37  1  1  0  0  0  0
 39 40  1  0  0  0  0
 39 38  1  0  0  0  0
 40 41  1  0  0  0  0
 41 48  2  6  0  0  0
 41 47  1  0  0  0  0
 42 43  1  0  0  0  0
 44 46  1  0  0  0  0
 45 41  1  0  0  0  0
 45 44  1  0  0  0  0
 46 43  1  0  0  0  0
 47 42  1  0  0  0  0
 50 49  1  0  0  0  0
 50 51  1  0  0  0  0
 51 53  1  0  0  0  0
 52 51  2  0  0  0  0
 53 54  2  0  0  0  0
 54 55  1  0  0  0  0
 55 56  1  0  0  0  0
 57 56  1  0  0  0  0
 57 59  1  0  0  0  0
 59 58  1  6  0  0  0
 60 59  1  0  0  0  0
 60 62  1  0  0  0  0
 62 61  1  1  0  0  0
 63 62  1  1  0  0  0
 63 65  1  0  0  0  0
 64 63  1  0  0  0  0
 64 65  1  0  0  0  0
 65 66  1  6  0  0  0
 67 66  1  0  0  0  0
 68 67  1  0  0  0  0
M  END
>  <MODEL>
9

>  <REMARK>
 VINA RESULT:      -5.0      3.108      9.942
  Name = 
  27 active torsions:
  status: ('A' for Active; 'I' for Inactive)
    1  A    between atoms: C_1  and  C_48
    2  A    between atoms: P_2  and  N_22
    3  A    between atoms: O_3  and  C_5
    4  A    between atoms: O_3  and  C_62
    5  A    between atoms: C_4  and  C_9
    6  A    between atoms: C_4  and  N_31
    7  A    between atoms: O_8  and  C_66
    8  A    between atoms: C_9  and  C_33
    9  A    between atoms: C_9  and  C_66
   10  A    between atoms: C_10  and  C_49
   11  A    between atoms: C_12  and  C_42
   12  A    between atoms: C_13  and  C_34
   13  A    between atoms: C_17  and  C_34
   14  A    between atoms: N_22  and  C_51
   15  A    between atoms: C_24  and  C_39
   16  A    between atoms: C_28  and  C_44
   17  A    between atoms: C_28  and  C_62
   18  A    between atoms: C_29  and  O_52
   19  A    between atoms: C_29  and  O_56
   20  A    between atoms: C_32  and  C_67
   21  A    between atoms: C_33  and  C_51
   22  A    between atoms: C_37  and  C_62
   23  A    between atoms: C_39  and  C_53
   24  A    between atoms: C_47  and  C_66
   25  A    between atoms: C_48  and  O_52
   26  A    between atoms: C_49  and  C_67
   27  A    between atoms: C_53  and  O_56
                            x       y       z     vdW  Elec       q    Type
                         _______ _______ _______ _____ _____    ______ ____

>  <TORSDO>
F 27

$$$$
