=
 OpenBabel11042413543D

 51 58  0  0  1  0  0  0  0  0999 V2000
  194.8290  170.3660  144.6190 N   0  0  0  0  0  0  0  0  0  0  0  0
  190.2670  172.0360  143.9340 C   0  0  0  0  0  3  0  0  0  0  0  0
  191.2430  171.1990  144.2380 C   0  0  0  0  0  3  0  0  0  0  0  0
  191.4490  174.0300  142.9740 C   0  0  0  0  0  0  0  0  0  0  0  0
  191.0660  175.4310  142.5890 C   0  0  0  0  0  2  0  0  0  0  0  0
  190.3790  173.4020  143.4410 C   0  0  0  0  0  0  0  0  0  0  0  0
  189.5740  175.5200  142.8760 C   0  0  2  0  0  3  0  0  0  0  0  0
  192.8340  173.5260  142.7450 C   0  0  0  0  0  0  0  0  0  0  0  0
  193.4030  170.4470  144.7540 C   0  0  0  0  0  3  0  0  0  0  0  0
  189.2220  174.2170  143.4060 N   0  0  0  0  0  2  0  0  0  0  0  0
  194.8440  172.1730  143.0540 C   0  0  0  0  0  3  0  0  0  0  0  0
  195.5080  171.2160  143.6940 C   0  0  0  0  0  3  0  0  0  0  0  0
  192.6870  171.3930  144.1350 C   0  0  0  0  0  0  0  0  0  0  0  0
  193.3900  172.4070  143.2830 C   0  0  0  0  0  0  0  0  0  0  0  0
  194.6050  175.0480  139.7370 C   0  0  0  0  0  0  0  0  0  0  0  0
  195.6440  175.9160  141.7450 C   0  0  0  0  0  2  0  0  0  0  0  0
  194.4430  175.0210  138.3150 N   0  0  0  0  0  0  0  0  0  0  0  0
  193.7520  174.1860  140.5730 C   0  0  0  0  0  3  0  0  0  0  0  0
  195.4240  175.8910  140.2980 N   0  0  0  0  0  0  0  0  0  0  0  0
  193.6660  174.4060  141.8890 C   0  0  0  0  0  0  0  0  0  0  0  0
  194.3520  175.5990  142.4990 C   0  0  0  0  0  2  0  0  0  0  0  0
  193.8730  175.8800  135.5930 N   0  0  0  0  0  2  0  0  0  0  0  0
  195.0910  175.7860  136.0120 C   0  0  0  0  0  0  0  0  0  0  0  0
  195.3640  175.5700  137.4040 N   0  0  0  0  0  0  0  0  0  0  0  0
  197.5500  175.8910  135.7280 C   0  0  0  0  0  1  0  0  0  0  0  0
  196.0990  177.6440  134.7280 C   0  0  0  0  0  1  0  0  0  0  0  0
  196.2010  176.1750  135.0930 C   0  0  0  0  0  3  0  0  0  0  0  0
  197.0950  168.9030  147.7780 O   0  0  0  0  0  0  0  0  0  0  0  0
  195.8820  168.2230  147.5630 C   0  0  0  0  0  2  0  0  0  0  0  0
  195.6060  169.4030  145.3890 C   0  0  0  0  0  3  0  0  0  0  0  0
  197.0390  169.8980  145.5900 C   0  0  0  0  0  2  0  0  0  0  0  0
  194.9350  169.0870  146.7300 C   0  0  0  0  0  2  0  0  0  0  0  0
  197.7610  168.9440  146.5390 C   0  0  0  0  0  2  0  0  0  0  0  0
  188.8300  175.7750  141.5750 C   0  0  0  0  0  2  0  0  0  0  0  0
  185.2810  178.1100  142.8280 C   0  0  0  0  0  2  0  0  0  0  0  0
  187.4020  176.2340  141.8280 C   0  0  2  0  0  3  0  0  0  0  0  0
  185.3340  177.8460  141.3310 C   0  0  0  0  0  2  0  0  0  0  0  0
  185.7520  176.8800  143.5930 C   0  0  1  0  0  3  0  0  0  0  0  0
  187.0640  177.6900  140.7830 S   0  0  0  0  0  0  0  0  0  0  0  0
  187.2180  176.5920  143.2990 C   0  0  0  0  0  2  0  0  0  0  0  0
  184.8740  177.7600  146.2030 C   0  0  0  0  0  0  0  0  0  0  0  0
  185.5770  177.1000  145.0160 N   0  0  0  0  0  0  0  0  0  0  0  0
  183.9910  178.5200  146.6780 O   0  0  0  0  0  0  0  0  0  0  0  0
  185.9680  176.9170  146.3410 C   0  0  1  0  0  3  0  0  0  0  0  0
  187.2150  177.7360  146.6210 C   0  0  0  0  0  2  0  0  0  0  0  0
  189.7090  177.4880  146.5220 C   0  0  0  0  0  2  0  0  0  0  0  0
  188.3850  176.8730  146.6530 N   0  0  0  0  0  0  0  0  0  0  0  0
  188.2350  175.5020  147.0430 C   0  0  0  0  0  3  0  0  0  0  0  0
  190.5960  175.1700  146.5750 C   0  0  0  0  0  3  0  0  0  0  0  0
  190.7930  176.4630  146.3140 C   0  0  0  0  0  3  0  0  0  0  0  0
  189.2820  174.6790  147.0160 C   0  0  0  0  0  3  0  0  0  0  0  0
  1  9  1  0  0  0  0
  1 30  1  0  0  0  0
  2  3  2  0  0  0  0
  4  6  2  0  0  0  0
  5  7  1  0  0  0  0
  5  4  1  0  0  0  0
  6  2  1  0  0  0  0
  7 34  1  6  0  0  0
  7 10  1  0  0  0  0
  8  4  1  0  0  0  0
  8 14  2  0  0  0  0
 10  6  1  0  0  0  0
 11 14  1  0  0  0  0
 11 12  2  0  0  0  0
 12  1  1  0  0  0  0
 13  3  1  0  0  0  0
 13  9  2  0  0  0  0
 14 13  1  0  0  0  0
 15 19  2  0  0  0  0
 15 18  1  0  0  0  0
 16 21  1  0  0  0  0
 17 15  1  0  0  0  0
 18 20  2  0  0  0  0
 19 16  1  0  0  0  0
 20 21  1  0  0  0  0
 20  8  1  0  0  0  0
 22 23  2  0  0  0  0
 23 24  1  0  0  0  0
 24 17  2  0  0  0  0
 26 27  1  0  0  0  0
 27 25  1  0  0  0  0
 27 23  1  0  0  0  0
 29 28  1  0  0  0  0
 30 31  1  0  0  0  0
 30 32  1  0  0  0  0
 31 33  1  0  0  0  0
 32 29  1  0  0  0  0
 33 28  1  0  0  0  0
 36 34  1  1  0  0  0
 36 40  1  0  0  0  0
 37 35  1  0  0  0  0
 38 35  1  6  0  0  0
 38 42  1  0  0  0  0
 39 37  1  0  0  0  0
 39 36  1  0  0  0  0
 40 38  1  0  0  0  0
 41 44  1  0  0  0  0
 41 43  2  0  0  0  0
 42 41  1  0  0  0  0
 42 44  1  0  0  0  0
 44 45  1  6  0  0  0
 45 47  1  0  0  0  0
 46 47  1  0  0  0  0
 47 48  1  0  0  0  0
 49 51  1  0  0  0  0
 50 46  1  0  0  0  0
 50 49  2  0  0  0  0
 51 48  2  0  0  0  0
M  END
>  <MODEL>
1

>  <REMARK>
 VINA RESULT:      -8.6      0.000      0.000
  Name = 
  9 active torsions:
  status: ('A' for Active; 'I' for Inactive)
    1  A    between atoms: N_3  and  C_19
    2  A    between atoms: C_13  and  C_29
    3  A    between atoms: C_14  and  N_16
    4  A    between atoms: C_14  and  CA_26
    5  A    between atoms: N_15  and  C_31
    6  A    between atoms: C_24  and  C_41
    7  A    between atoms: C_28  and  C_41
    8  A    between atoms: C_33  and  C_49
    9  A    between atoms: N_37  and  N_39
                            x       y       z     vdW  Elec       q    Type
                         _______ _______ _______ _____ _____    ______ ____

>  <TORSDO>
F 9

$$$$
=
 OpenBabel11042413543D

 51 58  0  0  1  0  0  0  0  0999 V2000
  187.7980  177.3070  145.1140 N   0  0  0  0  0  0  0  0  0  0  0  0
  192.2100  175.4780  146.2380 C   0  0  0  0  0  3  0  0  0  0  0  0
  191.1860  176.3120  146.2260 C   0  0  0  0  0  3  0  0  0  0  0  0
  191.6280  173.7700  144.4930 C   0  0  0  0  0  0  0  0  0  0  0  0
  192.1710  172.4380  144.0640 C   0  0  0  0  0  2  0  0  0  0  0  0
  192.3600  174.2320  145.4980 C   0  0  0  0  0  0  0  0  0  0  0  0
  193.3740  172.1980  144.9640 C   0  0  2  0  0  3  0  0  0  0  0  0
  190.4860  174.4010  143.7700 C   0  0  0  0  0  0  0  0  0  0  0  0
  189.0110  177.1060  145.8540 C   0  0  0  0  0  3  0  0  0  0  0  0
  193.4230  173.3580  145.8300 N   0  0  0  0  0  2  0  0  0  0  0  0
  188.5270  175.8110  143.3980 C   0  0  0  0  0  3  0  0  0  0  0  0
  187.6260  176.6820  143.8420 C   0  0  0  0  0  3  0  0  0  0  0  0
  189.9480  176.2380  145.4540 C   0  0  0  0  0  0  0  0  0  0  0  0
  189.7250  175.4410  144.2030 C   0  0  0  0  0  0  0  0  0  0  0  0
  190.4580  173.4140  140.0920 C   0  0  0  0  0  0  0  0  0  0  0  0
  188.3890  172.6510  141.0940 C   0  0  0  0  0  2  0  0  0  0  0  0
  191.3700  173.4890  138.9910 N   0  0  0  0  0  2  0  0  0  0  0  0
  190.8220  174.0500  141.3690 C   0  0  0  0  0  3  0  0  0  0  0  0
  189.3630  172.7140  140.0030 N   0  0  0  0  0  0  0  0  0  0  0  0
  190.1470  173.7440  142.4840 C   0  0  0  0  0  0  0  0  0  0  0  0
  189.0910  172.6730  142.4540 C   0  0  0  0  0  2  0  0  0  0  0  0
  191.7540  170.9240  137.6690 N   0  0  0  0  0  2  0  0  0  0  0  0
  191.4240  171.9720  136.9900 C   0  0  0  0  0  0  0  0  0  0  0  0
  191.0320  173.1770  137.6620 N   0  0  0  0  0  2  0  0  0  0  0  0
  192.2830  172.5470  134.7380 C   0  0  0  0  0  1  0  0  0  0  0  0
  189.8350  172.3910  135.1420 C   0  0  0  0  0  1  0  0  0  0  0  0
  191.1950  171.8350  135.5220 C   0  0  0  0  0  3  0  0  0  0  0  0
  184.0750  178.3220  146.6500 O   0  0  0  0  0  0  0  0  0  0  0  0
  185.1600  178.6360  147.4890 C   0  0  0  0  0  2  0  0  0  0  0  0
  186.7380  178.1680  145.6220 C   0  0  0  0  0  3  0  0  0  0  0  0
  185.5010  178.0920  144.7280 C   0  0  0  0  0  2  0  0  0  0  0  0
  186.3930  177.8310  147.0770 C   0  0  0  0  0  2  0  0  0  0  0  0
  184.3660  178.8740  145.3880 C   0  0  0  0  0  2  0  0  0  0  0  0
  194.6300  172.1270  144.1100 C   0  0  0  0  0  2  0  0  0  0  0  0
  194.9680  171.0580  139.8260 C   0  0  0  0  0  2  0  0  0  0  0  0
  194.3110  171.7200  142.6800 C   0  0  2  0  0  3  0  0  0  0  0  0
  194.3580  169.9560  140.6780 C   0  0  0  0  0  2  0  0  0  0  0  0
  194.4550  172.4170  140.2830 C   0  0  1  0  0  3  0  0  0  0  0  0
  194.9960  170.0550  142.3810 S   0  0  0  0  0  0  0  0  0  0  0  0
  194.9190  172.7190  141.7010 C   0  0  0  0  0  2  0  0  0  0  0  0
  195.7230  173.8990  138.1480 C   0  0  0  0  0  0  0  0  0  0  0  0
  194.9440  173.4460  139.3840 N   0  0  0  0  0  0  0  0  0  0  0  0
  196.4180  173.6480  137.1300 O   0  0  0  0  0  0  0  0  0  0  0  0
  195.1130  174.7820  139.0270 C   0  0  1  0  0  3  0  0  0  0  0  0
  196.1600  175.4190  139.9240 C   0  0  0  0  0  2  0  0  0  0  0  0
  196.4670  176.1000  142.3180 C   0  0  0  0  0  2  0  0  0  0  0  0
  195.5710  175.7780  141.2040 N   0  0  0  0  0  0  0  0  0  0  0  0
  194.1640  176.0380  141.2820 C   0  0  0  0  0  3  0  0  0  0  0  0
  194.4060  176.3240  143.6830 C   0  0  0  0  0  3  0  0  0  0  0  0
  195.7330  176.1980  143.6290 C   0  0  0  0  0  3  0  0  0  0  0  0
  193.5940  176.3050  142.4560 C   0  0  0  0  0  3  0  0  0  0  0  0
  1 30  1  0  0  0  0
  1  9  1  0  0  0  0
  3  2  2  0  0  0  0
  4  6  2  0  0  0  0
  5  4  1  0  0  0  0
  5  7  1  0  0  0  0
  6 10  1  0  0  0  0
  6  2  1  0  0  0  0
  7 34  1  6  0  0  0
  7 10  1  0  0  0  0
  8 14  2  0  0  0  0
  8  4  1  0  0  0  0
 11 12  2  0  0  0  0
 11 14  1  0  0  0  0
 12  1  1  0  0  0  0
 13  9  2  0  0  0  0
 13  3  1  0  0  0  0
 14 13  1  0  0  0  0
 15 18  1  0  0  0  0
 16 21  1  0  0  0  0
 17 15  1  0  0  0  0
 18 20  2  0  0  0  0
 19 15  2  0  0  0  0
 19 16  1  0  0  0  0
 20  8  1  0  0  0  0
 21 20  1  0  0  0  0
 23 24  1  0  0  0  0
 23 22  2  0  0  0  0
 24 17  1  0  0  0  0
 25 27  1  0  0  0  0
 26 27  1  0  0  0  0
 27 23  1  0  0  0  0
 28 29  1  0  0  0  0
 30 32  1  0  0  0  0
 31 33  1  0  0  0  0
 31 30  1  0  0  0  0
 32 29  1  0  0  0  0
 33 28  1  0  0  0  0
 35 38  1  0  0  0  0
 35 37  1  0  0  0  0
 36 34  1  1  0  0  0
 37 39  1  0  0  0  0
 38 42  1  6  0  0  0
 38 40  1  0  0  0  0
 39 36  1  0  0  0  0
 40 36  1  0  0  0  0
 41 44  1  0  0  0  0
 41 42  1  0  0  0  0
 43 41  2  0  0  0  0
 44 42  1  0  0  0  0
 44 45  1  1  0  0  0
 45 47  1  0  0  0  0
 46 50  1  0  0  0  0
 47 48  1  0  0  0  0
 47 46  1  0  0  0  0
 48 51  2  0  0  0  0
 50 49  2  0  0  0  0
 51 49  1  0  0  0  0
M  END
>  <MODEL>
2

>  <REMARK>
 VINA RESULT:      -8.2      3.331      8.988
  Name = 
  9 active torsions:
  status: ('A' for Active; 'I' for Inactive)
    1  A    between atoms: N_3  and  C_19
    2  A    between atoms: C_13  and  C_29
    3  A    between atoms: C_14  and  N_16
    4  A    between atoms: C_14  and  CA_26
    5  A    between atoms: N_15  and  C_31
    6  A    between atoms: C_24  and  C_41
    7  A    between atoms: C_28  and  C_41
    8  A    between atoms: C_33  and  C_49
    9  A    between atoms: N_37  and  N_39
                            x       y       z     vdW  Elec       q    Type
                         _______ _______ _______ _____ _____    ______ ____

>  <TORSDO>
F 9

$$$$
=
 OpenBabel11042413543D

 51 58  0  0  1  0  0  0  0  0999 V2000
  187.7660  176.7430  144.9820 N   0  0  0  0  0  0  0  0  0  0  0  0
  188.5350  174.3810  140.7500 C   0  0  0  0  0  3  0  0  0  0  0  0
  187.8820  175.0000  141.7180 C   0  0  0  0  0  3  0  0  0  0  0  0
  190.8590  174.1110  141.6550 C   0  0  0  0  0  0  0  0  0  0  0  0
  192.1920  173.6950  141.1010 C   0  0  0  0  0  2  0  0  0  0  0  0
  189.9550  174.0640  140.6870 C   0  0  0  0  0  0  0  0  0  0  0  0
  191.9210  173.3600  139.6420 C   0  0  2  0  0  3  0  0  0  0  0  0
  190.6980  174.4290  143.1040 C   0  0  0  0  0  0  0  0  0  0  0  0
  187.5250  176.2950  143.6400 C   0  0  0  0  0  3  0  0  0  0  0  0
  190.5060  173.6170  139.4620 N   0  0  0  0  0  2  0  0  0  0  0  0
  189.7630  175.4360  145.1220 C   0  0  0  0  0  3  0  0  0  0  0  0
  188.8760  176.2280  145.7170 C   0  0  0  0  0  3  0  0  0  0  0  0
  188.3880  175.5010  142.9940 C   0  0  0  0  0  0  0  0  0  0  0  0
  189.6490  175.0730  143.6820 C   0  0  0  0  0  0  0  0  0  0  0  0
  193.2500  172.3780  145.0480 C   0  0  0  0  0  0  0  0  0  0  0  0
  193.4150  174.6800  145.7810 C   0  0  0  0  0  2  0  0  0  0  0  0
  193.7100  171.0220  145.0450 N   0  0  0  0  0  2  0  0  0  0  0  0
  192.1130  172.7510  144.1900 C   0  0  0  0  0  3  0  0  0  0  0  0
  193.8830  173.2940  145.7230 N   0  0  0  0  0  0  0  0  0  0  0  0
  191.8590  174.0410  143.9420 C   0  0  0  0  0  0  0  0  0  0  0  0
  192.7960  175.1040  144.4480 C   0  0  0  0  0  2  0  0  0  0  0  0
  196.6190  171.1080  144.9750 N   0  0  0  0  0  2  0  0  0  0  0  0
  196.0030  170.3640  145.8330 C   0  0  0  0  0  0  0  0  0  0  0  0
  194.5840  170.4820  146.0070 N   0  0  0  0  0  2  0  0  0  0  0  0
  197.9380  168.8460  146.1310 C   0  0  0  0  0  1  0  0  0  0  0  0
  195.9260  168.6050  147.5700 C   0  0  0  0  0  1  0  0  0  0  0  0
  196.8070  169.5870  146.8210 C   0  0  0  0  0  3  0  0  0  0  0  0
  184.2220  178.7430  145.8100 O   0  0  0  0  0  0  0  0  0  0  0  0
  184.7620  178.0330  146.8980 C   0  0  0  0  0  2  0  0  0  0  0  0
  186.8770  177.6970  145.6300 C   0  0  0  0  0  3  0  0  0  0  0  0
  186.3050  178.6850  144.6120 C   0  0  0  0  0  2  0  0  0  0  0  0
  185.7590  176.9870  146.4000 C   0  0  0  0  0  2  0  0  0  0  0  0
  185.2550  179.5530  145.3030 C   0  0  0  0  0  2  0  0  0  0  0  0
  192.2200  171.8880  139.4040 C   0  0  0  0  0  2  0  0  0  0  0  0
  196.6260  171.8680  138.9570 C   0  0  0  0  0  2  0  0  0  0  0  0
  193.6300  171.6830  138.8730 C   0  0  2  0  0  3  0  0  0  0  0  0
  196.0110  170.4780  138.9430 C   0  0  0  0  0  2  0  0  0  0  0  0
  195.7390  172.8410  138.1900 C   0  0  1  0  0  3  0  0  0  0  0  0
  194.4790  170.4600  139.9280 S   0  0  0  0  0  0  0  0  0  0  0  0
  194.3930  173.0030  138.8840 C   0  0  0  0  0  2  0  0  0  0  0  0
  197.2640  175.1570  137.3720 C   0  0  0  0  0  0  0  0  0  0  0  0
  196.3980  174.1310  138.1040 N   0  0  0  0  0  0  0  0  0  0  0  0
  197.9360  175.5200  136.3720 O   0  0  0  0  0  0  0  0  0  0  0  0
  196.7750  175.3530  138.6560 C   0  0  1  0  0  3  0  0  0  0  0  0
  197.8850  175.1340  139.6680 C   0  0  0  0  0  2  0  0  0  0  0  0
  196.3970  176.2910  141.3210 C   0  0  0  0  0  2  0  0  0  0  0  0
  197.3570  175.2250  141.0190 N   0  0  0  0  0  0  0  0  0  0  0  0
  197.5940  174.1530  141.9400 C   0  0  0  0  0  3  0  0  0  0  0  0
  196.4730  175.4570  143.6580 C   0  0  0  0  0  3  0  0  0  0  0  0
  196.1390  176.4210  142.8000 C   0  0  0  0  0  3  0  0  0  0  0  0
  197.1740  174.2470  143.2010 C   0  0  0  0  0  3  0  0  0  0  0  0
  1 30  1  0  0  0  0
  1 12  1  0  0  0  0
  2  3  2  0  0  0  0
  3 13  1  0  0  0  0
  4  8  1  0  0  0  0
  5  4  1  0  0  0  0
  6  2  1  0  0  0  0
  6  4  2  0  0  0  0
  7 34  1  1  0  0  0
  7  5  1  0  0  0  0
  8 14  2  0  0  0  0
  8 20  1  0  0  0  0
  9  1  1  0  0  0  0
 10  7  1  0  0  0  0
 10  6  1  0  0  0  0
 11 12  2  0  0  0  0
 13  9  2  0  0  0  0
 13 14  1  0  0  0  0
 14 11  1  0  0  0  0
 15 19  2  0  0  0  0
 17 15  1  0  0  0  0
 17 24  1  0  0  0  0
 18 15  1  0  0  0  0
 19 16  1  0  0  0  0
 20 18  2  0  0  0  0
 20 21  1  0  0  0  0
 21 16  1  0  0  0  0
 22 23  2  0  0  0  0
 23 24  1  0  0  0  0
 23 27  1  0  0  0  0
 25 27  1  0  0  0  0
 27 26  1  0  0  0  0
 28 29  1  0  0  0  0
 30 32  1  0  0  0  0
 31 33  1  0  0  0  0
 31 30  1  0  0  0  0
 32 29  1  0  0  0  0
 33 28  1  0  0  0  0
 36 40  1  0  0  0  0
 36 34  1  1  0  0  0
 36 39  1  0  0  0  0
 37 35  1  0  0  0  0
 37 39  1  0  0  0  0
 38 42  1  1  0  0  0
 38 40  1  0  0  0  0
 38 35  1  0  0  0  0
 41 42  1  0  0  0  0
 41 44  1  0  0  0  0
 42 44  1  0  0  0  0
 43 41  2  0  0  0  0
 44 45  1  1  0  0  0
 45 47  1  0  0  0  0
 46 50  1  0  0  0  0
 47 46  1  0  0  0  0
 47 48  1  0  0  0  0
 48 51  2  0  0  0  0
 50 49  2  0  0  0  0
 51 49  1  0  0  0  0
M  END
>  <MODEL>
3

>  <REMARK>
 VINA RESULT:      -8.2      3.130     10.036
  Name = 
  9 active torsions:
  status: ('A' for Active; 'I' for Inactive)
    1  A    between atoms: N_3  and  C_19
    2  A    between atoms: C_13  and  C_29
    3  A    between atoms: C_14  and  N_16
    4  A    between atoms: C_14  and  CA_26
    5  A    between atoms: N_15  and  C_31
    6  A    between atoms: C_24  and  C_41
    7  A    between atoms: C_28  and  C_41
    8  A    between atoms: C_33  and  C_49
    9  A    between atoms: N_37  and  N_39
                            x       y       z     vdW  Elec       q    Type
                         _______ _______ _______ _____ _____    ______ ____

>  <TORSDO>
F 9

$$$$
=
 OpenBabel11042413543D

 51 58  0  0  1  0  0  0  0  0999 V2000
  187.3850  176.9630  144.5360 N   0  0  0  0  0  0  0  0  0  0  0  0
  191.6650  176.7210  146.9210 C   0  0  0  0  0  3  0  0  0  0  0  0
  190.4430  177.1190  146.6150 C   0  0  0  0  0  3  0  0  0  0  0  0
  192.2990  175.1880  145.0380 C   0  0  0  0  0  0  0  0  0  0  0  0
  193.4140  174.2200  144.7630 C   0  0  0  0  0  2  0  0  0  0  0  0
  192.4860  175.7350  146.2320 C   0  0  0  0  0  0  0  0  0  0  0  0
  194.3170  174.3070  145.9850 C   0  0  2  0  0  3  0  0  0  0  0  0
  191.2500  175.4570  144.0130 C   0  0  0  0  0  0  0  0  0  0  0  0
  188.3250  177.1130  145.6090 C   0  0  0  0  0  3  0  0  0  0  0  0
  193.6700  175.2690  146.8540 N   0  0  0  0  0  2  0  0  0  0  0  0
  189.0800  176.0970  143.0910 C   0  0  0  0  0  3  0  0  0  0  0  0
  187.8270  176.5080  143.2570 C   0  0  0  0  0  3  0  0  0  0  0  0
  189.5970  176.7110  145.4960 C   0  0  0  0  0  0  0  0  0  0  0  0
  190.0560  176.0770  144.2170 C   0  0  0  0  0  0  0  0  0  0  0  0
  191.2770  173.2710  140.8960 C   0  0  0  0  0  0  0  0  0  0  0  0
  193.2550  174.6680  140.8560 C   0  0  0  0  0  2  0  0  0  0  0  0
  190.3980  172.3170  140.2910 N   0  0  0  0  0  2  0  0  0  0  0  0
  190.9380  173.8190  142.2200 C   0  0  0  0  0  3  0  0  0  0  0  0
  192.3130  173.7250  140.2510 N   0  0  0  0  0  0  0  0  0  0  0  0
  191.5620  174.9140  142.6690 C   0  0  0  0  0  0  0  0  0  0  0  0
  192.5290  175.6480  141.7800 C   0  0  0  0  0  2  0  0  0  0  0  0
  188.9220  172.1210  137.7890 N   0  0  0  0  0  2  0  0  0  0  0  0
  189.8790  171.2950  138.0560 C   0  0  0  0  0  0  0  0  0  0  0  0
  190.7380  171.5210  139.1820 N   0  0  0  0  0  2  0  0  0  0  0  0
  191.6660  169.7730  137.2630 C   0  0  0  0  0  1  0  0  0  0  0  0
  190.1160  170.8360  135.6370 C   0  0  0  0  0  1  0  0  0  0  0  0
  190.2490  170.2690  137.0370 C   0  0  0  0  0  3  0  0  0  0  0  0
  184.0800  179.0770  145.8990 O   0  0  0  0  0  0  0  0  0  0  0  0
  184.2170  179.0450  144.4990 C   0  0  0  0  0  2  0  0  0  0  0  0
  185.9770  177.2980  144.7130 C   0  0  0  0  0  3  0  0  0  0  0  0
  185.5830  177.2230  146.1890 C   0  0  0  0  0  2  0  0  0  0  0  0
  185.6510  178.6730  144.1210 C   0  0  0  0  0  2  0  0  0  0  0  0
  184.1550  177.7440  146.3440 C   0  0  0  0  0  2  0  0  0  0  0  0
  195.6830  174.8210  145.5600 C   0  0  0  0  0  2  0  0  0  0  0  0
  197.3420  170.9710  144.1310 C   0  0  0  0  0  2  0  0  0  0  0  0
  196.6260  173.6800  145.2120 C   0  0  2  0  0  3  0  0  0  0  0  0
  197.9410  172.1830  143.4360 C   0  0  0  0  0  2  0  0  0  0  0  0
  197.1380  171.2650  145.6120 C   0  0  1  0  0  3  0  0  0  0  0  0
  196.7320  173.5450  143.3950 S   0  0  0  0  0  0  0  0  0  0  0  0
  196.1110  172.3730  145.8050 C   0  0  0  0  0  2  0  0  0  0  0  0
  196.9200  168.8560  147.1970 C   0  0  0  0  0  0  0  0  0  0  0  0
  196.6860  170.0630  146.2850 N   0  0  0  0  0  0  0  0  0  0  0  0
  197.6620  168.1660  147.9430 O   0  0  0  0  0  0  0  0  0  0  0  0
  195.7200  169.0910  146.5420 C   0  0  1  0  0  3  0  0  0  0  0  0
  195.5970  168.1670  145.3440 C   0  0  0  0  0  2  0  0  0  0  0  0
  194.8610  168.3850  142.9580 C   0  0  0  0  0  2  0  0  0  0  0  0
  194.6760  168.7280  144.3700 N   0  0  0  0  0  0  0  0  0  0  0  0
  193.4910  169.3930  144.8260 C   0  0  0  0  0  3  0  0  0  0  0  0
  192.9740  169.9370  142.5150 C   0  0  0  0  0  3  0  0  0  0  0  0
  194.0070  169.2320  142.0500 C   0  0  0  0  0  3  0  0  0  0  0  0
  192.6670  169.9700  143.9530 C   0  0  0  0  0  3  0  0  0  0  0  0
  1 30  1  0  0  0  0
  1  9  1  0  0  0  0
  3  2  2  0  0  0  0
  4  6  2  0  0  0  0
  5  4  1  0  0  0  0
  5  7  1  0  0  0  0
  6 10  1  0  0  0  0
  6  2  1  0  0  0  0
  7 34  1  6  0  0  0
  7 10  1  0  0  0  0
  8 14  2  0  0  0  0
  8  4  1  0  0  0  0
 11 12  2  0  0  0  0
 11 14  1  0  0  0  0
 12  1  1  0  0  0  0
 13  9  2  0  0  0  0
 13  3  1  0  0  0  0
 14 13  1  0  0  0  0
 15 18  1  0  0  0  0
 16 21  1  0  0  0  0
 17 15  1  0  0  0  0
 18 20  2  0  0  0  0
 19 16  1  0  0  0  0
 19 15  2  0  0  0  0
 20  8  1  0  0  0  0
 21 20  1  0  0  0  0
 22 23  2  0  0  0  0
 23 24  1  0  0  0  0
 24 17  1  0  0  0  0
 26 27  1  0  0  0  0
 27 25  1  0  0  0  0
 27 23  1  0  0  0  0
 28 33  1  0  0  0  0
 29 28  1  0  0  0  0
 30 31  1  0  0  0  0
 31 33  1  0  0  0  0
 32 29  1  0  0  0  0
 32 30  1  0  0  0  0
 36 34  1  6  0  0  0
 36 40  1  0  0  0  0
 37 35  1  0  0  0  0
 38 35  1  6  0  0  0
 38 40  1  0  0  0  0
 38 42  1  0  0  0  0
 39 37  1  0  0  0  0
 39 36  1  0  0  0  0
 41 43  2  0  0  0  0
 42 44  1  0  0  0  0
 42 41  1  0  0  0  0
 44 45  1  6  0  0  0
 44 41  1  0  0  0  0
 46 47  1  0  0  0  0
 47 48  1  0  0  0  0
 47 45  1  0  0  0  0
 49 51  1  0  0  0  0
 50 49  2  0  0  0  0
 50 46  1  0  0  0  0
 51 48  2  0  0  0  0
M  END
>  <MODEL>
4

>  <REMARK>
 VINA RESULT:      -7.7      3.211      9.674
  Name = 
  9 active torsions:
  status: ('A' for Active; 'I' for Inactive)
    1  A    between atoms: N_3  and  C_19
    2  A    between atoms: C_13  and  C_29
    3  A    between atoms: C_14  and  N_16
    4  A    between atoms: C_14  and  CA_26
    5  A    between atoms: N_15  and  C_31
    6  A    between atoms: C_24  and  C_41
    7  A    between atoms: C_28  and  C_41
    8  A    between atoms: C_33  and  C_49
    9  A    between atoms: N_37  and  N_39
                            x       y       z     vdW  Elec       q    Type
                         _______ _______ _______ _____ _____    ______ ____

>  <TORSDO>
F 9

$$$$
=
 OpenBabel11042413543D

 51 58  0  0  1  0  0  0  0  0999 V2000
  186.3650  177.7850  142.4070 N   0  0  0  0  0  0  0  0  0  0  0  0
  189.7010  177.3670  145.9810 C   0  0  0  0  0  3  0  0  0  0  0  0
  188.7490  177.9010  145.2370 C   0  0  0  0  0  3  0  0  0  0  0  0
  190.3220  175.2630  144.7610 C   0  0  0  0  0  0  0  0  0  0  0  0
  191.1570  174.0510  145.0570 C   0  0  0  0  0  2  0  0  0  0  0  0
  190.3580  176.0790  145.8070 C   0  0  0  0  0  0  0  0  0  0  0  0
  191.7250  174.2970  146.4480 C   0  0  2  0  0  3  0  0  0  0  0  0
  189.6690  175.4370  143.4320 C   0  0  0  0  0  0  0  0  0  0  0  0
  187.0220  178.0400  143.6570 C   0  0  0  0  0  3  0  0  0  0  0  0
  191.1790  175.5790  146.8460 N   0  0  0  0  0  2  0  0  0  0  0  0
  188.0530  176.2150  141.7740 C   0  0  0  0  0  3  0  0  0  0  0  0
  186.9610  176.9030  141.4550 C   0  0  0  0  0  3  0  0  0  0  0  0
  188.1200  177.3720  144.0280 C   0  0  0  0  0  0  0  0  0  0  0  0
  188.6810  176.3190  143.1210 C   0  0  0  0  0  0  0  0  0  0  0  0
  191.7620  173.7100  140.7600 C   0  0  0  0  0  0  0  0  0  0  0  0
  189.5010  172.8550  140.6180 C   0  0  0  0  0  2  0  0  0  0  0  0
  193.1390  173.6960  140.3700 N   0  0  0  0  0  2  0  0  0  0  0  0
  191.3220  174.6490  141.8060 C   0  0  0  0  0  3  0  0  0  0  0  0
  190.9230  172.8420  140.2720 N   0  0  0  0  0  0  0  0  0  0  0  0
  190.1350  174.4800  142.3980 C   0  0  0  0  0  0  0  0  0  0  0  0
  189.2970  173.2730  142.0750 C   0  0  0  0  0  2  0  0  0  0  0  0
  193.5890  174.9460  137.7810 N   0  0  0  0  0  2  0  0  0  0  0  0
  193.6380  173.6620  137.9090 C   0  0  0  0  0  0  0  0  0  0  0  0
  193.6260  173.0630  139.2120 N   0  0  0  0  0  2  0  0  0  0  0  0
  193.2000  173.2950  135.4980 C   0  0  0  0  0  1  0  0  0  0  0  0
  193.6920  171.3670  136.9870 C   0  0  0  0  0  1  0  0  0  0  0  0
  193.9780  172.8320  136.7160 C   0  0  0  0  0  3  0  0  0  0  0  0
  182.3110  178.1130  141.5660 O   0  0  0  0  0  0  0  0  0  0  0  0
  182.7320  178.8230  142.7060 C   0  0  0  0  0  2  0  0  0  0  0  0
  185.1070  178.4370  142.0680 C   0  0  0  0  0  3  0  0  0  0  0  0
  184.5600  177.9070  140.7420 C   0  0  0  0  0  2  0  0  0  0  0  0
  184.0780  178.2840  143.1930 C   0  0  0  0  0  2  0  0  0  0  0  0
  183.1670  178.4910  140.5150 C   0  0  0  0  0  2  0  0  0  0  0  0
  193.2410  174.3780  146.3610 C   0  0  0  0  0  2  0  0  0  0  0  0
  195.8560  172.6610  143.2250 C   0  0  0  0  0  2  0  0  0  0  0  0
  193.7590  173.7730  145.0650 C   0  0  2  0  0  3  0  0  0  0  0  0
  194.7380  171.7260  143.6590 C   0  0  0  0  0  2  0  0  0  0  0  0
  195.3420  174.0930  143.1560 C   0  0  1  0  0  3  0  0  0  0  0  0
  194.2820  172.0560  145.3920 S   0  0  0  0  0  0  0  0  0  0  0  0
  194.9360  174.5870  144.5380 C   0  0  0  0  0  2  0  0  0  0  0  0
  197.1960  176.2480  142.6250 C   0  0  0  0  0  0  0  0  0  0  0  0
  196.3800  174.9530  142.6210 N   0  0  0  0  0  0  0  0  0  0  0  0
  197.4780  177.3720  143.1150 O   0  0  0  0  0  0  0  0  0  0  0  0
  197.3520  175.2550  141.6680 C   0  0  1  0  0  3  0  0  0  0  0  0
  196.6800  175.6790  140.3740 C   0  0  0  0  0  2  0  0  0  0  0  0
  197.2410  175.2960  137.9600 C   0  0  0  0  0  2  0  0  0  0  0  0
  197.0240  174.7560  139.3050 N   0  0  0  0  0  0  0  0  0  0  0  0
  197.3730  173.4040  139.6290 C   0  0  0  0  0  3  0  0  0  0  0  0
  197.5430  172.9360  137.2510 C   0  0  0  0  0  3  0  0  0  0  0  0
  197.3320  174.2110  136.9190 C   0  0  0  0  0  3  0  0  0  0  0  0
  197.6280  172.5260  138.6610 C   0  0  0  0  0  3  0  0  0  0  0  0
  1  9  1  0  0  0  0
  3  2  2  0  0  0  0
  4  5  1  0  0  0  0
  4  6  2  0  0  0  0
  5  7  1  0  0  0  0
  6  2  1  0  0  0  0
  6 10  1  0  0  0  0
  7 34  1  6  0  0  0
  7 10  1  0  0  0  0
  8  4  1  0  0  0  0
  9 13  2  0  0  0  0
 11 14  1  0  0  0  0
 12 11  2  0  0  0  0
 12  1  1  0  0  0  0
 13  3  1  0  0  0  0
 14  8  2  0  0  0  0
 14 13  1  0  0  0  0
 15 18  1  0  0  0  0
 16 21  1  0  0  0  0
 17 15  1  0  0  0  0
 18 20  2  0  0  0  0
 19 16  1  0  0  0  0
 19 15  2  0  0  0  0
 20  8  1  0  0  0  0
 21 20  1  0  0  0  0
 22 23  2  0  0  0  0
 23 24  1  0  0  0  0
 24 17  1  0  0  0  0
 25 27  1  0  0  0  0
 27 26  1  0  0  0  0
 27 23  1  0  0  0  0
 28 29  1  0  0  0  0
 29 32  1  0  0  0  0
 30  1  1  0  0  0  0
 30 32  1  0  0  0  0
 31 30  1  0  0  0  0
 33 31  1  0  0  0  0
 33 28  1  0  0  0  0
 35 37  1  0  0  0  0
 36 39  1  0  0  0  0
 36 34  1  1  0  0  0
 37 39  1  0  0  0  0
 38 42  1  1  0  0  0
 38 35  1  0  0  0  0
 38 40  1  0  0  0  0
 40 36  1  0  0  0  0
 41 43  2  0  0  0  0
 42 41  1  0  0  0  0
 44 45  1  6  0  0  0
 44 42  1  0  0  0  0
 44 41  1  0  0  0  0
 46 47  1  0  0  0  0
 47 48  1  0  0  0  0
 47 45  1  0  0  0  0
 49 51  1  0  0  0  0
 50 49  2  0  0  0  0
 50 46  1  0  0  0  0
 51 48  2  0  0  0  0
M  END
>  <MODEL>
5

>  <REMARK>
 VINA RESULT:      -7.6      3.243      9.740
  Name = 
  9 active torsions:
  status: ('A' for Active; 'I' for Inactive)
    1  A    between atoms: N_3  and  C_19
    2  A    between atoms: C_13  and  C_29
    3  A    between atoms: C_14  and  N_16
    4  A    between atoms: C_14  and  CA_26
    5  A    between atoms: N_15  and  C_31
    6  A    between atoms: C_24  and  C_41
    7  A    between atoms: C_28  and  C_41
    8  A    between atoms: C_33  and  C_49
    9  A    between atoms: N_37  and  N_39
                            x       y       z     vdW  Elec       q    Type
                         _______ _______ _______ _____ _____    ______ ____

>  <TORSDO>
F 9

$$$$
=
 OpenBabel11042413543D

 51 58  0  0  1  0  0  0  0  0999 V2000
  187.7250  176.8700  144.9640 N   0  0  0  0  0  0  0  0  0  0  0  0
  188.3000  174.3740  140.7800 C   0  0  0  0  0  3  0  0  0  0  0  0
  187.6910  175.0190  141.7590 C   0  0  0  0  0  3  0  0  0  0  0  0
  190.6700  174.1530  141.5740 C   0  0  0  0  0  0  0  0  0  0  0  0
  191.9770  173.7290  140.9660 C   0  0  0  0  0  2  0  0  0  0  0  0
  189.7180  174.0660  140.6550 C   0  0  0  0  0  0  0  0  0  0  0  0
  191.6350  173.3430  139.5340 C   0  0  2  0  0  3  0  0  0  0  0  0
  190.5800  174.5180  143.0170 C   0  0  0  0  0  0  0  0  0  0  0  0
  187.4200  176.3750  143.6520 C   0  0  0  0  0  3  0  0  0  0  0  0
  190.2110  173.5820  139.4190 N   0  0  0  0  0  2  0  0  0  0  0  0
  189.7390  175.5860  145.0460 C   0  0  0  0  0  3  0  0  0  0  0  0
  188.8750  176.3890  145.6590 C   0  0  0  0  0  3  0  0  0  0  0  0
  188.2560  175.5670  142.9900 C   0  0  0  0  0  0  0  0  0  0  0  0
  189.5550  175.1730  143.6260 C   0  0  0  0  0  0  0  0  0  0  0  0
  193.2110  172.5640  144.9550 C   0  0  0  0  0  0  0  0  0  0  0  0
  193.4750  174.9130  145.4810 C   0  0  0  0  0  2  0  0  0  0  0  0
  193.6400  171.2010  145.0350 N   0  0  0  0  0  2  0  0  0  0  0  0
  192.0270  172.8970  144.1450 C   0  0  0  0  0  3  0  0  0  0  0  0
  193.9080  173.5150  145.5080 N   0  0  0  0  0  0  0  0  0  0  0  0
  191.7850  174.1680  143.8070 C   0  0  0  0  0  0  0  0  0  0  0  0
  192.7770  175.2430  144.1600 C   0  0  0  0  0  2  0  0  0  0  0  0
  196.4910  170.7950  144.6080 N   0  0  0  0  0  2  0  0  0  0  0  0
  195.9130  170.3370  145.6690 C   0  0  0  0  0  0  0  0  0  0  0  0
  194.5640  170.7170  145.9790 N   0  0  0  0  0  2  0  0  0  0  0  0
  197.9100  168.9210  146.0480 C   0  0  0  0  0  1  0  0  0  0  0  0
  195.8960  168.6550  147.4810 C   0  0  0  0  0  1  0  0  0  0  0  0
  196.7410  169.6410  146.6960 C   0  0  0  0  0  3  0  0  0  0  0  0
  184.1770  178.6200  146.2300 O   0  0  0  0  0  0  0  0  0  0  0  0
  185.0280  178.2030  147.2700 C   0  0  0  0  0  2  0  0  0  0  0  0
  186.8590  177.8390  145.6250 C   0  0  0  0  0  3  0  0  0  0  0  0
  185.9520  178.5370  144.6110 C   0  0  0  0  0  2  0  0  0  0  0  0
  186.0410  177.1860  146.7440 C   0  0  0  0  0  2  0  0  0  0  0  0
  184.9530  179.4130  145.3650 C   0  0  0  0  0  2  0  0  0  0  0  0
  191.9360  171.8660  139.3310 C   0  0  0  0  0  2  0  0  0  0  0  0
  195.3920  170.1090  137.1880 C   0  0  0  0  0  2  0  0  0  0  0  0
  193.1300  171.6610  138.4110 C   0  0  2  0  0  3  0  0  0  0  0  0
  194.2760  170.5680  136.2630 C   0  0  0  0  0  2  0  0  0  0  0  0
  195.5670  171.1040  138.3290 C   0  0  1  0  0  3  0  0  0  0  0  0
  192.6700  170.4610  137.1170 S   0  0  0  0  0  0  0  0  0  0  0  0
  194.3230  171.1420  139.2070 C   0  0  0  0  0  2  0  0  0  0  0  0
  197.5980  169.6750  139.8090 C   0  0  0  0  0  0  0  0  0  0  0  0
  196.7140  170.7230  139.1310 N   0  0  0  0  0  0  0  0  0  0  0  0
  197.8820  168.4790  140.0790 O   0  0  0  0  0  0  0  0  0  0  0  0
  197.8150  171.0410  139.9240 C   0  0  1  0  0  3  0  0  0  0  0  0
  197.3390  171.5240  141.2830 C   0  0  0  0  0  2  0  0  0  0  0  0
  197.9190  173.7910  140.3830 C   0  0  0  0  0  2  0  0  0  0  0  0
  197.0790  172.9540  141.2440 N   0  0  0  0  0  0  0  0  0  0  0  0
  195.8840  173.4670  141.8460 C   0  0  0  0  0  3  0  0  0  0  0  0
  196.6420  175.7110  141.3040 C   0  0  0  0  0  3  0  0  0  0  0  0
  197.7070  175.2610  140.6390 C   0  0  0  0  0  3  0  0  0  0  0  0
  195.6590  174.7800  141.8780 C   0  0  0  0  0  3  0  0  0  0  0  0
  1 30  1  0  0  0  0
  1 12  1  0  0  0  0
  2  3  2  0  0  0  0
  3 13  1  0  0  0  0
  4  8  1  0  0  0  0
  5  4  1  0  0  0  0
  6  2  1  0  0  0  0
  6  4  2  0  0  0  0
  7 34  1  1  0  0  0
  7  5  1  0  0  0  0
  8 14  2  0  0  0  0
  8 20  1  0  0  0  0
  9  1  1  0  0  0  0
 10  7  1  0  0  0  0
 10  6  1  0  0  0  0
 11 12  2  0  0  0  0
 13 14  1  0  0  0  0
 13  9  2  0  0  0  0
 14 11  1  0  0  0  0
 15 17  1  0  0  0  0
 15 19  2  0  0  0  0
 16 19  1  0  0  0  0
 17 24  1  0  0  0  0
 18 15  1  0  0  0  0
 20 18  2  0  0  0  0
 20 21  1  0  0  0  0
 21 16  1  0  0  0  0
 22 23  2  0  0  0  0
 23 24  1  0  0  0  0
 23 27  1  0  0  0  0
 25 27  1  0  0  0  0
 27 26  1  0  0  0  0
 28 29  1  0  0  0  0
 30 32  1  0  0  0  0
 31 33  1  0  0  0  0
 31 30  1  0  0  0  0
 32 29  1  0  0  0  0
 33 28  1  0  0  0  0
 36 40  1  0  0  0  0
 36 34  1  1  0  0  0
 37 39  1  0  0  0  0
 37 35  1  0  0  0  0
 38 35  1  6  0  0  0
 38 42  1  0  0  0  0
 38 40  1  0  0  0  0
 39 36  1  0  0  0  0
 41 44  1  0  0  0  0
 41 43  2  0  0  0  0
 42 41  1  0  0  0  0
 42 44  1  0  0  0  0
 44 45  1  1  0  0  0
 46 50  1  0  0  0  0
 46 47  1  0  0  0  0
 47 45  1  0  0  0  0
 47 48  1  0  0  0  0
 48 51  2  0  0  0  0
 49 51  1  0  0  0  0
 50 49  2  0  0  0  0
M  END
>  <MODEL>
6

>  <REMARK>
 VINA RESULT:      -7.5      3.114     10.224
  Name = 
  9 active torsions:
  status: ('A' for Active; 'I' for Inactive)
    1  A    between atoms: N_3  and  C_19
    2  A    between atoms: C_13  and  C_29
    3  A    between atoms: C_14  and  N_16
    4  A    between atoms: C_14  and  CA_26
    5  A    between atoms: N_15  and  C_31
    6  A    between atoms: C_24  and  C_41
    7  A    between atoms: C_28  and  C_41
    8  A    between atoms: C_33  and  C_49
    9  A    between atoms: N_37  and  N_39
                            x       y       z     vdW  Elec       q    Type
                         _______ _______ _______ _____ _____    ______ ____

>  <TORSDO>
F 9

$$$$
=
 OpenBabel11042413543D

 51 58  0  0  1  0  0  0  0  0999 V2000
  187.7730  177.3810  144.9920 N   0  0  0  0  0  0  0  0  0  0  0  0
  192.3040  175.9900  146.2590 C   0  0  0  0  0  3  0  0  0  0  0  0
  191.2280  176.7500  146.1610 C   0  0  0  0  0  3  0  0  0  0  0  0
  191.8180  174.0440  144.7500 C   0  0  0  0  0  0  0  0  0  0  0  0
  192.4420  172.7050  144.4810 C   0  0  0  0  0  2  0  0  0  0  0  0
  192.5270  174.6730  145.6780 C   0  0  0  0  0  0  0  0  0  0  0  0
  193.6670  172.6560  145.3840 C   0  0  2  0  0  3  0  0  0  0  0  0
  190.6310  174.5060  143.9740 C   0  0  0  0  0  0  0  0  0  0  0  0
  189.0030  177.3520  145.7300 C   0  0  0  0  0  3  0  0  0  0  0  0
  193.6480  173.9170  146.0980 N   0  0  0  0  0  2  0  0  0  0  0  0
  188.5820  175.7320  143.4630 C   0  0  0  0  0  3  0  0  0  0  0  0
  187.6310  176.5930  143.8100 C   0  0  0  0  0  3  0  0  0  0  0  0
  189.9900  176.5010  145.4250 C   0  0  0  0  0  0  0  0  0  0  0  0
  189.8080  175.5420  144.2870 C   0  0  0  0  0  0  0  0  0  0  0  0
  190.6510  173.0510  140.4550 C   0  0  0  0  0  0  0  0  0  0  0  0
  188.6200  172.3300  141.5580 C   0  0  0  0  0  2  0  0  0  0  0  0
  191.5600  173.0240  139.3490 N   0  0  0  0  0  2  0  0  0  0  0  0
  190.9850  173.8620  141.6370 C   0  0  0  0  0  3  0  0  0  0  0  0
  189.5910  172.2950  140.4630 N   0  0  0  0  0  0  0  0  0  0  0  0
  190.3240  173.6730  142.7850 C   0  0  0  0  0  0  0  0  0  0  0  0
  189.3180  172.5600  142.9000 C   0  0  0  0  0  2  0  0  0  0  0  0
  191.5320  174.5400  136.8650 N   0  0  0  0  0  2  0  0  0  0  0  0
  191.0350  173.3480  136.9140 C   0  0  0  0  0  0  0  0  0  0  0  0
  191.2380  172.5270  138.0730 N   0  0  0  0  0  2  0  0  0  0  0  0
  189.5560  173.7090  134.9600 C   0  0  0  0  0  1  0  0  0  0  0  0
  189.7630  171.4490  135.9720 C   0  0  0  0  0  1  0  0  0  0  0  0
  190.4920  172.7430  135.6640 C   0  0  0  0  0  3  0  0  0  0  0  0
  183.8410  178.6730  145.3380 O   0  0  0  0  0  0  0  0  0  0  0  0
  184.4620  178.3540  146.5590 C   0  0  0  0  0  2  0  0  0  0  0  0
  186.6640  178.2310  145.4070 C   0  0  0  0  0  3  0  0  0  0  0  0
  185.9490  178.8220  144.1920 C   0  0  0  0  0  2  0  0  0  0  0  0
  185.6870  177.4730  146.3110 C   0  0  0  0  0  2  0  0  0  0  0  0
  184.7000  179.5630  144.6670 C   0  0  0  0  0  2  0  0  0  0  0  0
  194.9170  172.5590  144.5240 C   0  0  0  0  0  2  0  0  0  0  0  0
  195.1100  171.5850  140.2080 C   0  0  0  0  0  2  0  0  0  0  0  0
  194.5710  172.3760  143.0540 C   0  0  2  0  0  3  0  0  0  0  0  0
  194.0190  170.8290  140.9500 C   0  0  0  0  0  2  0  0  0  0  0  0
  195.1940  173.0180  140.7190 C   0  0  1  0  0  3  0  0  0  0  0  0
  194.4970  170.5890  142.6910 S   0  0  0  0  0  0  0  0  0  0  0  0
  195.6260  173.0440  142.1790 C   0  0  0  0  0  2  0  0  0  0  0  0
  197.0720  174.9580  139.6850 C   0  0  0  0  0  0  0  0  0  0  0  0
  196.1480  173.7610  139.9180 N   0  0  0  0  0  0  0  0  0  0  0  0
  197.5870  176.0430  140.0610 O   0  0  0  0  0  0  0  0  0  0  0  0
  196.8730  173.9580  138.7440 C   0  0  1  0  0  3  0  0  0  0  0  0
  195.9440  174.4580  137.6520 C   0  0  0  0  0  2  0  0  0  0  0  0
  196.9500  173.1180  135.7860 C   0  0  0  0  0  2  0  0  0  0  0  0
  195.7910  173.4440  136.6220 N   0  0  0  0  0  0  0  0  0  0  0  0
  194.6090  172.6330  136.6050 C   0  0  0  0  0  3  0  0  0  0  0  0
  195.4180  171.5940  134.5630 C   0  0  0  0  0  3  0  0  0  0  0  0
  196.5780  172.2520  134.6100 C   0  0  0  0  0  3  0  0  0  0  0  0
  194.4200  171.7420  135.6320 C   0  0  0  0  0  3  0  0  0  0  0  0
  1 30  1  0  0  0  0
  1  9  1  0  0  0  0
  3  2  2  0  0  0  0
  4  6  2  0  0  0  0
  5  4  1  0  0  0  0
  5  7  1  0  0  0  0
  6 10  1  0  0  0  0
  6  2  1  0  0  0  0
  7 34  1  6  0  0  0
  7 10  1  0  0  0  0
  8 14  2  0  0  0  0
  8  4  1  0  0  0  0
 11 12  2  0  0  0  0
 11 14  1  0  0  0  0
 12  1  1  0  0  0  0
 13  9  2  0  0  0  0
 13  3  1  0  0  0  0
 14 13  1  0  0  0  0
 15 19  2  0  0  0  0
 15 18  1  0  0  0  0
 16 21  1  0  0  0  0
 17 15  1  0  0  0  0
 18 20  2  0  0  0  0
 19 16  1  0  0  0  0
 20 21  1  0  0  0  0
 20  8  1  0  0  0  0
 22 23  2  0  0  0  0
 23 24  1  0  0  0  0
 24 17  1  0  0  0  0
 25 27  1  0  0  0  0
 27 26  1  0  0  0  0
 27 23  1  0  0  0  0
 28 29  1  0  0  0  0
 30 32  1  0  0  0  0
 31 33  1  0  0  0  0
 31 30  1  0  0  0  0
 32 29  1  0  0  0  0
 33 28  1  0  0  0  0
 35 38  1  0  0  0  0
 35 37  1  0  0  0  0
 36 34  1  1  0  0  0
 37 39  1  0  0  0  0
 38 42  1  6  0  0  0
 38 40  1  0  0  0  0
 39 36  1  0  0  0  0
 40 36  1  0  0  0  0
 41 42  1  0  0  0  0
 41 43  2  0  0  0  0
 44 45  1  6  0  0  0
 44 41  1  0  0  0  0
 44 42  1  0  0  0  0
 46 47  1  0  0  0  0
 47 45  1  0  0  0  0
 48 47  1  0  0  0  0
 49 50  2  0  0  0  0
 49 51  1  0  0  0  0
 50 46  1  0  0  0  0
 51 48  2  0  0  0  0
M  END
>  <MODEL>
7

>  <REMARK>
 VINA RESULT:      -7.4      3.446      9.873
  Name = 
  9 active torsions:
  status: ('A' for Active; 'I' for Inactive)
    1  A    between atoms: N_3  and  C_19
    2  A    between atoms: C_13  and  C_29
    3  A    between atoms: C_14  and  N_16
    4  A    between atoms: C_14  and  CA_26
    5  A    between atoms: N_15  and  C_31
    6  A    between atoms: C_24  and  C_41
    7  A    between atoms: C_28  and  C_41
    8  A    between atoms: C_33  and  C_49
    9  A    between atoms: N_37  and  N_39
                            x       y       z     vdW  Elec       q    Type
                         _______ _______ _______ _____ _____    ______ ____

>  <TORSDO>
F 9

$$$$
=
 OpenBabel11042413543D

 51 58  0  0  1  0  0  0  0  0999 V2000
  185.6410  177.9130  142.3960 N   0  0  0  0  0  0  0  0  0  0  0  0
  189.2550  177.3320  145.6630 C   0  0  0  0  0  3  0  0  0  0  0  0
  188.2780  177.9180  144.9930 C   0  0  0  0  0  3  0  0  0  0  0  0
  189.6120  175.1630  144.4530 C   0  0  0  0  0  0  0  0  0  0  0  0
  190.3830  173.8990  144.7060 C   0  0  0  0  0  2  0  0  0  0  0  0
  189.8010  175.9960  145.4670 C   0  0  0  0  0  0  0  0  0  0  0  0
  191.0930  174.1350  146.0320 C   0  0  2  0  0  3  0  0  0  0  0  0
  188.8520  175.3540  143.1830 C   0  0  0  0  0  0  0  0  0  0  0  0
  186.4270  178.1480  143.5740 C   0  0  0  0  0  3  0  0  0  0  0  0
  190.6770  175.4610  146.4410 N   0  0  0  0  0  2  0  0  0  0  0  0
  187.1480  176.2110  141.6570 C   0  0  0  0  0  3  0  0  0  0  0  0
  186.0830  176.9700  141.4200 C   0  0  0  0  0  3  0  0  0  0  0  0
  187.5050  177.4100  143.8630 C   0  0  0  0  0  0  0  0  0  0  0  0
  187.9040  176.2980  142.9390 C   0  0  0  0  0  0  0  0  0  0  0  0
  190.5340  173.4520  140.3450 C   0  0  0  0  0  0  0  0  0  0  0  0
  188.2450  172.6820  140.5180 C   0  0  0  0  0  2  0  0  0  0  0  0
  191.8500  173.3710  139.7890 N   0  0  0  0  0  2  0  0  0  0  0  0
  190.2610  174.4440  141.3990 C   0  0  0  0  0  3  0  0  0  0  0  0
  189.6110  172.6010  140.0000 N   0  0  0  0  0  0  0  0  0  0  0  0
  189.1520  174.3440  142.1400 C   0  0  0  0  0  0  0  0  0  0  0  0
  188.2390  173.1590  141.9710 C   0  0  0  0  0  2  0  0  0  0  0  0
  194.3570  173.5250  138.3180 N   0  0  0  0  0  2  0  0  0  0  0  0
  193.3280  172.9380  137.8040 C   0  0  0  0  0  0  0  0  0  0  0  0
  192.1670  172.6780  138.6060 N   0  0  0  0  0  2  0  0  0  0  0  0
  194.4350  173.0670  135.5920 C   0  0  0  0  0  1  0  0  0  0  0  0
  192.1090  172.2120  135.7790 C   0  0  0  0  0  1  0  0  0  0  0  0
  193.4600  172.2960  136.4630 C   0  0  0  0  0  3  0  0  0  0  0  0
  181.5530  178.5350  142.0050 O   0  0  0  0  0  0  0  0  0  0  0  0
  182.1640  179.2820  143.0290 C   0  0  0  0  0  2  0  0  0  0  0  0
  184.4060  178.6470  142.1540 C   0  0  0  0  0  3  0  0  0  0  0  0
  183.6620  178.0770  140.9460 C   0  0  0  0  0  2  0  0  0  0  0  0
  183.5120  178.6630  143.3990 C   0  0  0  0  0  2  0  0  0  0  0  0
  182.3020  178.7630  140.8360 C   0  0  0  0  0  2  0  0  0  0  0  0
  192.5960  174.1030  145.8050 C   0  0  0  0  0  2  0  0  0  0  0  0
  194.7060  172.5840  142.2190 C   0  0  0  0  0  2  0  0  0  0  0  0
  192.9380  173.6830  144.3840 C   0  0  2  0  0  3  0  0  0  0  0  0
  193.4370  171.8130  142.5460 C   0  0  0  0  0  2  0  0  0  0  0  0
  194.4900  174.0730  142.4620 C   0  0  1  0  0  3  0  0  0  0  0  0
  193.1140  171.8680  144.3380 S   0  0  0  0  0  0  0  0  0  0  0  0
  194.2370  174.3460  143.9380 C   0  0  0  0  0  2  0  0  0  0  0  0
  196.5500  175.4110  140.9360 C   0  0  0  0  0  0  0  0  0  0  0  0
  195.6620  174.8080  142.0270 N   0  0  0  0  0  0  0  0  0  0  0  0
  196.8010  175.6510  139.7270 O   0  0  0  0  0  0  0  0  0  0  0  0
  196.8730  175.4490  142.2850 C   0  0  1  0  0  3  0  0  0  0  0  0
  197.9410  174.4140  142.5880 C   0  0  0  0  0  2  0  0  0  0  0  0
  197.7060  172.2300  143.7990 C   0  0  0  0  0  2  0  0  0  0  0  0
  197.6100  173.6930  143.8060 N   0  0  0  0  0  0  0  0  0  0  0  0
  197.4350  174.4210  145.0280 C   0  0  0  0  0  3  0  0  0  0  0  0
  196.8300  172.3360  146.1190 C   0  0  0  0  0  3  0  0  0  0  0  0
  197.0920  171.6140  145.0290 C   0  0  0  0  0  3  0  0  0  0  0  0
  197.0680  173.7880  146.1400 C   0  0  0  0  0  3  0  0  0  0  0  0
  1  9  1  0  0  0  0
  3  2  2  0  0  0  0
  4  5  1  0  0  0  0
  4  6  2  0  0  0  0
  5  7  1  0  0  0  0
  6  2  1  0  0  0  0
  6 10  1  0  0  0  0
  7 34  1  6  0  0  0
  7 10  1  0  0  0  0
  8  4  1  0  0  0  0
  9 13  2  0  0  0  0
 11 14  1  0  0  0  0
 12 11  2  0  0  0  0
 12  1  1  0  0  0  0
 13  3  1  0  0  0  0
 14  8  2  0  0  0  0
 14 13  1  0  0  0  0
 15 18  1  0  0  0  0
 16 21  1  0  0  0  0
 17 15  1  0  0  0  0
 18 20  2  0  0  0  0
 19 15  2  0  0  0  0
 19 16  1  0  0  0  0
 20  8  1  0  0  0  0
 21 20  1  0  0  0  0
 23 22  2  0  0  0  0
 23 24  1  0  0  0  0
 24 17  1  0  0  0  0
 25 27  1  0  0  0  0
 26 27  1  0  0  0  0
 27 23  1  0  0  0  0
 28 29  1  0  0  0  0
 29 32  1  0  0  0  0
 30  1  1  0  0  0  0
 30 32  1  0  0  0  0
 31 30  1  0  0  0  0
 33 31  1  0  0  0  0
 33 28  1  0  0  0  0
 35 38  1  0  0  0  0
 35 37  1  0  0  0  0
 36 34  1  1  0  0  0
 37 39  1  0  0  0  0
 38 42  1  1  0  0  0
 38 40  1  0  0  0  0
 39 36  1  0  0  0  0
 40 36  1  0  0  0  0
 41 42  1  0  0  0  0
 41 44  1  0  0  0  0
 42 44  1  0  0  0  0
 43 41  2  0  0  0  0
 44 45  1  6  0  0  0
 45 47  1  0  0  0  0
 46 47  1  0  0  0  0
 46 50  1  0  0  0  0
 47 48  1  0  0  0  0
 48 51  2  0  0  0  0
 49 51  1  0  0  0  0
 50 49  2  0  0  0  0
M  END
>  <MODEL>
8

>  <REMARK>
 VINA RESULT:      -7.1      3.163      9.548
  Name = 
  9 active torsions:
  status: ('A' for Active; 'I' for Inactive)
    1  A    between atoms: N_3  and  C_19
    2  A    between atoms: C_13  and  C_29
    3  A    between atoms: C_14  and  N_16
    4  A    between atoms: C_14  and  CA_26
    5  A    between atoms: N_15  and  C_31
    6  A    between atoms: C_24  and  C_41
    7  A    between atoms: C_28  and  C_41
    8  A    between atoms: C_33  and  C_49
    9  A    between atoms: N_37  and  N_39
                            x       y       z     vdW  Elec       q    Type
                         _______ _______ _______ _____ _____    ______ ____

>  <TORSDO>
F 9

$$$$
=
 OpenBabel11042413543D

 51 58  0  0  1  0  0  0  0  0999 V2000
  187.6980  176.7340  144.8530 N   0  0  0  0  0  0  0  0  0  0  0  0
  188.3060  174.5730  140.4900 C   0  0  0  0  0  3  0  0  0  0  0  0
  187.6970  175.1800  141.4930 C   0  0  0  0  0  3  0  0  0  0  0  0
  190.6010  174.0810  141.3760 C   0  0  0  0  0  0  0  0  0  0  0  0
  191.9020  173.6010  140.7970 C   0  0  0  0  0  2  0  0  0  0  0  0
  189.6990  174.1570  140.4070 C   0  0  0  0  0  0  0  0  0  0  0  0
  191.6110  173.3730  139.3210 C   0  0  2  0  0  3  0  0  0  0  0  0
  190.4590  174.3250  142.8400 C   0  0  0  0  0  0  0  0  0  0  0  0
  187.4290  176.3840  143.4870 C   0  0  0  0  0  3  0  0  0  0  0  0
  190.2200  173.7430  139.1570 N   0  0  0  0  0  2  0  0  0  0  0  0
  189.5940  175.2790  144.9150 C   0  0  0  0  0  3  0  0  0  0  0  0
  188.7650  176.0970  145.5560 C   0  0  0  0  0  3  0  0  0  0  0  0
  188.2340  175.5680  142.7950 C   0  0  0  0  0  0  0  0  0  0  0  0
  189.4580  175.0090  143.4560 C   0  0  0  0  0  0  0  0  0  0  0  0
  192.8550  171.9820  144.6480 C   0  0  0  0  0  0  0  0  0  0  0  0
  193.1680  174.2140  145.5350 C   0  0  0  0  0  2  0  0  0  0  0  0
  193.2240  170.6020  144.5550 N   0  0  0  0  0  2  0  0  0  0  0  0
  191.7520  172.4870  143.8150 C   0  0  0  0  0  3  0  0  0  0  0  0
  193.5430  172.8070  145.3850 N   0  0  0  0  0  0  0  0  0  0  0  0
  191.5860  173.8050  143.6530 C   0  0  0  0  0  0  0  0  0  0  0  0
  192.5870  174.7660  144.2320 C   0  0  0  0  0  2  0  0  0  0  0  0
  196.0930  170.1780  144.3050 N   0  0  0  0  0  2  0  0  0  0  0  0
  195.4160  169.5740  145.2250 C   0  0  0  0  0  0  0  0  0  0  0  0
  194.0530  169.9410  145.4800 N   0  0  0  0  0  2  0  0  0  0  0  0
  195.3510  168.5470  147.4780 C   0  0  0  0  0  1  0  0  0  0  0  0
  197.5190  169.2460  146.4850 C   0  0  0  0  0  1  0  0  0  0  0  0
  196.1380  168.6930  146.1890 C   0  0  0  0  0  3  0  0  0  0  0  0
  184.7270  178.1470  147.3870 O   0  0  0  0  0  0  0  0  0  0  0  0
  186.0340  178.5140  147.7560 C   0  0  0  0  0  2  0  0  0  0  0  0
  186.8790  177.7120  145.5560 C   0  0  0  0  0  3  0  0  0  0  0  0
  185.4100  177.5810  145.1530 C   0  0  0  0  0  2  0  0  0  0  0  0
  187.0490  177.5960  147.0750 C   0  0  0  0  0  2  0  0  0  0  0  0
  184.5720  178.5040  146.0350 C   0  0  0  0  0  2  0  0  0  0  0  0
  191.8020  171.8990  138.9970 C   0  0  0  0  0  2  0  0  0  0  0  0
  194.1280  170.8100  135.3880 C   0  0  0  0  0  2  0  0  0  0  0  0
  192.2500  171.6970  137.5570 C   0  0  2  0  0  3  0  0  0  0  0  0
  192.7710  170.1280  135.4620 C   0  0  0  0  0  2  0  0  0  0  0  0
  194.0170  172.2490  135.8760 C   0  0  1  0  0  3  0  0  0  0  0  0
  192.2740  169.9080  137.2000 S   0  0  0  0  0  0  0  0  0  0  0  0
  193.6400  172.2900  137.3510 C   0  0  0  0  0  2  0  0  0  0  0  0
  196.8090  172.9960  135.8040 C   0  0  0  0  0  0  0  0  0  0  0  0
  195.2860  172.9240  135.6820 N   0  0  0  0  0  0  0  0  0  0  0  0
  197.9130  172.4960  136.1430 O   0  0  0  0  0  0  0  0  0  0  0  0
  196.0390  174.0330  135.2990 C   0  0  1  0  0  3  0  0  0  0  0  0
  195.9000  175.1260  136.3440 C   0  0  0  0  0  2  0  0  0  0  0  0
  195.8550  177.1620  134.8800 C   0  0  0  0  0  2  0  0  0  0  0  0
  195.1610  176.2520  135.7950 N   0  0  0  0  0  0  0  0  0  0  0  0
  193.7400  176.3100  135.9680 C   0  0  0  0  0  3  0  0  0  0  0  0
  193.7520  178.4810  134.8760 C   0  0  0  0  0  3  0  0  0  0  0  0
  195.0550  178.4080  134.6010 C   0  0  0  0  0  3  0  0  0  0  0  0
  193.0530  177.3640  135.5300 C   0  0  0  0  0  3  0  0  0  0  0  0
  1 12  1  0  0  0  0
  1 30  1  0  0  0  0
  2  3  2  0  0  0  0
  3 13  1  0  0  0  0
  4  8  1  0  0  0  0
  5  4  1  0  0  0  0
  6  2  1  0  0  0  0
  6  4  2  0  0  0  0
  7 34  1  1  0  0  0
  7  5  1  0  0  0  0
  8 14  2  0  0  0  0
  8 20  1  0  0  0  0
  9  1  1  0  0  0  0
 10  7  1  0  0  0  0
 10  6  1  0  0  0  0
 11 12  2  0  0  0  0
 13 14  1  0  0  0  0
 13  9  2  0  0  0  0
 14 11  1  0  0  0  0
 15 19  2  0  0  0  0
 17 15  1  0  0  0  0
 17 24  1  0  0  0  0
 18 15  1  0  0  0  0
 19 16  1  0  0  0  0
 20 18  2  0  0  0  0
 20 21  1  0  0  0  0
 21 16  1  0  0  0  0
 22 23  2  0  0  0  0
 23 24  1  0  0  0  0
 23 27  1  0  0  0  0
 27 26  1  0  0  0  0
 27 25  1  0  0  0  0
 28 29  1  0  0  0  0
 30 32  1  0  0  0  0
 31 30  1  0  0  0  0
 31 33  1  0  0  0  0
 32 29  1  0  0  0  0
 33 28  1  0  0  0  0
 35 37  1  0  0  0  0
 36 34  1  1  0  0  0
 37 39  1  0  0  0  0
 38 35  1  1  0  0  0
 38 40  1  0  0  0  0
 39 36  1  0  0  0  0
 40 36  1  0  0  0  0
 41 43  2  0  0  0  0
 42 41  1  0  0  0  0
 42 38  1  0  0  0  0
 44 42  1  0  0  0  0
 44 41  1  0  0  0  0
 44 45  1  1  0  0  0
 46 47  1  0  0  0  0
 47 48  1  0  0  0  0
 47 45  1  0  0  0  0
 49 51  1  0  0  0  0
 50 49  2  0  0  0  0
 50 46  1  0  0  0  0
 51 48  2  0  0  0  0
M  END
>  <MODEL>
9

>  <REMARK>
 VINA RESULT:      -7.0      3.159     10.597
  Name = 
  9 active torsions:
  status: ('A' for Active; 'I' for Inactive)
    1  A    between atoms: N_3  and  C_19
    2  A    between atoms: C_13  and  C_29
    3  A    between atoms: C_14  and  N_16
    4  A    between atoms: C_14  and  CA_26
    5  A    between atoms: N_15  and  C_31
    6  A    between atoms: C_24  and  C_41
    7  A    between atoms: C_28  and  C_41
    8  A    between atoms: C_33  and  C_49
    9  A    between atoms: N_37  and  N_39
                            x       y       z     vdW  Elec       q    Type
                         _______ _______ _______ _____ _____    ______ ____

>  <TORSDO>
F 9

$$$$
