=
 OpenBabel11042414013D

 31 35  0  0  1  0  0  0  0  0999 V2000
  192.1030  175.1310  144.0900 C   0  0  0  0  0  0  0  0  0  0  0  0
  192.9390  175.0290  141.8290 C   0  0  0  0  0  0  0  0  0  0  0  0
  191.9390  174.7410  142.6870 C   0  0  0  0  0  3  0  0  0  0  0  0
  186.6800  178.0850  144.4130 C   0  0  1  0  0  3  0  0  0  0  0  0
  194.1370  177.2740  146.8550 Cl  0  0  0  0  0  0  0  0  0  0  0  0
  191.8660  175.8240  146.2260 C   0  0  0  0  0  0  0  0  0  0  0  0
  193.2840  175.8450  144.5140 C   0  0  0  0  0  0  0  0  0  0  0  0
  193.0750  176.2690  145.8860 C   0  0  0  0  0  0  0  0  0  0  0  0
  187.9150  177.7700  146.6220 O   0  0  0  0  0  0  0  0  0  0  0  0
  191.1310  176.0710  147.4990 C   0  0  0  0  0  2  0  0  0  0  0  0
  191.2640  175.0850  145.1200 C   0  0  1  0  0  3  0  0  0  0  0  0
  189.9350  176.9090  147.3280 N   0  0  0  0  0  0  0  0  0  0  0  0
  188.0650  177.9470  143.7800 C   0  0  2  0  0  3  0  0  0  0  0  0
  187.9720  178.2800  142.0340 Cl  0  0  0  0  0  0  0  0  0  0  0  0
  186.6980  177.6880  145.8850 C   0  0  0  0  0  0  0  0  0  0  0  0
  185.4450  177.9240  146.6970 C   0  0  0  0  0  2  0  0  0  0  0  0
  189.0060  176.9160  146.4040 C   0  0  0  0  0  0  0  0  0  0  0  0
  194.1530  175.7490  142.3230 C   0  0  0  0  0  0  0  0  0  0  0  0
  189.0630  176.0840  145.1520 C   0  0  0  0  0  0  0  0  0  0  0  0
  195.0970  176.0080  141.5330 O   0  0  0  0  0  0  0  0  0  0  0  0
  185.8220  176.5130  146.2570 C   0  0  0  0  0  2  0  0  0  0  0  0
  188.6460  176.5800  143.9750 C   0  0  0  0  0  3  0  0  0  0  0  0
  186.2480  179.4070  144.2920 O   0  0  0  0  0  1  0  0  0  0  0  0
  189.8030  174.7780  145.1470 C   0  0  1  0  0  3  0  0  0  0  0  0
  194.2410  176.1680  143.7000 N   0  0  0  0  0  2  0  0  0  0  0  0
  192.0720  173.5900  140.0050 C   0  0  0  0  0  1  0  0  0  0  0  0
  192.8610  174.6740  140.4760 O   0  0  0  0  0  0  0  0  0  0  0  0
  189.3340  173.7710  144.0940 C   0  0  0  0  0  2  0  0  0  0  0  0
  189.8920  172.0920  144.5180 S   0  0  0  0  0  0  0  0  0  0  0  0
  189.0410  172.4650  141.9470 C   0  0  0  0  0  1  0  0  0  0  0  0
  189.9110  171.5490  142.7840 C   0  0  0  0  0  2  0  0  0  0  0  0
  1  7  2  0  0  0  0
  2 18  1  0  0  0  0
  2  3  2  0  0  0  0
  3  1  1  0  0  0  0
  4 23  1  1  0  0  0
  4 15  1  0  0  0  0
  6 10  1  0  0  0  0
  7  8  1  0  0  0  0
  8  6  2  0  0  0  0
  8  5  1  0  0  0  0
 11  1  1  6  0  0  0
 11 24  1  0  0  0  0
 11  6  1  0  0  0  0
 12 10  1  0  0  0  0
 13 14  1  6  0  0  0
 13 22  1  0  0  0  0
 13  4  1  0  0  0  0
 15 21  1  0  0  0  0
 15  9  1  0  0  0  0
 15 16  1  0  0  0  0
 17  9  1  0  0  0  0
 17 12  2  0  0  0  0
 18 25  1  0  0  0  0
 19 17  1  0  0  0  0
 20 18  2  0  0  0  0
 21 16  1  0  0  0  0
 22 19  2  0  0  0  0
 24 28  1  6  0  0  0
 24 19  1  0  0  0  0
 25  7  1  0  0  0  0
 26 27  1  0  0  0  0
 27  2  1  0  0  0  0
 28 29  1  0  0  0  0
 30 31  1  0  0  0  0
 31 29  1  0  0  0  0
M  END
>  <MODEL>
1

>  <REMARK>
 VINA RESULT:      -7.3      0.000      0.000
  Name = 
  4 active torsions:
  status: ('A' for Active; 'I' for Inactive)
    1  A    between atoms: C_2  and  O_26
    2  A    between atoms: S_5  and  C_6
    3  A    between atoms: S_5  and  C_27
    4  A    between atoms: C_6  and  C_30
                            x       y       z     vdW  Elec       q    Type
                         _______ _______ _______ _____ _____    ______ ____

>  <TORSDO>
F 4

$$$$
=
 OpenBabel11042414013D

 31 35  0  0  1  0  0  0  0  0999 V2000
  187.4560  177.5510  144.2880 C   0  0  0  0  0  0  0  0  0  0  0  0
  185.9410  178.3250  142.5760 C   0  0  0  0  0  0  0  0  0  0  0  0
  187.2000  177.9690  142.9070 C   0  0  0  0  0  3  0  0  0  0  0  0
  190.2380  172.2660  142.6870 C   0  0  1  0  0  3  0  0  0  0  0  0
  185.9700  176.4030  147.8720 Cl  0  0  0  0  0  0  0  0  0  0  0  0
  188.1670  176.5850  146.2010 C   0  0  0  0  0  0  0  0  0  0  0  0
  186.3730  177.4790  145.2390 C   0  0  0  0  0  0  0  0  0  0  0  0
  186.8840  176.8490  146.4430 C   0  0  0  0  0  0  0  0  0  0  0  0
  190.3640  172.8910  145.1560 O   0  0  0  0  0  0  0  0  0  0  0  0
  189.1260  175.8540  147.0770 C   0  0  0  0  0  2  0  0  0  0  0  0
  188.5420  177.0480  144.8680 C   0  0  0  0  0  0  0  0  0  0  0  0
  189.5470  174.5570  146.5270 N   0  0  0  0  0  0  0  0  0  0  0  0
  188.9930  173.1520  142.6690 C   0  0  2  0  0  3  0  0  0  0  0  0
  188.1790  173.0260  141.0910 Cl  0  0  0  0  0  0  0  0  0  0  0  0
  191.0290  172.4410  143.9800 C   0  0  0  0  0  0  0  0  0  0  0  0
  192.1980  171.5150  144.2240 C   0  0  0  0  0  2  0  0  0  0  0  0
  189.8710  174.1960  145.3100 C   0  0  0  0  0  0  0  0  0  0  0  0
  184.8590  178.2560  143.6060 C   0  0  0  0  0  0  0  0  0  0  0  0
  189.7300  175.0860  144.1050 C   0  0  0  0  0  0  0  0  0  0  0  0
  183.6860  178.6010  143.3110 O   0  0  0  0  0  0  0  0  0  0  0  0
  192.4380  172.9650  143.8190 C   0  0  0  0  0  2  0  0  0  0  0  0
  189.3150  174.5920  142.9270 C   0  0  0  0  0  3  0  0  0  0  0  0
  189.8550  170.9290  142.5520 O   0  0  0  0  0  1  0  0  0  0  0  0
  189.8190  176.5780  144.2550 C   0  0  1  0  0  3  0  0  0  0  0  0
  185.1490  177.7780  144.9360 N   0  0  0  0  0  0  0  0  0  0  0  0
  185.6840  177.8940  140.1480 C   0  0  0  0  0  1  0  0  0  0  0  0
  185.6220  178.7500  141.2800 O   0  0  0  0  0  0  0  0  0  0  0  0
  190.2480  177.3310  142.9940 C   0  0  0  0  0  2  0  0  0  0  0  0
  192.0450  177.1950  142.7440 S   0  0  0  0  0  0  0  0  0  0  0  0
  193.6770  176.4200  144.7940 C   0  0  0  0  0  1  0  0  0  0  0  0
  192.3970  177.1850  144.5260 C   0  0  0  0  0  2  0  0  0  0  0  0
  1 11  2  0  0  0  0
  1  7  1  0  0  0  0
  2  3  2  0  0  0  0
  2 18  1  0  0  0  0
  3  1  1  0  0  0  0
  4 23  1  1  0  0  0
  4 15  1  0  0  0  0
  6  8  2  0  0  0  0
  6 10  1  0  0  0  0
  7  8  1  0  0  0  0
  8  5  1  0  0  0  0
  9 17  1  0  0  0  0
 11  6  1  0  0  0  0
 12 10  1  0  0  0  0
 13 14  1  6  0  0  0
 13  4  1  0  0  0  0
 13 22  1  0  0  0  0
 15 16  1  0  0  0  0
 15  9  1  0  0  0  0
 17 12  2  0  0  0  0
 18 25  1  0  0  0  0
 19 24  1  0  0  0  0
 19 17  1  0  0  0  0
 20 18  2  0  0  0  0
 21 15  1  0  0  0  0
 21 16  1  0  0  0  0
 22 19  2  0  0  0  0
 24 28  1  6  0  0  0
 24 11  1  0  0  0  0
 25  7  2  0  0  0  0
 26 27  1  0  0  0  0
 27  2  1  0  0  0  0
 29 28  1  0  0  0  0
 29 31  1  0  0  0  0
 31 30  1  0  0  0  0
M  END
>  <MODEL>
2

>  <REMARK>
 VINA RESULT:      -7.3      3.335      6.599
  Name = 
  4 active torsions:
  status: ('A' for Active; 'I' for Inactive)
    1  A    between atoms: C_2  and  O_26
    2  A    between atoms: S_5  and  C_6
    3  A    between atoms: S_5  and  C_27
    4  A    between atoms: C_6  and  C_30
                            x       y       z     vdW  Elec       q    Type
                         _______ _______ _______ _____ _____    ______ ____

>  <TORSDO>
F 4

$$$$
=
 OpenBabel11042414013D

 31 35  0  0  1  0  0  0  0  0999 V2000
  192.6930  173.8160  144.5080 C   0  0  0  0  0  0  0  0  0  0  0  0
  193.0050  171.4540  144.1210 C   0  0  0  0  0  0  0  0  0  0  0  0
  192.1920  172.4390  144.5560 C   0  0  0  0  0  3  0  0  0  0  0  0
  187.7760  176.0180  141.4740 C   0  0  1  0  0  3  0  0  0  0  0  0
  195.4720  176.4270  143.1550 Cl  0  0  0  0  0  0  0  0  0  0  0  0
  192.9910  176.0460  144.3190 C   0  0  0  0  0  0  0  0  0  0  0  0
  194.0000  174.0970  143.9650 C   0  0  0  0  0  0  0  0  0  0  0  0
  194.1350  175.5380  143.8610 C   0  0  0  0  0  0  0  0  0  0  0  0
  189.4230  177.7590  142.3450 O   0  0  0  0  0  0  0  0  0  0  0  0
  192.5760  177.4770  144.3410 C   0  0  0  0  0  2  0  0  0  0  0  0
  192.0960  174.9780  144.7540 C   0  0  1  0  0  3  0  0  0  0  0  0
  191.4570  177.7740  143.4340 N   0  0  0  0  0  0  0  0  0  0  0  0
  188.9710  175.0660  141.5230 C   0  0  2  0  0  3  0  0  0  0  0  0
  188.5350  173.5030  140.7900 Cl  0  0  0  0  0  0  0  0  0  0  0  0
  188.0740  177.3250  142.2010 C   0  0  0  0  0  0  0  0  0  0  0  0
  187.0550  178.4370  142.1040 C   0  0  0  0  0  2  0  0  0  0  0  0
  190.3550  177.1150  143.1730 C   0  0  0  0  0  0  0  0  0  0  0  0
  194.3610  171.7960  143.5900 C   0  0  0  0  0  0  0  0  0  0  0  0
  190.0600  175.7350  143.6940 C   0  0  0  0  0  0  0  0  0  0  0  0
  195.1320  170.8830  143.1970 O   0  0  0  0  0  0  0  0  0  0  0  0
  187.1910  177.6290  143.3900 C   0  0  0  0  0  2  0  0  0  0  0  0
  189.4480  174.8220  142.9220 C   0  0  0  0  0  3  0  0  0  0  0  0
  187.4550  176.2880  140.1420 O   0  0  0  0  0  1  0  0  0  0  0  0
  190.6530  175.2760  144.9950 C   0  0  1  0  0  3  0  0  0  0  0  0
  194.7840  173.1720  143.5050 N   0  0  0  0  0  2  0  0  0  0  0  0
  192.1840  169.4070  142.9900 C   0  0  0  0  0  1  0  0  0  0  0  0
  192.6030  170.1130  144.1500 O   0  0  0  0  0  0  0  0  0  0  0  0
  189.8730  174.1700  145.7090 C   0  0  0  0  0  2  0  0  0  0  0  0
  189.2570  174.7550  147.3180 S   0  0  0  0  0  0  0  0  0  0  0  0
  188.4030  177.3180  146.9020 C   0  0  0  0  0  1  0  0  0  0  0  0
  188.0500  175.8830  146.5620 C   0  0  0  0  0  2  0  0  0  0  0  0
  1  3  1  0  0  0  0
  1 11  1  0  0  0  0
  2 27  1  0  0  0  0
  2  3  2  0  0  0  0
  4 23  1  6  0  0  0
  4 13  1  0  0  0  0
  4 15  1  0  0  0  0
  5  8  1  0  0  0  0
  6 10  1  0  0  0  0
  7  1  2  0  0  0  0
  8  7  1  0  0  0  0
  8  6  2  0  0  0  0
  9 17  1  0  0  0  0
 11  6  1  6  0  0  0
 11 24  1  0  0  0  0
 12 10  1  0  0  0  0
 13 14  1  1  0  0  0
 13 22  1  0  0  0  0
 15  9  1  0  0  0  0
 15 21  1  0  0  0  0
 16 15  1  0  0  0  0
 16 21  1  0  0  0  0
 17 12  2  0  0  0  0
 17 19  1  0  0  0  0
 18  2  1  0  0  0  0
 19 24  1  0  0  0  0
 20 18  2  0  0  0  0
 22 19  2  0  0  0  0
 24 28  1  6  0  0  0
 25 18  1  0  0  0  0
 25  7  1  0  0  0  0
 26 27  1  0  0  0  0
 28 29  1  0  0  0  0
 31 30  1  0  0  0  0
 31 29  1  0  0  0  0
M  END
>  <MODEL>
3

>  <REMARK>
 VINA RESULT:      -6.3      2.966      3.964
  Name = 
  4 active torsions:
  status: ('A' for Active; 'I' for Inactive)
    1  A    between atoms: C_2  and  O_26
    2  A    between atoms: S_5  and  C_6
    3  A    between atoms: S_5  and  C_27
    4  A    between atoms: C_6  and  C_30
                            x       y       z     vdW  Elec       q    Type
                         _______ _______ _______ _____ _____    ______ ____

>  <TORSDO>
F 4

$$$$
=
 OpenBabel11042414013D

 31 35  0  0  1  0  0  0  0  0999 V2000
  191.5230  176.3600  144.0150 C   0  0  0  0  0  0  0  0  0  0  0  0
  189.5000  175.9820  142.7540 C   0  0  0  0  0  0  0  0  0  0  0  0
  190.8470  176.0510  142.7510 C   0  0  0  0  0  3  0  0  0  0  0  0
  195.3670  171.5270  143.7090 C   0  0  1  0  0  3  0  0  0  0  0  0
  191.3060  176.7220  148.0390 Cl  0  0  0  0  0  0  0  0  0  0  0  0
  192.9070  176.5170  145.7920 C   0  0  0  0  0  0  0  0  0  0  0  0
  190.7570  176.5350  145.2260 C   0  0  0  0  0  0  0  0  0  0  0  0
  191.6930  176.6250  146.3310 C   0  0  0  0  0  0  0  0  0  0  0  0
  195.8440  173.2190  145.5570 O   0  0  0  0  0  0  0  0  0  0  0  0
  194.2150  176.4520  146.5030 C   0  0  0  0  0  2  0  0  0  0  0  0
  192.8120  176.3820  144.3410 C   0  0  0  0  0  0  0  0  0  0  0  0
  194.8810  175.1470  146.3800 N   0  0  0  0  0  0  0  0  0  0  0  0
  193.9390  172.0670  143.7750 C   0  0  2  0  0  3  0  0  0  0  0  0
  192.8710  171.0920  142.7360 Cl  0  0  0  0  0  0  0  0  0  0  0  0
  196.3340  172.4110  144.4910 C   0  0  0  0  0  0  0  0  0  0  0  0
  197.7550  171.9270  144.6610 C   0  0  0  0  0  2  0  0  0  0  0  0
  195.0200  174.3370  145.3590 C   0  0  0  0  0  0  0  0  0  0  0  0
  188.7520  176.1950  144.0310 C   0  0  0  0  0  0  0  0  0  0  0  0
  194.3450  174.5400  144.0300 C   0  0  0  0  0  0  0  0  0  0  0  0
  187.4940  176.1490  144.0400 O   0  0  0  0  0  0  0  0  0  0  0  0
  197.4380  173.0500  143.6800 C   0  0  0  0  0  2  0  0  0  0  0  0
  193.8500  173.4980  143.3420 C   0  0  0  0  0  3  0  0  0  0  0  0
  195.3960  170.2310  144.2290 O   0  0  0  0  0  1  0  0  0  0  0  0
  194.0000  175.9240  143.5630 C   0  0  1  0  0  3  0  0  0  0  0  0
  189.4650  176.4350  145.2620 N   0  0  0  0  0  0  0  0  0  0  0  0
  188.6460  174.3950  141.0510 C   0  0  0  0  0  1  0  0  0  0  0  0
  188.7840  175.7060  141.5830 O   0  0  0  0  0  0  0  0  0  0  0  0
  193.8810  176.0860  142.0450 C   0  0  0  0  0  2  0  0  0  0  0  0
  195.5030  176.4590  141.3100 S   0  0  0  0  0  0  0  0  0  0  0  0
  193.8350  174.8010  139.9170 C   0  0  0  0  0  1  0  0  0  0  0  0
  195.2730  175.2800  139.9470 C   0  0  0  0  0  2  0  0  0  0  0  0
  1 11  2  0  0  0  0
  1  7  1  0  0  0  0
  2 18  1  0  0  0  0
  3  2  2  0  0  0  0
  3  1  1  0  0  0  0
  4 13  1  0  0  0  0
  4 23  1  1  0  0  0
  4 15  1  0  0  0  0
  6  8  2  0  0  0  0
  6 10  1  0  0  0  0
  7 25  2  0  0  0  0
  7  8  1  0  0  0  0
  8  5  1  0  0  0  0
 11  6  1  0  0  0  0
 12 10  1  0  0  0  0
 13 14  1  6  0  0  0
 15 16  1  0  0  0  0
 15  9  1  0  0  0  0
 17  9  1  0  0  0  0
 17 12  2  0  0  0  0
 18 20  2  0  0  0  0
 18 25  1  0  0  0  0
 19 17  1  0  0  0  0
 21 15  1  0  0  0  0
 21 16  1  0  0  0  0
 22 13  1  0  0  0  0
 22 19  2  0  0  0  0
 24 28  1  6  0  0  0
 24 19  1  0  0  0  0
 24 11  1  0  0  0  0
 26 27  1  0  0  0  0
 27  2  1  0  0  0  0
 29 28  1  0  0  0  0
 30 31  1  0  0  0  0
 31 29  1  0  0  0  0
M  END
>  <MODEL>
4

>  <REMARK>
 VINA RESULT:      -6.0      3.531      7.026
  Name = 
  4 active torsions:
  status: ('A' for Active; 'I' for Inactive)
    1  A    between atoms: C_2  and  O_26
    2  A    between atoms: S_5  and  C_6
    3  A    between atoms: S_5  and  C_27
    4  A    between atoms: C_6  and  C_30
                            x       y       z     vdW  Elec       q    Type
                         _______ _______ _______ _____ _____    ______ ____

>  <TORSDO>
F 4

$$$$
=
 OpenBabel11042414013D

 31 35  0  0  1  0  0  0  0  0999 V2000
  190.4290  174.4720  143.4700 C   0  0  0  0  0  0  0  0  0  0  0  0
  189.2950  176.3040  142.3820 C   0  0  0  0  0  0  0  0  0  0  0  0
  190.1700  175.9080  143.3300 C   0  0  0  0  0  3  0  0  0  0  0  0
  196.5770  175.0550  143.1550 C   0  0  1  0  0  3  0  0  0  0  0  0
  190.0850  170.7420  141.9390 Cl  0  0  0  0  0  0  0  0  0  0  0  0
  191.2950  172.4110  143.7860 C   0  0  0  0  0  0  0  0  0  0  0  0
  189.7970  173.5280  142.5810 C   0  0  0  0  0  0  0  0  0  0  0  0
  190.3920  172.2260  142.8230 C   0  0  0  0  0  0  0  0  0  0  0  0
  195.7050  172.7440  143.7910 O   0  0  0  0  0  0  0  0  0  0  0  0
  192.2520  171.4110  144.3380 C   0  0  0  0  0  2  0  0  0  0  0  0
  191.3030  173.8050  144.2180 C   0  0  1  0  0  3  0  0  0  0  0  0
  193.6560  171.7090  144.0190 N   0  0  0  0  0  0  0  0  0  0  0  0
  195.2060  175.2410  142.5070 C   0  0  2  0  0  3  0  0  0  0  0  0
  195.1640  176.7710  141.5980 Cl  0  0  0  0  0  0  0  0  0  0  0  0
  196.6110  173.8140  144.0420 C   0  0  0  0  0  0  0  0  0  0  0  0
  197.9410  173.3980  144.6250 C   0  0  0  0  0  2  0  0  0  0  0  0
  194.3230  172.8370  144.0160 C   0  0  0  0  0  0  0  0  0  0  0  0
  188.6480  175.2820  141.5020 C   0  0  0  0  0  0  0  0  0  0  0  0
  193.6900  174.1860  144.2210 C   0  0  0  0  0  0  0  0  0  0  0  0
  187.8180  175.6410  140.6260 O   0  0  0  0  0  0  0  0  0  0  0  0
  196.8910  174.0640  145.5060 C   0  0  0  0  0  2  0  0  0  0  0  0
  194.0960  175.2540  143.5140 C   0  0  0  0  0  3  0  0  0  0  0  0
  197.5470  174.9410  142.1570 O   0  0  0  0  0  1  0  0  0  0  0  0
  192.4390  174.3160  145.0410 C   0  0  1  0  0  3  0  0  0  0  0  0
  188.9830  173.8860  141.6380 N   0  0  0  0  0  2  0  0  0  0  0  0
  187.6970  178.1980  142.4620 C   0  0  0  0  0  1  0  0  0  0  0  0
  188.9850  177.6570  142.1980 O   0  0  0  0  0  0  0  0  0  0  0  0
  192.2160  175.6930  145.6700 C   0  0  0  0  0  2  0  0  0  0  0  0
  191.6300  175.5300  147.3840 S   0  0  0  0  0  0  0  0  0  0  0  0
  189.0160  174.7430  147.2610 C   0  0  0  0  0  1  0  0  0  0  0  0
  189.9120  175.9240  146.9460 C   0  0  0  0  0  2  0  0  0  0  0  0
  2  3  2  0  0  0  0
  3  1  1  0  0  0  0
  4 23  1  6  0  0  0
  4 15  1  0  0  0  0
  5  8  1  0  0  0  0
  6 11  1  0  0  0  0
  6 10  1  0  0  0  0
  7  8  1  0  0  0  0
  7  1  2  0  0  0  0
  8  6  2  0  0  0  0
  9 17  1  0  0  0  0
  9 15  1  0  0  0  0
 11  1  1  6  0  0  0
 11 24  1  0  0  0  0
 12 10  1  0  0  0  0
 13 14  1  1  0  0  0
 13  4  1  0  0  0  0
 13 22  1  0  0  0  0
 15 16  1  0  0  0  0
 15 21  1  0  0  0  0
 16 21  1  0  0  0  0
 17 12  2  0  0  0  0
 17 19  1  0  0  0  0
 18 25  1  0  0  0  0
 18  2  1  0  0  0  0
 19 24  1  0  0  0  0
 20 18  2  0  0  0  0
 22 19  2  0  0  0  0
 24 28  1  6  0  0  0
 25  7  1  0  0  0  0
 27  2  1  0  0  0  0
 27 26  1  0  0  0  0
 28 29  1  0  0  0  0
 31 30  1  0  0  0  0
 31 29  1  0  0  0  0
M  END
>  <MODEL>
5

>  <REMARK>
 VINA RESULT:      -6.0      3.398      7.140
  Name = 
  4 active torsions:
  status: ('A' for Active; 'I' for Inactive)
    1  A    between atoms: C_2  and  O_26
    2  A    between atoms: S_5  and  C_6
    3  A    between atoms: S_5  and  C_27
    4  A    between atoms: C_6  and  C_30
                            x       y       z     vdW  Elec       q    Type
                         _______ _______ _______ _____ _____    ______ ____

>  <TORSDO>
F 4

$$$$
=
 OpenBabel11042414013D

 31 35  0  0  1  0  0  0  0  0999 V2000
  190.0000  173.2950  142.7250 C   0  0  0  0  0  0  0  0  0  0  0  0
  188.7490  174.7480  141.2610 C   0  0  0  0  0  0  0  0  0  0  0  0
  189.4630  174.6180  142.3970 C   0  0  0  0  0  3  0  0  0  0  0  0
  195.7790  175.3170  143.5900 C   0  0  1  0  0  3  0  0  0  0  0  0
  190.8410  169.5230  141.5240 Cl  0  0  0  0  0  0  0  0  0  0  0  0
  191.2160  171.5180  143.4050 C   0  0  0  0  0  0  0  0  0  0  0  0
  189.8040  172.1860  141.8230 C   0  0  0  0  0  0  0  0  0  0  0  0
  190.6090  171.0770  142.3040 C   0  0  0  0  0  0  0  0  0  0  0  0
  195.3310  172.8980  144.2590 O   0  0  0  0  0  0  0  0  0  0  0  0
  192.2300  170.8030  144.2320 C   0  0  0  0  0  2  0  0  0  0  0  0
  190.8180  172.8920  143.6940 C   0  0  1  0  0  3  0  0  0  0  0  0
  193.5660  171.4140  144.1730 N   0  0  0  0  0  0  0  0  0  0  0  0
  194.5750  175.1390  142.6660 C   0  0  2  0  0  3  0  0  0  0  0  0
  194.3900  176.5700  141.6240 Cl  0  0  0  0  0  0  0  0  0  0  0  0
  195.8970  174.1640  144.5820 C   0  0  0  0  0  0  0  0  0  0  0  0
  197.1280  174.1070  145.4570 C   0  0  0  0  0  2  0  0  0  0  0  0
  193.9480  172.6670  144.1930 C   0  0  0  0  0  0  0  0  0  0  0  0
  188.5530  173.5610  140.3720 C   0  0  0  0  0  0  0  0  0  0  0  0
  193.0000  173.8340  144.1360 C   0  0  0  0  0  0  0  0  0  0  0  0
  187.8750  173.6680  139.3170 O   0  0  0  0  0  0  0  0  0  0  0  0
  195.7890  174.5430  146.0410 C   0  0  0  0  0  2  0  0  0  0  0  0
  193.3000  174.9330  143.4250 C   0  0  0  0  0  3  0  0  0  0  0  0
  196.9430  175.3920  142.8220 O   0  0  0  0  0  1  0  0  0  0  0  0
  191.6040  173.6980  144.6730 C   0  0  1  0  0  3  0  0  0  0  0  0
  189.1550  172.2940  140.7060 N   0  0  0  0  0  2  0  0  0  0  0  0
  187.3680  176.7470  141.7540 C   0  0  0  0  0  1  0  0  0  0  0  0
  188.1910  175.9770  140.8880 O   0  0  0  0  0  0  0  0  0  0  0  0
  190.9470  175.0100  145.1080 C   0  0  0  0  0  2  0  0  0  0  0  0
  189.6210  174.6950  146.3130 S   0  0  0  0  0  0  0  0  0  0  0  0
  189.7080  177.1520  145.1190 C   0  0  0  0  0  1  0  0  0  0  0  0
  188.8350  176.3080  146.0260 C   0  0  0  0  0  2  0  0  0  0  0  0
  2  3  2  0  0  0  0
  3  1  1  0  0  0  0
  4 23  1  6  0  0  0
  4 15  1  0  0  0  0
  5  8  1  0  0  0  0
  6 11  1  0  0  0  0
  6 10  1  0  0  0  0
  7  8  1  0  0  0  0
  7  1  2  0  0  0  0
  8  6  2  0  0  0  0
  9 15  1  0  0  0  0
 11  1  1  6  0  0  0
 11 24  1  0  0  0  0
 12 17  2  0  0  0  0
 12 10  1  0  0  0  0
 13 14  1  1  0  0  0
 13 22  1  0  0  0  0
 13  4  1  0  0  0  0
 15 16  1  0  0  0  0
 15 21  1  0  0  0  0
 16 21  1  0  0  0  0
 17  9  1  0  0  0  0
 18 25  1  0  0  0  0
 18  2  1  0  0  0  0
 19 17  1  0  0  0  0
 19 24  1  0  0  0  0
 20 18  2  0  0  0  0
 22 19  2  0  0  0  0
 24 28  1  6  0  0  0
 25  7  1  0  0  0  0
 27  2  1  0  0  0  0
 27 26  1  0  0  0  0
 28 29  1  0  0  0  0
 30 31  1  0  0  0  0
 31 29  1  0  0  0  0
M  END
>  <MODEL>
6

>  <REMARK>
 VINA RESULT:      -5.9      3.447      6.930
  Name = 
  4 active torsions:
  status: ('A' for Active; 'I' for Inactive)
    1  A    between atoms: C_2  and  O_26
    2  A    between atoms: S_5  and  C_6
    3  A    between atoms: S_5  and  C_27
    4  A    between atoms: C_6  and  C_30
                            x       y       z     vdW  Elec       q    Type
                         _______ _______ _______ _____ _____    ______ ____

>  <TORSDO>
F 4

$$$$
=
 OpenBabel11042414013D

 31 35  0  0  1  0  0  0  0  0999 V2000
  187.8270  175.7240  142.4740 C   0  0  0  0  0  0  0  0  0  0  0  0
  186.5880  177.7890  142.3230 C   0  0  0  0  0  0  0  0  0  0  0  0
  187.2510  176.9140  143.1060 C   0  0  0  0  0  3  0  0  0  0  0  0
  193.4660  176.5880  144.8600 C   0  0  1  0  0  3  0  0  0  0  0  0
  188.8840  173.7970  139.0770 Cl  0  0  0  0  0  0  0  0  0  0  0  0
  189.0820  173.9600  141.8320 C   0  0  0  0  0  0  0  0  0  0  0  0
  187.7220  175.5350  141.0480 C   0  0  0  0  0  0  0  0  0  0  0  0
  188.5490  174.3960  140.6910 C   0  0  0  0  0  0  0  0  0  0  0  0
  193.0870  174.3690  143.6630 O   0  0  0  0  0  0  0  0  0  0  0  0
  190.0830  172.8700  142.0100 C   0  0  0  0  0  2  0  0  0  0  0  0
  188.6130  174.7650  142.9560 C   0  0  1  0  0  3  0  0  0  0  0  0
  191.3940  173.3520  142.4710 N   0  0  0  0  0  0  0  0  0  0  0  0
  192.3170  177.0950  143.9890 C   0  0  2  0  0  3  0  0  0  0  0  0
  192.1230  178.8520  144.1980 Cl  0  0  0  0  0  0  0  0  0  0  0  0
  193.5830  175.0680  144.8000 C   0  0  0  0  0  0  0  0  0  0  0  0
  194.7710  174.4240  145.4760 C   0  0  0  0  0  2  0  0  0  0  0  0
  191.7210  174.2500  143.3680 C   0  0  0  0  0  0  0  0  0  0  0  0
  186.4870  177.5340  140.8520 C   0  0  0  0  0  0  0  0  0  0  0  0
  190.7280  175.1410  144.0630 C   0  0  0  0  0  0  0  0  0  0  0  0
  185.8580  178.3370  140.1150 O   0  0  0  0  0  0  0  0  0  0  0  0
  193.3880  174.3450  146.1130 C   0  0  0  0  0  2  0  0  0  0  0  0
  191.0160  176.4280  144.3170 C   0  0  0  0  0  3  0  0  0  0  0  0
  194.6620  177.1660  144.4280 O   0  0  0  0  0  1  0  0  0  0  0  0
  189.3150  174.6790  144.2700 C   0  0  1  0  0  3  0  0  0  0  0  0
  187.1250  176.3810  140.2680 N   0  0  0  0  0  2  0  0  0  0  0  0
  185.9110  179.1900  144.2530 C   0  0  0  0  0  1  0  0  0  0  0  0
  185.9980  178.9420  142.8560 O   0  0  0  0  0  0  0  0  0  0  0  0
  188.5820  175.3380  145.4410 C   0  0  0  0  0  2  0  0  0  0  0  0
  189.3780  174.9110  147.0200 S   0  0  0  0  0  0  0  0  0  0  0  0
  188.5710  177.5140  146.8130 C   0  0  0  0  0  1  0  0  0  0  0  0
  189.6150  176.6490  147.4910 C   0  0  0  0  0  2  0  0  0  0  0  0
  1 11  1  0  0  0  0
  1  3  1  0  0  0  0
  2 27  1  0  0  0  0
  2  3  2  0  0  0  0
  4 23  1  6  0  0  0
  5  8  1  0  0  0  0
  6 10  1  0  0  0  0
  7  1  2  0  0  0  0
  8  7  1  0  0  0  0
  8  6  2  0  0  0  0
  9 15  1  0  0  0  0
 10 12  1  0  0  0  0
 11  6  1  6  0  0  0
 11 24  1  0  0  0  0
 12 17  2  0  0  0  0
 13 14  1  1  0  0  0
 13 22  1  0  0  0  0
 13  4  1  0  0  0  0
 15  4  1  0  0  0  0
 15 16  1  0  0  0  0
 15 21  1  0  0  0  0
 16 21  1  0  0  0  0
 17  9  1  0  0  0  0
 17 19  1  0  0  0  0
 18  2  1  0  0  0  0
 19 24  1  0  0  0  0
 19 22  2  0  0  0  0
 20 18  2  0  0  0  0
 24 28  1  1  0  0  0
 25 18  1  0  0  0  0
 25  7  1  0  0  0  0
 27 26  1  0  0  0  0
 28 29  1  0  0  0  0
 29 31  1  0  0  0  0
 30 31  1  0  0  0  0
M  END
>  <MODEL>
7

>  <REMARK>
 VINA RESULT:      -5.9      2.795      6.656
  Name = 
  4 active torsions:
  status: ('A' for Active; 'I' for Inactive)
    1  A    between atoms: C_2  and  O_26
    2  A    between atoms: S_5  and  C_6
    3  A    between atoms: S_5  and  C_27
    4  A    between atoms: C_6  and  C_30
                            x       y       z     vdW  Elec       q    Type
                         _______ _______ _______ _____ _____    ______ ____

>  <TORSDO>
F 4

$$$$
=
 OpenBabel11042414013D

 31 35  0  0  1  0  0  0  0  0999 V2000
  190.9840  176.9060  144.0670 C   0  0  0  0  0  0  0  0  0  0  0  0
  188.9960  177.4620  142.8170 C   0  0  0  0  0  0  0  0  0  0  0  0
  190.2730  177.0310  142.7910 C   0  0  0  0  0  3  0  0  0  0  0  0
  192.7910  171.0810  143.0500 C   0  0  1  0  0  3  0  0  0  0  0  0
  190.8160  176.8030  148.1080 Cl  0  0  0  0  0  0  0  0  0  0  0  0
  192.2850  176.3150  145.8150 C   0  0  0  0  0  0  0  0  0  0  0  0
  190.3060  177.1930  145.3080 C   0  0  0  0  0  0  0  0  0  0  0  0
  191.1830  176.7910  146.3930 C   0  0  0  0  0  0  0  0  0  0  0  0
  193.8100  172.2280  145.0880 O   0  0  0  0  0  0  0  0  0  0  0  0
  193.4600  175.6830  146.4790 C   0  0  0  0  0  2  0  0  0  0  0  0
  192.1830  176.4110  144.3620 C   0  0  0  0  0  0  0  0  0  0  0  0
  193.6030  174.2520  146.1740 N   0  0  0  0  0  0  0  0  0  0  0  0
  191.6600  172.0940  143.2200 C   0  0  2  0  0  3  0  0  0  0  0  0
  190.3350  171.7210  142.0910 Cl  0  0  0  0  0  0  0  0  0  0  0  0
  193.9950  171.4400  143.9150 C   0  0  0  0  0  0  0  0  0  0  0  0
  195.1350  170.4500  143.9870 C   0  0  0  0  0  2  0  0  0  0  0  0
  193.4600  173.5850  145.0550 C   0  0  0  0  0  0  0  0  0  0  0  0
  188.3470  177.7700  144.1290 C   0  0  0  0  0  0  0  0  0  0  0  0
  192.9390  174.1910  143.7800 C   0  0  0  0  0  0  0  0  0  0  0  0
  187.1600  178.1880  144.1630 O   0  0  0  0  0  0  0  0  0  0  0  0
  195.2770  171.7270  143.1670 C   0  0  0  0  0  2  0  0  0  0  0  0
  192.1130  173.5010  142.9760 C   0  0  0  0  0  3  0  0  0  0  0  0
  192.3290  169.8100  143.3990 O   0  0  0  0  0  1  0  0  0  0  0  0
  193.1380  175.6530  143.5020 C   0  0  1  0  0  3  0  0  0  0  0  0
  189.0670  177.5710  145.3620 N   0  0  0  0  0  0  0  0  0  0  0  0
  187.4420  176.5930  141.0910 C   0  0  0  0  0  1  0  0  0  0  0  0
  188.2570  177.6210  141.6380 O   0  0  0  0  0  0  0  0  0  0  0  0
  193.1250  176.0390  142.0210 C   0  0  0  0  0  2  0  0  0  0  0  0
  194.8030  175.9640  141.3220 S   0  0  0  0  0  0  0  0  0  0  0  0
  196.7350  175.4660  143.1900 C   0  0  0  0  0  1  0  0  0  0  0  0
  195.5910  176.4160  142.8960 C   0  0  0  0  0  2  0  0  0  0  0  0
  1 11  2  0  0  0  0
  1  7  1  0  0  0  0
  2 18  1  0  0  0  0
  3  2  2  0  0  0  0
  3  1  1  0  0  0  0
  4 13  1  0  0  0  0
  4 23  1  1  0  0  0
  4 15  1  0  0  0  0
  6  8  2  0  0  0  0
  6 10  1  0  0  0  0
  7 25  2  0  0  0  0
  7  8  1  0  0  0  0
  8  5  1  0  0  0  0
 11  6  1  0  0  0  0
 12 10  1  0  0  0  0
 13 14  1  6  0  0  0
 15 16  1  0  0  0  0
 15  9  1  0  0  0  0
 17  9  1  0  0  0  0
 17 12  2  0  0  0  0
 18 20  2  0  0  0  0
 18 25  1  0  0  0  0
 19 17  1  0  0  0  0
 21 15  1  0  0  0  0
 21 16  1  0  0  0  0
 22 13  1  0  0  0  0
 22 19  2  0  0  0  0
 24 28  1  6  0  0  0
 24 19  1  0  0  0  0
 24 11  1  0  0  0  0
 26 27  1  0  0  0  0
 27  2  1  0  0  0  0
 29 28  1  0  0  0  0
 29 31  1  0  0  0  0
 31 30  1  0  0  0  0
M  END
>  <MODEL>
8

>  <REMARK>
 VINA RESULT:      -5.9      3.256      6.603
  Name = 
  4 active torsions:
  status: ('A' for Active; 'I' for Inactive)
    1  A    between atoms: C_2  and  O_26
    2  A    between atoms: S_5  and  C_6
    3  A    between atoms: S_5  and  C_27
    4  A    between atoms: C_6  and  C_30
                            x       y       z     vdW  Elec       q    Type
                         _______ _______ _______ _____ _____    ______ ____

>  <TORSDO>
F 4

$$$$
=
 OpenBabel11042414013D

 31 35  0  0  1  0  0  0  0  0999 V2000
  193.3830  172.6570  143.5270 C   0  0  0  0  0  0  0  0  0  0  0  0
  195.0360  171.9600  145.1410 C   0  0  0  0  0  0  0  0  0  0  0  0
  194.4370  172.9800  144.4930 C   0  0  0  0  0  3  0  0  0  0  0  0
  189.2580  176.5500  145.9900 C   0  0  1  0  0  3  0  0  0  0  0  0
  190.8180  169.9190  142.0120 Cl  0  0  0  0  0  0  0  0  0  0  0  0
  191.5500  172.5800  142.2110 C   0  0  0  0  0  0  0  0  0  0  0  0
  192.9770  171.2880  143.3230 C   0  0  0  0  0  0  0  0  0  0  0  0
  191.7970  171.2980  142.4780 C   0  0  0  0  0  0  0  0  0  0  0  0
  188.6050  175.4920  143.7630 O   0  0  0  0  0  0  0  0  0  0  0  0
  190.3930  173.1460  141.4610 C   0  0  0  0  0  2  0  0  0  0  0  0
  192.5540  173.4350  142.8370 C   0  0  0  0  0  0  0  0  0  0  0  0
  189.4830  173.9370  142.3020 N   0  0  0  0  0  0  0  0  0  0  0  0
  190.1680  175.3320  146.1430 C   0  0  2  0  0  3  0  0  0  0  0  0
  190.9000  175.3190  147.7650 Cl  0  0  0  0  0  0  0  0  0  0  0  0
  188.7080  176.6600  144.5710 C   0  0  0  0  0  0  0  0  0  0  0  0
  187.6620  177.7170  144.2980 C   0  0  0  0  0  2  0  0  0  0  0  0
  189.7190  174.8100  143.2520 C   0  0  0  0  0  0  0  0  0  0  0  0
  194.5950  170.5560  144.8750 C   0  0  0  0  0  0  0  0  0  0  0  0
  191.0870  175.0920  143.8100 C   0  0  0  0  0  0  0  0  0  0  0  0
  195.1590  169.5960  145.4630 O   0  0  0  0  0  0  0  0  0  0  0  0
  189.0950  177.9110  143.8150 C   0  0  0  0  0  2  0  0  0  0  0  0
  191.2650  175.3090  145.1230 C   0  0  0  0  0  3  0  0  0  0  0  0
  188.1980  176.4510  146.8940 O   0  0  0  0  0  1  0  0  0  0  0  0
  192.3050  174.9020  142.9530 C   0  0  1  0  0  3  0  0  0  0  0  0
  193.5100  170.2930  143.9620 N   0  0  0  0  0  0  0  0  0  0  0  0
  196.8180  173.3910  146.1020 C   0  0  0  0  0  1  0  0  0  0  0  0
  196.0620  172.1880  146.0670 O   0  0  0  0  0  0  0  0  0  0  0  0
  193.5220  175.7350  143.3620 C   0  0  0  0  0  2  0  0  0  0  0  0
  194.6090  176.0310  141.9340 S   0  0  0  0  0  0  0  0  0  0  0  0
  195.6380  176.5220  144.4180 C   0  0  0  0  0  1  0  0  0  0  0  0
  196.0650  176.3460  142.9740 C   0  0  0  0  0  2  0  0  0  0  0  0
  1  3  1  0  0  0  0
  2 27  1  0  0  0  0
  3  2  2  0  0  0  0
  4 13  1  0  0  0  0
  4 23  1  1  0  0  0
  5  8  1  0  0  0  0
  6  8  2  0  0  0  0
  6 11  1  0  0  0  0
  7  1  1  0  0  0  0
  7 25  2  0  0  0  0
  8  7  1  0  0  0  0
  9 15  1  0  0  0  0
 10  6  1  0  0  0  0
 10 12  1  0  0  0  0
 11 24  1  0  0  0  0
 11  1  2  0  0  0  0
 12 17  2  0  0  0  0
 13 14  1  1  0  0  0
 15  4  1  0  0  0  0
 16 15  1  0  0  0  0
 17  9  1  0  0  0  0
 17 19  1  0  0  0  0
 18  2  1  0  0  0  0
 18 20  2  0  0  0  0
 19 22  2  0  0  0  0
 21 16  1  0  0  0  0
 21 15  1  0  0  0  0
 22 13  1  0  0  0  0
 24 28  1  1  0  0  0
 24 19  1  0  0  0  0
 25 18  1  0  0  0  0
 27 26  1  0  0  0  0
 29 31  1  0  0  0  0
 29 28  1  0  0  0  0
 31 30  1  0  0  0  0
M  END
>  <MODEL>
9

>  <REMARK>
 VINA RESULT:      -5.9      3.744      5.469
  Name = 
  4 active torsions:
  status: ('A' for Active; 'I' for Inactive)
    1  A    between atoms: C_2  and  O_26
    2  A    between atoms: S_5  and  C_6
    3  A    between atoms: S_5  and  C_27
    4  A    between atoms: C_6  and  C_30
                            x       y       z     vdW  Elec       q    Type
                         _______ _______ _______ _____ _____    ______ ____

>  <TORSDO>
F 4

$$$$
