=
 OpenBabel11042414223D

 27 30  0  0  1  0  0  0  0  0999 V2000
  192.1280  174.4850  142.5910 F   0  0  0  0  0  0  0  0  0  0  0  0
  191.8580  175.5260  146.1670 C   0  0  2  0  0  3  0  0  0  0  0  0
  190.2680  175.6270  144.4290 N   0  0  0  0  0  0  0  0  0  0  0  0
  187.4350  175.7390  143.5130 N   0  0  0  0  0  2  0  0  0  0  0  0
  189.0710  174.0050  140.6810 C   0  0  0  0  0  3  0  0  0  0  0  0
  190.2120  176.6250  147.5550 O   0  0  0  0  0  1  0  0  0  0  0  0
  187.3990  176.4190  144.7780 C   0  0  0  0  0  0  0  0  0  0  0  0
  189.4990  175.3230  145.6190 C   0  0  2  0  0  3  0  0  0  0  0  0
  189.8600  175.1220  143.1450 C   0  0  0  0  0  0  0  0  0  0  0  0
  191.6360  175.9970  144.7470 C   0  0  0  0  0  2  0  0  0  0  0  0
  188.3290  176.2420  145.7190 C   0  0  0  0  0  3  0  0  0  0  0  0
  188.1240  174.5630  141.5340 C   0  0  0  0  0  3  0  0  0  0  0  0
  190.4670  175.4660  146.8060 C   0  0  1  0  0  3  0  0  0  0  0  0
  190.8130  174.5530  142.2640 C   0  0  0  0  0  0  0  0  0  0  0  0
  188.4930  175.1210  142.7630 C   0  0  0  0  0  0  0  0  0  0  0  0
  191.3290  173.4520  140.2090 F   0  0  0  0  0  0  0  0  0  0  0  0
  190.4130  174.0030  141.0420 C   0  0  0  0  0  0  0  0  0  0  0  0
  186.2690  177.3430  145.0680 C   0  0  0  0  0  0  0  0  0  0  0  0
  184.1820  179.0400  145.6890 N   0  0  0  0  0  0  0  0  0  0  0  0
  185.4890  177.1320  146.2120 C   0  0  0  0  0  3  0  0  0  0  0  0
  184.9070  179.2560  144.5910 N   0  0  0  0  0  0  0  0  0  0  0  0
  185.9450  178.4480  144.2460 C   0  0  0  0  0  0  0  0  0  0  0  0
  184.4410  177.9960  146.5130 C   0  0  0  0  0  3  0  0  0  0  0  0
  186.6650  178.7410  142.9730 C   0  0  0  0  0  1  0  0  0  0  0  0
  192.8660  176.4150  146.8900 C   0  0  0  0  0  2  0  0  0  0  0  0
  194.2570  176.2580  146.2970 C   0  0  0  0  0  2  0  0  0  0  0  0
  194.7230  177.5310  145.7760 N   0  0  0  0  0  1  0  0  0  0  0  0
  2 13  1  0  0  0  0
  2 25  1  1  0  0  0
  3 10  1  0  0  0  0
  3  8  1  0  0  0  0
  4  7  1  0  0  0  0
  5 17  2  0  0  0  0
  5 12  1  0  0  0  0
  7 18  1  0  0  0  0
  7 11  2  0  0  0  0
  8 11  1  1  0  0  0
  8 13  1  0  0  0  0
  9  3  1  0  0  0  0
 10  2  1  0  0  0  0
 12 15  2  0  0  0  0
 13  6  1  6  0  0  0
 14  1  1  0  0  0  0
 14  9  2  0  0  0  0
 15  9  1  0  0  0  0
 15  4  1  0  0  0  0
 16 17  1  0  0  0  0
 17 14  1  0  0  0  0
 18 20  1  0  0  0  0
 19 23  1  0  0  0  0
 20 23  2  0  0  0  0
 21 19  2  0  0  0  0
 22 21  1  0  0  0  0
 22 18  2  0  0  0  0
 24 22  1  0  0  0  0
 26 25  1  0  0  0  0
 27 26  1  0  0  0  0
M  END
>  <MODEL>
1

>  <REMARK>
 VINA RESULT:      -7.5      0.000      0.000
  Name = 
  3 active torsions:
  status: ('A' for Active; 'I' for Inactive)
    1  A    between atoms: C_1  and  C_17
    2  A    between atoms: C_3  and  C_9
    3  A    between atoms: C_4  and  C_17
                            x       y       z     vdW  Elec       q    Type
                         _______ _______ _______ _____ _____    ______ ____

>  <TORSDO>
F 3

$$$$
=
 OpenBabel11042414223D

 27 30  0  0  1  0  0  0  0  0999 V2000
  186.9240  177.7300  147.6950 F   0  0  0  0  0  0  0  0  0  0  0  0
  190.2250  177.1660  146.0440 C   0  0  2  0  0  3  0  0  0  0  0  0
  188.0580  177.2590  145.1200 N   0  0  0  0  0  0  0  0  0  0  0  0
  186.2500  177.7220  142.7980 N   0  0  0  0  0  2  0  0  0  0  0  0
  184.0920  178.7130  145.6370 C   0  0  0  0  0  3  0  0  0  0  0  0
  191.0060  176.6390  143.8180 O   0  0  0  0  0  1  0  0  0  0  0  0
  187.4450  177.2080  142.1880 C   0  0  0  0  0  0  0  0  0  0  0  0
  188.9150  177.8600  144.1180 C   0  0  2  0  0  3  0  0  0  0  0  0
  186.7010  177.7080  145.2860 C   0  0  0  0  0  0  0  0  0  0  0  0
  188.8230  176.6140  146.1720 C   0  0  0  0  0  2  0  0  0  0  0  0
  188.6380  177.2580  142.7830 C   0  0  0  0  0  3  0  0  0  0  0  0
  184.5910  178.4880  144.3590 C   0  0  0  0  0  3  0  0  0  0  0  0
  190.3610  177.6190  144.5870 C   0  0  1  0  0  3  0  0  0  0  0  0
  186.1770  177.9400  146.5830 C   0  0  0  0  0  0  0  0  0  0  0  0
  185.8840  177.9910  144.1610 C   0  0  0  0  0  0  0  0  0  0  0  0
  184.3900  178.6650  147.9910 F   0  0  0  0  0  0  0  0  0  0  0  0
  184.8810  178.4370  146.7480 C   0  0  0  0  0  0  0  0  0  0  0  0
  187.3590  176.6110  140.8270 C   0  0  0  0  0  0  0  0  0  0  0  0
  187.1950  175.5850  138.2690 N   0  0  0  0  0  0  0  0  0  0  0  0
  186.7040  177.3190  139.8100 C   0  0  0  0  0  3  0  0  0  0  0  0
  187.8170  174.8920  139.2220 N   0  0  0  0  0  0  0  0  0  0  0  0
  187.9230  175.3570  140.4960 C   0  0  0  0  0  0  0  0  0  0  0  0
  186.6310  176.7910  138.5250 C   0  0  0  0  0  3  0  0  0  0  0  0
  188.5930  174.4870  141.5040 C   0  0  0  0  0  1  0  0  0  0  0  0
  191.2620  176.1450  146.5050 C   0  0  0  0  0  2  0  0  0  0  0  0
  191.1960  175.9400  148.0100 C   0  0  0  0  0  2  0  0  0  0  0  0
  191.5670  177.1660  148.6960 N   0  0  0  0  0  1  0  0  0  0  0  0
  2 10  1  0  0  0  0
  2 25  1  6  0  0  0
  3  9  1  0  0  0  0
  3 10  1  0  0  0  0
  4 15  1  0  0  0  0
  5 17  1  0  0  0  0
  7 11  2  0  0  0  0
  7  4  1  0  0  0  0
  8 11  1  6  0  0  0
  8 13  1  0  0  0  0
  8  3  1  0  0  0  0
  9 14  1  0  0  0  0
 12  5  2  0  0  0  0
 13  6  1  6  0  0  0
 13  2  1  0  0  0  0
 14 17  2  0  0  0  0
 14  1  1  0  0  0  0
 15 12  1  0  0  0  0
 15  9  2  0  0  0  0
 17 16  1  0  0  0  0
 18  7  1  0  0  0  0
 19 23  2  0  0  0  0
 19 21  1  0  0  0  0
 20 18  2  0  0  0  0
 21 22  2  0  0  0  0
 22 18  1  0  0  0  0
 22 24  1  0  0  0  0
 23 20  1  0  0  0  0
 25 26  1  0  0  0  0
 26 27  1  0  0  0  0
M  END
>  <MODEL>
2

>  <REMARK>
 VINA RESULT:      -7.4      3.479      5.804
  Name = 
  3 active torsions:
  status: ('A' for Active; 'I' for Inactive)
    1  A    between atoms: C_1  and  C_17
    2  A    between atoms: C_3  and  C_9
    3  A    between atoms: C_4  and  C_17
                            x       y       z     vdW  Elec       q    Type
                         _______ _______ _______ _____ _____    ______ ____

>  <TORSDO>
F 3

$$$$
=
 OpenBabel11042414223D

 27 30  0  0  1  0  0  0  0  0999 V2000
  191.8410  173.7230  144.6910 F   0  0  0  0  0  0  0  0  0  0  0  0
  189.5420  174.1770  141.7850 C   0  0  2  0  0  3  0  0  0  0  0  0
  189.4920  175.1520  143.9310 N   0  0  0  0  0  0  0  0  0  0  0  0
  188.6600  177.3550  145.7570 N   0  0  0  0  0  2  0  0  0  0  0  0
  191.7930  176.2000  147.3540 C   0  0  0  0  0  3  0  0  0  0  0  0
  187.4750  175.3520  141.3500 O   0  0  0  0  0  1  0  0  0  0  0  0
  187.6040  177.3180  144.7830 C   0  0  0  0  0  0  0  0  0  0  0  0
  189.0220  176.1920  143.0390 C   0  0  2  0  0  3  0  0  0  0  0  0
  190.2380  175.4850  145.1150 C   0  0  0  0  0  0  0  0  0  0  0  0
  189.5790  173.8650  143.2640 C   0  0  0  0  0  2  0  0  0  0  0  0
  187.7610  176.7870  143.5690 C   0  0  0  0  0  3  0  0  0  0  0  0
  190.6480  176.9210  147.0370 C   0  0  0  0  0  3  0  0  0  0  0  0
  188.8300  175.5280  141.6640 C   0  0  1  0  0  3  0  0  0  0  0  0
  191.4060  174.7570  145.4540 C   0  0  0  0  0  0  0  0  0  0  0  0
  189.8620  176.5860  145.9290 C   0  0  0  0  0  0  0  0  0  0  0  0
  193.2920  174.4220  146.8800 F   0  0  0  0  0  0  0  0  0  0  0  0
  192.1710  175.1170  146.5680 C   0  0  0  0  0  0  0  0  0  0  0  0
  186.2850  177.9130  145.1280 C   0  0  0  0  0  0  0  0  0  0  0  0
  183.8190  179.0240  145.6850 N   0  0  0  0  0  0  0  0  0  0  0  0
  185.6680  178.7830  144.2190 C   0  0  0  0  0  3  0  0  0  0  0  0
  184.3910  178.2050  146.5670 N   0  0  0  0  0  0  0  0  0  0  0  0
  185.6030  177.6330  146.3360 C   0  0  0  0  0  0  0  0  0  0  0  0
  184.4250  179.3340  144.5120 C   0  0  0  0  0  3  0  0  0  0  0  0
  186.1840  176.7710  147.4050 C   0  0  0  0  0  1  0  0  0  0  0  0
  188.9020  173.0350  140.9980 C   0  0  0  0  0  2  0  0  0  0  0  0
  189.3800  173.0320  139.5550 C   0  0  0  0  0  2  0  0  0  0  0  0
  188.2410  173.0470  138.6540 N   0  0  0  0  0  1  0  0  0  0  0  0
  1 14  1  0  0  0  0
  2 25  1  6  0  0  0
  2 10  1  0  0  0  0
  3  9  1  0  0  0  0
  4 15  1  0  0  0  0
  7 18  1  0  0  0  0
  7  4  1  0  0  0  0
  8 11  1  1  0  0  0
  8  3  1  0  0  0  0
  9 14  2  0  0  0  0
  9 15  1  0  0  0  0
 10  3  1  0  0  0  0
 11  7  2  0  0  0  0
 12  5  1  0  0  0  0
 13  6  1  1  0  0  0
 13  2  1  0  0  0  0
 13  8  1  0  0  0  0
 14 17  1  0  0  0  0
 15 12  2  0  0  0  0
 17 16  1  0  0  0  0
 17  5  2  0  0  0  0
 18 22  1  0  0  0  0
 19 21  1  0  0  0  0
 20 23  1  0  0  0  0
 20 18  2  0  0  0  0
 22 21  2  0  0  0  0
 22 24  1  0  0  0  0
 23 19  2  0  0  0  0
 26 25  1  0  0  0  0
 27 26  1  0  0  0  0
M  END
>  <MODEL>
3

>  <REMARK>
 VINA RESULT:      -7.4      2.340      4.931
  Name = 
  3 active torsions:
  status: ('A' for Active; 'I' for Inactive)
    1  A    between atoms: C_1  and  C_17
    2  A    between atoms: C_3  and  C_9
    3  A    between atoms: C_4  and  C_17
                            x       y       z     vdW  Elec       q    Type
                         _______ _______ _______ _____ _____    ______ ____

>  <TORSDO>
F 3

$$$$
=
 OpenBabel11042414223D

 27 30  0  0  1  0  0  0  0  0999 V2000
  185.6010  176.6910  142.3250 F   0  0  0  0  0  0  0  0  0  0  0  0
  188.2030  174.2770  141.1650 C   0  0  2  0  0  3  0  0  0  0  0  0
  188.2430  175.8140  142.9520 N   0  0  0  0  0  0  0  0  0  0  0  0
  189.3130  176.6940  145.5900 N   0  0  0  0  0  2  0  0  0  0  0  0
  185.8820  178.0800  145.6730 C   0  0  0  0  0  3  0  0  0  0  0  0
  190.4900  173.7490  141.7450 O   0  0  0  0  0  1  0  0  0  0  0  0
  190.4270  176.0100  144.9940 C   0  0  0  0  0  0  0  0  0  0  0  0
  188.9860  174.6680  143.4330 C   0  0  2  0  0  3  0  0  0  0  0  0
  187.4690  176.6180  143.8600 C   0  0  0  0  0  0  0  0  0  0  0  0
  187.9690  175.7260  141.5280 C   0  0  0  0  0  2  0  0  0  0  0  0
  190.2830  175.1090  144.0190 C   0  0  0  0  0  3  0  0  0  0  0  0
  187.1700  177.6900  146.0250 C   0  0  0  0  0  3  0  0  0  0  0  0
  189.1710  173.7360  142.2220 C   0  0  1  0  0  3  0  0  0  0  0  0
  186.1560  177.0260  143.5160 C   0  0  0  0  0  0  0  0  0  0  0  0
  187.9740  176.9620  145.1420 C   0  0  0  0  0  0  0  0  0  0  0  0
  184.1180  178.1300  144.0870 F   0  0  0  0  0  0  0  0  0  0  0  0
  185.3760  177.7520  144.4210 C   0  0  0  0  0  0  0  0  0  0  0  0
  191.7990  176.2960  145.4940 C   0  0  0  0  0  0  0  0  0  0  0  0
  194.3520  176.8890  146.3620 N   0  0  0  0  0  0  0  0  0  0  0  0
  192.7430  176.8540  144.6210 C   0  0  0  0  0  3  0  0  0  0  0  0
  193.4730  176.3520  147.2080 N   0  0  0  0  0  0  0  0  0  0  0  0
  192.2040  176.0440  146.8260 C   0  0  0  0  0  0  0  0  0  0  0  0
  194.0250  177.1490  145.0730 C   0  0  0  0  0  3  0  0  0  0  0  0
  191.3090  175.4000  147.8290 C   0  0  0  0  0  1  0  0  0  0  0  0
  188.6790  174.1420  139.7210 C   0  0  0  0  0  2  0  0  0  0  0  0
  188.2670  172.8020  139.1330 C   0  0  0  0  0  2  0  0  0  0  0  0
  189.4370  171.9660  138.9290 N   0  0  0  0  0  1  0  0  0  0  0  0
  1 14  1  0  0  0  0
  2 25  1  6  0  0  0
  2 10  1  0  0  0  0
  2 13  1  0  0  0  0
  3  8  1  0  0  0  0
  3  9  1  0  0  0  0
  5 12  1  0  0  0  0
  7 18  1  0  0  0  0
  7  4  1  0  0  0  0
  8 11  1  6  0  0  0
  9 15  1  0  0  0  0
 10  3  1  0  0  0  0
 11  7  2  0  0  0  0
 13  6  1  6  0  0  0
 13  8  1  0  0  0  0
 14  9  2  0  0  0  0
 14 17  1  0  0  0  0
 15  4  1  0  0  0  0
 15 12  2  0  0  0  0
 16 17  1  0  0  0  0
 17  5  2  0  0  0  0
 18 22  1  0  0  0  0
 19 21  1  0  0  0  0
 20 23  1  0  0  0  0
 20 18  2  0  0  0  0
 22 21  2  0  0  0  0
 22 24  1  0  0  0  0
 23 19  2  0  0  0  0
 26 25  1  0  0  0  0
 27 26  1  0  0  0  0
M  END
>  <MODEL>
4

>  <REMARK>
 VINA RESULT:      -7.3      3.024      6.811
  Name = 
  3 active torsions:
  status: ('A' for Active; 'I' for Inactive)
    1  A    between atoms: C_1  and  C_17
    2  A    between atoms: C_3  and  C_9
    3  A    between atoms: C_4  and  C_17
                            x       y       z     vdW  Elec       q    Type
                         _______ _______ _______ _____ _____    ______ ____

>  <TORSDO>
F 3

$$$$
=
 OpenBabel11042414223D

 27 30  0  0  1  0  0  0  0  0999 V2000
  184.6910  178.3130  142.9940 F   0  0  0  0  0  0  0  0  0  0  0  0
  186.7680  177.4200  145.9650 C   0  0  2  0  0  3  0  0  0  0  0  0
  186.9140  176.6830  143.7300 N   0  0  0  0  0  0  0  0  0  0  0  0
  188.4930  175.5410  141.4770 N   0  0  0  0  0  2  0  0  0  0  0  0
  185.9980  177.5990  139.6760 C   0  0  0  0  0  3  0  0  0  0  0  0
  188.5710  175.8830  146.4480 O   0  0  0  0  0  1  0  0  0  0  0  0
  189.1040  174.9550  142.6370 C   0  0  0  0  0  0  0  0  0  0  0  0
  188.2870  176.7560  144.1870 C   0  0  2  0  0  3  0  0  0  0  0  0
  186.5860  176.9500  142.3550 C   0  0  0  0  0  0  0  0  0  0  0  0
  185.9690  176.8330  144.8230 C   0  0  0  0  0  2  0  0  0  0  0  0
  189.0030  175.4920  143.8550 C   0  0  0  0  0  3  0  0  0  0  0  0
  187.0850  176.7870  139.9790 C   0  0  0  0  0  3  0  0  0  0  0  0
  188.2230  177.0190  145.7020 C   0  0  1  0  0  3  0  0  0  0  0  0
  185.4780  177.7740  142.0300 C   0  0  0  0  0  0  0  0  0  0  0  0
  187.3970  176.4540  141.3020 C   0  0  0  0  0  0  0  0  0  0  0  0
  184.1380  178.8840  140.3960 F   0  0  0  0  0  0  0  0  0  0  0  0
  185.1930  178.0890  140.6980 C   0  0  0  0  0  0  0  0  0  0  0  0
  189.9010  173.7080  142.4790 C   0  0  0  0  0  0  0  0  0  0  0  0
  191.3090  171.3540  142.1640 N   0  0  0  0  0  0  0  0  0  0  0  0
  189.2730  172.4680  142.6510 C   0  0  0  0  0  3  0  0  0  0  0  0
  191.9280  172.5230  142.0020 N   0  0  0  0  0  0  0  0  0  0  0  0
  191.2760  173.7080  142.1460 C   0  0  0  0  0  0  0  0  0  0  0  0
  189.9940  171.2900  142.4870 C   0  0  0  0  0  3  0  0  0  0  0  0
  192.0660  174.9630  141.9960 C   0  0  0  0  0  1  0  0  0  0  0  0
  186.2080  176.9760  147.3140 C   0  0  0  0  0  2  0  0  0  0  0  0
  185.4170  178.0960  147.9720 C   0  0  0  0  0  2  0  0  0  0  0  0
  185.8710  179.3830  147.4750 N   0  0  0  0  0  1  0  0  0  0  0  0
  2 25  1  1  0  0  0
  3  8  1  0  0  0  0
  3 10  1  0  0  0  0
  4  7  1  0  0  0  0
  5 12  2  0  0  0  0
  5 17  1  0  0  0  0
  7 11  2  0  0  0  0
  8 11  1  1  0  0  0
  8 13  1  0  0  0  0
  9  3  1  0  0  0  0
 10  2  1  0  0  0  0
 12 15  1  0  0  0  0
 13  2  1  0  0  0  0
 13  6  1  1  0  0  0
 14  9  1  0  0  0  0
 14  1  1  0  0  0  0
 15  4  1  0  0  0  0
 15  9  2  0  0  0  0
 16 17  1  0  0  0  0
 17 14  2  0  0  0  0
 18  7  1  0  0  0  0
 18 20  1  0  0  0  0
 19 23  1  0  0  0  0
 21 22  1  0  0  0  0
 21 19  2  0  0  0  0
 22 18  2  0  0  0  0
 23 20  2  0  0  0  0
 24 22  1  0  0  0  0
 25 26  1  0  0  0  0
 27 26  1  0  0  0  0
M  END
>  <MODEL>
5

>  <REMARK>
 VINA RESULT:      -7.3      3.504      6.413
  Name = 
  3 active torsions:
  status: ('A' for Active; 'I' for Inactive)
    1  A    between atoms: C_1  and  C_17
    2  A    between atoms: C_3  and  C_9
    3  A    between atoms: C_4  and  C_17
                            x       y       z     vdW  Elec       q    Type
                         _______ _______ _______ _____ _____    ______ ____

>  <TORSDO>
F 3

$$$$
=
 OpenBabel11042414223D

 27 30  0  0  1  0  0  0  0  0999 V2000
  184.3870  178.6540  143.8280 F   0  0  0  0  0  0  0  0  0  0  0  0
  186.5330  176.9340  141.3030 C   0  0  2  0  0  3  0  0  0  0  0  0
  186.9140  177.3490  143.5920 N   0  0  0  0  0  0  0  0  0  0  0  0
  188.2760  176.6780  146.1550 N   0  0  0  0  0  2  0  0  0  0  0  0
  185.0910  178.1320  147.3580 C   0  0  0  0  0  3  0  0  0  0  0  0
  188.7560  175.9840  141.2440 O   0  0  0  0  0  1  0  0  0  0  0  0
  189.2370  176.2920  145.1600 C   0  0  0  0  0  0  0  0  0  0  0  0
  187.5160  176.0560  143.3440 C   0  0  2  0  0  3  0  0  0  0  0  0
  186.3270  177.6500  144.8700 C   0  0  0  0  0  0  0  0  0  0  0  0
  186.5340  178.0160  142.3590 C   0  0  0  0  0  2  0  0  0  0  0  0
  188.9000  176.0230  143.8970 C   0  0  0  0  0  3  0  0  0  0  0  0
  186.3310  177.5060  147.3000 C   0  0  0  0  0  3  0  0  0  0  0  0
  187.4830  175.8500  141.8200 C   0  0  1  0  0  3  0  0  0  0  0  0
  185.0640  178.2910  144.9460 C   0  0  0  0  0  0  0  0  0  0  0  0
  186.9620  177.2540  146.0770 C   0  0  0  0  0  0  0  0  0  0  0  0
  183.2480  179.1330  146.2480 F   0  0  0  0  0  0  0  0  0  0  0  0
  184.4590  178.5280  146.1840 C   0  0  0  0  0  0  0  0  0  0  0  0
  190.6670  176.1630  145.5520 C   0  0  0  0  0  0  0  0  0  0  0  0
  193.3050  175.8410  146.3040 N   0  0  0  0  0  0  0  0  0  0  0  0
  191.0230  175.2450  146.5500 C   0  0  0  0  0  3  0  0  0  0  0  0
  192.9880  176.7250  145.3570 N   0  0  0  0  0  0  0  0  0  0  0  0
  191.7030  176.9170  144.9540 C   0  0  0  0  0  0  0  0  0  0  0  0
  192.3560  175.0930  146.9170 C   0  0  0  0  0  3  0  0  0  0  0  0
  191.4430  177.9630  143.9240 C   0  0  0  0  0  1  0  0  0  0  0  0
  186.8860  177.5040  139.9310 C   0  0  0  0  0  2  0  0  0  0  0  0
  186.0470  176.8590  138.8400 C   0  0  0  0  0  2  0  0  0  0  0  0
  186.8870  176.0330  137.9900 N   0  0  0  0  0  1  0  0  0  0  0  0
  1 14  1  0  0  0  0
  2 25  1  6  0  0  0
  2 13  1  0  0  0  0
  2 10  1  0  0  0  0
  3  9  1  0  0  0  0
  7 18  1  0  0  0  0
  7  4  1  0  0  0  0
  8  3  1  0  0  0  0
  8 11  1  6  0  0  0
  9 14  2  0  0  0  0
  9 15  1  0  0  0  0
 10  3  1  0  0  0  0
 11  7  2  0  0  0  0
 12  5  1  0  0  0  0
 13  6  1  6  0  0  0
 13  8  1  0  0  0  0
 14 17  1  0  0  0  0
 15  4  1  0  0  0  0
 15 12  2  0  0  0  0
 17 16  1  0  0  0  0
 17  5  2  0  0  0  0
 18 20  1  0  0  0  0
 19 23  1  0  0  0  0
 20 23  2  0  0  0  0
 21 19  2  0  0  0  0
 22 21  1  0  0  0  0
 22 18  2  0  0  0  0
 24 22  1  0  0  0  0
 26 25  1  0  0  0  0
 27 26  1  0  0  0  0
M  END
>  <MODEL>
6

>  <REMARK>
 VINA RESULT:      -7.3      3.565      7.212
  Name = 
  3 active torsions:
  status: ('A' for Active; 'I' for Inactive)
    1  A    between atoms: C_1  and  C_17
    2  A    between atoms: C_3  and  C_9
    3  A    between atoms: C_4  and  C_17
                            x       y       z     vdW  Elec       q    Type
                         _______ _______ _______ _____ _____    ______ ____

>  <TORSDO>
F 3

$$$$
=
 OpenBabel11042414223D

 27 30  0  0  1  0  0  0  0  0999 V2000
  187.1720  178.1670  146.6060 F   0  0  0  0  0  0  0  0  0  0  0  0
  190.6210  177.1500  145.5990 C   0  0  2  0  0  3  0  0  0  0  0  0
  188.5570  176.8110  144.5120 N   0  0  0  0  0  0  0  0  0  0  0  0
  186.9890  176.3050  142.0300 N   0  0  0  0  0  2  0  0  0  0  0  0
  184.5590  178.2030  144.0780 C   0  0  0  0  0  3  0  0  0  0  0  0
  191.6200  175.8590  143.8160 O   0  0  0  0  0  1  0  0  0  0  0  0
  188.2380  175.6450  141.7710 C   0  0  0  0  0  0  0  0  0  0  0  0
  189.5090  177.0250  143.4420 C   0  0  2  0  0  3  0  0  0  0  0  0
  187.1900  177.2380  144.3720 C   0  0  0  0  0  0  0  0  0  0  0  0
  189.2140  176.6340  145.7950 C   0  0  0  0  0  2  0  0  0  0  0  0
  189.3660  175.9580  142.4100 C   0  0  0  0  0  3  0  0  0  0  0  0
  185.1820  177.5350  143.0290 C   0  0  0  0  0  3  0  0  0  0  0  0
  190.9010  177.0310  144.0980 C   0  0  1  0  0  3  0  0  0  0  0  0
  186.5400  177.9180  145.4320 C   0  0  0  0  0  0  0  0  0  0  0  0
  186.4880  177.0490  143.1520 C   0  0  0  0  0  0  0  0  0  0  0  0
  184.6220  179.0490  146.2940 F   0  0  0  0  0  0  0  0  0  0  0  0
  185.2330  178.3920  145.2780 C   0  0  0  0  0  0  0  0  0  0  0  0
  188.2880  174.5800  140.7310 C   0  0  0  0  0  0  0  0  0  0  0  0
  188.4100  172.6640  138.7470 N   0  0  0  0  0  0  0  0  0  0  0  0
  188.1600  174.9350  139.3820 C   0  0  0  0  0  3  0  0  0  0  0  0
  188.5280  172.3030  140.0250 N   0  0  0  0  0  0  0  0  0  0  0  0
  188.4750  173.2120  141.0360 C   0  0  0  0  0  0  0  0  0  0  0  0
  188.2250  173.9600  138.3930 C   0  0  0  0  0  3  0  0  0  0  0  0
  188.5660  172.7050  142.4350 C   0  0  0  0  0  1  0  0  0  0  0  0
  191.6080  176.4150  146.5030 C   0  0  0  0  0  2  0  0  0  0  0  0
  191.0630  176.2880  147.9170 C   0  0  0  0  0  2  0  0  0  0  0  0
  191.5660  177.3710  148.7430 N   0  0  0  0  0  1  0  0  0  0  0  0
  2 10  1  0  0  0  0
  2 25  1  1  0  0  0
  3 10  1  0  0  0  0
  4 15  1  0  0  0  0
  5 17  1  0  0  0  0
  7  4  1  0  0  0  0
  7 11  2  0  0  0  0
  8 11  1  6  0  0  0
  8 13  1  0  0  0  0
  8  3  1  0  0  0  0
  9  3  1  0  0  0  0
  9 14  1  0  0  0  0
 12 15  1  0  0  0  0
 12  5  2  0  0  0  0
 13  6  1  1  0  0  0
 13  2  1  0  0  0  0
 14  1  1  0  0  0  0
 15  9  2  0  0  0  0
 17 14  2  0  0  0  0
 17 16  1  0  0  0  0
 18 22  1  0  0  0  0
 18  7  1  0  0  0  0
 19 21  1  0  0  0  0
 20 18  2  0  0  0  0
 21 22  2  0  0  0  0
 22 24  1  0  0  0  0
 23 19  2  0  0  0  0
 23 20  1  0  0  0  0
 25 26  1  0  0  0  0
 26 27  1  0  0  0  0
M  END
>  <MODEL>
7

>  <REMARK>
 VINA RESULT:      -7.1      3.261      5.867
  Name = 
  3 active torsions:
  status: ('A' for Active; 'I' for Inactive)
    1  A    between atoms: C_1  and  C_17
    2  A    between atoms: C_3  and  C_9
    3  A    between atoms: C_4  and  C_17
                            x       y       z     vdW  Elec       q    Type
                         _______ _______ _______ _____ _____    ______ ____

>  <TORSDO>
F 3

$$$$
=
 OpenBabel11042414223D

 27 30  0  0  1  0  0  0  0  0999 V2000
  186.6790  176.3840  139.6200 F   0  0  0  0  0  0  0  0  0  0  0  0
  188.3790  173.1320  140.3100 C   0  0  2  0  0  3  0  0  0  0  0  0
  188.3110  175.1140  141.5850 N   0  0  0  0  0  0  0  0  0  0  0  0
  188.5240  176.5180  144.2040 N   0  0  0  0  0  2  0  0  0  0  0  0
  186.1510  178.6940  142.3780 C   0  0  0  0  0  3  0  0  0  0  0  0
  189.8670  172.2540  142.0010 O   0  0  0  0  0  1  0  0  0  0  0  0
  189.4250  175.4080  144.3510 C   0  0  0  0  0  0  0  0  0  0  0  0
  188.3060  174.0440  142.5610 C   0  0  2  0  0  3  0  0  0  0  0  0
  187.6210  176.3480  141.8480 C   0  0  0  0  0  0  0  0  0  0  0  0
  188.6000  174.6270  140.2480 C   0  0  0  0  0  2  0  0  0  0  0  0
  189.3360  174.3030  143.6080 C   0  0  0  0  0  3  0  0  0  0  0  0
  186.9430  178.1240  143.3690 C   0  0  0  0  0  3  0  0  0  0  0  0
  188.5720  172.7450  141.7790 C   0  0  1  0  0  3  0  0  0  0  0  0
  186.8110  176.9430  140.8480 C   0  0  0  0  0  0  0  0  0  0  0  0
  187.6800  176.9590  143.1280 C   0  0  0  0  0  0  0  0  0  0  0  0
  185.3070  178.6660  140.1610 F   0  0  0  0  0  0  0  0  0  0  0  0
  186.0860  178.1080  141.1190 C   0  0  0  0  0  0  0  0  0  0  0  0
  190.4910  175.4780  145.3880 C   0  0  0  0  0  0  0  0  0  0  0  0
  192.5090  175.6660  147.2620 N   0  0  0  0  0  0  0  0  0  0  0  0
  191.7850  175.8600  145.0120 C   0  0  0  0  0  3  0  0  0  0  0  0
  191.2860  175.2940  147.6400 N   0  0  0  0  0  0  0  0  0  0  0  0
  190.2610  175.1880  146.7530 C   0  0  0  0  0  0  0  0  0  0  0  0
  192.7920  175.9530  145.9680 C   0  0  0  0  0  3  0  0  0  0  0  0
  188.9410  174.7150  147.2620 C   0  0  0  0  0  1  0  0  0  0  0  0
  189.2860  172.4010  139.3230 C   0  0  0  0  0  2  0  0  0  0  0  0
  190.2440  173.3660  138.6430 C   0  0  0  0  0  2  0  0  0  0  0  0
  191.6070  172.8790  138.7600 N   0  0  0  0  0  1  0  0  0  0  0  0
  1 14  1  0  0  0  0
  2 25  1  6  0  0  0
  2 13  1  0  0  0  0
  3  9  1  0  0  0  0
  3  8  1  0  0  0  0
  4  7  1  0  0  0  0
  5 12  1  0  0  0  0
  7 18  1  0  0  0  0
  8 11  1  1  0  0  0
  9 15  1  0  0  0  0
 10  2  1  0  0  0  0
 10  3  1  0  0  0  0
 11  7  2  0  0  0  0
 13  6  1  6  0  0  0
 13  8  1  0  0  0  0
 14 17  1  0  0  0  0
 14  9  2  0  0  0  0
 15 12  2  0  0  0  0
 15  4  1  0  0  0  0
 16 17  1  0  0  0  0
 17  5  2  0  0  0  0
 18 22  1  0  0  0  0
 19 21  1  0  0  0  0
 20 18  2  0  0  0  0
 20 23  1  0  0  0  0
 22 24  1  0  0  0  0
 22 21  2  0  0  0  0
 23 19  2  0  0  0  0
 26 27  1  0  0  0  0
 26 25  1  0  0  0  0
M  END
>  <MODEL>
8

>  <REMARK>
 VINA RESULT:      -7.0      3.099      6.241
  Name = 
  3 active torsions:
  status: ('A' for Active; 'I' for Inactive)
    1  A    between atoms: C_1  and  C_17
    2  A    between atoms: C_3  and  C_9
    3  A    between atoms: C_4  and  C_17
                            x       y       z     vdW  Elec       q    Type
                         _______ _______ _______ _____ _____    ______ ____

>  <TORSDO>
F 3

$$$$
=
 OpenBabel11042414223D

 27 30  0  0  1  0  0  0  0  0999 V2000
  188.9740  177.5350  147.2730 F   0  0  0  0  0  0  0  0  0  0  0  0
  192.0030  177.1300  145.1280 C   0  0  2  0  0  3  0  0  0  0  0  0
  189.7620  176.5200  144.7260 N   0  0  0  0  0  0  0  0  0  0  0  0
  187.5470  175.8920  142.8350 N   0  0  0  0  0  2  0  0  0  0  0  0
  185.6940  177.2780  145.7240 C   0  0  0  0  0  3  0  0  0  0  0  0
  192.5230  176.1020  143.0020 O   0  0  0  0  0  1  0  0  0  0  0  0
  188.7180  175.4520  142.1280 C   0  0  0  0  0  0  0  0  0  0  0  0
  190.2700  176.9340  143.4350 C   0  0  2  0  0  3  0  0  0  0  0  0
  188.3810  176.7300  145.0700 C   0  0  0  0  0  0  0  0  0  0  0  0
  190.8220  176.3870  145.7100 C   0  0  0  0  0  2  0  0  0  0  0  0
  189.9410  175.9100  142.4030 C   0  0  0  0  0  3  0  0  0  0  0  0
  186.0220  176.7690  144.4720 C   0  0  0  0  0  3  0  0  0  0  0  0
  191.7870  177.1290  143.6110 C   0  0  1  0  0  3  0  0  0  0  0  0
  188.0300  177.2460  146.3430 C   0  0  0  0  0  0  0  0  0  0  0  0
  187.3490  176.4920  144.1250 C   0  0  0  0  0  0  0  0  0  0  0  0
  186.3690  178.0140  147.8770 F   0  0  0  0  0  0  0  0  0  0  0  0
  186.6950  177.5130  146.6600 C   0  0  0  0  0  0  0  0  0  0  0  0
  188.5660  174.4610  141.0280 C   0  0  0  0  0  0  0  0  0  0  0  0
  188.3100  172.6820  138.9320 N   0  0  0  0  0  0  0  0  0  0  0  0
  188.3100  174.9160  139.7280 C   0  0  0  0  0  3  0  0  0  0  0  0
  188.5470  172.2270  140.1620 N   0  0  0  0  0  0  0  0  0  0  0  0
  188.6810  173.0650  141.2250 C   0  0  0  0  0  0  0  0  0  0  0  0
  188.1850  174.0090  138.6810 C   0  0  0  0  0  3  0  0  0  0  0  0
  188.8940  172.4580  142.5700 C   0  0  0  0  0  1  0  0  0  0  0  0
  193.3210  176.5180  145.5940 C   0  0  0  0  0  2  0  0  0  0  0  0
  193.0800  175.2520  146.4010 C   0  0  0  0  0  2  0  0  0  0  0  0
  193.7360  174.1240  145.7630 N   0  0  0  0  0  1  0  0  0  0  0  0
  2 25  1  6  0  0  0
  2 10  1  0  0  0  0
  3  9  1  0  0  0  0
  3 10  1  0  0  0  0
  4 15  1  0  0  0  0
  5 17  1  0  0  0  0
  7 11  2  0  0  0  0
  7  4  1  0  0  0  0
  8 11  1  6  0  0  0
  8 13  1  0  0  0  0
  8  3  1  0  0  0  0
  9 14  1  0  0  0  0
 12  5  2  0  0  0  0
 13  6  1  6  0  0  0
 13  2  1  0  0  0  0
 14 17  2  0  0  0  0
 14  1  1  0  0  0  0
 15 12  1  0  0  0  0
 15  9  2  0  0  0  0
 17 16  1  0  0  0  0
 18 22  1  0  0  0  0
 18  7  1  0  0  0  0
 19 21  1  0  0  0  0
 20 18  2  0  0  0  0
 21 22  2  0  0  0  0
 22 24  1  0  0  0  0
 23 19  2  0  0  0  0
 23 20  1  0  0  0  0
 25 26  1  0  0  0  0
 27 26  1  0  0  0  0
M  END
>  <MODEL>
9

>  <REMARK>
 VINA RESULT:      -6.9      3.017      5.649
  Name = 
  3 active torsions:
  status: ('A' for Active; 'I' for Inactive)
    1  A    between atoms: C_1  and  C_17
    2  A    between atoms: C_3  and  C_9
    3  A    between atoms: C_4  and  C_17
                            x       y       z     vdW  Elec       q    Type
                         _______ _______ _______ _____ _____    ______ ____

>  <TORSDO>
F 3

$$$$
