=
 OpenBabel11042415173D

 45 50  0  0  1  0  0  0  0  0999 V2000
  190.9570  177.6060  145.1570 C   0  0  0  0  0  2  0  0  0  0  0  0
  191.3700  175.1010  146.6800 N   0  0  2  0  0  0  0  0  0  0  0  0
  193.3940  176.6450  146.6860 O   0  0  0  0  0  0  0  0  0  0  0  0
  192.8270  175.3460  146.7060 C   0  0  2  0  0  3  0  0  0  0  0  0
  194.5490  176.7870  145.8910 C   0  0  0  0  0  0  0  0  0  0  0  0
  191.7810  176.4880  144.5150 C   0  0  0  0  0  2  0  0  0  0  0  0
  192.1320  175.2540  145.4070 C   0  0  2  0  0  0  0  0  0  0  0  0
  195.0570  177.9270  145.7290 O   0  0  0  0  0  0  0  0  0  0  0  0
  190.7200  176.3040  147.2140 C   0  0  0  0  0  2  0  0  0  0  0  0
  194.2660  174.8590  144.1740 C   0  0  0  0  0  2  0  0  0  0  0  0
  189.9520  177.0650  146.1530 C   0  0  2  0  0  3  0  0  0  0  0  0
  195.1800  175.5770  145.2060 C   0  0  0  0  0  2  0  0  0  0  0  0
  192.9870  174.1840  144.7530 C   0  0  2  0  0  3  0  0  0  0  0  0
  192.2410  173.5580  143.6740 N   0  0  0  0  0  2  0  0  0  0  0  0
  193.4810  171.5830  143.7260 O   0  0  0  0  0  0  0  0  0  0  0  0
  192.5490  172.2470  143.1930 C   0  0  0  0  0  0  0  0  0  0  0  0
  191.3570  171.4720  139.6260 C   0  0  0  0  0  0  0  0  0  0  0  0
  192.0420  172.0050  140.8240 C   0  0  0  0  0  3  0  0  0  0  0  0
  190.9830  169.1960  140.5150 C   0  0  0  0  0  3  0  0  0  0  0  0
  191.7630  171.6720  142.0870 C   0  0  0  0  0  0  0  0  0  0  0  0
  190.8650  169.4070  141.8250 C   0  0  0  0  0  3  0  0  0  0  0  0
  190.6190  170.7590  142.3960 C   0  0  0  0  0  2  0  0  0  0  0  0
  190.9370  170.2370  139.5230 N   0  0  0  0  0  0  0  0  0  0  0  0
  191.2220  172.3410  138.5400 O   0  0  0  0  0  0  0  0  0  0  0  0
  190.5770  173.6060  138.6420 C   0  0  0  0  0  2  0  0  0  0  0  0
  189.0870  173.3910  138.8280 C   0  0  2  0  0  3  0  0  0  0  0  0
  188.4160  173.6840  137.6350 O   0  0  0  0  0  1  0  0  0  0  0  0
  188.5770  174.3030  139.9410 C   0  0  0  0  0  2  0  0  0  0  0  0
  189.3020  174.9650  142.0640 C   0  0  0  0  0  1  0  0  0  0  0  0
  187.8900  173.1270  141.8350 C   0  0  0  0  0  1  0  0  0  0  0  0
  189.0220  173.8070  141.2330 N   0  0  0  0  0  0  0  0  0  0  0  0
  188.8910  176.1980  145.4800 C   0  0  0  0  0  2  0  0  0  0  0  0
  187.7200  175.9480  146.4220 C   0  0  0  0  0  2  0  0  0  0  0  0
  186.8760  177.1810  146.5390 C   0  0  0  0  0  0  0  0  0  0  0  0
  185.1960  178.8000  145.6130 C   0  0  0  0  0  2  0  0  0  0  0  0
  185.9480  177.2610  141.7100 C   0  0  2  0  0  3  0  0  0  0  0  0
  186.1020  176.9280  144.1610 C   0  0  0  0  0  2  0  0  0  0  0  0
  184.1200  178.7150  142.0410 O   0  0  0  0  0  0  0  0  0  0  0  0
  187.1250  177.3120  140.9640 O   0  0  0  0  0  1  0  0  0  0  0  0
  184.8860  178.1020  141.0430 C   0  0  0  0  0  2  0  0  0  0  0  0
  185.0110  178.9660  143.0970 C   0  0  1  0  0  3  0  0  0  0  0  0
  186.0680  177.6330  145.4420 N   0  0  0  0  0  0  0  0  0  0  0  0
  184.2470  178.9600  144.4250 C   0  0  0  0  0  2  0  0  0  0  0  0
  186.1540  177.9450  143.0260 C   0  0  2  0  0  3  0  0  0  0  0  0
  186.9030  177.8380  147.6190 O   0  0  0  0  0  0  0  0  0  0  0  0
  1 11  1  0  0  0  0
  2  4  1  0  0  0  0
  2  9  1  1  0  0  0
  4  3  1  1  0  0  0
  5  3  1  0  0  0  0
  6  1  1  0  0  0  0
  7  6  1  6  0  0  0
  7  2  1  0  0  0  0
  7  4  1  0  0  0  0
  8  5  2  0  0  0  0
 10 13  1  0  0  0  0
 10 12  1  0  0  0  0
 11 32  1  6  0  0  0
 11  9  1  0  0  0  0
 12  5  1  0  0  0  0
 13 14  1  6  0  0  0
 13  7  1  0  0  0  0
 16 14  1  0  0  0  0
 16 15  2  0  0  0  0
 17 18  1  0  0  0  0
 18 20  2  0  0  0  0
 19 21  2  0  0  0  0
 20 22  1  0  0  0  0
 20 16  1  0  0  0  0
 21 22  1  0  0  0  0
 23 17  2  0  0  0  0
 23 19  1  0  0  0  0
 24 25  1  0  0  0  0
 24 17  1  0  0  0  0
 25 26  1  0  0  0  0
 26 27  1  6  0  0  0
 26 28  1  0  0  0  0
 28 31  1  0  0  0  0
 31 30  1  0  0  0  0
 31 29  1  0  0  0  0
 32 33  1  0  0  0  0
 33 34  1  0  0  0  0
 34 45  2  0  0  0  0
 36 39  1  6  0  0  0
 36 44  1  0  0  0  0
 37 42  1  0  0  0  0
 38 41  1  0  0  0  0
 40 36  1  0  0  0  0
 40 38  1  0  0  0  0
 41 43  1  1  0  0  0
 42 35  1  0  0  0  0
 42 34  1  0  0  0  0
 43 35  1  0  0  0  0
 44 41  1  0  0  0  0
 44 37  1  1  0  0  0
M  END
>  <MODEL>
1

>  <REMARK>
 VINA RESULT:      -7.9      0.000      0.000
  Name = 
  10 active torsions:
  status: ('A' for Active; 'I' for Inactive)
    1  A    between atoms: C_1  and  O_42
    2  A    between atoms: N_2  and  C_44
    3  A    between atoms: C_3  and  C_38
    4  A    between atoms: C_8  and  C_38
    5  A    between atoms: C_8  and  C_40
    6  A    between atoms: C_14  and  N_28
    7  A    between atoms: C_14  and  C_29
    8  A    between atoms: C_23  and  C_29
    9  A    between atoms: C_23  and  O_42
   10  A    between atoms: C_24  and  C_31
                            x       y       z     vdW  Elec       q    Type
                         _______ _______ _______ _____ _____    ______ ____

>  <TORSDO>
F 10

$$$$
=
 OpenBabel11042415173D

 45 50  0  0  1  0  0  0  0  0999 V2000
  192.9060  177.0350  144.6110 C   0  0  0  0  0  2  0  0  0  0  0  0
  193.5830  174.3000  145.5190 N   0  0  2  0  0  0  0  0  0  0  0  0
  195.6100  175.6820  144.8430 O   0  0  0  0  0  0  0  0  0  0  0  0
  194.9400  174.4380  144.9530 C   0  0  2  0  0  3  0  0  0  0  0  0
  196.3460  175.8680  143.6550 C   0  0  0  0  0  0  0  0  0  0  0  0
  193.2440  175.9790  143.5570 C   0  0  0  0  0  2  0  0  0  0  0  0
  193.7680  174.5990  144.0700 C   0  0  2  0  0  0  0  0  0  0  0  0
  196.8840  176.9820  143.4240 O   0  0  0  0  0  0  0  0  0  0  0  0
  193.3680  175.4460  146.4110 C   0  0  0  0  0  2  0  0  0  0  0  0
  195.1410  174.2570  142.0130 C   0  0  0  0  0  2  0  0  0  0  0  0
  192.3370  176.4140  145.8690 C   0  0  2  0  0  3  0  0  0  0  0  0
  196.4810  174.7410  142.6350 C   0  0  0  0  0  2  0  0  0  0  0  0
  194.1360  173.5900  142.9970 C   0  0  2  0  0  3  0  0  0  0  0  0
  192.9410  173.1930  142.2730 N   0  0  0  0  0  2  0  0  0  0  0  0
  193.6700  171.0070  141.9130 O   0  0  0  0  0  0  0  0  0  0  0  0
  192.7720  171.8770  141.7390 C   0  0  0  0  0  0  0  0  0  0  0  0
  189.4960  172.3090  139.7830 C   0  0  0  0  0  0  0  0  0  0  0  0
  190.7360  172.5110  140.5640 C   0  0  0  0  0  3  0  0  0  0  0  0
  190.2960  170.3520  138.5030 C   0  0  0  0  0  3  0  0  0  0  0  0
  191.5410  171.5400  141.0020 C   0  0  0  0  0  0  0  0  0  0  0  0
  191.1480  169.7750  139.3480 C   0  0  0  0  0  3  0  0  0  0  0  0
  191.1760  170.1030  140.7990 C   0  0  0  0  0  2  0  0  0  0  0  0
  189.3570  171.3750  138.8780 N   0  0  0  0  0  0  0  0  0  0  0  0
  188.4580  173.2190  140.0030 O   0  0  0  0  0  0  0  0  0  0  0  0
  188.6840  174.5470  140.4650 C   0  0  0  0  0  2  0  0  0  0  0  0
  188.1010  174.6960  141.8570 C   0  0  2  0  0  3  0  0  0  0  0  0
  187.3250  173.5710  142.1660 O   0  0  0  0  0  1  0  0  0  0  0  0
  187.2330  175.9500  141.9130 C   0  0  0  0  0  2  0  0  0  0  0  0
  186.5780  177.5470  140.3360 C   0  0  0  0  0  1  0  0  0  0  0  0
  188.3640  177.9840  141.7650 C   0  0  0  0  0  1  0  0  0  0  0  0
  187.7330  176.9420  140.9770 N   0  0  0  0  0  0  0  0  0  0  0  0
  190.9920  175.7390  145.6160 C   0  0  0  0  0  2  0  0  0  0  0  0
  189.9300  176.7680  145.2470 C   0  0  0  0  0  2  0  0  0  0  0  0
  189.2580  177.2840  146.4830 C   0  0  0  0  0  0  0  0  0  0  0  0
  187.2130  178.0370  147.7310 C   0  0  0  0  0  2  0  0  0  0  0  0
  185.1850  178.5090  144.0120 C   0  0  2  0  0  3  0  0  0  0  0  0
  187.0730  177.4950  145.2570 C   0  0  0  0  0  2  0  0  0  0  0  0
  183.9520  178.6320  146.0190 O   0  0  0  0  0  0  0  0  0  0  0  0
  185.4660  179.3940  142.9720 O   0  0  0  0  0  1  0  0  0  0  0  0
  183.8620  178.8670  144.6430 C   0  0  0  0  0  2  0  0  0  0  0  0
  185.2820  178.9250  146.3630 C   0  0  1  0  0  3  0  0  0  0  0  0
  187.8580  177.6060  146.4860 N   0  0  0  0  0  0  0  0  0  0  0  0
  185.6930  178.0860  147.5780 C   0  0  0  0  0  2  0  0  0  0  0  0
  186.1640  178.7130  145.1260 C   0  0  2  0  0  3  0  0  0  0  0  0
  189.9490  177.4560  147.5280 O   0  0  0  0  0  0  0  0  0  0  0  0
  1 11  1  0  0  0  0
  2  9  1  1  0  0  0
  4  3  1  1  0  0  0
  4  2  1  0  0  0  0
  5  3  1  0  0  0  0
  6  1  1  0  0  0  0
  7  6  1  6  0  0  0
  7  4  1  0  0  0  0
  7  2  1  0  0  0  0
  8  5  2  0  0  0  0
 10 12  1  0  0  0  0
 10 13  1  0  0  0  0
 11 32  1  6  0  0  0
 11  9  1  0  0  0  0
 12  5  1  0  0  0  0
 13 14  1  6  0  0  0
 13  7  1  0  0  0  0
 16 15  2  0  0  0  0
 16 14  1  0  0  0  0
 17 24  1  0  0  0  0
 17 18  1  0  0  0  0
 18 20  2  0  0  0  0
 19 23  1  0  0  0  0
 19 21  2  0  0  0  0
 20 16  1  0  0  0  0
 21 22  1  0  0  0  0
 22 20  1  0  0  0  0
 23 17  2  0  0  0  0
 24 25  1  0  0  0  0
 25 26  1  0  0  0  0
 26 28  1  0  0  0  0
 26 27  1  6  0  0  0
 29 31  1  0  0  0  0
 31 30  1  0  0  0  0
 31 28  1  0  0  0  0
 33 32  1  0  0  0  0
 33 34  1  0  0  0  0
 34 42  1  0  0  0  0
 34 45  2  0  0  0  0
 36 39  1  6  0  0  0
 36 40  1  0  0  0  0
 36 44  1  0  0  0  0
 37 42  1  0  0  0  0
 38 41  1  0  0  0  0
 40 38  1  0  0  0  0
 41 43  1  1  0  0  0
 42 35  1  0  0  0  0
 43 35  1  0  0  0  0
 44 37  1  1  0  0  0
 44 41  1  0  0  0  0
M  END
>  <MODEL>
2

>  <REMARK>
 VINA RESULT:      -7.8      1.892      2.823
  Name = 
  10 active torsions:
  status: ('A' for Active; 'I' for Inactive)
    1  A    between atoms: C_1  and  O_42
    2  A    between atoms: N_2  and  C_44
    3  A    between atoms: C_3  and  C_38
    4  A    between atoms: C_8  and  C_38
    5  A    between atoms: C_8  and  C_40
    6  A    between atoms: C_14  and  N_28
    7  A    between atoms: C_14  and  C_29
    8  A    between atoms: C_23  and  C_29
    9  A    between atoms: C_23  and  O_42
   10  A    between atoms: C_24  and  C_31
                            x       y       z     vdW  Elec       q    Type
                         _______ _______ _______ _____ _____    ______ ____

>  <TORSDO>
F 10

$$$$
=
 OpenBabel11042415173D

 45 50  0  0  1  0  0  0  0  0999 V2000
  186.6330  176.3300  146.7790 C   0  0  0  0  0  2  0  0  0  0  0  0
  188.1860  177.8950  144.8030 N   0  0  2  0  0  0  0  0  0  0  0  0
  185.9700  178.9710  145.4430 O   0  0  0  0  0  0  0  0  0  0  0  0
  186.9930  178.7100  144.4960 C   0  0  2  0  0  3  0  0  0  0  0  0
  184.6560  178.9380  144.9350 C   0  0  0  0  0  0  0  0  0  0  0  0
  186.2110  176.2760  145.3100 C   0  0  0  0  0  2  0  0  0  0  0  0
  186.9340  177.2460  144.3200 C   0  0  2  0  0  0  0  0  0  0  0  0
  183.6810  179.0510  145.7230 O   0  0  0  0  0  0  0  0  0  0  0  0
  188.3880  177.9520  146.2560 C   0  0  0  0  0  2  0  0  0  0  0  0
  184.9160  177.3990  142.8580 C   0  0  0  0  0  2  0  0  0  0  0  0
  188.1120  176.6240  146.9300 C   0  0  2  0  0  3  0  0  0  0  0  0
  184.4000  178.7440  143.4420 C   0  0  0  0  0  2  0  0  0  0  0  0
  186.4600  177.1970  142.8790 C   0  0  2  0  0  3  0  0  0  0  0  0
  186.7860  175.9030  142.3040 N   0  0  0  0  0  2  0  0  0  0  0  0
  189.0200  176.4440  141.9100 O   0  0  0  0  0  0  0  0  0  0  0  0
  188.0940  175.5900  141.8200 C   0  0  0  0  0  0  0  0  0  0  0  0
  189.1250  172.8960  139.2840 C   0  0  0  0  0  0  0  0  0  0  0  0
  188.7880  174.1610  139.9750 C   0  0  0  0  0  3  0  0  0  0  0  0
  190.0410  171.7390  141.2660 C   0  0  0  0  0  3  0  0  0  0  0  0
  188.3580  174.2630  141.2350 C   0  0  0  0  0  0  0  0  0  0  0  0
  189.3440  172.2720  142.2680 C   0  0  0  0  0  3  0  0  0  0  0  0
  188.0860  173.0360  142.0460 C   0  0  0  0  0  2  0  0  0  0  0  0
  189.6930  171.8790  139.8770 N   0  0  0  0  0  0  0  0  0  0  0  0
  188.8650  172.8410  137.9120 O   0  0  0  0  0  0  0  0  0  0  0  0
  188.9010  173.9920  137.0750 C   0  0  0  0  0  2  0  0  0  0  0  0
  190.0590  173.8650  136.1030 C   0  0  2  0  0  3  0  0  0  0  0  0
  190.2760  172.5140  135.8030 O   0  0  0  0  0  1  0  0  0  0  0  0
  191.3170  174.4610  136.7300 C   0  0  0  0  0  2  0  0  0  0  0  0
  191.1760  176.1160  135.0840 C   0  0  0  0  0  1  0  0  0  0  0  0
  193.0690  175.9700  136.4320 C   0  0  0  0  0  1  0  0  0  0  0  0
  192.0810  175.1770  135.7240 N   0  0  0  0  0  0  0  0  0  0  0  0
  188.9780  175.5020  146.3650 C   0  0  0  0  0  2  0  0  0  0  0  0
  189.9340  174.9700  147.4250 C   0  0  0  0  0  2  0  0  0  0  0  0
  191.1660  175.8210  147.4850 C   0  0  0  0  0  0  0  0  0  0  0  0
  193.4450  176.4660  146.6500 C   0  0  0  0  0  2  0  0  0  0  0  0
  193.7060  172.7190  144.6350 C   0  0  2  0  0  3  0  0  0  0  0  0
  192.2650  174.4310  145.7020 C   0  0  0  0  0  2  0  0  0  0  0  0
  195.3160  174.3820  144.1840 O   0  0  0  0  0  0  0  0  0  0  0  0
  193.7400  171.4370  145.1800 O   0  0  0  0  0  1  0  0  0  0  0  0
  195.0290  173.0290  143.9780 C   0  0  0  0  0  2  0  0  0  0  0  0
  194.7840  174.6910  145.4470 C   0  0  1  0  0  3  0  0  0  0  0  0
  192.2840  175.5700  146.6190 N   0  0  0  0  0  0  0  0  0  0  0  0
  194.4000  176.1740  145.4920 C   0  0  0  0  0  2  0  0  0  0  0  0
  193.6210  173.7330  145.7340 C   0  0  2  0  0  3  0  0  0  0  0  0
  191.2200  176.7590  148.3300 O   0  0  0  0  0  0  0  0  0  0  0  0
  1 11  1  0  0  0  0
  2  9  1  1  0  0  0
  4  2  1  0  0  0  0
  4  3  1  1  0  0  0
  5  3  1  0  0  0  0
  5  8  2  0  0  0  0
  6  1  1  0  0  0  0
  7  4  1  0  0  0  0
  7  2  1  0  0  0  0
  7  6  1  1  0  0  0
  9 11  1  0  0  0  0
 10 13  1  0  0  0  0
 10 12  1  0  0  0  0
 11 32  1  6  0  0  0
 12  5  1  0  0  0  0
 13 14  1  1  0  0  0
 13  7  1  0  0  0  0
 16 15  2  0  0  0  0
 16 14  1  0  0  0  0
 17 23  2  0  0  0  0
 17 18  1  0  0  0  0
 18 20  2  0  0  0  0
 19 21  2  0  0  0  0
 20 16  1  0  0  0  0
 20 22  1  0  0  0  0
 22 21  1  0  0  0  0
 23 19  1  0  0  0  0
 24 17  1  0  0  0  0
 25 24  1  0  0  0  0
 26 27  1  1  0  0  0
 26 28  1  0  0  0  0
 26 25  1  0  0  0  0
 29 31  1  0  0  0  0
 31 30  1  0  0  0  0
 31 28  1  0  0  0  0
 32 33  1  0  0  0  0
 33 34  1  0  0  0  0
 34 45  2  0  0  0  0
 36 39  1  1  0  0  0
 36 44  1  0  0  0  0
 37 42  1  0  0  0  0
 38 41  1  0  0  0  0
 40 38  1  0  0  0  0
 40 36  1  0  0  0  0
 41 43  1  6  0  0  0
 41 44  1  0  0  0  0
 42 35  1  0  0  0  0
 42 34  1  0  0  0  0
 43 35  1  0  0  0  0
 44 37  1  6  0  0  0
M  END
>  <MODEL>
3

>  <REMARK>
 VINA RESULT:      -7.8      2.155      6.905
  Name = 
  10 active torsions:
  status: ('A' for Active; 'I' for Inactive)
    1  A    between atoms: C_1  and  O_42
    2  A    between atoms: N_2  and  C_44
    3  A    between atoms: C_3  and  C_38
    4  A    between atoms: C_8  and  C_38
    5  A    between atoms: C_8  and  C_40
    6  A    between atoms: C_14  and  N_28
    7  A    between atoms: C_14  and  C_29
    8  A    between atoms: C_23  and  C_29
    9  A    between atoms: C_23  and  O_42
   10  A    between atoms: C_24  and  C_31
                            x       y       z     vdW  Elec       q    Type
                         _______ _______ _______ _____ _____    ______ ____

>  <TORSDO>
F 10

$$$$
=
 OpenBabel11042415173D

 45 50  0  0  1  0  0  0  0  0999 V2000
  192.8300  172.5570  139.4320 C   0  0  0  0  0  2  0  0  0  0  0  0
  190.5350  171.3970  140.9000 N   0  0  2  0  0  0  0  0  0  0  0  0
  190.2230  171.4250  138.3740 O   0  0  0  0  0  0  0  0  0  0  0  0
  189.6960  171.5000  139.6880 C   0  0  2  0  0  3  0  0  0  0  0  0
  189.6520  172.3180  137.4440 C   0  0  0  0  0  0  0  0  0  0  0  0
  191.5770  173.4130  139.6220 C   0  0  0  0  0  2  0  0  0  0  0  0
  190.3210  172.7180  140.2400 C   0  0  2  0  0  0  0  0  0  0  0  0
  190.1300  172.3960  136.2820 O   0  0  0  0  0  0  0  0  0  0  0  0
  191.7460  170.6560  140.5260 C   0  0  0  0  0  2  0  0  0  0  0  0
  188.7660  174.2120  138.9840 C   0  0  0  0  0  2  0  0  0  0  0  0
  192.9830  171.5300  140.5360 C   0  0  2  0  0  3  0  0  0  0  0  0
  188.4740  173.2060  137.8350 C   0  0  0  0  0  2  0  0  0  0  0  0
  189.0810  173.5840  140.3730 C   0  0  2  0  0  3  0  0  0  0  0  0
  189.3290  174.6430  141.3370 N   0  0  0  0  0  2  0  0  0  0  0  0
  187.2050  174.5140  142.2900 O   0  0  0  0  0  0  0  0  0  0  0  0
  188.3360  175.0750  142.2700 C   0  0  0  0  0  0  0  0  0  0  0  0
  188.8460  176.9550  145.5790 C   0  0  0  0  0  0  0  0  0  0  0  0
  188.5320  175.9620  144.5290 C   0  0  0  0  0  3  0  0  0  0  0  0
  190.7390  178.0130  144.3950 C   0  0  0  0  0  3  0  0  0  0  0  0
  188.6440  176.1640  143.2140 C   0  0  0  0  0  0  0  0  0  0  0  0
  190.4090  177.8610  143.1130 C   0  0  0  0  0  3  0  0  0  0  0  0
  189.0280  177.5090  142.6840 C   0  0  0  0  0  2  0  0  0  0  0  0
  189.8310  177.8110  145.4920 N   0  0  0  0  0  0  0  0  0  0  0  0
  188.0690  176.9110  146.7400 O   0  0  0  0  0  0  0  0  0  0  0  0
  186.6640  176.6780  146.7180 C   0  0  0  0  0  2  0  0  0  0  0  0
  185.9460  177.9930  146.4850 C   0  0  2  0  0  3  0  0  0  0  0  0
  185.1870  178.3220  147.6150 O   0  0  0  0  0  1  0  0  0  0  0  0
  185.0300  177.8640  145.2710 C   0  0  0  0  0  2  0  0  0  0  0  0
  185.1260  177.5540  142.9550 C   0  0  0  0  0  1  0  0  0  0  0  0
  185.4760  179.6690  143.8640 C   0  0  0  0  0  1  0  0  0  0  0  0
  185.7420  178.2570  144.0670 N   0  0  0  0  0  0  0  0  0  0  0  0
  193.2150  172.1830  141.8960 C   0  0  0  0  0  2  0  0  0  0  0  0
  194.7020  172.2460  142.2200 C   0  0  0  0  0  2  0  0  0  0  0  0
  195.2040  173.6510  142.0780 C   0  0  0  0  0  0  0  0  0  0  0  0
  195.6370  175.9430  143.0090 C   0  0  0  0  0  2  0  0  0  0  0  0
  192.9300  175.1020  146.1910 C   0  0  2  0  0  3  0  0  0  0  0  0
  194.3790  174.2220  144.3830 C   0  0  0  0  0  2  0  0  0  0  0  0
  194.2800  177.0320  146.3090 O   0  0  0  0  0  0  0  0  0  0  0  0
  191.5590  174.8610  146.1290 O   0  0  0  0  0  1  0  0  0  0  0  0
  193.1860  176.4020  146.9130 C   0  0  0  0  0  2  0  0  0  0  0  0
  194.2010  176.6970  144.9480 C   0  0  1  0  0  3  0  0  0  0  0  0
  195.0700  174.5970  143.1500 N   0  0  0  0  0  0  0  0  0  0  0  0
  195.6070  176.6980  144.3370 C   0  0  0  0  0  2  0  0  0  0  0  0
  193.4610  175.3600  144.8150 C   0  0  2  0  0  3  0  0  0  0  0  0
  195.7320  174.0040  140.9850 O   0  0  0  0  0  0  0  0  0  0  0  0
  1  6  1  0  0  0  0
  1 11  1  0  0  0  0
  2  9  1  6  0  0  0
  4  3  1  6  0  0  0
  4  7  1  0  0  0  0
  4  2  1  0  0  0  0
  5 12  1  0  0  0  0
  5  3  1  0  0  0  0
  7  6  1  6  0  0  0
  7 13  1  0  0  0  0
  7  2  1  0  0  0  0
  8  5  2  0  0  0  0
  9 11  1  0  0  0  0
 10 13  1  0  0  0  0
 11 32  1  1  0  0  0
 12 10  1  0  0  0  0
 13 14  1  1  0  0  0
 14 16  1  0  0  0  0
 16 15  2  0  0  0  0
 16 20  1  0  0  0  0
 17 24  1  0  0  0  0
 18 17  1  0  0  0  0
 19 23  1  0  0  0  0
 20 18  2  0  0  0  0
 21 19  2  0  0  0  0
 22 21  1  0  0  0  0
 22 20  1  0  0  0  0
 23 17  2  0  0  0  0
 25 24  1  0  0  0  0
 26 25  1  0  0  0  0
 26 27  1  1  0  0  0
 28 26  1  0  0  0  0
 29 31  1  0  0  0  0
 30 31  1  0  0  0  0
 31 28  1  0  0  0  0
 32 33  1  0  0  0  0
 34 33  1  0  0  0  0
 34 42  1  0  0  0  0
 35 42  1  0  0  0  0
 35 43  1  0  0  0  0
 36 39  1  6  0  0  0
 36 40  1  0  0  0  0
 38 40  1  0  0  0  0
 41 43  1  1  0  0  0
 41 38  1  0  0  0  0
 42 37  1  0  0  0  0
 44 37  1  1  0  0  0
 44 41  1  0  0  0  0
 44 36  1  0  0  0  0
 45 34  2  0  0  0  0
M  END
>  <MODEL>
4

>  <REMARK>
 VINA RESULT:      -7.7      1.887      8.690
  Name = 
  10 active torsions:
  status: ('A' for Active; 'I' for Inactive)
    1  A    between atoms: C_1  and  O_42
    2  A    between atoms: N_2  and  C_44
    3  A    between atoms: C_3  and  C_38
    4  A    between atoms: C_8  and  C_38
    5  A    between atoms: C_8  and  C_40
    6  A    between atoms: C_14  and  N_28
    7  A    between atoms: C_14  and  C_29
    8  A    between atoms: C_23  and  C_29
    9  A    between atoms: C_23  and  O_42
   10  A    between atoms: C_24  and  C_31
                            x       y       z     vdW  Elec       q    Type
                         _______ _______ _______ _____ _____    ______ ____

>  <TORSDO>
F 10

$$$$
=
 OpenBabel11042415173D

 45 50  0  0  1  0  0  0  0  0999 V2000
  191.5740  177.9860  143.6890 C   0  0  0  0  0  2  0  0  0  0  0  0
  190.3130  175.8130  145.2550 N   0  0  2  0  0  0  0  0  0  0  0  0
  192.4010  176.7790  146.3450 O   0  0  0  0  0  0  0  0  0  0  0  0
  191.5310  175.6900  146.0830 C   0  0  2  0  0  3  0  0  0  0  0  0
  193.7760  176.4690  146.3260 C   0  0  0  0  0  0  0  0  0  0  0  0
  192.2070  176.5940  143.6490 C   0  0  0  0  0  2  0  0  0  0  0  0
  191.6290  175.5160  144.6200 C   0  0  2  0  0  0  0  0  0  0  0  0
  194.6240  177.3920  146.4420 O   0  0  0  0  0  0  0  0  0  0  0  0
  189.9000  177.2210  145.3000 C   0  0  0  0  0  2  0  0  0  0  0  0
  193.8380  174.3670  144.8010 C   0  0  0  0  0  2  0  0  0  0  0  0
  190.0860  177.9200  143.9690 C   0  0  2  0  0  3  0  0  0  0  0  0
  194.2500  175.0290  146.1460 C   0  0  0  0  0  2  0  0  0  0  0  0
  192.3100  174.1590  144.5870 C   0  0  2  0  0  3  0  0  0  0  0  0
  192.0840  173.5340  143.2940 N   0  0  0  0  0  2  0  0  0  0  0  0
  191.3420  171.5180  144.2010 O   0  0  0  0  0  0  0  0  0  0  0  0
  191.6060  172.1920  143.1670 C   0  0  0  0  0  0  0  0  0  0  0  0
  191.9900  171.5930  139.3940 C   0  0  0  0  0  0  0  0  0  0  0  0
  192.0690  172.1080  140.7790 C   0  0  0  0  0  3  0  0  0  0  0  0
  191.7490  169.2100  140.0030 C   0  0  0  0  0  3  0  0  0  0  0  0
  191.4100  171.6100  141.8280 C   0  0  0  0  0  0  0  0  0  0  0  0
  191.1160  169.2680  141.1740 C   0  0  0  0  0  3  0  0  0  0  0  0
  190.4260  170.4980  141.6480 C   0  0  0  0  0  2  0  0  0  0  0  0
  191.8780  170.3230  139.1010 N   0  0  0  0  0  0  0  0  0  0  0  0
  192.1060  172.5330  138.3660 O   0  0  0  0  0  0  0  0  0  0  0  0
  191.7210  172.2570  137.0230 C   0  0  0  0  0  2  0  0  0  0  0  0
  190.6630  173.2550  136.5930 C   0  0  2  0  0  3  0  0  0  0  0  0
  191.0250  174.5390  137.0210 O   0  0  0  0  0  1  0  0  0  0  0  0
  189.3200  172.8690  137.2070 C   0  0  0  0  0  2  0  0  0  0  0  0
  187.8180  174.5410  137.8540 C   0  0  0  0  0  1  0  0  0  0  0  0
  188.5620  172.9760  139.4100 C   0  0  0  0  0  1  0  0  0  0  0  0
  188.9830  173.7860  138.2820 N   0  0  0  0  0  0  0  0  0  0  0  0
  189.3230  177.2270  142.8440 C   0  0  0  0  0  2  0  0  0  0  0  0
  188.7190  178.2490  141.8890 C   0  0  0  0  0  2  0  0  0  0  0  0
  187.2670  177.9520  141.6640 C   0  0  0  0  0  0  0  0  0  0  0  0
  184.8710  177.9590  142.4150 C   0  0  0  0  0  2  0  0  0  0  0  0
  186.1890  178.5360  146.4270 C   0  0  2  0  0  3  0  0  0  0  0  0
  186.7120  178.6700  144.0080 C   0  0  0  0  0  2  0  0  0  0  0  0
  183.8960  178.7670  145.9250 O   0  0  0  0  0  0  0  0  0  0  0  0
  186.9400  177.6800  147.2290 O   0  0  0  0  0  1  0  0  0  0  0  0
  184.7960  178.6720  146.9920 C   0  0  0  0  0  2  0  0  0  0  0  0
  184.4370  177.9670  144.9050 C   0  0  1  0  0  3  0  0  0  0  0  0
  186.2930  178.1900  142.6920 N   0  0  0  0  0  0  0  0  0  0  0  0
  183.9930  178.5050  143.5410 C   0  0  0  0  0  2  0  0  0  0  0  0
  185.9590  177.9030  145.0900 C   0  0  2  0  0  3  0  0  0  0  0  0
  186.9090  177.4630  140.5540 O   0  0  0  0  0  0  0  0  0  0  0  0
  1 11  1  0  0  0  0
  2  9  1  6  0  0  0
  2  4  1  0  0  0  0
  4  3  1  6  0  0  0
  5  3  1  0  0  0  0
  5  8  2  0  0  0  0
  6  1  1  0  0  0  0
  7  6  1  6  0  0  0
  7  2  1  0  0  0  0
  7  4  1  0  0  0  0
 10 12  1  0  0  0  0
 11 32  1  6  0  0  0
 11  9  1  0  0  0  0
 12  5  1  0  0  0  0
 13 14  1  6  0  0  0
 13  7  1  0  0  0  0
 13 10  1  0  0  0  0
 16 14  1  0  0  0  0
 16 15  2  0  0  0  0
 17 18  1  0  0  0  0
 18 20  2  0  0  0  0
 19 21  2  0  0  0  0
 20 16  1  0  0  0  0
 21 22  1  0  0  0  0
 22 20  1  0  0  0  0
 23 17  2  0  0  0  0
 23 19  1  0  0  0  0
 24 17  1  0  0  0  0
 25 24  1  0  0  0  0
 26 27  1  1  0  0  0
 26 25  1  0  0  0  0
 26 28  1  0  0  0  0
 28 31  1  0  0  0  0
 29 31  1  0  0  0  0
 31 30  1  0  0  0  0
 33 32  1  0  0  0  0
 34 33  1  0  0  0  0
 34 42  1  0  0  0  0
 35 42  1  0  0  0  0
 35 43  1  0  0  0  0
 36 40  1  0  0  0  0
 36 39  1  1  0  0  0
 38 40  1  0  0  0  0
 41 43  1  6  0  0  0
 41 44  1  0  0  0  0
 41 38  1  0  0  0  0
 42 37  1  0  0  0  0
 44 37  1  6  0  0  0
 44 36  1  0  0  0  0
 45 34  2  0  0  0  0
M  END
>  <MODEL>
5

>  <REMARK>
 VINA RESULT:      -7.6      1.568      2.830
  Name = 
  10 active torsions:
  status: ('A' for Active; 'I' for Inactive)
    1  A    between atoms: C_1  and  O_42
    2  A    between atoms: N_2  and  C_44
    3  A    between atoms: C_3  and  C_38
    4  A    between atoms: C_8  and  C_38
    5  A    between atoms: C_8  and  C_40
    6  A    between atoms: C_14  and  N_28
    7  A    between atoms: C_14  and  C_29
    8  A    between atoms: C_23  and  C_29
    9  A    between atoms: C_23  and  O_42
   10  A    between atoms: C_24  and  C_31
                            x       y       z     vdW  Elec       q    Type
                         _______ _______ _______ _____ _____    ______ ____

>  <TORSDO>
F 10

$$$$
=
 OpenBabel11042415173D

 45 50  0  0  1  0  0  0  0  0999 V2000
  193.3360  172.5490  144.7600 C   0  0  0  0  0  2  0  0  0  0  0  0
  192.6530  174.4890  142.6320 N   0  0  2  0  0  0  0  0  0  0  0  0
  195.0640  174.6560  143.4300 O   0  0  0  0  0  0  0  0  0  0  0  0
  193.8830  175.2540  142.9210 C   0  0  2  0  0  3  0  0  0  0  0  0
  195.7460  175.4070  144.4080 C   0  0  0  0  0  0  0  0  0  0  0  0
  193.0780  174.0040  145.1540 C   0  0  0  0  0  2  0  0  0  0  0  0
  192.8960  175.0380  143.9970 C   0  0  2  0  0  0  0  0  0  0  0  0
  196.7430  174.9090  144.9920 O   0  0  0  0  0  0  0  0  0  0  0  0
  193.0540  173.0970  142.3930 C   0  0  0  0  0  2  0  0  0  0  0  0
  193.8450  176.8860  145.3800 C   0  0  0  0  0  2  0  0  0  0  0  0
  192.5930  172.1670  143.4970 C   0  0  2  0  0  3  0  0  0  0  0  0
  195.2780  176.8120  144.7820 C   0  0  0  0  0  2  0  0  0  0  0  0
  192.6870  176.4800  144.4220 C   0  0  2  0  0  3  0  0  0  0  0  0
  191.4180  176.6010  145.1200 N   0  0  0  0  0  2  0  0  0  0  0  0
  190.4210  177.8880  143.4490 O   0  0  0  0  0  0  0  0  0  0  0  0
  190.3170  177.3380  144.5810 C   0  0  0  0  0  0  0  0  0  0  0  0
  186.5630  177.6060  145.3450 C   0  0  0  0  0  0  0  0  0  0  0  0
  187.8940  177.5390  144.7010 C   0  0  0  0  0  3  0  0  0  0  0  0
  187.0940  176.0920  147.2250 C   0  0  0  0  0  3  0  0  0  0  0  0
  189.0590  177.4350  145.3430 C   0  0  0  0  0  0  0  0  0  0  0  0
  188.3980  176.2970  147.4090 C   0  0  0  0  0  3  0  0  0  0  0  0
  189.1080  177.4720  146.8380 C   0  0  0  0  0  2  0  0  0  0  0  0
  186.2500  176.9400  146.4260 N   0  0  0  0  0  0  0  0  0  0  0  0
  185.5930  178.3830  144.7060 O   0  0  0  0  0  0  0  0  0  0  0  0
  185.9050  179.2940  143.6570 C   0  0  0  0  0  2  0  0  0  0  0  0
  185.4970  178.6840  142.3300 C   0  0  2  0  0  3  0  0  0  0  0  0
  184.7540  177.5180  142.5550 O   0  0  0  0  0  1  0  0  0  0  0  0
  186.7460  178.3480  141.5200 C   0  0  0  0  0  2  0  0  0  0  0  0
  186.5950  177.1430  139.5220 C   0  0  0  0  0  1  0  0  0  0  0  0
  187.8710  176.3180  141.2870 C   0  0  0  0  0  1  0  0  0  0  0  0
  186.6350  177.0090  140.9670 N   0  0  0  0  0  0  0  0  0  0  0  0
  191.0790  172.2080  143.6880 C   0  0  0  0  0  2  0  0  0  0  0  0
  190.3790  171.3220  142.6660 C   0  0  0  0  0  2  0  0  0  0  0  0
  189.2750  172.0800  141.9930 C   0  0  0  0  0  0  0  0  0  0  0  0
  188.2210  173.0950  139.9530 C   0  0  0  0  0  2  0  0  0  0  0  0
  191.9810  172.8610  137.9610 C   0  0  2  0  0  3  0  0  0  0  0  0
  190.5420  172.0810  139.8220 C   0  0  0  0  0  2  0  0  0  0  0  0
  190.0510  173.3930  136.7150 O   0  0  0  0  0  0  0  0  0  0  0  0
  193.1710  173.5210  138.2640 O   0  0  0  0  0  1  0  0  0  0  0  0
  191.4470  173.3560  136.6390 C   0  0  0  0  0  2  0  0  0  0  0  0
  189.7560  173.7270  138.0470 C   0  0  1  0  0  3  0  0  0  0  0  0
  189.3500  172.4180  140.6000 N   0  0  0  0  0  0  0  0  0  0  0  0
  188.3970  173.1370  138.4350 C   0  0  0  0  0  2  0  0  0  0  0  0
  190.9180  173.2640  138.9350 C   0  0  2  0  0  3  0  0  0  0  0  0
  188.2770  172.4420  142.6790 O   0  0  0  0  0  0  0  0  0  0  0  0
  1  6  1  0  0  0  0
  2  9  1  1  0  0  0
  2  4  1  0  0  0  0
  2  7  1  0  0  0  0
  3  5  1  0  0  0  0
  4  3  1  1  0  0  0
  4  7  1  0  0  0  0
  5 12  1  0  0  0  0
  5  8  2  0  0  0  0
  7 13  1  0  0  0  0
  7  6  1  1  0  0  0
  9 11  1  0  0  0  0
 11 32  1  1  0  0  0
 11  1  1  0  0  0  0
 12 10  1  0  0  0  0
 13 14  1  1  0  0  0
 13 10  1  0  0  0  0
 15 16  2  0  0  0  0
 16 14  1  0  0  0  0
 16 20  1  0  0  0  0
 17 23  2  0  0  0  0
 18 20  2  0  0  0  0
 18 17  1  0  0  0  0
 19 21  2  0  0  0  0
 20 22  1  0  0  0  0
 22 21  1  0  0  0  0
 23 19  1  0  0  0  0
 24 17  1  0  0  0  0
 25 24  1  0  0  0  0
 26 27  1  1  0  0  0
 26 25  1  0  0  0  0
 28 26  1  0  0  0  0
 29 31  1  0  0  0  0
 31 30  1  0  0  0  0
 31 28  1  0  0  0  0
 33 32  1  0  0  0  0
 34 33  1  0  0  0  0
 34 45  2  0  0  0  0
 35 42  1  0  0  0  0
 36 39  1  1  0  0  0
 36 44  1  0  0  0  0
 37 42  1  0  0  0  0
 38 41  1  0  0  0  0
 40 38  1  0  0  0  0
 40 36  1  0  0  0  0
 41 43  1  1  0  0  0
 41 44  1  0  0  0  0
 42 34  1  0  0  0  0
 43 35  1  0  0  0  0
 44 37  1  6  0  0  0
M  END
>  <MODEL>
6

>  <REMARK>
 VINA RESULT:      -7.6      1.947      6.888
  Name = 
  10 active torsions:
  status: ('A' for Active; 'I' for Inactive)
    1  A    between atoms: C_1  and  O_42
    2  A    between atoms: N_2  and  C_44
    3  A    between atoms: C_3  and  C_38
    4  A    between atoms: C_8  and  C_38
    5  A    between atoms: C_8  and  C_40
    6  A    between atoms: C_14  and  N_28
    7  A    between atoms: C_14  and  C_29
    8  A    between atoms: C_23  and  C_29
    9  A    between atoms: C_23  and  O_42
   10  A    between atoms: C_24  and  C_31
                            x       y       z     vdW  Elec       q    Type
                         _______ _______ _______ _____ _____    ______ ____

>  <TORSDO>
F 10

$$$$
=
 OpenBabel11042415173D

 45 50  0  0  1  0  0  0  0  0999 V2000
  189.0660  172.3210  142.0860 C   0  0  0  0  0  2  0  0  0  0  0  0
  190.6650  172.8790  139.6580 N   0  0  2  0  0  0  0  0  0  0  0  0
  190.3460  170.3960  140.1230 O   0  0  0  0  0  0  0  0  0  0  0  0
  191.1210  171.4740  139.6250 C   0  0  2  0  0  3  0  0  0  0  0  0
  191.0680  169.4060  140.8200 C   0  0  0  0  0  0  0  0  0  0  0  0
  190.5860  172.1660  142.1610 C   0  0  0  0  0  2  0  0  0  0  0  0
  191.3850  172.2920  140.8250 C   0  0  2  0  0  0  0  0  0  0  0  0
  190.4490  168.4690  141.3890 O   0  0  0  0  0  0  0  0  0  0  0  0
  189.1980  172.8560  139.7030 C   0  0  0  0  0  2  0  0  0  0  0  0
  193.1530  170.7250  141.6310 C   0  0  0  0  0  2  0  0  0  0  0  0
  188.6540  173.3310  141.0350 C   0  0  2  0  0  3  0  0  0  0  0  0
  192.5900  169.4680  140.9110 C   0  0  0  0  0  2  0  0  0  0  0  0
  192.8860  172.0880  140.9280 C   0  0  2  0  0  3  0  0  0  0  0  0
  193.4690  173.1610  141.7160 N   0  0  0  0  0  2  0  0  0  0  0  0
  193.7180  174.5990  139.8970 O   0  0  0  0  0  0  0  0  0  0  0  0
  193.8810  174.4010  141.1330 C   0  0  0  0  0  0  0  0  0  0  0  0
  194.6680  176.5280  144.2310 C   0  0  0  0  0  0  0  0  0  0  0  0
  194.1190  175.5510  143.2650 C   0  0  0  0  0  3  0  0  0  0  0  0
  196.9680  176.5420  143.3250 C   0  0  0  0  0  3  0  0  0  0  0  0
  194.4780  175.4450  141.9830 C   0  0  0  0  0  0  0  0  0  0  0  0
  196.7770  176.2900  142.0310 C   0  0  0  0  0  3  0  0  0  0  0  0
  195.4440  176.4170  141.3830 C   0  0  0  0  0  2  0  0  0  0  0  0
  195.9190  176.9100  144.2390 N   0  0  0  0  0  0  0  0  0  0  0  0
  193.7940  177.0010  145.2130 O   0  0  0  0  0  0  0  0  0  0  0  0
  193.5260  176.2860  146.4150 C   0  0  0  0  0  2  0  0  0  0  0  0
  192.0410  176.3560  146.7150 C   0  0  2  0  0  3  0  0  0  0  0  0
  191.8380  176.9900  147.9460 O   0  0  0  0  0  1  0  0  0  0  0  0
  191.4640  174.9430  146.7630 C   0  0  0  0  0  2  0  0  0  0  0  0
  190.0010  173.6670  145.4600 C   0  0  0  0  0  1  0  0  0  0  0  0
  189.1880  174.8920  147.2670 C   0  0  0  0  0  1  0  0  0  0  0  0
  190.1380  174.9270  146.1700 N   0  0  0  0  0  0  0  0  0  0  0  0
  189.1270  174.7400  141.3790 C   0  0  0  0  0  2  0  0  0  0  0  0
  188.3910  175.2750  142.6010 C   0  0  0  0  0  2  0  0  0  0  0  0
  187.4400  176.3620  142.1980 C   0  0  0  0  0  0  0  0  0  0  0  0
  186.0710  178.4010  142.7200 C   0  0  0  0  0  2  0  0  0  0  0  0
  186.4580  177.5300  146.8740 C   0  0  2  0  0  3  0  0  0  0  0  0
  187.3040  177.1820  144.5700 C   0  0  0  0  0  2  0  0  0  0  0  0
  185.5700  179.6130  146.2130 O   0  0  0  0  0  0  0  0  0  0  0  0
  185.9740  176.4330  147.5830 O   0  0  0  0  0  1  0  0  0  0  0  0
  185.7480  178.7830  147.3250 C   0  0  0  0  0  2  0  0  0  0  0  0
  185.3750  178.7460  145.1250 C   0  0  1  0  0  3  0  0  0  0  0  0
  186.9410  177.3050  143.1590 N   0  0  0  0  0  0  0  0  0  0  0  0
  185.8600  179.4220  143.8380 C   0  0  0  0  0  2  0  0  0  0  0  0
  186.0680  177.4120  145.4330 C   0  0  2  0  0  3  0  0  0  0  0  0
  187.0610  176.4250  140.9940 O   0  0  0  0  0  0  0  0  0  0  0  0
  1  6  1  0  0  0  0
  2  9  1  1  0  0  0
  2  7  1  0  0  0  0
  3  5  1  0  0  0  0
  4  2  1  0  0  0  0
  4  3  1  1  0  0  0
  4  7  1  0  0  0  0
  5 12  1  0  0  0  0
  5  8  2  0  0  0  0
  7 13  1  0  0  0  0
  7  6  1  1  0  0  0
  9 11  1  0  0  0  0
 11 32  1  1  0  0  0
 11  1  1  0  0  0  0
 12 10  1  0  0  0  0
 13 10  1  0  0  0  0
 13 14  1  1  0  0  0
 15 16  2  0  0  0  0
 16 14  1  0  0  0  0
 16 20  1  0  0  0  0
 17 23  2  0  0  0  0
 17 24  1  0  0  0  0
 18 17  1  0  0  0  0
 19 23  1  0  0  0  0
 20 18  2  0  0  0  0
 21 19  2  0  0  0  0
 22 20  1  0  0  0  0
 22 21  1  0  0  0  0
 24 25  1  0  0  0  0
 25 26  1  0  0  0  0
 26 28  1  0  0  0  0
 26 27  1  1  0  0  0
 29 31  1  0  0  0  0
 31 28  1  0  0  0  0
 31 30  1  0  0  0  0
 32 33  1  0  0  0  0
 34 33  1  0  0  0  0
 34 42  1  0  0  0  0
 35 42  1  0  0  0  0
 35 43  1  0  0  0  0
 36 40  1  0  0  0  0
 36 39  1  1  0  0  0
 38 40  1  0  0  0  0
 41 43  1  6  0  0  0
 41 44  1  0  0  0  0
 41 38  1  0  0  0  0
 42 37  1  0  0  0  0
 44 37  1  6  0  0  0
 44 36  1  0  0  0  0
 45 34  2  0  0  0  0
M  END
>  <MODEL>
7

>  <REMARK>
 VINA RESULT:      -7.6      2.105      6.624
  Name = 
  10 active torsions:
  status: ('A' for Active; 'I' for Inactive)
    1  A    between atoms: C_1  and  O_42
    2  A    between atoms: N_2  and  C_44
    3  A    between atoms: C_3  and  C_38
    4  A    between atoms: C_8  and  C_38
    5  A    between atoms: C_8  and  C_40
    6  A    between atoms: C_14  and  N_28
    7  A    between atoms: C_14  and  C_29
    8  A    between atoms: C_23  and  C_29
    9  A    between atoms: C_23  and  O_42
   10  A    between atoms: C_24  and  C_31
                            x       y       z     vdW  Elec       q    Type
                         _______ _______ _______ _____ _____    ______ ____

>  <TORSDO>
F 10

$$$$
=
 OpenBabel11042415173D

 45 50  0  0  1  0  0  0  0  0999 V2000
  190.7450  177.5580  145.7360 C   0  0  0  0  0  2  0  0  0  0  0  0
  191.4090  174.8740  146.7950 N   0  0  2  0  0  0  0  0  0  0  0  0
  193.3870  176.4760  146.7590 O   0  0  0  0  0  0  0  0  0  0  0  0
  192.8500  175.1670  146.6590 C   0  0  2  0  0  3  0  0  0  0  0  0
  194.4170  176.7770  145.8450 C   0  0  0  0  0  0  0  0  0  0  0  0
  191.4890  176.5780  144.8270 C   0  0  0  0  0  2  0  0  0  0  0  0
  191.9820  175.2410  145.4680 C   0  0  2  0  0  0  0  0  0  0  0  0
  194.8780  177.9470  145.7890 O   0  0  0  0  0  0  0  0  0  0  0  0
  190.8190  175.9600  147.5870 C   0  0  0  0  0  2  0  0  0  0  0  0
  193.9300  175.1110  143.9120 C   0  0  0  0  0  2  0  0  0  0  0  0
  189.8980  176.8390  146.7650 C   0  0  2  0  0  3  0  0  0  0  0  0
  194.9670  175.7050  144.9070 C   0  0  0  0  0  2  0  0  0  0  0  0
  192.7570  174.3120  144.5500 C   0  0  2  0  0  3  0  0  0  0  0  0
  191.8780  173.8220  143.5010 N   0  0  0  0  0  2  0  0  0  0  0  0
  192.9260  171.7440  143.3490 O   0  0  0  0  0  0  0  0  0  0  0  0
  192.0250  172.5210  142.9270 C   0  0  0  0  0  0  0  0  0  0  0  0
  189.9740  172.5770  139.6800 C   0  0  0  0  0  0  0  0  0  0  0  0
  190.8420  172.9040  140.8330 C   0  0  0  0  0  3  0  0  0  0  0  0
  190.5800  170.1850  139.5530 C   0  0  0  0  0  3  0  0  0  0  0  0
  191.1100  172.0880  141.8550 C   0  0  0  0  0  0  0  0  0  0  0  0
  190.8550  169.8820  140.8210 C   0  0  0  0  0  3  0  0  0  0  0  0
  190.4430  170.7520  141.9550 C   0  0  0  0  0  2  0  0  0  0  0  0
  189.9120  171.3890  139.1380 N   0  0  0  0  0  0  0  0  0  0  0  0
  189.2420  173.6310  139.1250 O   0  0  0  0  0  0  0  0  0  0  0  0
  188.5500  173.5190  137.8860 C   0  0  0  0  0  2  0  0  0  0  0  0
  189.3830  174.1580  136.7910 C   0  0  2  0  0  3  0  0  0  0  0  0
  188.5770  175.0040  136.0190 O   0  0  0  0  0  1  0  0  0  0  0  0
  189.9800  173.0680  135.9060 C   0  0  0  0  0  2  0  0  0  0  0  0
  191.7750  174.3680  136.6510 C   0  0  0  0  0  1  0  0  0  0  0  0
  192.0280  172.0670  136.4000 C   0  0  0  0  0  1  0  0  0  0  0  0
  191.4190  173.2430  135.8050 N   0  0  0  0  0  0  0  0  0  0  0  0
  188.7680  176.0410  146.1200 C   0  0  0  0  0  2  0  0  0  0  0  0
  187.4760  176.1930  146.9140 C   0  0  0  0  0  2  0  0  0  0  0  0
  186.8860  177.5520  146.6860 C   0  0  0  0  0  0  0  0  0  0  0  0
  185.7130  179.2330  145.2350 C   0  0  0  0  0  2  0  0  0  0  0  0
  186.7050  176.8900  141.8150 C   0  0  2  0  0  3  0  0  0  0  0  0
  186.4310  176.9970  144.2760 C   0  0  0  0  0  2  0  0  0  0  0  0
  185.1730  178.6690  141.5870 O   0  0  0  0  0  0  0  0  0  0  0  0
  187.9630  176.6000  141.2920 O   0  0  0  0  0  1  0  0  0  0  0  0
  185.9390  177.7600  140.8480 C   0  0  0  0  0  2  0  0  0  0  0  0
  185.9330  178.9570  142.7320 C   0  0  1  0  0  3  0  0  0  0  0  0
  186.3510  177.9230  145.4060 N   0  0  0  0  0  0  0  0  0  0  0  0
  184.9970  179.3280  143.8870 C   0  0  0  0  0  2  0  0  0  0  0  0
  186.8480  177.7610  143.0240 C   0  0  2  0  0  3  0  0  0  0  0  0
  186.8850  178.3850  147.6370 O   0  0  0  0  0  0  0  0  0  0  0  0
  1 11  1  0  0  0  0
  2  9  1  1  0  0  0
  4  3  1  1  0  0  0
  4  2  1  0  0  0  0
  5  3  1  0  0  0  0
  6  1  1  0  0  0  0
  7  6  1  6  0  0  0
  7  4  1  0  0  0  0
  7  2  1  0  0  0  0
  8  5  2  0  0  0  0
 10 13  1  0  0  0  0
 10 12  1  0  0  0  0
 11 32  1  6  0  0  0
 11  9  1  0  0  0  0
 12  5  1  0  0  0  0
 13 14  1  6  0  0  0
 13  7  1  0  0  0  0
 16 15  2  0  0  0  0
 16 14  1  0  0  0  0
 17 18  1  0  0  0  0
 18 20  2  0  0  0  0
 19 21  2  0  0  0  0
 20 22  1  0  0  0  0
 20 16  1  0  0  0  0
 21 22  1  0  0  0  0
 23 19  1  0  0  0  0
 23 17  2  0  0  0  0
 24 17  1  0  0  0  0
 25 24  1  0  0  0  0
 26 27  1  6  0  0  0
 26 25  1  0  0  0  0
 28 26  1  0  0  0  0
 31 28  1  0  0  0  0
 31 30  1  0  0  0  0
 31 29  1  0  0  0  0
 32 33  1  0  0  0  0
 34 33  1  0  0  0  0
 34 45  2  0  0  0  0
 35 42  1  0  0  0  0
 36 39  1  6  0  0  0
 36 44  1  0  0  0  0
 37 42  1  0  0  0  0
 38 41  1  0  0  0  0
 40 38  1  0  0  0  0
 40 36  1  0  0  0  0
 41 44  1  0  0  0  0
 41 43  1  1  0  0  0
 42 34  1  0  0  0  0
 43 35  1  0  0  0  0
 44 37  1  1  0  0  0
M  END
>  <MODEL>
8

>  <REMARK>
 VINA RESULT:      -7.6      1.353      2.017
  Name = 
  10 active torsions:
  status: ('A' for Active; 'I' for Inactive)
    1  A    between atoms: C_1  and  O_42
    2  A    between atoms: N_2  and  C_44
    3  A    between atoms: C_3  and  C_38
    4  A    between atoms: C_8  and  C_38
    5  A    between atoms: C_8  and  C_40
    6  A    between atoms: C_14  and  N_28
    7  A    between atoms: C_14  and  C_29
    8  A    between atoms: C_23  and  C_29
    9  A    between atoms: C_23  and  O_42
   10  A    between atoms: C_24  and  C_31
                            x       y       z     vdW  Elec       q    Type
                         _______ _______ _______ _____ _____    ______ ____

>  <TORSDO>
F 10

$$$$
=
 OpenBabel11042415173D

 45 50  0  0  1  0  0  0  0  0999 V2000
  190.9900  177.4970  144.5940 C   0  0  0  0  0  2  0  0  0  0  0  0
  191.3030  174.5600  144.7990 N   0  0  2  0  0  0  0  0  0  0  0  0
  192.8390  175.8630  146.3560 O   0  0  0  0  0  0  0  0  0  0  0  0
  192.5720  174.7380  145.5350 C   0  0  2  0  0  3  0  0  0  0  0  0
  194.1520  176.3680  146.2770 C   0  0  0  0  0  0  0  0  0  0  0  0
  192.1930  176.8420  143.9140 C   0  0  0  0  0  2  0  0  0  0  0  0
  192.4310  175.3220  144.1870 C   0  0  2  0  0  0  0  0  0  0  0  0
  194.4490  177.4280  146.8880 O   0  0  0  0  0  0  0  0  0  0  0  0
  190.2800  175.3410  145.5050 C   0  0  0  0  0  2  0  0  0  0  0  0
  194.9000  175.5690  143.9220 C   0  0  0  0  0  2  0  0  0  0  0  0
  189.8190  176.5430  144.7070 C   0  0  2  0  0  3  0  0  0  0  0  0
  195.2140  175.6580  145.4420 C   0  0  0  0  0  2  0  0  0  0  0  0
  193.6580  174.7140  143.5330 C   0  0  2  0  0  3  0  0  0  0  0  0
  193.4960  174.7260  142.0890 N   0  0  0  0  0  2  0  0  0  0  0  0
  194.6690  172.7370  141.7640 O   0  0  0  0  0  0  0  0  0  0  0  0
  194.0420  173.7040  141.2500 C   0  0  0  0  0  0  0  0  0  0  0  0
  192.3160  174.0930  137.8420 C   0  0  0  0  0  0  0  0  0  0  0  0
  192.6340  173.9630  139.2810 C   0  0  0  0  0  3  0  0  0  0  0  0
  194.3840  175.2940  137.2150 C   0  0  0  0  0  3  0  0  0  0  0  0
  193.8550  173.7800  139.7910 C   0  0  0  0  0  0  0  0  0  0  0  0
  195.2740  174.8250  138.0890 C   0  0  0  0  0  3  0  0  0  0  0  0
  195.0330  173.5940  138.8880 C   0  0  0  0  0  2  0  0  0  0  0  0
  193.0930  174.7030  136.9840 N   0  0  0  0  0  0  0  0  0  0  0  0
  191.0860  173.5810  137.4200 O   0  0  0  0  0  0  0  0  0  0  0  0
  190.3580  172.6130  138.1680 C   0  0  0  0  0  2  0  0  0  0  0  0
  188.9990  173.1810  138.5280 C   0  0  2  0  0  3  0  0  0  0  0  0
  188.6400  174.1680  137.6020 O   0  0  0  0  0  1  0  0  0  0  0  0
  189.0550  173.7850  139.9280 C   0  0  0  0  0  2  0  0  0  0  0  0
  190.1310  172.8460  141.7800 C   0  0  0  0  0  1  0  0  0  0  0  0
  187.8110  173.0430  141.7570 C   0  0  0  0  0  1  0  0  0  0  0  0
  188.9610  172.7340  140.9270 N   0  0  0  0  0  0  0  0  0  0  0  0
  189.2680  176.1480  143.3390 C   0  0  0  0  0  2  0  0  0  0  0  0
  188.9610  177.3830  142.5020 C   0  0  0  0  0  2  0  0  0  0  0  0
  187.5070  177.4140  142.1400 C   0  0  0  0  0  0  0  0  0  0  0  0
  185.1120  177.9530  142.6720 C   0  0  0  0  0  2  0  0  0  0  0  0
  186.1480  178.2280  146.7970 C   0  0  2  0  0  3  0  0  0  0  0  0
  186.9090  178.2400  144.4380 C   0  0  0  0  0  2  0  0  0  0  0  0
  184.0190  178.9600  146.0940 O   0  0  0  0  0  0  0  0  0  0  0  0
  186.6140  177.2270  147.6470 O   0  0  0  0  0  1  0  0  0  0  0  0
  184.7730  178.6690  147.2360 C   0  0  0  0  0  2  0  0  0  0  0  0
  184.4620  178.0590  145.1120 C   0  0  1  0  0  3  0  0  0  0  0  0
  186.5180  177.8630  143.0800 N   0  0  0  0  0  0  0  0  0  0  0  0
  184.2750  178.6800  143.7240 C   0  0  0  0  0  2  0  0  0  0  0  0
  185.9080  177.6600  145.4320 C   0  0  2  0  0  3  0  0  0  0  0  0
  187.1540  177.0150  140.9940 O   0  0  0  0  0  0  0  0  0  0  0  0
  1 11  1  0  0  0  0
  2  9  1  1  0  0  0
  2  4  1  0  0  0  0
  4  3  1  1  0  0  0
  5  3  1  0  0  0  0
  5  8  2  0  0  0  0
  6  1  1  0  0  0  0
  7  6  1  6  0  0  0
  7  2  1  0  0  0  0
  7  4  1  0  0  0  0
 10 12  1  0  0  0  0
 11 32  1  6  0  0  0
 11  9  1  0  0  0  0
 12  5  1  0  0  0  0
 13 14  1  6  0  0  0
 13 10  1  0  0  0  0
 13  7  1  0  0  0  0
 16 15  2  0  0  0  0
 16 14  1  0  0  0  0
 17 18  1  0  0  0  0
 18 20  2  0  0  0  0
 19 21  2  0  0  0  0
 20 16  1  0  0  0  0
 21 22  1  0  0  0  0
 22 20  1  0  0  0  0
 23 19  1  0  0  0  0
 23 17  2  0  0  0  0
 24 17  1  0  0  0  0
 24 25  1  0  0  0  0
 25 26  1  0  0  0  0
 26 27  1  6  0  0  0
 26 28  1  0  0  0  0
 28 31  1  0  0  0  0
 31 30  1  0  0  0  0
 31 29  1  0  0  0  0
 33 32  1  0  0  0  0
 34 33  1  0  0  0  0
 34 42  1  0  0  0  0
 35 42  1  0  0  0  0
 35 43  1  0  0  0  0
 36 40  1  0  0  0  0
 36 39  1  1  0  0  0
 38 40  1  0  0  0  0
 41 43  1  6  0  0  0
 41 44  1  0  0  0  0
 41 38  1  0  0  0  0
 42 37  1  0  0  0  0
 44 37  1  6  0  0  0
 44 36  1  0  0  0  0
 45 34  2  0  0  0  0
M  END
>  <MODEL>
9

>  <REMARK>
 VINA RESULT:      -7.5      2.070      3.407
  Name = 
  10 active torsions:
  status: ('A' for Active; 'I' for Inactive)
    1  A    between atoms: C_1  and  O_42
    2  A    between atoms: N_2  and  C_44
    3  A    between atoms: C_3  and  C_38
    4  A    between atoms: C_8  and  C_38
    5  A    between atoms: C_8  and  C_40
    6  A    between atoms: C_14  and  N_28
    7  A    between atoms: C_14  and  C_29
    8  A    between atoms: C_23  and  C_29
    9  A    between atoms: C_23  and  O_42
   10  A    between atoms: C_24  and  C_31
                            x       y       z     vdW  Elec       q    Type
                         _______ _______ _______ _____ _____    ______ ____

>  <TORSDO>
F 10

$$$$
