=
 OpenBabel11042417373D

 33 35  0  0  1  0  0  0  0  0999 V2000
  189.8420  176.9630  145.7640 C   0  0  1  0  0  3  0  0  0  0  0  0
  189.2500  176.8220  144.3960 C   0  0  0  0  0  0  0  0  0  0  0  0
  187.2930  175.6640  142.3950 C   0  0  0  0  0  3  0  0  0  0  0  0
  188.5180  175.0130  142.8980 C   0  0  0  0  0  3  0  0  0  0  0  0
  187.1380  176.9820  142.2320 C   0  0  0  0  0  0  0  0  0  0  0  0
  188.3040  177.9020  142.4200 C   0  0  0  0  0  2  0  0  0  0  0  0
  188.7730  177.8750  143.7940 N   0  0  0  0  0  0  0  0  0  0  0  0
  189.3450  175.5380  143.7540 N   0  0  0  0  0  0  0  0  0  0  0  0
  183.7810  178.1750  141.6750 C   0  0  0  0  0  3  0  0  0  0  0  0
  185.8820  177.5010  141.7620 N   0  0  0  0  0  0  0  0  0  0  0  0
  184.7630  177.6470  142.4960 C   0  0  0  0  0  3  0  0  0  0  0  0
  185.6670  177.9070  140.5220 N   0  0  0  0  0  0  0  0  0  0  0  0
  184.3900  178.3240  140.4380 C   0  0  0  0  0  3  0  0  0  0  0  0
  188.7450  177.2960  146.7610 C   0  0  0  0  0  2  0  0  0  0  0  0
  187.8060  176.1900  146.8480 N   0  0  0  0  0  2  0  0  0  0  0  0
  186.5250  176.7490  147.2410 C   0  0  0  0  0  2  0  0  0  0  0  0
  186.4560  178.2310  146.8880 C   0  0  0  0  0  2  0  0  0  0  0  0
  184.0930  178.5860  146.1640 C   0  0  0  0  0  1  0  0  0  0  0  0
  185.9020  179.6650  145.0720 O   0  0  0  0  0  1  0  0  0  0  0  0
  185.5350  178.4800  145.7040 C   0  0  1  0  0  3  0  0  0  0  0  0
  190.5240  175.7380  146.1670 N   0  0  0  0  0  2  0  0  0  0  0  0
  191.8210  176.1000  146.7170 C   0  0  0  0  0  2  0  0  0  0  0  0
  192.6590  175.2310  144.6120 O   0  0  0  0  0  0  0  0  0  0  0  0
  195.2990  175.5470  145.2710 C   0  0  0  0  0  2  0  0  0  0  0  0
  194.8000  176.1200  143.9360 C   0  0  2  0  0  3  0  0  0  0  0  0
  192.9040  175.3040  146.0110 C   0  0  1  0  0  3  0  0  0  0  0  0
  194.3090  175.8090  146.4020 C   0  0  0  0  0  2  0  0  0  0  0  0
  192.7620  176.4830  142.6980 F   0  0  0  0  0  0  0  0  0  0  0  0
  193.2770  176.3220  143.9710 C   0  0  1  0  0  3  0  0  0  0  0  0
  196.1010  174.8110  140.7700 O   0  0  0  0  0  0  0  0  0  0  0  0
  195.1600  175.2080  142.8570 N   0  0  0  0  0  2  0  0  0  0  0  0
  195.7650  175.6530  141.6410 C   0  0  0  0  0  0  0  0  0  0  0  0
  195.9810  177.0060  141.4130 O   0  0  0  0  0  1  0  0  0  0  0  0
  1 21  1  0  0  0  0
  1 14  1  1  0  0  0
  2  1  1  0  0  0  0
  3  4  1  0  0  0  0
  4  8  2  0  0  0  0
  5  3  2  0  0  0  0
  5  6  1  0  0  0  0
  6  7  1  0  0  0  0
  7  2  2  0  0  0  0
  8  2  1  0  0  0  0
  9 11  2  0  0  0  0
 10  5  1  0  0  0  0
 10 11  1  0  0  0  0
 12 10  1  0  0  0  0
 13 12  2  0  0  0  0
 13  9  1  0  0  0  0
 14 15  1  0  0  0  0
 15 16  1  0  0  0  0
 17 16  1  0  0  0  0
 19 20  1  0  0  0  0
 20 18  1  1  0  0  0
 20 17  1  0  0  0  0
 21 22  1  0  0  0  0
 23 26  1  0  0  0  0
 24 27  1  0  0  0  0
 25 31  1  6  0  0  0
 25 29  1  0  0  0  0
 25 24  1  0  0  0  0
 26 27  1  0  0  0  0
 26 22  1  1  0  0  0
 29 28  1  6  0  0  0
 29 23  1  0  0  0  0
 30 32  2  0  0  0  0
 32 31  1  0  0  0  0
 33 32  1  0  0  0  0
M  END
>  <MODEL>
1

>  <REMARK>
 VINA RESULT:      -6.9      0.000      0.000
  Name = 
  11 active torsions:
  status: ('A' for Active; 'I' for Inactive)
    1  A    between atoms: C_2  and  C_3
    2  A    between atoms: C_2  and  C_8
    3  A    between atoms: C_2  and  N_23
    4  A    between atoms: C_8  and  N_25
    5  A    between atoms: C_10  and  N_12
    6  A    between atoms: C_11  and  C_26
    7  A    between atoms: C_13  and  N_16
    8  A    between atoms: C_21  and  C_33
    9  A    between atoms: C_22  and  N_25
   10  A    between atoms: C_22  and  C_33
   11  A    between atoms: N_23  and  C_26
                            x       y       z     vdW  Elec       q    Type
                         _______ _______ _______ _____ _____    ______ ____

>  <TORSDO>
F 11

$$$$
=
 OpenBabel11042417373D

 33 35  0  0  1  0  0  0  0  0999 V2000
  193.2520  174.8510  145.5990 C   0  0  1  0  0  3  0  0  0  0  0  0
  192.2690  174.5700  144.5050 C   0  0  0  0  0  0  0  0  0  0  0  0
  189.4840  174.0640  143.4260 C   0  0  0  0  0  3  0  0  0  0  0  0
  190.3490  173.0830  144.1090 C   0  0  0  0  0  3  0  0  0  0  0  0
  189.9220  175.0670  142.6580 C   0  0  0  0  0  0  0  0  0  0  0  0
  191.3750  175.1660  142.3110 C   0  0  0  0  0  2  0  0  0  0  0  0
  192.1790  175.3940  143.4990 N   0  0  0  0  0  0  0  0  0  0  0  0
  191.5460  173.3270  144.5570 N   0  0  0  0  0  0  0  0  0  0  0  0
  187.2550  176.8050  140.9640 C   0  0  0  0  0  3  0  0  0  0  0  0
  188.9790  175.9800  142.0690 N   0  0  0  0  0  0  0  0  0  0  0  0
  187.8940  175.6380  141.3490 C   0  0  0  0  0  3  0  0  0  0  0  0
  189.0650  177.2960  142.1640 N   0  0  0  0  0  0  0  0  0  0  0  0
  188.0240  177.8280  141.4970 C   0  0  0  0  0  3  0  0  0  0  0  0
  193.9970  176.1400  145.2940 C   0  0  0  0  0  2  0  0  0  0  0  0
  195.4050  175.8540  145.0730 N   0  0  0  0  0  2  0  0  0  0  0  0
  195.7410  176.3660  143.7560 C   0  0  0  0  0  2  0  0  0  0  0  0
  195.7280  175.2430  142.7250 C   0  0  0  0  0  2  0  0  0  0  0  0
  195.4630  175.1040  140.2460 C   0  0  0  0  0  1  0  0  0  0  0  0
  196.1760  177.1020  141.3080 O   0  0  0  0  0  1  0  0  0  0  0  0
  196.2630  175.7140  141.3810 C   0  0  1  0  0  3  0  0  0  0  0  0
  192.5800  174.9590  146.8900 N   0  0  0  0  0  2  0  0  0  0  0  0
  192.1820  176.3450  147.0790 C   0  0  0  0  0  2  0  0  0  0  0  0
  190.0310  177.4660  146.9770 O   0  0  0  0  0  0  0  0  0  0  0  0
  188.5650  175.1710  147.2610 C   0  0  0  0  0  2  0  0  0  0  0  0
  188.2320  176.1170  146.0980 C   0  0  2  0  0  3  0  0  0  0  0  0
  190.7460  176.3900  147.5720 C   0  0  1  0  0  3  0  0  0  0  0  0
  190.0710  175.0080  147.4430 C   0  0  0  0  0  2  0  0  0  0  0  0
  189.0520  178.1080  145.0100 F   0  0  0  0  0  0  0  0  0  0  0  0
  189.4310  177.0260  145.7820 C   0  0  1  0  0  3  0  0  0  0  0  0
  184.9650  177.7710  145.9530 O   0  0  0  0  0  1  0  0  0  0  0  0
  187.0710  176.9240  146.4510 N   0  0  0  0  0  2  0  0  0  0  0  0
  185.9620  177.1070  145.5690 C   0  0  0  0  0  0  0  0  0  0  0  0
  185.9760  176.5610  144.2930 O   0  0  0  0  0  0  0  0  0  0  0  0
  1 14  1  6  0  0  0
  1 21  1  0  0  0  0
  2  8  1  0  0  0  0
  2  1  1  0  0  0  0
  3  4  1  0  0  0  0
  4  8  2  0  0  0  0
  5  3  2  0  0  0  0
  6  5  1  0  0  0  0
  6  7  1  0  0  0  0
  7  2  2  0  0  0  0
  9 11  2  0  0  0  0
  9 13  1  0  0  0  0
 10 12  1  0  0  0  0
 10  5  1  0  0  0  0
 11 10  1  0  0  0  0
 13 12  2  0  0  0  0
 15 14  1  0  0  0  0
 16 15  1  0  0  0  0
 17 16  1  0  0  0  0
 19 20  1  0  0  0  0
 20 18  1  6  0  0  0
 20 17  1  0  0  0  0
 21 22  1  0  0  0  0
 23 26  1  0  0  0  0
 24 27  1  0  0  0  0
 25 31  1  1  0  0  0
 25 24  1  0  0  0  0
 26 22  1  6  0  0  0
 27 26  1  0  0  0  0
 29 28  1  1  0  0  0
 29 25  1  0  0  0  0
 29 23  1  0  0  0  0
 32 30  1  0  0  0  0
 32 31  1  0  0  0  0
 33 32  2  0  0  0  0
M  END
>  <MODEL>
2

>  <REMARK>
 VINA RESULT:      -6.7      2.202      6.903
  Name = 
  11 active torsions:
  status: ('A' for Active; 'I' for Inactive)
    1  A    between atoms: C_2  and  C_3
    2  A    between atoms: C_2  and  C_8
    3  A    between atoms: C_2  and  N_23
    4  A    between atoms: C_8  and  N_25
    5  A    between atoms: C_10  and  N_12
    6  A    between atoms: C_11  and  C_26
    7  A    between atoms: C_13  and  N_16
    8  A    between atoms: C_21  and  C_33
    9  A    between atoms: C_22  and  N_25
   10  A    between atoms: C_22  and  C_33
   11  A    between atoms: N_23  and  C_26
                            x       y       z     vdW  Elec       q    Type
                         _______ _______ _______ _____ _____    ______ ____

>  <TORSDO>
F 11

$$$$
=
 OpenBabel11042417373D

 33 35  0  0  1  0  0  0  0  0999 V2000
  191.9220  174.4740  144.2070 C   0  0  1  0  0  3  0  0  0  0  0  0
  190.7940  174.7490  143.2630 C   0  0  0  0  0  0  0  0  0  0  0  0
  187.9100  174.5610  142.3550 C   0  0  0  0  0  3  0  0  0  0  0  0
  188.9410  173.5130  142.2180 C   0  0  0  0  0  3  0  0  0  0  0  0
  188.1460  175.8760  142.3210 C   0  0  0  0  0  0  0  0  0  0  0  0
  189.5120  176.3830  141.9770 C   0  0  0  0  0  2  0  0  0  0  0  0
  190.4830  175.9830  142.9800 N   0  0  0  0  0  0  0  0  0  0  0  0
  190.1760  173.6240  142.6120 N   0  0  0  0  0  0  0  0  0  0  0  0
  185.8050  178.6160  142.4170 C   0  0  0  0  0  3  0  0  0  0  0  0
  187.0600  176.8010  142.4970 N   0  0  0  0  0  0  0  0  0  0  0  0
  187.0160  178.0650  142.0350 C   0  0  0  0  0  3  0  0  0  0  0  0
  185.9450  176.5190  143.1490 N   0  0  0  0  0  0  0  0  0  0  0  0
  185.1580  177.6100  143.1190 C   0  0  0  0  0  3  0  0  0  0  0  0
  192.9250  175.6150  144.1490 C   0  0  0  0  0  2  0  0  0  0  0  0
  194.1800  175.1400  143.5900 N   0  0  0  0  0  2  0  0  0  0  0  0
  195.2470  175.7730  144.3430 C   0  0  0  0  0  2  0  0  0  0  0  0
  195.5450  174.9860  145.6150 C   0  0  0  0  0  2  0  0  0  0  0  0
  197.6940  174.3840  144.4950 C   0  0  0  0  0  1  0  0  0  0  0  0
  197.0710  173.4350  146.5780 O   0  0  0  0  0  1  0  0  0  0  0  0
  196.5570  173.8790  145.3630 C   0  0  1  0  0  3  0  0  0  0  0  0
  191.4330  174.3120  145.5730 N   0  0  0  0  0  2  0  0  0  0  0  0
  191.8080  175.4950  146.3310 C   0  0  0  0  0  2  0  0  0  0  0  0
  190.1340  177.2190  146.6750 O   0  0  0  0  0  0  0  0  0  0  0  0
  188.1620  175.4730  147.4270 C   0  0  0  0  0  2  0  0  0  0  0  0
  187.8570  176.4970  146.3230 C   0  0  2  0  0  3  0  0  0  0  0  0
  190.6150  175.9660  147.1450 C   0  0  1  0  0  3  0  0  0  0  0  0
  189.5480  174.8570  147.2580 C   0  0  0  0  0  2  0  0  0  0  0  0
  188.9460  178.1630  144.9600 F   0  0  0  0  0  0  0  0  0  0  0  0
  189.1590  177.0030  145.6820 C   0  0  1  0  0  3  0  0  0  0  0  0
  185.1030  178.5930  147.5270 O   0  0  0  0  0  1  0  0  0  0  0  0
  187.1120  177.6120  146.8930 N   0  0  0  0  0  2  0  0  0  0  0  0
  185.6860  177.6240  146.9750 C   0  0  0  0  0  0  0  0  0  0  0  0
  184.9380  176.5790  146.4500 O   0  0  0  0  0  0  0  0  0  0  0  0
  1 14  1  1  0  0  0
  1 21  1  0  0  0  0
  2  1  1  0  0  0  0
  4  3  1  0  0  0  0
  4  8  2  0  0  0  0
  5  3  2  0  0  0  0
  5 10  1  0  0  0  0
  6  5  1  0  0  0  0
  6  7  1  0  0  0  0
  7  2  2  0  0  0  0
  8  2  1  0  0  0  0
  9 13  1  0  0  0  0
 10 12  1  0  0  0  0
 11  9  2  0  0  0  0
 11 10  1  0  0  0  0
 13 12  2  0  0  0  0
 15 14  1  0  0  0  0
 15 16  1  0  0  0  0
 16 17  1  0  0  0  0
 20 18  1  6  0  0  0
 20 17  1  0  0  0  0
 20 19  1  0  0  0  0
 21 22  1  0  0  0  0
 23 26  1  0  0  0  0
 25 31  1  1  0  0  0
 25 24  1  0  0  0  0
 26 22  1  6  0  0  0
 26 27  1  0  0  0  0
 27 24  1  0  0  0  0
 29 28  1  1  0  0  0
 29 25  1  0  0  0  0
 29 23  1  0  0  0  0
 31 32  1  0  0  0  0
 32 30  1  0  0  0  0
 33 32  2  0  0  0  0
M  END
>  <MODEL>
3

>  <REMARK>
 VINA RESULT:      -6.6      2.391      6.962
  Name = 
  11 active torsions:
  status: ('A' for Active; 'I' for Inactive)
    1  A    between atoms: C_2  and  C_3
    2  A    between atoms: C_2  and  C_8
    3  A    between atoms: C_2  and  N_23
    4  A    between atoms: C_8  and  N_25
    5  A    between atoms: C_10  and  N_12
    6  A    between atoms: C_11  and  C_26
    7  A    between atoms: C_13  and  N_16
    8  A    between atoms: C_21  and  C_33
    9  A    between atoms: C_22  and  N_25
   10  A    between atoms: C_22  and  C_33
   11  A    between atoms: N_23  and  C_26
                            x       y       z     vdW  Elec       q    Type
                         _______ _______ _______ _____ _____    ______ ____

>  <TORSDO>
F 11

$$$$
=
 OpenBabel11042417373D

 33 35  0  0  1  0  0  0  0  0999 V2000
  186.8210  176.7960  143.5570 C   0  0  1  0  0  3  0  0  0  0  0  0
  187.8720  176.8220  144.6230 C   0  0  0  0  0  0  0  0  0  0  0  0
  189.7500  175.5200  146.6110 C   0  0  0  0  0  3  0  0  0  0  0  0
  188.3030  175.7460  146.7930 C   0  0  0  0  0  3  0  0  0  0  0  0
  190.5650  176.3120  145.9080 C   0  0  0  0  0  0  0  0  0  0  0  0
  190.0620  177.6120  145.3620 C   0  0  0  0  0  2  0  0  0  0  0  0
  189.0170  177.3930  144.3770 N   0  0  0  0  0  0  0  0  0  0  0  0
  187.5200  176.3150  145.9220 N   0  0  0  0  0  0  0  0  0  0  0  0
  193.8710  174.8730  145.8520 C   0  0  0  0  0  3  0  0  0  0  0  0
  191.9560  175.9690  145.7780 N   0  0  0  0  0  0  0  0  0  0  0  0
  192.5190  174.8010  146.1400 C   0  0  0  0  0  3  0  0  0  0  0  0
  192.8740  176.7780  145.2760 N   0  0  0  0  0  0  0  0  0  0  0  0
  194.0560  176.1360  145.3090 C   0  0  0  0  0  3  0  0  0  0  0  0
  186.9890  178.0020  142.6470 C   0  0  0  0  0  2  0  0  0  0  0  0
  185.7180  178.6920  142.5030 N   0  0  0  0  0  2  0  0  0  0  0  0
  185.5550  179.5350  143.6730 C   0  0  0  0  0  2  0  0  0  0  0  0
  184.2980  179.1460  144.4440 C   0  0  0  0  0  2  0  0  0  0  0  0
  184.3380  177.5840  146.3910 C   0  0  0  0  0  1  0  0  0  0  0  0
  185.9000  179.3570  146.1910 O   0  0  0  0  0  1  0  0  0  0  0  0
  184.5770  179.0090  145.9330 C   0  0  1  0  0  3  0  0  0  0  0  0
  186.9010  175.5680  142.7730 N   0  0  0  0  0  2  0  0  0  0  0  0
  187.7420  175.8240  141.6140 C   0  0  0  0  0  2  0  0  0  0  0  0
  189.9130  174.7690  141.3560 O   0  0  0  0  0  0  0  0  0  0  0  0
  189.0810  172.3180  142.2540 C   0  0  0  0  0  2  0  0  0  0  0  0
  190.3340  172.9470  142.8830 C   0  0  2  0  0  3  0  0  0  0  0  0
  188.5080  174.5610  141.2630 C   0  0  1  0  0  3  0  0  0  0  0  0
  187.9740  173.3490  142.0540 C   0  0  0  0  0  2  0  0  0  0  0  0
  191.6010  174.9990  142.8860 F   0  0  0  0  0  0  0  0  0  0  0  0
  190.3440  174.4670  142.6620 C   0  0  1  0  0  3  0  0  0  0  0  0
  193.4960  171.1350  142.4910 O   0  0  0  0  0  0  0  0  0  0  0  0
  191.5220  172.3460  142.2900 N   0  0  0  0  0  2  0  0  0  0  0  0
  192.5190  171.6800  143.0670 C   0  0  0  0  0  0  0  0  0  0  0  0
  192.4220  171.6320  144.4510 O   0  0  0  0  0  1  0  0  0  0  0  0
  1 14  1  6  0  0  0
  1  2  1  0  0  0  0
  2  8  1  0  0  0  0
  3  4  1  0  0  0  0
  5  3  2  0  0  0  0
  6  5  1  0  0  0  0
  7  2  2  0  0  0  0
  7  6  1  0  0  0  0
  8  4  2  0  0  0  0
  9 11  2  0  0  0  0
 10  5  1  0  0  0  0
 10 11  1  0  0  0  0
 12 13  2  0  0  0  0
 12 10  1  0  0  0  0
 13  9  1  0  0  0  0
 15 14  1  0  0  0  0
 15 16  1  0  0  0  0
 16 17  1  0  0  0  0
 17 20  1  0  0  0  0
 20 19  1  0  0  0  0
 20 18  1  6  0  0  0
 21  1  1  0  0  0  0
 22 21  1  0  0  0  0
 23 29  1  0  0  0  0
 24 25  1  0  0  0  0
 25 31  1  6  0  0  0
 26 23  1  0  0  0  0
 26 22  1  1  0  0  0
 26 27  1  0  0  0  0
 27 24  1  0  0  0  0
 29 25  1  0  0  0  0
 29 28  1  6  0  0  0
 30 32  2  0  0  0  0
 31 32  1  0  0  0  0
 32 33  1  0  0  0  0
M  END
>  <MODEL>
4

>  <REMARK>
 VINA RESULT:      -6.5      2.381      5.715
  Name = 
  11 active torsions:
  status: ('A' for Active; 'I' for Inactive)
    1  A    between atoms: C_2  and  C_3
    2  A    between atoms: C_2  and  C_8
    3  A    between atoms: C_2  and  N_23
    4  A    between atoms: C_8  and  N_25
    5  A    between atoms: C_10  and  N_12
    6  A    between atoms: C_11  and  C_26
    7  A    between atoms: C_13  and  N_16
    8  A    between atoms: C_21  and  C_33
    9  A    between atoms: C_22  and  N_25
   10  A    between atoms: C_22  and  C_33
   11  A    between atoms: N_23  and  C_26
                            x       y       z     vdW  Elec       q    Type
                         _______ _______ _______ _____ _____    ______ ____

>  <TORSDO>
F 11

$$$$
=
 OpenBabel11042417373D

 33 35  0  0  1  0  0  0  0  0999 V2000
  184.5550  178.6710  142.0830 C   0  0  1  0  0  3  0  0  0  0  0  0
  185.8650  178.1350  141.5940 C   0  0  0  0  0  0  0  0  0  0  0  0
  188.5930  176.8760  141.9790 C   0  0  0  0  0  3  0  0  0  0  0  0
  188.2450  178.2940  142.1980 C   0  0  0  0  0  3  0  0  0  0  0  0
  188.0260  176.0800  141.0680 C   0  0  0  0  0  0  0  0  0  0  0  0
  187.0640  176.6480  140.0710 C   0  0  0  0  0  2  0  0  0  0  0  0
  185.8750  177.1600  140.7290 N   0  0  0  0  0  0  0  0  0  0  0  0
  187.0640  178.8090  142.0170 N   0  0  0  0  0  0  0  0  0  0  0  0
  189.1900  172.7810  140.1950 C   0  0  0  0  0  3  0  0  0  0  0  0
  188.4300  174.7030  140.9710 N   0  0  0  0  0  0  0  0  0  0  0  0
  188.9300  174.1030  139.8750 C   0  0  0  0  0  3  0  0  0  0  0  0
  188.3590  173.8390  141.9690 N   0  0  0  0  0  0  0  0  0  0  0  0
  188.8150  172.6530  141.5250 C   0  0  0  0  0  3  0  0  0  0  0  0
  183.4920  178.4660  141.0160 C   0  0  0  0  0  2  0  0  0  0  0  0
  182.2410  178.0670  141.6370 N   0  0  0  0  0  2  0  0  0  0  0  0
  181.1810  178.8070  140.9760 C   0  0  0  0  0  2  0  0  0  0  0  0
  179.9640  178.9300  141.8860 C   0  0  0  0  0  2  0  0  0  0  0  0
  178.3020  177.1630  142.4770 C   0  0  0  0  0  1  0  0  0  0  0  0
  177.7660  178.9180  140.9730 O   0  0  0  0  0  1  0  0  0  0  0  0
  178.8040  178.0850  141.3820 C   0  0  1  0  0  3  0  0  0  0  0  0
  184.1490  178.0110  143.3190 N   0  0  0  0  0  2  0  0  0  0  0  0
  184.3330  178.9510  144.4150 C   0  0  0  0  0  2  0  0  0  0  0  0
  185.3590  176.9460  145.3200 O   0  0  0  0  0  0  0  0  0  0  0  0
  186.5630  178.2340  147.4170 C   0  0  0  0  0  2  0  0  0  0  0  0
  187.4190  177.3240  146.5230 C   0  0  2  0  0  3  0  0  0  0  0  0
  184.7600  178.1910  145.6580 C   0  0  1  0  0  3  0  0  0  0  0  0
  185.5990  179.0860  146.5950 C   0  0  0  0  0  2  0  0  0  0  0  0
  187.2900  176.0460  144.4810 F   0  0  0  0  0  0  0  0  0  0  0  0
  186.7470  177.1240  145.1550 C   0  0  1  0  0  3  0  0  0  0  0  0
  188.9340  174.2110  147.7250 O   0  0  0  0  0  1  0  0  0  0  0  0
  187.6040  176.0380  147.1840 N   0  0  0  0  0  2  0  0  0  0  0  0
  188.8170  175.2890  147.0880 C   0  0  0  0  0  0  0  0  0  0  0  0
  189.8650  175.7400  146.2960 O   0  0  0  0  0  0  0  0  0  0  0  0
  1 14  1  6  0  0  0
  1 21  1  0  0  0  0
  2  8  1  0  0  0  0
  2  1  1  0  0  0  0
  3  4  1  0  0  0  0
  5  3  2  0  0  0  0
  6  7  1  0  0  0  0
  6  5  1  0  0  0  0
  7  2  2  0  0  0  0
  8  4  2  0  0  0  0
  9 13  1  0  0  0  0
 10  5  1  0  0  0  0
 10 12  1  0  0  0  0
 11  9  2  0  0  0  0
 11 10  1  0  0  0  0
 13 12  2  0  0  0  0
 14 15  1  0  0  0  0
 16 15  1  0  0  0  0
 16 17  1  0  0  0  0
 19 20  1  0  0  0  0
 20 17  1  0  0  0  0
 20 18  1  1  0  0  0
 21 22  1  0  0  0  0
 23 26  1  0  0  0  0
 25 31  1  1  0  0  0
 25 24  1  0  0  0  0
 26 22  1  6  0  0  0
 26 27  1  0  0  0  0
 27 24  1  0  0  0  0
 29 28  1  1  0  0  0
 29 23  1  0  0  0  0
 29 25  1  0  0  0  0
 32 31  1  0  0  0  0
 32 30  1  0  0  0  0
 33 32  2  0  0  0  0
M  END
>  <MODEL>
5

>  <REMARK>
 VINA RESULT:      -6.4      3.948      7.110
  Name = 
  11 active torsions:
  status: ('A' for Active; 'I' for Inactive)
    1  A    between atoms: C_2  and  C_3
    2  A    between atoms: C_2  and  C_8
    3  A    between atoms: C_2  and  N_23
    4  A    between atoms: C_8  and  N_25
    5  A    between atoms: C_10  and  N_12
    6  A    between atoms: C_11  and  C_26
    7  A    between atoms: C_13  and  N_16
    8  A    between atoms: C_21  and  C_33
    9  A    between atoms: C_22  and  N_25
   10  A    between atoms: C_22  and  C_33
   11  A    between atoms: N_23  and  C_26
                            x       y       z     vdW  Elec       q    Type
                         _______ _______ _______ _____ _____    ______ ____

>  <TORSDO>
F 11

$$$$
=
 OpenBabel11042417373D

 33 35  0  0  1  0  0  0  0  0999 V2000
  190.3930  177.2370  144.9570 C   0  0  1  0  0  3  0  0  0  0  0  0
  189.5490  176.9420  143.7550 C   0  0  0  0  0  0  0  0  0  0  0  0
  187.1910  175.6680  142.3440 C   0  0  0  0  0  3  0  0  0  0  0  0
  188.4490  174.9970  142.7250 C   0  0  0  0  0  3  0  0  0  0  0  0
  187.0850  176.9550  141.9970 C   0  0  0  0  0  0  0  0  0  0  0  0
  188.3160  177.7890  141.8240 C   0  0  0  0  0  2  0  0  0  0  0  0
  189.0290  177.9290  143.0810 N   0  0  0  0  0  0  0  0  0  0  0  0
  189.4500  175.5720  143.3260 N   0  0  0  0  0  0  0  0  0  0  0  0
  183.7380  178.2890  141.8410 C   0  0  0  0  0  3  0  0  0  0  0  0
  185.7950  177.5030  141.6740 N   0  0  0  0  0  0  0  0  0  0  0  0
  184.8120  177.7790  142.5510 C   0  0  0  0  0  3  0  0  0  0  0  0
  185.4070  177.8100  140.4470 N   0  0  0  0  0  0  0  0  0  0  0  0
  184.1520  178.2920  140.5170 C   0  0  0  0  0  3  0  0  0  0  0  0
  189.8270  176.5090  146.1650 C   0  0  0  0  0  2  0  0  0  0  0  0
  188.7640  177.3010  146.7640 N   0  0  0  0  0  2  0  0  0  0  0  0
  187.5710  176.4740  146.7730 C   0  0  0  0  0  2  0  0  0  0  0  0
  186.4740  177.1060  145.9230 C   0  0  0  0  0  2  0  0  0  0  0  0
  184.3750  178.4370  146.1600 C   0  0  0  0  0  1  0  0  0  0  0  0
  185.7820  177.9960  148.0190 O   0  0  0  0  0  1  0  0  0  0  0  0
  185.7990  178.2580  146.6510 C   0  0  1  0  0  3  0  0  0  0  0  0
  191.7770  176.8300  144.7360 N   0  0  0  0  0  2  0  0  0  0  0  0
  192.3360  176.4150  146.0130 C   0  0  0  0  0  2  0  0  0  0  0  0
  194.1630  174.8510  146.3450 O   0  0  0  0  0  0  0  0  0  0  0  0
  195.4710  175.5380  144.0380 C   0  0  0  0  0  2  0  0  0  0  0  0
  195.1870  174.0530  144.3090 C   0  0  2  0  0  3  0  0  0  0  0  0
  193.8190  176.1370  145.8430 C   0  0  1  0  0  3  0  0  0  0  0  0
  194.2740  176.4150  144.3940 C   0  0  0  0  0  2  0  0  0  0  0  0
  194.0010  172.6220  145.8470 F   0  0  0  0  0  0  0  0  0  0  0  0
  194.0360  173.8980  145.3160 C   0  0  1  0  0  3  0  0  0  0  0  0
  197.8850  171.6380  144.8750 O   0  0  0  0  0  1  0  0  0  0  0  0
  196.3940  173.4190  144.8260 N   0  0  0  0  0  2  0  0  0  0  0  0
  196.8050  172.1090  144.4340 C   0  0  0  0  0  0  0  0  0  0  0  0
  196.0220  171.3500  143.5740 O   0  0  0  0  0  0  0  0  0  0  0  0
  1 14  1  1  0  0  0
  2  1  1  0  0  0  0
  3  4  1  0  0  0  0
  4  8  2  0  0  0  0
  5  3  2  0  0  0  0
  6  5  1  0  0  0  0
  6  7  1  0  0  0  0
  7  2  2  0  0  0  0
  8  2  1  0  0  0  0
  9 11  2  0  0  0  0
 10  5  1  0  0  0  0
 10 11  1  0  0  0  0
 12 13  2  0  0  0  0
 12 10  1  0  0  0  0
 13  9  1  0  0  0  0
 14 15  1  0  0  0  0
 15 16  1  0  0  0  0
 17 20  1  0  0  0  0
 17 16  1  0  0  0  0
 20 18  1  6  0  0  0
 20 19  1  0  0  0  0
 21  1  1  0  0  0  0
 21 22  1  0  0  0  0
 24 25  1  0  0  0  0
 24 27  1  0  0  0  0
 25 31  1  1  0  0  0
 25 29  1  0  0  0  0
 26 22  1  6  0  0  0
 26 23  1  0  0  0  0
 27 26  1  0  0  0  0
 29 28  1  1  0  0  0
 29 23  1  0  0  0  0
 32 31  1  0  0  0  0
 32 30  1  0  0  0  0
 33 32  2  0  0  0  0
M  END
>  <MODEL>
6

>  <REMARK>
 VINA RESULT:      -6.3      2.064      2.323
  Name = 
  11 active torsions:
  status: ('A' for Active; 'I' for Inactive)
    1  A    between atoms: C_2  and  C_3
    2  A    between atoms: C_2  and  C_8
    3  A    between atoms: C_2  and  N_23
    4  A    between atoms: C_8  and  N_25
    5  A    between atoms: C_10  and  N_12
    6  A    between atoms: C_11  and  C_26
    7  A    between atoms: C_13  and  N_16
    8  A    between atoms: C_21  and  C_33
    9  A    between atoms: C_22  and  N_25
   10  A    between atoms: C_22  and  C_33
   11  A    between atoms: N_23  and  C_26
                            x       y       z     vdW  Elec       q    Type
                         _______ _______ _______ _____ _____    ______ ____

>  <TORSDO>
F 11

$$$$
=
 OpenBabel11042417373D

 33 35  0  0  1  0  0  0  0  0999 V2000
  190.5610  176.0850  144.4930 C   0  0  1  0  0  3  0  0  0  0  0  0
  192.0460  176.0840  144.6850 C   0  0  0  0  0  0  0  0  0  0  0  0
  194.5800  175.4630  146.2230 C   0  0  0  0  0  3  0  0  0  0  0  0
  193.6580  176.5870  146.4740 C   0  0  0  0  0  3  0  0  0  0  0  0
  194.8210  174.9240  145.0240 C   0  0  0  0  0  0  0  0  0  0  0  0
  194.2560  175.5570  143.7910 C   0  0  0  0  0  2  0  0  0  0  0  0
  192.8050  175.5060  143.7980 N   0  0  0  0  0  0  0  0  0  0  0  0
  192.5770  176.8340  145.7920 N   0  0  0  0  0  0  0  0  0  0  0  0
  197.2210  172.2560  145.3750 C   0  0  0  0  0  3  0  0  0  0  0  0
  195.7210  173.8080  144.9100 N   0  0  0  0  0  0  0  0  0  0  0  0
  196.5140  173.3300  145.8880 C   0  0  0  0  0  3  0  0  0  0  0  0
  195.8840  173.0970  143.8070 N   0  0  0  0  0  0  0  0  0  0  0  0
  196.7960  172.1410  144.0590 C   0  0  0  0  0  3  0  0  0  0  0  0
  189.9180  177.0250  145.5000 C   0  0  0  0  0  2  0  0  0  0  0  0
  188.8440  176.3390  146.1980 N   0  0  0  0  0  2  0  0  0  0  0  0
  187.9120  177.3570  146.6500 C   0  0  0  0  0  2  0  0  0  0  0  0
  186.6630  176.7150  147.2440 C   0  0  0  0  0  2  0  0  0  0  0  0
  186.0090  179.1140  147.0270 C   0  0  0  0  0  1  0  0  0  0  0  0
  184.4920  177.3640  146.5180 O   0  0  0  0  0  1  0  0  0  0  0  0
  185.5290  177.7190  147.3760 C   0  0  1  0  0  3  0  0  0  0  0  0
  190.2090  176.4940  143.1370 N   0  0  0  0  0  2  0  0  0  0  0  0
  189.4030  175.4410  142.5400 C   0  0  0  0  0  2  0  0  0  0  0  0
  187.0030  175.6700  142.2630 O   0  0  0  0  0  0  0  0  0  0  0  0
  187.1150  178.2870  141.4640 C   0  0  0  0  0  2  0  0  0  0  0  0
  186.1590  177.9060  142.6030 C   0  0  2  0  0  3  0  0  0  0  0  0
  188.2690  176.0660  141.7490 C   0  0  1  0  0  3  0  0  0  0  0  0
  188.4660  177.5900  141.6040 C   0  0  0  0  0  2  0  0  0  0  0  0
  185.5750  176.0390  144.0150 F   0  0  0  0  0  0  0  0  0  0  0  0
  186.5930  176.5830  143.2540 C   0  0  1  0  0  3  0  0  0  0  0  0
  182.5410  178.2960  142.1670 O   0  0  0  0  0  0  0  0  0  0  0  0
  184.8060  177.7840  142.0750 N   0  0  0  0  0  2  0  0  0  0  0  0
  183.6760  178.3930  142.7010 C   0  0  0  0  0  0  0  0  0  0  0  0
  183.8180  179.0890  143.8950 O   0  0  0  0  0  1  0  0  0  0  0  0
  1  2  1  0  0  0  0
  1 14  1  1  0  0  0
  2  8  1  0  0  0  0
  3  4  1  0  0  0  0
  5  3  2  0  0  0  0
  6  7  1  0  0  0  0
  6  5  1  0  0  0  0
  7  2  2  0  0  0  0
  8  4  2  0  0  0  0
  9 11  2  0  0  0  0
 10  5  1  0  0  0  0
 10 11  1  0  0  0  0
 12 13  2  0  0  0  0
 12 10  1  0  0  0  0
 13  9  1  0  0  0  0
 14 15  1  0  0  0  0
 15 16  1  0  0  0  0
 16 17  1  0  0  0  0
 17 20  1  0  0  0  0
 19 20  1  0  0  0  0
 20 18  1  6  0  0  0
 21  1  1  0  0  0  0
 22 21  1  0  0  0  0
 23 29  1  0  0  0  0
 24 27  1  0  0  0  0
 24 25  1  0  0  0  0
 25 31  1  6  0  0  0
 25 29  1  0  0  0  0
 26 23  1  0  0  0  0
 26 22  1  1  0  0  0
 27 26  1  0  0  0  0
 29 28  1  6  0  0  0
 30 32  2  0  0  0  0
 31 32  1  0  0  0  0
 32 33  1  0  0  0  0
M  END
>  <MODEL>
7

>  <REMARK>
 VINA RESULT:      -6.3      3.150      8.214
  Name = 
  11 active torsions:
  status: ('A' for Active; 'I' for Inactive)
    1  A    between atoms: C_2  and  C_3
    2  A    between atoms: C_2  and  C_8
    3  A    between atoms: C_2  and  N_23
    4  A    between atoms: C_8  and  N_25
    5  A    between atoms: C_10  and  N_12
    6  A    between atoms: C_11  and  C_26
    7  A    between atoms: C_13  and  N_16
    8  A    between atoms: C_21  and  C_33
    9  A    between atoms: C_22  and  N_25
   10  A    between atoms: C_22  and  C_33
   11  A    between atoms: N_23  and  C_26
                            x       y       z     vdW  Elec       q    Type
                         _______ _______ _______ _____ _____    ______ ____

>  <TORSDO>
F 11

$$$$
=
 OpenBabel11042417373D

 33 35  0  0  1  0  0  0  0  0999 V2000
  188.4020  177.2170  146.2660 C   0  0  1  0  0  3  0  0  0  0  0  0
  188.3600  177.1000  144.7740 C   0  0  0  0  0  0  0  0  0  0  0  0
  189.5710  176.4810  142.0680 C   0  0  0  0  0  3  0  0  0  0  0  0
  189.7660  177.7160  142.8510 C   0  0  0  0  0  3  0  0  0  0  0  0
  188.4590  175.7400  142.0710 C   0  0  0  0  0  0  0  0  0  0  0  0
  187.2380  176.2240  142.7890 C   0  0  0  0  0  2  0  0  0  0  0  0
  187.4780  176.3180  144.2180 N   0  0  0  0  0  0  0  0  0  0  0  0
  189.2270  177.9580  144.0110 N   0  0  0  0  0  0  0  0  0  0  0  0
  188.6580  173.0710  139.6540 C   0  0  0  0  0  3  0  0  0  0  0  0
  188.4000  174.5360  141.2860 N   0  0  0  0  0  0  0  0  0  0  0  0
  188.9360  174.3640  140.0630 C   0  0  0  0  0  3  0  0  0  0  0  0
  187.7990  173.4250  141.6770 N   0  0  0  0  0  0  0  0  0  0  0  0
  187.9390  172.5110  140.7000 C   0  0  0  0  0  3  0  0  0  0  0  0
  187.0100  176.9910  146.8330 C   0  0  0  0  0  2  0  0  0  0  0  0
  186.6440  178.1000  147.6990 N   0  0  0  0  0  2  0  0  0  0  0  0
  185.6760  178.9040  146.9750 C   0  0  0  0  0  2  0  0  0  0  0  0
  184.8690  178.0360  146.0150 C   0  0  0  0  0  2  0  0  0  0  0  0
  185.5690  179.8090  144.4030 C   0  0  0  0  0  1  0  0  0  0  0  0
  184.3400  177.9060  143.6990 O   0  0  0  0  0  1  0  0  0  0  0  0
  184.4930  178.8000  144.7550 C   0  0  1  0  0  3  0  0  0  0  0  0
  189.3340  176.2530  146.8400 N   0  0  0  0  0  2  0  0  0  0  0  0
  190.6640  176.8420  146.8210 C   0  0  0  0  0  2  0  0  0  0  0  0
  192.6120  176.7920  145.3740 O   0  0  0  0  0  0  0  0  0  0  0  0
  193.3930  174.2780  146.1320 C   0  0  0  0  0  2  0  0  0  0  0  0
  194.4260  175.4130  146.1740 C   0  0  2  0  0  3  0  0  0  0  0  0
  191.5690  176.0040  145.9360 C   0  0  1  0  0  3  0  0  0  0  0  0
  192.0370  174.7280  146.6680 C   0  0  0  0  0  2  0  0  0  0  0  0
  194.5930  177.8060  145.9140 F   0  0  0  0  0  0  0  0  0  0  0  0
  193.7250  176.7790  146.2370 C   0  0  1  0  0  3  0  0  0  0  0  0
  197.1440  174.5150  143.8860 O   0  0  0  0  0  0  0  0  0  0  0  0
  195.2720  175.3380  144.9900 N   0  0  0  0  0  2  0  0  0  0  0  0
  196.4850  174.5840  144.9550 C   0  0  0  0  0  0  0  0  0  0  0  0
  196.9430  173.9290  146.0910 O   0  0  0  0  0  1  0  0  0  0  0  0
  1 14  1  1  0  0  0
  1 21  1  0  0  0  0
  2  1  1  0  0  0  0
  3  5  2  0  0  0  0
  3  4  1  0  0  0  0
  4  8  2  0  0  0  0
  5  6  1  0  0  0  0
  6  7  1  0  0  0  0
  7  2  2  0  0  0  0
  8  2  1  0  0  0  0
  9 11  2  0  0  0  0
  9 13  1  0  0  0  0
 10 12  1  0  0  0  0
 10  5  1  0  0  0  0
 11 10  1  0  0  0  0
 13 12  2  0  0  0  0
 14 15  1  0  0  0  0
 16 15  1  0  0  0  0
 17 16  1  0  0  0  0
 19 20  1  0  0  0  0
 20 18  1  6  0  0  0
 20 17  1  0  0  0  0
 22 21  1  0  0  0  0
 23 26  1  0  0  0  0
 23 29  1  0  0  0  0
 24 25  1  0  0  0  0
 24 27  1  0  0  0  0
 25 31  1  6  0  0  0
 25 29  1  0  0  0  0
 26 27  1  0  0  0  0
 26 22  1  1  0  0  0
 29 28  1  6  0  0  0
 30 32  2  0  0  0  0
 32 31  1  0  0  0  0
 32 33  1  0  0  0  0
M  END
>  <MODEL>
8

>  <REMARK>
 VINA RESULT:      -6.3      2.252      3.276
  Name = 
  11 active torsions:
  status: ('A' for Active; 'I' for Inactive)
    1  A    between atoms: C_2  and  C_3
    2  A    between atoms: C_2  and  C_8
    3  A    between atoms: C_2  and  N_23
    4  A    between atoms: C_8  and  N_25
    5  A    between atoms: C_10  and  N_12
    6  A    between atoms: C_11  and  C_26
    7  A    between atoms: C_13  and  N_16
    8  A    between atoms: C_21  and  C_33
    9  A    between atoms: C_22  and  N_25
   10  A    between atoms: C_22  and  C_33
   11  A    between atoms: N_23  and  C_26
                            x       y       z     vdW  Elec       q    Type
                         _______ _______ _______ _____ _____    ______ ____

>  <TORSDO>
F 11

$$$$
=
 OpenBabel11042417373D

 33 35  0  0  1  0  0  0  0  0999 V2000
  191.6760  174.6400  144.9000 C   0  0  1  0  0  3  0  0  0  0  0  0
  190.7870  175.2460  145.9420 C   0  0  0  0  0  0  0  0  0  0  0  0
  189.3910  177.5660  147.2990 C   0  0  0  0  0  3  0  0  0  0  0  0
  190.8060  177.1800  147.4620 C   0  0  0  0  0  3  0  0  0  0  0  0
  188.3880  176.7150  147.0610 C   0  0  0  0  0  0  0  0  0  0  0  0
  188.6340  175.2390  147.0950 C   0  0  0  0  0  2  0  0  0  0  0  0
  189.5530  174.8400  146.0430 N   0  0  0  0  0  0  0  0  0  0  0  0
  191.3780  176.1720  146.8700 N   0  0  0  0  0  0  0  0  0  0  0  0
  184.9970  177.5260  146.1420 C   0  0  0  0  0  3  0  0  0  0  0  0
  187.0510  177.2170  146.8900 N   0  0  0  0  0  0  0  0  0  0  0  0
  186.1580  176.7890  145.9780 C   0  0  0  0  0  3  0  0  0  0  0  0
  186.5220  178.1810  147.6250 N   0  0  0  0  0  0  0  0  0  0  0  0
  185.2670  178.3930  147.1900 C   0  0  0  0  0  3  0  0  0  0  0  0
  191.3120  173.1770  144.7090 C   0  0  0  0  0  2  0  0  0  0  0  0
  192.5090  172.4060  144.4160 N   0  0  0  0  0  2  0  0  0  0  0  0
  193.5140  172.7950  145.3880 C   0  0  0  0  0  2  0  0  0  0  0  0
  194.4510  171.6290  145.6870 C   0  0  0  0  0  2  0  0  0  0  0  0
  196.1330  173.4400  145.3340 C   0  0  0  0  0  1  0  0  0  0  0  0
  196.7630  171.3010  146.1440 O   0  0  0  0  0  1  0  0  0  0  0  0
  195.8820  171.9450  145.2800 C   0  0  1  0  0  3  0  0  0  0  0  0
  191.5550  175.3510  143.6320 N   0  0  0  0  0  2  0  0  0  0  0  0
  190.3970  174.8260  142.9260 C   0  0  0  0  0  2  0  0  0  0  0  0
  188.4800  175.5830  141.6430 O   0  0  0  0  0  0  0  0  0  0  0  0
  188.8030  178.2250  142.2920 C   0  0  0  0  0  2  0  0  0  0  0  0
  187.4240  177.5800  142.4950 C   0  0  2  0  0  3  0  0  0  0  0  0
  189.7970  175.9220  142.0640 C   0  0  1  0  0  3  0  0  0  0  0  0
  189.9300  177.3000  142.7450 C   0  0  0  0  0  2  0  0  0  0  0  0
  186.3280  175.4330  142.4100 F   0  0  0  0  0  0  0  0  0  0  0  0
  187.5510  176.0520  142.5920 C   0  0  1  0  0  3  0  0  0  0  0  0
  184.4990  178.6480  140.5630 O   0  0  0  0  0  0  0  0  0  0  0  0
  186.5550  177.9410  141.3820 N   0  0  0  0  0  2  0  0  0  0  0  0
  185.1820  178.2940  141.5580 C   0  0  0  0  0  0  0  0  0  0  0  0
  184.5960  178.2470  142.8160 O   0  0  0  0  0  1  0  0  0  0  0  0
  1 14  1  6  0  0  0
  1  2  1  0  0  0  0
  2  7  2  0  0  0  0
  2  8  1  0  0  0  0
  3  4  1  0  0  0  0
  5  6  1  0  0  0  0
  5  3  2  0  0  0  0
  7  6  1  0  0  0  0
  8  4  2  0  0  0  0
  9 13  1  0  0  0  0
 10  5  1  0  0  0  0
 10 12  1  0  0  0  0
 11  9  2  0  0  0  0
 11 10  1  0  0  0  0
 13 12  2  0  0  0  0
 15 14  1  0  0  0  0
 15 16  1  0  0  0  0
 16 17  1  0  0  0  0
 20 18  1  1  0  0  0
 20 17  1  0  0  0  0
 20 19  1  0  0  0  0
 21  1  1  0  0  0  0
 22 21  1  0  0  0  0
 23 26  1  0  0  0  0
 23 29  1  0  0  0  0
 24 25  1  0  0  0  0
 24 27  1  0  0  0  0
 25 31  1  6  0  0  0
 25 29  1  0  0  0  0
 26 27  1  0  0  0  0
 26 22  1  1  0  0  0
 29 28  1  6  0  0  0
 30 32  2  0  0  0  0
 31 32  1  0  0  0  0
 32 33  1  0  0  0  0
M  END
>  <MODEL>
9

>  <REMARK>
 VINA RESULT:      -6.1      2.956      7.537
  Name = 
  11 active torsions:
  status: ('A' for Active; 'I' for Inactive)
    1  A    between atoms: C_2  and  C_3
    2  A    between atoms: C_2  and  C_8
    3  A    between atoms: C_2  and  N_23
    4  A    between atoms: C_8  and  N_25
    5  A    between atoms: C_10  and  N_12
    6  A    between atoms: C_11  and  C_26
    7  A    between atoms: C_13  and  N_16
    8  A    between atoms: C_21  and  C_33
    9  A    between atoms: C_22  and  N_25
   10  A    between atoms: C_22  and  C_33
   11  A    between atoms: N_23  and  C_26
                            x       y       z     vdW  Elec       q    Type
                         _______ _______ _______ _____ _____    ______ ____

>  <TORSDO>
F 11

$$$$
