=
 OpenBabel11042418213D

 37 41  0  0  1  0  0  0  0  0999 V2000
  185.9270  177.9260  143.5890 C   0  0  0  0  0  0  0  0  0  0  0  0
  186.5500  176.8460  139.0230 N   0  0  0  0  0  2  0  0  0  0  0  0
  185.1130  178.5240  141.4370 C   0  0  0  0  0  3  0  0  0  0  0  0
  184.9200  178.8340  142.9120 C   0  0  0  0  0  2  0  0  0  0  0  0
  186.1250  177.6830  141.3880 C   0  0  0  0  0  0  0  0  0  0  0  0
  187.6040  176.0080  141.0160 N   0  0  0  0  0  0  0  0  0  0  0  0
  186.6100  177.3270  142.6390 C   0  0  0  0  0  0  0  0  0  0  0  0
  187.5810  176.2050  142.4860 C   0  0  2  0  0  3  0  0  0  0  0  0
  186.7840  176.8320  140.4310 C   0  0  0  0  0  0  0  0  0  0  0  0
  192.6880  174.5880  144.3880 C   0  0  0  0  0  2  0  0  0  0  0  0
  188.9020  176.5640  143.0210 N   0  0  1  0  0  0  0  0  0  0  0  0
  192.2560  174.6620  142.9270 C   0  0  0  0  0  2  0  0  0  0  0  0
  191.5670  177.0880  143.4250 C   0  0  0  0  0  0  0  0  0  0  0  0
  193.1710  175.9310  144.8550 C   0  0  0  0  0  0  0  0  0  0  0  0
  189.8030  175.4130  142.8010 C   0  0  0  0  0  2  0  0  0  0  0  0
  194.1560  176.0490  145.7410 C   0  0  0  0  0  3  0  0  0  0  0  0
  190.6790  178.2640  143.1670 C   0  0  0  0  0  2  0  0  0  0  0  0
  189.4250  177.8070  142.4170 C   0  0  0  0  0  2  0  0  0  0  0  0
  191.2780  175.8150  142.6650 C   0  0  2  0  0  3  0  0  0  0  0  0
  192.4460  177.1340  144.4280 C   0  0  0  0  0  3  0  0  0  0  0  0
  196.6740  173.4630  146.1230 O   0  0  0  0  0  0  0  0  0  0  0  0
  196.6180  175.1200  144.5000 N   0  0  0  0  0  1  0  0  0  0  0  0
  196.0740  174.4560  145.6350 C   0  0  0  0  0  0  0  0  0  0  0  0
  194.8610  174.9100  146.2340 N   0  0  0  0  0  2  0  0  0  0  0  0
  185.3760  178.1900  147.2620 C   0  0  0  0  0  3  0  0  0  0  0  0
  186.0500  177.6850  145.0380 C   0  0  0  0  0  0  0  0  0  0  0  0
  185.2840  178.3860  145.9200 N   0  0  0  0  0  0  0  0  0  0  0  0
  186.9560  176.7320  145.5150 C   0  0  0  0  0  3  0  0  0  0  0  0
  186.2750  177.2510  147.7700 C   0  0  0  0  0  3  0  0  0  0  0  0
  187.0780  176.5110  146.8900 C   0  0  0  0  0  0  0  0  0  0  0  0
  187.9970  175.5470  147.3320 O   0  0  0  0  0  0  0  0  0  0  0  0
  189.2910  175.3530  146.8310 C   0  0  0  0  0  0  0  0  0  0  0  0
  190.2900  176.3040  146.9970 O   0  0  0  0  0  1  0  0  0  0  0  0
  189.5480  174.2960  146.1970 O   0  0  0  0  0  0  0  0  0  0  0  0
  187.2190  176.0080  138.1930 O   0  0  0  0  0  0  0  0  0  0  0  0
  186.4780  176.0030  137.0110 C   0  0  0  0  0  2  0  0  0  0  0  0
  187.3380  176.5110  135.8730 C   0  0  0  0  0  1  0  0  0  0  0  0
  1 26  1  0  0  0  0
  2  9  1  0  0  0  0
  3  4  1  0  0  0  0
  4  1  1  0  0  0  0
  5  3  2  0  0  0  0
  5  7  1  0  0  0  0
  7  1  2  0  0  0  0
  8  6  1  6  0  0  0
  8  7  1  0  0  0  0
  8 11  1  0  0  0  0
  9  6  2  0  0  0  0
  9  5  1  0  0  0  0
 10 14  1  0  0  0  0
 11 18  1  6  0  0  0
 12 10  1  0  0  0  0
 13 20  2  0  0  0  0
 14 16  2  0  0  0  0
 15 11  1  0  0  0  0
 16 24  1  0  0  0  0
 17 13  1  0  0  0  0
 18 17  1  0  0  0  0
 19 15  1  1  0  0  0
 19 12  1  0  0  0  0
 19 13  1  0  0  0  0
 20 14  1  0  0  0  0
 22 23  1  0  0  0  0
 23 21  2  0  0  0  0
 23 24  1  0  0  0  0
 25 29  1  0  0  0  0
 26 28  2  0  0  0  0
 26 27  1  0  0  0  0
 27 25  2  0  0  0  0
 28 30  1  0  0  0  0
 30 31  1  0  0  0  0
 30 29  2  0  0  0  0
 32 33  1  0  0  0  0
 32 31  1  0  0  0  0
 34 32  2  0  0  0  0
 35  2  1  0  0  0  0
 36 35  1  0  0  0  0
 37 36  1  0  0  0  0
M  END
>  <MODEL>
1

>  <REMARK>
 VINA RESULT:      -8.3      0.000      0.000
  Name = 
  7 active torsions:
  status: ('A' for Active; 'I' for Inactive)
    1  A    between atoms: C_1  and  C_13
    2  A    between atoms: N_4  and  C_36
    3  A    between atoms: C_8  and  O_21
    4  A    between atoms: O_9  and  C_22
    5  A    between atoms: O_9  and  C_33
    6  A    between atoms: N_12  and  O_21
    7  A    between atoms: C_20  and  N_25
                            x       y       z     vdW  Elec       q    Type
                         _______ _______ _______ _____ _____    ______ ____

>  <TORSDO>
F 7

$$$$
=
 OpenBabel11042418213D

 37 41  0  0  1  0  0  0  0  0999 V2000
  192.0240  174.3520  142.0310 C   0  0  0  0  0  0  0  0  0  0  0  0
  196.3730  174.2150  143.8940 N   0  0  0  0  0  2  0  0  0  0  0  0
  194.3030  174.5250  141.3780 C   0  0  0  0  0  3  0  0  0  0  0  0
  192.8960  174.5430  140.8060 C   0  0  0  0  0  3  0  0  0  0  0  0
  194.1470  174.4490  142.6840 C   0  0  0  0  0  0  0  0  0  0  0  0
  194.2000  174.0030  144.9040 N   0  0  0  0  0  0  0  0  0  0  0  0
  192.8200  174.3480  143.0770 C   0  0  2  0  0  3  0  0  0  0  0  0
  192.7650  174.0300  144.5330 C   0  0  2  0  0  3  0  0  0  0  0  0
  194.9470  174.2290  143.8620 C   0  0  0  0  0  0  0  0  0  0  0  0
  187.8420  175.8880  146.6860 C   0  0  0  0  0  2  0  0  0  0  0  0
  192.0160  175.0540  145.2770 N   0  0  1  0  0  0  0  0  0  0  0  0
  188.7350  174.8080  147.2890 C   0  0  0  0  0  2  0  0  0  0  0  0
  190.6390  176.5290  147.1390 C   0  0  0  0  0  0  0  0  0  0  0  0
  188.3070  177.2480  147.1240 C   0  0  0  0  0  0  0  0  0  0  0  0
  190.7660  174.4320  145.7620 C   0  0  0  0  0  2  0  0  0  0  0  0
  187.4500  178.2420  147.3370 C   0  0  0  0  0  3  0  0  0  0  0  0
  192.0910  176.8460  146.9650 C   0  0  0  0  0  2  0  0  0  0  0  0
  192.8160  175.6330  146.3760 C   0  0  0  0  0  2  0  0  0  0  0  0
  190.2250  175.0790  147.0450 C   0  0  2  0  0  3  0  0  0  0  0  0
  189.7490  177.5220  147.1820 C   0  0  0  0  0  3  0  0  0  0  0  0
  184.0420  178.3460  146.0920 O   0  0  0  0  0  0  0  0  0  0  0  0
  185.9100  179.3140  145.1130 N   0  0  0  0  0  1  0  0  0  0  0  0
  185.2810  178.5650  146.1470 C   0  0  0  0  0  0  0  0  0  0  0  0
  186.0390  178.0500  147.2400 N   0  0  0  0  0  2  0  0  0  0  0  0
  188.7330  172.6490  141.6710 C   0  0  0  0  0  3  0  0  0  0  0  0
  190.5700  174.1130  142.0390 C   0  0  0  0  0  0  0  0  0  0  0  0
  190.0690  172.9000  141.6780 N   0  0  0  0  0  0  0  0  0  0  0  0
  189.6940  175.1370  142.4190 C   0  0  0  0  0  3  0  0  0  0  0  0
  187.8330  173.6510  142.0390 C   0  0  0  0  0  3  0  0  0  0  0  0
  188.3150  174.9120  142.4160 C   0  0  0  0  0  0  0  0  0  0  0  0
  187.4680  175.9620  142.8030 O   0  0  0  0  0  0  0  0  0  0  0  0
  186.6500  176.7170  141.9520 C   0  0  0  0  0  0  0  0  0  0  0  0
  187.0070  176.9750  140.6340 O   0  0  0  0  0  0  0  0  0  0  0  0
  185.5730  177.1890  142.3990 O   0  0  0  0  0  1  0  0  0  0  0  0
  197.0460  174.0020  145.0520 O   0  0  0  0  0  0  0  0  0  0  0  0
  197.5820  172.7200  144.9270 C   0  0  0  0  0  2  0  0  0  0  0  0
  196.8990  171.7890  145.9070 C   0  0  0  0  0  1  0  0  0  0  0  0
  1 26  1  0  0  0  0
  2 35  1  0  0  0  0
  3  5  2  0  0  0  0
  4  3  1  0  0  0  0
  4  1  2  0  0  0  0
  5  7  1  0  0  0  0
  5  9  1  0  0  0  0
  7  1  1  6  0  0  0
  7  8  1  0  0  0  0
  8  6  1  1  0  0  0
  8 11  1  0  0  0  0
  9  2  1  0  0  0  0
  9  6  2  0  0  0  0
 10 14  1  0  0  0  0
 10 12  1  0  0  0  0
 11 15  1  1  0  0  0
 11 18  1  0  0  0  0
 13 20  2  0  0  0  0
 14 20  1  0  0  0  0
 14 16  2  0  0  0  0
 17 13  1  0  0  0  0
 18 17  1  0  0  0  0
 19 15  1  6  0  0  0
 19 13  1  0  0  0  0
 19 12  1  0  0  0  0
 21 23  2  0  0  0  0
 22 23  1  0  0  0  0
 23 24  1  0  0  0  0
 24 16  1  0  0  0  0
 25 27  2  0  0  0  0
 25 29  1  0  0  0  0
 26 28  2  0  0  0  0
 27 26  1  0  0  0  0
 29 30  2  0  0  0  0
 30 28  1  0  0  0  0
 30 31  1  0  0  0  0
 32 34  1  0  0  0  0
 32 31  1  0  0  0  0
 33 32  2  0  0  0  0
 36 35  1  0  0  0  0
 36 37  1  0  0  0  0
M  END
>  <MODEL>
2

>  <REMARK>
 VINA RESULT:      -8.0      2.813      8.166
  Name = 
  7 active torsions:
  status: ('A' for Active; 'I' for Inactive)
    1  A    between atoms: C_1  and  C_13
    2  A    between atoms: N_4  and  C_36
    3  A    between atoms: C_8  and  O_21
    4  A    between atoms: O_9  and  C_22
    5  A    between atoms: O_9  and  C_33
    6  A    between atoms: N_12  and  O_21
    7  A    between atoms: C_20  and  N_25
                            x       y       z     vdW  Elec       q    Type
                         _______ _______ _______ _____ _____    ______ ____

>  <TORSDO>
F 7

$$$$
=
 OpenBabel11042418213D

 37 41  0  0  1  0  0  0  0  0999 V2000
  189.9060  176.6470  146.1340 C   0  0  0  0  0  0  0  0  0  0  0  0
  194.5800  176.3060  145.4660 N   0  0  0  0  0  2  0  0  0  0  0  0
  191.9280  176.5020  147.3740 C   0  0  0  0  0  3  0  0  0  0  0  0
  190.4250  176.6330  147.5570 C   0  0  0  0  0  2  0  0  0  0  0  0
  192.1110  176.3630  146.0780 C   0  0  0  0  0  0  0  0  0  0  0  0
  192.7530  176.4260  143.9060 N   0  0  0  0  0  0  0  0  0  0  0  0
  190.9360  176.4450  145.3420 C   0  0  0  0  0  0  0  0  0  0  0  0
  191.2720  176.5150  143.8910 C   0  0  2  0  0  3  0  0  0  0  0  0
  193.1940  176.3510  145.1290 C   0  0  0  0  0  0  0  0  0  0  0  0
  190.9670  173.3820  139.1560 C   0  0  0  0  0  2  0  0  0  0  0  0
  190.6560  175.4080  143.1440 N   0  0  1  0  0  0  0  0  0  0  0  0
  192.0220  173.2540  140.2510 C   0  0  0  0  0  2  0  0  0  0  0  0
  190.0540  173.0400  141.8920 C   0  0  0  0  0  0  0  0  0  0  0  0
  189.7480  172.5830  139.5140 C   0  0  0  0  0  0  0  0  0  0  0  0
  191.5870  175.0230  142.0640 C   0  0  0  0  0  2  0  0  0  0  0  0
  189.0160  171.9750  138.5860 C   0  0  0  0  0  3  0  0  0  0  0  0
  189.4700  173.2520  143.2530 C   0  0  0  0  0  2  0  0  0  0  0  0
  190.3150  174.2700  144.0230 C   0  0  0  0  0  2  0  0  0  0  0  0
  191.4540  173.5510  141.6460 C   0  0  2  0  0  3  0  0  0  0  0  0
  189.2770  172.5890  140.9050 C   0  0  0  0  0  3  0  0  0  0  0  0
  190.2110  170.8670  135.3430 O   0  0  0  0  0  0  0  0  0  0  0  0
  190.1000  169.6070  137.2880 N   0  0  0  0  0  1  0  0  0  0  0  0
  189.9170  170.8200  136.5660 C   0  0  0  0  0  0  0  0  0  0  0  0
  189.3940  171.9810  137.2100 N   0  0  0  0  0  2  0  0  0  0  0  0
  186.1840  176.6900  146.0590 C   0  0  0  0  0  3  0  0  0  0  0  0
  188.5230  176.9340  145.7110 C   0  0  0  0  0  0  0  0  0  0  0  0
  187.4710  176.4470  146.4240 N   0  0  0  0  0  0  0  0  0  0  0  0
  188.2860  177.7100  144.5720 C   0  0  0  0  0  3  0  0  0  0  0  0
  185.9130  177.4550  144.9250 C   0  0  0  0  0  3  0  0  0  0  0  0
  186.9740  177.9730  144.1680 C   0  0  0  0  0  0  0  0  0  0  0  0
  186.7740  178.7560  143.0200 O   0  0  0  0  0  0  0  0  0  0  0  0
  186.5520  178.2740  141.7230 C   0  0  0  0  0  0  0  0  0  0  0  0
  187.5860  177.7720  140.9420 O   0  0  0  0  0  0  0  0  0  0  0  0
  185.3870  178.3140  141.2480 O   0  0  0  0  0  1  0  0  0  0  0  0
  195.5350  176.2960  144.5050 O   0  0  0  0  0  0  0  0  0  0  0  0
  196.0060  174.9830  144.4760 C   0  0  0  0  0  2  0  0  0  0  0  0
  196.0610  174.4350  145.8860 C   0  0  0  0  0  1  0  0  0  0  0  0
  1  4  1  0  0  0  0
  3  4  1  0  0  0  0
  5  3  2  0  0  0  0
  6  9  2  0  0  0  0
  7  5  1  0  0  0  0
  7  1  2  0  0  0  0
  8  6  1  1  0  0  0
  8  7  1  0  0  0  0
  9  2  1  0  0  0  0
  9  5  1  0  0  0  0
 10 14  1  0  0  0  0
 10 12  1  0  0  0  0
 11 15  1  6  0  0  0
 11  8  1  0  0  0  0
 11 18  1  0  0  0  0
 13 17  1  0  0  0  0
 14 20  1  0  0  0  0
 16 14  2  0  0  0  0
 17 18  1  0  0  0  0
 19 12  1  6  0  0  0
 19 13  1  0  0  0  0
 19 15  1  0  0  0  0
 20 13  2  0  0  0  0
 21 23  2  0  0  0  0
 23 24  1  0  0  0  0
 23 22  1  0  0  0  0
 24 16  1  0  0  0  0
 25 27  1  0  0  0  0
 26  1  1  0  0  0  0
 26 27  2  0  0  0  0
 28 26  1  0  0  0  0
 29 25  2  0  0  0  0
 30 28  2  0  0  0  0
 30 29  1  0  0  0  0
 31 30  1  0  0  0  0
 32 31  1  0  0  0  0
 33 32  2  0  0  0  0
 34 32  1  0  0  0  0
 35  2  1  0  0  0  0
 36 35  1  0  0  0  0
 36 37  1  0  0  0  0
M  END
>  <MODEL>
3

>  <REMARK>
 VINA RESULT:      -7.5      3.330      7.314
  Name = 
  7 active torsions:
  status: ('A' for Active; 'I' for Inactive)
    1  A    between atoms: C_1  and  C_13
    2  A    between atoms: N_4  and  C_36
    3  A    between atoms: C_8  and  O_21
    4  A    between atoms: O_9  and  C_22
    5  A    between atoms: O_9  and  C_33
    6  A    between atoms: N_12  and  O_21
    7  A    between atoms: C_20  and  N_25
                            x       y       z     vdW  Elec       q    Type
                         _______ _______ _______ _____ _____    ______ ____

>  <TORSDO>
F 7

$$$$
=
 OpenBabel11042418213D

 37 41  0  0  1  0  0  0  0  0999 V2000
  193.3340  173.0200  143.4460 C   0  0  0  0  0  0  0  0  0  0  0  0
  192.3970  171.0190  139.2600 N   0  0  0  0  0  2  0  0  0  0  0  0
  193.7300  171.0050  142.2490 C   0  0  0  0  0  3  0  0  0  0  0  0
  194.0330  171.6810  143.5750 C   0  0  0  0  0  2  0  0  0  0  0  0
  192.9220  171.8290  141.6140 C   0  0  0  0  0  0  0  0  0  0  0  0
  191.8000  173.1650  140.1690 N   0  0  0  0  0  0  0  0  0  0  0  0
  192.6830  173.0100  142.3040 C   0  0  0  0  0  0  0  0  0  0  0  0
  191.9630  173.9610  141.4100 C   0  0  2  0  0  3  0  0  0  0  0  0
  192.3470  171.9910  140.3030 C   0  0  0  0  0  0  0  0  0  0  0  0
  188.9690  177.5020  144.7000 C   0  0  0  0  0  2  0  0  0  0  0  0
  190.6710  174.3650  141.9860 N   0  0  1  0  0  0  0  0  0  0  0  0
  189.4530  177.7870  143.2810 C   0  0  0  0  0  2  0  0  0  0  0  0
  188.2960  175.5870  142.6220 C   0  0  0  0  0  0  0  0  0  0  0  0
  187.6620  176.7640  144.6640 C   0  0  0  0  0  0  0  0  0  0  0  0
  190.7930  175.7730  142.4170 C   0  0  0  0  0  2  0  0  0  0  0  0
  186.7270  176.9560  145.5900 C   0  0  0  0  0  3  0  0  0  0  0  0
  188.2190  174.3710  141.7530 C   0  0  0  0  0  2  0  0  0  0  0  0
  189.5560  174.1640  141.0370 C   0  0  0  0  0  2  0  0  0  0  0  0
  189.4570  176.5290  142.4020 C   0  0  2  0  0  3  0  0  0  0  0  0
  187.4700  175.7070  143.6630 C   0  0  0  0  0  3  0  0  0  0  0  0
  185.9780  179.5880  147.9740 O   0  0  0  0  0  0  0  0  0  0  0  0
  184.5200  178.6560  146.4280 N   0  0  0  0  0  1  0  0  0  0  0  0
  185.8000  178.7610  147.0420 C   0  0  0  0  0  0  0  0  0  0  0  0
  186.8820  177.9310  146.6200 N   0  0  0  0  0  2  0  0  0  0  0  0
  194.4630  176.2210  144.9760 C   0  0  0  0  0  3  0  0  0  0  0  0
  193.4460  174.1560  144.3780 C   0  0  0  0  0  0  0  0  0  0  0  0
  194.3330  175.1610  144.1350 N   0  0  0  0  0  0  0  0  0  0  0  0
  192.6400  174.2090  145.5200 C   0  0  0  0  0  3  0  0  0  0  0  0
  193.6770  176.3000  146.1260 C   0  0  0  0  0  3  0  0  0  0  0  0
  192.7540  175.2820  146.4070 C   0  0  0  0  0  0  0  0  0  0  0  0
  191.9290  175.3010  147.5420 O   0  0  0  0  0  0  0  0  0  0  0  0
  190.6200  175.7970  147.6000 C   0  0  0  0  0  0  0  0  0  0  0  0
  189.5150  174.9640  147.4690 O   0  0  0  0  0  0  0  0  0  0  0  0
  190.4410  177.0330  147.7560 O   0  0  0  0  0  1  0  0  0  0  0  0
  191.8250  171.2560  138.0540 O   0  0  0  0  0  0  0  0  0  0  0  0
  191.1940  170.0600  137.7120 C   0  0  0  0  0  2  0  0  0  0  0  0
  189.7010  170.1980  137.9160 C   0  0  0  0  0  1  0  0  0  0  0  0
  1  4  1  0  0  0  0
  1 26  1  0  0  0  0
  2  9  1  0  0  0  0
  3  4  1  0  0  0  0
  5  3  2  0  0  0  0
  5  7  1  0  0  0  0
  6  9  2  0  0  0  0
  7  1  2  0  0  0  0
  8  6  1  6  0  0  0
  8 11  1  0  0  0  0
  8  7  1  0  0  0  0
  9  5  1  0  0  0  0
 11 18  1  6  0  0  0
 11 15  1  0  0  0  0
 12 10  1  0  0  0  0
 13 20  2  0  0  0  0
 14 10  1  0  0  0  0
 14 16  2  0  0  0  0
 16 24  1  0  0  0  0
 17 13  1  0  0  0  0
 18 17  1  0  0  0  0
 19 15  1  1  0  0  0
 19 13  1  0  0  0  0
 19 12  1  0  0  0  0
 20 14  1  0  0  0  0
 22 23  1  0  0  0  0
 23 21  2  0  0  0  0
 24 23  1  0  0  0  0
 25 29  1  0  0  0  0
 26 28  2  0  0  0  0
 27 26  1  0  0  0  0
 27 25  2  0  0  0  0
 28 30  1  0  0  0  0
 29 30  2  0  0  0  0
 30 31  1  0  0  0  0
 31 32  1  0  0  0  0
 32 34  1  0  0  0  0
 33 32  2  0  0  0  0
 35  2  1  0  0  0  0
 36 37  1  0  0  0  0
 36 35  1  0  0  0  0
M  END
>  <MODEL>
4

>  <REMARK>
 VINA RESULT:      -7.4      3.088      7.282
  Name = 
  7 active torsions:
  status: ('A' for Active; 'I' for Inactive)
    1  A    between atoms: C_1  and  C_13
    2  A    between atoms: N_4  and  C_36
    3  A    between atoms: C_8  and  O_21
    4  A    between atoms: O_9  and  C_22
    5  A    between atoms: O_9  and  C_33
    6  A    between atoms: N_12  and  O_21
    7  A    between atoms: C_20  and  N_25
                            x       y       z     vdW  Elec       q    Type
                         _______ _______ _______ _____ _____    ______ ____

>  <TORSDO>
F 7

$$$$
=
 OpenBabel11042418213D

 37 41  0  0  1  0  0  0  0  0999 V2000
  190.1030  176.6740  145.8300 C   0  0  0  0  0  0  0  0  0  0  0  0
  194.7080  175.6230  146.1460 N   0  0  0  0  0  2  0  0  0  0  0  0
  191.8160  176.4160  147.4580 C   0  0  0  0  0  3  0  0  0  0  0  0
  190.3450  176.7700  147.3230 C   0  0  0  0  0  2  0  0  0  0  0  0
  192.2080  176.0900  146.2440 C   0  0  0  0  0  0  0  0  0  0  0  0
  193.2380  175.7900  144.2480 N   0  0  0  0  0  0  0  0  0  0  0  0
  191.2160  176.2360  145.2840 C   0  0  0  0  0  0  0  0  0  0  0  0
  191.8190  176.0760  143.9290 C   0  0  2  0  0  3  0  0  0  0  0  0
  193.4320  175.8120  145.5360 C   0  0  0  0  0  0  0  0  0  0  0  0
  191.3150  173.0640  139.1340 C   0  0  0  0  0  2  0  0  0  0  0  0
  191.1830  174.9770  143.1870 N   0  0  1  0  0  0  0  0  0  0  0  0
  192.4300  172.9280  140.1670 C   0  0  0  0  0  2  0  0  0  0  0  0
  190.5580  172.6310  141.9050 C   0  0  0  0  0  0  0  0  0  0  0  0
  190.1320  172.2310  139.5350 C   0  0  0  0  0  0  0  0  0  0  0  0
  192.0610  174.6390  142.0480 C   0  0  0  0  0  2  0  0  0  0  0  0
  189.3610  171.6330  138.6310 C   0  0  0  0  0  3  0  0  0  0  0  0
  190.0450  172.7960  143.3000 C   0  0  0  0  0  2  0  0  0  0  0  0
  190.9120  173.8100  144.0510 C   0  0  0  0  0  2  0  0  0  0  0  0
  191.9330  173.1760  141.5970 C   0  0  2  0  0  3  0  0  0  0  0  0
  189.7370  172.1910  140.9490 C   0  0  0  0  0  3  0  0  0  0  0  0
  190.4550  170.6530  135.3120 O   0  0  0  0  0  0  0  0  0  0  0  0
  190.5350  169.3630  137.2400 N   0  0  0  0  0  1  0  0  0  0  0  0
  190.2310  170.5690  136.5480 C   0  0  0  0  0  0  0  0  0  0  0  0
  189.6640  171.6830  137.2370 N   0  0  0  0  0  2  0  0  0  0  0  0
  187.8570  177.9700  143.1590 C   0  0  0  0  0  3  0  0  0  0  0  0
  188.8840  177.0900  145.1150 C   0  0  0  0  0  0  0  0  0  0  0  0
  188.9620  177.5750  143.8450 N   0  0  0  0  0  0  0  0  0  0  0  0
  187.6360  176.9870  145.7390 C   0  0  0  0  0  3  0  0  0  0  0  0
  186.5980  177.8860  143.7560 C   0  0  0  0  0  3  0  0  0  0  0  0
  186.4820  177.3910  145.0630 C   0  0  0  0  0  0  0  0  0  0  0  0
  185.2470  177.2740  145.7210 O   0  0  0  0  0  0  0  0  0  0  0  0
  184.5070  178.3260  146.2760 C   0  0  0  0  0  0  0  0  0  0  0  0
  184.5600  178.6210  147.6320 O   0  0  0  0  0  1  0  0  0  0  0  0
  183.7600  179.0080  145.5270 O   0  0  0  0  0  0  0  0  0  0  0  0
  195.8090  175.3630  145.4000 O   0  0  0  0  0  0  0  0  0  0  0  0
  196.2010  174.0760  145.7710 C   0  0  0  0  0  2  0  0  0  0  0  0
  197.5630  173.7720  145.1840 C   0  0  0  0  0  1  0  0  0  0  0  0
  1  4  1  0  0  0  0
  4  3  1  0  0  0  0
  5  3  2  0  0  0  0
  6  9  2  0  0  0  0
  7  1  2  0  0  0  0
  7  5  1  0  0  0  0
  8  6  1  1  0  0  0
  8  7  1  0  0  0  0
  9  2  1  0  0  0  0
  9  5  1  0  0  0  0
 10 14  1  0  0  0  0
 10 12  1  0  0  0  0
 11 15  1  6  0  0  0
 11  8  1  0  0  0  0
 11 18  1  0  0  0  0
 13 17  1  0  0  0  0
 14 20  1  0  0  0  0
 16 14  2  0  0  0  0
 17 18  1  0  0  0  0
 19 12  1  6  0  0  0
 19 13  1  0  0  0  0
 19 15  1  0  0  0  0
 20 13  2  0  0  0  0
 21 23  2  0  0  0  0
 23 24  1  0  0  0  0
 23 22  1  0  0  0  0
 24 16  1  0  0  0  0
 25 29  2  0  0  0  0
 25 27  1  0  0  0  0
 26 28  1  0  0  0  0
 26  1  1  0  0  0  0
 27 26  2  0  0  0  0
 29 30  1  0  0  0  0
 30 31  1  0  0  0  0
 30 28  2  0  0  0  0
 31 32  1  0  0  0  0
 32 33  1  0  0  0  0
 34 32  2  0  0  0  0
 35 36  1  0  0  0  0
 35  2  1  0  0  0  0
 37 36  1  0  0  0  0
M  END
>  <MODEL>
5

>  <REMARK>
 VINA RESULT:      -7.4      3.438      7.503
  Name = 
  7 active torsions:
  status: ('A' for Active; 'I' for Inactive)
    1  A    between atoms: C_1  and  C_13
    2  A    between atoms: N_4  and  C_36
    3  A    between atoms: C_8  and  O_21
    4  A    between atoms: O_9  and  C_22
    5  A    between atoms: O_9  and  C_33
    6  A    between atoms: N_12  and  O_21
    7  A    between atoms: C_20  and  N_25
                            x       y       z     vdW  Elec       q    Type
                         _______ _______ _______ _____ _____    ______ ____

>  <TORSDO>
F 7

$$$$
=
 OpenBabel11042418213D

 37 41  0  0  1  0  0  0  0  0999 V2000
  187.4870  176.9610  142.9510 C   0  0  0  0  0  0  0  0  0  0  0  0
  187.8050  174.9110  138.6960 N   0  0  0  0  0  2  0  0  0  0  0  0
  187.1040  177.4380  140.6540 C   0  0  0  0  0  3  0  0  0  0  0  0
  186.9930  178.0630  142.0350 C   0  0  0  0  0  3  0  0  0  0  0  0
  187.6650  176.2630  140.8470 C   0  0  0  0  0  0  0  0  0  0  0  0
  188.3100  174.0920  140.9010 N   0  0  0  0  0  0  0  0  0  0  0  0
  187.8940  175.9730  142.1850 C   0  0  2  0  0  3  0  0  0  0  0  0
  188.3040  174.5440  142.3130 C   0  0  2  0  0  3  0  0  0  0  0  0
  187.9450  175.0580  140.1090 C   0  0  0  0  0  0  0  0  0  0  0  0
  192.5490  171.2460  144.1630 C   0  0  0  0  0  2  0  0  0  0  0  0
  189.6260  174.4210  142.9440 N   0  0  1  0  0  0  0  0  0  0  0  0
  192.2730  171.6250  142.7110 C   0  0  0  0  0  2  0  0  0  0  0  0
  192.2880  174.0660  143.5190 C   0  0  0  0  0  0  0  0  0  0  0  0
  193.3650  172.3140  144.8330 C   0  0  0  0  0  0  0  0  0  0  0  0
  190.1650  173.0890  142.5980 C   0  0  0  0  0  2  0  0  0  0  0  0
  194.2680  172.0200  145.7630 C   0  0  0  0  0  3  0  0  0  0  0  0
  191.8050  175.4770  143.3950 C   0  0  0  0  0  2  0  0  0  0  0  0
  190.5350  175.5140  142.5410 C   0  0  0  0  0  2  0  0  0  0  0  0
  191.7000  173.0420  142.5770 C   0  0  2  0  0  3  0  0  0  0  0  0
  193.0600  173.7230  144.5520 C   0  0  0  0  0  3  0  0  0  0  0  0
  196.1200  168.9740  146.4460 O   0  0  0  0  0  0  0  0  0  0  0  0
  196.9900  170.9930  145.7010 N   0  0  0  0  0  1  0  0  0  0  0  0
  195.9020  170.1650  146.0980 C   0  0  0  0  0  0  0  0  0  0  0  0
  194.5680  170.6710  146.1180 N   0  0  0  0  0  2  0  0  0  0  0  0
  186.1490  176.7900  146.4210 C   0  0  0  0  0  3  0  0  0  0  0  0
  187.4280  176.9580  144.4230 C   0  0  0  0  0  0  0  0  0  0  0  0
  186.2380  176.7930  145.0640 N   0  0  0  0  0  0  0  0  0  0  0  0
  188.5980  177.1260  145.1720 C   0  0  0  0  0  3  0  0  0  0  0  0
  187.2960  176.9610  147.1960 C   0  0  0  0  0  3  0  0  0  0  0  0
  188.5380  177.1330  146.5680 C   0  0  0  0  0  0  0  0  0  0  0  0
  189.7320  177.3040  147.2860 O   0  0  0  0  0  0  0  0  0  0  0  0
  190.8410  176.4490  147.2550 C   0  0  0  0  0  0  0  0  0  0  0  0
  191.9730  176.7450  146.5040 O   0  0  0  0  0  0  0  0  0  0  0  0
  190.8030  175.3740  147.9090 O   0  0  0  0  0  1  0  0  0  0  0  0
  188.0930  173.7370  138.0820 O   0  0  0  0  0  0  0  0  0  0  0  0
  189.2220  174.0030  137.3070 C   0  0  0  0  0  2  0  0  0  0  0  0
  189.9980  172.7210  137.0850 C   0  0  0  0  0  1  0  0  0  0  0  0
  1 26  1  0  0  0  0
  2  9  1  0  0  0  0
  3  5  2  0  0  0  0
  3  4  1  0  0  0  0
  4  1  2  0  0  0  0
  7  5  1  6  0  0  0
  7  8  1  0  0  0  0
  7  1  1  0  0  0  0
  8  6  1  6  0  0  0
  8 11  1  0  0  0  0
  9  5  1  0  0  0  0
  9  6  2  0  0  0  0
 10 14  1  0  0  0  0
 11 18  1  6  0  0  0
 12 10  1  0  0  0  0
 13 20  2  0  0  0  0
 14 16  2  0  0  0  0
 15 11  1  0  0  0  0
 16 24  1  0  0  0  0
 17 13  1  0  0  0  0
 18 17  1  0  0  0  0
 19 15  1  1  0  0  0
 19 12  1  0  0  0  0
 19 13  1  0  0  0  0
 20 14  1  0  0  0  0
 22 23  1  0  0  0  0
 23 24  1  0  0  0  0
 23 21  2  0  0  0  0
 25 29  1  0  0  0  0
 26 27  1  0  0  0  0
 26 28  2  0  0  0  0
 27 25  2  0  0  0  0
 28 30  1  0  0  0  0
 30 29  2  0  0  0  0
 30 31  1  0  0  0  0
 32 31  1  0  0  0  0
 32 34  1  0  0  0  0
 33 32  2  0  0  0  0
 35  2  1  0  0  0  0
 36 35  1  0  0  0  0
 37 36  1  0  0  0  0
M  END
>  <MODEL>
6

>  <REMARK>
 VINA RESULT:      -7.3      2.401      2.844
  Name = 
  7 active torsions:
  status: ('A' for Active; 'I' for Inactive)
    1  A    between atoms: C_1  and  C_13
    2  A    between atoms: N_4  and  C_36
    3  A    between atoms: C_8  and  O_21
    4  A    between atoms: O_9  and  C_22
    5  A    between atoms: O_9  and  C_33
    6  A    between atoms: N_12  and  O_21
    7  A    between atoms: C_20  and  N_25
                            x       y       z     vdW  Elec       q    Type
                         _______ _______ _______ _____ _____    ______ ____

>  <TORSDO>
F 7

$$$$
=
 OpenBabel11042418213D

 37 41  0  0  1  0  0  0  0  0999 V2000
  191.6180  172.4600  143.9350 C   0  0  0  0  0  0  0  0  0  0  0  0
  191.3780  170.7730  139.5190 N   0  0  0  0  0  2  0  0  0  0  0  0
  191.8860  170.4270  142.7330 C   0  0  0  0  0  3  0  0  0  0  0  0
  191.9760  171.0010  144.1370 C   0  0  0  0  0  2  0  0  0  0  0  0
  191.4480  171.4140  141.9800 C   0  0  0  0  0  0  0  0  0  0  0  0
  191.0190  172.9820  140.4020 N   0  0  0  0  0  0  0  0  0  0  0  0
  191.2870  172.6070  142.6710 C   0  0  0  0  0  0  0  0  0  0  0  0
  191.0220  173.7040  141.6970 C   0  0  2  0  0  3  0  0  0  0  0  0
  191.2650  171.7160  140.5840 C   0  0  0  0  0  0  0  0  0  0  0  0
  188.1020  177.8530  144.2640 C   0  0  0  0  0  2  0  0  0  0  0  0
  189.7360  174.3640  141.9690 N   0  0  1  0  0  0  0  0  0  0  0  0
  188.9390  177.9950  142.9950 C   0  0  0  0  0  2  0  0  0  0  0  0
  187.5600  176.0360  142.0630 C   0  0  0  0  0  0  0  0  0  0  0  0
  186.7200  177.3760  143.9220 C   0  0  0  0  0  0  0  0  0  0  0  0
  190.0260  175.7360  142.4340 C   0  0  0  0  0  2  0  0  0  0  0  0
  185.6550  177.7710  144.6140 C   0  0  0  0  0  3  0  0  0  0  0  0
  187.4480  174.8290  141.1850 C   0  0  0  0  0  2  0  0  0  0  0  0
  188.8460  174.3490  140.7890 C   0  0  0  0  0  2  0  0  0  0  0  0
  188.8990  176.7320  142.1250 C   0  0  2  0  0  3  0  0  0  0  0  0
  186.5590  176.3430  142.8910 C   0  0  0  0  0  3  0  0  0  0  0  0
  186.0490  179.2280  147.9150 O   0  0  0  0  0  0  0  0  0  0  0  0
  185.9970  176.9680  147.3890 N   0  0  0  0  0  1  0  0  0  0  0  0
  185.9350  178.3430  147.0260 C   0  0  0  0  0  0  0  0  0  0  0  0
  185.7580  178.7320  145.6650 N   0  0  0  0  0  2  0  0  0  0  0  0
  190.6690  174.9510  146.5340 C   0  0  0  0  0  3  0  0  0  0  0  0
  191.7190  173.5310  144.9420 C   0  0  0  0  0  0  0  0  0  0  0  0
  190.6100  173.9620  145.6040 N   0  0  0  0  0  0  0  0  0  0  0  0
  192.9600  174.1140  145.2230 C   0  0  0  0  0  3  0  0  0  0  0  0
  191.8910  175.5550  146.8330 C   0  0  0  0  0  3  0  0  0  0  0  0
  193.0530  175.1360  146.1700 C   0  0  0  0  0  0  0  0  0  0  0  0
  194.3140  175.6960  146.4260 O   0  0  0  0  0  0  0  0  0  0  0  0
  194.9700  176.6460  145.6310 C   0  0  0  0  0  0  0  0  0  0  0  0
  194.9540  178.0000  145.9460 O   0  0  0  0  0  1  0  0  0  0  0  0
  195.5730  176.2640  144.5950 O   0  0  0  0  0  0  0  0  0  0  0  0
  191.1880  171.1460  138.2290 O   0  0  0  0  0  0  0  0  0  0  0  0
  190.0790  170.4150  137.8020 C   0  0  0  0  0  2  0  0  0  0  0  0
  189.7380  170.7980  136.3770 C   0  0  0  0  0  1  0  0  0  0  0  0
  1  4  1  0  0  0  0
  1 26  1  0  0  0  0
  2  9  1  0  0  0  0
  3  4  1  0  0  0  0
  5  7  1  0  0  0  0
  5  3  2  0  0  0  0
  6  9  2  0  0  0  0
  7  1  2  0  0  0  0
  8  6  1  6  0  0  0
  8 11  1  0  0  0  0
  8  7  1  0  0  0  0
  9  5  1  0  0  0  0
 11 18  1  6  0  0  0
 11 15  1  0  0  0  0
 12 10  1  0  0  0  0
 13 19  1  0  0  0  0
 13 20  2  0  0  0  0
 14 10  1  0  0  0  0
 14 16  2  0  0  0  0
 16 24  1  0  0  0  0
 17 13  1  0  0  0  0
 18 17  1  0  0  0  0
 19 15  1  1  0  0  0
 19 12  1  0  0  0  0
 20 14  1  0  0  0  0
 23 22  1  0  0  0  0
 23 21  2  0  0  0  0
 24 23  1  0  0  0  0
 25 29  1  0  0  0  0
 26 28  2  0  0  0  0
 26 27  1  0  0  0  0
 27 25  2  0  0  0  0
 28 30  1  0  0  0  0
 30 31  1  0  0  0  0
 30 29  2  0  0  0  0
 32 33  1  0  0  0  0
 32 31  1  0  0  0  0
 34 32  2  0  0  0  0
 35  2  1  0  0  0  0
 36 35  1  0  0  0  0
 37 36  1  0  0  0  0
M  END
>  <MODEL>
7

>  <REMARK>
 VINA RESULT:      -7.2      3.231      7.062
  Name = 
  7 active torsions:
  status: ('A' for Active; 'I' for Inactive)
    1  A    between atoms: C_1  and  C_13
    2  A    between atoms: N_4  and  C_36
    3  A    between atoms: C_8  and  O_21
    4  A    between atoms: O_9  and  C_22
    5  A    between atoms: O_9  and  C_33
    6  A    between atoms: N_12  and  O_21
    7  A    between atoms: C_20  and  N_25
                            x       y       z     vdW  Elec       q    Type
                         _______ _______ _______ _____ _____    ______ ____

>  <TORSDO>
F 7

$$$$
=
 OpenBabel11042418213D

 37 41  0  0  1  0  0  0  0  0999 V2000
  186.4010  177.6000  144.0590 C   0  0  0  0  0  0  0  0  0  0  0  0
  190.4280  176.9730  146.4690 N   0  0  0  0  0  2  0  0  0  0  0  0
  187.2100  177.5420  146.2940 C   0  0  0  0  0  3  0  0  0  0  0  0
  185.9370  177.7600  145.4930 C   0  0  0  0  0  2  0  0  0  0  0  0
  188.1280  177.2180  145.4080 C   0  0  0  0  0  0  0  0  0  0  0  0
  189.9640  176.9540  144.1080 N   0  0  0  0  0  0  0  0  0  0  0  0
  187.6680  177.2470  144.0990 C   0  0  0  0  0  0  0  0  0  0  0  0
  188.8260  177.1020  143.1700 C   0  0  2  0  0  3  0  0  0  0  0  0
  189.5540  177.0290  145.3420 C   0  0  0  0  0  0  0  0  0  0  0  0
  191.0870  173.4150  139.4810 C   0  0  0  0  0  2  0  0  0  0  0  0
  188.6680  175.9310  142.2960 N   0  0  1  0  0  0  0  0  0  0  0  0
  191.2640  173.3920  140.9960 C   0  0  0  0  0  2  0  0  0  0  0  0
  188.6970  173.4440  141.1320 C   0  0  0  0  0  0  0  0  0  0  0  0
  189.8220  172.7030  139.0960 C   0  0  0  0  0  0  0  0  0  0  0  0
  190.0150  175.3850  142.0300 C   0  0  0  0  0  2  0  0  0  0  0  0
  189.7290  172.0070  137.9670 C   0  0  0  0  0  3  0  0  0  0  0  0
  187.4430  173.8420  141.8440 C   0  0  0  0  0  2  0  0  0  0  0  0
  187.7610  174.9220  142.8810 C   0  0  0  0  0  2  0  0  0  0  0  0
  190.0120  173.8780  141.7370 C   0  0  2  0  0  3  0  0  0  0  0  0
  188.6190  172.8980  139.9170 C   0  0  0  0  0  3  0  0  0  0  0  0
  191.8430  172.0910  135.0180 O   0  0  0  0  0  0  0  0  0  0  0  0
  189.6510  172.8340  135.1790 N   0  0  0  0  0  1  0  0  0  0  0  0
  190.8200  172.2430  135.7360 C   0  0  0  0  0  0  0  0  0  0  0  0
  190.8500  171.8300  137.1010 N   0  0  0  0  0  2  0  0  0  0  0  0
  185.5270  178.2910  140.5080 C   0  0  0  0  0  3  0  0  0  0  0  0
  185.6110  177.8840  142.8490 C   0  0  0  0  0  0  0  0  0  0  0  0
  186.2260  178.0250  141.6420 N   0  0  0  0  0  0  0  0  0  0  0  0
  184.2200  178.0100  142.9330 C   0  0  0  0  0  3  0  0  0  0  0  0
  184.1390  178.4290  140.5590 C   0  0  0  0  0  3  0  0  0  0  0  0
  183.4730  178.2900  141.7860 C   0  0  0  0  0  0  0  0  0  0  0  0
  182.0800  178.4100  141.9090 O   0  0  0  0  0  0  0  0  0  0  0  0
  181.1940  178.7890  140.8930 C   0  0  0  0  0  0  0  0  0  0  0  0
  180.7310  180.0940  140.7750 O   0  0  0  0  0  1  0  0  0  0  0  0
  180.7910  177.9190  140.0770 O   0  0  0  0  0  0  0  0  0  0  0  0
  191.7620  176.7900  146.3130 O   0  0  0  0  0  0  0  0  0  0  0  0
  192.0440  175.5990  146.9820 C   0  0  0  0  0  2  0  0  0  0  0  0
  192.9310  174.7300  146.1170 C   0  0  0  0  0  1  0  0  0  0  0  0
  1  7  2  0  0  0  0
  1  4  1  0  0  0  0
  4  3  1  0  0  0  0
  5  3  2  0  0  0  0
  6  9  2  0  0  0  0
  7  5  1  0  0  0  0
  8  7  1  1  0  0  0
  8  6  1  0  0  0  0
  9  5  1  0  0  0  0
  9  2  1  0  0  0  0
 10 12  1  0  0  0  0
 11 15  1  1  0  0  0
 11 18  1  0  0  0  0
 11  8  1  0  0  0  0
 13 19  1  0  0  0  0
 13 17  1  0  0  0  0
 14 10  1  0  0  0  0
 14 20  1  0  0  0  0
 16 14  2  0  0  0  0
 17 18  1  0  0  0  0
 19 12  1  6  0  0  0
 19 15  1  0  0  0  0
 20 13  2  0  0  0  0
 21 23  2  0  0  0  0
 22 23  1  0  0  0  0
 23 24  1  0  0  0  0
 24 16  1  0  0  0  0
 25 29  2  0  0  0  0
 25 27  1  0  0  0  0
 26 28  1  0  0  0  0
 26  1  1  0  0  0  0
 27 26  2  0  0  0  0
 29 30  1  0  0  0  0
 30 31  1  0  0  0  0
 30 28  2  0  0  0  0
 32 31  1  0  0  0  0
 33 32  1  0  0  0  0
 34 32  2  0  0  0  0
 35  2  1  0  0  0  0
 35 36  1  0  0  0  0
 37 36  1  0  0  0  0
M  END
>  <MODEL>
8

>  <REMARK>
 VINA RESULT:      -7.1      3.672      7.403
  Name = 
  7 active torsions:
  status: ('A' for Active; 'I' for Inactive)
    1  A    between atoms: C_1  and  C_13
    2  A    between atoms: N_4  and  C_36
    3  A    between atoms: C_8  and  O_21
    4  A    between atoms: O_9  and  C_22
    5  A    between atoms: O_9  and  C_33
    6  A    between atoms: N_12  and  O_21
    7  A    between atoms: C_20  and  N_25
                            x       y       z     vdW  Elec       q    Type
                         _______ _______ _______ _____ _____    ______ ____

>  <TORSDO>
F 7

$$$$
=
 OpenBabel11042418213D

 37 41  0  0  1  0  0  0  0  0999 V2000
  191.6170  173.8720  142.9960 C   0  0  0  0  0  0  0  0  0  0  0  0
  191.9990  175.7860  147.3080 N   0  0  0  0  0  2  0  0  0  0  0  0
  193.2740  174.5420  144.5630 C   0  0  0  0  0  3  0  0  0  0  0  0
  193.1190  173.9100  143.1890 C   0  0  0  0  0  3  0  0  0  0  0  0
  192.0530  174.8650  144.9370 C   0  0  0  0  0  0  0  0  0  0  0  0
  190.0740  175.2360  145.9740 N   0  0  0  0  0  0  0  0  0  0  0  0
  191.0760  174.4790  144.0290 C   0  0  2  0  0  3  0  0  0  0  0  0
  189.7320  174.6710  144.6470 C   0  0  2  0  0  3  0  0  0  0  0  0
  191.3650  175.3260  146.1150 C   0  0  0  0  0  0  0  0  0  0  0  0
  184.8990  177.5980  144.0210 C   0  0  0  0  0  2  0  0  0  0  0  0
  188.9020  175.5850  143.8490 N   0  0  1  0  0  0  0  0  0  0  0  0
  186.0790  177.9910  144.9060 C   0  0  0  0  0  2  0  0  0  0  0  0
  187.5330  177.7230  142.8020 C   0  0  0  0  0  0  0  0  0  0  0  0
  185.1250  178.0740  142.6150 C   0  0  0  0  0  0  0  0  0  0  0  0
  187.8970  176.1820  144.7530 C   0  0  0  0  0  2  0  0  0  0  0  0
  184.1180  178.4760  141.8450 C   0  0  0  0  0  3  0  0  0  0  0  0
  188.8430  177.3820  142.1650 C   0  0  0  0  0  2  0  0  0  0  0  0
  189.7140  176.6100  143.1590 C   0  0  0  0  0  2  0  0  0  0  0  0
  187.4260  177.5720  144.3020 C   0  0  2  0  0  3  0  0  0  0  0  0
  186.4680  177.9610  142.0330 C   0  0  0  0  0  3  0  0  0  0  0  0
  180.4950  178.3250  141.9990 O   0  0  0  0  0  0  0  0  0  0  0  0
  181.8260  177.9130  140.1440 N   0  0  0  0  0  1  0  0  0  0  0  0
  181.6540  178.2700  141.5110 C   0  0  0  0  0  0  0  0  0  0  0  0
  182.7810  178.5540  142.3390 N   0  0  0  0  0  2  0  0  0  0  0  0
  190.5340  171.2490  140.5860 C   0  0  0  0  0  3  0  0  0  0  0  0
  190.8940  173.1940  141.9050 C   0  0  0  0  0  0  0  0  0  0  0  0
  191.1790  171.9010  141.5890 N   0  0  0  0  0  0  0  0  0  0  0  0
  189.9080  173.8790  141.1860 C   0  0  0  0  0  3  0  0  0  0  0  0
  189.5490  171.9050  139.8470 C   0  0  0  0  0  3  0  0  0  0  0  0
  189.2300  173.2380  140.1460 C   0  0  0  0  0  0  0  0  0  0  0  0
  188.2470  173.9560  139.4470 O   0  0  0  0  0  0  0  0  0  0  0  0
  188.3700  174.4700  138.1500 C   0  0  0  0  0  0  0  0  0  0  0  0
  187.4010  175.2990  137.5970 O   0  0  0  0  0  1  0  0  0  0  0  0
  189.3750  174.1560  137.4600 O   0  0  0  0  0  0  0  0  0  0  0  0
  191.2710  176.2050  148.3720 O   0  0  0  0  0  0  0  0  0  0  0  0
  191.5470  177.5680  148.4840 C   0  0  0  0  0  2  0  0  0  0  0  0
  191.5600  177.9630  149.9460 C   0  0  0  0  0  1  0  0  0  0  0  0
  1  4  2  0  0  0  0
  2 35  1  0  0  0  0
  3  5  2  0  0  0  0
  4  3  1  0  0  0  0
  5  9  1  0  0  0  0
  6  9  2  0  0  0  0
  7  1  1  1  0  0  0
  7  8  1  0  0  0  0
  7  5  1  0  0  0  0
  8  6  1  1  0  0  0
  9  2  1  0  0  0  0
 10 12  1  0  0  0  0
 11 18  1  1  0  0  0
 11  8  1  0  0  0  0
 11 15  1  0  0  0  0
 13 19  1  0  0  0  0
 14 10  1  0  0  0  0
 16 24  1  0  0  0  0
 16 14  2  0  0  0  0
 17 13  1  0  0  0  0
 17 18  1  0  0  0  0
 19 15  1  6  0  0  0
 19 12  1  0  0  0  0
 20 14  1  0  0  0  0
 20 13  2  0  0  0  0
 22 23  1  0  0  0  0
 23 21  2  0  0  0  0
 23 24  1  0  0  0  0
 25 27  1  0  0  0  0
 26  1  1  0  0  0  0
 27 26  2  0  0  0  0
 28 26  1  0  0  0  0
 29 30  1  0  0  0  0
 29 25  2  0  0  0  0
 30 28  2  0  0  0  0
 31 30  1  0  0  0  0
 32 31  1  0  0  0  0
 33 32  1  0  0  0  0
 34 32  2  0  0  0  0
 35 36  1  0  0  0  0
 36 37  1  0  0  0  0
M  END
>  <MODEL>
9

>  <REMARK>
 VINA RESULT:      -7.0      2.959      9.263
  Name = 
  7 active torsions:
  status: ('A' for Active; 'I' for Inactive)
    1  A    between atoms: C_1  and  C_13
    2  A    between atoms: N_4  and  C_36
    3  A    between atoms: C_8  and  O_21
    4  A    between atoms: O_9  and  C_22
    5  A    between atoms: O_9  and  C_33
    6  A    between atoms: N_12  and  O_21
    7  A    between atoms: C_20  and  N_25
                            x       y       z     vdW  Elec       q    Type
                         _______ _______ _______ _____ _____    ______ ____

>  <TORSDO>
F 7

$$$$
