=
 OpenBabel11042415223D

 47 55  0  0  1  0  0  0  0  0999 V2000
  186.6890  176.1820  144.7790 C   0  0  0  0  0  3  0  0  0  0  0  0
  194.8390  175.2590  146.5350 N   0  0  0  0  0  0  0  0  0  0  0  0
  186.1750  177.7450  146.2390 N   0  0  0  0  0  0  0  0  0  0  0  0
  192.0590  174.2600  144.5070 C   0  0  0  0  0  2  0  0  0  0  0  0
  189.6880  177.6310  147.1790 C   0  0  0  0  0  3  0  0  0  0  0  0
  193.5060  175.3110  146.1230 N   0  0  0  0  0  0  0  0  0  0  0  0
  191.0420  175.0840  144.9990 C   0  0  0  0  0  0  0  0  0  0  0  0
  188.3810  178.0680  147.2130 N   0  0  0  0  0  0  0  0  0  0  0  0
  194.5700  173.7600  144.8600 C   0  0  0  0  0  0  0  0  0  0  0  0
  193.3080  174.4210  145.1240 C   0  0  0  0  0  0  0  0  0  0  0  0
  189.1160  176.1100  145.3970 N   0  0  0  0  0  0  0  0  0  0  0  0
  194.7980  172.7850  143.9770 C   0  0  0  0  0  2  0  0  0  0  0  0
  187.4850  177.5140  146.3430 C   0  0  0  0  0  0  0  0  0  0  0  0
  185.3880  178.6800  147.0280 C   0  0  0  0  0  1  0  0  0  0  0  0
  189.7100  175.1680  144.6280 C   0  0  0  0  0  0  0  0  0  0  0  0
  191.2600  176.0000  146.0240 C   0  0  0  0  0  0  0  0  0  0  0  0
  187.8350  176.5540  145.4520 C   0  0  0  0  0  0  0  0  0  0  0  0
  192.5250  176.1230  146.6110 C   0  0  0  0  0  0  0  0  0  0  0  0
  195.5270  174.3000  145.7710 N   0  0  0  0  0  0  0  0  0  0  0  0
  190.0440  176.6260  146.2470 C   0  0  0  0  0  0  0  0  0  0  0  0
  185.6830  176.9440  145.2950 N   0  0  0  0  0  0  0  0  0  0  0  0
  192.7530  176.9370  147.5440 O   0  0  0  0  0  0  0  0  0  0  0  0
  196.1000  172.2380  143.7390 N   0  0  0  0  0  2  0  0  0  0  0  0
  196.5870  171.0100  144.2940 C   0  0  0  0  0  0  0  0  0  0  0  0
  197.6700  170.5210  143.8600 O   0  0  0  0  0  0  0  0  0  0  0  0
  196.5150  169.0480  147.4490 C   0  0  0  0  0  3  0  0  0  0  0  0
  196.9260  169.8430  146.4560 C   0  0  0  0  0  3  0  0  0  0  0  0
  195.0520  168.7000  147.5460 C   0  0  0  0  0  2  0  0  0  0  0  0
  195.9120  170.3820  145.4750 C   0  0  2  0  0  3  0  0  0  0  0  0
  194.5310  168.2960  146.1610 C   0  0  0  0  0  2  0  0  0  0  0  0
  194.8550  169.3340  145.0620 C   0  0  0  0  0  2  0  0  0  0  0  0
  189.0540  174.4040  143.5190 C   0  0  0  0  0  2  0  0  0  0  0  0
  189.4910  174.9800  142.1830 C   0  0  2  0  0  3  0  0  0  0  0  0
  188.2970  175.2270  141.2800 C   0  0  0  0  0  1  0  0  0  0  0  0
  191.9580  172.0290  140.8780 S   0  0  0  0  0  0  0  0  0  0  0  0
  193.9250  174.0140  140.5240 N   0  0  0  0  0  2  0  0  0  0  0  0
  191.7300  174.6100  141.2170 N   0  0  0  0  0  0  0  0  0  0  0  0
  190.3560  172.6530  141.5220 C   0  0  0  0  0  2  0  0  0  0  0  0
  192.5720  173.7050  140.8710 C   0  0  0  0  0  0  0  0  0  0  0  0
  190.4700  174.1110  141.5480 N   0  0  0  0  0  0  0  0  0  0  0  0
  195.7630  175.4650  141.3750 C   0  0  2  0  0  0  0  0  0  0  0  0
  194.4580  175.3700  140.5680 C   0  0  1  0  0  0  0  0  0  0  0  0
  195.9450  175.3600  139.5570 S   0  0  0  0  0  0  0  0  0  0  0  0
  194.4550  175.7770  141.9450 N   0  0  0  0  0  2  0  0  0  0  0  0
  196.4440  176.6660  141.5830 O   0  0  0  0  0  0  0  0  0  0  0  0
  196.8140  176.6480  142.9280 C   0  0  0  0  0  2  0  0  0  0  0  0
  197.7990  175.5190  143.1620 C   0  0  0  0  0  1  0  0  0  0  0  0
  1 21  2  0  0  0  0
  1 17  1  0  0  0  0
  3 13  1  0  0  0  0
  3 14  1  0  0  0  0
  4  7  1  0  0  0  0
  4 10  1  0  0  0  0
  5  8  2  0  0  0  0
  6  2  1  0  0  0  0
  6 18  1  0  0  0  0
  7 16  1  0  0  0  0
  9 10  2  0  0  0  0
  9 19  1  0  0  0  0
 10  6  1  0  0  0  0
 11 17  1  0  0  0  0
 11 20  1  0  0  0  0
 12  9  1  0  0  0  0
 13  8  1  0  0  0  0
 15  7  2  0  0  0  0
 15 11  1  0  0  0  0
 16 20  2  0  0  0  0
 16 18  1  0  0  0  0
 17 13  2  0  0  0  0
 18 22  2  0  0  0  0
 19  2  2  0  0  0  0
 20  5  1  0  0  0  0
 21  3  1  0  0  0  0
 23 12  1  0  0  0  0
 23 24  1  0  0  0  0
 25 24  2  0  0  0  0
 26 28  1  0  0  0  0
 27 26  2  0  0  0  0
 29 24  1  6  0  0  0
 29 27  1  0  0  0  0
 30 28  1  0  0  0  0
 31 29  1  0  0  0  0
 31 30  1  0  0  0  0
 32 15  1  0  0  0  0
 33 34  1  6  0  0  0
 33 32  1  0  0  0  0
 35 38  1  0  0  0  0
 36 39  1  0  0  0  0
 37 40  1  0  0  0  0
 38 40  1  0  0  0  0
 39 35  1  0  0  0  0
 39 37  2  0  0  0  0
 40 33  1  0  0  0  0
 41 45  1  6  0  0  0
 41 44  1  0  0  0  0
 42 36  1  1  0  0  0
 42 41  1  0  0  0  0
 42 44  1  0  0  0  0
 43 42  1  0  0  0  0
 43 41  1  0  0  0  0
 45 46  1  0  0  0  0
 46 47  1  0  0  0  0
M  END
>  <MODEL>
1

>  <REMARK>
 VINA RESULT:      -7.7      0.000      0.000
  Name = 
  8 active torsions:
  status: ('A' for Active; 'I' for Inactive)
    1  A    between atoms: C_1  and  O_21
    2  A    between atoms: N_2  and  C_25
    3  A    between atoms: C_3  and  N_10
    4  A    between atoms: C_9  and  C_28
    5  A    between atoms: C_13  and  C_32
    6  A    between atoms: C_13  and  C_40
    7  A    between atoms: C_15  and  O_21
    8  A    between atoms: C_40  and  N_41
                            x       y       z     vdW  Elec       q    Type
                         _______ _______ _______ _____ _____    ______ ____

>  <TORSDO>
F 8

$$$$
=
 OpenBabel11042415223D

 47 55  0  0  1  0  0  0  0  0999 V2000
  194.3640  171.1260  143.4410 C   0  0  0  0  0  3  0  0  0  0  0  0
  190.9120  177.5350  147.6090 N   0  0  0  0  0  0  0  0  0  0  0  0
  196.4900  171.6390  143.6770 N   0  0  0  0  0  0  0  0  0  0  0  0
  190.3920  174.5030  145.7710 C   0  0  0  0  0  2  0  0  0  0  0  0
  195.3010  174.4870  145.6060 C   0  0  0  0  0  3  0  0  0  0  0  0
  191.3390  176.4100  146.9020 N   0  0  0  0  0  0  0  0  0  0  0  0
  191.7060  174.1130  145.4950 C   0  0  0  0  0  0  0  0  0  0  0  0
  196.2290  173.6460  145.0280 N   0  0  0  0  0  0  0  0  0  0  0  0
  189.0740  176.3750  146.9710 C   0  0  0  0  0  0  0  0  0  0  0  0
  190.2640  175.6940  146.4990 C   0  0  0  0  0  0  0  0  0  0  0  0
  193.5310  173.0680  144.7890 N   0  0  0  0  0  0  0  0  0  0  0  0
  187.8070  176.0210  146.7540 C   0  0  0  0  0  2  0  0  0  0  0  0
  195.7810  172.5480  144.3500 C   0  0  0  0  0  0  0  0  0  0  0  0
  197.9360  171.5940  143.5300 C   0  0  0  0  0  1  0  0  0  0  0  0
  192.1780  173.0140  144.7970 C   0  0  0  0  0  0  0  0  0  0  0  0
  192.8050  174.8540  145.9200 C   0  0  0  0  0  0  0  0  0  0  0  0
  194.4620  172.2570  144.2260 C   0  0  0  0  0  0  0  0  0  0  0  0
  192.6270  176.0400  146.6430 C   0  0  0  0  0  0  0  0  0  0  0  0
  189.5070  177.5440  147.6660 N   0  0  0  0  0  0  0  0  0  0  0  0
  193.9260  174.1770  145.4680 C   0  0  0  0  0  0  0  0  0  0  0  0
  195.6420  170.7740  143.1230 N   0  0  0  0  0  0  0  0  0  0  0  0
  193.5990  176.7370  147.0350 O   0  0  0  0  0  0  0  0  0  0  0  0
  186.6930  176.7220  147.3210 N   0  0  0  0  0  2  0  0  0  0  0  0
  185.7370  177.4830  146.5720 C   0  0  0  0  0  0  0  0  0  0  0  0
  184.6860  177.8910  147.1460 O   0  0  0  0  0  0  0  0  0  0  0  0
  185.5350  179.8180  143.6890 C   0  0  0  0  0  3  0  0  0  0  0  0
  185.5660  179.3400  144.9370 C   0  0  0  0  0  3  0  0  0  0  0  0
  185.9530  178.9210  142.5530 C   0  0  0  0  0  2  0  0  0  0  0  0
  186.0350  177.9240  145.1720 C   0  0  2  0  0  3  0  0  0  0  0  0
  185.2880  177.5490  142.7160 C   0  0  0  0  0  2  0  0  0  0  0  0
  185.5060  176.9290  144.1160 C   0  0  0  0  0  2  0  0  0  0  0  0
  191.3430  171.9140  144.2150 C   0  0  0  0  0  2  0  0  0  0  0  0
  190.6040  172.4350  142.9940 C   0  0  2  0  0  3  0  0  0  0  0  0
  189.1830  171.9070  142.9520 C   0  0  0  0  0  1  0  0  0  0  0  0
  192.6450  170.8200  139.8760 S   0  0  0  0  0  0  0  0  0  0  0  0
  194.0560  173.2540  139.7140 N   0  0  0  0  0  2  0  0  0  0  0  0
  192.2810  172.9970  141.2750 N   0  0  0  0  0  0  0  0  0  0  0  0
  191.3860  170.7600  141.2100 C   0  0  0  0  0  2  0  0  0  0  0  0
  193.0070  172.5060  140.3360 C   0  0  0  0  0  0  0  0  0  0  0  0
  191.3320  172.1070  141.7780 N   0  0  0  0  0  0  0  0  0  0  0  0
  195.8640  174.7380  140.5690 C   0  0  2  0  0  0  0  0  0  0  0  0
  194.4000  174.6120  140.1160 C   0  0  1  0  0  0  0  0  0  0  0  0
  195.5050  175.2480  138.8480 S   0  0  0  0  0  0  0  0  0  0  0  0
  194.7590  174.5580  141.5050 N   0  0  0  0  0  2  0  0  0  0  0  0
  196.4190  175.9350  141.0280 O   0  0  0  0  0  0  0  0  0  0  0  0
  197.1220  175.5920  142.1830 C   0  0  0  0  0  2  0  0  0  0  0  0
  197.1840  176.7910  143.1070 C   0  0  0  0  0  1  0  0  0  0  0  0
  1 17  1  0  0  0  0
  2 19  2  0  0  0  0
  3 13  1  0  0  0  0
  4 10  1  0  0  0  0
  6  2  1  0  0  0  0
  7  4  1  0  0  0  0
  7 16  1  0  0  0  0
  8  5  2  0  0  0  0
  9 19  1  0  0  0  0
 10  6  1  0  0  0  0
 10  9  2  0  0  0  0
 11 15  1  0  0  0  0
 11 20  1  0  0  0  0
 12  9  1  0  0  0  0
 12 23  1  0  0  0  0
 13  8  1  0  0  0  0
 14  3  1  0  0  0  0
 15  7  2  0  0  0  0
 16 18  1  0  0  0  0
 17 13  2  0  0  0  0
 17 11  1  0  0  0  0
 18  6  1  0  0  0  0
 18 22  2  0  0  0  0
 20  5  1  0  0  0  0
 20 16  2  0  0  0  0
 21  1  2  0  0  0  0
 21  3  1  0  0  0  0
 24 25  2  0  0  0  0
 24 23  1  0  0  0  0
 26 27  2  0  0  0  0
 27 29  1  0  0  0  0
 28 30  1  0  0  0  0
 28 26  1  0  0  0  0
 29 24  1  1  0  0  0
 30 31  1  0  0  0  0
 31 29  1  0  0  0  0
 32 15  1  0  0  0  0
 33 34  1  6  0  0  0
 33 32  1  0  0  0  0
 35 39  1  0  0  0  0
 35 38  1  0  0  0  0
 36 39  1  0  0  0  0
 37 40  1  0  0  0  0
 38 40  1  0  0  0  0
 39 37  2  0  0  0  0
 40 33  1  0  0  0  0
 41 45  1  1  0  0  0
 41 44  1  0  0  0  0
 42 36  1  6  0  0  0
 42 41  1  0  0  0  0
 42 44  1  0  0  0  0
 43 42  1  0  0  0  0
 43 41  1  0  0  0  0
 45 46  1  0  0  0  0
 46 47  1  0  0  0  0
M  END
>  <MODEL>
2

>  <REMARK>
 VINA RESULT:      -7.7      2.223      7.872
  Name = 
  8 active torsions:
  status: ('A' for Active; 'I' for Inactive)
    1  A    between atoms: C_1  and  O_21
    2  A    between atoms: N_2  and  C_25
    3  A    between atoms: C_3  and  N_10
    4  A    between atoms: C_9  and  C_28
    5  A    between atoms: C_13  and  C_32
    6  A    between atoms: C_13  and  C_40
    7  A    between atoms: C_15  and  O_21
    8  A    between atoms: C_40  and  N_41
                            x       y       z     vdW  Elec       q    Type
                         _______ _______ _______ _____ _____    ______ ____

>  <TORSDO>
F 8

$$$$
=
 OpenBabel11042415223D

 47 55  0  0  1  0  0  0  0  0999 V2000
  194.2350  171.1070  143.2860 C   0  0  0  0  0  3  0  0  0  0  0  0
  190.9260  177.5250  147.5550 N   0  0  0  0  0  0  0  0  0  0  0  0
  196.3690  171.6050  143.4730 N   0  0  0  0  0  0  0  0  0  0  0  0
  190.3420  174.5020  145.7200 C   0  0  0  0  0  2  0  0  0  0  0  0
  195.2460  174.4540  145.4390 C   0  0  0  0  0  3  0  0  0  0  0  0
  191.3290  176.3990  146.8340 N   0  0  0  0  0  0  0  0  0  0  0  0
  191.6470  174.1050  145.4120 C   0  0  0  0  0  0  0  0  0  0  0  0
  196.1540  173.6090  144.8370 N   0  0  0  0  0  0  0  0  0  0  0  0
  189.0660  176.3800  146.9570 C   0  0  0  0  0  0  0  0  0  0  0  0
  190.2390  175.6920  146.4540 C   0  0  0  0  0  0  0  0  0  0  0  0
  193.4470  173.0500  144.6590 N   0  0  0  0  0  0  0  0  0  0  0  0
  187.7910  176.0350  146.7690 C   0  0  0  0  0  2  0  0  0  0  0  0
  195.6820  172.5160  144.1660 C   0  0  0  0  0  0  0  0  0  0  0  0
  197.8110  171.5510  143.2920 C   0  0  0  0  0  1  0  0  0  0  0  0
  192.0950  173.0050  144.6990 C   0  0  0  0  0  0  0  0  0  0  0  0
  192.7610  174.8370  145.8130 C   0  0  0  0  0  0  0  0  0  0  0  0
  194.3600  172.2350  144.0710 C   0  0  0  0  0  0  0  0  0  0  0  0
  192.6070  176.0220  146.5440 C   0  0  0  0  0  0  0  0  0  0  0  0
  189.5230  177.5430  147.6450 N   0  0  0  0  0  0  0  0  0  0  0  0
  193.8660  174.1540  145.3330 C   0  0  0  0  0  0  0  0  0  0  0  0
  195.5030  170.7470  142.9360 N   0  0  0  0  0  0  0  0  0  0  0  0
  193.5930  176.7110  146.9150 O   0  0  0  0  0  0  0  0  0  0  0  0
  186.6960  176.7420  147.3640 N   0  0  0  0  0  2  0  0  0  0  0  0
  185.7320  177.5170  146.6410 C   0  0  0  0  0  0  0  0  0  0  0  0
  184.6970  177.9300  147.2390 O   0  0  0  0  0  0  0  0  0  0  0  0
  185.5570  179.9110  143.8050 C   0  0  0  0  0  3  0  0  0  0  0  0
  185.6050  179.4100  145.0430 C   0  0  0  0  0  3  0  0  0  0  0  0
  185.8870  179.0130  142.6410 C   0  0  0  0  0  2  0  0  0  0  0  0
  186.0050  177.9670  145.2390 C   0  0  2  0  0  3  0  0  0  0  0  0
  185.1550  177.6760  142.8050 C   0  0  0  0  0  2  0  0  0  0  0  0
  185.3870  177.0200  144.1850 C   0  0  0  0  0  2  0  0  0  0  0  0
  191.2390  171.9130  144.1330 C   0  0  0  0  0  2  0  0  0  0  0  0
  190.4790  172.4420  142.9280 C   0  0  2  0  0  3  0  0  0  0  0  0
  189.0200  172.0300  142.9820 C   0  0  0  0  0  1  0  0  0  0  0  0
  192.2050  170.5340  139.7850 S   0  0  0  0  0  0  0  0  0  0  0  0
  193.8260  172.8160  139.4630 N   0  0  0  0  0  2  0  0  0  0  0  0
  192.1150  172.7830  141.1130 N   0  0  0  0  0  0  0  0  0  0  0  0
  191.0130  170.6400  141.1760 C   0  0  0  0  0  2  0  0  0  0  0  0
  192.7450  172.1930  140.1620 C   0  0  0  0  0  0  0  0  0  0  0  0
  191.1120  172.0040  141.6930 N   0  0  0  0  0  0  0  0  0  0  0  0
  195.7240  174.4140  139.2420 C   0  0  2  0  0  0  0  0  0  0  0  0
  194.3150  174.1480  139.7970 C   0  0  1  0  0  0  0  0  0  0  0  0
  194.3310  175.0780  138.2580 S   0  0  0  0  0  0  0  0  0  0  0  0
  195.4830  173.9730  140.6130 N   0  0  0  0  0  2  0  0  0  0  0  0
  196.4150  175.6090  139.4580 O   0  0  0  0  0  0  0  0  0  0  0  0
  197.7650  175.2700  139.3770 C   0  0  0  0  0  2  0  0  0  0  0  0
  197.9410  174.1450  138.3760 C   0  0  0  0  0  1  0  0  0  0  0  0
  1 17  1  0  0  0  0
  2 19  2  0  0  0  0
  3 13  1  0  0  0  0
  4 10  1  0  0  0  0
  6  2  1  0  0  0  0
  7  4  1  0  0  0  0
  7 16  1  0  0  0  0
  8  5  2  0  0  0  0
  9 19  1  0  0  0  0
 10  6  1  0  0  0  0
 10  9  2  0  0  0  0
 11 15  1  0  0  0  0
 11 20  1  0  0  0  0
 12  9  1  0  0  0  0
 12 23  1  0  0  0  0
 13  8  1  0  0  0  0
 14  3  1  0  0  0  0
 15  7  2  0  0  0  0
 16 18  1  0  0  0  0
 17 13  2  0  0  0  0
 17 11  1  0  0  0  0
 18  6  1  0  0  0  0
 18 22  2  0  0  0  0
 20  5  1  0  0  0  0
 20 16  2  0  0  0  0
 21  1  2  0  0  0  0
 21  3  1  0  0  0  0
 24 25  2  0  0  0  0
 24 23  1  0  0  0  0
 26 27  2  0  0  0  0
 27 29  1  0  0  0  0
 28 30  1  0  0  0  0
 28 26  1  0  0  0  0
 29 24  1  1  0  0  0
 30 31  1  0  0  0  0
 31 29  1  0  0  0  0
 32 15  1  0  0  0  0
 33 34  1  6  0  0  0
 33 32  1  0  0  0  0
 35 39  1  0  0  0  0
 35 38  1  0  0  0  0
 36 39  1  0  0  0  0
 37 40  1  0  0  0  0
 38 40  1  0  0  0  0
 39 37  2  0  0  0  0
 40 33  1  0  0  0  0
 41 45  1  1  0  0  0
 41 42  1  0  0  0  0
 41 44  1  0  0  0  0
 42 36  1  6  0  0  0
 42 44  1  0  0  0  0
 43 41  1  0  0  0  0
 43 42  1  0  0  0  0
 46 45  1  0  0  0  0
 47 46  1  0  0  0  0
M  END
>  <MODEL>
3

>  <REMARK>
 VINA RESULT:      -7.5      2.487      7.957
  Name = 
  8 active torsions:
  status: ('A' for Active; 'I' for Inactive)
    1  A    between atoms: C_1  and  O_21
    2  A    between atoms: N_2  and  C_25
    3  A    between atoms: C_3  and  N_10
    4  A    between atoms: C_9  and  C_28
    5  A    between atoms: C_13  and  C_32
    6  A    between atoms: C_13  and  C_40
    7  A    between atoms: C_15  and  O_21
    8  A    between atoms: C_40  and  N_41
                            x       y       z     vdW  Elec       q    Type
                         _______ _______ _______ _____ _____    ______ ____

>  <TORSDO>
F 8

$$$$
=
 OpenBabel11042415223D

 47 55  0  0  1  0  0  0  0  0999 V2000
  193.1910  172.6810  136.9610 C   0  0  0  0  0  3  0  0  0  0  0  0
  196.5810  176.6100  143.5520 N   0  0  0  0  0  0  0  0  0  0  0  0
  194.9680  172.5290  135.6730 N   0  0  0  0  0  0  0  0  0  0  0  0
  193.6550  175.1460  142.0910 C   0  0  0  0  0  2  0  0  0  0  0  0
  196.7410  174.1610  138.3990 C   0  0  0  0  0  3  0  0  0  0  0  0
  195.8840  175.9460  142.5410 N   0  0  0  0  0  0  0  0  0  0  0  0
  194.1530  174.6810  140.8710 C   0  0  0  0  0  0  0  0  0  0  0  0
  196.5870  173.5590  137.1690 N   0  0  0  0  0  0  0  0  0  0  0  0
  194.4350  176.3690  144.2310 C   0  0  0  0  0  0  0  0  0  0  0  0
  194.5920  175.7900  142.9110 C   0  0  0  0  0  0  0  0  0  0  0  0
  194.4040  173.7830  138.8580 N   0  0  0  0  0  0  0  0  0  0  0  0
  193.3080  176.4590  144.9390 C   0  0  0  0  0  3  0  0  0  0  0  0
  195.3520  173.0910  136.8210 C   0  0  0  0  0  0  0  0  0  0  0  0
  195.8010  172.2560  134.5130 C   0  0  0  0  0  1  0  0  0  0  0  0
  193.5030  174.0250  139.8390 C   0  0  0  0  0  0  0  0  0  0  0  0
  195.4860  174.8420  140.5020 C   0  0  0  0  0  0  0  0  0  0  0  0
  194.2760  173.1970  137.6400 C   0  0  0  0  0  0  0  0  0  0  0  0
  196.3850  175.4950  141.3550 C   0  0  0  0  0  0  0  0  0  0  0  0
  195.7070  176.8910  144.6150 N   0  0  0  0  0  0  0  0  0  0  0  0
  195.6120  174.2700  139.2470 C   0  0  0  0  0  0  0  0  0  0  0  0
  193.6620  172.2770  135.7470 N   0  0  0  0  0  0  0  0  0  0  0  0
  197.5940  175.6640  141.0490 O   0  0  0  0  0  0  0  0  0  0  0  0
  193.2630  176.9910  146.2690 N   0  0  0  0  0  0  0  0  0  0  0  0
  192.1680  176.8310  147.1790 C   0  0  0  0  0  0  0  0  0  0  0  0
  192.3170  177.1660  148.3900 O   0  0  0  0  0  0  0  0  0  0  0  0
  188.5010  177.2360  146.7400 C   0  0  0  0  0  3  0  0  0  0  0  0
  189.7990  177.5110  146.9020 C   0  0  0  0  0  3  0  0  0  0  0  0
  188.0920  175.8350  146.3650 C   0  0  0  0  0  2  0  0  0  0  0  0
  190.8160  176.4150  146.6860 C   0  0  2  0  0  3  0  0  0  0  0  0
  188.8400  174.8320  147.2520 C   0  0  0  0  0  2  0  0  0  0  0  0
  190.3700  175.0540  147.2660 C   0  0  0  0  0  2  0  0  0  0  0  0
  192.0690  173.5900  139.8350 C   0  0  0  0  0  2  0  0  0  0  0  0
  191.9220  172.3320  140.6750 C   0  0  2  0  0  3  0  0  0  0  0  0
  191.2940  171.2110  139.8690 C   0  0  0  0  0  1  0  0  0  0  0  0
  189.6910  172.3690  144.0690 S   0  0  0  0  0  0  0  0  0  0  0  0
  188.6340  174.8270  143.1870 N   0  0  0  0  0  2  0  0  0  0  0  0
  190.3480  173.7440  141.9460 N   0  0  0  0  0  0  0  0  0  0  0  0
  190.9240  171.6220  142.9330 C   0  0  0  0  0  2  0  0  0  0  0  0
  189.5650  173.7650  142.9630 C   0  0  0  0  0  0  0  0  0  0  0  0
  191.1610  172.6120  141.8830 N   0  0  0  0  0  0  0  0  0  0  0  0
  187.6500  177.0930  142.8640 C   0  0  2  0  0  0  0  0  0  0  0  0
  188.4790  175.9450  142.2640 C   0  0  1  0  0  0  0  0  0  0  0  0
  189.4690  177.2900  142.9330 S   0  0  0  0  0  0  0  0  0  0  0  0
  187.0750  176.0730  141.9920 N   0  0  0  0  0  2  0  0  0  0  0  0
  187.3420  178.2590  142.1590 O   0  0  0  0  0  0  0  0  0  0  0  0
  186.1230  178.6890  142.6810 C   0  0  0  0  0  2  0  0  0  0  0  0
  186.1900  178.6680  144.1950 C   0  0  0  0  0  1  0  0  0  0  0  0
  1 17  1  0  0  0  0
  2 19  2  0  0  0  0
  3 21  1  0  0  0  0
  3 13  1  0  0  0  0
  4 10  1  0  0  0  0
  5 20  1  0  0  0  0
  6 10  1  0  0  0  0
  6  2  1  0  0  0  0
  7  4  1  0  0  0  0
  8  5  2  0  0  0  0
  9 19  1  0  0  0  0
  9 12  1  0  0  0  0
 10  9  2  0  0  0  0
 11 20  1  0  0  0  0
 11 15  1  0  0  0  0
 12 23  2  0  0  0  0
 13  8  1  0  0  0  0
 13 17  2  0  0  0  0
 14  3  1  0  0  0  0
 15  7  2  0  0  0  0
 16  7  1  0  0  0  0
 16 18  1  0  0  0  0
 17 11  1  0  0  0  0
 18  6  1  0  0  0  0
 20 16  2  0  0  0  0
 21  1  2  0  0  0  0
 22 18  2  0  0  0  0
 23 24  1  0  0  0  0
 24 25  2  0  0  0  0
 26 27  2  0  0  0  0
 28 26  1  0  0  0  0
 28 30  1  0  0  0  0
 29 27  1  0  0  0  0
 29 24  1  1  0  0  0
 29 31  1  0  0  0  0
 30 31  1  0  0  0  0
 32 15  1  0  0  0  0
 32 33  1  0  0  0  0
 33 34  1  6  0  0  0
 33 40  1  0  0  0  0
 37 39  2  0  0  0  0
 38 35  1  0  0  0  0
 39 36  1  0  0  0  0
 39 35  1  0  0  0  0
 40 37  1  0  0  0  0
 40 38  1  0  0  0  0
 41 45  1  6  0  0  0
 41 43  1  0  0  0  0
 42 41  1  0  0  0  0
 42 43  1  0  0  0  0
 42 36  1  1  0  0  0
 44 42  1  0  0  0  0
 44 41  1  0  0  0  0
 45 46  1  0  0  0  0
 46 47  1  0  0  0  0
M  END
>  <MODEL>
4

>  <REMARK>
 VINA RESULT:      -7.4      3.491      8.430
  Name = 
  8 active torsions:
  status: ('A' for Active; 'I' for Inactive)
    1  A    between atoms: C_1  and  O_21
    2  A    between atoms: N_2  and  C_25
    3  A    between atoms: C_3  and  N_10
    4  A    between atoms: C_9  and  C_28
    5  A    between atoms: C_13  and  C_32
    6  A    between atoms: C_13  and  C_40
    7  A    between atoms: C_15  and  O_21
    8  A    between atoms: C_40  and  N_41
                            x       y       z     vdW  Elec       q    Type
                         _______ _______ _______ _____ _____    ______ ____

>  <TORSDO>
F 8

$$$$
=
 OpenBabel11042415223D

 47 55  0  0  1  0  0  0  0  0999 V2000
  186.2230  177.1110  143.4050 C   0  0  0  0  0  3  0  0  0  0  0  0
  193.7750  176.0020  146.8830 N   0  0  0  0  0  0  0  0  0  0  0  0
  185.1330  177.9070  145.1410 N   0  0  0  0  0  0  0  0  0  0  0  0
  191.7480  175.7700  143.9370 C   0  0  0  0  0  2  0  0  0  0  0  0
  188.3000  177.6140  146.9100 C   0  0  0  0  0  3  0  0  0  0  0  0
  192.5850  176.1450  146.1670 N   0  0  0  0  0  0  0  0  0  0  0  0
  190.5230  176.2620  144.4000 C   0  0  0  0  0  0  0  0  0  0  0  0
  186.9680  177.9250  146.7400 N   0  0  0  0  0  0  0  0  0  0  0  0
  194.1540  175.3090  144.7620 C   0  0  0  0  0  0  0  0  0  0  0  0
  192.7740  175.7320  144.8920 C   0  0  0  0  0  0  0  0  0  0  0  0
  188.4170  176.9270  144.6020 N   0  0  0  0  0  0  0  0  0  0  0  0
  194.7380  174.7960  143.6770 C   0  0  0  0  0  2  0  0  0  0  0  0
  186.4030  177.7270  145.5120 C   0  0  0  0  0  0  0  0  0  0  0  0
  184.0420  178.3920  145.9710 C   0  0  0  0  0  1  0  0  0  0  0  0
  189.3200  176.4170  143.7320 C   0  0  0  0  0  0  0  0  0  0  0  0
  190.3420  176.6890  145.7120 C   0  0  0  0  0  0  0  0  0  0  0  0
  187.1030  177.2370  144.4600 C   0  0  0  0  0  0  0  0  0  0  0  0
  191.3980  176.6300  146.6310 C   0  0  0  0  0  0  0  0  0  0  0  0
  194.7690  175.4810  146.0380 N   0  0  0  0  0  0  0  0  0  0  0  0
  189.0230  177.1000  145.8060 C   0  0  0  0  0  0  0  0  0  0  0  0
  185.0130  177.5370  143.8670 N   0  0  0  0  0  0  0  0  0  0  0  0
  191.2650  177.0010  147.8260 O   0  0  0  0  0  0  0  0  0  0  0  0
  196.1310  174.4670  143.6230 N   0  0  0  0  0  2  0  0  0  0  0  0
  196.6820  173.1810  143.9330 C   0  0  0  0  0  0  0  0  0  0  0  0
  197.8940  172.9450  143.6590 O   0  0  0  0  0  0  0  0  0  0  0  0
  196.2680  170.4260  146.3910 C   0  0  0  0  0  3  0  0  0  0  0  0
  196.7370  171.5100  145.7650 C   0  0  0  0  0  3  0  0  0  0  0  0
  194.9130  169.8900  146.0080 C   0  0  0  0  0  2  0  0  0  0  0  0
  195.8880  172.1730  144.7060 C   0  0  2  0  0  3  0  0  0  0  0  0
  194.8040  169.8270  144.4800 C   0  0  0  0  0  2  0  0  0  0  0  0
  195.1670  171.1610  143.7880 C   0  0  0  0  0  2  0  0  0  0  0  0
  189.0750  176.1390  142.2800 C   0  0  0  0  0  2  0  0  0  0  0  0
  188.6000  174.7060  142.1140 C   0  0  2  0  0  3  0  0  0  0  0  0
  188.9450  173.8740  143.3340 C   0  0  0  0  0  1  0  0  0  0  0  0
  189.6100  172.5510  138.8220 S   0  0  0  0  0  0  0  0  0  0  0  0
  192.2830  173.2830  139.3290 N   0  0  0  0  0  2  0  0  0  0  0  0
  190.5260  174.1460  140.6780 N   0  0  0  0  0  0  0  0  0  0  0  0
  188.3990  173.2190  140.0280 C   0  0  0  0  0  2  0  0  0  0  0  0
  190.9060  173.4160  139.6930 C   0  0  0  0  0  0  0  0  0  0  0  0
  189.1490  174.1250  140.8980 N   0  0  0  0  0  0  0  0  0  0  0  0
  194.7430  173.3660  139.7170 C   0  0  2  0  0  0  0  0  0  0  0  0
  193.3580  173.9380  140.0640 C   0  0  1  0  0  0  0  0  0  0  0  0
  194.2710  174.9130  138.8600 S   0  0  0  0  0  0  0  0  0  0  0  0
  193.9770  172.9350  140.8830 N   0  0  0  0  0  2  0  0  0  0  0  0
  195.9230  173.8120  140.3160 O   0  0  0  0  0  0  0  0  0  0  0  0
  196.8630  172.8150  140.0590 C   0  0  0  0  0  2  0  0  0  0  0  0
  197.8830  173.3320  139.0640 C   0  0  0  0  0  1  0  0  0  0  0  0
  1 21  2  0  0  0  0
  1 17  1  0  0  0  0
  3 13  1  0  0  0  0
  3 14  1  0  0  0  0
  4  7  1  0  0  0  0
  4 10  1  0  0  0  0
  6 18  1  0  0  0  0
  6  2  1  0  0  0  0
  7 16  1  0  0  0  0
  8  5  2  0  0  0  0
  9 10  2  0  0  0  0
  9 19  1  0  0  0  0
 10  6  1  0  0  0  0
 11 20  1  0  0  0  0
 12  9  1  0  0  0  0
 13  8  1  0  0  0  0
 15  7  2  0  0  0  0
 15 11  1  0  0  0  0
 16 20  2  0  0  0  0
 16 18  1  0  0  0  0
 17 11  1  0  0  0  0
 17 13  2  0  0  0  0
 18 22  2  0  0  0  0
 19  2  2  0  0  0  0
 20  5  1  0  0  0  0
 21  3  1  0  0  0  0
 23 12  1  0  0  0  0
 23 24  1  0  0  0  0
 25 24  2  0  0  0  0
 27 26  2  0  0  0  0
 28 26  1  0  0  0  0
 29 24  1  6  0  0  0
 29 27  1  0  0  0  0
 30 28  1  0  0  0  0
 31 30  1  0  0  0  0
 31 29  1  0  0  0  0
 32 15  1  0  0  0  0
 33 32  1  0  0  0  0
 33 34  1  1  0  0  0
 35 39  1  0  0  0  0
 35 38  1  0  0  0  0
 36 39  1  0  0  0  0
 37 40  1  0  0  0  0
 38 40  1  0  0  0  0
 39 37  2  0  0  0  0
 40 33  1  0  0  0  0
 41 42  1  0  0  0  0
 41 45  1  1  0  0  0
 41 44  1  0  0  0  0
 42 36  1  6  0  0  0
 42 44  1  0  0  0  0
 43 41  1  0  0  0  0
 43 42  1  0  0  0  0
 46 45  1  0  0  0  0
 47 46  1  0  0  0  0
M  END
>  <MODEL>
5

>  <REMARK>
 VINA RESULT:      -7.3      1.706      2.112
  Name = 
  8 active torsions:
  status: ('A' for Active; 'I' for Inactive)
    1  A    between atoms: C_1  and  O_21
    2  A    between atoms: N_2  and  C_25
    3  A    between atoms: C_3  and  N_10
    4  A    between atoms: C_9  and  C_28
    5  A    between atoms: C_13  and  C_32
    6  A    between atoms: C_13  and  C_40
    7  A    between atoms: C_15  and  O_21
    8  A    between atoms: C_40  and  N_41
                            x       y       z     vdW  Elec       q    Type
                         _______ _______ _______ _____ _____    ______ ____

>  <TORSDO>
F 8

$$$$
=
 OpenBabel11042415223D

 47 55  0  0  1  0  0  0  0  0999 V2000
  186.5020  176.3580  144.6840 C   0  0  0  0  0  3  0  0  0  0  0  0
  194.6170  175.2770  146.5130 N   0  0  0  0  0  0  0  0  0  0  0  0
  185.9610  177.7970  146.2570 N   0  0  0  0  0  0  0  0  0  0  0  0
  191.8760  174.4530  144.3570 C   0  0  0  0  0  2  0  0  0  0  0  0
  189.4560  177.5990  147.2510 C   0  0  0  0  0  3  0  0  0  0  0  0
  193.2920  175.3660  146.0810 N   0  0  0  0  0  0  0  0  0  0  0  0
  190.8500  175.2360  144.8960 C   0  0  0  0  0  0  0  0  0  0  0  0
  188.1490  178.0350  147.2960 N   0  0  0  0  0  0  0  0  0  0  0  0
  194.3800  173.9200  144.7150 C   0  0  0  0  0  0  0  0  0  0  0  0
  193.1120  174.5600  145.0090 C   0  0  0  0  0  0  0  0  0  0  0  0
  188.9170  176.2300  145.3400 N   0  0  0  0  0  0  0  0  0  0  0  0
  194.6230  173.0210  143.7600 C   0  0  0  0  0  2  0  0  0  0  0  0
  187.2700  177.5550  146.3670 C   0  0  0  0  0  0  0  0  0  0  0  0
  185.1600  178.6660  147.1040 C   0  0  0  0  0  1  0  0  0  0  0  0
  189.5250  175.3530  144.5070 C   0  0  0  0  0  0  0  0  0  0  0  0
  191.0480  176.0650  145.9960 C   0  0  0  0  0  0  0  0  0  0  0  0
  187.6350  176.6710  145.4070 C   0  0  0  0  0  0  0  0  0  0  0  0
  192.3030  176.1370  146.6150 C   0  0  0  0  0  0  0  0  0  0  0  0
  195.3190  174.3830  145.6860 N   0  0  0  0  0  0  0  0  0  0  0  0
  189.8290  176.6730  146.2470 C   0  0  0  0  0  0  0  0  0  0  0  0
  185.4870  177.0770  145.2420 N   0  0  0  0  0  0  0  0  0  0  0  0
  192.5130  176.8710  147.6160 O   0  0  0  0  0  0  0  0  0  0  0  0
  195.9300  172.4920  143.5020 N   0  0  0  0  0  2  0  0  0  0  0  0
  196.4380  171.2660  144.0420 C   0  0  0  0  0  0  0  0  0  0  0  0
  197.5220  170.7940  143.5910 O   0  0  0  0  0  0  0  0  0  0  0  0
  196.4280  169.2910  147.1890 C   0  0  0  0  0  3  0  0  0  0  0  0
  196.8160  170.0990  146.1970 C   0  0  0  0  0  3  0  0  0  0  0  0
  194.9740  168.9110  147.2940 C   0  0  0  0  0  2  0  0  0  0  0  0
  195.7850  170.6200  145.2250 C   0  0  2  0  0  3  0  0  0  0  0  0
  194.4530  168.5020  145.9110 C   0  0  0  0  0  2  0  0  0  0  0  0
  194.7480  169.5510  144.8140 C   0  0  0  0  0  2  0  0  0  0  0  0
  188.8900  174.6840  143.3270 C   0  0  0  0  0  2  0  0  0  0  0  0
  189.3030  175.4060  142.0560 C   0  0  2  0  0  3  0  0  0  0  0  0
  188.2940  176.4780  141.6870 C   0  0  0  0  0  1  0  0  0  0  0  0
  189.0890  172.7130  139.0230 S   0  0  0  0  0  0  0  0  0  0  0  0
  191.4650  171.5870  140.0360 N   0  0  0  0  0  2  0  0  0  0  0  0
  190.5530  173.5490  141.0200 N   0  0  0  0  0  0  0  0  0  0  0  0
  188.4690  174.1560  139.9720 C   0  0  0  0  0  2  0  0  0  0  0  0
  190.4890  172.6290  140.1270 C   0  0  0  0  0  0  0  0  0  0  0  0
  189.4950  174.4580  140.9700 N   0  0  0  0  0  0  0  0  0  0  0  0
  193.5800  170.3770  140.5530 C   0  0  2  0  0  0  0  0  0  0  0  0
  192.5830  171.4730  140.9640 C   0  0  1  0  0  0  0  0  0  0  0  0
  194.0290  172.0900  140.0890 S   0  0  0  0  0  0  0  0  0  0  0  0
  192.5220  170.1560  141.5340 N   0  0  0  0  0  2  0  0  0  0  0  0
  194.7160  170.0600  141.3020 O   0  0  0  0  0  0  0  0  0  0  0  0
  194.7940  168.6680  141.2750 C   0  0  0  0  0  2  0  0  0  0  0  0
  196.2340  168.2430  141.4820 C   0  0  0  0  0  1  0  0  0  0  0  0
  1 21  2  0  0  0  0
  1 17  1  0  0  0  0
  3 13  1  0  0  0  0
  3 14  1  0  0  0  0
  4  7  1  0  0  0  0
  4 10  1  0  0  0  0
  5  8  2  0  0  0  0
  6  2  1  0  0  0  0
  6 18  1  0  0  0  0
  7 16  1  0  0  0  0
  9 10  2  0  0  0  0
  9 19  1  0  0  0  0
 10  6  1  0  0  0  0
 11 17  1  0  0  0  0
 11 20  1  0  0  0  0
 12  9  1  0  0  0  0
 13  8  1  0  0  0  0
 15  7  2  0  0  0  0
 15 11  1  0  0  0  0
 16 20  2  0  0  0  0
 16 18  1  0  0  0  0
 17 13  2  0  0  0  0
 18 22  2  0  0  0  0
 19  2  2  0  0  0  0
 20  5  1  0  0  0  0
 21  3  1  0  0  0  0
 23 12  1  0  0  0  0
 23 24  1  0  0  0  0
 25 24  2  0  0  0  0
 26 28  1  0  0  0  0
 27 26  2  0  0  0  0
 29 24  1  6  0  0  0
 29 27  1  0  0  0  0
 30 28  1  0  0  0  0
 31 29  1  0  0  0  0
 31 30  1  0  0  0  0
 32 15  1  0  0  0  0
 33 34  1  6  0  0  0
 33 32  1  0  0  0  0
 35 38  1  0  0  0  0
 35 39  1  0  0  0  0
 36 39  1  0  0  0  0
 38 40  1  0  0  0  0
 39 37  2  0  0  0  0
 40 37  1  0  0  0  0
 40 33  1  0  0  0  0
 41 42  1  0  0  0  0
 41 45  1  1  0  0  0
 41 44  1  0  0  0  0
 42 36  1  6  0  0  0
 42 44  1  0  0  0  0
 43 41  1  0  0  0  0
 43 42  1  0  0  0  0
 46 45  1  0  0  0  0
 46 47  1  0  0  0  0
M  END
>  <MODEL>
6

>  <REMARK>
 VINA RESULT:      -7.2      1.863      2.622
  Name = 
  8 active torsions:
  status: ('A' for Active; 'I' for Inactive)
    1  A    between atoms: C_1  and  O_21
    2  A    between atoms: N_2  and  C_25
    3  A    between atoms: C_3  and  N_10
    4  A    between atoms: C_9  and  C_28
    5  A    between atoms: C_13  and  C_32
    6  A    between atoms: C_13  and  C_40
    7  A    between atoms: C_15  and  O_21
    8  A    between atoms: C_40  and  N_41
                            x       y       z     vdW  Elec       q    Type
                         _______ _______ _______ _____ _____    ______ ____

>  <TORSDO>
F 8

$$$$
=
 OpenBabel11042415223D

 47 55  0  0  1  0  0  0  0  0999 V2000
  191.8620  170.6460  140.5050 C   0  0  0  0  0  3  0  0  0  0  0  0
  186.4280  176.8200  138.8600 N   0  0  0  0  0  0  0  0  0  0  0  0
  191.9570  169.7040  138.5200 N   0  0  0  0  0  0  0  0  0  0  0  0
  188.5380  175.2250  141.2760 C   0  0  0  0  0  2  0  0  0  0  0  0
  189.6470  172.3150  137.4780 C   0  0  0  0  0  3  0  0  0  0  0  0
  187.3480  175.8580  139.2780 N   0  0  0  0  0  0  0  0  0  0  0  0
  189.1190  174.2070  140.5130 C   0  0  0  0  0  0  0  0  0  0  0  0
  190.4610  171.2120  137.3330 N   0  0  0  0  0  0  0  0  0  0  0  0
  186.8730  177.1890  141.0490 C   0  0  0  0  0  0  0  0  0  0  0  0
  187.6330  176.0440  140.5870 C   0  0  0  0  0  0  0  0  0  0  0  0
  190.2910  172.4660  139.7970 N   0  0  0  0  0  0  0  0  0  0  0  0
  186.8370  177.6830  142.2880 C   0  0  0  0  0  3  0  0  0  0  0  0
  191.1610  170.7700  138.4200 C   0  0  0  0  0  0  0  0  0  0  0  0
  192.2910  168.7610  137.4640 C   0  0  0  0  0  1  0  0  0  0  0  0
  190.0280  173.2300  140.8830 C   0  0  0  0  0  0  0  0  0  0  0  0
  188.8220  174.0280  139.1650 C   0  0  0  0  0  0  0  0  0  0  0  0
  191.0830  171.3760  139.6310 C   0  0  0  0  0  0  0  0  0  0  0  0
  187.9090  174.8720  138.5200 C   0  0  0  0  0  0  0  0  0  0  0  0
  186.1090  177.6620  139.9390 N   0  0  0  0  0  0  0  0  0  0  0  0
  189.5690  172.9400  138.7460 C   0  0  0  0  0  0  0  0  0  0  0  0
  192.3870  169.6190  139.7780 N   0  0  0  0  0  0  0  0  0  0  0  0
  187.6140  174.7320  137.3050 O   0  0  0  0  0  0  0  0  0  0  0  0
  186.1050  178.8640  142.6360 N   0  0  0  0  0  0  0  0  0  0  0  0
  185.9260  179.3540  143.9710 C   0  0  0  0  0  0  0  0  0  0  0  0
  185.4370  180.5070  144.1450 O   0  0  0  0  0  0  0  0  0  0  0  0
  184.9690  176.7670  146.4600 C   0  0  0  0  0  3  0  0  0  0  0  0
  185.0410  177.4780  145.3300 C   0  0  0  0  0  3  0  0  0  0  0  0
  186.0090  176.9860  147.5270 C   0  0  0  0  0  2  0  0  0  0  0  0
  186.1690  178.4660  145.1520 C   0  0  2  0  0  3  0  0  0  0  0  0
  186.2050  178.4910  147.7460 C   0  0  0  0  0  2  0  0  0  0  0  0
  186.4810  179.2660  146.4360 C   0  0  0  0  0  2  0  0  0  0  0  0
  190.6680  173.0850  142.2300 C   0  0  0  0  0  2  0  0  0  0  0  0
  191.6510  174.2220  142.4460 C   0  0  2  0  0  3  0  0  0  0  0  0
  192.7360  174.2130  141.3860 C   0  0  0  0  0  1  0  0  0  0  0  0
  193.1650  174.8060  146.1700 S   0  0  0  0  0  0  0  0  0  0  0  0
  194.8620  172.6120  145.6770 N   0  0  0  0  0  2  0  0  0  0  0  0
  193.2210  173.2420  144.0760 N   0  0  0  0  0  0  0  0  0  0  0  0
  192.0370  175.2200  144.7820 C   0  0  0  0  0  2  0  0  0  0  0  0
  193.7860  173.4330  145.2140 C   0  0  0  0  0  0  0  0  0  0  0  0
  192.2140  174.1630  143.7860 N   0  0  0  0  0  0  0  0  0  0  0  0
  196.1330  170.4700  145.7490 C   0  0  2  0  0  0  0  0  0  0  0  0
  195.4180  171.5220  144.8840 C   0  0  1  0  0  0  0  0  0  0  0  0
  194.4170  170.0730  145.2480 S   0  0  0  0  0  0  0  0  0  0  0  0
  196.8410  171.5520  145.0720 N   0  0  0  0  0  2  0  0  0  0  0  0
  196.7700  169.3490  145.2120 O   0  0  0  0  0  0  0  0  0  0  0  0
  197.7960  169.0490  146.1080 C   0  0  0  0  0  2  0  0  0  0  0  0
  197.1970  168.7050  147.4580 C   0  0  0  0  0  1  0  0  0  0  0  0
  2  6  1  0  0  0  0
  2 19  2  0  0  0  0
  3 21  1  0  0  0  0
  5 20  1  0  0  0  0
  6 10  1  0  0  0  0
  7 15  2  0  0  0  0
  7  4  1  0  0  0  0
  8  5  2  0  0  0  0
  8 13  1  0  0  0  0
  9 12  1  0  0  0  0
 10  9  2  0  0  0  0
 10  4  1  0  0  0  0
 11 15  1  0  0  0  0
 12 23  2  0  0  0  0
 13  3  1  0  0  0  0
 13 17  2  0  0  0  0
 14  3  1  0  0  0  0
 15 32  1  0  0  0  0
 16  7  1  0  0  0  0
 17 11  1  0  0  0  0
 17  1  1  0  0  0  0
 18 16  1  0  0  0  0
 18  6  1  0  0  0  0
 19  9  1  0  0  0  0
 20 16  2  0  0  0  0
 20 11  1  0  0  0  0
 21  1  2  0  0  0  0
 22 18  2  0  0  0  0
 23 24  1  0  0  0  0
 24 25  2  0  0  0  0
 26 28  1  0  0  0  0
 27 26  2  0  0  0  0
 28 30  1  0  0  0  0
 29 24  1  6  0  0  0
 29 27  1  0  0  0  0
 29 31  1  0  0  0  0
 31 30  1  0  0  0  0
 32 33  1  0  0  0  0
 33 34  1  6  0  0  0
 33 40  1  0  0  0  0
 37 39  2  0  0  0  0
 38 35  1  0  0  0  0
 39 36  1  0  0  0  0
 39 35  1  0  0  0  0
 40 37  1  0  0  0  0
 40 38  1  0  0  0  0
 41 45  1  6  0  0  0
 42 44  1  0  0  0  0
 42 43  1  0  0  0  0
 42 36  1  1  0  0  0
 42 41  1  0  0  0  0
 43 41  1  0  0  0  0
 44 41  1  0  0  0  0
 45 46  1  0  0  0  0
 46 47  1  0  0  0  0
M  END
>  <MODEL>
7

>  <REMARK>
 VINA RESULT:      -7.2      3.575      9.537
  Name = 
  8 active torsions:
  status: ('A' for Active; 'I' for Inactive)
    1  A    between atoms: C_1  and  O_21
    2  A    between atoms: N_2  and  C_25
    3  A    between atoms: C_3  and  N_10
    4  A    between atoms: C_9  and  C_28
    5  A    between atoms: C_13  and  C_32
    6  A    between atoms: C_13  and  C_40
    7  A    between atoms: C_15  and  O_21
    8  A    between atoms: C_40  and  N_41
                            x       y       z     vdW  Elec       q    Type
                         _______ _______ _______ _____ _____    ______ ____

>  <TORSDO>
F 8

$$$$
=
 OpenBabel11042415223D

 47 55  0  0  1  0  0  0  0  0999 V2000
  184.6420  177.9200  140.7630 C   0  0  0  0  0  3  0  0  0  0  0  0
  189.3660  177.5160  147.6830 N   0  0  0  0  0  0  0  0  0  0  0  0
  182.7520  178.6120  141.6510 N   0  0  0  0  0  0  0  0  0  0  0  0
  189.1810  177.0980  144.1290 C   0  0  0  0  0  2  0  0  0  0  0  0
  184.5580  178.6120  144.8100 C   0  0  0  0  0  3  0  0  0  0  0  0
  188.7120  177.5480  146.4510 N   0  0  0  0  0  0  0  0  0  0  0  0
  187.8590  177.4740  143.8710 C   0  0  0  0  0  0  0  0  0  0  0  0
  183.4860  178.7990  143.9630 N   0  0  0  0  0  0  0  0  0  0  0  0
  190.8420  176.8620  146.0960 C   0  0  0  0  0  0  0  0  0  0  0  0
  189.5650  177.1560  145.4760 C   0  0  0  0  0  0  0  0  0  0  0  0
  185.9070  177.9400  142.9270 N   0  0  0  0  0  0  0  0  0  0  0  0
  191.9410  176.4060  145.4930 C   0  0  0  0  0  2  0  0  0  0  0  0
  183.6560  178.5490  142.6310 C   0  0  0  0  0  0  0  0  0  0  0  0
  181.3540  178.9920  141.7760 C   0  0  0  0  0  1  0  0  0  0  0  0
  187.1670  177.5170  142.6720 C   0  0  0  0  0  0  0  0  0  0  0  0
  186.9920  177.8820  144.8800 C   0  0  0  0  0  0  0  0  0  0  0  0
  184.8360  178.1280  142.1140 C   0  0  0  0  0  0  0  0  0  0  0  0
  187.4210  177.9210  146.2130 C   0  0  0  0  0  0  0  0  0  0  0  0
  190.6920  177.0900  147.4970 N   0  0  0  0  0  0  0  0  0  0  0  0
  185.7860  178.1680  144.2620 C   0  0  0  0  0  0  0  0  0  0  0  0
  183.3380  178.2330  140.5160 N   0  0  0  0  0  0  0  0  0  0  0  0
  186.6600  178.2770  147.1500 O   0  0  0  0  0  0  0  0  0  0  0  0
  193.1830  176.2080  146.1800 N   0  0  0  0  0  2  0  0  0  0  0  0
  194.1770  175.2430  145.8140 C   0  0  0  0  0  0  0  0  0  0  0  0
  195.3160  175.2910  146.3630 O   0  0  0  0  0  0  0  0  0  0  0  0
  193.8120  171.6430  144.9720 C   0  0  0  0  0  3  0  0  0  0  0  0
  193.8580  172.7890  145.6590 C   0  0  0  0  0  3  0  0  0  0  0  0
  193.7580  171.6960  143.4670 C   0  0  0  0  0  2  0  0  0  0  0  0
  193.8380  174.0990  144.9090 C   0  0  2  0  0  3  0  0  0  0  0  0
  194.8060  172.6930  142.9550 C   0  0  0  0  0  2  0  0  0  0  0  0
  194.7100  174.0790  143.6340 C   0  0  0  0  0  2  0  0  0  0  0  0
  187.7320  177.2190  141.3160 C   0  0  0  0  0  2  0  0  0  0  0  0
  187.4480  175.7700  140.9600 C   0  0  2  0  0  3  0  0  0  0  0  0
  188.2440  174.8270  141.8420 C   0  0  0  0  0  1  0  0  0  0  0  0
  187.4620  175.2910  136.9260 S   0  0  0  0  0  0  0  0  0  0  0  0
  189.2510  173.1500  137.3220 N   0  0  0  0  0  2  0  0  0  0  0  0
  188.5270  174.4650  139.1650 N   0  0  0  0  0  0  0  0  0  0  0  0
  186.9230  176.1240  138.4700 C   0  0  0  0  0  2  0  0  0  0  0  0
  188.5050  174.2220  137.9050 C   0  0  0  0  0  0  0  0  0  0  0  0
  187.7120  175.5310  139.5490 N   0  0  0  0  0  0  0  0  0  0  0  0
  190.4610  170.9730  137.3310 C   0  0  2  0  0  0  0  0  0  0  0  0
  190.0630  172.2350  138.1140 C   0  0  1  0  0  0  0  0  0  0  0  0
  191.7190  172.2990  137.4170 S   0  0  0  0  0  0  0  0  0  0  0  0
  189.3170  171.0140  138.2380 N   0  0  0  0  0  2  0  0  0  0  0  0
  191.2130  169.9360  137.8890 O   0  0  0  0  0  0  0  0  0  0  0  0
  190.8090  168.7860  137.2110 C   0  0  0  0  0  2  0  0  0  0  0  0
  191.6400  168.6270  135.9530 C   0  0  0  0  0  1  0  0  0  0  0  0
  1 17  1  0  0  0  0
  3 14  1  0  0  0  0
  3 13  1  0  0  0  0
  4 10  1  0  0  0  0
  6  2  1  0  0  0  0
  7  4  1  0  0  0  0
  7 16  1  0  0  0  0
  8  5  2  0  0  0  0
  9 19  1  0  0  0  0
 10  9  2  0  0  0  0
 10  6  1  0  0  0  0
 11 20  1  0  0  0  0
 12  9  1  0  0  0  0
 12 23  1  0  0  0  0
 13  8  1  0  0  0  0
 15 11  1  0  0  0  0
 15  7  2  0  0  0  0
 16 18  1  0  0  0  0
 17 13  2  0  0  0  0
 17 11  1  0  0  0  0
 18  6  1  0  0  0  0
 18 22  2  0  0  0  0
 19  2  2  0  0  0  0
 20  5  1  0  0  0  0
 20 16  2  0  0  0  0
 21  1  2  0  0  0  0
 21  3  1  0  0  0  0
 24 23  1  0  0  0  0
 24 25  2  0  0  0  0
 26 27  2  0  0  0  0
 28 26  1  0  0  0  0
 29 27  1  0  0  0  0
 29 24  1  1  0  0  0
 30 28  1  0  0  0  0
 30 31  1  0  0  0  0
 31 29  1  0  0  0  0
 32 15  1  0  0  0  0
 33 32  1  0  0  0  0
 33 34  1  1  0  0  0
 35 39  1  0  0  0  0
 35 38  1  0  0  0  0
 36 39  1  0  0  0  0
 37 40  1  0  0  0  0
 38 40  1  0  0  0  0
 39 37  2  0  0  0  0
 40 33  1  0  0  0  0
 41 43  1  0  0  0  0
 41 45  1  1  0  0  0
 41 42  1  0  0  0  0
 41 44  1  0  0  0  0
 42 36  1  6  0  0  0
 42 44  1  0  0  0  0
 43 42  1  0  0  0  0
 46 45  1  0  0  0  0
 47 46  1  0  0  0  0
M  END
>  <MODEL>
8

>  <REMARK>
 VINA RESULT:      -7.2      3.625      5.781
  Name = 
  8 active torsions:
  status: ('A' for Active; 'I' for Inactive)
    1  A    between atoms: C_1  and  O_21
    2  A    between atoms: N_2  and  C_25
    3  A    between atoms: C_3  and  N_10
    4  A    between atoms: C_9  and  C_28
    5  A    between atoms: C_13  and  C_32
    6  A    between atoms: C_13  and  C_40
    7  A    between atoms: C_15  and  O_21
    8  A    between atoms: C_40  and  N_41
                            x       y       z     vdW  Elec       q    Type
                         _______ _______ _______ _____ _____    ______ ____

>  <TORSDO>
F 8

$$$$
=
 OpenBabel11042415223D

 47 55  0  0  1  0  0  0  0  0999 V2000
  187.7390  176.9080  146.8150 C   0  0  0  0  0  3  0  0  0  0  0  0
  189.9060  173.7860  139.3370 N   0  0  0  0  0  0  0  0  0  0  0  0
  185.7490  177.7010  146.3180 N   0  0  0  0  0  0  0  0  0  0  0  0
  190.8020  174.2890  142.7700 C   0  0  0  0  0  2  0  0  0  0  0  0
  186.3650  176.3840  142.9820 C   0  0  0  0  0  3  0  0  0  0  0  0
  189.6790  174.2410  140.6370 N   0  0  0  0  0  0  0  0  0  0  0  0
  189.6670  174.9380  143.2640 C   0  0  0  0  0  0  0  0  0  0  0  0
  185.6580  177.0090  143.9860 N   0  0  0  0  0  0  0  0  0  0  0  0
  191.7250  173.2690  140.5810 C   0  0  0  0  0  0  0  0  0  0  0  0
  190.7530  173.9540  141.4090 C   0  0  0  0  0  0  0  0  0  0  0  0
  188.1680  175.9740  144.5300 N   0  0  0  0  0  0  0  0  0  0  0  0
  192.9380  172.8480  140.9470 C   0  0  0  0  0  2  0  0  0  0  0  0
  186.2250  177.0990  145.2250 C   0  0  0  0  0  0  0  0  0  0  0  0
  184.4750  178.3920  146.4490 C   0  0  0  0  0  1  0  0  0  0  0  0
  189.3990  175.4110  144.5380 C   0  0  0  0  0  0  0  0  0  0  0  0
  188.5660  175.2240  142.4610 C   0  0  0  0  0  0  0  0  0  0  0  0
  187.4540  176.5970  145.5010 C   0  0  0  0  0  0  0  0  0  0  0  0
  188.5640  174.8710  141.1060 C   0  0  0  0  0  0  0  0  0  0  0  0
  191.1720  173.1790  139.2690 N   0  0  0  0  0  0  0  0  0  0  0  0
  187.6490  175.8650  143.2780 C   0  0  0  0  0  0  0  0  0  0  0  0
  186.6570  177.5910  147.2860 N   0  0  0  0  0  0  0  0  0  0  0  0
  187.5880  175.1220  140.3520 O   0  0  0  0  0  0  0  0  0  0  0  0
  193.8060  172.1170  140.0730 N   0  0  0  0  0  2  0  0  0  0  0  0
  195.2190  172.3290  139.9570 C   0  0  0  0  0  0  0  0  0  0  0  0
  195.9170  171.4970  139.3080 O   0  0  0  0  0  0  0  0  0  0  0  0
  197.6170  175.1620  139.8000 C   0  0  0  0  0  3  0  0  0  0  0  0
  196.7930  174.1740  139.4390 C   0  0  0  0  0  3  0  0  0  0  0  0
  197.5910  175.6490  141.2250 C   0  0  0  0  0  2  0  0  0  0  0  0
  195.8490  173.5890  140.4630 C   0  0  2  0  0  3  0  0  0  0  0  0
  197.6000  174.4460  142.1760 C   0  0  0  0  0  2  0  0  0  0  0  0
  196.5030  173.4050  141.8500 C   0  0  0  0  0  2  0  0  0  0  0  0
  190.2850  175.2630  145.7380 C   0  0  0  0  0  2  0  0  0  0  0  0
  191.2280  176.4510  145.8180 C   0  0  2  0  0  3  0  0  0  0  0  0
  190.8000  177.5510  144.8650 C   0  0  0  0  0  1  0  0  0  0  0  0
  195.0570  175.8330  144.6120 S   0  0  0  0  0  0  0  0  0  0  0  0
  194.6000  173.0830  145.0210 N   0  0  0  0  0  2  0  0  0  0  0  0
  192.9210  174.6740  145.5710 N   0  0  0  0  0  0  0  0  0  0  0  0
  193.6160  176.9060  144.9850 C   0  0  0  0  0  2  0  0  0  0  0  0
  194.0970  174.4180  145.1240 C   0  0  0  0  0  0  0  0  0  0  0  0
  192.5990  176.0310  145.5680 N   0  0  0  0  0  0  0  0  0  0  0  0
  193.9140  170.7870  144.3420 C   0  0  2  0  0  0  0  0  0  0  0  0
  193.8080  171.9140  145.3820 C   0  0  1  0  0  0  0  0  0  0  0  0
  194.9840  170.6250  145.8170 S   0  0  0  0  0  0  0  0  0  0  0  0
  192.8150  171.7480  144.3590 N   0  0  0  0  0  2  0  0  0  0  0  0
  193.2210  169.5800  144.4540 O   0  0  0  0  0  0  0  0  0  0  0  0
  192.9830  169.1710  143.1420 C   0  0  0  0  0  2  0  0  0  0  0  0
  194.2660  169.2830  142.3420 C   0  0  0  0  0  1  0  0  0  0  0  0
  1 21  2  0  0  0  0
  2  6  1  0  0  0  0
  3 14  1  0  0  0  0
  3 21  1  0  0  0  0
  4  7  1  0  0  0  0
  5 20  1  0  0  0  0
  5  8  2  0  0  0  0
  6 18  1  0  0  0  0
  6 10  1  0  0  0  0
  7 15  2  0  0  0  0
  8 13  1  0  0  0  0
  9 12  1  0  0  0  0
  9 10  2  0  0  0  0
 10  4  1  0  0  0  0
 11 15  1  0  0  0  0
 11 17  1  0  0  0  0
 13 17  2  0  0  0  0
 13  3  1  0  0  0  0
 15 32  1  0  0  0  0
 16  7  1  0  0  0  0
 16 20  2  0  0  0  0
 17  1  1  0  0  0  0
 18 16  1  0  0  0  0
 19  2  2  0  0  0  0
 19  9  1  0  0  0  0
 20 11  1  0  0  0  0
 22 18  2  0  0  0  0
 23 12  1  0  0  0  0
 24 23  1  0  0  0  0
 25 24  2  0  0  0  0
 26 28  1  0  0  0  0
 27 26  2  0  0  0  0
 27 29  1  0  0  0  0
 28 30  1  0  0  0  0
 29 24  1  6  0  0  0
 29 31  1  0  0  0  0
 31 30  1  0  0  0  0
 32 33  1  0  0  0  0
 33 34  1  6  0  0  0
 35 38  1  0  0  0  0
 35 39  1  0  0  0  0
 36 39  1  0  0  0  0
 38 40  1  0  0  0  0
 39 37  2  0  0  0  0
 40 37  1  0  0  0  0
 40 33  1  0  0  0  0
 41 44  1  0  0  0  0
 41 45  1  1  0  0  0
 41 42  1  0  0  0  0
 41 43  1  0  0  0  0
 42 36  1  6  0  0  0
 42 43  1  0  0  0  0
 44 42  1  0  0  0  0
 46 45  1  0  0  0  0
 47 46  1  0  0  0  0
M  END
>  <MODEL>
9

>  <REMARK>
 VINA RESULT:      -7.2      2.708      5.661
  Name = 
  8 active torsions:
  status: ('A' for Active; 'I' for Inactive)
    1  A    between atoms: C_1  and  O_21
    2  A    between atoms: N_2  and  C_25
    3  A    between atoms: C_3  and  N_10
    4  A    between atoms: C_9  and  C_28
    5  A    between atoms: C_13  and  C_32
    6  A    between atoms: C_13  and  C_40
    7  A    between atoms: C_15  and  O_21
    8  A    between atoms: C_40  and  N_41
                            x       y       z     vdW  Elec       q    Type
                         _______ _______ _______ _____ _____    ______ ____

>  <TORSDO>
F 8

$$$$
