=
 OpenBabel11042418303D

 30 32  0  0  1  0  0  0  0  0999 V2000
  188.0470  176.5270  145.3690 C   0  0  0  0  0  0  0  0  0  0  0  0
  190.7840  177.8410  143.1750 C   0  0  0  0  0  1  0  0  0  0  0  0
  189.5620  177.2830  143.8240 C   0  0  0  0  0  0  0  0  0  0  0  0
  189.4530  177.0280  145.2910 C   0  0  2  0  0  3  0  0  0  0  0  0
  188.4250  176.9680  143.2030 C   0  0  0  0  0  0  0  0  0  0  0  0
  187.4560  176.4920  144.1810 C   0  0  0  0  0  3  0  0  0  0  0  0
  188.0900  178.2150  141.2000 O   0  0  0  0  0  0  0  0  0  0  0  0
  187.9040  175.9180  140.9840 N   0  0  0  0  0  1  0  0  0  0  0  0
  188.1360  177.0880  141.7600 C   0  0  0  0  0  0  0  0  0  0  0  0
  187.4020  176.1790  146.5970 N   0  0  0  0  0  2  0  0  0  0  0  0
  186.4840  177.0780  147.2830 C   0  0  0  0  0  2  0  0  0  0  0  0
  185.1010  176.9750  146.6700 C   0  0  0  0  0  2  0  0  0  0  0  0
  184.4760  178.3550  146.5550 C   0  0  0  0  0  2  0  0  0  0  0  0
  185.0560  179.1090  145.3720 C   0  0  0  0  0  2  0  0  0  0  0  0
  184.1950  178.8930  144.1380 C   0  0  0  0  0  2  0  0  0  0  0  0
  185.0650  178.7690  142.8970 C   0  0  0  0  0  2  0  0  0  0  0  0
  182.9280  178.0900  141.9140 O   0  0  0  0  0  0  0  0  0  0  0  0
  184.2620  178.3760  141.7510 N   0  0  0  0  0  0  0  0  0  0  0  0
  184.7530  178.4070  140.6060 O   0  0  0  0  0  0  0  0  0  0  0  0
  190.4370  175.9390  145.7010 C   0  0  0  0  0  2  0  0  0  0  0  0
  191.0610  175.8730  148.0920 N   0  0  0  0  0  2  0  0  0  0  0  0
  192.1260  175.2750  147.2750 C   0  0  2  0  0  3  0  0  0  0  0  0
  192.8870  176.3390  146.5160 C   0  0  2  0  0  3  0  0  0  0  0  0
  191.3890  176.4460  146.7800 C   0  0  1  0  0  0  0  0  0  0  0  0
  193.2500  175.8130  145.1320 C   0  0  0  0  0  2  0  0  0  0  0  0
  194.7320  175.7330  144.9930 C   0  0  0  0  0  0  0  0  0  0  0  0
  195.3710  176.7400  144.5890 O   0  0  0  0  0  0  0  0  0  0  0  0
  195.4460  174.5010  145.3550 C   0  0  0  0  0  0  0  0  0  0  0  0
  194.8040  173.4680  145.6820 O   0  0  0  0  0  1  0  0  0  0  0  0
  196.8350  174.4670  145.3370 O   0  0  0  0  0  0  0  0  0  0  0  0
  1 10  1  0  0  0  0
  2  3  1  0  0  0  0
  3  4  1  0  0  0  0
  4  1  1  0  0  0  0
  4 20  1  6  0  0  0
  5  3  2  0  0  0  0
  5  6  1  0  0  0  0
  6  1  2  0  0  0  0
  7  9  2  0  0  0  0
  8  9  1  0  0  0  0
  9  5  1  0  0  0  0
 10 11  1  0  0  0  0
 12 11  1  0  0  0  0
 13 12  1  0  0  0  0
 14 13  1  0  0  0  0
 15 14  1  0  0  0  0
 16 15  1  0  0  0  0
 18 17  2  0  0  0  0
 18 16  1  0  0  0  0
 19 18  2  0  0  0  0
 22 21  1  1  0  0  0
 23 25  1  6  0  0  0
 23 24  1  0  0  0  0
 23 22  1  0  0  0  0
 24 20  1  6  0  0  0
 24 22  1  0  0  0  0
 24 21  1  0  0  0  0
 26 25  1  0  0  0  0
 26 28  1  0  0  0  0
 27 26  2  0  0  0  0
 28 29  1  0  0  0  0
 30 28  2  0  0  0  0
M  END
>  <MODEL>
1

>  <REMARK>
 VINA RESULT:      -6.3      0.000      0.000
  Name = 
  14 active torsions:
  status: ('A' for Active; 'I' for Inactive)
    1  A    between atoms: C_2  and  N_8
    2  A    between atoms: C_2  and  C_10
    3  A    between atoms: C_4  and  N_8
    4  A    between atoms: C_5  and  C_22
    5  A    between atoms: C_10  and  C_12
    6  A    between atoms: C_11  and  C_15
    7  A    between atoms: C_11  and  C_22
    8  A    between atoms: C_12  and  C_28
    9  A    between atoms: N_13  and  C_18
   10  A    between atoms: C_18  and  C_25
   11  A    between atoms: C_21  and  C_24
   12  A    between atoms: C_23  and  C_24
   13  A    between atoms: C_25  and  C_28
   14  A    between atoms: C_27  and  C_29
                            x       y       z     vdW  Elec       q    Type
                         _______ _______ _______ _____ _____    ______ ____

>  <TORSDO>
F 14

$$$$
=
 OpenBabel11042418303D

 30 32  0  0  1  0  0  0  0  0999 V2000
  189.3600  177.7120  142.8540 C   0  0  0  0  0  0  0  0  0  0  0  0
  185.9690  176.1560  143.1930 C   0  0  0  0  0  1  0  0  0  0  0  0
  187.2210  176.8880  142.8410 C   0  0  0  0  0  0  0  0  0  0  0  0
  188.4470  176.8770  143.6920 C   0  0  2  0  0  3  0  0  0  0  0  0
  187.4170  177.6090  141.7370 C   0  0  0  0  0  0  0  0  0  0  0  0
  188.7770  178.1320  141.7380 C   0  0  0  0  0  3  0  0  0  0  0  0
  185.4560  178.6020  140.8180 O   0  0  0  0  0  0  0  0  0  0  0  0
  186.6410  177.2260  139.3820 N   0  0  0  0  0  1  0  0  0  0  0  0
  186.4510  177.8500  140.6480 C   0  0  0  0  0  0  0  0  0  0  0  0
  190.7220  177.9790  143.1970 N   0  0  0  0  0  2  0  0  0  0  0  0
  191.7850  177.0020  143.0080 C   0  0  0  0  0  2  0  0  0  0  0  0
  191.7440  175.9690  144.1170 C   0  0  0  0  0  2  0  0  0  0  0  0
  191.7760  176.6560  145.4720 C   0  0  0  0  0  2  0  0  0  0  0  0
  192.3660  175.7350  146.5260 C   0  0  0  0  0  2  0  0  0  0  0  0
  193.5170  174.9340  145.9400 C   0  0  0  0  0  2  0  0  0  0  0  0
  194.8360  175.6560  146.1610 C   0  0  0  0  0  2  0  0  0  0  0  0
  196.4290  173.7970  146.1490 O   0  0  0  0  0  0  0  0  0  0  0  0
  195.9270  174.9230  145.5410 N   0  0  0  0  0  0  0  0  0  0  0  0
  196.3310  175.2470  144.4070 O   0  0  0  0  0  0  0  0  0  0  0  0
  188.1600  177.5610  145.0230 C   0  0  0  0  0  2  0  0  0  0  0  0
  188.3230  175.8770  146.8250 N   0  0  0  0  0  2  0  0  0  0  0  0
  187.6720  177.0950  147.3280 C   0  0  2  0  0  3  0  0  0  0  0  0
  186.2640  177.2180  146.7880 C   0  0  2  0  0  3  0  0  0  0  0  0
  187.4020  176.6280  145.9610 C   0  0  1  0  0  0  0  0  0  0  0  0
  185.9610  178.6830  146.4940 C   0  0  0  0  0  2  0  0  0  0  0  0
  184.6640  178.7960  145.7690 C   0  0  0  0  0  0  0  0  0  0  0  0
  183.5960  178.4880  146.3620 O   0  0  0  0  0  0  0  0  0  0  0  0
  184.6270  179.2930  144.3880 C   0  0  0  0  0  0  0  0  0  0  0  0
  185.5660  180.0070  143.9440 O   0  0  0  0  0  1  0  0  0  0  0  0
  183.5560  178.9780  143.5600 O   0  0  0  0  0  0  0  0  0  0  0  0
  1 10  1  0  0  0  0
  1  4  1  0  0  0  0
  3  2  1  0  0  0  0
  3  4  1  0  0  0  0
  4 20  1  1  0  0  0
  5  6  1  0  0  0  0
  5  3  2  0  0  0  0
  6  1  2  0  0  0  0
  8  9  1  0  0  0  0
  9  7  2  0  0  0  0
  9  5  1  0  0  0  0
 11 10  1  0  0  0  0
 11 12  1  0  0  0  0
 12 13  1  0  0  0  0
 13 14  1  0  0  0  0
 15 16  1  0  0  0  0
 15 14  1  0  0  0  0
 18 17  2  0  0  0  0
 18 16  1  0  0  0  0
 19 18  2  0  0  0  0
 22 21  1  1  0  0  0
 23 25  1  6  0  0  0
 23 22  1  0  0  0  0
 24 20  1  6  0  0  0
 24 23  1  0  0  0  0
 24 21  1  0  0  0  0
 24 22  1  0  0  0  0
 26 27  2  0  0  0  0
 26 25  1  0  0  0  0
 28 26  1  0  0  0  0
 29 28  1  0  0  0  0
 30 28  2  0  0  0  0
M  END
>  <MODEL>
2

>  <REMARK>
 VINA RESULT:      -6.2      2.064      8.122
  Name = 
  14 active torsions:
  status: ('A' for Active; 'I' for Inactive)
    1  A    between atoms: C_2  and  N_8
    2  A    between atoms: C_2  and  C_10
    3  A    between atoms: C_4  and  N_8
    4  A    between atoms: C_5  and  C_22
    5  A    between atoms: C_10  and  C_12
    6  A    between atoms: C_11  and  C_15
    7  A    between atoms: C_11  and  C_22
    8  A    between atoms: C_12  and  C_28
    9  A    between atoms: N_13  and  C_18
   10  A    between atoms: C_18  and  C_25
   11  A    between atoms: C_21  and  C_24
   12  A    between atoms: C_23  and  C_24
   13  A    between atoms: C_25  and  C_28
   14  A    between atoms: C_27  and  C_29
                            x       y       z     vdW  Elec       q    Type
                         _______ _______ _______ _____ _____    ______ ____

>  <TORSDO>
F 14

$$$$
=
 OpenBabel11042418303D

 30 32  0  0  1  0  0  0  0  0999 V2000
  188.0950  176.3930  145.6590 C   0  0  0  0  0  0  0  0  0  0  0  0
  186.0830  179.0830  143.9990 C   0  0  0  0  0  1  0  0  0  0  0  0
  186.7400  178.0670  144.8730 C   0  0  1  0  0  3  0  0  0  0  0  0
  187.7820  177.1150  144.3880 C   0  0  2  0  0  3  0  0  0  0  0  0
  186.5100  177.8940  146.1750 C   0  0  0  0  0  0  0  0  0  0  0  0
  187.3720  176.8340  146.6800 C   0  0  0  0  0  3  0  0  0  0  0  0
  185.9620  179.5620  147.7860 O   0  0  0  0  0  0  0  0  0  0  0  0
  184.1730  178.3400  146.9720 N   0  0  0  0  0  1  0  0  0  0  0  0
  185.5620  178.6470  147.0190 C   0  0  0  0  0  0  0  0  0  0  0  0
  189.0980  175.3800  145.7630 N   0  0  0  0  0  0  0  0  0  0  0  0
  189.4610  174.7640  147.0310 C   0  0  0  0  0  2  0  0  0  0  0  0
  190.6610  175.4730  147.6290 C   0  0  0  0  0  2  0  0  0  0  0  0
  191.6290  175.8770  146.5300 C   0  0  0  0  0  2  0  0  0  0  0  0
  192.8460  174.9690  146.5270 C   0  0  0  0  0  2  0  0  0  0  0  0
  194.1190  175.7940  146.4320 C   0  0  0  0  0  2  0  0  0  0  0  0
  193.9870  176.8510  145.3480 C   0  0  0  0  0  2  0  0  0  0  0  0
  196.0010  176.2850  144.0750 O   0  0  0  0  0  0  0  0  0  0  0  0
  194.6330  176.4050  144.1240 N   0  0  0  0  0  0  0  0  0  0  0  0
  193.9430  176.0250  143.1580 O   0  0  0  0  0  0  0  0  0  0  0  0
  187.1760  176.1640  143.3620 C   0  0  0  0  0  2  0  0  0  0  0  0
  188.9300  177.3230  142.0630 N   0  0  0  0  0  2  0  0  0  0  0  0
  189.2480  175.8930  142.1780 C   0  0  2  0  0  3  0  0  0  0  0  0
  188.3400  175.0640  141.2980 C   0  0  2  0  0  3  0  0  0  0  0  0
  187.8550  176.3240  142.0050 C   0  0  1  0  0  0  0  0  0  0  0  0
  187.9930  173.7620  142.0120 C   0  0  0  0  0  2  0  0  0  0  0  0
  188.9650  172.7000  141.6300 C   0  0  0  0  0  0  0  0  0  0  0  0
  189.3370  172.6030  140.4300 O   0  0  0  0  0  0  0  0  0  0  0  0
  189.5110  171.7930  142.6480 C   0  0  0  0  0  0  0  0  0  0  0  0
  189.2930  172.0070  143.8710 O   0  0  0  0  0  1  0  0  0  0  0  0
  190.2700  170.6920  142.2700 O   0  0  0  0  0  0  0  0  0  0  0  0
  1 10  2  0  0  0  0
  1  6  1  0  0  0  0
  3  2  1  1  0  0  0
  3  5  1  0  0  0  0
  4 20  1  6  0  0  0
  4  3  1  0  0  0  0
  4  1  1  0  0  0  0
  5  6  2  0  0  0  0
  5  9  1  0  0  0  0
  8  9  1  0  0  0  0
  9  7  2  0  0  0  0
 10 11  1  0  0  0  0
 11 12  1  0  0  0  0
 13 12  1  0  0  0  0
 14 13  1  0  0  0  0
 15 14  1  0  0  0  0
 16 15  1  0  0  0  0
 17 18  2  0  0  0  0
 18 16  1  0  0  0  0
 19 18  2  0  0  0  0
 22 21  1  6  0  0  0
 23 24  1  0  0  0  0
 23 25  1  1  0  0  0
 23 22  1  0  0  0  0
 24 21  1  0  0  0  0
 24 22  1  0  0  0  0
 24 20  1  1  0  0  0
 26 25  1  0  0  0  0
 26 28  1  0  0  0  0
 27 26  2  0  0  0  0
 28 29  1  0  0  0  0
 30 28  2  0  0  0  0
M  END
>  <MODEL>
3

>  <REMARK>
 VINA RESULT:      -6.1      3.177      7.026
  Name = 
  14 active torsions:
  status: ('A' for Active; 'I' for Inactive)
    1  A    between atoms: C_2  and  N_8
    2  A    between atoms: C_2  and  C_10
    3  A    between atoms: C_4  and  N_8
    4  A    between atoms: C_5  and  C_22
    5  A    between atoms: C_10  and  C_12
    6  A    between atoms: C_11  and  C_15
    7  A    between atoms: C_11  and  C_22
    8  A    between atoms: C_12  and  C_28
    9  A    between atoms: N_13  and  C_18
   10  A    between atoms: C_18  and  C_25
   11  A    between atoms: C_21  and  C_24
   12  A    between atoms: C_23  and  C_24
   13  A    between atoms: C_25  and  C_28
   14  A    between atoms: C_27  and  C_29
                            x       y       z     vdW  Elec       q    Type
                         _______ _______ _______ _____ _____    ______ ____

>  <TORSDO>
F 14

$$$$
=
 OpenBabel11042418303D

 30 32  0  0  1  0  0  0  0  0999 V2000
  187.8430  176.5960  145.2650 C   0  0  0  0  0  0  0  0  0  0  0  0
  185.6100  179.3530  144.0620 C   0  0  0  0  0  1  0  0  0  0  0  0
  186.3870  178.2960  144.7760 C   0  0  0  0  0  0  0  0  0  0  0  0
  187.3520  177.3840  144.0950 C   0  0  2  0  0  3  0  0  0  0  0  0
  186.3430  178.0480  146.0850 C   0  0  0  0  0  0  0  0  0  0  0  0
  187.2710  176.9710  146.4020 C   0  0  0  0  0  3  0  0  0  0  0  0
  184.2990  178.4730  147.2320 O   0  0  0  0  0  0  0  0  0  0  0  0
  186.1130  179.7290  147.9330 N   0  0  0  0  0  1  0  0  0  0  0  0
  185.5210  178.7410  147.0960 C   0  0  0  0  0  0  0  0  0  0  0  0
  188.8540  175.5900  145.1690 N   0  0  0  0  0  2  0  0  0  0  0  0
  190.2200  175.8030  145.6290 C   0  0  0  0  0  2  0  0  0  0  0  0
  190.6450  177.2310  145.3470 C   0  0  0  0  0  2  0  0  0  0  0  0
  191.3880  177.3040  144.0240 C   0  0  0  0  0  2  0  0  0  0  0  0
  192.1160  176.0020  143.7460 C   0  0  0  0  0  2  0  0  0  0  0  0
  193.6190  176.2100  143.8340 C   0  0  0  0  0  2  0  0  0  0  0  0
  194.1420  175.7510  145.1860 C   0  0  0  0  0  2  0  0  0  0  0  0
  194.9660  177.9950  145.7120 O   0  0  0  0  0  0  0  0  0  0  0  0
  194.2610  176.8790  146.0940 N   0  0  0  0  0  0  0  0  0  0  0  0
  193.6340  176.8820  147.1710 O   0  0  0  0  0  0  0  0  0  0  0  0
  186.6110  176.4860  143.1120 C   0  0  0  0  0  2  0  0  0  0  0  0
  187.9420  177.8840  141.5690 N   0  0  0  0  0  2  0  0  0  0  0  0
  188.6400  176.6180  141.8340 C   0  0  2  0  0  3  0  0  0  0  0  0
  187.9640  175.4680  141.1220 C   0  0  2  0  0  3  0  0  0  0  0  0
  187.1770  176.6380  141.7040 C   0  0  1  0  0  0  0  0  0  0  0  0
  188.0050  174.2290  142.0080 C   0  0  0  0  0  2  0  0  0  0  0  0
  188.8130  173.1630  141.3520 C   0  0  0  0  0  0  0  0  0  0  0  0
  189.4250  172.3230  142.0640 O   0  0  0  0  0  0  0  0  0  0  0  0
  188.8700  173.0700  139.8870 C   0  0  0  0  0  0  0  0  0  0  0  0
  187.9240  172.5380  139.2470 O   0  0  0  0  0  1  0  0  0  0  0  0
  189.9670  173.5700  139.1970 O   0  0  0  0  0  0  0  0  0  0  0  0
  1  6  2  0  0  0  0
  2  3  1  0  0  0  0
  3  5  2  0  0  0  0
  4 20  1  6  0  0  0
  4  3  1  0  0  0  0
  4  1  1  0  0  0  0
  5  6  1  0  0  0  0
  5  9  1  0  0  0  0
  9  7  2  0  0  0  0
  9  8  1  0  0  0  0
 10  1  1  0  0  0  0
 10 11  1  0  0  0  0
 12 11  1  0  0  0  0
 13 12  1  0  0  0  0
 14 15  1  0  0  0  0
 14 13  1  0  0  0  0
 15 16  1  0  0  0  0
 16 18  1  0  0  0  0
 17 18  2  0  0  0  0
 18 19  2  0  0  0  0
 21 24  1  0  0  0  0
 22 21  1  6  0  0  0
 23 24  1  0  0  0  0
 23 22  1  0  0  0  0
 23 25  1  1  0  0  0
 24 22  1  0  0  0  0
 24 20  1  1  0  0  0
 26 25  1  0  0  0  0
 26 27  2  0  0  0  0
 28 26  1  0  0  0  0
 29 28  1  0  0  0  0
 30 28  2  0  0  0  0
M  END
>  <MODEL>
4

>  <REMARK>
 VINA RESULT:      -6.0      2.921      7.343
  Name = 
  14 active torsions:
  status: ('A' for Active; 'I' for Inactive)
    1  A    between atoms: C_2  and  N_8
    2  A    between atoms: C_2  and  C_10
    3  A    between atoms: C_4  and  N_8
    4  A    between atoms: C_5  and  C_22
    5  A    between atoms: C_10  and  C_12
    6  A    between atoms: C_11  and  C_15
    7  A    between atoms: C_11  and  C_22
    8  A    between atoms: C_12  and  C_28
    9  A    between atoms: N_13  and  C_18
   10  A    between atoms: C_18  and  C_25
   11  A    between atoms: C_21  and  C_24
   12  A    between atoms: C_23  and  C_24
   13  A    between atoms: C_25  and  C_28
   14  A    between atoms: C_27  and  C_29
                            x       y       z     vdW  Elec       q    Type
                         _______ _______ _______ _____ _____    ______ ____

>  <TORSDO>
F 14

$$$$
=
 OpenBabel11042418303D

 30 32  0  0  1  0  0  0  0  0999 V2000
  187.6350  177.0840  143.9600 C   0  0  0  0  0  0  0  0  0  0  0  0
  185.0240  179.7240  144.4580 C   0  0  0  0  0  1  0  0  0  0  0  0
  186.0290  178.6220  144.5160 C   0  0  0  0  0  0  0  0  0  0  0  0
  186.7670  178.1190  143.3200 C   0  0  2  0  0  3  0  0  0  0  0  0
  186.4110  177.9740  145.6160 C   0  0  0  0  0  0  0  0  0  0  0  0
  187.4360  176.9980  145.2700 C   0  0  0  0  0  3  0  0  0  0  0  0
  184.7680  177.8240  147.3350 O   0  0  0  0  0  0  0  0  0  0  0  0
  186.7640  178.8210  147.9520 N   0  0  0  0  0  1  0  0  0  0  0  0
  185.9230  178.1900  146.9920 C   0  0  0  0  0  0  0  0  0  0  0  0
  188.6050  176.3170  143.2440 N   0  0  0  0  0  2  0  0  0  0  0  0
  188.9980  174.9740  143.6480 C   0  0  0  0  0  2  0  0  0  0  0  0
  190.5060  174.8910  143.7790 C   0  0  0  0  0  2  0  0  0  0  0  0
  190.8910  174.6190  145.2230 C   0  0  0  0  0  2  0  0  0  0  0  0
  189.6950  174.1140  146.0110 C   0  0  0  0  0  2  0  0  0  0  0  0
  189.5340  174.9130  147.2940 C   0  0  0  0  0  2  0  0  0  0  0  0
  190.8800  175.4390  147.7650 C   0  0  0  0  0  2  0  0  0  0  0  0
  191.6870  177.4740  148.8620 O   0  0  0  0  0  0  0  0  0  0  0  0
  190.8150  176.8740  147.9850 N   0  0  0  0  0  0  0  0  0  0  0  0
  190.0490  177.5770  147.2970 O   0  0  0  0  0  0  0  0  0  0  0  0
  185.7910  177.4750  142.3430 C   0  0  0  0  0  2  0  0  0  0  0  0
  186.4500  177.6750  139.9690 N   0  0  0  0  0  2  0  0  0  0  0  0
  185.0020  177.4470  140.0740 C   0  0  2  0  0  3  0  0  0  0  0  0
  184.2950  178.6860  140.5770 C   0  0  2  0  0  3  0  0  0  0  0  0
  185.6870  178.2940  141.0600 C   0  0  1  0  0  0  0  0  0  0  0  0
  183.1610  178.2780  141.5110 C   0  0  0  0  0  2  0  0  0  0  0  0
  181.8670  178.2860  140.7720 C   0  0  0  0  0  0  0  0  0  0  0  0
  181.7270  177.5440  139.7630 O   0  0  0  0  0  0  0  0  0  0  0  0
  180.7540  179.1250  141.2320 C   0  0  0  0  0  0  0  0  0  0  0  0
  180.6430  179.4190  142.4530 O   0  0  0  0  0  1  0  0  0  0  0  0
  179.8160  179.6020  140.3250 O   0  0  0  0  0  0  0  0  0  0  0  0
  1  6  2  0  0  0  0
  2  3  1  0  0  0  0
  3  5  2  0  0  0  0
  4 20  1  6  0  0  0
  4  1  1  0  0  0  0
  4  3  1  0  0  0  0
  5  9  1  0  0  0  0
  6  5  1  0  0  0  0
  9  7  2  0  0  0  0
  9  8  1  0  0  0  0
 10 11  1  0  0  0  0
 10  1  1  0  0  0  0
 11 12  1  0  0  0  0
 12 13  1  0  0  0  0
 13 14  1  0  0  0  0
 14 15  1  0  0  0  0
 15 16  1  0  0  0  0
 16 18  1  0  0  0  0
 18 17  2  0  0  0  0
 19 18  2  0  0  0  0
 21 24  1  0  0  0  0
 22 21  1  6  0  0  0
 22 23  1  0  0  0  0
 22 24  1  0  0  0  0
 23 24  1  0  0  0  0
 23 25  1  1  0  0  0
 24 20  1  1  0  0  0
 26 28  1  0  0  0  0
 26 25  1  0  0  0  0
 27 26  2  0  0  0  0
 28 29  1  0  0  0  0
 30 28  2  0  0  0  0
M  END
>  <MODEL>
5

>  <REMARK>
 VINA RESULT:      -5.9      3.116      9.288
  Name = 
  14 active torsions:
  status: ('A' for Active; 'I' for Inactive)
    1  A    between atoms: C_2  and  N_8
    2  A    between atoms: C_2  and  C_10
    3  A    between atoms: C_4  and  N_8
    4  A    between atoms: C_5  and  C_22
    5  A    between atoms: C_10  and  C_12
    6  A    between atoms: C_11  and  C_15
    7  A    between atoms: C_11  and  C_22
    8  A    between atoms: C_12  and  C_28
    9  A    between atoms: N_13  and  C_18
   10  A    between atoms: C_18  and  C_25
   11  A    between atoms: C_21  and  C_24
   12  A    between atoms: C_23  and  C_24
   13  A    between atoms: C_25  and  C_28
   14  A    between atoms: C_27  and  C_29
                            x       y       z     vdW  Elec       q    Type
                         _______ _______ _______ _____ _____    ______ ____

>  <TORSDO>
F 14

$$$$
=
 OpenBabel11042418303D

 30 32  0  0  1  0  0  0  0  0999 V2000
  188.0360  176.4360  144.1110 C   0  0  0  0  0  0  0  0  0  0  0  0
  186.4200  177.6150  147.2790 C   0  0  0  0  0  1  0  0  0  0  0  0
  186.9020  177.3160  145.8980 C   0  0  0  0  0  0  0  0  0  0  0  0
  188.0260  176.3780  145.6040 C   0  0  2  0  0  3  0  0  0  0  0  0
  186.3910  177.8110  144.7700 C   0  0  0  0  0  0  0  0  0  0  0  0
  187.1050  177.2510  143.6310 C   0  0  0  0  0  3  0  0  0  0  0  0
  184.0900  178.4100  144.9230 O   0  0  0  0  0  0  0  0  0  0  0  0
  185.5090  180.0890  144.1980 N   0  0  0  0  0  1  0  0  0  0  0  0
  185.2670  178.7590  144.6430 C   0  0  0  0  0  0  0  0  0  0  0  0
  188.9160  175.6560  143.2980 N   0  0  0  0  0  2  0  0  0  0  0  0
  190.0540  176.2330  142.5970 C   0  0  0  0  0  2  0  0  0  0  0  0
  191.2250  175.2690  142.6240 C   0  0  0  0  0  2  0  0  0  0  0  0
  190.8090  173.9620  143.2760 C   0  0  0  0  0  2  0  0  0  0  0  0
  191.2180  172.7800  142.4150 C   0  0  0  0  0  2  0  0  0  0  0  0
  190.9330  173.0720  140.9510 C   0  0  0  0  0  2  0  0  0  0  0  0
  189.6690  172.3560  140.5020 C   0  0  0  0  0  2  0  0  0  0  0  0
  187.6130  172.8500  141.7360 O   0  0  0  0  0  0  0  0  0  0  0  0
  188.5020  173.1870  140.7440 N   0  0  0  0  0  0  0  0  0  0  0  0
  188.3650  174.2640  140.1310 O   0  0  0  0  0  0  0  0  0  0  0  0
  189.3250  176.9340  146.1740 C   0  0  0  0  0  2  0  0  0  0  0  0
  189.0300  174.8310  147.4390 N   0  0  0  0  0  2  0  0  0  0  0  0
  190.2480  174.7610  146.6200 C   0  0  2  0  0  3  0  0  0  0  0  0
  191.3420  175.6280  147.2030 C   0  0  2  0  0  3  0  0  0  0  0  0
  189.8700  176.0230  147.2710 C   0  0  1  0  0  0  0  0  0  0  0  0
  192.1230  176.2860  146.0710 C   0  0  0  0  0  2  0  0  0  0  0  0
  193.5850  176.1930  146.3440 C   0  0  0  0  0  0  0  0  0  0  0  0
  194.1460  177.0940  147.0220 O   0  0  0  0  0  0  0  0  0  0  0  0
  194.3600  175.0450  145.8540 C   0  0  0  0  0  0  0  0  0  0  0  0
  195.5930  175.1630  145.6240 O   0  0  0  0  0  0  0  0  0  0  0  0
  193.7380  173.8210  145.6420 O   0  0  0  0  0  1  0  0  0  0  0  0
  1  4  1  0  0  0  0
  3  2  1  0  0  0  0
  4  3  1  0  0  0  0
  4 20  1  1  0  0  0
  5  3  2  0  0  0  0
  6  1  2  0  0  0  0
  6  5  1  0  0  0  0
  8  9  1  0  0  0  0
  9  5  1  0  0  0  0
  9  7  2  0  0  0  0
 10  1  1  0  0  0  0
 11 12  1  0  0  0  0
 11 10  1  0  0  0  0
 12 13  1  0  0  0  0
 14 13  1  0  0  0  0
 15 14  1  0  0  0  0
 16 18  1  0  0  0  0
 16 15  1  0  0  0  0
 18 17  2  0  0  0  0
 19 18  2  0  0  0  0
 22 23  1  0  0  0  0
 22 24  1  0  0  0  0
 22 21  1  1  0  0  0
 23 25  1  6  0  0  0
 23 24  1  0  0  0  0
 24 20  1  6  0  0  0
 24 21  1  0  0  0  0
 25 26  1  0  0  0  0
 26 27  2  0  0  0  0
 28 26  1  0  0  0  0
 29 28  2  0  0  0  0
 30 28  1  0  0  0  0
M  END
>  <MODEL>
6

>  <REMARK>
 VINA RESULT:      -5.9      2.621      4.951
  Name = 
  14 active torsions:
  status: ('A' for Active; 'I' for Inactive)
    1  A    between atoms: C_2  and  N_8
    2  A    between atoms: C_2  and  C_10
    3  A    between atoms: C_4  and  N_8
    4  A    between atoms: C_5  and  C_22
    5  A    between atoms: C_10  and  C_12
    6  A    between atoms: C_11  and  C_15
    7  A    between atoms: C_11  and  C_22
    8  A    between atoms: C_12  and  C_28
    9  A    between atoms: N_13  and  C_18
   10  A    between atoms: C_18  and  C_25
   11  A    between atoms: C_21  and  C_24
   12  A    between atoms: C_23  and  C_24
   13  A    between atoms: C_25  and  C_28
   14  A    between atoms: C_27  and  C_29
                            x       y       z     vdW  Elec       q    Type
                         _______ _______ _______ _____ _____    ______ ____

>  <TORSDO>
F 14

$$$$
=
 OpenBabel11042418303D

 30 32  0  0  1  0  0  0  0  0999 V2000
  187.8300  176.7030  144.2150 C   0  0  0  0  0  0  0  0  0  0  0  0
  186.3010  177.9470  147.4020 C   0  0  0  0  0  1  0  0  0  0  0  0
  186.7670  177.6400  146.0170 C   0  0  0  0  0  0  0  0  0  0  0  0
  187.7960  176.6050  145.7060 C   0  0  2  0  0  3  0  0  0  0  0  0
  186.3210  178.2150  144.9000 C   0  0  0  0  0  0  0  0  0  0  0  0
  186.9890  177.6190  143.7510 C   0  0  0  0  0  3  0  0  0  0  0  0
  185.5660  180.3840  144.2630 O   0  0  0  0  0  0  0  0  0  0  0  0
  183.9830  179.0400  145.2850 N   0  0  0  0  0  1  0  0  0  0  0  0
  185.2970  179.2730  144.7900 C   0  0  0  0  0  0  0  0  0  0  0  0
  188.6380  175.8630  143.3890 N   0  0  0  0  0  2  0  0  0  0  0  0
  189.5270  176.3930  142.3640 C   0  0  0  0  0  2  0  0  0  0  0  0
  190.9640  176.3490  142.8500 C   0  0  0  0  0  2  0  0  0  0  0  0
  191.4680  174.9160  142.8600 C   0  0  0  0  0  2  0  0  0  0  0  0
  192.6820  174.7690  141.9600 C   0  0  0  0  0  2  0  0  0  0  0  0
  193.8760  175.4880  142.5660 C   0  0  0  0  0  2  0  0  0  0  0  0
  194.5130  176.4150  141.5430 C   0  0  0  0  0  2  0  0  0  0  0  0
  196.3680  176.7910  143.0960 O   0  0  0  0  0  0  0  0  0  0  0  0
  195.9330  176.5680  141.8120 N   0  0  0  0  0  0  0  0  0  0  0  0
  196.7630  176.3850  140.9000 O   0  0  0  0  0  0  0  0  0  0  0  0
  189.1380  177.0130  146.3040 C   0  0  0  0  0  2  0  0  0  0  0  0
  188.6270  174.9160  147.5080 N   0  0  0  0  0  2  0  0  0  0  0  0
  189.8880  174.7790  146.7660 C   0  0  2  0  0  3  0  0  0  0  0  0
  190.9960  175.5640  147.4320 C   0  0  2  0  0  3  0  0  0  0  0  0
  189.5520  176.0530  147.4150 C   0  0  1  0  0  0  0  0  0  0  0  0
  191.8890  176.1860  146.3640 C   0  0  0  0  0  2  0  0  0  0  0  0
  193.1160  175.3600  146.1850 C   0  0  0  0  0  0  0  0  0  0  0  0
  193.0040  174.1180  146.0030 O   0  0  0  0  0  0  0  0  0  0  0  0
  194.4420  175.9900  146.1880 C   0  0  0  0  0  0  0  0  0  0  0  0
  195.4750  175.2960  145.9950 O   0  0  0  0  0  0  0  0  0  0  0  0
  194.5660  177.3580  146.4020 O   0  0  0  0  0  1  0  0  0  0  0  0
  1  4  1  0  0  0  0
  3  2  1  0  0  0  0
  4  3  1  0  0  0  0
  4 20  1  1  0  0  0
  5  3  2  0  0  0  0
  6  1  2  0  0  0  0
  6  5  1  0  0  0  0
  7  9  2  0  0  0  0
  9  5  1  0  0  0  0
  9  8  1  0  0  0  0
 10  1  1  0  0  0  0
 11 12  1  0  0  0  0
 11 10  1  0  0  0  0
 12 13  1  0  0  0  0
 14 15  1  0  0  0  0
 14 13  1  0  0  0  0
 16 18  1  0  0  0  0
 16 15  1  0  0  0  0
 18 17  2  0  0  0  0
 19 18  2  0  0  0  0
 22 24  1  0  0  0  0
 22 23  1  0  0  0  0
 22 21  1  1  0  0  0
 23 25  1  6  0  0  0
 24 20  1  6  0  0  0
 24 23  1  0  0  0  0
 24 21  1  0  0  0  0
 26 28  1  0  0  0  0
 26 25  1  0  0  0  0
 27 26  2  0  0  0  0
 28 30  1  0  0  0  0
 29 28  2  0  0  0  0
M  END
>  <MODEL>
7

>  <REMARK>
 VINA RESULT:      -5.8      2.576      6.206
  Name = 
  14 active torsions:
  status: ('A' for Active; 'I' for Inactive)
    1  A    between atoms: C_2  and  N_8
    2  A    between atoms: C_2  and  C_10
    3  A    between atoms: C_4  and  N_8
    4  A    between atoms: C_5  and  C_22
    5  A    between atoms: C_10  and  C_12
    6  A    between atoms: C_11  and  C_15
    7  A    between atoms: C_11  and  C_22
    8  A    between atoms: C_12  and  C_28
    9  A    between atoms: N_13  and  C_18
   10  A    between atoms: C_18  and  C_25
   11  A    between atoms: C_21  and  C_24
   12  A    between atoms: C_23  and  C_24
   13  A    between atoms: C_25  and  C_28
   14  A    between atoms: C_27  and  C_29
                            x       y       z     vdW  Elec       q    Type
                         _______ _______ _______ _____ _____    ______ ____

>  <TORSDO>
F 14

$$$$
=
 OpenBabel11042418303D

 30 32  0  0  1  0  0  0  0  0999 V2000
  193.0120  175.5040  146.0100 C   0  0  0  0  0  0  0  0  0  0  0  0
  194.2120  172.2430  144.6100 C   0  0  0  0  0  1  0  0  0  0  0  0
  193.9900  173.6000  145.1890 C   0  0  0  0  0  0  0  0  0  0  0  0
  192.6370  174.2030  145.3760 C   0  0  2  0  0  3  0  0  0  0  0  0
  194.9410  174.4250  145.6290 C   0  0  0  0  0  0  0  0  0  0  0  0
  194.3240  175.6350  146.1560 C   0  0  0  0  0  3  0  0  0  0  0  0
  196.9560  173.5790  146.5770 O   0  0  0  0  0  0  0  0  0  0  0  0
  197.1890  174.6440  144.5360 N   0  0  0  0  0  1  0  0  0  0  0  0
  196.3970  174.1860  145.6260 C   0  0  0  0  0  0  0  0  0  0  0  0
  192.0550  176.4690  146.4530 N   0  0  0  0  0  2  0  0  0  0  0  0
  191.1270  176.2100  147.5450 C   0  0  0  0  0  2  0  0  0  0  0  0
  189.7110  176.5320  147.1100 C   0  0  0  0  0  2  0  0  0  0  0  0
  189.7290  177.3260  145.8160 C   0  0  0  0  0  2  0  0  0  0  0  0
  188.3180  177.5410  145.2980 C   0  0  0  0  0  2  0  0  0  0  0  0
  187.3780  176.5020  145.8870 C   0  0  0  0  0  2  0  0  0  0  0  0
  185.9300  176.9100  145.6670 C   0  0  0  0  0  2  0  0  0  0  0  0
  186.0350  177.5230  148.0350 O   0  0  0  0  0  0  0  0  0  0  0  0
  185.4370  177.6660  146.8060 N   0  0  0  0  0  0  0  0  0  0  0  0
  184.5490  178.5250  146.6460 O   0  0  0  0  0  0  0  0  0  0  0  0
  191.9810  174.4330  144.0200 C   0  0  0  0  0  2  0  0  0  0  0  0
  190.5410  172.6800  145.0010 N   0  0  0  0  0  2  0  0  0  0  0  0
  189.7260  173.8310  144.5890 C   0  0  2  0  0  3  0  0  0  0  0  0
  189.6020  173.8940  143.0830 C   0  0  2  0  0  3  0  0  0  0  0  0
  190.8740  173.4130  143.7720 C   0  0  1  0  0  0  0  0  0  0  0  0
  189.6380  175.3500  142.6320 C   0  0  0  0  0  2  0  0  0  0  0  0
  188.5900  175.5870  141.5990 C   0  0  0  0  0  0  0  0  0  0  0  0
  188.5220  174.8220  140.6000 O   0  0  0  0  0  0  0  0  0  0  0  0
  187.6250  176.6820  141.7580 C   0  0  0  0  0  0  0  0  0  0  0  0
  186.4810  176.4560  142.2370 O   0  0  0  0  0  1  0  0  0  0  0  0
  187.9660  177.9760  141.3840 O   0  0  0  0  0  0  0  0  0  0  0  0
  1  6  2  0  0  0  0
  1 10  1  0  0  0  0
  2  3  1  0  0  0  0
  3  4  1  0  0  0  0
  3  5  2  0  0  0  0
  4 20  1  6  0  0  0
  4  1  1  0  0  0  0
  5  6  1  0  0  0  0
  8  9  1  0  0  0  0
  9  5  1  0  0  0  0
  9  7  2  0  0  0  0
 10 11  1  0  0  0  0
 12 11  1  0  0  0  0
 13 12  1  0  0  0  0
 14 13  1  0  0  0  0
 14 15  1  0  0  0  0
 16 15  1  0  0  0  0
 16 18  1  0  0  0  0
 18 17  2  0  0  0  0
 19 18  2  0  0  0  0
 22 21  1  6  0  0  0
 23 25  1  1  0  0  0
 23 24  1  0  0  0  0
 23 22  1  0  0  0  0
 24 20  1  6  0  0  0
 24 22  1  0  0  0  0
 24 21  1  0  0  0  0
 26 28  1  0  0  0  0
 26 25  1  0  0  0  0
 27 26  2  0  0  0  0
 28 29  1  0  0  0  0
 30 28  2  0  0  0  0
M  END
>  <MODEL>
8

>  <REMARK>
 VINA RESULT:      -5.8      2.827      6.590
  Name = 
  14 active torsions:
  status: ('A' for Active; 'I' for Inactive)
    1  A    between atoms: C_2  and  N_8
    2  A    between atoms: C_2  and  C_10
    3  A    between atoms: C_4  and  N_8
    4  A    between atoms: C_5  and  C_22
    5  A    between atoms: C_10  and  C_12
    6  A    between atoms: C_11  and  C_15
    7  A    between atoms: C_11  and  C_22
    8  A    between atoms: C_12  and  C_28
    9  A    between atoms: N_13  and  C_18
   10  A    between atoms: C_18  and  C_25
   11  A    between atoms: C_21  and  C_24
   12  A    between atoms: C_23  and  C_24
   13  A    between atoms: C_25  and  C_28
   14  A    between atoms: C_27  and  C_29
                            x       y       z     vdW  Elec       q    Type
                         _______ _______ _______ _____ _____    ______ ____

>  <TORSDO>
F 14

$$$$
=
 OpenBabel11042418303D

 30 32  0  0  1  0  0  0  0  0999 V2000
  188.6570  176.8940  144.0470 C   0  0  0  0  0  0  0  0  0  0  0  0
  188.9360  175.0410  147.2910 C   0  0  0  0  0  1  0  0  0  0  0  0
  188.6700  175.9450  146.1330 C   0  0  0  0  0  0  0  0  0  0  0  0
  189.2990  175.7690  144.7910 C   0  0  2  0  0  3  0  0  0  0  0  0
  187.8390  176.9870  146.1340 C   0  0  0  0  0  0  0  0  0  0  0  0
  187.8230  177.5910  144.8080 C   0  0  0  0  0  3  0  0  0  0  0  0
  187.3680  178.4950  147.9170 O   0  0  0  0  0  0  0  0  0  0  0  0
  185.8310  176.7890  147.6260 N   0  0  0  0  0  1  0  0  0  0  0  0
  187.0240  177.4750  147.2630 C   0  0  0  0  0  0  0  0  0  0  0  0
  188.8800  177.1500  142.6590 N   0  0  0  0  0  2  0  0  0  0  0  0
  188.5670  176.1780  141.6210 C   0  0  0  0  0  2  0  0  0  0  0  0
  187.1710  176.4250  141.0820 C   0  0  0  0  0  2  0  0  0  0  0  0
  186.9240  177.9170  140.9380 C   0  0  0  0  0  2  0  0  0  0  0  0
  185.4730  178.2510  141.2340 C   0  0  0  0  0  2  0  0  0  0  0  0
  185.0860  177.7400  142.6120 C   0  0  0  0  0  2  0  0  0  0  0  0
  184.0540  178.6560  143.2490 C   0  0  0  0  0  2  0  0  0  0  0  0
  184.2290  179.0380  145.6610 O   0  0  0  0  0  0  0  0  0  0  0  0
  184.6290  179.3570  144.3850 N   0  0  0  0  0  0  0  0  0  0  0  0
  185.5620  180.1650  144.2120 O   0  0  0  0  0  0  0  0  0  0  0  0
  190.8050  175.9800  144.8940 C   0  0  0  0  0  2  0  0  0  0  0  0
  190.7910  173.8330  143.6690 N   0  0  0  0  0  2  0  0  0  0  0  0
  191.8480  174.7080  143.1430 C   0  0  2  0  0  3  0  0  0  0  0  0
  193.0040  174.8030  144.1130 C   0  0  2  0  0  3  0  0  0  0  0  0
  191.5570  174.6900  144.5830 C   0  0  1  0  0  0  0  0  0  0  0  0
  193.5570  176.2240  144.1040 C   0  0  0  0  0  2  0  0  0  0  0  0
  194.7370  176.3140  145.0100 C   0  0  0  0  0  0  0  0  0  0  0  0
  194.7870  177.2320  145.8710 O   0  0  0  0  0  0  0  0  0  0  0  0
  195.8180  175.3230  144.9220 C   0  0  0  0  0  0  0  0  0  0  0  0
  196.0370  174.5370  145.8820 O   0  0  0  0  0  1  0  0  0  0  0  0
  196.6040  175.2460  143.7790 O   0  0  0  0  0  0  0  0  0  0  0  0
  1  4  1  0  0  0  0
  1  6  2  0  0  0  0
  3  5  2  0  0  0  0
  3  2  1  0  0  0  0
  4 20  1  1  0  0  0
  4  3  1  0  0  0  0
  5  9  1  0  0  0  0
  6  5  1  0  0  0  0
  9  8  1  0  0  0  0
  9  7  2  0  0  0  0
 10  1  1  0  0  0  0
 11 10  1  0  0  0  0
 12 11  1  0  0  0  0
 13 12  1  0  0  0  0
 13 14  1  0  0  0  0
 14 15  1  0  0  0  0
 15 16  1  0  0  0  0
 16 18  1  0  0  0  0
 18 17  2  0  0  0  0
 19 18  2  0  0  0  0
 21 24  1  0  0  0  0
 22 21  1  1  0  0  0
 22 23  1  0  0  0  0
 22 24  1  0  0  0  0
 23 25  1  6  0  0  0
 23 24  1  0  0  0  0
 24 20  1  1  0  0  0
 25 26  1  0  0  0  0
 26 27  2  0  0  0  0
 28 26  1  0  0  0  0
 28 29  1  0  0  0  0
 30 28  2  0  0  0  0
M  END
>  <MODEL>
9

>  <REMARK>
 VINA RESULT:      -5.7      2.325      3.833
  Name = 
  14 active torsions:
  status: ('A' for Active; 'I' for Inactive)
    1  A    between atoms: C_2  and  N_8
    2  A    between atoms: C_2  and  C_10
    3  A    between atoms: C_4  and  N_8
    4  A    between atoms: C_5  and  C_22
    5  A    between atoms: C_10  and  C_12
    6  A    between atoms: C_11  and  C_15
    7  A    between atoms: C_11  and  C_22
    8  A    between atoms: C_12  and  C_28
    9  A    between atoms: N_13  and  C_18
   10  A    between atoms: C_18  and  C_25
   11  A    between atoms: C_21  and  C_24
   12  A    between atoms: C_23  and  C_24
   13  A    between atoms: C_25  and  C_28
   14  A    between atoms: C_27  and  C_29
                            x       y       z     vdW  Elec       q    Type
                         _______ _______ _______ _____ _____    ______ ____

>  <TORSDO>
F 14

$$$$
