=
 OpenBabel11042414523D

 32 34  0  0  1  0  0  0  0  0999 V2000
  190.7370  174.1770  143.8610 C   0  0  1  0  0  3  0  0  0  0  0  0
  190.6080  177.0640  146.5480 C   0  0  0  0  0  2  0  0  0  0  0  0
  189.0900  177.2850  146.4510 C   0  0  2  0  0  3  0  0  0  0  0  0
  190.1950  174.9920  145.0390 C   0  0  1  0  0  3  0  0  0  0  0  0
  186.1340  177.6430  145.2840 C   0  0  1  0  0  0  0  0  0  0  0  0
  185.2610  178.7040  145.0490 O   0  0  0  0  0  1  0  0  0  0  0  0
  185.6020  176.5070  144.6970 F   0  0  0  0  0  0  0  0  0  0  0  0
  189.6130  174.0730  146.1200 C   0  0  0  0  0  2  0  0  0  0  0  0
  187.4500  177.9580  144.6110 C   0  0  0  0  0  3  0  0  0  0  0  0
  188.9960  174.8070  147.3150 C   0  0  0  0  0  2  0  0  0  0  0  0
  186.9830  176.1760  147.1270 C   0  0  0  0  0  3  0  0  0  0  0  0
  188.3000  176.0820  146.9290 C   0  0  0  0  0  0  0  0  0  0  0  0
  188.6990  177.7810  145.0810 C   0  0  0  0  0  3  0  0  0  0  0  0
  186.2290  177.4290  146.7960 C   0  0  0  0  0  2  0  0  0  0  0  0
  191.1950  176.0390  145.5590 C   0  0  0  0  0  2  0  0  0  0  0  0
  188.4800  175.0940  141.2810 C   0  0  0  0  0  0  0  0  0  0  0  0
  188.9000  175.2470  142.5490 N   0  0  0  0  0  0  0  0  0  0  0  0
  189.2320  174.1390  140.6240 C   0  0  0  0  0  3  0  0  0  0  0  0
  189.9110  174.3630  142.6270 C   0  0  0  0  0  0  0  0  0  0  0  0
  190.1110  173.7140  141.5000 O   0  0  0  0  0  0  0  0  0  0  0  0
  187.2830  177.2730  140.7280 C   0  0  0  0  0  0  0  0  0  0  0  0
  186.1460  177.8860  140.1310 N   0  0  0  0  0  1  0  0  0  0  0  0
  187.3930  175.8470  140.7270 N   0  0  0  0  0  2  0  0  0  0  0  0
  188.1740  177.9950  141.2490 O   0  0  0  0  0  0  0  0  0  0  0  0
  192.6010  175.1520  142.7000 O   0  0  0  0  0  0  0  0  0  0  0  0
  193.1460  173.6550  144.4060 N   0  0  0  0  0  2  0  0  0  0  0  0
  192.2040  174.3680  143.6060 C   0  0  0  0  0  0  0  0  0  0  0  0
  194.5800  173.7990  144.2160 C   0  0  0  0  0  2  0  0  0  0  0  0
  195.1570  174.7090  145.2870 C   0  0  1  0  0  3  0  0  0  0  0  0
  196.4360  174.1970  145.7510 N   0  0  0  0  0  1  0  0  0  0  0  0
  195.3130  176.1320  144.7650 C   0  0  0  0  0  2  0  0  0  0  0  0
  194.6440  177.0860  145.6350 N   0  0  0  0  0  1  0  0  0  0  0  0
  1 27  1  6  0  0  0
  3 13  1  6  0  0  0
  3  2  1  0  0  0  0
  3 12  1  0  0  0  0
  4  1  1  6  0  0  0
  4 15  1  0  0  0  0
  4  8  1  0  0  0  0
  5  7  1  6  0  0  0
  5 14  1  0  0  0  0
  6  5  1  0  0  0  0
  8 10  1  0  0  0  0
  9 13  2  0  0  0  0
  9  5  1  0  0  0  0
 12 11  2  0  0  0  0
 12 10  1  0  0  0  0
 14 11  1  0  0  0  0
 15  2  1  0  0  0  0
 16 17  1  0  0  0  0
 17 19  2  0  0  0  0
 18 16  2  0  0  0  0
 18 20  1  0  0  0  0
 19  1  1  0  0  0  0
 20 19  1  0  0  0  0
 21 24  2  0  0  0  0
 22 21  1  0  0  0  0
 23 21  1  0  0  0  0
 23 16  1  0  0  0  0
 25 27  2  0  0  0  0
 27 26  1  0  0  0  0
 28 26  1  0  0  0  0
 28 29  1  0  0  0  0
 29 30  1  6  0  0  0
 31 29  1  0  0  0  0
 31 32  1  0  0  0  0
M  END
>  <MODEL>
1

>  <REMARK>
 VINA RESULT:      -7.4      0.000      0.000
  Name = 
  7 active torsions:
  status: ('A' for Active; 'I' for Inactive)
    1  A    between atoms: N_5  and  C_11
    2  A    between atoms: C_6  and  C_26
    3  A    between atoms: C_10  and  N_16
    4  A    between atoms: C_11  and  C_12
    5  A    between atoms: C_12  and  C_17
    6  A    between atoms: C_20  and  C_26
    7  A    between atoms: C_21  and  C_26
                            x       y       z     vdW  Elec       q    Type
                         _______ _______ _______ _____ _____    ______ ____

>  <TORSDO>
F 7

$$$$
=
 OpenBabel11042414523D

 32 34  0  0  1  0  0  0  0  0999 V2000
  189.8790  174.7820  145.6280 C   0  0  1  0  0  3  0  0  0  0  0  0
  188.7670  174.5270  141.8510 C   0  0  0  0  0  2  0  0  0  0  0  0
  187.9030  175.7970  141.8670 C   0  0  2  0  0  3  0  0  0  0  0  0
  189.5380  175.2680  144.2160 C   0  0  1  0  0  3  0  0  0  0  0  0
  185.8350  178.0620  142.7770 C   0  0  1  0  0  0  0  0  0  0  0  0
  184.5250  178.4180  142.4650 O   0  0  0  0  0  1  0  0  0  0  0  0
  186.2350  178.8020  143.8770 F   0  0  0  0  0  0  0  0  0  0  0  0
  190.4970  176.3800  143.7720 C   0  0  0  0  0  2  0  0  0  0  0  0
  185.8470  176.5980  143.1560 C   0  0  0  0  0  3  0  0  0  0  0  0
  190.1960  176.9660  142.3890 C   0  0  0  0  0  2  0  0  0  0  0  0
  188.1780  178.2570  141.9150 C   0  0  0  0  0  3  0  0  0  0  0  0
  188.7240  177.0520  142.0930 C   0  0  0  0  0  0  0  0  0  0  0  0
  186.7300  175.6450  142.8050 C   0  0  0  0  0  3  0  0  0  0  0  0
  186.7240  178.4160  141.5830 C   0  0  0  0  0  2  0  0  0  0  0  0
  189.3770  174.1200  143.2050 C   0  0  0  0  0  2  0  0  0  0  0  0
  193.3690  175.1360  146.1650 C   0  0  0  0  0  0  0  0  0  0  0  0
  192.3550  174.4490  145.6110 N   0  0  0  0  0  0  0  0  0  0  0  0
  192.8970  176.2170  146.8840 C   0  0  0  0  0  3  0  0  0  0  0  0
  191.2780  175.1440  146.0200 C   0  0  0  0  0  0  0  0  0  0  0  0
  191.5910  176.1830  146.7630 O   0  0  0  0  0  0  0  0  0  0  0  0
  195.5660  175.0870  144.8780 C   0  0  0  0  0  0  0  0  0  0  0  0
  196.9210  174.6520  144.8560 N   0  0  0  0  0  1  0  0  0  0  0  0
  194.7420  174.7600  146.0000 N   0  0  0  0  0  2  0  0  0  0  0  0
  195.1130  175.7520  143.9090 O   0  0  0  0  0  0  0  0  0  0  0  0
  188.8100  174.5450  147.7660 O   0  0  0  0  0  0  0  0  0  0  0  0
  187.9850  176.2560  146.4100 N   0  0  0  0  0  2  0  0  0  0  0  0
  188.8710  175.1690  146.6700 C   0  0  0  0  0  0  0  0  0  0  0  0
  186.9890  176.6860  147.3780 C   0  0  0  0  0  2  0  0  0  0  0  0
  186.0220  177.6620  146.7300 C   0  0  1  0  0  3  0  0  0  0  0  0
  184.7290  177.0310  146.5220 N   0  0  0  0  0  1  0  0  0  0  0  0
  185.8680  178.9180  147.5780 C   0  0  0  0  0  2  0  0  0  0  0  0
  187.0300  179.1210  148.4300 N   0  0  0  0  0  1  0  0  0  0  0  0
  1 19  1  0  0  0  0
  1 27  1  1  0  0  0
  2 15  1  0  0  0  0
  3  2  1  1  0  0  0
  3 12  1  0  0  0  0
  3 13  1  0  0  0  0
  4  1  1  1  0  0  0
  5  6  1  6  0  0  0
  5  9  1  0  0  0  0
  5  7  1  0  0  0  0
  8  4  1  0  0  0  0
 10  8  1  0  0  0  0
 11 12  2  0  0  0  0
 12 10  1  0  0  0  0
 13  9  2  0  0  0  0
 14 11  1  0  0  0  0
 14  5  1  0  0  0  0
 15  4  1  0  0  0  0
 16 18  2  0  0  0  0
 17 19  2  0  0  0  0
 17 16  1  0  0  0  0
 19 20  1  0  0  0  0
 20 18  1  0  0  0  0
 21 23  1  0  0  0  0
 22 21  1  0  0  0  0
 23 16  1  0  0  0  0
 24 21  2  0  0  0  0
 26 27  1  0  0  0  0
 26 28  1  0  0  0  0
 27 25  2  0  0  0  0
 29 30  1  1  0  0  0
 29 28  1  0  0  0  0
 29 31  1  0  0  0  0
 31 32  1  0  0  0  0
M  END
>  <MODEL>
2

>  <REMARK>
 VINA RESULT:      -7.3      2.778      6.595
  Name = 
  7 active torsions:
  status: ('A' for Active; 'I' for Inactive)
    1  A    between atoms: N_5  and  C_11
    2  A    between atoms: C_6  and  C_26
    3  A    between atoms: C_10  and  N_16
    4  A    between atoms: C_11  and  C_12
    5  A    between atoms: C_12  and  C_17
    6  A    between atoms: C_20  and  C_26
    7  A    between atoms: C_21  and  C_26
                            x       y       z     vdW  Elec       q    Type
                         _______ _______ _______ _____ _____    ______ ____

>  <TORSDO>
F 7

$$$$
=
 OpenBabel11042414523D

 32 34  0  0  1  0  0  0  0  0999 V2000
  188.0430  177.1470  143.5080 C   0  0  1  0  0  3  0  0  0  0  0  0
  188.7170  175.3210  146.9400 C   0  0  0  0  0  2  0  0  0  0  0  0
  190.1170  174.8130  146.5620 C   0  0  2  0  0  3  0  0  0  0  0  0
  188.8370  176.6780  144.7300 C   0  0  1  0  0  3  0  0  0  0  0  0
  192.5640  173.5710  144.9200 C   0  0  1  0  0  0  0  0  0  0  0  0
  193.2410  172.3530  144.8800 O   0  0  0  0  0  1  0  0  0  0  0  0
  192.9910  174.3380  143.8500 F   0  0  0  0  0  0  0  0  0  0  0  0
  189.7820  177.7800  145.2260 C   0  0  0  0  0  2  0  0  0  0  0  0
  191.0870  173.2940  144.7510 C   0  0  0  0  0  3  0  0  0  0  0  0
  190.6590  177.3780  146.4160 C   0  0  0  0  0  2  0  0  0  0  0  0
  192.4120  175.6860  146.2510 C   0  0  0  0  0  3  0  0  0  0  0  0
  191.1070  175.9430  146.3620 C   0  0  0  0  0  0  0  0  0  0  0  0
  190.0490  173.8350  145.4140 C   0  0  0  0  0  3  0  0  0  0  0  0
  192.9320  174.2790  146.2250 C   0  0  0  0  0  2  0  0  0  0  0  0
  187.9520  176.0540  145.8230 C   0  0  0  0  0  2  0  0  0  0  0  0
  188.9300  174.6780  141.1180 C   0  0  0  0  0  0  0  0  0  0  0  0
  189.1170  175.2210  142.3340 N   0  0  0  0  0  0  0  0  0  0  0  0
  187.9560  175.3640  140.4160 C   0  0  0  0  0  3  0  0  0  0  0  0
  188.2380  176.2400  142.3340 C   0  0  0  0  0  0  0  0  0  0  0  0
  187.5530  176.3240  141.2140 O   0  0  0  0  0  0  0  0  0  0  0  0
  189.6450  172.2380  141.2520 C   0  0  0  0  0  0  0  0  0  0  0  0
  190.4220  171.1940  140.6760 N   0  0  0  0  0  1  0  0  0  0  0  0
  189.6640  173.5380  140.6560 N   0  0  0  0  0  2  0  0  0  0  0  0
  188.9530  172.0020  142.2770 O   0  0  0  0  0  0  0  0  0  0  0  0
  185.7060  176.5920  143.4540 O   0  0  0  0  0  0  0  0  0  0  0  0
  186.2340  178.6410  144.4390 N   0  0  0  0  0  2  0  0  0  0  0  0
  186.5940  177.4250  143.7870 C   0  0  0  0  0  0  0  0  0  0  0  0
  184.8510  178.9690  144.7450 C   0  0  0  0  0  2  0  0  0  0  0  0
  184.5860  178.7710  146.2280 C   0  0  1  0  0  3  0  0  0  0  0  0
  184.3250  177.3690  146.5130 N   0  0  0  0  0  1  0  0  0  0  0  0
  185.7590  179.2720  147.0610 C   0  0  0  0  0  2  0  0  0  0  0  0
  186.2190  178.2490  147.9870 N   0  0  0  0  0  1  0  0  0  0  0  0
  1 27  1  1  0  0  0
  3 13  1  6  0  0  0
  3  2  1  0  0  0  0
  4  1  1  6  0  0  0
  4  8  1  0  0  0  0
  4 15  1  0  0  0  0
  5  7  1  6  0  0  0
  5 14  1  0  0  0  0
  6  5  1  0  0  0  0
  8 10  1  0  0  0  0
  9  5  1  0  0  0  0
  9 13  2  0  0  0  0
 11 12  2  0  0  0  0
 12 10  1  0  0  0  0
 12  3  1  0  0  0  0
 14 11  1  0  0  0  0
 15  2  1  0  0  0  0
 16 17  1  0  0  0  0
 18 16  2  0  0  0  0
 18 20  1  0  0  0  0
 19 17  2  0  0  0  0
 19  1  1  0  0  0  0
 20 19  1  0  0  0  0
 21 24  2  0  0  0  0
 22 21  1  0  0  0  0
 23 16  1  0  0  0  0
 23 21  1  0  0  0  0
 25 27  2  0  0  0  0
 26 28  1  0  0  0  0
 27 26  1  0  0  0  0
 28 29  1  0  0  0  0
 29 30  1  6  0  0  0
 29 31  1  0  0  0  0
 31 32  1  0  0  0  0
M  END
>  <MODEL>
3

>  <REMARK>
 VINA RESULT:      -7.3      3.062      6.522
  Name = 
  7 active torsions:
  status: ('A' for Active; 'I' for Inactive)
    1  A    between atoms: N_5  and  C_11
    2  A    between atoms: C_6  and  C_26
    3  A    between atoms: C_10  and  N_16
    4  A    between atoms: C_11  and  C_12
    5  A    between atoms: C_12  and  C_17
    6  A    between atoms: C_20  and  C_26
    7  A    between atoms: C_21  and  C_26
                            x       y       z     vdW  Elec       q    Type
                         _______ _______ _______ _____ _____    ______ ____

>  <TORSDO>
F 7

$$$$
=
 OpenBabel11042414523D

 32 34  0  0  1  0  0  0  0  0999 V2000
  190.9380  173.6680  144.8760 C   0  0  1  0  0  3  0  0  0  0  0  0
  190.2640  177.4900  145.5860 C   0  0  0  0  0  2  0  0  0  0  0  0
  188.8340  177.4920  145.0250 C   0  0  2  0  0  3  0  0  0  0  0  0
  190.1530  174.9120  145.3000 C   0  0  1  0  0  3  0  0  0  0  0  0
  186.2930  176.9410  143.1620 C   0  0  1  0  0  0  0  0  0  0  0  0
  185.5600  177.6530  142.2140 O   0  0  0  0  0  1  0  0  0  0  0  0
  185.8760  175.6210  143.1290 F   0  0  0  0  0  0  0  0  0  0  0  0
  189.2710  174.6160  146.5200 C   0  0  0  0  0  2  0  0  0  0  0  0
  187.7510  176.9920  142.7650 C   0  0  0  0  0  3  0  0  0  0  0  0
  188.4060  175.7930  146.9810 C   0  0  0  0  0  2  0  0  0  0  0  0
  186.5740  176.6890  145.6370 C   0  0  0  0  0  3  0  0  0  0  0  0
  187.8920  176.6290  145.8410 C   0  0  0  0  0  0  0  0  0  0  0  0
  188.8290  177.1900  143.5460 C   0  0  0  0  0  3  0  0  0  0  0  0
  185.9890  177.5300  144.5410 C   0  0  0  0  0  2  0  0  0  0  0  0
  191.0350  176.1660  145.4360 C   0  0  0  0  0  2  0  0  0  0  0  0
  189.3770  172.8150  141.8060 C   0  0  0  0  0  0  0  0  0  0  0  0
  189.6110  173.7320  142.7600 N   0  0  0  0  0  0  0  0  0  0  0  0
  189.9980  171.6180  142.1090 C   0  0  0  0  0  3  0  0  0  0  0  0
  190.3800  173.0530  143.6310 C   0  0  0  0  0  0  0  0  0  0  0  0
  190.6130  171.8150  143.2510 O   0  0  0  0  0  0  0  0  0  0  0  0
  189.0860  173.4920  139.3680 C   0  0  0  0  0  0  0  0  0  0  0  0
  188.1760  173.7210  138.2990 N   0  0  0  0  0  1  0  0  0  0  0  0
  188.5830  173.0880  140.6450 N   0  0  0  0  0  2  0  0  0  0  0  0
  190.3210  173.6480  139.1750 O   0  0  0  0  0  0  0  0  0  0  0  0
  193.1540  173.6440  145.8030 O   0  0  0  0  0  0  0  0  0  0  0  0
  192.9990  174.3320  143.5790 N   0  0  0  0  0  2  0  0  0  0  0  0
  192.4230  173.8750  144.8010 C   0  0  0  0  0  0  0  0  0  0  0  0
  194.4290  174.5470  143.4350 C   0  0  0  0  0  2  0  0  0  0  0  0
  194.7300  176.0360  143.4090 C   0  0  1  0  0  3  0  0  0  0  0  0
  194.7570  176.5720  144.7600 N   0  0  0  0  0  1  0  0  0  0  0  0
  196.0530  176.3110  142.7040 C   0  0  0  0  0  2  0  0  0  0  0  0
  195.8350  176.7580  141.3370 N   0  0  0  0  0  1  0  0  0  0  0  0
  1 27  1  6  0  0  0
  3 13  1  6  0  0  0
  3  2  1  0  0  0  0
  3 12  1  0  0  0  0
  4  1  1  1  0  0  0
  4 15  1  0  0  0  0
  4  8  1  0  0  0  0
  5  6  1  6  0  0  0
  5 14  1  0  0  0  0
  7  5  1  0  0  0  0
  8 10  1  0  0  0  0
  9  5  1  0  0  0  0
  9 13  2  0  0  0  0
 11 12  2  0  0  0  0
 12 10  1  0  0  0  0
 14 11  1  0  0  0  0
 15  2  1  0  0  0  0
 16 18  2  0  0  0  0
 16 17  1  0  0  0  0
 17 19  2  0  0  0  0
 18 20  1  0  0  0  0
 19  1  1  0  0  0  0
 20 19  1  0  0  0  0
 21 23  1  0  0  0  0
 22 21  1  0  0  0  0
 23 16  1  0  0  0  0
 24 21  2  0  0  0  0
 26 27  1  0  0  0  0
 27 25  2  0  0  0  0
 28 26  1  0  0  0  0
 29 28  1  0  0  0  0
 29 30  1  1  0  0  0
 31 29  1  0  0  0  0
 32 31  1  0  0  0  0
M  END
>  <MODEL>
4

>  <REMARK>
 VINA RESULT:      -7.2      1.974      2.539
  Name = 
  7 active torsions:
  status: ('A' for Active; 'I' for Inactive)
    1  A    between atoms: N_5  and  C_11
    2  A    between atoms: C_6  and  C_26
    3  A    between atoms: C_10  and  N_16
    4  A    between atoms: C_11  and  C_12
    5  A    between atoms: C_12  and  C_17
    6  A    between atoms: C_20  and  C_26
    7  A    between atoms: C_21  and  C_26
                            x       y       z     vdW  Elec       q    Type
                         _______ _______ _______ _____ _____    ______ ____

>  <TORSDO>
F 7

$$$$
=
 OpenBabel11042414523D

 32 34  0  0  1  0  0  0  0  0999 V2000
  190.7590  173.9720  143.9140 C   0  0  1  0  0  3  0  0  0  0  0  0
  190.5770  177.1670  146.2220 C   0  0  0  0  0  2  0  0  0  0  0  0
  189.0660  177.3840  146.0510 C   0  0  2  0  0  3  0  0  0  0  0  0
  190.1900  174.9290  144.9650 C   0  0  1  0  0  3  0  0  0  0  0  0
  186.1510  177.6170  144.7540 C   0  0  1  0  0  0  0  0  0  0  0  0
  185.2980  178.6470  144.3630 O   0  0  0  0  0  1  0  0  0  0  0  0
  185.6260  176.4220  144.2930 F   0  0  0  0  0  0  0  0  0  0  0  0
  189.5640  174.1530  146.1320 C   0  0  0  0  0  2  0  0  0  0  0  0
  187.4910  177.8380  144.0900 C   0  0  0  0  0  3  0  0  0  0  0  0
  188.9190  175.0320  147.2080 C   0  0  0  0  0  2  0  0  0  0  0  0
  186.9270  176.3810  146.7890 C   0  0  0  0  0  3  0  0  0  0  0  0
  188.2480  176.2550  146.6460 C   0  0  0  0  0  0  0  0  0  0  0  0
  188.7220  177.7110  144.6180 C   0  0  0  0  0  3  0  0  0  0  0  0
  186.1970  177.5900  146.2830 C   0  0  0  0  0  2  0  0  0  0  0  0
  191.1830  176.0250  145.3860 C   0  0  0  0  0  2  0  0  0  0  0  0
  189.2270  173.5530  140.7410 C   0  0  0  0  0  0  0  0  0  0  0  0
  190.0650  173.0880  141.6830 N   0  0  0  0  0  0  0  0  0  0  0  0
  188.6800  174.7640  141.1220 C   0  0  0  0  0  3  0  0  0  0  0  0
  190.0050  174.0480  142.6230 C   0  0  0  0  0  0  0  0  0  0  0  0
  189.1910  175.0300  142.3000 O   0  0  0  0  0  0  0  0  0  0  0  0
  189.7100  172.9770  138.3070 C   0  0  0  0  0  0  0  0  0  0  0  0
  189.3360  172.2050  137.1730 N   0  0  0  0  0  1  0  0  0  0  0  0
  188.9630  172.8500  139.5210 N   0  0  0  0  0  2  0  0  0  0  0  0
  190.6920  173.7610  138.2270 O   0  0  0  0  0  0  0  0  0  0  0  0
  192.7160  174.7460  142.7560 O   0  0  0  0  0  0  0  0  0  0  0  0
  193.1150  173.4390  144.6480 N   0  0  0  0  0  2  0  0  0  0  0  0
  192.2430  174.0850  143.7210 C   0  0  0  0  0  0  0  0  0  0  0  0
  194.5610  173.5130  144.5240 C   0  0  0  0  0  2  0  0  0  0  0  0
  195.1310  174.4030  145.6160 C   0  0  1  0  0  3  0  0  0  0  0  0
  196.4840  173.9910  145.9510 N   0  0  0  0  0  1  0  0  0  0  0  0
  195.1130  175.8660  145.1890 C   0  0  0  0  0  2  0  0  0  0  0  0
  194.5830  176.7140  146.2460 N   0  0  0  0  0  1  0  0  0  0  0  0
  1 27  1  6  0  0  0
  3 13  1  6  0  0  0
  3  2  1  0  0  0  0
  3 12  1  0  0  0  0
  4  1  1  6  0  0  0
  4 15  1  0  0  0  0
  4  8  1  0  0  0  0
  5  7  1  6  0  0  0
  5 14  1  0  0  0  0
  6  5  1  0  0  0  0
  8 10  1  0  0  0  0
  9 13  2  0  0  0  0
  9  5  1  0  0  0  0
 12 11  2  0  0  0  0
 12 10  1  0  0  0  0
 14 11  1  0  0  0  0
 15  2  1  0  0  0  0
 16 18  2  0  0  0  0
 16 17  1  0  0  0  0
 17 19  2  0  0  0  0
 18 20  1  0  0  0  0
 19  1  1  0  0  0  0
 20 19  1  0  0  0  0
 21 23  1  0  0  0  0
 22 21  1  0  0  0  0
 23 16  1  0  0  0  0
 24 21  2  0  0  0  0
 25 27  2  0  0  0  0
 27 26  1  0  0  0  0
 28 26  1  0  0  0  0
 28 29  1  0  0  0  0
 29 30  1  6  0  0  0
 31 29  1  0  0  0  0
 31 32  1  0  0  0  0
M  END
>  <MODEL>
5

>  <REMARK>
 VINA RESULT:      -7.0      1.587      2.136
  Name = 
  7 active torsions:
  status: ('A' for Active; 'I' for Inactive)
    1  A    between atoms: N_5  and  C_11
    2  A    between atoms: C_6  and  C_26
    3  A    between atoms: C_10  and  N_16
    4  A    between atoms: C_11  and  C_12
    5  A    between atoms: C_12  and  C_17
    6  A    between atoms: C_20  and  C_26
    7  A    between atoms: C_21  and  C_26
                            x       y       z     vdW  Elec       q    Type
                         _______ _______ _______ _____ _____    ______ ____

>  <TORSDO>
F 7

$$$$
=
 OpenBabel11042414523D

 32 34  0  0  1  0  0  0  0  0999 V2000
  190.9790  173.8030  144.8930 C   0  0  1  0  0  3  0  0  0  0  0  0
  190.1580  177.5430  145.8410 C   0  0  0  0  0  2  0  0  0  0  0  0
  188.7450  177.5400  145.2370 C   0  0  2  0  0  3  0  0  0  0  0  0
  190.1410  174.9900  145.3760 C   0  0  1  0  0  3  0  0  0  0  0  0
  186.2810  177.0410  143.2590 C   0  0  1  0  0  0  0  0  0  0  0  0
  185.5540  177.7940  142.3400 O   0  0  0  0  0  1  0  0  0  0  0  0
  185.9090  175.7140  143.1230 F   0  0  0  0  0  0  0  0  0  0  0  0
  189.2340  174.5820  146.5440 C   0  0  0  0  0  2  0  0  0  0  0  0
  187.7480  177.1640  142.9140 C   0  0  0  0  0  3  0  0  0  0  0  0
  188.3160  175.6960  147.0560 C   0  0  0  0  0  2  0  0  0  0  0  0
  186.4960  176.6260  145.7190 C   0  0  0  0  0  3  0  0  0  0  0  0
  187.8090  176.5930  145.9610 C   0  0  0  0  0  0  0  0  0  0  0  0
  188.7940  177.3420  143.7410 C   0  0  0  0  0  3  0  0  0  0  0  0
  185.9170  177.5220  144.6650 C   0  0  0  0  0  2  0  0  0  0  0  0
  190.9760  176.2570  145.6260 C   0  0  0  0  0  2  0  0  0  0  0  0
  189.3330  172.8110  141.9100 C   0  0  0  0  0  0  0  0  0  0  0  0
  189.6580  173.7890  142.7730 N   0  0  0  0  0  0  0  0  0  0  0  0
  189.8380  171.5950  142.3300 C   0  0  0  0  0  3  0  0  0  0  0  0
  190.3610  173.1270  143.7090 C   0  0  0  0  0  0  0  0  0  0  0  0
  190.4730  171.8420  143.4510 O   0  0  0  0  0  0  0  0  0  0  0  0
  189.0920  173.4620  139.4590 C   0  0  0  0  0  0  0  0  0  0  0  0
  188.2070  173.6480  138.3610 N   0  0  0  0  0  1  0  0  0  0  0  0
  188.5660  173.0460  140.7230 N   0  0  0  0  0  2  0  0  0  0  0  0
  190.3250  173.6660  139.3030 O   0  0  0  0  0  0  0  0  0  0  0  0
  192.8180  174.6590  143.6060 O   0  0  0  0  0  0  0  0  0  0  0  0
  193.3670  173.8170  145.7130 N   0  0  0  0  0  2  0  0  0  0  0  0
  192.4300  174.1220  144.6810 C   0  0  0  0  0  0  0  0  0  0  0  0
  194.7850  174.1050  145.5750 C   0  0  0  0  0  2  0  0  0  0  0  0
  195.5580  172.8160  145.3530 C   0  0  1  0  0  3  0  0  0  0  0  0
  196.8060  172.8390  146.0980 N   0  0  0  0  0  1  0  0  0  0  0  0
  194.7230  171.6060  145.7550 C   0  0  0  0  0  2  0  0  0  0  0  0
  195.0480  170.4500  144.9340 N   0  0  0  0  0  1  0  0  0  0  0  0
  1 27  1  6  0  0  0
  3 13  1  6  0  0  0
  3  2  1  0  0  0  0
  3 12  1  0  0  0  0
  4  1  1  1  0  0  0
  4 15  1  0  0  0  0
  4  8  1  0  0  0  0
  5  6  1  6  0  0  0
  5 14  1  0  0  0  0
  7  5  1  0  0  0  0
  8 10  1  0  0  0  0
  9  5  1  0  0  0  0
  9 13  2  0  0  0  0
 11 12  2  0  0  0  0
 12 10  1  0  0  0  0
 14 11  1  0  0  0  0
 15  2  1  0  0  0  0
 16 18  2  0  0  0  0
 16 17  1  0  0  0  0
 17 19  2  0  0  0  0
 18 20  1  0  0  0  0
 19  1  1  0  0  0  0
 20 19  1  0  0  0  0
 21 23  1  0  0  0  0
 22 21  1  0  0  0  0
 23 16  1  0  0  0  0
 24 21  2  0  0  0  0
 25 27  2  0  0  0  0
 27 26  1  0  0  0  0
 28 26  1  0  0  0  0
 29 28  1  0  0  0  0
 29 31  1  0  0  0  0
 29 30  1  1  0  0  0
 32 31  1  0  0  0  0
M  END
>  <MODEL>
6

>  <REMARK>
 VINA RESULT:      -6.8      1.905      2.651
  Name = 
  7 active torsions:
  status: ('A' for Active; 'I' for Inactive)
    1  A    between atoms: N_5  and  C_11
    2  A    between atoms: C_6  and  C_26
    3  A    between atoms: C_10  and  N_16
    4  A    between atoms: C_11  and  C_12
    5  A    between atoms: C_12  and  C_17
    6  A    between atoms: C_20  and  C_26
    7  A    between atoms: C_21  and  C_26
                            x       y       z     vdW  Elec       q    Type
                         _______ _______ _______ _____ _____    ______ ____

>  <TORSDO>
F 7

$$$$
=
 OpenBabel11042414523D

 32 34  0  0  1  0  0  0  0  0999 V2000
  188.7630  176.0800  142.0130 C   0  0  1  0  0  3  0  0  0  0  0  0
  189.9420  177.9160  145.3000 C   0  0  0  0  0  2  0  0  0  0  0  0
  188.6270  177.7040  146.0650 C   0  0  2  0  0  3  0  0  0  0  0  0
  188.9200  176.3320  143.5150 C   0  0  1  0  0  3  0  0  0  0  0  0
  185.5130  177.5040  146.7710 C   0  0  1  0  0  0  0  0  0  0  0  0
  184.5770  178.2860  147.4440 O   0  0  0  0  0  1  0  0  0  0  0  0
  184.8400  176.4790  146.1290 F   0  0  0  0  0  0  0  0  0  0  0  0
  189.1350  175.0160  144.2730 C   0  0  0  0  0  2  0  0  0  0  0  0
  186.1820  178.3660  145.7250 C   0  0  0  0  0  3  0  0  0  0  0  0
  189.2480  175.1670  145.7930 C   0  0  0  0  0  2  0  0  0  0  0  0
  187.3790  175.8860  147.1890 C   0  0  0  0  0  3  0  0  0  0  0  0
  188.3520  176.2400  146.3470 C   0  0  0  0  0  0  0  0  0  0  0  0
  187.4860  178.4330  145.3980 C   0  0  0  0  0  3  0  0  0  0  0  0
  186.4680  176.9060  147.8070 C   0  0  0  0  0  2  0  0  0  0  0  0
  189.9470  177.4320  143.8390 C   0  0  0  0  0  2  0  0  0  0  0  0
  189.2200  172.6890  141.0750 C   0  0  0  0  0  0  0  0  0  0  0  0
  189.7110  173.9380  141.1440 N   0  0  0  0  0  0  0  0  0  0  0  0
  187.9340  172.6350  141.5800 C   0  0  0  0  0  3  0  0  0  0  0  0
  188.6900  174.6190  141.6970 C   0  0  0  0  0  0  0  0  0  0  0  0
  187.6490  173.8580  141.9570 O   0  0  0  0  0  0  0  0  0  0  0  0
  190.0750  171.2460  139.1570 C   0  0  0  0  0  0  0  0  0  0  0  0
  190.8650  170.1270  138.7730 N   0  0  0  0  0  1  0  0  0  0  0  0
  189.9690  171.5890  140.5420 N   0  0  0  0  0  2  0  0  0  0  0  0
  189.4800  171.9180  138.2730 O   0  0  0  0  0  0  0  0  0  0  0  0
  187.3620  176.6840  140.1570 O   0  0  0  0  0  0  0  0  0  0  0  0
  186.9330  177.8130  142.1540 N   0  0  0  0  0  2  0  0  0  0  0  0
  187.6560  176.8640  141.3720 C   0  0  0  0  0  0  0  0  0  0  0  0
  185.8450  178.6010  141.5980 C   0  0  0  0  0  2  0  0  0  0  0  0
  184.5210  177.8910  141.8250 C   0  0  1  0  0  3  0  0  0  0  0  0
  183.9210  178.3260  143.0750 N   0  0  0  0  0  1  0  0  0  0  0  0
  183.5660  178.1380  140.6640 C   0  0  0  0  0  2  0  0  0  0  0  0
  182.1980  178.2890  141.1350 N   0  0  0  0  0  1  0  0  0  0  0  0
  1 27  1  1  0  0  0
  3  2  1  6  0  0  0
  3 12  1  0  0  0  0
  4  1  1  6  0  0  0
  4 15  1  0  0  0  0
  4  8  1  0  0  0  0
  5  7  1  6  0  0  0
  5  6  1  0  0  0  0
  5 14  1  0  0  0  0
  8 10  1  0  0  0  0
  9  5  1  0  0  0  0
 10 12  1  0  0  0  0
 11 14  1  0  0  0  0
 12 11  2  0  0  0  0
 13  9  2  0  0  0  0
 13  3  1  0  0  0  0
 15  2  1  0  0  0  0
 16 17  1  0  0  0  0
 16 18  2  0  0  0  0
 17 19  2  0  0  0  0
 18 20  1  0  0  0  0
 19 20  1  0  0  0  0
 19  1  1  0  0  0  0
 21 23  1  0  0  0  0
 22 21  1  0  0  0  0
 23 16  1  0  0  0  0
 24 21  2  0  0  0  0
 25 27  2  0  0  0  0
 27 26  1  0  0  0  0
 28 29  1  0  0  0  0
 28 26  1  0  0  0  0
 29 30  1  1  0  0  0
 31 32  1  0  0  0  0
 31 29  1  0  0  0  0
M  END
>  <MODEL>
7

>  <REMARK>
 VINA RESULT:      -6.8      3.250      6.037
  Name = 
  7 active torsions:
  status: ('A' for Active; 'I' for Inactive)
    1  A    between atoms: N_5  and  C_11
    2  A    between atoms: C_6  and  C_26
    3  A    between atoms: C_10  and  N_16
    4  A    between atoms: C_11  and  C_12
    5  A    between atoms: C_12  and  C_17
    6  A    between atoms: C_20  and  C_26
    7  A    between atoms: C_21  and  C_26
                            x       y       z     vdW  Elec       q    Type
                         _______ _______ _______ _____ _____    ______ ____

>  <TORSDO>
F 7

$$$$
=
 OpenBabel11042414523D

 32 34  0  0  1  0  0  0  0  0999 V2000
  187.8340  176.1650  142.9120 C   0  0  1  0  0  3  0  0  0  0  0  0
  189.7440  177.4190  146.1280 C   0  0  0  0  0  2  0  0  0  0  0  0
  191.0380  176.6420  145.8420 C   0  0  2  0  0  3  0  0  0  0  0  0
  189.0100  176.6680  143.7550 C   0  0  1  0  0  3  0  0  0  0  0  0
  193.0730  174.3200  145.0050 C   0  0  1  0  0  0  0  0  0  0  0  0
  193.8920  173.4070  145.6660 O   0  0  0  0  0  1  0  0  0  0  0  0
  193.0490  173.9870  143.6620 F   0  0  0  0  0  0  0  0  0  0  0  0
  189.8730  177.6550  142.9590 C   0  0  0  0  0  2  0  0  0  0  0  0
  191.6720  174.1830  145.5580 C   0  0  0  0  0  3  0  0  0  0  0  0
  191.1060  178.1690  143.7070 C   0  0  0  0  0  2  0  0  0  0  0  0
  192.9800  176.7240  144.3100 C   0  0  0  0  0  3  0  0  0  0  0  0
  191.7380  177.1270  144.5880 C   0  0  0  0  0  0  0  0  0  0  0  0
  190.7970  175.1520  145.8820 C   0  0  0  0  0  3  0  0  0  0  0  0
  193.6850  175.7130  145.1650 C   0  0  0  0  0  2  0  0  0  0  0  0
  188.5850  177.1660  145.1470 C   0  0  0  0  0  2  0  0  0  0  0  0
  184.8740  178.1060  142.6570 C   0  0  0  0  0  0  0  0  0  0  0  0
  185.4500  176.8950  142.7510 N   0  0  0  0  0  0  0  0  0  0  0  0
  185.8280  179.1050  142.6320 C   0  0  0  0  0  3  0  0  0  0  0  0
  186.7600  177.1990  142.7790 C   0  0  0  0  0  0  0  0  0  0  0  0
  186.9860  178.4940  142.7140 O   0  0  0  0  0  0  0  0  0  0  0  0
  182.6570  178.2290  141.4080 C   0  0  0  0  0  0  0  0  0  0  0  0
  181.2510  178.4210  141.5010 N   0  0  0  0  0  1  0  0  0  0  0  0
  183.4540  178.2870  142.5950 N   0  0  0  0  0  2  0  0  0  0  0  0
  183.1810  178.0120  140.2830 O   0  0  0  0  0  0  0  0  0  0  0  0
  187.7890  176.0590  140.5120 O   0  0  0  0  0  0  0  0  0  0  0  0
  189.1270  174.4640  141.5680 N   0  0  0  0  0  2  0  0  0  0  0  0
  188.2330  175.5760  141.5910 C   0  0  0  0  0  0  0  0  0  0  0  0
  189.5590  173.8500  140.3230 C   0  0  0  0  0  2  0  0  0  0  0  0
  190.2220  172.5130  140.6060 C   0  0  1  0  0  3  0  0  0  0  0  0
  191.6690  172.6500  140.5880 N   0  0  0  0  0  1  0  0  0  0  0  0
  189.7590  171.9500  141.9450 C   0  0  0  0  0  2  0  0  0  0  0  0
  190.3710  170.6570  142.2100 N   0  0  0  0  0  1  0  0  0  0  0  0
  1 27  1  6  0  0  0
  3 13  1  6  0  0  0
  3  2  1  0  0  0  0
  4  1  1  6  0  0  0
  4 15  1  0  0  0  0
  5  7  1  6  0  0  0
  5 14  1  0  0  0  0
  5  9  1  0  0  0  0
  5  6  1  0  0  0  0
  8 10  1  0  0  0  0
  8  4  1  0  0  0  0
  9 13  2  0  0  0  0
 10 12  1  0  0  0  0
 11 12  2  0  0  0  0
 11 14  1  0  0  0  0
 12  3  1  0  0  0  0
 15  2  1  0  0  0  0
 16 17  1  0  0  0  0
 17 19  2  0  0  0  0
 18 16  2  0  0  0  0
 18 20  1  0  0  0  0
 19  1  1  0  0  0  0
 20 19  1  0  0  0  0
 21 22  1  0  0  0  0
 21 23  1  0  0  0  0
 23 16  1  0  0  0  0
 24 21  2  0  0  0  0
 25 27  2  0  0  0  0
 26 27  1  0  0  0  0
 28 29  1  0  0  0  0
 28 26  1  0  0  0  0
 29 30  1  1  0  0  0
 29 31  1  0  0  0  0
 31 32  1  0  0  0  0
M  END
>  <MODEL>
8

>  <REMARK>
 VINA RESULT:      -6.8      3.092      5.742
  Name = 
  7 active torsions:
  status: ('A' for Active; 'I' for Inactive)
    1  A    between atoms: N_5  and  C_11
    2  A    between atoms: C_6  and  C_26
    3  A    between atoms: C_10  and  N_16
    4  A    between atoms: C_11  and  C_12
    5  A    between atoms: C_12  and  C_17
    6  A    between atoms: C_20  and  C_26
    7  A    between atoms: C_21  and  C_26
                            x       y       z     vdW  Elec       q    Type
                         _______ _______ _______ _____ _____    ______ ____

>  <TORSDO>
F 7

$$$$
=
 OpenBabel11042414523D

 32 34  0  0  1  0  0  0  0  0999 V2000
  189.1900  174.4070  143.2940 C   0  0  1  0  0  3  0  0  0  0  0  0
  190.4650  174.9160  146.9930 C   0  0  0  0  0  2  0  0  0  0  0  0
  191.9350  175.1500  146.6090 C   0  0  2  0  0  3  0  0  0  0  0  0
  189.9970  175.0210  144.4410 C   0  0  1  0  0  3  0  0  0  0  0  0
  194.7920  174.8860  145.1960 C   0  0  1  0  0  0  0  0  0  0  0  0
  196.0390  174.3570  145.5270 O   0  0  0  0  0  1  0  0  0  0  0  0
  194.8050  175.2170  143.8520 F   0  0  0  0  0  0  0  0  0  0  0  0
  190.1050  176.5430  144.2830 C   0  0  0  0  0  2  0  0  0  0  0  0
  193.7520  173.8100  145.4130 C   0  0  0  0  0  3  0  0  0  0  0  0
  190.9440  177.2370  145.3610 C   0  0  0  0  0  2  0  0  0  0  0  0
  193.3520  176.8980  145.5800 C   0  0  0  0  0  3  0  0  0  0  0  0
  192.1260  176.4210  145.8050 C   0  0  0  0  0  0  0  0  0  0  0  0
  192.5350  173.9180  145.9770 C   0  0  0  0  0  3  0  0  0  0  0  0
  194.5760  176.1540  146.0250 C   0  0  0  0  0  2  0  0  0  0  0  0
  189.5240  174.5540  145.8290 C   0  0  0  0  0  2  0  0  0  0  0  0
  186.5480  176.6410  142.5040 C   0  0  0  0  0  0  0  0  0  0  0  0
  187.0880  175.7560  143.3600 N   0  0  0  0  0  0  0  0  0  0  0  0
  187.3390  176.7860  141.3800 C   0  0  0  0  0  3  0  0  0  0  0  0
  188.2090  175.3810  142.7180 C   0  0  0  0  0  0  0  0  0  0  0  0
  188.3620  175.9850  141.5600 O   0  0  0  0  0  0  0  0  0  0  0  0
  185.1570  178.4600  143.6180 C   0  0  0  0  0  0  0  0  0  0  0  0
  183.8670  179.0400  143.7780 N   0  0  0  0  0  1  0  0  0  0  0  0
  185.3150  177.3210  142.7670 N   0  0  0  0  0  2  0  0  0  0  0  0
  186.1400  178.9580  144.2280 O   0  0  0  0  0  0  0  0  0  0  0  0
  191.1930  174.1610  141.9910 O   0  0  0  0  0  0  0  0  0  0  0  0
  189.4940  172.6300  141.5280 N   0  0  0  0  0  2  0  0  0  0  0  0
  190.0290  173.7440  142.2410 C   0  0  0  0  0  0  0  0  0  0  0  0
  190.2540  171.9370  140.5010 C   0  0  0  0  0  2  0  0  0  0  0  0
  189.6870  172.2600  139.1290 C   0  0  1  0  0  3  0  0  0  0  0  0
  189.6880  171.0740  138.2880 N   0  0  0  0  0  1  0  0  0  0  0  0
  188.2770  172.8270  139.2430 C   0  0  0  0  0  2  0  0  0  0  0  0
  188.1910  174.1450  138.6330 N   0  0  0  0  0  1  0  0  0  0  0  0
  1 27  1  6  0  0  0
  3 13  1  6  0  0  0
  3  2  1  0  0  0  0
  4  1  1  6  0  0  0
  4 15  1  0  0  0  0
  5  7  1  6  0  0  0
  5  9  1  0  0  0  0
  5  6  1  0  0  0  0
  5 14  1  0  0  0  0
  8  4  1  0  0  0  0
  8 10  1  0  0  0  0
  9 13  2  0  0  0  0
 10 12  1  0  0  0  0
 11 12  2  0  0  0  0
 11 14  1  0  0  0  0
 12  3  1  0  0  0  0
 15  2  1  0  0  0  0
 16 23  1  0  0  0  0
 16 17  1  0  0  0  0
 18 20  1  0  0  0  0
 18 16  2  0  0  0  0
 19  1  1  0  0  0  0
 19 17  2  0  0  0  0
 20 19  1  0  0  0  0
 21 22  1  0  0  0  0
 21 24  2  0  0  0  0
 23 21  1  0  0  0  0
 25 27  2  0  0  0  0
 26 27  1  0  0  0  0
 28 26  1  0  0  0  0
 29 30  1  6  0  0  0
 29 31  1  0  0  0  0
 29 28  1  0  0  0  0
 32 31  1  0  0  0  0
M  END
>  <MODEL>
9

>  <REMARK>
 VINA RESULT:      -6.7      3.276      5.893
  Name = 
  7 active torsions:
  status: ('A' for Active; 'I' for Inactive)
    1  A    between atoms: N_5  and  C_11
    2  A    between atoms: C_6  and  C_26
    3  A    between atoms: C_10  and  N_16
    4  A    between atoms: C_11  and  C_12
    5  A    between atoms: C_12  and  C_17
    6  A    between atoms: C_20  and  C_26
    7  A    between atoms: C_21  and  C_26
                            x       y       z     vdW  Elec       q    Type
                         _______ _______ _______ _____ _____    ______ ____

>  <TORSDO>
F 7

$$$$
