=
 OpenBabel11042416463D

 37 41  0  0  1  0  0  0  0  0999 V2000
  189.8100  176.3200  145.8940 C   0  0  0  0  0  0  0  0  0  0  0  0
  190.7760  176.2810  144.8580 C   0  0  0  0  0  0  0  0  0  0  0  0
  193.8590  176.4640  146.8800 N   0  0  0  0  0  0  0  0  0  0  0  0
  191.5730  176.4170  147.5630 C   0  0  0  0  0  3  0  0  0  0  0  0
  190.2180  176.3800  147.2320 C   0  0  0  0  0  3  0  0  0  0  0  0
  194.4980  176.3670  144.6210 C   0  0  0  0  0  0  0  0  0  0  0  0
  195.5760  176.3560  143.5980 C   0  0  0  0  0  1  0  0  0  0  0  0
  193.1590  176.3100  144.2320 C   0  0  0  0  0  3  0  0  0  0  0  0
  192.1510  176.3290  145.2020 C   0  0  0  0  0  0  0  0  0  0  0  0
  194.8100  176.4500  145.9420 N   0  0  0  0  0  0  0  0  0  0  0  0
  192.5370  176.3980  146.5590 C   0  0  0  0  0  0  0  0  0  0  0  0
  191.0270  175.2370  142.5240 C   0  0  0  0  0  2  0  0  0  0  0  0
  189.5600  175.0630  142.8850 C   0  0  1  0  0  3  0  0  0  0  0  0
  190.3470  176.2620  143.4060 C   0  0  1  0  0  0  0  0  0  0  0  0
  190.1360  177.4900  142.7770 O   0  0  0  0  0  1  0  0  0  0  0  0
  188.7020  175.4200  141.6770 C   0  0  0  0  0  2  0  0  0  0  0  0
  188.1450  174.8270  139.4180 O   0  0  0  0  0  1  0  0  0  0  0  0
  188.8230  174.3860  140.5560 C   0  0  2  0  0  3  0  0  0  0  0  0
  188.3010  173.0150  140.9730 C   0  0  0  0  0  2  0  0  0  0  0  0
  189.9940  171.5770  139.8410 N   0  0  0  0  0  2  0  0  0  0  0  0
  189.3760  172.0390  141.0080 N   0  0  0  0  0  0  0  0  0  0  0  0
  191.0460  170.6020  141.8330 C   0  0  0  0  0  2  0  0  0  0  0  0
  192.3480  170.9360  139.7180 C   0  0  0  0  0  1  0  0  0  0  0  0
  189.4670  171.6430  143.3460 N   0  0  0  0  0  2  0  0  0  0  0  0
  190.0060  171.5720  142.1760 C   0  0  0  0  0  0  0  0  0  0  0  0
  190.9870  170.5950  140.2990 C   0  0  2  0  0  3  0  0  0  0  0  0
  188.3430  176.3220  145.6120 C   0  0  0  0  0  2  0  0  0  0  0  0
  187.8020  177.6500  145.8370 N   0  0  0  0  0  2  0  0  0  0  0  0
  185.8810  178.8230  146.7560 C   0  0  0  0  0  2  0  0  0  0  0  0
  186.4500  177.4730  146.3540 C   0  0  1  0  0  3  0  0  0  0  0  0
  185.3820  178.1570  145.4850 C   0  0  2  0  0  3  0  0  0  0  0  0
  185.9380  178.8700  144.2560 C   0  0  2  0  0  3  0  0  0  0  0  0
  185.3800  180.1460  144.1610 O   0  0  0  0  0  1  0  0  0  0  0  0
  183.8520  178.2340  142.3400 C   0  0  0  0  0  1  0  0  0  0  0  0
  185.7450  176.4710  143.0380 O   0  0  0  0  0  0  0  0  0  0  0  0
  186.4350  178.3720  141.6470 O   0  0  0  0  0  0  0  0  0  0  0  0
  185.5460  177.9400  142.7810 S   0  0  0  0  0  0  0  0  0  0  0  0
  1  5  1  0  0  0  0
  2  9  1  0  0  0  0
  2  1  2  0  0  0  0
  5  4  2  0  0  0  0
  6 10  1  0  0  0  0
  7  6  1  0  0  0  0
  8  6  2  0  0  0  0
  8  9  1  0  0  0  0
  9 11  2  0  0  0  0
 10  3  2  0  0  0  0
 11  3  1  0  0  0  0
 11  4  1  0  0  0  0
 12 13  1  0  0  0  0
 12 14  1  0  0  0  0
 13 16  1  6  0  0  0
 13 14  1  0  0  0  0
 14 15  1  6  0  0  0
 14  2  1  0  0  0  0
 18 17  1  6  0  0  0
 18 19  1  0  0  0  0
 18 16  1  0  0  0  0
 19 21  1  0  0  0  0
 20 26  1  0  0  0  0
 20 21  1  0  0  0  0
 21 25  1  0  0  0  0
 22 25  1  0  0  0  0
 25 24  2  0  0  0  0
 26 23  1  6  0  0  0
 26 22  1  0  0  0  0
 27 28  1  0  0  0  0
 27  1  1  0  0  0  0
 30 28  1  6  0  0  0
 30 29  1  0  0  0  0
 31 32  1  6  0  0  0
 31 30  1  0  0  0  0
 31 29  1  0  0  0  0
 32 33  1  6  0  0  0
 34 37  1  0  0  0  0
 36 37  2  0  0  0  0
 37 35  2  0  0  0  0
 37 32  1  0  0  0  0
M  END
>  <MODEL>
1

>  <REMARK>
 VINA RESULT:      -7.4      0.000      0.000
  Name = 
  10 active torsions:
  status: ('A' for Active; 'I' for Inactive)
    1  A    between atoms: C_2  and  S_30
    2  A    between atoms: C_2  and  C_33
    3  A    between atoms: C_3  and  C_11
    4  A    between atoms: C_5  and  C_22
    5  A    between atoms: N_6  and  C_13
    6  A    between atoms: C_11  and  N_27
    7  A    between atoms: C_12  and  C_15
    8  A    between atoms: C_13  and  C_36
    9  A    between atoms: C_15  and  C_36
   10  A    between atoms: N_27  and  C_29
                            x       y       z     vdW  Elec       q    Type
                         _______ _______ _______ _____ _____    ______ ____

>  <TORSDO>
F 10

$$$$
=
 OpenBabel11042416463D

 37 41  0  0  1  0  0  0  0  0999 V2000
  187.7880  176.8080  145.8470 C   0  0  0  0  0  0  0  0  0  0  0  0
  187.5390  176.8720  144.4530 C   0  0  0  0  0  0  0  0  0  0  0  0
  184.2200  178.4880  144.4910 N   0  0  0  0  0  0  0  0  0  0  0  0
  185.6650  177.9010  146.2970 C   0  0  0  0  0  3  0  0  0  0  0  0
  186.8540  177.3280  146.7500 C   0  0  0  0  0  3  0  0  0  0  0  0
  184.7910  178.0960  142.2460 C   0  0  0  0  0  0  0  0  0  0  0  0
  184.4390  178.1810  140.8040 C   0  0  0  0  0  1  0  0  0  0  0  0
  186.0040  177.5290  142.6410 C   0  0  0  0  0  3  0  0  0  0  0  0
  186.3240  177.4460  144.0000 C   0  0  0  0  0  0  0  0  0  0  0  0
  183.9270  178.5560  143.1900 N   0  0  0  0  0  0  0  0  0  0  0  0
  185.3930  177.9560  144.9330 C   0  0  0  0  0  0  0  0  0  0  0  0
  189.1230  174.9400  143.8550 C   0  0  0  0  0  2  0  0  0  0  0  0
  188.1250  175.0080  142.7100 C   0  0  1  0  0  3  0  0  0  0  0  0
  188.5200  176.2720  143.4680 C   0  0  1  0  0  0  0  0  0  0  0  0
  189.4230  177.1360  142.8460 O   0  0  0  0  0  1  0  0  0  0  0  0
  188.8710  174.8730  141.3880 C   0  0  0  0  0  2  0  0  0  0  0  0
  187.6890  172.7830  141.4470 O   0  0  0  0  0  1  0  0  0  0  0  0
  188.5110  173.5820  140.6500 C   0  0  2  0  0  3  0  0  0  0  0  0
  189.7470  172.7950  140.2260 C   0  0  0  0  0  2  0  0  0  0  0  0
  190.4270  171.8290  142.4220 N   0  0  0  0  0  2  0  0  0  0  0  0
  190.6840  172.6650  141.3290 N   0  0  0  0  0  0  0  0  0  0  0  0
  192.6360  172.8810  142.6230 C   0  0  0  0  0  2  0  0  0  0  0  0
  192.1710  170.6480  143.6610 C   0  0  0  0  0  1  0  0  0  0  0  0
  192.3390  174.2100  140.6190 N   0  0  0  0  0  2  0  0  0  0  0  0
  191.9760  173.2180  141.3620 C   0  0  0  0  0  0  0  0  0  0  0  0
  191.5820  172.0040  143.3140 C   0  0  2  0  0  3  0  0  0  0  0  0
  189.0210  176.1760  146.4040 C   0  0  0  0  0  2  0  0  0  0  0  0
  190.1020  177.1440  146.4240 N   0  0  0  0  0  2  0  0  0  0  0  0
  191.0960  175.3970  147.7920 C   0  0  0  0  0  2  0  0  0  0  0  0
  190.8720  176.8920  147.6380 C   0  0  1  0  0  3  0  0  0  0  0  0
  192.2530  176.2790  147.3540 C   0  0  2  0  0  3  0  0  0  0  0  0
  192.5520  176.0690  145.8730 C   0  0  2  0  0  3  0  0  0  0  0  0
  192.2150  174.7650  145.5060 O   0  0  0  0  0  1  0  0  0  0  0  0
  194.6120  176.0980  143.8270 C   0  0  0  0  0  1  0  0  0  0  0  0
  195.1120  175.3720  146.3570 O   0  0  0  0  0  0  0  0  0  0  0  0
  194.6670  177.7500  145.9350 O   0  0  0  0  0  0  0  0  0  0  0  0
  194.2890  176.3430  145.5550 S   0  0  0  0  0  0  0  0  0  0  0  0
  1 27  1  0  0  0  0
  1  5  1  0  0  0  0
  2  1  2  0  0  0  0
  3 11  1  0  0  0  0
  4  5  2  0  0  0  0
  6  8  2  0  0  0  0
  6 10  1  0  0  0  0
  7  6  1  0  0  0  0
  8  9  1  0  0  0  0
  9  2  1  0  0  0  0
  9 11  2  0  0  0  0
 10  3  2  0  0  0  0
 11  4  1  0  0  0  0
 13 16  1  6  0  0  0
 13 14  1  0  0  0  0
 13 12  1  0  0  0  0
 14 15  1  6  0  0  0
 14 12  1  0  0  0  0
 14  2  1  0  0  0  0
 18 16  1  0  0  0  0
 18 17  1  1  0  0  0
 19 18  1  0  0  0  0
 19 21  1  0  0  0  0
 20 26  1  0  0  0  0
 21 25  1  0  0  0  0
 21 20  1  0  0  0  0
 22 26  1  0  0  0  0
 24 25  2  0  0  0  0
 25 22  1  0  0  0  0
 26 23  1  6  0  0  0
 27 28  1  0  0  0  0
 30 28  1  6  0  0  0
 30 29  1  0  0  0  0
 31 32  1  6  0  0  0
 31 30  1  0  0  0  0
 31 29  1  0  0  0  0
 32 33  1  1  0  0  0
 34 37  1  0  0  0  0
 37 32  1  0  0  0  0
 37 36  2  0  0  0  0
 37 35  2  0  0  0  0
M  END
>  <MODEL>
2

>  <REMARK>
 VINA RESULT:      -7.3      2.849      6.225
  Name = 
  10 active torsions:
  status: ('A' for Active; 'I' for Inactive)
    1  A    between atoms: C_2  and  S_30
    2  A    between atoms: C_2  and  C_33
    3  A    between atoms: C_3  and  C_11
    4  A    between atoms: C_5  and  C_22
    5  A    between atoms: N_6  and  C_13
    6  A    between atoms: C_11  and  N_27
    7  A    between atoms: C_12  and  C_15
    8  A    between atoms: C_13  and  C_36
    9  A    between atoms: C_15  and  C_36
   10  A    between atoms: N_27  and  C_29
                            x       y       z     vdW  Elec       q    Type
                         _______ _______ _______ _____ _____    ______ ____

>  <TORSDO>
F 10

$$$$
=
 OpenBabel11042416463D

 37 41  0  0  1  0  0  0  0  0999 V2000
  189.9220  176.2140  145.7870 C   0  0  0  0  0  0  0  0  0  0  0  0
  190.8840  176.1670  144.7470 C   0  0  0  0  0  0  0  0  0  0  0  0
  193.9730  176.4370  146.7510 N   0  0  0  0  0  0  0  0  0  0  0  0
  191.6910  176.3720  147.4450 C   0  0  0  0  0  3  0  0  0  0  0  0
  190.3350  176.3080  147.1210 C   0  0  0  0  0  3  0  0  0  0  0  0
  194.6040  176.3020  144.4920 C   0  0  0  0  0  0  0  0  0  0  0  0
  195.6780  176.2850  143.4640 C   0  0  0  0  0  1  0  0  0  0  0  0
  193.2630  176.2170  144.1100 C   0  0  0  0  0  3  0  0  0  0  0  0
  192.2600  176.2420  145.0840 C   0  0  0  0  0  0  0  0  0  0  0  0
  194.9200  176.4170  145.8090 N   0  0  0  0  0  0  0  0  0  0  0  0
  192.6510  176.3460  146.4370 C   0  0  0  0  0  0  0  0  0  0  0  0
  191.2720  175.2230  142.3890 C   0  0  0  0  0  2  0  0  0  0  0  0
  189.8540  174.8150  142.7560 C   0  0  1  0  0  3  0  0  0  0  0  0
  190.4500  176.1110  143.2980 C   0  0  1  0  0  0  0  0  0  0  0  0
  190.0430  177.3040  142.6970 O   0  0  0  0  0  1  0  0  0  0  0  0
  188.9390  175.0570  141.5620 C   0  0  0  0  0  2  0  0  0  0  0  0
  187.5850  173.1340  142.0440 O   0  0  0  0  0  1  0  0  0  0  0  0
  188.3180  173.7620  141.0350 C   0  0  2  0  0  3  0  0  0  0  0  0
  189.3650  172.8020  140.4800 C   0  0  0  0  0  2  0  0  0  0  0  0
  188.7220  173.1940  138.1030 N   0  0  0  0  0  2  0  0  0  0  0  0
  189.6970  173.1340  139.1050 N   0  0  0  0  0  0  0  0  0  0  0  0
  190.9260  173.8160  137.2190 C   0  0  0  0  0  2  0  0  0  0  0  0
  188.8240  174.7300  136.2060 C   0  0  0  0  0  1  0  0  0  0  0  0
  192.0510  173.3540  139.3150 N   0  0  0  0  0  2  0  0  0  0  0  0
  190.9580  173.5690  138.6600 C   0  0  0  0  0  0  0  0  0  0  0  0
  189.4590  173.5240  136.8750 C   0  0  2  0  0  3  0  0  0  0  0  0
  188.4550  176.1880  145.5110 C   0  0  0  0  0  2  0  0  0  0  0  0
  187.8830  177.4970  145.7760 N   0  0  0  0  0  2  0  0  0  0  0  0
  185.9130  178.5960  146.6820 C   0  0  0  0  0  2  0  0  0  0  0  0
  186.5200  177.2740  146.2450 C   0  0  1  0  0  3  0  0  0  0  0  0
  185.4650  177.9730  145.3710 C   0  0  2  0  0  3  0  0  0  0  0  0
  186.0430  178.7440  144.1880 C   0  0  2  0  0  3  0  0  0  0  0  0
  185.4280  179.9930  144.0970 O   0  0  0  0  0  1  0  0  0  0  0  0
  184.1160  178.1420  142.1030 C   0  0  0  0  0  1  0  0  0  0  0  0
  185.9420  176.3620  142.9260 O   0  0  0  0  0  0  0  0  0  0  0  0
  186.7470  178.2800  141.6210 O   0  0  0  0  0  0  0  0  0  0  0  0
  185.7680  177.8360  142.6750 S   0  0  0  0  0  0  0  0  0  0  0  0
  1  5  1  0  0  0  0
  2  9  1  0  0  0  0
  2  1  2  0  0  0  0
  5  4  2  0  0  0  0
  6 10  1  0  0  0  0
  7  6  1  0  0  0  0
  8  6  2  0  0  0  0
  8  9  1  0  0  0  0
  9 11  2  0  0  0  0
 10  3  2  0  0  0  0
 11  3  1  0  0  0  0
 11  4  1  0  0  0  0
 12 13  1  0  0  0  0
 12 14  1  0  0  0  0
 13 16  1  6  0  0  0
 13 14  1  0  0  0  0
 14 15  1  6  0  0  0
 14  2  1  0  0  0  0
 18 16  1  0  0  0  0
 18 17  1  1  0  0  0
 19 18  1  0  0  0  0
 20 21  1  0  0  0  0
 21 19  1  0  0  0  0
 22 25  1  0  0  0  0
 25 21  1  0  0  0  0
 25 24  2  0  0  0  0
 26 23  1  1  0  0  0
 26 22  1  0  0  0  0
 26 20  1  0  0  0  0
 27 28  1  0  0  0  0
 27  1  1  0  0  0  0
 30 28  1  6  0  0  0
 30 29  1  0  0  0  0
 31 32  1  6  0  0  0
 31 30  1  0  0  0  0
 31 29  1  0  0  0  0
 32 33  1  6  0  0  0
 34 37  1  0  0  0  0
 36 37  2  0  0  0  0
 37 35  2  0  0  0  0
 37 32  1  0  0  0  0
M  END
>  <MODEL>
3

>  <REMARK>
 VINA RESULT:      -7.2      1.560      2.097
  Name = 
  10 active torsions:
  status: ('A' for Active; 'I' for Inactive)
    1  A    between atoms: C_2  and  S_30
    2  A    between atoms: C_2  and  C_33
    3  A    between atoms: C_3  and  C_11
    4  A    between atoms: C_5  and  C_22
    5  A    between atoms: N_6  and  C_13
    6  A    between atoms: C_11  and  N_27
    7  A    between atoms: C_12  and  C_15
    8  A    between atoms: C_13  and  C_36
    9  A    between atoms: C_15  and  C_36
   10  A    between atoms: N_27  and  C_29
                            x       y       z     vdW  Elec       q    Type
                         _______ _______ _______ _____ _____    ______ ____

>  <TORSDO>
F 10

$$$$
=
 OpenBabel11042416463D

 37 41  0  0  1  0  0  0  0  0999 V2000
  187.8400  176.7780  145.7220 C   0  0  0  0  0  0  0  0  0  0  0  0
  187.5050  176.8700  144.3480 C   0  0  0  0  0  0  0  0  0  0  0  0
  184.1990  178.4900  144.6260 N   0  0  0  0  0  0  0  0  0  0  0  0
  185.7520  177.8640  146.3260 C   0  0  0  0  0  3  0  0  0  0  0  0
  186.9650  177.2800  146.6920 C   0  0  0  0  0  3  0  0  0  0  0  0
  184.6290  178.1430  142.3420 C   0  0  0  0  0  0  0  0  0  0  0  0
  184.1870  178.2570  140.9270 C   0  0  0  0  0  1  0  0  0  0  0  0
  185.8620  177.5660  142.6490 C   0  0  0  0  0  3  0  0  0  0  0  0
  186.2660  177.4550  143.9840 C   0  0  0  0  0  0  0  0  0  0  0  0
  183.8260  178.5840  143.3470 N   0  0  0  0  0  0  0  0  0  0  0  0
  185.3960  177.9470  144.9820 C   0  0  0  0  0  0  0  0  0  0  0  0
  189.0300  174.9400  143.6070 C   0  0  0  0  0  2  0  0  0  0  0  0
  187.9690  175.0510  142.5230 C   0  0  1  0  0  3  0  0  0  0  0  0
  188.4210  176.2890  143.2920 C   0  0  1  0  0  0  0  0  0  0  0  0
  189.2970  177.1620  142.6450 O   0  0  0  0  0  1  0  0  0  0  0  0
  188.6370  174.9470  141.1570 C   0  0  0  0  0  2  0  0  0  0  0  0
  187.9040  172.6810  141.4670 O   0  0  0  0  0  1  0  0  0  0  0  0
  188.6400  173.5140  140.6220 C   0  0  2  0  0  3  0  0  0  0  0  0
  190.0520  172.9630  140.4510 C   0  0  0  0  0  2  0  0  0  0  0  0
  189.4990  171.6680  138.3930 N   0  0  0  0  0  2  0  0  0  0  0  0
  190.0390  171.7300  139.6830 N   0  0  0  0  0  0  0  0  0  0  0  0
  190.4580  169.5040  139.0470 C   0  0  0  0  0  2  0  0  0  0  0  0
  190.3480  170.1940  136.6400 C   0  0  0  0  0  1  0  0  0  0  0  0
  191.0090  170.2660  141.2800 N   0  0  0  0  0  2  0  0  0  0  0  0
  190.6780  170.5350  140.0610 C   0  0  0  0  0  0  0  0  0  0  0  0
  189.6490  170.2640  137.9860 C   0  0  2  0  0  3  0  0  0  0  0  0
  189.1030  176.1330  146.1890 C   0  0  0  0  0  2  0  0  0  0  0  0
  190.1570  177.1270  146.2810 N   0  0  0  0  0  2  0  0  0  0  0  0
  191.0670  175.3510  147.6700 C   0  0  0  0  0  2  0  0  0  0  0  0
  190.8910  176.8520  147.5110 C   0  0  1  0  0  3  0  0  0  0  0  0
  192.2590  176.1980  147.2590 C   0  0  2  0  0  3  0  0  0  0  0  0
  192.5850  175.9790  145.7840 C   0  0  2  0  0  3  0  0  0  0  0  0
  192.2840  174.6640  145.4270 O   0  0  0  0  0  1  0  0  0  0  0  0
  194.6670  176.0680  143.7630 C   0  0  0  0  0  1  0  0  0  0  0  0
  195.1530  175.3280  146.2920 O   0  0  0  0  0  0  0  0  0  0  0  0
  194.6660  177.7000  145.8870 O   0  0  0  0  0  0  0  0  0  0  0  0
  194.3200  176.2910  145.4900 S   0  0  0  0  0  0  0  0  0  0  0  0
  1 27  1  0  0  0  0
  1  5  1  0  0  0  0
  2  1  2  0  0  0  0
  3 11  1  0  0  0  0
  4  5  2  0  0  0  0
  6  8  2  0  0  0  0
  6 10  1  0  0  0  0
  7  6  1  0  0  0  0
  8  9  1  0  0  0  0
  9  2  1  0  0  0  0
  9 11  2  0  0  0  0
 10  3  2  0  0  0  0
 11  4  1  0  0  0  0
 13 16  1  6  0  0  0
 13 14  1  0  0  0  0
 13 12  1  0  0  0  0
 14 15  1  6  0  0  0
 14 12  1  0  0  0  0
 14  2  1  0  0  0  0
 18 16  1  0  0  0  0
 18 17  1  1  0  0  0
 19 18  1  0  0  0  0
 20 21  1  0  0  0  0
 21 25  1  0  0  0  0
 21 19  1  0  0  0  0
 22 25  1  0  0  0  0
 25 24  2  0  0  0  0
 26 23  1  6  0  0  0
 26 20  1  0  0  0  0
 26 22  1  0  0  0  0
 27 28  1  0  0  0  0
 30 28  1  6  0  0  0
 30 29  1  0  0  0  0
 31 32  1  6  0  0  0
 31 30  1  0  0  0  0
 31 29  1  0  0  0  0
 32 33  1  1  0  0  0
 34 37  1  0  0  0  0
 37 32  1  0  0  0  0
 37 36  2  0  0  0  0
 37 35  2  0  0  0  0
M  END
>  <MODEL>
4

>  <REMARK>
 VINA RESULT:      -7.2      2.811      6.207
  Name = 
  10 active torsions:
  status: ('A' for Active; 'I' for Inactive)
    1  A    between atoms: C_2  and  S_30
    2  A    between atoms: C_2  and  C_33
    3  A    between atoms: C_3  and  C_11
    4  A    between atoms: C_5  and  C_22
    5  A    between atoms: N_6  and  C_13
    6  A    between atoms: C_11  and  N_27
    7  A    between atoms: C_12  and  C_15
    8  A    between atoms: C_13  and  C_36
    9  A    between atoms: C_15  and  C_36
   10  A    between atoms: N_27  and  C_29
                            x       y       z     vdW  Elec       q    Type
                         _______ _______ _______ _____ _____    ______ ____

>  <TORSDO>
F 10

$$$$
=
 OpenBabel11042416463D

 37 41  0  0  1  0  0  0  0  0999 V2000
  188.2160  176.5920  142.8640 C   0  0  0  0  0  0  0  0  0  0  0  0
  187.9520  176.8490  144.2330 C   0  0  0  0  0  0  0  0  0  0  0  0
  184.5880  178.3430  143.9430 N   0  0  0  0  0  0  0  0  0  0  0  0
  186.0370  177.4780  142.2550 C   0  0  0  0  0  3  0  0  0  0  0  0
  187.2560  176.9030  141.8940 C   0  0  0  0  0  3  0  0  0  0  0  0
  185.1640  178.3310  146.2210 C   0  0  0  0  0  0  0  0  0  0  0  0
  184.8160  178.6570  147.6290 C   0  0  0  0  0  1  0  0  0  0  0  0
  186.3920  177.7380  145.9190 C   0  0  0  0  0  3  0  0  0  0  0  0
  186.7150  177.4430  144.5910 C   0  0  0  0  0  0  0  0  0  0  0  0
  184.2970  178.6240  145.2160 N   0  0  0  0  0  0  0  0  0  0  0  0
  185.7660  177.7550  143.5930 C   0  0  0  0  0  0  0  0  0  0  0  0
  188.5110  175.8710  146.5420 C   0  0  0  0  0  2  0  0  0  0  0  0
  189.3900  175.1110  145.5610 C   0  0  1  0  0  3  0  0  0  0  0  0
  189.0000  176.5600  145.2860 C   0  0  1  0  0  0  0  0  0  0  0  0
  189.9640  177.5400  145.5250 O   0  0  0  0  0  1  0  0  0  0  0  0
  190.7960  174.9930  146.1380 C   0  0  0  0  0  2  0  0  0  0  0  0
  191.2270  172.9900  144.8850 O   0  0  0  0  0  1  0  0  0  0  0  0
  191.7460  174.2480  145.1990 C   0  0  2  0  0  3  0  0  0  0  0  0
  193.1450  174.1000  145.7890 C   0  0  0  0  0  2  0  0  0  0  0  0
  194.7110  174.5180  143.8930 N   0  0  0  0  0  2  0  0  0  0  0  0
  194.0980  174.9370  145.0800 N   0  0  0  0  0  0  0  0  0  0  0  0
  195.3940  176.8030  144.4720 C   0  0  0  0  0  2  0  0  0  0  0  0
  195.3410  176.0370  142.0860 C   0  0  0  0  0  1  0  0  0  0  0  0
  194.1690  176.7890  146.5610 N   0  0  0  0  0  2  0  0  0  0  0  0
  194.3950  176.2740  145.4000 C   0  0  0  0  0  0  0  0  0  0  0  0
  195.6110  175.6180  143.5210 C   0  0  2  0  0  3  0  0  0  0  0  0
  189.5130  176.0140  142.4010 C   0  0  0  0  0  2  0  0  0  0  0  0
  189.2610  174.9260  141.4730 N   0  0  0  0  0  2  0  0  0  0  0  0
  187.7900  173.0660  142.0100 C   0  0  0  0  0  2  0  0  0  0  0  0
  189.1410  173.7100  142.2710 C   0  0  1  0  0  3  0  0  0  0  0  0
  189.0380  172.4390  141.4120 C   0  0  2  0  0  3  0  0  0  0  0  0
  189.0950  172.6930  139.9090 C   0  0  2  0  0  3  0  0  0  0  0  0
  187.8410  172.4560  139.3450 O   0  0  0  0  0  1  0  0  0  0  0  0
  190.8580  170.4290  140.3540 C   0  0  0  0  0  1  0  0  0  0  0  0
  191.4730  172.4160  138.6650 O   0  0  0  0  0  0  0  0  0  0  0  0
  189.6790  170.8810  137.9910 O   0  0  0  0  0  0  0  0  0  0  0  0
  190.2990  171.6100  139.1520 S   0  0  0  0  0  0  0  0  0  0  0  0
  1  2  1  0  0  0  0
  2  9  2  0  0  0  0
  2 14  1  0  0  0  0
  3 10  2  0  0  0  0
  4 11  2  0  0  0  0
  5  4  1  0  0  0  0
  5  1  2  0  0  0  0
  6  7  1  0  0  0  0
  8  6  2  0  0  0  0
  9  8  1  0  0  0  0
 10  6  1  0  0  0  0
 11  3  1  0  0  0  0
 11  9  1  0  0  0  0
 13 16  1  1  0  0  0
 13 12  1  0  0  0  0
 14 15  1  1  0  0  0
 14 13  1  0  0  0  0
 14 12  1  0  0  0  0
 18 17  1  1  0  0  0
 18 19  1  0  0  0  0
 18 16  1  0  0  0  0
 20 21  1  0  0  0  0
 21 25  1  0  0  0  0
 21 19  1  0  0  0  0
 22 25  1  0  0  0  0
 25 24  2  0  0  0  0
 26 23  1  6  0  0  0
 26 20  1  0  0  0  0
 26 22  1  0  0  0  0
 27  1  1  0  0  0  0
 28 27  1  0  0  0  0
 29 30  1  0  0  0  0
 30 28  1  6  0  0  0
 31 32  1  6  0  0  0
 31 29  1  0  0  0  0
 31 30  1  0  0  0  0
 32 33  1  6  0  0  0
 35 37  2  0  0  0  0
 36 37  2  0  0  0  0
 37 32  1  0  0  0  0
 37 34  1  0  0  0  0
M  END
>  <MODEL>
5

>  <REMARK>
 VINA RESULT:      -7.1      2.746      7.261
  Name = 
  10 active torsions:
  status: ('A' for Active; 'I' for Inactive)
    1  A    between atoms: C_2  and  S_30
    2  A    between atoms: C_2  and  C_33
    3  A    between atoms: C_3  and  C_11
    4  A    between atoms: C_5  and  C_22
    5  A    between atoms: N_6  and  C_13
    6  A    between atoms: C_11  and  N_27
    7  A    between atoms: C_12  and  C_15
    8  A    between atoms: C_13  and  C_36
    9  A    between atoms: C_15  and  C_36
   10  A    between atoms: N_27  and  C_29
                            x       y       z     vdW  Elec       q    Type
                         _______ _______ _______ _____ _____    ______ ____

>  <TORSDO>
F 10

$$$$
=
 OpenBabel11042416463D

 37 41  0  0  1  0  0  0  0  0999 V2000
  187.7100  176.7730  145.3230 C   0  0  0  0  0  0  0  0  0  0  0  0
  187.1270  176.7710  144.0310 C   0  0  0  0  0  0  0  0  0  0  0  0
  184.1910  178.9140  144.6730 N   0  0  0  0  0  0  0  0  0  0  0  0
  185.9480  178.2350  146.1380 C   0  0  0  0  0  3  0  0  0  0  0  0
  187.1190  177.5090  146.3570 C   0  0  0  0  0  3  0  0  0  0  0  0
  184.1120  178.2620  142.4170 C   0  0  0  0  0  0  0  0  0  0  0  0
  183.4210  178.2940  141.1010 C   0  0  0  0  0  1  0  0  0  0  0  0
  185.2920  177.5330  142.5740 C   0  0  0  0  0  3  0  0  0  0  0  0
  185.9310  177.5030  143.8180 C   0  0  0  0  0  0  0  0  0  0  0  0
  183.5900  178.9300  143.4800 N   0  0  0  0  0  0  0  0  0  0  0  0
  185.3500  178.2300  144.8800 C   0  0  0  0  0  0  0  0  0  0  0  0
  187.9740  176.6640  141.6080 C   0  0  0  0  0  2  0  0  0  0  0  0
  189.1570  176.2410  142.4650 C   0  0  1  0  0  3  0  0  0  0  0  0
  187.7300  175.9430  142.9160 C   0  0  1  0  0  0  0  0  0  0  0  0
  187.2670  174.6360  142.7570 O   0  0  0  0  0  1  0  0  0  0  0  0
  189.8250  175.0270  141.8310 C   0  0  0  0  0  2  0  0  0  0  0  0
  191.8370  176.1430  142.5170 O   0  0  0  0  0  1  0  0  0  0  0  0
  191.2900  174.8870  142.2500 C   0  0  2  0  0  3  0  0  0  0  0  0
  192.1270  174.1680  141.1970 C   0  0  0  0  0  2  0  0  0  0  0  0
  194.2050  175.3860  140.5470 N   0  0  0  0  0  2  0  0  0  0  0  0
  193.5390  174.4650  141.3650 N   0  0  0  0  0  0  0  0  0  0  0  0
  195.7090  174.5020  142.2740 C   0  0  0  0  0  2  0  0  0  0  0  0
  196.0500  176.7920  141.3130 C   0  0  0  0  0  1  0  0  0  0  0  0
  194.0440  172.9670  143.1350 N   0  0  0  0  0  2  0  0  0  0  0  0
  194.3420  174.0020  142.4230 C   0  0  0  0  0  0  0  0  0  0  0  0
  195.5980  175.3730  141.0140 C   0  0  2  0  0  3  0  0  0  0  0  0
  188.9410  175.9900  145.6390 C   0  0  0  0  0  2  0  0  0  0  0  0
  190.0690  176.8900  145.7950 N   0  0  0  0  0  2  0  0  0  0  0  0
  190.5900  175.2920  147.5510 C   0  0  0  0  0  2  0  0  0  0  0  0
  190.5230  176.7620  147.1750 C   0  0  1  0  0  3  0  0  0  0  0  0
  191.8810  176.0500  147.2950 C   0  0  2  0  0  3  0  0  0  0  0  0
  192.4880  175.6330  145.9590 C   0  0  2  0  0  3  0  0  0  0  0  0
  192.4940  174.2410  145.8600 O   0  0  0  0  0  1  0  0  0  0  0  0
  195.2940  174.8950  146.0730 C   0  0  0  0  0  1  0  0  0  0  0  0
  194.4050  177.2880  146.8880 O   0  0  0  0  0  0  0  0  0  0  0  0
  194.3920  176.8450  144.4730 O   0  0  0  0  0  0  0  0  0  0  0  0
  194.1630  176.2430  145.8330 S   0  0  0  0  0  0  0  0  0  0  0  0
  1 27  1  0  0  0  0
  1  5  1  0  0  0  0
  2  1  2  0  0  0  0
  3 11  1  0  0  0  0
  4  5  2  0  0  0  0
  6  8  2  0  0  0  0
  6 10  1  0  0  0  0
  7  6  1  0  0  0  0
  8  9  1  0  0  0  0
  9  2  1  0  0  0  0
  9 11  2  0  0  0  0
 10  3  2  0  0  0  0
 11  4  1  0  0  0  0
 12 13  1  0  0  0  0
 12 14  1  0  0  0  0
 13 16  1  6  0  0  0
 13 14  1  0  0  0  0
 14 15  1  6  0  0  0
 14  2  1  0  0  0  0
 16 18  1  0  0  0  0
 18 17  1  6  0  0  0
 19 21  1  0  0  0  0
 19 18  1  0  0  0  0
 20 26  1  0  0  0  0
 20 21  1  0  0  0  0
 21 25  1  0  0  0  0
 22 25  1  0  0  0  0
 25 24  2  0  0  0  0
 26 23  1  1  0  0  0
 26 22  1  0  0  0  0
 27 28  1  0  0  0  0
 30 28  1  6  0  0  0
 30 31  1  0  0  0  0
 30 29  1  0  0  0  0
 31 32  1  6  0  0  0
 31 29  1  0  0  0  0
 32 33  1  1  0  0  0
 36 37  2  0  0  0  0
 37 32  1  0  0  0  0
 37 34  1  0  0  0  0
 37 35  2  0  0  0  0
M  END
>  <MODEL>
6

>  <REMARK>
 VINA RESULT:      -7.1      3.146      6.849
  Name = 
  10 active torsions:
  status: ('A' for Active; 'I' for Inactive)
    1  A    between atoms: C_2  and  S_30
    2  A    between atoms: C_2  and  C_33
    3  A    between atoms: C_3  and  C_11
    4  A    between atoms: C_5  and  C_22
    5  A    between atoms: N_6  and  C_13
    6  A    between atoms: C_11  and  N_27
    7  A    between atoms: C_12  and  C_15
    8  A    between atoms: C_13  and  C_36
    9  A    between atoms: C_15  and  C_36
   10  A    between atoms: N_27  and  C_29
                            x       y       z     vdW  Elec       q    Type
                         _______ _______ _______ _____ _____    ______ ____

>  <TORSDO>
F 10

$$$$
=
 OpenBabel11042416463D

 37 41  0  0  1  0  0  0  0  0999 V2000
  187.6650  176.6940  145.3960 C   0  0  0  0  0  0  0  0  0  0  0  0
  187.1200  176.7400  144.0890 C   0  0  0  0  0  0  0  0  0  0  0  0
  184.1000  178.7580  144.7510 N   0  0  0  0  0  0  0  0  0  0  0  0
  185.8350  178.0580  146.2310 C   0  0  0  0  0  3  0  0  0  0  0  0
  187.0230  177.3580  146.4480 C   0  0  0  0  0  3  0  0  0  0  0  0
  184.1050  178.2210  142.4640 C   0  0  0  0  0  0  0  0  0  0  0  0
  183.4500  178.2990  141.1310 C   0  0  0  0  0  1  0  0  0  0  0  0
  185.3030  177.5210  142.6190 C   0  0  0  0  0  3  0  0  0  0  0  0
  185.9070  177.4460  143.8780 C   0  0  0  0  0  0  0  0  0  0  0  0
  183.5320  178.8170  143.5440 N   0  0  0  0  0  0  0  0  0  0  0  0
  185.2740  178.0990  144.9580 C   0  0  0  0  0  0  0  0  0  0  0  0
  188.1470  176.8110  141.7350 C   0  0  0  0  0  2  0  0  0  0  0  0
  189.2460  176.2700  142.6360 C   0  0  1  0  0  3  0  0  0  0  0  0
  187.7800  175.9900  142.9520 C   0  0  1  0  0  0  0  0  0  0  0  0
  187.2890  174.7200  142.6430 O   0  0  0  0  0  1  0  0  0  0  0  0
  189.9220  175.0910  141.9470 C   0  0  0  0  0  2  0  0  0  0  0  0
  192.1100  175.9770  142.3860 O   0  0  0  0  0  1  0  0  0  0  0  0
  191.3260  174.8270  142.4950 C   0  0  2  0  0  3  0  0  0  0  0  0
  192.0120  173.6610  141.7910 C   0  0  0  0  0  2  0  0  0  0  0  0
  192.0330  171.7570  143.4020 N   0  0  0  0  0  2  0  0  0  0  0  0
  192.6920  172.8050  142.7470 N   0  0  0  0  0  0  0  0  0  0  0  0
  194.4070  171.8240  144.0240 C   0  0  0  0  0  2  0  0  0  0  0  0
  193.1240  169.6710  144.0550 C   0  0  0  0  0  1  0  0  0  0  0  0
  194.8310  173.8330  142.7390 N   0  0  0  0  0  2  0  0  0  0  0  0
  194.0740  172.8230  143.0090 C   0  0  0  0  0  0  0  0  0  0  0  0
  193.0450  171.1690  144.2910 C   0  0  2  0  0  3  0  0  0  0  0  0
  188.9120  175.9330  145.7090 C   0  0  0  0  0  2  0  0  0  0  0  0
  190.0330  176.8500  145.8130 N   0  0  0  0  0  2  0  0  0  0  0  0
  190.6720  175.3070  147.5800 C   0  0  0  0  0  2  0  0  0  0  0  0
  190.5200  176.7660  147.1850 C   0  0  1  0  0  3  0  0  0  0  0  0
  191.9160  176.1290  147.2870 C   0  0  2  0  0  3  0  0  0  0  0  0
  192.5190  175.7250  145.9450 C   0  0  2  0  0  3  0  0  0  0  0  0
  192.4790  174.3360  145.8120 O   0  0  0  0  0  1  0  0  0  0  0  0
  195.2980  174.9080  146.1420 C   0  0  0  0  0  1  0  0  0  0  0  0
  194.4620  177.3450  146.8810 O   0  0  0  0  0  0  0  0  0  0  0  0
  194.4910  176.8450  144.4770 O   0  0  0  0  0  0  0  0  0  0  0  0
  194.2130  176.2820  145.8450 S   0  0  0  0  0  0  0  0  0  0  0  0
  1 27  1  0  0  0  0
  1  5  1  0  0  0  0
  2  1  2  0  0  0  0
  3 11  1  0  0  0  0
  4  5  2  0  0  0  0
  6  8  2  0  0  0  0
  6 10  1  0  0  0  0
  7  6  1  0  0  0  0
  8  9  1  0  0  0  0
  9  2  1  0  0  0  0
  9 11  2  0  0  0  0
 10  3  2  0  0  0  0
 11  4  1  0  0  0  0
 12 13  1  0  0  0  0
 12 14  1  0  0  0  0
 13 16  1  6  0  0  0
 13 14  1  0  0  0  0
 14 15  1  6  0  0  0
 14  2  1  0  0  0  0
 16 18  1  0  0  0  0
 18 17  1  6  0  0  0
 19 18  1  0  0  0  0
 19 21  1  0  0  0  0
 20 26  1  0  0  0  0
 21 25  1  0  0  0  0
 21 20  1  0  0  0  0
 22 26  1  0  0  0  0
 24 25  2  0  0  0  0
 25 22  1  0  0  0  0
 26 23  1  6  0  0  0
 27 28  1  0  0  0  0
 30 28  1  6  0  0  0
 30 31  1  0  0  0  0
 30 29  1  0  0  0  0
 31 32  1  6  0  0  0
 31 29  1  0  0  0  0
 32 33  1  1  0  0  0
 36 37  2  0  0  0  0
 37 32  1  0  0  0  0
 37 34  1  0  0  0  0
 37 35  2  0  0  0  0
M  END
>  <MODEL>
7

>  <REMARK>
 VINA RESULT:      -7.1      3.074      6.670
  Name = 
  10 active torsions:
  status: ('A' for Active; 'I' for Inactive)
    1  A    between atoms: C_2  and  S_30
    2  A    between atoms: C_2  and  C_33
    3  A    between atoms: C_3  and  C_11
    4  A    between atoms: C_5  and  C_22
    5  A    between atoms: N_6  and  C_13
    6  A    between atoms: C_11  and  N_27
    7  A    between atoms: C_12  and  C_15
    8  A    between atoms: C_13  and  C_36
    9  A    between atoms: C_15  and  C_36
   10  A    between atoms: N_27  and  C_29
                            x       y       z     vdW  Elec       q    Type
                         _______ _______ _______ _____ _____    ______ ____

>  <TORSDO>
F 10

$$$$
=
 OpenBabel11042416463D

 37 41  0  0  1  0  0  0  0  0999 V2000
  188.8540  175.5590  143.5090 C   0  0  0  0  0  0  0  0  0  0  0  0
  188.5920  176.1530  144.7690 C   0  0  0  0  0  0  0  0  0  0  0  0
  185.1680  177.3940  144.1650 N   0  0  0  0  0  0  0  0  0  0  0  0
  186.6350  176.1740  142.7330 C   0  0  0  0  0  3  0  0  0  0  0  0
  187.8730  175.5700  142.5110 C   0  0  0  0  0  3  0  0  0  0  0  0
  185.7640  177.9970  146.3570 C   0  0  0  0  0  0  0  0  0  0  0  0
  185.4150  178.6650  147.6380 C   0  0  0  0  0  1  0  0  0  0  0  0
  187.0120  177.3930  146.1960 C   0  0  0  0  0  3  0  0  0  0  0  0
  187.3350  176.7730  144.9840 C   0  0  0  0  0  0  0  0  0  0  0  0
  184.8760  177.9860  145.3270 N   0  0  0  0  0  0  0  0  0  0  0  0
  186.3650  176.7790  143.9580 C   0  0  0  0  0  0  0  0  0  0  0  0
  189.3440  175.4460  147.1210 C   0  0  0  0  0  2  0  0  0  0  0  0
  190.4070  174.9010  146.1800 C   0  0  1  0  0  3  0  0  0  0  0  0
  189.6600  176.1880  145.8410 C   0  0  1  0  0  0  0  0  0  0  0  0
  190.3340  177.3930  146.0440 O   0  0  0  0  0  1  0  0  0  0  0  0
  191.7850  175.1750  146.7710 C   0  0  0  0  0  2  0  0  0  0  0  0
  193.0350  173.4860  145.6090 O   0  0  0  0  0  1  0  0  0  0  0  0
  192.9100  174.8660  145.7810 C   0  0  2  0  0  3  0  0  0  0  0  0
  194.2460  175.4570  146.2210 C   0  0  0  0  0  2  0  0  0  0  0  0
  195.2020  176.0620  143.9980 N   0  0  0  0  0  2  0  0  0  0  0  0
  195.2470  175.3100  145.1780 N   0  0  0  0  0  0  0  0  0  0  0  0
  197.1940  174.6280  144.0480 C   0  0  0  0  0  2  0  0  0  0  0  0
  197.1910  176.7900  142.7810 C   0  0  0  0  0  1  0  0  0  0  0  0
  196.5590  173.5810  146.1380 N   0  0  0  0  0  2  0  0  0  0  0  0
  196.4190  174.5400  145.2850 C   0  0  0  0  0  0  0  0  0  0  0  0
  196.3520  175.5990  143.2080 C   0  0  2  0  0  3  0  0  0  0  0  0
  190.1690  174.9280  143.1880 C   0  0  0  0  0  2  0  0  0  0  0  0
  190.2210  174.5940  141.7760 N   0  0  0  0  0  2  0  0  0  0  0  0
  189.5570  172.2600  141.9370 C   0  0  0  0  0  2  0  0  0  0  0  0
  190.7070  173.2210  141.6850 C   0  0  1  0  0  3  0  0  0  0  0  0
  190.0770  172.4380  140.5210 C   0  0  2  0  0  3  0  0  0  0  0  0
  189.0870  173.2470  139.6870 C   0  0  2  0  0  3  0  0  0  0  0  0
  187.8200  172.6670  139.7710 O   0  0  0  0  0  1  0  0  0  0  0  0
  191.3110  173.7880  137.9020 C   0  0  0  0  0  1  0  0  0  0  0  0
  188.7660  174.2570  137.2070 O   0  0  0  0  0  0  0  0  0  0  0  0
  189.4750  171.9120  137.3710 O   0  0  0  0  0  0  0  0  0  0  0  0
  189.6120  173.2810  137.9800 S   0  0  0  0  0  0  0  0  0  0  0  0
  1  2  1  0  0  0  0
  2  9  2  0  0  0  0
  2 14  1  0  0  0  0
  3 10  2  0  0  0  0
  4 11  2  0  0  0  0
  5  4  1  0  0  0  0
  5  1  2  0  0  0  0
  6  7  1  0  0  0  0
  8  6  2  0  0  0  0
  9  8  1  0  0  0  0
 10  6  1  0  0  0  0
 11  3  1  0  0  0  0
 11  9  1  0  0  0  0
 13 16  1  1  0  0  0
 13 12  1  0  0  0  0
 14 15  1  1  0  0  0
 14 13  1  0  0  0  0
 14 12  1  0  0  0  0
 18 17  1  1  0  0  0
 18 19  1  0  0  0  0
 18 16  1  0  0  0  0
 20 21  1  0  0  0  0
 21 25  1  0  0  0  0
 21 19  1  0  0  0  0
 22 25  1  0  0  0  0
 25 24  2  0  0  0  0
 26 23  1  1  0  0  0
 26 20  1  0  0  0  0
 26 22  1  0  0  0  0
 27  1  1  0  0  0  0
 28 27  1  0  0  0  0
 30 28  1  6  0  0  0
 30 29  1  0  0  0  0
 31 32  1  6  0  0  0
 31 30  1  0  0  0  0
 31 29  1  0  0  0  0
 32 33  1  6  0  0  0
 34 37  1  0  0  0  0
 35 37  2  0  0  0  0
 36 37  2  0  0  0  0
 37 32  1  0  0  0  0
M  END
>  <MODEL>
8

>  <REMARK>
 VINA RESULT:      -7.0      2.818      7.299
  Name = 
  10 active torsions:
  status: ('A' for Active; 'I' for Inactive)
    1  A    between atoms: C_2  and  S_30
    2  A    between atoms: C_2  and  C_33
    3  A    between atoms: C_3  and  C_11
    4  A    between atoms: C_5  and  C_22
    5  A    between atoms: N_6  and  C_13
    6  A    between atoms: C_11  and  N_27
    7  A    between atoms: C_12  and  C_15
    8  A    between atoms: C_13  and  C_36
    9  A    between atoms: C_15  and  C_36
   10  A    between atoms: N_27  and  C_29
                            x       y       z     vdW  Elec       q    Type
                         _______ _______ _______ _____ _____    ______ ____

>  <TORSDO>
F 10

$$$$
=
 OpenBabel11042416463D

 37 41  0  0  1  0  0  0  0  0999 V2000
  192.9520  176.3310  143.0350 C   0  0  0  0  0  0  0  0  0  0  0  0
  193.4230  175.6810  144.2030 C   0  0  0  0  0  0  0  0  0  0  0  0
  196.8960  174.9840  143.1610 N   0  0  0  0  0  0  0  0  0  0  0  0
  195.1360  176.0970  141.9970 C   0  0  0  0  0  3  0  0  0  0  0  0
  193.8130  176.5380  141.9510 C   0  0  0  0  0  3  0  0  0  0  0  0
  196.6220  174.1290  145.3330 C   0  0  0  0  0  0  0  0  0  0  0  0
  197.1910  173.4160  146.5070 C   0  0  0  0  0  1  0  0  0  0  0  0
  195.2950  174.5640  145.3500 C   0  0  0  0  0  3  0  0  0  0  0  0
  194.7660  175.2270  144.2380 C   0  0  0  0  0  0  0  0  0  0  0  0
  197.3860  174.3480  144.2290 N   0  0  0  0  0  0  0  0  0  0  0  0
  195.6130  175.4400  143.1280 C   0  0  0  0  0  0  0  0  0  0  0  0
  192.9510  175.9030  146.7180 C   0  0  0  0  0  2  0  0  0  0  0  0
  191.7800  176.5860  146.0290 C   0  0  1  0  0  3  0  0  0  0  0  0
  192.4900  175.4100  145.3630 C   0  0  1  0  0  0  0  0  0  0  0  0
  191.8530  174.1690  145.4060 O   0  0  0  0  0  1  0  0  0  0  0  0
  190.4840  176.1640  146.7100 C   0  0  0  0  0  2  0  0  0  0  0  0
  189.4640  178.1230  147.6530 O   0  0  0  0  0  1  0  0  0  0  0  0
  189.3910  177.2280  146.5840 C   0  0  2  0  0  3  0  0  0  0  0  0
  187.9950  176.6180  146.5120 C   0  0  0  0  0  2  0  0  0  0  0  0
  186.9780  178.1580  144.8350 N   0  0  0  0  0  2  0  0  0  0  0  0
  187.0120  177.6150  146.1250 N   0  0  0  0  0  0  0  0  0  0  0  0
  185.1430  179.0410  146.2060 C   0  0  0  0  0  2  0  0  0  0  0  0
  184.9220  178.8590  143.7160 C   0  0  0  0  0  1  0  0  0  0  0  0
  185.8860  177.8790  148.1970 N   0  0  0  0  0  2  0  0  0  0  0  0
  185.9250  178.0290  146.9160 C   0  0  0  0  0  0  0  0  0  0  0  0
  185.8790  179.1340  144.8620 C   0  0  2  0  0  3  0  0  0  0  0  0
  191.5380  176.7950  142.9010 C   0  0  0  0  0  2  0  0  0  0  0  0
  190.6960  175.6880  142.4880 N   0  0  0  0  0  2  0  0  0  0  0  0
  188.6000  176.9050  142.2950 C   0  0  0  0  0  2  0  0  0  0  0  0
  189.3920  175.8950  143.1090 C   0  0  1  0  0  3  0  0  0  0  0  0
  188.2250  175.4350  142.2190 C   0  0  2  0  0  3  0  0  0  0  0  0
  188.6550  174.8440  140.8800 C   0  0  2  0  0  3  0  0  0  0  0  0
  187.8270  175.3270  139.8660 O   0  0  0  0  0  1  0  0  0  0  0  0
  188.1920  172.4480  139.3070 C   0  0  0  0  0  1  0  0  0  0  0  0
  187.4410  172.6490  141.8710 O   0  0  0  0  0  0  0  0  0  0  0  0
  189.8470  172.4780  141.4130 O   0  0  0  0  0  0  0  0  0  0  0  0
  188.5450  173.0610  140.9360 S   0  0  0  0  0  0  0  0  0  0  0  0
  1  2  1  0  0  0  0
  2  9  2  0  0  0  0
  2 14  1  0  0  0  0
  3 10  2  0  0  0  0
  4 11  2  0  0  0  0
  5  4  1  0  0  0  0
  5  1  2  0  0  0  0
  6  8  2  0  0  0  0
  6  7  1  0  0  0  0
  9  8  1  0  0  0  0
 10  6  1  0  0  0  0
 11  3  1  0  0  0  0
 11  9  1  0  0  0  0
 13 16  1  1  0  0  0
 13 12  1  0  0  0  0
 14 15  1  6  0  0  0
 14 13  1  0  0  0  0
 14 12  1  0  0  0  0
 18 16  1  0  0  0  0
 18 17  1  1  0  0  0
 19 18  1  0  0  0  0
 20 26  1  0  0  0  0
 20 21  1  0  0  0  0
 21 19  1  0  0  0  0
 21 25  1  0  0  0  0
 22 25  1  0  0  0  0
 25 24  2  0  0  0  0
 26 23  1  6  0  0  0
 26 22  1  0  0  0  0
 27  1  1  0  0  0  0
 28 27  1  0  0  0  0
 29 30  1  0  0  0  0
 30 28  1  6  0  0  0
 31 32  1  6  0  0  0
 31 29  1  0  0  0  0
 31 30  1  0  0  0  0
 32 33  1  6  0  0  0
 32 37  1  0  0  0  0
 34 37  1  0  0  0  0
 37 36  2  0  0  0  0
 37 35  2  0  0  0  0
M  END
>  <MODEL>
9

>  <REMARK>
 VINA RESULT:      -6.9      2.877      6.425
  Name = 
  10 active torsions:
  status: ('A' for Active; 'I' for Inactive)
    1  A    between atoms: C_2  and  S_30
    2  A    between atoms: C_2  and  C_33
    3  A    between atoms: C_3  and  C_11
    4  A    between atoms: C_5  and  C_22
    5  A    between atoms: N_6  and  C_13
    6  A    between atoms: C_11  and  N_27
    7  A    between atoms: C_12  and  C_15
    8  A    between atoms: C_13  and  C_36
    9  A    between atoms: C_15  and  C_36
   10  A    between atoms: N_27  and  C_29
                            x       y       z     vdW  Elec       q    Type
                         _______ _______ _______ _____ _____    ______ ____

>  <TORSDO>
F 10

$$$$
