=
 OpenBabel11042418543D

 27 29  0  0  1  0  0  0  0  0999 V2000
  188.6250  177.0080  143.9190 C   0  0  0  0  0  0  0  0  0  0  0  0
  187.7950  177.5350  144.8600 N   0  0  0  0  0  0  0  0  0  0  0  0
  184.4380  178.9760  145.2270 C   0  0  0  0  0  3  0  0  0  0  0  0
  186.0770  177.9000  143.2220 C   0  0  0  0  0  0  0  0  0  0  0  0
  183.9740  178.8950  143.9130 C   0  0  0  0  0  3  0  0  0  0  0  0
  186.5450  177.9810  144.5560 C   0  0  0  0  0  0  0  0  0  0  0  0
  184.7830  178.3600  142.9060 C   0  0  0  0  0  0  0  0  0  0  0  0
  188.2010  176.9120  142.5920 C   0  0  0  0  0  3  0  0  0  0  0  0
  186.9250  177.3580  142.2470 C   0  0  0  0  0  3  0  0  0  0  0  0
  185.7180  178.5240  145.5550 C   0  0  0  0  0  0  0  0  0  0  0  0
  183.8390  178.2460  140.4870 N   0  0  0  0  0  0  0  0  0  0  0  0
  184.2600  178.2970  141.5640 C   0  0  0  0  0  0  0  0  0  0  0  0
  186.5260  178.7120  148.0170 N   0  0  0  0  0  0  0  0  0  0  0  0
  186.1650  178.6270  146.9210 C   0  0  0  0  0  0  0  0  0  0  0  0
  189.9980  176.5350  144.2880 C   0  0  2  0  0  3  0  0  0  0  0  0
  190.0830  176.0680  145.7090 C   0  0  0  0  0  0  0  0  0  0  0  0
  190.5950  175.9290  147.7510 N   0  0  0  0  0  0  0  0  0  0  0  0
  190.7660  176.6920  146.6850 N   0  0  0  0  0  0  0  0  0  0  0  0
  189.8460  174.8830  147.4390 N   0  0  0  0  0  0  0  0  0  0  0  0
  189.5090  174.9400  146.1610 N   0  0  0  0  0  2  0  0  0  0  0  0
  191.0920  177.5450  143.9360 C   0  0  0  0  0  2  0  0  0  0  0  0
  192.1310  176.9410  143.1100 N   0  0  0  0  0  0  0  0  0  0  0  0
  191.5510  175.8890  142.4840 O   0  0  0  0  0  1  0  0  0  0  0  0
  193.1630  176.4040  143.9970 C   0  0  2  0  0  3  0  0  0  0  0  0
  193.5070  177.3320  144.9680 F   0  0  0  0  0  0  0  0  0  0  0  0
  194.4110  176.0230  143.2060 C   0  0  0  0  0  2  0  0  0  0  0  0
  195.6110  176.4380  143.9170 N   0  0  0  0  0  1  0  0  0  0  0  0
  1 15  1  0  0  0  0
  1  2  1  0  0  0  0
  3 10  2  0  0  0  0
  4  6  1  0  0  0  0
  5  3  1  0  0  0  0
  6  2  2  0  0  0  0
  6 10  1  0  0  0  0
  7  4  1  0  0  0  0
  7  5  2  0  0  0  0
  8  1  2  0  0  0  0
  9  8  1  0  0  0  0
  9  4  2  0  0  0  0
 10 14  1  0  0  0  0
 11 12  3  0  0  0  0
 12  7  1  0  0  0  0
 14 13  3  0  0  0  0
 15 21  1  1  0  0  0
 15 16  1  0  0  0  0
 16 20  1  0  0  0  0
 16 18  2  0  0  0  0
 18 17  1  0  0  0  0
 19 17  2  0  0  0  0
 20 19  1  0  0  0  0
 22 21  1  0  0  0  0
 22 24  1  0  0  0  0
 23 22  1  0  0  0  0
 24 25  1  1  0  0  0
 26 27  1  0  0  0  0
 26 24  1  0  0  0  0
M  END
>  <MODEL>
1

>  <REMARK>
 VINA RESULT:      -6.4      0.000      0.000
  Name = 
  8 active torsions:
  status: ('A' for Active; 'I' for Inactive)
    1  A    between atoms: C_1  and  C_10
    2  A    between atoms: C_7  and  C_10
    3  A    between atoms: C_10  and  C_21
    4  A    between atoms: C_11  and  C_15
    5  A    between atoms: N_12  and  C_15
    6  A    between atoms: N_12  and  C_21
    7  A    between atoms: C_18  and  C_26
    8  A    between atoms: C_19  and  C_27
                            x       y       z     vdW  Elec       q    Type
                         _______ _______ _______ _____ _____    ______ ____

>  <TORSDO>
F 8

$$$$
=
 OpenBabel11042418543D

 27 29  0  0  1  0  0  0  0  0999 V2000
  188.3420  176.5450  144.8510 C   0  0  0  0  0  0  0  0  0  0  0  0
  189.4630  175.8060  144.6280 N   0  0  0  0  0  0  0  0  0  0  0  0
  192.7430  175.0690  146.1040 C   0  0  0  0  0  3  0  0  0  0  0  0
  190.4720  176.6220  146.6490 C   0  0  0  0  0  0  0  0  0  0  0  0
  192.6940  175.8580  147.2540 C   0  0  0  0  0  3  0  0  0  0  0  0
  190.5220  175.8190  145.4830 C   0  0  0  0  0  0  0  0  0  0  0  0
  191.5670  176.6360  147.5360 C   0  0  0  0  0  0  0  0  0  0  0  0
  188.2550  177.3510  145.9890 C   0  0  0  0  0  3  0  0  0  0  0  0
  189.3210  177.3860  146.8860 C   0  0  0  0  0  3  0  0  0  0  0  0
  191.6650  175.0440  145.2160 C   0  0  0  0  0  0  0  0  0  0  0  0
  191.5620  178.0750  149.7000 N   0  0  0  0  0  0  0  0  0  0  0  0
  191.5640  177.4340  148.7360 C   0  0  0  0  0  0  0  0  0  0  0  0
  191.8220  173.5590  143.0900 N   0  0  0  0  0  0  0  0  0  0  0  0
  191.7510  174.2220  144.0360 C   0  0  0  0  0  0  0  0  0  0  0  0
  187.1980  176.5130  143.8840 C   0  0  2  0  0  3  0  0  0  0  0  0
  187.5670  175.8770  142.5790 C   0  0  0  0  0  0  0  0  0  0  0  0
  188.1570  174.4620  141.1290 N   0  0  0  0  0  0  0  0  0  0  0  0
  187.8690  174.5760  142.4140 N   0  0  0  0  0  0  0  0  0  0  0  0
  188.0410  175.6400  140.5360 N   0  0  0  0  0  0  0  0  0  0  0  0
  187.6740  176.5520  141.4220 N   0  0  0  0  0  2  0  0  0  0  0  0
  186.5310  177.8770  143.7030 C   0  0  0  0  0  2  0  0  0  0  0  0
  185.1160  177.8300  144.0530 N   0  0  0  0  0  0  0  0  0  0  0  0
  184.4350  177.9740  142.8900 O   0  0  0  0  0  1  0  0  0  0  0  0
  184.8110  178.9950  144.8830 C   0  0  2  0  0  3  0  0  0  0  0  0
  185.9380  179.7860  145.0490 F   0  0  0  0  0  0  0  0  0  0  0  0
  184.2980  178.5640  146.2540 C   0  0  0  0  0  2  0  0  0  0  0  0
  184.6400  177.1730  146.5120 N   0  0  0  0  0  1  0  0  0  0  0  0
  1  8  1  0  0  0  0
  2  1  2  0  0  0  0
  2  6  1  0  0  0  0
  3  5  1  0  0  0  0
  4  9  1  0  0  0  0
  4  7  1  0  0  0  0
  5  7  2  0  0  0  0
  6  4  2  0  0  0  0
  7 12  1  0  0  0  0
  8  9  2  0  0  0  0
 10  6  1  0  0  0  0
 10  3  2  0  0  0  0
 12 11  3  0  0  0  0
 13 14  3  0  0  0  0
 14 10  1  0  0  0  0
 15 21  1  6  0  0  0
 15  1  1  0  0  0  0
 16 15  1  0  0  0  0
 17 18  1  0  0  0  0
 18 16  2  0  0  0  0
 19 17  2  0  0  0  0
 19 20  1  0  0  0  0
 20 16  1  0  0  0  0
 21 22  1  0  0  0  0
 22 24  1  0  0  0  0
 23 22  1  0  0  0  0
 24 25  1  1  0  0  0
 24 26  1  0  0  0  0
 26 27  1  0  0  0  0
M  END
>  <MODEL>
2

>  <REMARK>
 VINA RESULT:      -6.4      3.300      7.423
  Name = 
  8 active torsions:
  status: ('A' for Active; 'I' for Inactive)
    1  A    between atoms: C_1  and  C_10
    2  A    between atoms: C_7  and  C_10
    3  A    between atoms: C_10  and  C_21
    4  A    between atoms: C_11  and  C_15
    5  A    between atoms: N_12  and  C_15
    6  A    between atoms: N_12  and  C_21
    7  A    between atoms: C_18  and  C_26
    8  A    between atoms: C_19  and  C_27
                            x       y       z     vdW  Elec       q    Type
                         _______ _______ _______ _____ _____    ______ ____

>  <TORSDO>
F 8

$$$$
=
 OpenBabel11042418543D

 27 29  0  0  1  0  0  0  0  0999 V2000
  188.3660  176.8600  144.3190 C   0  0  0  0  0  0  0  0  0  0  0  0
  188.7140  175.5860  143.9870 N   0  0  0  0  0  0  0  0  0  0  0  0
  191.4680  173.1860  144.3540 C   0  0  0  0  0  3  0  0  0  0  0  0
  190.8360  175.8180  145.0880 C   0  0  0  0  0  0  0  0  0  0  0  0
  192.3800  173.9460  145.0890 C   0  0  0  0  0  3  0  0  0  0  0  0
  189.9110  175.0450  144.3450 C   0  0  0  0  0  0  0  0  0  0  0  0
  192.0750  175.2590  145.4600 C   0  0  0  0  0  0  0  0  0  0  0  0
  189.2520  177.6540  145.0490 C   0  0  0  0  0  3  0  0  0  0  0  0
  190.4850  177.1300  145.4340 C   0  0  0  0  0  3  0  0  0  0  0  0
  190.2360  173.7260  143.9790 C   0  0  0  0  0  0  0  0  0  0  0  0
  193.8310  176.6020  146.8260 N   0  0  0  0  0  0  0  0  0  0  0  0
  193.0480  176.0040  146.2180 C   0  0  0  0  0  0  0  0  0  0  0  0
  188.5880  172.2600  142.6070 N   0  0  0  0  0  0  0  0  0  0  0  0
  189.3210  172.9140  143.2180 C   0  0  0  0  0  0  0  0  0  0  0  0
  187.0430  177.4250  143.9010 C   0  0  2  0  0  3  0  0  0  0  0  0
  186.1690  177.7680  145.0670 C   0  0  0  0  0  0  0  0  0  0  0  0
  184.9040  177.6010  146.7480 N   0  0  0  0  0  0  0  0  0  0  0  0
  185.6050  176.8720  145.8970 N   0  0  0  0  0  0  0  0  0  0  0  0
  185.0300  178.8850  146.4480 N   0  0  0  0  0  0  0  0  0  0  0  0
  185.8170  179.0230  145.3950 N   0  0  0  0  0  2  0  0  0  0  0  0
  186.3250  176.5570  142.8640 C   0  0  0  0  0  2  0  0  0  0  0  0
  186.1350  177.2740  141.6080 N   0  0  0  0  0  0  0  0  0  0  0  0
  187.2030  178.0970  141.4790 O   0  0  0  0  0  1  0  0  0  0  0  0
  184.9480  178.1180  141.7390 C   0  0  2  0  0  3  0  0  0  0  0  0
  184.0730  177.5900  142.6770 F   0  0  0  0  0  0  0  0  0  0  0  0
  184.2260  178.2490  140.4010 C   0  0  0  0  0  2  0  0  0  0  0  0
  182.7850  178.2850  140.6000 N   0  0  0  0  0  1  0  0  0  0  0  0
  1  8  1  0  0  0  0
  2  1  2  0  0  0  0
  2  6  1  0  0  0  0
  3  5  1  0  0  0  0
  4  9  1  0  0  0  0
  4  7  1  0  0  0  0
  5  7  2  0  0  0  0
  6  4  2  0  0  0  0
  7 12  1  0  0  0  0
  8  9  2  0  0  0  0
 10  6  1  0  0  0  0
 10  3  2  0  0  0  0
 12 11  3  0  0  0  0
 13 14  3  0  0  0  0
 14 10  1  0  0  0  0
 15 21  1  6  0  0  0
 15  1  1  0  0  0  0
 15 16  1  0  0  0  0
 16 20  1  0  0  0  0
 16 18  2  0  0  0  0
 18 17  1  0  0  0  0
 19 17  2  0  0  0  0
 20 19  1  0  0  0  0
 22 24  1  0  0  0  0
 22 21  1  0  0  0  0
 23 22  1  0  0  0  0
 24 25  1  1  0  0  0
 26 27  1  0  0  0  0
 26 24  1  0  0  0  0
M  END
>  <MODEL>
3

>  <REMARK>
 VINA RESULT:      -6.4      3.044      7.395
  Name = 
  8 active torsions:
  status: ('A' for Active; 'I' for Inactive)
    1  A    between atoms: C_1  and  C_10
    2  A    between atoms: C_7  and  C_10
    3  A    between atoms: C_10  and  C_21
    4  A    between atoms: C_11  and  C_15
    5  A    between atoms: N_12  and  C_15
    6  A    between atoms: N_12  and  C_21
    7  A    between atoms: C_18  and  C_26
    8  A    between atoms: C_19  and  C_27
                            x       y       z     vdW  Elec       q    Type
                         _______ _______ _______ _____ _____    ______ ____

>  <TORSDO>
F 8

$$$$
=
 OpenBabel11042418543D

 27 29  0  0  1  0  0  0  0  0999 V2000
  188.4220  176.3760  144.0100 C   0  0  0  0  0  0  0  0  0  0  0  0
  187.6530  177.0100  144.9380 N   0  0  0  0  0  0  0  0  0  0  0  0
  184.5030  178.8710  145.2510 C   0  0  0  0  0  3  0  0  0  0  0  0
  186.0170  177.5810  143.2740 C   0  0  0  0  0  0  0  0  0  0  0  0
  184.0500  178.8410  143.9310 C   0  0  0  0  0  3  0  0  0  0  0  0
  186.4740  177.6110  144.6140 C   0  0  0  0  0  0  0  0  0  0  0  0
  184.7970  178.2010  142.9380 C   0  0  0  0  0  0  0  0  0  0  0  0
  188.0060  176.3270  142.6780 C   0  0  0  0  0  3  0  0  0  0  0  0
  186.8030  176.9290  142.3130 C   0  0  0  0  0  3  0  0  0  0  0  0
  185.7100  178.2600  145.6000 C   0  0  0  0  0  0  0  0  0  0  0  0
  183.8790  178.1940  140.5060 N   0  0  0  0  0  0  0  0  0  0  0  0
  184.2880  178.1970  141.5890 C   0  0  0  0  0  0  0  0  0  0  0  0
  186.5020  178.3550  148.0720 N   0  0  0  0  0  0  0  0  0  0  0  0
  186.1490  178.3140  146.9710 C   0  0  0  0  0  0  0  0  0  0  0  0
  189.7180  175.7340  144.4010 C   0  0  2  0  0  3  0  0  0  0  0  0
  189.6440  174.2380  144.3930 C   0  0  0  0  0  0  0  0  0  0  0  0
  189.6150  172.2240  145.0220 N   0  0  0  0  0  0  0  0  0  0  0  0
  189.6710  173.4590  145.4900 N   0  0  0  0  0  0  0  0  0  0  0  0
  189.5620  172.2470  143.7000 N   0  0  0  0  0  0  0  0  0  0  0  0
  189.5810  173.4980  143.2730 N   0  0  0  0  0  2  0  0  0  0  0  0
  190.2860  176.2870  145.7100 C   0  0  0  0  0  2  0  0  0  0  0  0
  191.6660  176.7280  145.5490 N   0  0  0  0  0  0  0  0  0  0  0  0
  191.9290  176.6660  144.2210 O   0  0  0  0  0  1  0  0  0  0  0  0
  192.5360  175.7560  146.2110 C   0  0  2  0  0  3  0  0  0  0  0  0
  191.9440  175.2780  147.3700 F   0  0  0  0  0  0  0  0  0  0  0  0
  193.8820  176.3840  146.5600 C   0  0  0  0  0  2  0  0  0  0  0  0
  194.9720  175.4970  146.1840 N   0  0  0  0  0  1  0  0  0  0  0  0
  1 15  1  0  0  0  0
  1  2  1  0  0  0  0
  3 10  2  0  0  0  0
  4  6  1  0  0  0  0
  5  3  1  0  0  0  0
  6  2  2  0  0  0  0
  6 10  1  0  0  0  0
  7  4  1  0  0  0  0
  7  5  2  0  0  0  0
  8  1  2  0  0  0  0
  9  8  1  0  0  0  0
  9  4  2  0  0  0  0
 10 14  1  0  0  0  0
 11 12  3  0  0  0  0
 12  7  1  0  0  0  0
 14 13  3  0  0  0  0
 15 21  1  1  0  0  0
 16 15  1  0  0  0  0
 16 18  2  0  0  0  0
 17 18  1  0  0  0  0
 19 17  2  0  0  0  0
 20 19  1  0  0  0  0
 20 16  1  0  0  0  0
 22 21  1  0  0  0  0
 22 24  1  0  0  0  0
 23 22  1  0  0  0  0
 24 26  1  0  0  0  0
 24 25  1  1  0  0  0
 27 26  1  0  0  0  0
M  END
>  <MODEL>
4

>  <REMARK>
 VINA RESULT:      -6.4      1.729      2.162
  Name = 
  8 active torsions:
  status: ('A' for Active; 'I' for Inactive)
    1  A    between atoms: C_1  and  C_10
    2  A    between atoms: C_7  and  C_10
    3  A    between atoms: C_10  and  C_21
    4  A    between atoms: C_11  and  C_15
    5  A    between atoms: N_12  and  C_15
    6  A    between atoms: N_12  and  C_21
    7  A    between atoms: C_18  and  C_26
    8  A    between atoms: C_19  and  C_27
                            x       y       z     vdW  Elec       q    Type
                         _______ _______ _______ _____ _____    ______ ____

>  <TORSDO>
F 8

$$$$
=
 OpenBabel11042418543D

 27 29  0  0  1  0  0  0  0  0999 V2000
  188.8630  177.6120  144.0440 C   0  0  0  0  0  0  0  0  0  0  0  0
  187.9090  177.9090  144.9680 N   0  0  0  0  0  0  0  0  0  0  0  0
  184.3460  178.7600  145.2250 C   0  0  0  0  0  3  0  0  0  0  0  0
  186.2440  178.1510  143.2530 C   0  0  0  0  0  0  0  0  0  0  0  0
  183.9730  178.7310  143.8800 C   0  0  0  0  0  3  0  0  0  0  0  0
  186.6200  178.1790  144.6180 C   0  0  0  0  0  0  0  0  0  0  0  0
  184.9110  178.4280  142.8890 C   0  0  0  0  0  0  0  0  0  0  0  0
  188.5320  177.5760  142.6880 C   0  0  0  0  0  3  0  0  0  0  0  0
  187.2210  177.8450  142.2960 C   0  0  0  0  0  3  0  0  0  0  0  0
  185.6640  178.4870  145.6010 C   0  0  0  0  0  0  0  0  0  0  0  0
  184.1300  178.3960  140.4110 N   0  0  0  0  0  0  0  0  0  0  0  0
  184.4780  178.4100  141.5150 C   0  0  0  0  0  0  0  0  0  0  0  0
  186.2930  178.5630  148.1200 N   0  0  0  0  0  0  0  0  0  0  0  0
  186.0140  178.5300  146.9980 C   0  0  0  0  0  0  0  0  0  0  0  0
  190.2730  177.3290  144.4650 C   0  0  2  0  0  3  0  0  0  0  0  0
  190.8980  176.2190  143.6770 C   0  0  0  0  0  0  0  0  0  0  0  0
  191.2330  174.3510  142.7550 N   0  0  0  0  0  0  0  0  0  0  0  0
  190.3330  175.0180  143.4570 N   0  0  0  0  0  0  0  0  0  0  0  0
  192.3010  175.1090  142.5580 N   0  0  0  0  0  0  0  0  0  0  0  0
  192.1220  176.2890  143.1280 N   0  0  0  0  0  2  0  0  0  0  0  0
  190.4150  177.1290  145.9760 C   0  0  0  0  0  2  0  0  0  0  0  0
  190.5920  175.7210  146.3140 N   0  0  0  0  0  0  0  0  0  0  0  0
  189.4730  175.3510  146.9810 O   0  0  0  0  0  1  0  0  0  0  0  0
  191.7120  175.6140  147.2490 C   0  0  2  0  0  3  0  0  0  0  0  0
  191.9090  176.8130  147.9170 F   0  0  0  0  0  0  0  0  0  0  0  0
  192.9950  175.2340  146.5150 C   0  0  0  0  0  2  0  0  0  0  0  0
  193.9550  176.3260  146.5690 N   0  0  0  0  0  1  0  0  0  0  0  0
  1 15  1  0  0  0  0
  1  2  1  0  0  0  0
  3 10  2  0  0  0  0
  4  6  1  0  0  0  0
  5  3  1  0  0  0  0
  6  2  2  0  0  0  0
  6 10  1  0  0  0  0
  7  4  1  0  0  0  0
  7  5  2  0  0  0  0
  8  1  2  0  0  0  0
  9  8  1  0  0  0  0
  9  4  2  0  0  0  0
 10 14  1  0  0  0  0
 11 12  3  0  0  0  0
 12  7  1  0  0  0  0
 14 13  3  0  0  0  0
 15 21  1  1  0  0  0
 16 15  1  0  0  0  0
 17 18  1  0  0  0  0
 18 16  2  0  0  0  0
 19 17  2  0  0  0  0
 19 20  1  0  0  0  0
 20 16  1  0  0  0  0
 21 22  1  0  0  0  0
 22 23  1  0  0  0  0
 22 24  1  0  0  0  0
 24 25  1  6  0  0  0
 26 27  1  0  0  0  0
 26 24  1  0  0  0  0
M  END
>  <MODEL>
5

>  <REMARK>
 VINA RESULT:      -6.4      1.768      2.643
  Name = 
  8 active torsions:
  status: ('A' for Active; 'I' for Inactive)
    1  A    between atoms: C_1  and  C_10
    2  A    between atoms: C_7  and  C_10
    3  A    between atoms: C_10  and  C_21
    4  A    between atoms: C_11  and  C_15
    5  A    between atoms: N_12  and  C_15
    6  A    between atoms: N_12  and  C_21
    7  A    between atoms: C_18  and  C_26
    8  A    between atoms: C_19  and  C_27
                            x       y       z     vdW  Elec       q    Type
                         _______ _______ _______ _____ _____    ______ ____

>  <TORSDO>
F 8

$$$$
=
 OpenBabel11042418543D

 27 29  0  0  1  0  0  0  0  0999 V2000
  189.1220  176.0980  143.9020 C   0  0  0  0  0  0  0  0  0  0  0  0
  188.2750  176.6640  142.9990 N   0  0  0  0  0  0  0  0  0  0  0  0
  185.3800  178.9160  142.8170 C   0  0  0  0  0  3  0  0  0  0  0  0
  187.0810  177.8000  144.7470 C   0  0  0  0  0  0  0  0  0  0  0  0
  185.1980  179.2150  144.1680 C   0  0  0  0  0  3  0  0  0  0  0  0
  187.2670  177.4990  143.3760 C   0  0  0  0  0  0  0  0  0  0  0  0
  186.0400  178.6650  145.1380 C   0  0  0  0  0  0  0  0  0  0  0  0
  188.9700  176.3690  145.2630 C   0  0  0  0  0  3  0  0  0  0  0  0
  187.9500  177.2210  145.6830 C   0  0  0  0  0  3  0  0  0  0  0  0
  186.4090  178.0610  142.4140 C   0  0  0  0  0  0  0  0  0  0  0  0
  185.6260  179.2760  147.6300 N   0  0  0  0  0  0  0  0  0  0  0  0
  185.8110  179.0040  146.5200 C   0  0  0  0  0  0  0  0  0  0  0  0
  186.6900  177.5410  139.8840 N   0  0  0  0  0  0  0  0  0  0  0  0
  186.5660  177.7710  141.0110 C   0  0  0  0  0  0  0  0  0  0  0  0
  190.2150  175.1770  143.4520 C   0  0  2  0  0  3  0  0  0  0  0  0
  189.6890  173.8990  142.8760 C   0  0  0  0  0  0  0  0  0  0  0  0
  188.9810  171.9190  142.6910 N   0  0  0  0  0  0  0  0  0  0  0  0
  189.3630  172.8080  143.5920 N   0  0  0  0  0  0  0  0  0  0  0  0
  189.0740  172.4420  141.4780 N   0  0  0  0  0  0  0  0  0  0  0  0
  189.5190  173.6850  141.5600 N   0  0  0  0  0  2  0  0  0  0  0  0
  191.2780  174.9440  144.5270 C   0  0  0  0  0  2  0  0  0  0  0  0
  192.5420  175.5800  144.1750 N   0  0  0  0  0  0  0  0  0  0  0  0
  193.5170  174.7230  144.5610 O   0  0  0  0  0  1  0  0  0  0  0  0
  192.6830  176.7920  144.9830 C   0  0  2  0  0  3  0  0  0  0  0  0
  192.2860  177.9090  144.2630 F   0  0  0  0  0  0  0  0  0  0  0  0
  194.1290  176.9760  145.4350 C   0  0  0  0  0  2  0  0  0  0  0  0
  194.1920  177.1630  146.8760 N   0  0  0  0  0  1  0  0  0  0  0  0
  1  8  1  0  0  0  0
  2  6  1  0  0  0  0
  2  1  2  0  0  0  0
  3  5  1  0  0  0  0
  4  7  1  0  0  0  0
  4  9  1  0  0  0  0
  5  7  2  0  0  0  0
  6  4  2  0  0  0  0
  7 12  1  0  0  0  0
  8  9  2  0  0  0  0
 10  3  2  0  0  0  0
 10  6  1  0  0  0  0
 12 11  3  0  0  0  0
 13 14  3  0  0  0  0
 14 10  1  0  0  0  0
 15  1  1  0  0  0  0
 15 21  1  1  0  0  0
 16 15  1  0  0  0  0
 16 18  2  0  0  0  0
 17 18  1  0  0  0  0
 19 20  1  0  0  0  0
 19 17  2  0  0  0  0
 20 16  1  0  0  0  0
 22 21  1  0  0  0  0
 22 23  1  0  0  0  0
 22 24  1  0  0  0  0
 24 25  1  6  0  0  0
 24 26  1  0  0  0  0
 26 27  1  0  0  0  0
M  END
>  <MODEL>
6

>  <REMARK>
 VINA RESULT:      -6.3      2.403      4.017
  Name = 
  8 active torsions:
  status: ('A' for Active; 'I' for Inactive)
    1  A    between atoms: C_1  and  C_10
    2  A    between atoms: C_7  and  C_10
    3  A    between atoms: C_10  and  C_21
    4  A    between atoms: C_11  and  C_15
    5  A    between atoms: N_12  and  C_15
    6  A    between atoms: N_12  and  C_21
    7  A    between atoms: C_18  and  C_26
    8  A    between atoms: C_19  and  C_27
                            x       y       z     vdW  Elec       q    Type
                         _______ _______ _______ _____ _____    ______ ____

>  <TORSDO>
F 8

$$$$
=
 OpenBabel11042418543D

 27 29  0  0  1  0  0  0  0  0999 V2000
  189.1020  175.4970  145.4010 C   0  0  0  0  0  0  0  0  0  0  0  0
  188.4850  175.8590  144.2430 N   0  0  0  0  0  0  0  0  0  0  0  0
  185.5740  177.7320  143.0180 C   0  0  0  0  0  3  0  0  0  0  0  0
  186.7780  177.0380  145.4530 C   0  0  0  0  0  0  0  0  0  0  0  0
  185.0110  178.1570  144.2230 C   0  0  0  0  0  3  0  0  0  0  0  0
  187.3490  176.6100  144.2300 C   0  0  0  0  0  0  0  0  0  0  0  0
  185.6040  177.8170  145.4420 C   0  0  0  0  0  0  0  0  0  0  0  0
  188.5680  175.8980  146.6270 C   0  0  0  0  0  3  0  0  0  0  0  0
  187.4070  176.6700  146.6510 C   0  0  0  0  0  3  0  0  0  0  0  0
  186.7380  176.9600  143.0130 C   0  0  0  0  0  0  0  0  0  0  0  0
  184.4890  178.6500  147.6370 N   0  0  0  0  0  0  0  0  0  0  0  0
  184.9860  178.2790  146.6600 C   0  0  0  0  0  0  0  0  0  0  0  0
  187.7290  176.1940  140.7370 N   0  0  0  0  0  0  0  0  0  0  0  0
  187.2890  176.5360  141.7510 C   0  0  0  0  0  0  0  0  0  0  0  0
  190.3460  174.6620  145.3760 C   0  0  2  0  0  3  0  0  0  0  0  0
  191.5790  175.4590  145.6700 C   0  0  0  0  0  0  0  0  0  0  0  0
  193.1970  176.8010  145.4820 N   0  0  0  0  0  0  0  0  0  0  0  0
  192.1190  176.3750  144.8460 N   0  0  0  0  0  0  0  0  0  0  0  0
  193.3130  176.1700  146.6400 N   0  0  0  0  0  0  0  0  0  0  0  0
  192.3120  175.3170  146.7880 N   0  0  0  0  0  2  0  0  0  0  0  0
  190.4770  173.8250  144.1020 C   0  0  0  0  0  2  0  0  0  0  0  0
  190.2110  172.4150  144.3600 N   0  0  0  0  0  0  0  0  0  0  0  0
  191.4050  171.7830  144.2640 O   0  0  0  0  0  1  0  0  0  0  0  0
  189.3610  171.9060  143.2840 C   0  0  2  0  0  3  0  0  0  0  0  0
  189.9790  170.8520  142.6280 F   0  0  0  0  0  0  0  0  0  0  0  0
  189.0490  173.0070  142.2750 C   0  0  0  0  0  2  0  0  0  0  0  0
  187.6720  172.9030  141.8160 N   0  0  0  0  0  1  0  0  0  0  0  0
  1  8  1  0  0  0  0
  2  1  2  0  0  0  0
  3  5  1  0  0  0  0
  4  9  1  0  0  0  0
  5  7  2  0  0  0  0
  6  2  1  0  0  0  0
  6  4  2  0  0  0  0
  7  4  1  0  0  0  0
  7 12  1  0  0  0  0
  8  9  2  0  0  0  0
 10  3  2  0  0  0  0
 10  6  1  0  0  0  0
 12 11  3  0  0  0  0
 13 14  3  0  0  0  0
 14 10  1  0  0  0  0
 15 21  1  6  0  0  0
 15  1  1  0  0  0  0
 15 16  1  0  0  0  0
 16 20  1  0  0  0  0
 17 19  2  0  0  0  0
 18 17  1  0  0  0  0
 18 16  2  0  0  0  0
 19 20  1  0  0  0  0
 21 22  1  0  0  0  0
 23 22  1  0  0  0  0
 24 25  1  6  0  0  0
 24 22  1  0  0  0  0
 26 24  1  0  0  0  0
 27 26  1  0  0  0  0
M  END
>  <MODEL>
7

>  <REMARK>
 VINA RESULT:      -6.3      2.952      4.614
  Name = 
  8 active torsions:
  status: ('A' for Active; 'I' for Inactive)
    1  A    between atoms: C_1  and  C_10
    2  A    between atoms: C_7  and  C_10
    3  A    between atoms: C_10  and  C_21
    4  A    between atoms: C_11  and  C_15
    5  A    between atoms: N_12  and  C_15
    6  A    between atoms: N_12  and  C_21
    7  A    between atoms: C_18  and  C_26
    8  A    between atoms: C_19  and  C_27
                            x       y       z     vdW  Elec       q    Type
                         _______ _______ _______ _____ _____    ______ ____

>  <TORSDO>
F 8

$$$$
=
 OpenBabel11042418543D

 27 29  0  0  1  0  0  0  0  0999 V2000
  187.9390  176.0730  143.9380 C   0  0  0  0  0  0  0  0  0  0  0  0
  187.2920  176.8180  144.8770 N   0  0  0  0  0  0  0  0  0  0  0  0
  184.3930  179.0360  145.2670 C   0  0  0  0  0  3  0  0  0  0  0  0
  185.6550  177.5270  143.2690 C   0  0  0  0  0  0  0  0  0  0  0  0
  183.8780  179.0220  143.9690 C   0  0  0  0  0  3  0  0  0  0  0  0
  186.1750  177.5400  144.5860 C   0  0  0  0  0  0  0  0  0  0  0  0
  184.4990  178.2730  142.9660 C   0  0  0  0  0  0  0  0  0  0  0  0
  187.4580  176.0350  142.6280 C   0  0  0  0  0  3  0  0  0  0  0  0
  186.3150  176.7620  142.2960 C   0  0  0  0  0  3  0  0  0  0  0  0
  185.5380  178.3010  145.5820 C   0  0  0  0  0  0  0  0  0  0  0  0
  183.4710  178.3040  140.5790 N   0  0  0  0  0  0  0  0  0  0  0  0
  183.9290  178.2900  141.6420 C   0  0  0  0  0  0  0  0  0  0  0  0
  186.4530  178.3730  148.0120 N   0  0  0  0  0  0  0  0  0  0  0  0
  186.0450  178.3420  146.9300 C   0  0  0  0  0  0  0  0  0  0  0  0
  189.1700  175.2970  144.2930 C   0  0  2  0  0  3  0  0  0  0  0  0
  189.7590  175.7180  145.6030 C   0  0  0  0  0  0  0  0  0  0  0  0
  190.8270  176.7890  147.0750 N   0  0  0  0  0  0  0  0  0  0  0  0
  190.4930  176.8290  145.7970 N   0  0  0  0  0  0  0  0  0  0  0  0
  190.3230  175.7010  147.6370 N   0  0  0  0  0  0  0  0  0  0  0  0
  189.6480  175.0050  146.7370 N   0  0  0  0  0  2  0  0  0  0  0  0
  190.2050  175.2720  143.1650 C   0  0  0  0  0  2  0  0  0  0  0  0
  190.8240  173.9590  143.0380 N   0  0  0  0  0  0  0  0  0  0  0  0
  192.1340  174.1840  142.7710 O   0  0  0  0  0  1  0  0  0  0  0  0
  190.2500  173.2950  141.8670 C   0  0  2  0  0  3  0  0  0  0  0  0
  189.6890  174.2230  141.0040 F   0  0  0  0  0  0  0  0  0  0  0  0
  189.1790  172.2910  142.2850 C   0  0  0  0  0  2  0  0  0  0  0  0
  187.8860  172.6650  141.7320 N   0  0  0  0  0  1  0  0  0  0  0  0
  1 15  1  0  0  0  0
  1  2  1  0  0  0  0
  3 10  2  0  0  0  0
  4  6  1  0  0  0  0
  5  3  1  0  0  0  0
  6  2  2  0  0  0  0
  6 10  1  0  0  0  0
  7  4  1  0  0  0  0
  7  5  2  0  0  0  0
  8  1  2  0  0  0  0
  9  8  1  0  0  0  0
  9  4  2  0  0  0  0
 10 14  1  0  0  0  0
 11 12  3  0  0  0  0
 12  7  1  0  0  0  0
 14 13  3  0  0  0  0
 15 21  1  6  0  0  0
 15 16  1  0  0  0  0
 16 18  2  0  0  0  0
 16 20  1  0  0  0  0
 17 19  2  0  0  0  0
 18 17  1  0  0  0  0
 20 19  1  0  0  0  0
 22 21  1  0  0  0  0
 23 22  1  0  0  0  0
 24 25  1  6  0  0  0
 24 26  1  0  0  0  0
 24 22  1  0  0  0  0
 27 26  1  0  0  0  0
M  END
>  <MODEL>
8

>  <REMARK>
 VINA RESULT:      -6.3      2.216      2.824
  Name = 
  8 active torsions:
  status: ('A' for Active; 'I' for Inactive)
    1  A    between atoms: C_1  and  C_10
    2  A    between atoms: C_7  and  C_10
    3  A    between atoms: C_10  and  C_21
    4  A    between atoms: C_11  and  C_15
    5  A    between atoms: N_12  and  C_15
    6  A    between atoms: N_12  and  C_21
    7  A    between atoms: C_18  and  C_26
    8  A    between atoms: C_19  and  C_27
                            x       y       z     vdW  Elec       q    Type
                         _______ _______ _______ _____ _____    ______ ____

>  <TORSDO>
F 8

$$$$
=
 OpenBabel11042418543D

 27 29  0  0  1  0  0  0  0  0999 V2000
  188.8580  176.6310  144.6810 C   0  0  0  0  0  0  0  0  0  0  0  0
  189.2540  175.3540  144.4240 N   0  0  0  0  0  0  0  0  0  0  0  0
  192.1890  173.1640  144.6810 C   0  0  0  0  0  3  0  0  0  0  0  0
  191.4610  175.8120  145.2510 C   0  0  0  0  0  0  0  0  0  0  0  0
  193.1210  174.0410  145.2380 C   0  0  0  0  0  3  0  0  0  0  0  0
  190.5170  174.9190  144.6880 C   0  0  0  0  0  0  0  0  0  0  0  0
  192.7690  175.3630  145.5260 C   0  0  0  0  0  0  0  0  0  0  0  0
  189.7610  177.5410  145.2350 C   0  0  0  0  0  3  0  0  0  0  0  0
  191.0620  177.1280  145.5200 C   0  0  0  0  0  3  0  0  0  0  0  0
  190.8890  173.5940  144.4030 C   0  0  0  0  0  0  0  0  0  0  0  0
  194.5660  176.9280  146.5630 N   0  0  0  0  0  0  0  0  0  0  0  0
  193.7660  176.2310  146.1010 C   0  0  0  0  0  0  0  0  0  0  0  0
  189.2060  171.9120  143.3610 N   0  0  0  0  0  0  0  0  0  0  0  0
  189.9550  172.6620  143.8250 C   0  0  0  0  0  0  0  0  0  0  0  0
  187.4620  177.0770  144.3690 C   0  0  2  0  0  3  0  0  0  0  0  0
  187.2280  177.2520  142.9010 C   0  0  0  0  0  0  0  0  0  0  0  0
  187.4460  177.8490  140.8880 N   0  0  0  0  0  0  0  0  0  0  0  0
  188.0460  177.9160  142.0640 N   0  0  0  0  0  0  0  0  0  0  0  0
  186.3100  177.1780  141.0020 N   0  0  0  0  0  0  0  0  0  0  0  0
  186.1430  176.7910  142.2560 N   0  0  0  0  0  2  0  0  0  0  0  0
  187.0300  178.2990  145.1830 C   0  0  0  0  0  2  0  0  0  0  0  0
  186.0090  177.9530  146.1640 N   0  0  0  0  0  0  0  0  0  0  0  0
  185.5340  176.7370  145.8030 O   0  0  0  0  0  1  0  0  0  0  0  0
  184.9070  178.9070  146.0310 C   0  0  2  0  0  3  0  0  0  0  0  0
  183.6910  178.2880  146.2770 F   0  0  0  0  0  0  0  0  0  0  0  0
  184.8840  179.5160  144.6320 C   0  0  0  0  0  2  0  0  0  0  0  0
  183.7280  179.0400  143.8880 N   0  0  0  0  0  1  0  0  0  0  0  0
  1  8  1  0  0  0  0
  2  1  2  0  0  0  0
  2  6  1  0  0  0  0
  3  5  1  0  0  0  0
  4  9  1  0  0  0  0
  4  7  1  0  0  0  0
  5  7  2  0  0  0  0
  6  4  2  0  0  0  0
  7 12  1  0  0  0  0
  8  9  2  0  0  0  0
 10  3  2  0  0  0  0
 10  6  1  0  0  0  0
 12 11  3  0  0  0  0
 13 14  3  0  0  0  0
 14 10  1  0  0  0  0
 15  1  1  0  0  0  0
 15 21  1  1  0  0  0
 16 15  1  0  0  0  0
 17 19  2  0  0  0  0
 17 18  1  0  0  0  0
 18 16  2  0  0  0  0
 19 20  1  0  0  0  0
 20 16  1  0  0  0  0
 21 22  1  0  0  0  0
 23 22  1  0  0  0  0
 24 22  1  0  0  0  0
 24 25  1  6  0  0  0
 26 24  1  0  0  0  0
 27 26  1  0  0  0  0
M  END
>  <MODEL>
9

>  <REMARK>
 VINA RESULT:      -6.3      3.312      7.689
  Name = 
  8 active torsions:
  status: ('A' for Active; 'I' for Inactive)
    1  A    between atoms: C_1  and  C_10
    2  A    between atoms: C_7  and  C_10
    3  A    between atoms: C_10  and  C_21
    4  A    between atoms: C_11  and  C_15
    5  A    between atoms: N_12  and  C_15
    6  A    between atoms: N_12  and  C_21
    7  A    between atoms: C_18  and  C_26
    8  A    between atoms: C_19  and  C_27
                            x       y       z     vdW  Elec       q    Type
                         _______ _______ _______ _____ _____    ______ ____

>  <TORSDO>
F 8

$$$$
