=
 OpenBabel11042416313D

 54 59  0  0  1  0  0  0  0  0999 V2000
  193.5140  175.5840  145.5240 C   0  0  2  0  0  3  0  0  0  0  0  0
  195.8840  175.1160  144.6740 C   0  0  0  0  0  2  0  0  0  0  0  0
  190.6800  176.3340  145.7040 C   0  0  2  0  0  3  0  0  0  0  0  0
  192.6670  175.2420  146.7530 C   0  0  0  0  0  2  0  0  0  0  0  0
  194.3880  175.0880  142.5530 C   0  0  0  0  0  2  0  0  0  0  0  0
  195.8080  175.2230  143.1380 C   0  0  2  0  0  3  0  0  0  0  0  0
  194.4350  173.2880  145.3940 C   0  0  0  0  0  2  0  0  0  0  0  0
  191.5680  176.2760  146.9440 C   0  0  0  0  0  2  0  0  0  0  0  0
  192.6460  175.7110  144.2570 C   0  0  2  0  0  3  0  0  0  0  0  0
  193.4640  176.1870  143.0590 C   0  0  0  0  0  2  0  0  0  0  0  0
  191.5210  176.7190  144.4890 C   0  0  0  0  0  2  0  0  0  0  0  0
  194.6420  174.6070  145.3370 C   0  0  0  0  0  0  0  0  0  0  0  0
  195.9560  172.0710  142.2220 C   0  0  2  0  0  3  0  0  0  0  0  0
  196.8020  174.2500  142.4700 C   0  0  1  0  0  3  0  0  0  0  0  0
  197.3490  175.9820  140.1310 O   0  0  0  0  0  0  0  0  0  0  0  0
  196.7330  172.9370  143.1150 N   0  0  0  0  0  2  0  0  0  0  0  0
  194.5360  173.4350  136.5740 C   0  0  0  0  0  2  0  0  0  0  0  0
  195.5010  172.2590  136.5290 C   0  0  0  0  0  2  0  0  0  0  0  0
  196.4600  174.0370  141.0690 N   0  0  0  0  0  0  0  0  0  0  0  0
  195.4970  175.0570  138.9500 C   0  0  0  0  0  2  0  0  0  0  0  0
  195.7780  171.8010  137.8810 N   0  0  0  0  0  2  0  0  0  0  0  0
  197.0730  171.8950  140.0480 C   0  0  0  0  0  2  0  0  0  0  0  0
  196.4980  175.0550  140.0590 C   0  0  0  0  0  0  0  0  0  0  0  0
  196.0220  172.6750  140.8360 C   0  0  1  0  0  3  0  0  0  0  0  0
  195.2560  174.7760  136.4290 C   0  0  2  0  0  3  0  0  0  0  0  0
  197.9400  172.6810  137.9790 O   0  0  0  0  0  0  0  0  0  0  0  0
  196.9700  172.1510  138.5850 C   0  0  0  0  0  0  0  0  0  0  0  0
  196.1950  175.1010  137.5940 C   0  0  0  0  0  2  0  0  0  0  0  0
  193.1150  175.8310  136.6460 O   0  0  0  0  0  0  0  0  0  0  0  0
  194.2870  175.8860  136.1760 C   0  0  0  0  0  0  0  0  0  0  0  0
  194.6990  176.9880  135.4280 O   0  0  0  0  0  0  0  0  0  0  0  0
  193.7730  177.8250  134.7520 C   0  0  0  0  0  1  0  0  0  0  0  0
  194.5040  172.0130  142.6830 C   0  0  0  0  0  2  0  0  0  0  0  0
  193.5720  171.7310  141.5150 C   0  0  0  0  0  2  0  0  0  0  0  0
  192.1870  172.2850  141.7990 C   0  0  0  0  0  2  0  0  0  0  0  0
  191.4900  171.4590  142.8640 C   0  0  0  0  0  2  0  0  0  0  0  0
  191.1080  172.3310  144.0460 C   0  0  0  0  0  1  0  0  0  0  0  0
  189.5930  177.3750  145.9060 C   0  0  0  0  0  2  0  0  0  0  0  0
  188.1490  175.4250  140.5730 O   0  0  0  0  0  1  0  0  0  0  0  0
  187.2440  177.8420  145.1820 C   0  0  0  0  0  0  0  0  0  0  0  0
  187.9650  175.2780  141.9520 C   0  0  1  0  0  0  0  0  0  0  0  0
  188.0320  173.8740  142.5330 C   0  0  0  0  0  1  0  0  0  0  0  0
  188.6130  177.3980  144.7380 C   0  0  2  0  0  3  0  0  0  0  0  0
  186.4480  178.7480  144.2950 C   0  0  0  0  0  2  0  0  0  0  0  0
  185.2280  178.0050  143.7680 C   0  0  2  0  0  3  0  0  0  0  0  0
  188.2610  176.4440  142.7760 C   0  0  1  0  0  3  0  0  0  0  0  0
  186.7520  177.4070  146.2140 O   0  0  0  0  0  0  0  0  0  0  0  0
  185.2000  177.8950  142.2380 C   0  0  0  0  0  2  0  0  0  0  0  0
  186.8520  176.0820  142.5040 N   0  0  1  0  0  0  0  0  0  0  0  0
  186.3930  177.1550  141.6270 C   0  0  0  0  0  2  0  0  0  0  0  0
  188.5410  176.1440  144.1130 O   0  0  0  0  0  0  0  0  0  0  0  0
  183.8420  178.8550  145.5090 O   0  0  0  0  0  1  0  0  0  0  0  0
  182.9750  179.0330  143.3940 O   0  0  0  0  0  0  0  0  0  0  0  0
  183.9770  178.6410  144.2750 C   0  0  0  0  0  0  0  0  0  0  0  0
  1  4  1  1  0  0  0
  2 12  1  0  0  0  0
  3 38  1  1  0  0  0
  3  8  1  0  0  0  0
  4  8  1  0  0  0  0
  5 10  1  0  0  0  0
  6  5  1  6  0  0  0
  6  2  1  0  0  0  0
  9 10  1  6  0  0  0
  9 11  1  0  0  0  0
  9  1  1  0  0  0  0
 11  3  1  0  0  0  0
 12  7  2  0  0  0  0
 12  1  1  0  0  0  0
 13 33  1  1  0  0  0
 13 16  1  0  0  0  0
 14 16  1  1  0  0  0
 14  6  1  0  0  0  0
 18 17  1  0  0  0  0
 18 21  1  0  0  0  0
 19 14  1  0  0  0  0
 20 23  1  0  0  0  0
 21 27  1  0  0  0  0
 23 15  2  0  0  0  0
 23 19  1  0  0  0  0
 24 22  1  6  0  0  0
 24 19  1  0  0  0  0
 24 13  1  0  0  0  0
 25 30  1  1  0  0  0
 25 17  1  0  0  0  0
 25 28  1  0  0  0  0
 26 27  2  0  0  0  0
 27 22  1  0  0  0  0
 28 20  1  0  0  0  0
 30 29  2  0  0  0  0
 31 30  1  0  0  0  0
 32 31  1  0  0  0  0
 34 35  1  0  0  0  0
 34 33  1  0  0  0  0
 35 36  1  0  0  0  0
 36 37  1  0  0  0  0
 39 41  1  0  0  0  0
 40 47  2  0  0  0  0
 41 49  1  0  0  0  0
 41 42  1  1  0  0  0
 41 46  1  0  0  0  0
 43 40  1  0  0  0  0
 43 38  1  1  0  0  0
 44 40  1  0  0  0  0
 45 54  1  6  0  0  0
 45 44  1  0  0  0  0
 46 51  1  1  0  0  0
 48 45  1  0  0  0  0
 49 50  1  6  0  0  0
 49 46  1  0  0  0  0
 50 48  1  0  0  0  0
 51 43  1  0  0  0  0
 53 54  2  0  0  0  0
 54 52  1  0  0  0  0
M  END
>  <MODEL>
1

>  <REMARK>
 VINA RESULT:      -8.1      0.000      0.000
  Name = 
  10 active torsions:
  status: ('A' for Active; 'I' for Inactive)
    1  A    between atoms: C_2  and  C_33
    2  A    between atoms: C_4  and  C_13
    3  A    between atoms: C_4  and  C_17
    4  A    between atoms: C_11  and  C_20
    5  A    between atoms: C_11  and  C_46
    6  A    between atoms: C_12  and  C_34
    7  A    between atoms: O_19  and  C_25
    8  A    between atoms: C_25  and  C_40
    9  A    between atoms: C_26  and  C_35
   10  A    between atoms: C_33  and  C_46
                            x       y       z     vdW  Elec       q    Type
                         _______ _______ _______ _____ _____    ______ ____

>  <TORSDO>
F 10

$$$$
=
 OpenBabel11042416313D

 54 59  0  0  1  0  0  0  0  0999 V2000
  194.4400  174.6290  144.3880 C   0  0  2  0  0  3  0  0  0  0  0  0
  196.4340  173.9100  142.9510 C   0  0  0  0  0  2  0  0  0  0  0  0
  191.9280  175.8240  145.3270 C   0  0  2  0  0  3  0  0  0  0  0  0
  193.8070  174.2260  145.7230 C   0  0  0  0  0  2  0  0  0  0  0  0
  194.5690  174.5290  141.2560 C   0  0  0  0  0  2  0  0  0  0  0  0
  196.0730  174.3030  141.5040 C   0  0  2  0  0  3  0  0  0  0  0  0
  194.8070  172.2680  143.7330 C   0  0  0  0  0  2  0  0  0  0  0  0
  193.0150  175.3870  146.3050 C   0  0  0  0  0  2  0  0  0  0  0  0
  193.3810  175.1330  143.3890 C   0  0  2  0  0  3  0  0  0  0  0  0
  194.0220  175.6660  142.1100 C   0  0  0  0  0  2  0  0  0  0  0  0
  192.5670  176.2660  144.0130 C   0  0  0  0  0  2  0  0  0  0  0  0
  195.2740  173.5170  143.8110 C   0  0  0  0  0  0  0  0  0  0  0  0
  195.2190  171.5660  139.9020 C   0  0  2  0  0  3  0  0  0  0  0  0
  196.6820  173.3070  140.4960 C   0  0  1  0  0  3  0  0  0  0  0  0
  197.5180  175.3700  138.5440 O   0  0  0  0  0  0  0  0  0  0  0  0
  196.2840  171.9390  140.8370 N   0  0  0  0  0  2  0  0  0  0  0  0
  193.8030  174.6500  134.9760 C   0  0  0  0  0  2  0  0  0  0  0  0
  194.3750  173.3130  134.5270 C   0  0  0  0  0  2  0  0  0  0  0  0
  196.1790  173.5560  139.1510 N   0  0  0  0  0  0  0  0  0  0  0  0
  195.3860  175.2990  137.4790 C   0  0  0  0  0  2  0  0  0  0  0  0
  194.6150  172.4680  135.6860 N   0  0  0  0  0  2  0  0  0  0  0  0
  196.0540  171.6620  137.6000 C   0  0  0  0  0  2  0  0  0  0  0  0
  196.4310  174.7510  138.3970 C   0  0  0  0  0  0  0  0  0  0  0  0
  195.3440  172.4630  138.6910 C   0  0  1  0  0  3  0  0  0  0  0  0
  194.8690  175.7440  135.0250 C   0  0  2  0  0  3  0  0  0  0  0  0
  196.9410  172.6920  135.6500 O   0  0  0  0  0  0  0  0  0  0  0  0
  195.9110  172.3010  136.2630 C   0  0  0  0  0  0  0  0  0  0  0  0
  195.9540  175.5020  136.0780 C   0  0  0  0  0  2  0  0  0  0  0  0
  193.0760  177.2160  135.6260 O   0  0  0  0  0  0  0  0  0  0  0  0
  194.2500  177.0970  135.1730 C   0  0  0  0  0  0  0  0  0  0  0  0
  194.9900  178.2240  134.8180 O   0  0  0  0  0  0  0  0  0  0  0  0
  194.4200  179.5230  134.8060 C   0  0  0  0  0  1  0  0  0  0  0  0
  193.8560  171.7770  140.5520 C   0  0  0  0  0  2  0  0  0  0  0  0
  192.7450  171.7400  139.5130 C   0  0  0  0  0  2  0  0  0  0  0  0
  191.6750  172.7650  139.8480 C   0  0  0  0  0  2  0  0  0  0  0  0
  191.3570  172.7400  141.3320 C   0  0  0  0  0  2  0  0  0  0  0  0
  190.4470  173.8970  141.6990 C   0  0  0  0  0  1  0  0  0  0  0  0
  191.1500  176.9870  145.9190 C   0  0  0  0  0  2  0  0  0  0  0  0
  185.7060  176.8600  148.0810 O   0  0  0  0  0  1  0  0  0  0  0  0
  189.3130  177.2160  144.2370 C   0  0  0  0  0  0  0  0  0  0  0  0
  186.6990  177.6420  147.4800 C   0  0  1  0  0  0  0  0  0  0  0  0
  186.9900  179.0080  148.0810 C   0  0  0  0  0  1  0  0  0  0  0  0
  189.6540  176.8520  145.6580 C   0  0  2  0  0  3  0  0  0  0  0  0
  188.2850  176.4100  143.5050 C   0  0  0  0  0  2  0  0  0  0  0  0
  187.0540  177.2690  143.2420 C   0  0  2  0  0  3  0  0  0  0  0  0
  187.7150  176.9290  146.7160 C   0  0  1  0  0  3  0  0  0  0  0  0
  189.8050  178.2040  143.7110 O   0  0  0  0  0  0  0  0  0  0  0  0
  185.7790  176.7150  143.8920 C   0  0  0  0  0  2  0  0  0  0  0  0
  186.6440  177.6580  146.0010 N   0  0  1  0  0  0  0  0  0  0  0  0
  185.8410  176.5900  145.4170 C   0  0  0  0  0  2  0  0  0  0  0  0
  188.9120  177.6350  146.5550 O   0  0  0  0  0  0  0  0  0  0  0  0
  186.2770  178.4890  141.3490 O   0  0  0  0  0  1  0  0  0  0  0  0
  187.3500  176.5200  140.8700 O   0  0  0  0  0  0  0  0  0  0  0  0
  186.8600  177.4570  141.7750 C   0  0  0  0  0  0  0  0  0  0  0  0
  1  4  1  1  0  0  0
  2 12  1  0  0  0  0
  3 38  1  1  0  0  0
  3  8  1  0  0  0  0
  4  8  1  0  0  0  0
  5 10  1  0  0  0  0
  6  5  1  1  0  0  0
  6  2  1  0  0  0  0
  7 12  2  0  0  0  0
  9 10  1  6  0  0  0
  9 11  1  0  0  0  0
  9  1  1  0  0  0  0
 11  3  1  0  0  0  0
 12  1  1  0  0  0  0
 13 33  1  1  0  0  0
 13 16  1  0  0  0  0
 14 16  1  1  0  0  0
 14  6  1  0  0  0  0
 17 25  1  0  0  0  0
 18 17  1  0  0  0  0
 18 21  1  0  0  0  0
 19 14  1  0  0  0  0
 20 23  1  0  0  0  0
 21 27  1  0  0  0  0
 23 15  2  0  0  0  0
 23 19  1  0  0  0  0
 24 22  1  6  0  0  0
 24 19  1  0  0  0  0
 24 13  1  0  0  0  0
 25 30  1  1  0  0  0
 25 28  1  0  0  0  0
 26 27  2  0  0  0  0
 27 22  1  0  0  0  0
 28 20  1  0  0  0  0
 30 29  2  0  0  0  0
 31 30  1  0  0  0  0
 32 31  1  0  0  0  0
 34 35  1  0  0  0  0
 34 33  1  0  0  0  0
 35 36  1  0  0  0  0
 36 37  1  0  0  0  0
 40 43  1  0  0  0  0
 41 42  1  1  0  0  0
 41 39  1  0  0  0  0
 43 38  1  1  0  0  0
 43 51  1  0  0  0  0
 44 40  1  0  0  0  0
 45 54  1  6  0  0  0
 45 44  1  0  0  0  0
 45 48  1  0  0  0  0
 46 51  1  6  0  0  0
 46 41  1  0  0  0  0
 47 40  2  0  0  0  0
 48 50  1  0  0  0  0
 49 50  1  1  0  0  0
 49 46  1  0  0  0  0
 49 41  1  0  0  0  0
 52 54  1  0  0  0  0
 53 54  2  0  0  0  0
M  END
>  <MODEL>
2

>  <REMARK>
 VINA RESULT:      -7.3      1.769      2.980
  Name = 
  10 active torsions:
  status: ('A' for Active; 'I' for Inactive)
    1  A    between atoms: C_2  and  C_33
    2  A    between atoms: C_4  and  C_13
    3  A    between atoms: C_4  and  C_17
    4  A    between atoms: C_11  and  C_20
    5  A    between atoms: C_11  and  C_46
    6  A    between atoms: C_12  and  C_34
    7  A    between atoms: O_19  and  C_25
    8  A    between atoms: C_25  and  C_40
    9  A    between atoms: C_26  and  C_35
   10  A    between atoms: C_33  and  C_46
                            x       y       z     vdW  Elec       q    Type
                         _______ _______ _______ _____ _____    ______ ____

>  <TORSDO>
F 10

$$$$
=
 OpenBabel11042416313D

 54 59  0  0  1  0  0  0  0  0999 V2000
  193.1020  174.2450  144.8980 C   0  0  2  0  0  3  0  0  0  0  0  0
  194.1110  172.7990  143.0410 C   0  0  0  0  0  2  0  0  0  0  0  0
  191.2350  175.6110  146.7070 C   0  0  2  0  0  3  0  0  0  0  0  0
  193.5810  174.9340  146.1790 C   0  0  0  0  0  2  0  0  0  0  0  0
  191.7200  171.8590  143.4030 C   0  0  0  0  0  2  0  0  0  0  0  0
  192.9430  171.9700  142.4720 C   0  0  2  0  0  3  0  0  0  0  0  0
  194.4130  172.2000  145.3880 C   0  0  0  0  0  2  0  0  0  0  0  0
  192.6690  176.1020  146.5250 C   0  0  0  0  0  2  0  0  0  0  0  0
  191.6360  173.7860  145.0180 C   0  0  2  0  0  3  0  0  0  0  0  0
  191.1120  173.2240  143.6980 C   0  0  0  0  0  2  0  0  0  0  0  0
  190.7470  174.9640  145.4130 C   0  0  0  0  0  2  0  0  0  0  0  0
  194.0140  173.1160  144.5010 C   0  0  0  0  0  0  0  0  0  0  0  0
  191.8190  169.3950  140.7700 C   0  0  2  0  0  3  0  0  0  0  0  0
  193.4330  170.5870  141.9950 C   0  0  1  0  0  3  0  0  0  0  0  0
  195.9120  171.5980  140.7280 O   0  0  0  0  0  0  0  0  0  0  0  0
  192.3570  169.6010  142.1180 N   0  0  0  0  0  2  0  0  0  0  0  0
  194.4420  171.3120  135.7480 C   0  0  0  0  0  2  0  0  0  0  0  0
  194.4880  169.7910  135.7330 C   0  0  0  0  0  2  0  0  0  0  0  0
  193.7950  170.6220  140.5830 N   0  0  0  0  0  0  0  0  0  0  0  0
  194.7600  172.0080  138.6820 C   0  0  0  0  0  2  0  0  0  0  0  0
  193.7470  169.2670  136.8690 N   0  0  0  0  0  2  0  0  0  0  0  0
  193.5800  168.5540  139.2870 C   0  0  0  0  0  2  0  0  0  0  0  0
  194.8770  171.3940  140.0400 C   0  0  0  0  0  0  0  0  0  0  0  0
  192.8870  169.8210  139.7860 C   0  0  1  0  0  3  0  0  0  0  0  0
  195.7200  171.9210  136.3250 C   0  0  2  0  0  3  0  0  0  0  0  0
  195.6320  168.6240  138.0910 O   0  0  0  0  0  0  0  0  0  0  0  0
  194.3860  168.8100  138.0620 C   0  0  0  0  0  0  0  0  0  0  0  0
  195.9410  171.6030  137.8060 C   0  0  0  0  0  2  0  0  0  0  0  0
  194.7650  174.0130  135.6510 O   0  0  0  0  0  0  0  0  0  0  0  0
  195.7860  173.3910  136.0600 C   0  0  0  0  0  0  0  0  0  0  0  0
  196.9850  174.0670  136.2860 O   0  0  0  0  0  0  0  0  0  0  0  0
  197.0180  175.3690  136.8470 C   0  0  0  0  0  1  0  0  0  0  0  0
  190.5720  170.2490  140.5690 C   0  0  0  0  0  2  0  0  0  0  0  0
  190.6470  171.0210  139.2610 C   0  0  0  0  0  2  0  0  0  0  0  0
  189.6780  172.1910  139.2830 C   0  0  0  0  0  2  0  0  0  0  0  0
  190.2360  173.3300  140.1180 C   0  0  0  0  0  2  0  0  0  0  0  0
  189.1100  174.1650  140.6960 C   0  0  0  0  0  1  0  0  0  0  0  0
  190.3350  176.7880  147.0450 C   0  0  0  0  0  2  0  0  0  0  0  0
  184.4780  176.8240  146.8900 O   0  0  0  0  0  1  0  0  0  0  0  0
  189.3150  177.2920  144.8170 C   0  0  0  0  0  0  0  0  0  0  0  0
  185.6470  177.5900  146.8130 C   0  0  1  0  0  0  0  0  0  0  0  0
  185.7110  178.8730  147.6280 C   0  0  0  0  0  1  0  0  0  0  0  0
  189.0600  176.7770  146.2090 C   0  0  2  0  0  3  0  0  0  0  0  0
  188.6390  176.6260  143.6590 C   0  0  0  0  0  2  0  0  0  0  0  0
  187.6330  177.5850  143.0340 C   0  0  2  0  0  3  0  0  0  0  0  0
  186.8640  176.8840  146.4310 C   0  0  1  0  0  3  0  0  0  0  0  0
  189.9990  178.2890  144.6370 O   0  0  0  0  0  0  0  0  0  0  0  0
  186.1910  177.0590  143.0720 C   0  0  0  0  0  2  0  0  0  0  0  0
  186.1790  177.7460  145.4420 N   0  0  1  0  0  0  0  0  0  0  0  0
  185.6450  176.7910  144.4770 C   0  0  0  0  0  2  0  0  0  0  0  0
  188.0440  177.5220  146.8280 O   0  0  0  0  0  0  0  0  0  0  0  0
  189.0320  178.6660  141.4380 O   0  0  0  0  0  1  0  0  0  0  0  0
  187.3480  177.3850  140.5540 O   0  0  0  0  0  0  0  0  0  0  0  0
  188.0370  177.9190  141.6380 C   0  0  0  0  0  0  0  0  0  0  0  0
  1  9  1  0  0  0  0
  1  4  1  1  0  0  0
  2 12  1  0  0  0  0
  3 38  1  6  0  0  0
  4  8  1  0  0  0  0
  5 10  1  0  0  0  0
  6  2  1  1  0  0  0
  6  5  1  0  0  0  0
  8  3  1  0  0  0  0
  9 10  1  6  0  0  0
  9 11  1  0  0  0  0
 11  3  1  0  0  0  0
 12  1  1  0  0  0  0
 12  7  2  0  0  0  0
 13 33  1  1  0  0  0
 13 16  1  0  0  0  0
 14 16  1  6  0  0  0
 14  6  1  0  0  0  0
 17 25  1  0  0  0  0
 18 17  1  0  0  0  0
 18 21  1  0  0  0  0
 19 14  1  0  0  0  0
 20 23  1  0  0  0  0
 21 27  1  0  0  0  0
 23 19  1  0  0  0  0
 23 15  2  0  0  0  0
 24 22  1  1  0  0  0
 24 19  1  0  0  0  0
 24 13  1  0  0  0  0
 25 30  1  1  0  0  0
 25 28  1  0  0  0  0
 27 26  2  0  0  0  0
 27 22  1  0  0  0  0
 28 20  1  0  0  0  0
 29 30  2  0  0  0  0
 30 31  1  0  0  0  0
 31 32  1  0  0  0  0
 34 35  1  0  0  0  0
 34 33  1  0  0  0  0
 35 36  1  0  0  0  0
 36 37  1  0  0  0  0
 40 43  1  0  0  0  0
 41 39  1  0  0  0  0
 41 42  1  1  0  0  0
 43 51  1  0  0  0  0
 43 38  1  1  0  0  0
 44 40  1  0  0  0  0
 45 54  1  6  0  0  0
 45 48  1  0  0  0  0
 45 44  1  0  0  0  0
 46 41  1  0  0  0  0
 46 51  1  1  0  0  0
 47 40  2  0  0  0  0
 48 50  1  0  0  0  0
 49 50  1  6  0  0  0
 49 46  1  0  0  0  0
 49 41  1  0  0  0  0
 52 54  1  0  0  0  0
 53 54  2  0  0  0  0
M  END
>  <MODEL>
3

>  <REMARK>
 VINA RESULT:      -7.1      2.383      3.909
  Name = 
  10 active torsions:
  status: ('A' for Active; 'I' for Inactive)
    1  A    between atoms: C_2  and  C_33
    2  A    between atoms: C_4  and  C_13
    3  A    between atoms: C_4  and  C_17
    4  A    between atoms: C_11  and  C_20
    5  A    between atoms: C_11  and  C_46
    6  A    between atoms: C_12  and  C_34
    7  A    between atoms: O_19  and  C_25
    8  A    between atoms: C_25  and  C_40
    9  A    between atoms: C_26  and  C_35
   10  A    between atoms: C_33  and  C_46
                            x       y       z     vdW  Elec       q    Type
                         _______ _______ _______ _____ _____    ______ ____

>  <TORSDO>
F 10

$$$$
=
 OpenBabel11042416313D

 54 59  0  0  1  0  0  0  0  0999 V2000
  191.8220  176.9320  146.3480 C   0  0  2  0  0  3  0  0  0  0  0  0
  194.3560  176.7360  146.0270 C   0  0  0  0  0  2  0  0  0  0  0  0
  188.9330  177.1800  145.8850 C   0  0  2  0  0  3  0  0  0  0  0  0
  190.8050  176.7000  147.4690 C   0  0  0  0  0  2  0  0  0  0  0  0
  193.3300  176.0080  143.7580 C   0  0  0  0  0  2  0  0  0  0  0  0
  194.5720  176.5130  144.5180 C   0  0  2  0  0  3  0  0  0  0  0  0
  193.0630  174.8620  146.9080 C   0  0  0  0  0  2  0  0  0  0  0  0
  189.5560  177.5360  147.2320 C   0  0  0  0  0  2  0  0  0  0  0  0
  191.2140  176.6400  144.9630 C   0  0  2  0  0  3  0  0  0  0  0  0
  192.1790  177.0020  143.8360 C   0  0  0  0  0  2  0  0  0  0  0  0
  189.9360  177.4550  144.7680 C   0  0  0  0  0  2  0  0  0  0  0  0
  193.0910  176.1570  146.5810 C   0  0  0  0  0  0  0  0  0  0  0  0
  195.3610  173.3240  144.4980 C   0  0  2  0  0  3  0  0  0  0  0  0
  195.8050  175.6210  144.2660 C   0  0  1  0  0  3  0  0  0  0  0  0
  196.4770  176.8170  141.6420 O   0  0  0  0  0  0  0  0  0  0  0  0
  195.8270  174.5100  145.2210 N   0  0  0  0  0  2  0  0  0  0  0  0
  194.7530  173.0030  138.5560 C   0  0  0  0  0  2  0  0  0  0  0  0
  195.8800  172.0590  138.9490 C   0  0  0  0  0  2  0  0  0  0  0  0
  195.7490  175.0180  142.9400 N   0  0  0  0  0  0  0  0  0  0  0  0
  195.0240  175.2980  140.5200 C   0  0  0  0  0  2  0  0  0  0  0  0
  195.9850  171.9980  140.3990 N   0  0  0  0  0  2  0  0  0  0  0  0
  196.8530  172.8540  142.6110 C   0  0  0  0  0  2  0  0  0  0  0  0
  195.8050  175.7540  141.7090 C   0  0  0  0  0  0  0  0  0  0  0  0
  195.5730  173.5810  143.0220 C   0  0  1  0  0  3  0  0  0  0  0  0
  195.2720  174.3840  138.1550 C   0  0  2  0  0  3  0  0  0  0  0  0
  197.9360  173.2770  140.5380 O   0  0  0  0  0  0  0  0  0  0  0  0
  196.9680  172.7300  141.1320 C   0  0  0  0  0  0  0  0  0  0  0  0
  195.9320  175.1520  139.3030 C   0  0  0  0  0  2  0  0  0  0  0  0
  193.0450  175.2530  137.9960 O   0  0  0  0  0  0  0  0  0  0  0  0
  194.2020  175.1930  137.4940 C   0  0  0  0  0  0  0  0  0  0  0  0
  194.5050  175.8900  136.3250 O   0  0  0  0  0  0  0  0  0  0  0  0
  195.7960  175.8440  135.7380 C   0  0  0  0  0  1  0  0  0  0  0  0
  193.8770  173.0980  144.7660 C   0  0  0  0  0  2  0  0  0  0  0  0
  193.2340  172.3060  143.6390 C   0  0  0  0  0  2  0  0  0  0  0  0
  192.0360  171.5280  144.1560 C   0  0  0  0  0  2  0  0  0  0  0  0
  190.9280  171.5010  143.1190 C   0  0  0  0  0  2  0  0  0  0  0  0
  191.3800  172.1870  141.8430 C   0  0  0  0  0  1  0  0  0  0  0  0
  187.6920  178.0270  145.6600 C   0  0  0  0  0  2  0  0  0  0  0  0
  188.3600  175.7370  140.3080 O   0  0  0  0  0  1  0  0  0  0  0  0
  185.7110  178.2210  144.1450 C   0  0  0  0  0  0  0  0  0  0  0  0
  187.7210  175.6240  141.5480 C   0  0  1  0  0  0  0  0  0  0  0  0
  187.7000  174.2580  142.2150 C   0  0  0  0  0  1  0  0  0  0  0  0
  187.1810  177.9040  144.2280 C   0  0  2  0  0  3  0  0  0  0  0  0
  185.2000  179.0060  142.9770 C   0  0  0  0  0  2  0  0  0  0  0  0
  184.3050  178.1200  142.1180 C   0  0  2  0  0  3  0  0  0  0  0  0
  187.6140  176.8450  142.3380 C   0  0  1  0  0  3  0  0  0  0  0  0
  184.9300  177.7770  144.9740 O   0  0  0  0  0  0  0  0  0  0  0  0
  184.8200  177.9500  140.6820 C   0  0  0  0  0  2  0  0  0  0  0  0
  186.4230  176.3290  141.6260 N   0  0  1  0  0  0  0  0  0  0  0  0
  186.2090  177.3140  140.5720 C   0  0  0  0  0  2  0  0  0  0  0  0
  187.4360  176.6260  143.7080 O   0  0  0  0  0  0  0  0  0  0  0  0
  182.4050  179.0750  143.1910 O   0  0  0  0  0  1  0  0  0  0  0  0
  182.1680  178.6910  140.9430 O   0  0  0  0  0  0  0  0  0  0  0  0
  182.9080  178.6430  142.1200 C   0  0  0  0  0  0  0  0  0  0  0  0
  1 12  1  0  0  0  0
  1  4  1  1  0  0  0
  2 12  1  0  0  0  0
  3 38  1  6  0  0  0
  3  8  1  0  0  0  0
  5 10  1  0  0  0  0
  6  5  1  1  0  0  0
  6  2  1  0  0  0  0
  8  4  1  0  0  0  0
  9 10  1  6  0  0  0
  9  1  1  0  0  0  0
 11  9  1  0  0  0  0
 11  3  1  0  0  0  0
 12  7  2  0  0  0  0
 13 33  1  6  0  0  0
 13 16  1  0  0  0  0
 14  6  1  0  0  0  0
 14 16  1  1  0  0  0
 15 23  2  0  0  0  0
 17 18  1  0  0  0  0
 18 21  1  0  0  0  0
 19 24  1  0  0  0  0
 19 14  1  0  0  0  0
 20 23  1  0  0  0  0
 21 27  1  0  0  0  0
 23 19  1  0  0  0  0
 24 22  1  1  0  0  0
 24 13  1  0  0  0  0
 25 30  1  1  0  0  0
 25 17  1  0  0  0  0
 25 28  1  0  0  0  0
 26 27  2  0  0  0  0
 27 22  1  0  0  0  0
 28 20  1  0  0  0  0
 30 29  2  0  0  0  0
 31 30  1  0  0  0  0
 32 31  1  0  0  0  0
 34 35  1  0  0  0  0
 34 33  1  0  0  0  0
 36 35  1  0  0  0  0
 37 36  1  0  0  0  0
 39 41  1  0  0  0  0
 40 43  1  0  0  0  0
 40 47  2  0  0  0  0
 41 49  1  0  0  0  0
 41 42  1  1  0  0  0
 41 46  1  0  0  0  0
 43 38  1  1  0  0  0
 44 40  1  0  0  0  0
 45 54  1  6  0  0  0
 45 44  1  0  0  0  0
 46 51  1  1  0  0  0
 48 45  1  0  0  0  0
 49 50  1  6  0  0  0
 49 46  1  0  0  0  0
 50 48  1  0  0  0  0
 51 43  1  0  0  0  0
 53 54  2  0  0  0  0
 54 52  1  0  0  0  0
M  END
>  <MODEL>
4

>  <REMARK>
 VINA RESULT:      -7.1      1.425      2.076
  Name = 
  10 active torsions:
  status: ('A' for Active; 'I' for Inactive)
    1  A    between atoms: C_2  and  C_33
    2  A    between atoms: C_4  and  C_13
    3  A    between atoms: C_4  and  C_17
    4  A    between atoms: C_11  and  C_20
    5  A    between atoms: C_11  and  C_46
    6  A    between atoms: C_12  and  C_34
    7  A    between atoms: O_19  and  C_25
    8  A    between atoms: C_25  and  C_40
    9  A    between atoms: C_26  and  C_35
   10  A    between atoms: C_33  and  C_46
                            x       y       z     vdW  Elec       q    Type
                         _______ _______ _______ _____ _____    ______ ____

>  <TORSDO>
F 10

$$$$
=
 OpenBabel11042416313D

 54 59  0  0  1  0  0  0  0  0999 V2000
  192.8460  175.1830  144.8200 C   0  0  2  0  0  3  0  0  0  0  0  0
  194.5350  174.4060  143.0570 C   0  0  0  0  0  2  0  0  0  0  0  0
  190.5450  175.3560  146.6350 C   0  0  2  0  0  3  0  0  0  0  0  0
  192.7870  176.2180  145.9460 C   0  0  0  0  0  2  0  0  0  0  0  0
  193.2820  172.2540  143.7870 C   0  0  0  0  0  2  0  0  0  0  0  0
  194.1540  172.9500  142.7240 C   0  0  2  0  0  3  0  0  0  0  0  0
  195.1590  174.5200  145.4150 C   0  0  0  0  0  2  0  0  0  0  0  0
  191.3430  176.5960  146.2420 C   0  0  0  0  0  2  0  0  0  0  0  0
  192.0040  173.9360  145.1510 C   0  0  2  0  0  3  0  0  0  0  0  0
  191.9480  172.9640  143.9750 C   0  0  0  0  0  2  0  0  0  0  0  0
  190.5710  174.3450  145.4910 C   0  0  0  0  0  2  0  0  0  0  0  0
  194.2650  174.8250  144.4690 C   0  0  0  0  0  0  0  0  0  0  0  0
  194.9390  169.8630  141.9220 C   0  0  2  0  0  3  0  0  0  0  0  0
  195.4070  172.1220  142.3710 C   0  0  1  0  0  3  0  0  0  0  0  0
  196.3640  173.9620  140.2570 O   0  0  0  0  0  0  0  0  0  0  0  0
  195.3240  170.7950  142.9850 N   0  0  0  0  0  2  0  0  0  0  0  0
  194.9880  171.1770  136.0860 C   0  0  0  0  0  2  0  0  0  0  0  0
  196.0640  170.1280  136.3260 C   0  0  0  0  0  2  0  0  0  0  0  0
  195.4970  171.9010  140.9330 N   0  0  0  0  0  0  0  0  0  0  0  0
  195.0420  172.8470  138.6170 C   0  0  0  0  0  2  0  0  0  0  0  0
  196.0090  169.6750  137.7060 N   0  0  0  0  0  2  0  0  0  0  0  0
  196.6290  169.8750  140.1470 C   0  0  0  0  0  2  0  0  0  0  0  0
  195.6880  172.9410  139.9620 C   0  0  0  0  0  0  0  0  0  0  0  0
  195.3120  170.5020  140.6020 C   0  0  1  0  0  3  0  0  0  0  0  0
  195.5480  172.5980  136.1330 C   0  0  2  0  0  3  0  0  0  0  0  0
  197.9330  170.8090  138.3930 O   0  0  0  0  0  0  0  0  0  0  0  0
  196.9060  170.1510  138.7100 C   0  0  0  0  0  0  0  0  0  0  0  0
  196.0780  173.0070  137.5100 C   0  0  0  0  0  2  0  0  0  0  0  0
  193.3440  173.2670  135.4730 O   0  0  0  0  0  0  0  0  0  0  0  0
  194.5580  173.5880  135.6070 C   0  0  0  0  0  0  0  0  0  0  0  0
  194.9920  174.8730  135.2830 O   0  0  0  0  0  0  0  0  0  0  0  0
  194.3240  176.0320  135.7550 C   0  0  0  0  0  1  0  0  0  0  0  0
  193.4340  169.6170  141.9600 C   0  0  0  0  0  2  0  0  0  0  0  0
  192.8050  169.8780  140.6010 C   0  0  0  0  0  2  0  0  0  0  0  0
  191.5910  170.7800  140.7450 C   0  0  0  0  0  2  0  0  0  0  0  0
  191.8020  172.0820  139.9940 C   0  0  0  0  0  2  0  0  0  0  0  0
  190.9640  173.1890  140.6070 C   0  0  0  0  0  1  0  0  0  0  0  0
  189.1050  175.7470  146.9200 C   0  0  0  0  0  2  0  0  0  0  0  0
  188.5550  175.8720  141.0880 O   0  0  0  0  0  1  0  0  0  0  0  0
  187.1120  176.9820  146.0470 C   0  0  0  0  0  0  0  0  0  0  0  0
  188.0410  175.3790  142.2920 C   0  0  1  0  0  0  0  0  0  0  0  0
  187.7070  173.8980  142.3710 C   0  0  0  0  0  1  0  0  0  0  0  0
  188.4360  176.3570  145.6920 C   0  0  2  0  0  3  0  0  0  0  0  0
  186.7230  178.2790  145.4060 C   0  0  0  0  0  2  0  0  0  0  0  0
  185.5340  178.0550  144.4800 C   0  0  2  0  0  3  0  0  0  0  0  0
  188.3600  176.1390  143.4950 C   0  0  1  0  0  3  0  0  0  0  0  0
  186.3270  176.4040  146.7840 O   0  0  0  0  0  0  0  0  0  0  0  0
  185.8310  178.4080  143.0170 C   0  0  0  0  0  2  0  0  0  0  0  0
  187.0060  176.2410  142.9060 N   0  0  1  0  0  0  0  0  0  0  0  0
  186.9680  177.6020  142.3820 C   0  0  0  0  0  2  0  0  0  0  0  0
  188.2690  175.4010  144.6790 O   0  0  0  0  0  0  0  0  0  0  0  0
  183.5710  179.3630  144.1520 O   0  0  0  0  0  0  0  0  0  0  0  0
  184.0660  178.8750  146.3370 O   0  0  0  0  0  1  0  0  0  0  0  0
  184.3460  178.8090  144.9750 C   0  0  0  0  0  0  0  0  0  0  0  0
  1  9  1  0  0  0  0
  1  4  1  1  0  0  0
  2 12  1  0  0  0  0
  3 38  1  6  0  0  0
  4  8  1  0  0  0  0
  5 10  1  0  0  0  0
  6  2  1  1  0  0  0
  6  5  1  0  0  0  0
  8  3  1  0  0  0  0
  9 10  1  6  0  0  0
  9 11  1  0  0  0  0
 11  3  1  0  0  0  0
 12  1  1  0  0  0  0
 12  7  2  0  0  0  0
 13 33  1  6  0  0  0
 13 16  1  0  0  0  0
 14  6  1  0  0  0  0
 14 16  1  1  0  0  0
 17 25  1  0  0  0  0
 17 18  1  0  0  0  0
 18 21  1  0  0  0  0
 19 14  1  0  0  0  0
 20 23  1  0  0  0  0
 21 27  1  0  0  0  0
 23 15  2  0  0  0  0
 23 19  1  0  0  0  0
 24 22  1  1  0  0  0
 24 19  1  0  0  0  0
 24 13  1  0  0  0  0
 25 30  1  1  0  0  0
 25 28  1  0  0  0  0
 26 27  2  0  0  0  0
 27 22  1  0  0  0  0
 28 20  1  0  0  0  0
 29 30  2  0  0  0  0
 31 30  1  0  0  0  0
 31 32  1  0  0  0  0
 34 35  1  0  0  0  0
 34 33  1  0  0  0  0
 36 37  1  0  0  0  0
 36 35  1  0  0  0  0
 39 41  1  0  0  0  0
 40 47  2  0  0  0  0
 41 42  1  1  0  0  0
 41 49  1  0  0  0  0
 41 46  1  0  0  0  0
 43 40  1  0  0  0  0
 43 38  1  1  0  0  0
 44 40  1  0  0  0  0
 45 54  1  1  0  0  0
 45 44  1  0  0  0  0
 46 51  1  1  0  0  0
 48 45  1  0  0  0  0
 49 50  1  6  0  0  0
 49 46  1  0  0  0  0
 50 48  1  0  0  0  0
 51 43  1  0  0  0  0
 52 54  2  0  0  0  0
 54 53  1  0  0  0  0
M  END
>  <MODEL>
5

>  <REMARK>
 VINA RESULT:      -6.9      1.549      2.055
  Name = 
  10 active torsions:
  status: ('A' for Active; 'I' for Inactive)
    1  A    between atoms: C_2  and  C_33
    2  A    between atoms: C_4  and  C_13
    3  A    between atoms: C_4  and  C_17
    4  A    between atoms: C_11  and  C_20
    5  A    between atoms: C_11  and  C_46
    6  A    between atoms: C_12  and  C_34
    7  A    between atoms: O_19  and  C_25
    8  A    between atoms: C_25  and  C_40
    9  A    between atoms: C_26  and  C_35
   10  A    between atoms: C_33  and  C_46
                            x       y       z     vdW  Elec       q    Type
                         _______ _______ _______ _____ _____    ______ ____

>  <TORSDO>
F 10

$$$$
=
 OpenBabel11042416313D

 54 59  0  0  1  0  0  0  0  0999 V2000
  194.7740  175.4480  144.2970 C   0  0  2  0  0  3  0  0  0  0  0  0
  196.9270  174.2920  143.5300 C   0  0  0  0  0  2  0  0  0  0  0  0
  192.1320  176.7270  144.3640 C   0  0  2  0  0  3  0  0  0  0  0  0
  194.0350  175.6970  145.6140 C   0  0  0  0  0  2  0  0  0  0  0  0
  195.2080  173.8380  141.6410 C   0  0  0  0  0  2  0  0  0  0  0  0
  196.6890  173.8930  142.0600 C   0  0  2  0  0  3  0  0  0  0  0  0
  195.3070  173.1100  144.9230 C   0  0  0  0  0  2  0  0  0  0  0  0
  193.1390  176.9220  145.4950 C   0  0  0  0  0  2  0  0  0  0  0  0
  193.7940  175.3040  143.1170 C   0  0  2  0  0  3  0  0  0  0  0  0
  194.5300  175.1940  141.7840 C   0  0  0  0  0  2  0  0  0  0  0  0
  192.8740  176.5220  143.0460 C   0  0  0  0  0  2  0  0  0  0  0  0
  195.7080  174.2720  144.3990 C   0  0  0  0  0  0  0  0  0  0  0  0
  196.2490  170.6480  142.3130 C   0  0  2  0  0  3  0  0  0  0  0  0
  197.4370  172.5880  141.7180 C   0  0  1  0  0  3  0  0  0  0  0  0
  197.9410  173.2950  138.8870 O   0  0  0  0  0  0  0  0  0  0  0  0
  197.2510  171.6050  142.7890 N   0  0  0  0  0  2  0  0  0  0  0  0
  194.3590  170.2600  136.6510 C   0  0  0  0  0  2  0  0  0  0  0  0
  195.1230  168.9820  136.9640 C   0  0  0  0  0  2  0  0  0  0  0  0
  196.8950  171.9800  140.5090 N   0  0  0  0  0  0  0  0  0  0  0  0
  195.8390  172.3830  138.2320 C   0  0  0  0  0  2  0  0  0  0  0  0
  195.4950  168.9640  138.3700 N   0  0  0  0  0  2  0  0  0  0  0  0
  197.0480  169.5450  140.2750 C   0  0  0  0  0  2  0  0  0  0  0  0
  196.9590  172.5720  139.2030 C   0  0  0  0  0  0  0  0  0  0  0  0
  196.2320  170.7240  140.8020 C   0  0  1  0  0  3  0  0  0  0  0  0
  195.2480  171.3160  135.9950 C   0  0  2  0  0  3  0  0  0  0  0  0
  197.7600  169.4120  138.0110 O   0  0  0  0  0  0  0  0  0  0  0  0
  196.8040  169.3060  138.8260 C   0  0  0  0  0  0  0  0  0  0  0  0
  196.3620  171.8370  136.9070 C   0  0  0  0  0  2  0  0  0  0  0  0
  194.9610  173.2830  134.6560 O   0  0  0  0  0  0  0  0  0  0  0  0
  194.4320  172.4340  135.4280 C   0  0  0  0  0  0  0  0  0  0  0  0
  193.0790  172.5170  135.7530 O   0  0  0  0  0  0  0  0  0  0  0  0
  192.3150  173.6830  135.4920 C   0  0  0  0  0  1  0  0  0  0  0  0
  194.8730  171.0170  142.8570 C   0  0  0  0  0  2  0  0  0  0  0  0
  193.7780  170.6270  141.8760 C   0  0  0  0  0  2  0  0  0  0  0  0
  192.4180  170.6960  142.5500 C   0  0  0  0  0  2  0  0  0  0  0  0
  191.9830  172.1390  142.7290 C   0  0  0  0  0  2  0  0  0  0  0  0
  191.7120  172.4340  144.1920 C   0  0  0  0  0  1  0  0  0  0  0  0
  191.2500  177.9590  144.2530 C   0  0  0  0  0  2  0  0  0  0  0  0
  187.6120  175.5140  140.3640 O   0  0  0  0  0  1  0  0  0  0  0  0
  188.9330  177.5030  145.0770 C   0  0  0  0  0  0  0  0  0  0  0  0
  188.3420  175.3340  141.5450 C   0  0  1  0  0  0  0  0  0  0  0  0
  189.1720  174.0680  141.6820 C   0  0  0  0  0  1  0  0  0  0  0  0
  189.8220  177.5930  143.8640 C   0  0  2  0  0  3  0  0  0  0  0  0
  187.5340  178.0300  144.9970 C   0  0  0  0  0  2  0  0  0  0  0  0
  186.5450  176.8750  145.0980 C   0  0  2  0  0  3  0  0  0  0  0  0
  188.6900  176.5410  142.2850 C   0  0  1  0  0  3  0  0  0  0  0  0
  189.3160  176.9350  146.0890 O   0  0  0  0  0  0  0  0  0  0  0  0
  185.6480  176.7350  143.8610 C   0  0  0  0  0  2  0  0  0  0  0  0
  187.5940  175.6750  142.7760 N   0  0  1  0  0  0  0  0  0  0  0  0
  186.4000  176.4830  142.5510 C   0  0  0  0  0  2  0  0  0  0  0  0
  189.7860  176.3920  143.1410 O   0  0  0  0  0  0  0  0  0  0  0  0
  186.2010  176.6520  147.4450 O   0  0  0  0  0  1  0  0  0  0  0  0
  184.4450  177.5560  146.2800 O   0  0  0  0  0  0  0  0  0  0  0  0
  185.7220  177.0080  146.3350 C   0  0  0  0  0  0  0  0  0  0  0  0
  1 12  1  0  0  0  0
  1  4  1  1  0  0  0
  2 12  1  0  0  0  0
  3 38  1  6  0  0  0
  3  8  1  0  0  0  0
  5 10  1  0  0  0  0
  6  5  1  1  0  0  0
  6  2  1  0  0  0  0
  8  4  1  0  0  0  0
  9 10  1  6  0  0  0
  9  1  1  0  0  0  0
 11  9  1  0  0  0  0
 11  3  1  0  0  0  0
 12  7  2  0  0  0  0
 13 16  1  0  0  0  0
 13 33  1  1  0  0  0
 14  6  1  0  0  0  0
 14 16  1  1  0  0  0
 15 23  2  0  0  0  0
 17 18  1  0  0  0  0
 18 21  1  0  0  0  0
 19 24  1  0  0  0  0
 19 14  1  0  0  0  0
 20 23  1  0  0  0  0
 21 27  1  0  0  0  0
 23 19  1  0  0  0  0
 24 22  1  6  0  0  0
 24 13  1  0  0  0  0
 25 30  1  1  0  0  0
 25 17  1  0  0  0  0
 25 28  1  0  0  0  0
 26 27  2  0  0  0  0
 27 22  1  0  0  0  0
 28 20  1  0  0  0  0
 29 30  2  0  0  0  0
 30 31  1  0  0  0  0
 32 31  1  0  0  0  0
 34 35  1  0  0  0  0
 34 33  1  0  0  0  0
 35 36  1  0  0  0  0
 36 37  1  0  0  0  0
 39 41  1  0  0  0  0
 40 47  2  0  0  0  0
 41 42  1  1  0  0  0
 41 46  1  0  0  0  0
 41 49  1  0  0  0  0
 43 38  1  1  0  0  0
 43 40  1  0  0  0  0
 44 40  1  0  0  0  0
 44 45  1  0  0  0  0
 45 54  1  1  0  0  0
 46 49  1  0  0  0  0
 46 51  1  1  0  0  0
 48 45  1  0  0  0  0
 49 50  1  6  0  0  0
 50 48  1  0  0  0  0
 51 43  1  0  0  0  0
 53 54  2  0  0  0  0
 54 52  1  0  0  0  0
M  END
>  <MODEL>
6

>  <REMARK>
 VINA RESULT:      -6.6      1.856      2.382
  Name = 
  10 active torsions:
  status: ('A' for Active; 'I' for Inactive)
    1  A    between atoms: C_2  and  C_33
    2  A    between atoms: C_4  and  C_13
    3  A    between atoms: C_4  and  C_17
    4  A    between atoms: C_11  and  C_20
    5  A    between atoms: C_11  and  C_46
    6  A    between atoms: C_12  and  C_34
    7  A    between atoms: O_19  and  C_25
    8  A    between atoms: C_25  and  C_40
    9  A    between atoms: C_26  and  C_35
   10  A    between atoms: C_33  and  C_46
                            x       y       z     vdW  Elec       q    Type
                         _______ _______ _______ _____ _____    ______ ____

>  <TORSDO>
F 10

$$$$
=
 OpenBabel11042416313D

 54 59  0  0  1  0  0  0  0  0999 V2000
  194.3480  175.2650  144.4040 C   0  0  2  0  0  3  0  0  0  0  0  0
  195.6710  175.0470  142.2220 C   0  0  0  0  0  2  0  0  0  0  0  0
  192.4140  174.8750  146.5790 C   0  0  2  0  0  3  0  0  0  0  0  0
  194.5220  175.9430  145.7660 C   0  0  0  0  0  2  0  0  0  0  0  0
  194.5050  172.7500  142.5370 C   0  0  0  0  0  2  0  0  0  0  0  0
  195.1940  173.7340  141.5710 C   0  0  2  0  0  3  0  0  0  0  0  0
  196.7090  174.5130  144.3660 C   0  0  0  0  0  2  0  0  0  0  0  0
  193.1660  176.1930  146.4090 C   0  0  0  0  0  2  0  0  0  0  0  0
  193.5420  173.9580  144.5220 C   0  0  2  0  0  3  0  0  0  0  0  0
  193.2490  173.3510  143.1520 C   0  0  0  0  0  2  0  0  0  0  0  0
  192.2060  174.2240  145.2140 C   0  0  0  0  0  2  0  0  0  0  0  0
  195.6710  175.0500  143.7190 C   0  0  0  0  0  0  0  0  0  0  0  0
  195.8480  170.8670  140.1070 C   0  0  2  0  0  3  0  0  0  0  0  0
  196.3390  173.0640  140.7820 C   0  0  1  0  0  3  0  0  0  0  0  0
  196.6430  175.2620  138.8220 O   0  0  0  0  0  0  0  0  0  0  0  0
  196.4660  171.6580  141.1740 N   0  0  0  0  0  2  0  0  0  0  0  0
  194.3180  173.0260  134.7420 C   0  0  0  0  0  2  0  0  0  0  0  0
  195.4550  172.0390  134.5280 C   0  0  0  0  0  2  0  0  0  0  0  0
  196.0550  173.0650  139.3520 N   0  0  0  0  0  0  0  0  0  0  0  0
  194.9760  174.3040  137.4120 C   0  0  0  0  0  2  0  0  0  0  0  0
  195.7800  171.3840  135.7850 N   0  0  0  0  0  2  0  0  0  0  0  0
  197.0120  171.2680  137.9870 C   0  0  0  0  0  2  0  0  0  0  0  0
  195.9490  174.2480  138.5460 C   0  0  0  0  0  0  0  0  0  0  0  0
  195.8390  171.7200  138.8570 C   0  0  1  0  0  3  0  0  0  0  0  0
  194.8210  174.4640  134.8750 C   0  0  2  0  0  3  0  0  0  0  0  0
  197.7770  172.5470  136.1350 O   0  0  0  0  0  0  0  0  0  0  0  0
  196.8920  171.7740  136.5920 C   0  0  0  0  0  0  0  0  0  0  0  0
  195.6800  174.7040  136.1190 C   0  0  0  0  0  2  0  0  0  0  0  0
  193.9280  176.6750  134.6440 O   0  0  0  0  0  0  0  0  0  0  0  0
  193.6940  175.4420  134.7850 C   0  0  0  0  0  0  0  0  0  0  0  0
  192.3830  174.9720  134.8450 O   0  0  0  0  0  0  0  0  0  0  0  0
  191.3190  175.7770  135.3280 C   0  0  0  0  0  1  0  0  0  0  0  0
  194.4160  170.5050  140.4850 C   0  0  0  0  0  2  0  0  0  0  0  0
  193.4600  170.7920  139.3380 C   0  0  0  0  0  2  0  0  0  0  0  0
  192.1960  171.4550  139.8570 C   0  0  0  0  0  2  0  0  0  0  0  0
  192.0410  172.8450  139.2670 C   0  0  0  0  0  2  0  0  0  0  0  0
  190.7560  173.4870  139.7540 C   0  0  0  0  0  1  0  0  0  0  0  0
  191.0610  175.1410  147.2150 C   0  0  0  0  0  2  0  0  0  0  0  0
  189.2510  176.1250  141.7300 O   0  0  0  0  0  1  0  0  0  0  0  0
  188.9180  176.4120  146.9950 C   0  0  0  0  0  0  0  0  0  0  0  0
  189.0150  175.4350  142.9250 C   0  0  1  0  0  0  0  0  0  0  0  0
  188.7160  173.9470  142.8400 C   0  0  0  0  0  1  0  0  0  0  0  0
  190.1360  175.9020  146.2710 C   0  0  2  0  0  3  0  0  0  0  0  0
  188.3900  177.7740  146.6630 C   0  0  0  0  0  2  0  0  0  0  0  0
  187.0290  177.6450  145.9910 C   0  0  2  0  0  3  0  0  0  0  0  0
  189.5840  176.0160  144.1350 C   0  0  1  0  0  3  0  0  0  0  0  0
  188.3160  175.6970  147.7830 O   0  0  0  0  0  0  0  0  0  0  0  0
  186.9970  178.2270  144.5710 C   0  0  0  0  0  2  0  0  0  0  0  0
  188.1340  176.1510  143.8730 N   0  0  1  0  0  0  0  0  0  0  0  0
  187.9740  177.5740  143.5890 C   0  0  0  0  0  2  0  0  0  0  0  0
  189.7590  175.1040  145.1800 O   0  0  0  0  0  0  0  0  0  0  0  0
  186.2970  178.8710  147.8970 O   0  0  0  0  0  1  0  0  0  0  0  0
  184.6360  178.2160  146.4590 O   0  0  0  0  0  0  0  0  0  0  0  0
  185.9730  178.2660  146.8410 C   0  0  0  0  0  0  0  0  0  0  0  0
  1  9  1  0  0  0  0
  1  4  1  1  0  0  0
  2 12  1  0  0  0  0
  3 38  1  6  0  0  0
  4  8  1  0  0  0  0
  5 10  1  0  0  0  0
  6  2  1  1  0  0  0
  6  5  1  0  0  0  0
  8  3  1  0  0  0  0
  9 10  1  6  0  0  0
  9 11  1  0  0  0  0
 11  3  1  0  0  0  0
 12  7  2  0  0  0  0
 12  1  1  0  0  0  0
 13 33  1  1  0  0  0
 13 16  1  0  0  0  0
 14 16  1  1  0  0  0
 14  6  1  0  0  0  0
 17 25  1  0  0  0  0
 18 17  1  0  0  0  0
 18 21  1  0  0  0  0
 19 14  1  0  0  0  0
 20 23  1  0  0  0  0
 21 27  1  0  0  0  0
 23 15  2  0  0  0  0
 23 19  1  0  0  0  0
 24 22  1  6  0  0  0
 24 19  1  0  0  0  0
 24 13  1  0  0  0  0
 25 30  1  1  0  0  0
 25 28  1  0  0  0  0
 26 27  2  0  0  0  0
 27 22  1  0  0  0  0
 28 20  1  0  0  0  0
 29 30  2  0  0  0  0
 30 31  1  0  0  0  0
 31 32  1  0  0  0  0
 34 35  1  0  0  0  0
 34 33  1  0  0  0  0
 36 37  1  0  0  0  0
 36 35  1  0  0  0  0
 39 41  1  0  0  0  0
 40 47  2  0  0  0  0
 41 42  1  6  0  0  0
 41 49  1  0  0  0  0
 41 46  1  0  0  0  0
 43 40  1  0  0  0  0
 43 38  1  1  0  0  0
 44 40  1  0  0  0  0
 45 44  1  0  0  0  0
 45 54  1  1  0  0  0
 46 51  1  1  0  0  0
 48 45  1  0  0  0  0
 49 50  1  6  0  0  0
 49 46  1  0  0  0  0
 50 48  1  0  0  0  0
 51 43  1  0  0  0  0
 53 54  2  0  0  0  0
 54 52  1  0  0  0  0
M  END
>  <MODEL>
7

>  <REMARK>
 VINA RESULT:      -6.5      1.732      2.453
  Name = 
  10 active torsions:
  status: ('A' for Active; 'I' for Inactive)
    1  A    between atoms: C_2  and  C_33
    2  A    between atoms: C_4  and  C_13
    3  A    between atoms: C_4  and  C_17
    4  A    between atoms: C_11  and  C_20
    5  A    between atoms: C_11  and  C_46
    6  A    between atoms: C_12  and  C_34
    7  A    between atoms: O_19  and  C_25
    8  A    between atoms: C_25  and  C_40
    9  A    between atoms: C_26  and  C_35
   10  A    between atoms: C_33  and  C_46
                            x       y       z     vdW  Elec       q    Type
                         _______ _______ _______ _____ _____    ______ ____

>  <TORSDO>
F 10

$$$$
=
 OpenBabel11042416313D

 54 59  0  0  1  0  0  0  0  0999 V2000
  189.1700  173.0820  139.3580 C   0  0  2  0  0  3  0  0  0  0  0  0
  190.3760  170.9140  138.7210 C   0  0  0  0  0  2  0  0  0  0  0  0
  188.0960  175.3800  140.8380 C   0  0  2  0  0  3  0  0  0  0  0  0
  188.5670  174.2910  138.6380 C   0  0  0  0  0  2  0  0  0  0  0  0
  191.5000  171.6880  140.9280 C   0  0  0  0  0  2  0  0  0  0  0  0
  191.2270  170.5310  139.9480 C   0  0  2  0  0  3  0  0  0  0  0  0
  191.1590  173.0680  137.8800 C   0  0  0  0  0  2  0  0  0  0  0  0
  187.4980  174.9430  139.5030 C   0  0  0  0  0  2  0  0  0  0  0  0
  189.7340  173.4690  140.7390 C   0  0  2  0  0  3  0  0  0  0  0  0
  190.2100  172.2440  141.5160 C   0  0  0  0  0  2  0  0  0  0  0  0
  188.6560  174.1640  141.5700 C   0  0  0  0  0  2  0  0  0  0  0  0
  190.1970  172.3850  138.5070 C   0  0  0  0  0  0  0  0  0  0  0  0
  194.2270  171.3060  138.8570 C   0  0  2  0  0  3  0  0  0  0  0  0
  192.5270  169.8210  139.5140 C   0  0  1  0  0  3  0  0  0  0  0  0
  192.7660  168.1690  141.9590 O   0  0  0  0  0  0  0  0  0  0  0  0
  193.1090  170.5020  138.3550 N   0  0  0  0  0  2  0  0  0  0  0  0
  196.5720  170.7980  144.3360 C   0  0  0  0  0  2  0  0  0  0  0  0
  197.6280  170.3330  143.3440 C   0  0  0  0  0  2  0  0  0  0  0  0
  193.5300  169.8830  140.5700 N   0  0  0  0  0  0  0  0  0  0  0  0
  193.9640  169.9010  143.0740 C   0  0  0  0  0  2  0  0  0  0  0  0
  197.1590  170.5580  141.9860 N   0  0  0  0  0  2  0  0  0  0  0  0
  195.8920  169.8540  139.9170 C   0  0  0  0  0  2  0  0  0  0  0  0
  193.4000  169.2520  141.8520 C   0  0  0  0  0  0  0  0  0  0  0  0
  194.6540  170.7110  140.1800 C   0  0  1  0  0  3  0  0  0  0  0  0
  195.7410  169.6350  144.8800 C   0  0  2  0  0  3  0  0  0  0  0  0
  196.7240  168.3100  141.5220 O   0  0  0  0  0  0  0  0  0  0  0  0
  196.6100  169.5170  141.1770 C   0  0  0  0  0  0  0  0  0  0  0  0
  194.8850  168.9400  143.8180 C   0  0  0  0  0  2  0  0  0  0  0  0
  194.5440  171.2580  146.1730 O   0  0  0  0  0  0  0  0  0  0  0  0
  194.9230  170.0590  146.0570 C   0  0  0  0  0  0  0  0  0  0  0  0
  194.5740  169.1090  147.0170 O   0  0  0  0  0  0  0  0  0  0  0  0
  195.5450  168.2850  147.6430 C   0  0  0  0  0  1  0  0  0  0  0  0
  193.7790  172.7480  139.0680 C   0  0  0  0  0  2  0  0  0  0  0  0
  194.2400  173.2690  140.4210 C   0  0  0  0  0  2  0  0  0  0  0  0
  193.8350  174.7220  140.5930 C   0  0  0  0  0  2  0  0  0  0  0  0
  193.0910  174.9170  141.9010 C   0  0  0  0  0  2  0  0  0  0  0  0
  193.9160  174.3990  143.0640 C   0  0  0  0  0  1  0  0  0  0  0  0
  187.0160  176.0210  141.6920 C   0  0  0  0  0  2  0  0  0  0  0  0
  191.5620  176.6410  145.3350 O   0  0  0  0  0  1  0  0  0  0  0  0
  186.5040  177.1120  143.8840 C   0  0  0  0  0  0  0  0  0  0  0  0
  190.6400  177.2920  144.5070 C   0  0  1  0  0  0  0  0  0  0  0  0
  191.1680  178.3440  143.5450 C   0  0  0  0  0  1  0  0  0  0  0  0
  187.5180  176.3210  143.1000 C   0  0  2  0  0  3  0  0  0  0  0  0
  186.2920  176.7940  145.3320 C   0  0  0  0  0  2  0  0  0  0  0  0
  186.7730  177.9590  146.1870 C   0  0  2  0  0  3  0  0  0  0  0  0
  189.3980  176.5800  144.2310 C   0  0  1  0  0  3  0  0  0  0  0  0
  185.9190  178.0550  143.3720 O   0  0  0  0  0  0  0  0  0  0  0  0
  187.9020  177.5760  147.1530 C   0  0  0  0  0  2  0  0  0  0  0  0
  189.3960  177.7040  145.1940 N   0  0  1  0  0  0  0  0  0  0  0  0
  189.1710  177.0480  146.4770 C   0  0  0  0  0  2  0  0  0  0  0  0
  188.7460  176.9970  143.0660 O   0  0  0  0  0  0  0  0  0  0  0  0
  185.8270  179.5320  147.7060 O   0  0  0  0  0  1  0  0  0  0  0  0
  184.3330  178.0880  146.7370 O   0  0  0  0  0  0  0  0  0  0  0  0
  185.6270  178.5630  146.9270 C   0  0  0  0  0  0  0  0  0  0  0  0
  1  4  1  6  0  0  0
  1  9  1  0  0  0  0
  3 11  1  0  0  0  0
  3 38  1  1  0  0  0
  4  8  1  0  0  0  0
  5 10  1  0  0  0  0
  6  2  1  6  0  0  0
  6  5  1  0  0  0  0
  7 12  2  0  0  0  0
  8  3  1  0  0  0  0
  9 10  1  1  0  0  0
  9 11  1  0  0  0  0
 12  2  1  0  0  0  0
 12  1  1  0  0  0  0
 13 33  1  1  0  0  0
 13 24  1  0  0  0  0
 14 16  1  6  0  0  0
 14  6  1  0  0  0  0
 14 19  1  0  0  0  0
 16 13  1  0  0  0  0
 17 25  1  0  0  0  0
 18 17  1  0  0  0  0
 19 23  1  0  0  0  0
 20 28  1  0  0  0  0
 21 18  1  0  0  0  0
 22 27  1  0  0  0  0
 23 15  2  0  0  0  0
 23 20  1  0  0  0  0
 24 22  1  6  0  0  0
 24 19  1  0  0  0  0
 25 30  1  1  0  0  0
 27 26  2  0  0  0  0
 27 21  1  0  0  0  0
 28 25  1  0  0  0  0
 30 29  2  0  0  0  0
 30 31  1  0  0  0  0
 31 32  1  0  0  0  0
 33 34  1  0  0  0  0
 34 35  1  0  0  0  0
 35 36  1  0  0  0  0
 36 37  1  0  0  0  0
 40 44  1  0  0  0  0
 41 42  1  6  0  0  0
 41 49  1  0  0  0  0
 41 39  1  0  0  0  0
 43 38  1  6  0  0  0
 43 40  1  0  0  0  0
 44 45  1  0  0  0  0
 45 54  1  1  0  0  0
 45 48  1  0  0  0  0
 46 51  1  6  0  0  0
 46 41  1  0  0  0  0
 46 49  1  0  0  0  0
 47 40  2  0  0  0  0
 49 50  1  1  0  0  0
 50 48  1  0  0  0  0
 51 43  1  0  0  0  0
 53 54  2  0  0  0  0
 54 52  1  0  0  0  0
M  END
>  <MODEL>
8

>  <REMARK>
 VINA RESULT:      -6.5      3.325      6.573
  Name = 
  10 active torsions:
  status: ('A' for Active; 'I' for Inactive)
    1  A    between atoms: C_2  and  C_33
    2  A    between atoms: C_4  and  C_13
    3  A    between atoms: C_4  and  C_17
    4  A    between atoms: C_11  and  C_20
    5  A    between atoms: C_11  and  C_46
    6  A    between atoms: C_12  and  C_34
    7  A    between atoms: O_19  and  C_25
    8  A    between atoms: C_25  and  C_40
    9  A    between atoms: C_26  and  C_35
   10  A    between atoms: C_33  and  C_46
                            x       y       z     vdW  Elec       q    Type
                         _______ _______ _______ _____ _____    ______ ____

>  <TORSDO>
F 10

$$$$
=
 OpenBabel11042416313D

 54 59  0  0  1  0  0  0  0  0999 V2000
  192.9870  176.3490  145.8160 C   0  0  2  0  0  3  0  0  0  0  0  0
  195.0220  176.7680  144.3180 C   0  0  0  0  0  2  0  0  0  0  0  0
  190.3880  175.4660  146.8580 C   0  0  2  0  0  3  0  0  0  0  0  0
  192.6450  176.4400  147.3060 C   0  0  0  0  0  2  0  0  0  0  0  0
  193.8270  174.7140  143.2750 C   0  0  0  0  0  2  0  0  0  0  0  0
  194.8210  175.8750  143.0780 C   0  0  2  0  0  3  0  0  0  0  0  0
  195.1970  175.3300  146.2840 C   0  0  0  0  0  2  0  0  0  0  0  0
  191.1460  176.6280  147.4940 C   0  0  0  0  0  2  0  0  0  0  0  0
  192.1970  175.2240  145.1220 C   0  0  2  0  0  3  0  0  0  0  0  0
  192.4310  175.2200  143.6130 C   0  0  0  0  0  2  0  0  0  0  0  0
  190.6990  175.4070  145.3640 C   0  0  0  0  0  2  0  0  0  0  0  0
  194.4700  176.2150  145.5950 C   0  0  0  0  0  0  0  0  0  0  0  0
  196.9190  173.3840  143.5100 C   0  0  2  0  0  3  0  0  0  0  0  0
  196.1780  175.3870  142.5270 C   0  0  1  0  0  3  0  0  0  0  0  0
  195.3800  175.5190  139.6790 O   0  0  0  0  0  0  0  0  0  0  0  0
  196.9970  174.8440  143.6140 N   0  0  0  0  0  2  0  0  0  0  0  0
  194.7070  170.4380  138.7980 C   0  0  0  0  0  2  0  0  0  0  0  0
  196.1990  170.1430  138.8590 C   0  0  0  0  0  2  0  0  0  0  0  0
  195.9910  174.3000  141.5740 N   0  0  0  0  0  0  0  0  0  0  0  0
  194.5050  173.3040  139.7690 C   0  0  0  0  0  2  0  0  0  0  0  0
  196.7650  170.7290  140.0640 N   0  0  0  0  0  2  0  0  0  0  0  0
  197.7910  172.6530  141.3390 C   0  0  0  0  0  2  0  0  0  0  0  0
  195.3210  174.4310  140.3120 C   0  0  0  0  0  0  0  0  0  0  0  0
  196.5210  173.0520  142.0890 C   0  0  1  0  0  3  0  0  0  0  0  0
  194.3900  171.6100  137.8690 C   0  0  2  0  0  3  0  0  0  0  0  0
  197.8580  172.4810  138.9690 O   0  0  0  0  0  0  0  0  0  0  0  0
  197.4830  171.9640  140.0560 C   0  0  0  0  0  0  0  0  0  0  0  0
  194.9510  172.9490  138.3540 C   0  0  0  0  0  2  0  0  0  0  0  0
  192.1470  170.7710  137.9590 O   0  0  0  0  0  0  0  0  0  0  0  0
  192.9240  171.6960  137.5870 C   0  0  0  0  0  0  0  0  0  0  0  0
  192.4270  172.8150  136.9220 O   0  0  0  0  0  0  0  0  0  0  0  0
  192.4390  172.9140  135.5060 C   0  0  0  0  0  1  0  0  0  0  0  0
  195.8660  172.8470  144.4720 C   0  0  0  0  0  2  0  0  0  0  0  0
  196.5090  172.3290  145.7500 C   0  0  0  0  0  2  0  0  0  0  0  0
  196.4760  170.8110  145.7800 C   0  0  0  0  0  2  0  0  0  0  0  0
  196.9980  170.2400  144.4750 C   0  0  0  0  0  2  0  0  0  0  0  0
  196.2700  168.9540  144.1300 C   0  0  0  0  0  1  0  0  0  0  0  0
  188.8950  175.6700  147.0470 C   0  0  0  0  0  2  0  0  0  0  0  0
  188.5280  176.0210  141.2100 O   0  0  0  0  0  1  0  0  0  0  0  0
  186.9160  176.9180  146.1600 C   0  0  0  0  0  0  0  0  0  0  0  0
  187.9820  175.4760  142.3770 C   0  0  1  0  0  0  0  0  0  0  0  0
  187.6630  173.9890  142.3860 C   0  0  0  0  0  1  0  0  0  0  0  0
  188.2580  176.3210  145.8240 C   0  0  2  0  0  3  0  0  0  0  0  0
  186.5330  178.2350  145.5590 C   0  0  0  0  0  2  0  0  0  0  0  0
  185.3760  178.0350  144.5870 C   0  0  2  0  0  3  0  0  0  0  0  0
  188.2540  176.1900  143.6180 C   0  0  1  0  0  3  0  0  0  0  0  0
  186.1150  176.3030  146.8490 O   0  0  0  0  0  0  0  0  0  0  0  0
  185.7150  178.4500  143.1490 C   0  0  0  0  0  2  0  0  0  0  0  0
  186.9180  176.3020  142.9910 N   0  0  1  0  0  0  0  0  0  0  0  0
  186.8810  177.6820  142.5200 C   0  0  0  0  0  2  0  0  0  0  0  0
  188.1350  175.4050  144.7690 O   0  0  0  0  0  0  0  0  0  0  0  0
  184.0380  179.0090  146.3010 O   0  0  0  0  0  1  0  0  0  0  0  0
  183.1890  179.1860  144.1790 O   0  0  0  0  0  0  0  0  0  0  0  0
  184.1640  178.7570  145.0740 C   0  0  0  0  0  0  0  0  0  0  0  0
  1  4  1  1  0  0  0
  2 12  1  0  0  0  0
  3 38  1  6  0  0  0
  3  8  1  0  0  0  0
  4  8  1  0  0  0  0
  5 10  1  0  0  0  0
  6  5  1  1  0  0  0
  6  2  1  0  0  0  0
  9 10  1  6  0  0  0
  9 11  1  0  0  0  0
  9  1  1  0  0  0  0
 11  3  1  0  0  0  0
 12  1  1  0  0  0  0
 12  7  2  0  0  0  0
 13 16  1  0  0  0  0
 13 33  1  1  0  0  0
 14  6  1  0  0  0  0
 14 16  1  1  0  0  0
 15 23  2  0  0  0  0
 17 18  1  0  0  0  0
 18 21  1  0  0  0  0
 19 24  1  0  0  0  0
 19 14  1  0  0  0  0
 20 23  1  0  0  0  0
 23 19  1  0  0  0  0
 24 22  1  6  0  0  0
 24 13  1  0  0  0  0
 25 30  1  1  0  0  0
 25 28  1  0  0  0  0
 25 17  1  0  0  0  0
 26 27  2  0  0  0  0
 27 21  1  0  0  0  0
 27 22  1  0  0  0  0
 28 20  1  0  0  0  0
 30 29  2  0  0  0  0
 31 30  1  0  0  0  0
 32 31  1  0  0  0  0
 33 34  1  0  0  0  0
 34 35  1  0  0  0  0
 36 35  1  0  0  0  0
 37 36  1  0  0  0  0
 39 41  1  0  0  0  0
 40 47  2  0  0  0  0
 41 42  1  1  0  0  0
 41 49  1  0  0  0  0
 41 46  1  0  0  0  0
 43 40  1  0  0  0  0
 43 38  1  1  0  0  0
 44 40  1  0  0  0  0
 45 54  1  1  0  0  0
 45 44  1  0  0  0  0
 46 51  1  1  0  0  0
 48 45  1  0  0  0  0
 49 50  1  6  0  0  0
 49 46  1  0  0  0  0
 50 48  1  0  0  0  0
 51 43  1  0  0  0  0
 53 54  2  0  0  0  0
 54 52  1  0  0  0  0
M  END
>  <MODEL>
9

>  <REMARK>
 VINA RESULT:      -6.4      1.951      2.622
  Name = 
  10 active torsions:
  status: ('A' for Active; 'I' for Inactive)
    1  A    between atoms: C_2  and  C_33
    2  A    between atoms: C_4  and  C_13
    3  A    between atoms: C_4  and  C_17
    4  A    between atoms: C_11  and  C_20
    5  A    between atoms: C_11  and  C_46
    6  A    between atoms: C_12  and  C_34
    7  A    between atoms: O_19  and  C_25
    8  A    between atoms: C_25  and  C_40
    9  A    between atoms: C_26  and  C_35
   10  A    between atoms: C_33  and  C_46
                            x       y       z     vdW  Elec       q    Type
                         _______ _______ _______ _____ _____    ______ ____

>  <TORSDO>
F 10

$$$$
