=
 OpenBabel11042419563D

 41 46  0  0  1  0  0  0  0  0999 V2000
  188.2940  173.9720  141.3880 C   0  0  0  0  0  3  0  0  0  0  0  0
  193.1680  174.1240  143.2850 C   0  0  0  0  0  0  0  0  0  0  0  0
  191.0220  175.2630  143.3820 C   0  0  0  0  0  0  0  0  0  0  0  0
  190.3780  174.1190  142.8430 C   0  0  0  0  0  0  0  0  0  0  0  0
  188.9520  174.2200  142.6310 N   0  0  0  0  0  2  0  0  0  0  0  0
  190.0680  171.2960  141.0910 N   0  0  0  0  0  0  0  0  0  0  0  0
  188.8710  173.1580  140.5770 C   0  0  0  0  0  0  0  0  0  0  0  0
  194.6250  174.0390  143.5820 C   0  0  0  0  0  1  0  0  0  0  0  0
  191.1670  172.9620  142.5170 C   0  0  0  0  0  0  0  0  0  0  0  0
  192.4140  175.2630  143.6060 C   0  0  0  0  0  0  0  0  0  0  0  0
  190.6640  171.6490  142.1690 N   0  0  0  0  0  0  0  0  0  0  0  0
  189.5820  172.1980  140.0990 C   0  0  0  0  0  0  0  0  0  0  0  0
  192.5380  172.9990  142.7680 C   0  0  0  0  0  3  0  0  0  0  0  0
  190.1350  170.4360  138.4780 C   0  0  0  0  0  2  0  0  0  0  0  0
  189.3370  171.7060  138.7100 C   0  0  0  0  0  3  0  0  0  0  0  0
  190.6220  171.7460  137.9010 C   0  0  0  0  0  2  0  0  0  0  0  0
  189.6870  177.1590  142.5430 C   0  0  1  0  0  3  0  0  0  0  0  0
  190.7990  177.6530  143.2400 O   0  0  0  0  0  0  0  0  0  0  0  0
  190.2070  176.4800  143.7560 C   0  0  2  0  0  3  0  0  0  0  0  0
  188.4880  177.9670  142.8970 C   0  0  0  0  0  3  0  0  0  0  0  0
  187.5080  178.1280  142.0120 C   0  0  0  0  0  3  0  0  0  0  0  0
  183.8990  178.2240  142.6890 O   0  0  0  0  0  0  0  0  0  0  0  0
  183.9850  178.4070  144.0600 N   0  0  0  0  0  2  0  0  0  0  0  0
  186.2690  179.1820  143.8560 C   0  0  0  0  0  2  0  0  0  0  0  0
  185.0260  178.2800  141.8600 C   0  0  0  0  0  0  0  0  0  0  0  0
  186.2950  178.9380  142.3480 C   0  0  2  0  0  3  0  0  0  0  0  0
  184.8670  179.5390  144.3300 C   0  0  0  0  0  2  0  0  0  0  0  0
  184.9330  177.8900  140.6670 O   0  0  0  0  0  0  0  0  0  0  0  0
  193.0170  176.3870  144.1880 O   0  0  0  0  0  0  0  0  0  0  0  0
  193.4580  176.4330  145.5150 C   0  0  0  0  0  0  0  0  0  0  0  0
  194.4410  177.1490  145.8480 O   0  0  0  0  0  0  0  0  0  0  0  0
  192.7540  175.6280  146.5460 C   0  0  0  0  0  2  0  0  0  0  0  0
  191.9710  176.5480  147.4650 C   0  0  0  0  0  2  0  0  0  0  0  0
  190.5060  176.3300  147.2940 C   0  0  0  0  0  0  0  0  0  0  0  0
  189.9220  175.1460  147.2290 C   0  0  0  0  0  2  0  0  0  0  0  0
  189.5030  177.4120  147.1120 C   0  0  0  0  0  3  0  0  0  0  0  0
  188.5250  175.3040  147.0240 N   0  0  0  0  0  0  0  0  0  0  0  0
  188.2820  176.5720  146.9580 C   0  0  0  0  0  0  0  0  0  0  0  0
  186.0970  176.4820  146.0490 O   0  0  0  0  0  0  0  0  0  0  0  0
  186.9340  177.1100  146.7510 C   0  0  0  0  0  0  0  0  0  0  0  0
  186.5710  178.3180  147.3320 O   0  0  0  0  0  1  0  0  0  0  0  0
  1  5  1  0  0  0  0
  2  8  1  0  0  0  0
  2 10  1  0  0  0  0
  3 10  2  0  0  0  0
  4  3  1  0  0  0  0
  5  4  1  0  0  0  0
  6 11  2  0  0  0  0
  7  1  2  0  0  0  0
  9 13  1  0  0  0  0
  9  4  2  0  0  0  0
 10 29  1  0  0  0  0
 11  9  1  0  0  0  0
 12  7  2  0  0  0  0
 12  6  1  0  0  0  0
 13  2  2  0  0  0  0
 14 15  1  0  0  0  0
 15 12  1  0  0  0  0
 16 14  1  0  0  0  0
 16 15  1  0  0  0  0
 17 20  1  1  0  0  0
 17 18  1  0  0  0  0
 17 19  1  0  0  0  0
 18 19  1  0  0  0  0
 19  3  1  6  0  0  0
 21 20  2  0  0  0  0
 22 23  1  0  0  0  0
 23 27  1  0  0  0  0
 24 27  1  0  0  0  0
 25 26  1  0  0  0  0
 25 22  1  0  0  0  0
 26 21  1  1  0  0  0
 26 24  1  0  0  0  0
 28 25  2  0  0  0  0
 29 30  1  0  0  0  0
 30 31  2  0  0  0  0
 30 32  1  0  0  0  0
 32 33  1  0  0  0  0
 34 33  1  0  0  0  0
 35 34  1  0  0  0  0
 36 34  2  0  0  0  0
 37 35  1  0  0  0  0
 38 37  2  0  0  0  0
 38 36  1  0  0  0  0
 39 40  2  0  0  0  0
 40 38  1  0  0  0  0
 40 41  1  0  0  0  0
M  END
>  <MODEL>
1

>  <REMARK>
 VINA RESULT:      -7.7      0.000      0.000
  Name = 
  10 active torsions:
  status: ('A' for Active; 'I' for Inactive)
    1  A    between atoms: C_3  and  C_4
    2  A    between atoms: C_3  and  C_28
    3  A    between atoms: C_7  and  C_28
    4  A    between atoms: C_7  and  O_40
    5  A    between atoms: C_10  and  C_39
    6  A    between atoms: C_20  and  C_33
    7  A    between atoms: CA_21  and  C_36
    8  A    between atoms: C_22  and  C_30
    9  A    between atoms: C_25  and  C_35
   10  A    between atoms: C_27  and  O_40
                            x       y       z     vdW  Elec       q    Type
                         _______ _______ _______ _____ _____    ______ ____

>  <TORSDO>
F 10

$$$$
=
 OpenBabel11042419563D

 41 46  0  0  1  0  0  0  0  0999 V2000
  194.4710  176.2290  146.1840 C   0  0  0  0  0  3  0  0  0  0  0  0
  192.3270  174.6340  141.6860 C   0  0  0  0  0  0  0  0  0  0  0  0
  191.8930  175.9870  143.6580 C   0  0  0  0  0  0  0  0  0  0  0  0
  193.2830  176.0420  143.9400 C   0  0  0  0  0  0  0  0  0  0  0  0
  193.6730  176.7660  145.1280 N   0  0  0  0  0  2  0  0  0  0  0  0
  196.4670  175.0450  143.9470 N   0  0  0  0  0  0  0  0  0  0  0  0
  195.2880  175.2860  145.8740 C   0  0  0  0  0  0  0  0  0  0  0  0
  191.8870  173.9540  140.4350 C   0  0  0  0  0  1  0  0  0  0  0  0
  194.2000  175.3620  143.0660 C   0  0  0  0  0  0  0  0  0  0  0  0
  191.4180  175.2880  142.5300 C   0  0  0  0  0  0  0  0  0  0  0  0
  195.6430  175.4860  143.0710 N   0  0  0  0  0  0  0  0  0  0  0  0
  196.0960  174.5250  145.2230 C   0  0  0  0  0  0  0  0  0  0  0  0
  193.6890  174.6950  141.9540 C   0  0  0  0  0  3  0  0  0  0  0  0
  197.6170  172.6100  144.9980 C   0  0  0  0  0  2  0  0  0  0  0  0
  197.0380  173.6310  145.9590 C   0  0  0  0  0  3  0  0  0  0  0  0
  196.5210  172.2030  145.9570 C   0  0  0  0  0  2  0  0  0  0  0  0
  189.9360  177.4850  143.7400 C   0  0  1  0  0  3  0  0  0  0  0  0
  191.0210  178.1110  144.3700 O   0  0  0  0  0  0  0  0  0  0  0  0
  190.9140  176.7160  144.5490 C   0  0  2  0  0  3  0  0  0  0  0  0
  188.7020  177.7210  144.5390 C   0  0  0  0  0  3  0  0  0  0  0  0
  187.6640  176.8970  144.4200 C   0  0  0  0  0  3  0  0  0  0  0  0
  186.1020  177.9730  147.5650 O   0  0  0  0  0  0  0  0  0  0  0  0
  185.6270  179.1950  147.1130 N   0  0  0  0  0  2  0  0  0  0  0  0
  185.8090  178.4630  144.8140 C   0  0  0  0  0  2  0  0  0  0  0  0
  186.6660  177.0300  146.6990 C   0  0  0  0  0  0  0  0  0  0  0  0
  186.4140  177.1170  145.2130 C   0  0  2  0  0  3  0  0  0  0  0  0
  184.8630  178.9790  145.8880 C   0  0  0  0  0  2  0  0  0  0  0  0
  187.2800  176.0410  147.1800 O   0  0  0  0  0  0  0  0  0  0  0  0
  190.0450  175.2930  142.2440 O   0  0  0  0  0  0  0  0  0  0  0  0
  189.1930  174.2150  142.5040 C   0  0  0  0  0  0  0  0  0  0  0  0
  188.2830  173.8960  141.6910 O   0  0  0  0  0  0  0  0  0  0  0  0
  189.3670  173.4330  143.7550 C   0  0  0  0  0  2  0  0  0  0  0  0
  189.3340  171.9490  143.4380 C   0  0  0  0  0  2  0  0  0  0  0  0
  190.6860  171.4740  143.0270 C   0  0  0  0  0  0  0  0  0  0  0  0
  190.9360  170.7490  141.9510 C   0  0  0  0  0  3  0  0  0  0  0  0
  191.9340  171.6960  143.8020 C   0  0  0  0  0  2  0  0  0  0  0  0
  192.3210  170.4390  141.8850 N   0  0  0  0  0  0  0  0  0  0  0  0
  192.8880  170.9670  142.9190 C   0  0  0  0  0  0  0  0  0  0  0  0
  195.1320  171.6880  142.6970 O   0  0  0  0  0  0  0  0  0  0  0  0
  194.3260  170.8500  143.1800 C   0  0  0  0  0  0  0  0  0  0  0  0
  194.8080  169.8090  143.9640 O   0  0  0  0  0  1  0  0  0  0  0  0
  2 13  2  0  0  0  0
  2 10  1  0  0  0  0
  3  4  1  0  0  0  0
  4  5  1  0  0  0  0
  5  1  1  0  0  0  0
  6 12  1  0  0  0  0
  7  1  2  0  0  0  0
  8  2  1  0  0  0  0
  9 11  1  0  0  0  0
  9  4  2  0  0  0  0
 10  3  2  0  0  0  0
 11  6  2  0  0  0  0
 12  7  2  0  0  0  0
 12 15  1  0  0  0  0
 13  9  1  0  0  0  0
 14 16  1  0  0  0  0
 14 15  1  0  0  0  0
 16 15  1  0  0  0  0
 17 18  1  0  0  0  0
 17 20  1  1  0  0  0
 17 19  1  0  0  0  0
 18 19  1  0  0  0  0
 19  3  1  6  0  0  0
 21 20  2  0  0  0  0
 23 22  1  0  0  0  0
 24 26  1  0  0  0  0
 24 27  1  0  0  0  0
 25 28  2  0  0  0  0
 25 22  1  0  0  0  0
 26 21  1  6  0  0  0
 26 25  1  0  0  0  0
 27 23  1  0  0  0  0
 29 30  1  0  0  0  0
 29 10  1  0  0  0  0
 30 32  1  0  0  0  0
 31 30  2  0  0  0  0
 33 32  1  0  0  0  0
 34 33  1  0  0  0  0
 34 36  1  0  0  0  0
 35 34  2  0  0  0  0
 37 35  1  0  0  0  0
 37 38  2  0  0  0  0
 38 40  1  0  0  0  0
 38 36  1  0  0  0  0
 39 40  2  0  0  0  0
 40 41  1  0  0  0  0
M  END
>  <MODEL>
2

>  <REMARK>
 VINA RESULT:      -7.5      2.973      6.453
  Name = 
  10 active torsions:
  status: ('A' for Active; 'I' for Inactive)
    1  A    between atoms: C_3  and  C_4
    2  A    between atoms: C_3  and  C_28
    3  A    between atoms: C_7  and  C_28
    4  A    between atoms: C_7  and  O_40
    5  A    between atoms: C_10  and  C_39
    6  A    between atoms: C_20  and  C_33
    7  A    between atoms: CA_21  and  C_36
    8  A    between atoms: C_22  and  C_30
    9  A    between atoms: C_25  and  C_35
   10  A    between atoms: C_27  and  O_40
                            x       y       z     vdW  Elec       q    Type
                         _______ _______ _______ _____ _____    ______ ____

>  <TORSDO>
F 10

$$$$
=
 OpenBabel11042419563D

 41 46  0  0  1  0  0  0  0  0999 V2000
  188.5250  174.6290  141.3330 C   0  0  0  0  0  3  0  0  0  0  0  0
  193.7550  174.5550  141.2400 C   0  0  0  0  0  0  0  0  0  0  0  0
  191.8590  175.3770  142.5200 C   0  0  0  0  0  0  0  0  0  0  0  0
  191.0050  174.4440  141.8750 C   0  0  0  0  0  0  0  0  0  0  0  0
  189.6100  174.4790  142.2500 N   0  0  0  0  0  2  0  0  0  0  0  0
  189.9260  172.4140  139.4560 N   0  0  0  0  0  0  0  0  0  0  0  0
  188.7160  174.2150  140.1320 C   0  0  0  0  0  0  0  0  0  0  0  0
  195.2120  174.5080  140.9320 C   0  0  0  0  0  1  0  0  0  0  0  0
  191.5580  173.5590  140.8860 C   0  0  0  0  0  0  0  0  0  0  0  0
  193.2320  175.4280  142.2050 C   0  0  0  0  0  0  0  0  0  0  0  0
  190.8990  172.4160  140.2910 N   0  0  0  0  0  0  0  0  0  0  0  0
  189.1510  173.5610  139.1120 C   0  0  0  0  0  0  0  0  0  0  0  0
  192.9240  173.6340  140.6160 C   0  0  0  0  0  3  0  0  0  0  0  0
  189.1350  172.7790  136.7830 C   0  0  0  0  0  2  0  0  0  0  0  0
  188.3810  173.5740  137.8320 C   0  0  0  0  0  3  0  0  0  0  0  0
  189.1700  174.2900  136.7500 C   0  0  0  0  0  2  0  0  0  0  0  0
  190.3510  177.2710  142.9890 C   0  0  1  0  0  3  0  0  0  0  0  0
  191.6650  177.6370  143.3170 O   0  0  0  0  0  0  0  0  0  0  0  0
  191.3030  176.2980  143.5810 C   0  0  2  0  0  3  0  0  0  0  0  0
  189.4260  177.7700  144.0420 C   0  0  0  0  0  3  0  0  0  0  0  0
  188.1090  177.6680  143.8760 C   0  0  0  0  0  3  0  0  0  0  0  0
  184.7230  177.6370  145.2970 O   0  0  0  0  0  0  0  0  0  0  0  0
  185.0090  176.8590  146.4080 N   0  0  0  0  0  2  0  0  0  0  0  0
  187.3690  177.3520  146.1990 C   0  0  0  0  0  2  0  0  0  0  0  0
  185.7270  178.1190  144.4500 C   0  0  0  0  0  0  0  0  0  0  0  0
  187.1610  178.1650  144.9210 C   0  0  2  0  0  3  0  0  0  0  0  0
  186.1510  177.4380  147.1080 C   0  0  0  0  0  2  0  0  0  0  0  0
  185.4080  178.6260  143.3420 O   0  0  0  0  0  0  0  0  0  0  0  0
  194.0630  176.3230  142.8940 O   0  0  0  0  0  0  0  0  0  0  0  0
  194.7060  176.0170  144.0970 C   0  0  0  0  0  0  0  0  0  0  0  0
  195.3400  174.9350  144.2380 O   0  0  0  0  0  0  0  0  0  0  0  0
  194.6440  176.9830  145.2240 C   0  0  0  0  0  2  0  0  0  0  0  0
  194.4110  176.2360  146.5250 C   0  0  0  0  0  2  0  0  0  0  0  0
  192.9520  176.0490  146.7630 C   0  0  0  0  0  0  0  0  0  0  0  0
  192.1660  176.9270  147.3630 C   0  0  0  0  0  2  0  0  0  0  0  0
  192.1860  174.8230  146.4170 C   0  0  0  0  0  3  0  0  0  0  0  0
  190.8460  176.4110  147.4590 N   0  0  0  0  0  0  0  0  0  0  0  0
  190.8480  175.2320  146.9300 C   0  0  0  0  0  0  0  0  0  0  0  0
  188.7410  174.4990  147.7230 O   0  0  0  0  0  1  0  0  0  0  0  0
  189.6460  174.3970  146.8520 C   0  0  0  0  0  0  0  0  0  0  0  0
  189.4980  173.4860  145.8140 O   0  0  0  0  0  0  0  0  0  0  0  0
  1  5  1  0  0  0  0
  2 10  1  0  0  0  0
  4  5  1  0  0  0  0
  4  3  1  0  0  0  0
  6 11  2  0  0  0  0
  7  1  2  0  0  0  0
  8  2  1  0  0  0  0
  9  4  2  0  0  0  0
 10  3  2  0  0  0  0
 10 29  1  0  0  0  0
 11  9  1  0  0  0  0
 12  6  1  0  0  0  0
 12  7  2  0  0  0  0
 13  9  1  0  0  0  0
 13  2  2  0  0  0  0
 14 15  1  0  0  0  0
 15 12  1  0  0  0  0
 16 14  1  0  0  0  0
 16 15  1  0  0  0  0
 17 18  1  0  0  0  0
 17 19  1  0  0  0  0
 17 20  1  1  0  0  0
 18 19  1  0  0  0  0
 19  3  1  6  0  0  0
 21 20  2  0  0  0  0
 22 23  1  0  0  0  0
 23 27  1  0  0  0  0
 24 27  1  0  0  0  0
 25 26  1  0  0  0  0
 25 22  1  0  0  0  0
 26 21  1  6  0  0  0
 26 24  1  0  0  0  0
 28 25  2  0  0  0  0
 29 30  1  0  0  0  0
 30 31  2  0  0  0  0
 30 32  1  0  0  0  0
 32 33  1  0  0  0  0
 33 34  1  0  0  0  0
 34 35  1  0  0  0  0
 35 37  1  0  0  0  0
 36 34  2  0  0  0  0
 36 38  1  0  0  0  0
 38 37  2  0  0  0  0
 40 38  1  0  0  0  0
 40 39  1  0  0  0  0
 41 40  2  0  0  0  0
M  END
>  <MODEL>
3

>  <REMARK>
 VINA RESULT:      -7.4      1.894      2.579
  Name = 
  10 active torsions:
  status: ('A' for Active; 'I' for Inactive)
    1  A    between atoms: C_3  and  C_4
    2  A    between atoms: C_3  and  C_28
    3  A    between atoms: C_7  and  C_28
    4  A    between atoms: C_7  and  O_40
    5  A    between atoms: C_10  and  C_39
    6  A    between atoms: C_20  and  C_33
    7  A    between atoms: CA_21  and  C_36
    8  A    between atoms: C_22  and  C_30
    9  A    between atoms: C_25  and  C_35
   10  A    between atoms: C_27  and  O_40
                            x       y       z     vdW  Elec       q    Type
                         _______ _______ _______ _____ _____    ______ ____

>  <TORSDO>
F 10

$$$$
=
 OpenBabel11042419563D

 41 46  0  0  1  0  0  0  0  0999 V2000
  188.7240  174.3100  142.0770 C   0  0  0  0  0  3  0  0  0  0  0  0
  193.9130  174.7230  141.5540 C   0  0  0  0  0  0  0  0  0  0  0  0
  192.0540  175.4090  142.9630 C   0  0  0  0  0  0  0  0  0  0  0  0
  191.2460  174.3780  142.4170 C   0  0  0  0  0  0  0  0  0  0  0  0
  189.8880  174.2960  142.9050 N   0  0  0  0  0  2  0  0  0  0  0  0
  190.1780  172.1700  140.1540 N   0  0  0  0  0  0  0  0  0  0  0  0
  188.8580  173.8730  140.8760 C   0  0  0  0  0  0  0  0  0  0  0  0
  195.3380  174.8010  141.1290 C   0  0  0  0  0  1  0  0  0  0  0  0
  191.8000  173.5140  141.4110 C   0  0  0  0  0  0  0  0  0  0  0  0
  193.3860  175.5770  142.5340 C   0  0  0  0  0  0  0  0  0  0  0  0
  191.2090  172.2930  140.9060 N   0  0  0  0  0  0  0  0  0  0  0  0
  189.2710  173.2260  139.8430 C   0  0  0  0  0  0  0  0  0  0  0  0
  193.1270  173.7060  141.0270 C   0  0  0  0  0  3  0  0  0  0  0  0
  189.2080  172.5310  137.4880 C   0  0  0  0  0  2  0  0  0  0  0  0
  188.4040  173.1210  138.6310 C   0  0  0  0  0  3  0  0  0  0  0  0
  188.9340  174.0170  137.5250 C   0  0  0  0  0  2  0  0  0  0  0  0
  190.5260  177.2770  143.4680 C   0  0  1  0  0  3  0  0  0  0  0  0
  191.8390  177.6580  143.7850 O   0  0  0  0  0  0  0  0  0  0  0  0
  191.4980  176.3120  144.0400 C   0  0  2  0  0  3  0  0  0  0  0  0
  189.6060  177.7530  144.5380 C   0  0  0  0  0  3  0  0  0  0  0  0
  188.2990  177.5260  144.4410 C   0  0  0  0  0  3  0  0  0  0  0  0
  184.8340  178.0000  145.5640 O   0  0  0  0  0  0  0  0  0  0  0  0
  184.8030  176.9540  146.4740 N   0  0  0  0  0  2  0  0  0  0  0  0
  187.2210  176.9020  146.5620 C   0  0  0  0  0  2  0  0  0  0  0  0
  186.0180  178.3990  144.9330 C   0  0  0  0  0  0  0  0  0  0  0  0
  187.3570  177.9970  145.5040 C   0  0  2  0  0  3  0  0  0  0  0  0
  185.9460  177.0780  147.3740 C   0  0  0  0  0  2  0  0  0  0  0  0
  185.9580  179.1940  143.9590 O   0  0  0  0  0  0  0  0  0  0  0  0
  194.1800  176.5700  143.1270 O   0  0  0  0  0  0  0  0  0  0  0  0
  195.1850  176.3060  144.0620 C   0  0  0  0  0  0  0  0  0  0  0  0
  196.4010  176.4890  143.7790 O   0  0  0  0  0  0  0  0  0  0  0  0
  194.8140  175.8060  145.4110 C   0  0  0  0  0  2  0  0  0  0  0  0
  195.5900  174.5390  145.7180 C   0  0  0  0  0  2  0  0  0  0  0  0
  194.9560  173.3660  145.0510 C   0  0  0  0  0  0  0  0  0  0  0  0
  195.5600  172.5760  144.1790 C   0  0  0  0  0  3  0  0  0  0  0  0
  193.5380  172.9560  145.2230 C   0  0  0  0  0  2  0  0  0  0  0  0
  194.6540  171.5860  143.7120 N   0  0  0  0  0  0  0  0  0  0  0  0
  193.5180  171.7920  144.2930 C   0  0  0  0  0  0  0  0  0  0  0  0
  191.1840  171.3940  144.2810 O   0  0  0  0  0  1  0  0  0  0  0  0
  192.3410  170.9530  144.0490 C   0  0  0  0  0  0  0  0  0  0  0  0
  192.4960  169.6630  143.5580 O   0  0  0  0  0  0  0  0  0  0  0  0
  1  5  1  0  0  0  0
  2 10  1  0  0  0  0
  4  5  1  0  0  0  0
  4  3  1  0  0  0  0
  6 11  2  0  0  0  0
  7  1  2  0  0  0  0
  8  2  1  0  0  0  0
  9  4  2  0  0  0  0
 10  3  2  0  0  0  0
 10 29  1  0  0  0  0
 11  9  1  0  0  0  0
 12  6  1  0  0  0  0
 12  7  2  0  0  0  0
 13  9  1  0  0  0  0
 13  2  2  0  0  0  0
 14 16  1  0  0  0  0
 14 15  1  0  0  0  0
 15 12  1  0  0  0  0
 16 15  1  0  0  0  0
 17 18  1  0  0  0  0
 17 19  1  0  0  0  0
 17 20  1  1  0  0  0
 18 19  1  0  0  0  0
 19  3  1  6  0  0  0
 21 20  2  0  0  0  0
 22 23  1  0  0  0  0
 23 27  1  0  0  0  0
 24 27  1  0  0  0  0
 25 26  1  0  0  0  0
 25 22  1  0  0  0  0
 26 21  1  6  0  0  0
 26 24  1  0  0  0  0
 28 25  2  0  0  0  0
 29 30  1  0  0  0  0
 30 32  1  0  0  0  0
 31 30  2  0  0  0  0
 32 33  1  0  0  0  0
 34 36  1  0  0  0  0
 34 33  1  0  0  0  0
 35 34  2  0  0  0  0
 37 35  1  0  0  0  0
 37 38  2  0  0  0  0
 38 36  1  0  0  0  0
 40 39  1  0  0  0  0
 40 38  1  0  0  0  0
 41 40  2  0  0  0  0
M  END
>  <MODEL>
4

>  <REMARK>
 VINA RESULT:      -7.3      2.277      4.077
  Name = 
  10 active torsions:
  status: ('A' for Active; 'I' for Inactive)
    1  A    between atoms: C_3  and  C_4
    2  A    between atoms: C_3  and  C_28
    3  A    between atoms: C_7  and  C_28
    4  A    between atoms: C_7  and  O_40
    5  A    between atoms: C_10  and  C_39
    6  A    between atoms: C_20  and  C_33
    7  A    between atoms: CA_21  and  C_36
    8  A    between atoms: C_22  and  C_30
    9  A    between atoms: C_25  and  C_35
   10  A    between atoms: C_27  and  O_40
                            x       y       z     vdW  Elec       q    Type
                         _______ _______ _______ _____ _____    ______ ____

>  <TORSDO>
F 10

$$$$
=
 OpenBabel11042419563D

 41 46  0  0  1  0  0  0  0  0999 V2000
  194.4160  176.0890  146.3540 C   0  0  0  0  0  3  0  0  0  0  0  0
  192.3610  174.5460  141.7960 C   0  0  0  0  0  0  0  0  0  0  0  0
  191.8620  175.8180  143.8070 C   0  0  0  0  0  0  0  0  0  0  0  0
  193.2460  175.9220  144.0980 C   0  0  0  0  0  0  0  0  0  0  0  0
  193.6000  176.6240  145.3100 N   0  0  0  0  0  2  0  0  0  0  0  0
  196.4700  175.0610  144.0920 N   0  0  0  0  0  0  0  0  0  0  0  0
  195.2730  175.1920  146.0190 C   0  0  0  0  0  0  0  0  0  0  0  0
  191.9550  173.8880  140.5230 C   0  0  0  0  0  1  0  0  0  0  0  0
  194.1950  175.3100  143.2090 C   0  0  0  0  0  0  0  0  0  0  0  0
  191.4210  175.1350  142.6550 C   0  0  0  0  0  0  0  0  0  0  0  0
  195.6310  175.4940  143.2250 N   0  0  0  0  0  0  0  0  0  0  0  0
  196.1150  174.4860  145.3480 C   0  0  0  0  0  0  0  0  0  0  0  0
  193.7170  174.6560  142.0730 C   0  0  0  0  0  3  0  0  0  0  0  0
  197.7400  172.6650  145.0670 C   0  0  0  0  0  2  0  0  0  0  0  0
  197.0920  173.6100  146.0620 C   0  0  0  0  0  3  0  0  0  0  0  0
  196.6510  172.1580  145.9860 C   0  0  0  0  0  2  0  0  0  0  0  0
  189.9100  177.3200  143.9340 C   0  0  1  0  0  3  0  0  0  0  0  0
  190.9700  177.8820  144.6610 O   0  0  0  0  0  0  0  0  0  0  0  0
  190.8490  176.4770  144.7150 C   0  0  2  0  0  3  0  0  0  0  0  0
  188.6450  177.4980  144.6970 C   0  0  0  0  0  3  0  0  0  0  0  0
  187.5910  176.7320  144.4280 C   0  0  0  0  0  3  0  0  0  0  0  0
  185.8660  177.9100  147.4490 O   0  0  0  0  0  0  0  0  0  0  0  0
  185.2880  179.0380  146.8880 N   0  0  0  0  0  2  0  0  0  0  0  0
  185.5880  178.1390  144.6620 C   0  0  0  0  0  2  0  0  0  0  0  0
  186.5350  176.9560  146.6730 C   0  0  0  0  0  0  0  0  0  0  0  0
  186.3080  176.8960  145.1810 C   0  0  2  0  0  3  0  0  0  0  0  0
  184.5740  178.6490  145.6760 C   0  0  0  0  0  2  0  0  0  0  0  0
  187.2300  176.0750  147.2440 O   0  0  0  0  0  0  0  0  0  0  0  0
  190.0500  175.0920  142.3620 O   0  0  0  0  0  0  0  0  0  0  0  0
  189.2230  174.0080  142.6730 C   0  0  0  0  0  0  0  0  0  0  0  0
  189.3910  173.3460  143.7330 O   0  0  0  0  0  0  0  0  0  0  0  0
  188.1280  173.6340  141.7400 C   0  0  0  0  0  2  0  0  0  0  0  0
  188.1850  174.5160  140.5070 C   0  0  0  0  0  2  0  0  0  0  0  0
  188.5930  173.7190  139.3150 C   0  0  0  0  0  0  0  0  0  0  0  0
  188.5660  174.1580  138.0680 C   0  0  0  0  0  3  0  0  0  0  0  0
  189.0270  172.2990  139.3530 C   0  0  0  0  0  2  0  0  0  0  0  0
  188.9810  173.1290  137.1820 N   0  0  0  0  0  0  0  0  0  0  0  0
  189.2420  172.0820  137.8940 C   0  0  0  0  0  0  0  0  0  0  0  0
  189.6590  169.7530  137.9770 O   0  0  0  0  0  1  0  0  0  0  0  0
  189.7020  170.8200  137.3080 C   0  0  0  0  0  0  0  0  0  0  0  0
  190.1880  170.7940  136.0070 O   0  0  0  0  0  0  0  0  0  0  0  0
  2 13  2  0  0  0  0
  2 10  1  0  0  0  0
  3  4  1  0  0  0  0
  4  5  1  0  0  0  0
  5  1  1  0  0  0  0
  6 12  1  0  0  0  0
  7  1  2  0  0  0  0
  8  2  1  0  0  0  0
  9 11  1  0  0  0  0
  9  4  2  0  0  0  0
 10  3  2  0  0  0  0
 11  6  2  0  0  0  0
 12  7  2  0  0  0  0
 12 15  1  0  0  0  0
 13  9  1  0  0  0  0
 14 16  1  0  0  0  0
 14 15  1  0  0  0  0
 16 15  1  0  0  0  0
 17 18  1  0  0  0  0
 17 20  1  1  0  0  0
 17 19  1  0  0  0  0
 18 19  1  0  0  0  0
 19  3  1  6  0  0  0
 21 20  2  0  0  0  0
 23 22  1  0  0  0  0
 24 26  1  0  0  0  0
 24 27  1  0  0  0  0
 25 28  2  0  0  0  0
 25 22  1  0  0  0  0
 26 21  1  6  0  0  0
 26 25  1  0  0  0  0
 27 23  1  0  0  0  0
 29 10  1  0  0  0  0
 29 30  1  0  0  0  0
 30 31  2  0  0  0  0
 32 30  1  0  0  0  0
 33 32  1  0  0  0  0
 34 36  1  0  0  0  0
 34 33  1  0  0  0  0
 35 34  2  0  0  0  0
 37 38  2  0  0  0  0
 37 35  1  0  0  0  0
 38 36  1  0  0  0  0
 40 38  1  0  0  0  0
 40 39  1  0  0  0  0
 41 40  2  0  0  0  0
M  END
>  <MODEL>
5

>  <REMARK>
 VINA RESULT:      -7.0      3.407      6.989
  Name = 
  10 active torsions:
  status: ('A' for Active; 'I' for Inactive)
    1  A    between atoms: C_3  and  C_4
    2  A    between atoms: C_3  and  C_28
    3  A    between atoms: C_7  and  C_28
    4  A    between atoms: C_7  and  O_40
    5  A    between atoms: C_10  and  C_39
    6  A    between atoms: C_20  and  C_33
    7  A    between atoms: CA_21  and  C_36
    8  A    between atoms: C_22  and  C_30
    9  A    between atoms: C_25  and  C_35
   10  A    between atoms: C_27  and  O_40
                            x       y       z     vdW  Elec       q    Type
                         _______ _______ _______ _____ _____    ______ ____

>  <TORSDO>
F 10

$$$$
=
 OpenBabel11042419563D

 41 46  0  0  1  0  0  0  0  0999 V2000
  186.3420  177.9180  141.2770 C   0  0  0  0  0  3  0  0  0  0  0  0
  186.9860  177.8660  146.4690 C   0  0  0  0  0  0  0  0  0  0  0  0
  188.1870  177.6020  144.3720 C   0  0  0  0  0  0  0  0  0  0  0  0
  187.1330  178.2470  143.6740 C   0  0  0  0  0  0  0  0  0  0  0  0
  187.2890  178.3750  142.2440 N   0  0  0  0  0  2  0  0  0  0  0  0
  184.0160  179.2670  143.0570 N   0  0  0  0  0  0  0  0  0  0  0  0
  185.1130  177.8590  141.6500 C   0  0  0  0  0  0  0  0  0  0  0  0
  186.8960  177.7740  147.9530 C   0  0  0  0  0  1  0  0  0  0  0  0
  185.9830  178.6990  144.4090 C   0  0  0  0  0  0  0  0  0  0  0  0
  188.1140  177.4170  145.7680 C   0  0  0  0  0  0  0  0  0  0  0  0
  184.9270  179.5560  143.9110 N   0  0  0  0  0  0  0  0  0  0  0  0
  184.0000  178.0870  142.2550 C   0  0  0  0  0  0  0  0  0  0  0  0
  185.9580  178.5080  145.7900 C   0  0  0  0  0  3  0  0  0  0  0  0
  182.3280  178.5350  140.5130 C   0  0  0  0  0  2  0  0  0  0  0  0
  182.7140  177.6180  141.6580 C   0  0  0  0  0  3  0  0  0  0  0  0
  181.6320  178.6660  141.8490 C   0  0  0  0  0  2  0  0  0  0  0  0
  190.5760  178.0180  143.9270 C   0  0  1  0  0  3  0  0  0  0  0  0
  189.8580  178.1420  142.7290 O   0  0  0  0  0  0  0  0  0  0  0  0
  189.4170  177.1430  143.6230 C   0  0  2  0  0  3  0  0  0  0  0  0
  191.8420  177.2790  143.6650 C   0  0  0  0  0  3  0  0  0  0  0  0
  192.7470  177.1420  144.6310 C   0  0  0  0  0  3  0  0  0  0  0  0
  194.6020  173.9740  144.7440 O   0  0  0  0  0  0  0  0  0  0  0  0
  194.5890  173.7180  143.3820 N   0  0  0  0  0  2  0  0  0  0  0  0
  194.1100  176.0410  142.9060 C   0  0  0  0  0  2  0  0  0  0  0  0
  194.1530  175.1890  145.2750 C   0  0  0  0  0  0  0  0  0  0  0  0
  194.0260  176.4050  144.3880 C   0  0  2  0  0  3  0  0  0  0  0  0
  195.0840  174.8960  142.6760 C   0  0  0  0  0  2  0  0  0  0  0  0
  193.9760  175.2910  146.5170 O   0  0  0  0  0  0  0  0  0  0  0  0
  189.1920  176.8230  146.4410 O   0  0  0  0  0  0  0  0  0  0  0  0
  189.3010  175.4480  146.6740 C   0  0  0  0  0  0  0  0  0  0  0  0
  188.5270  174.8640  147.4810 O   0  0  0  0  0  0  0  0  0  0  0  0
  190.3400  174.6660  145.9560 C   0  0  0  0  0  2  0  0  0  0  0  0
  189.6910  173.5050  145.2250 C   0  0  0  0  0  2  0  0  0  0  0  0
  189.9490  173.6030  143.7610 C   0  0  0  0  0  0  0  0  0  0  0  0
  191.1380  173.7870  143.2140 C   0  0  0  0  0  2  0  0  0  0  0  0
  188.8980  173.5700  142.7110 C   0  0  0  0  0  3  0  0  0  0  0  0
  191.0150  173.8730  141.8010 N   0  0  0  0  0  0  0  0  0  0  0  0
  189.7620  173.7510  141.5100 C   0  0  0  0  0  0  0  0  0  0  0  0
  189.7940  173.0810  139.2400 O   0  0  0  0  0  0  0  0  0  0  0  0
  189.2610  173.7910  140.1330 C   0  0  0  0  0  0  0  0  0  0  0  0
  188.1920  174.6150  139.8060 O   0  0  0  0  0  1  0  0  0  0  0  0
  1  7  2  0  0  0  0
  1  5  1  0  0  0  0
  2  8  1  0  0  0  0
  3 10  1  0  0  0  0
  4  3  2  0  0  0  0
  4  9  1  0  0  0  0
  5  4  1  0  0  0  0
  6 11  2  0  0  0  0
  7 12  2  0  0  0  0
  9 13  2  0  0  0  0
 10 29  1  0  0  0  0
 10  2  2  0  0  0  0
 11  9  1  0  0  0  0
 12  6  1  0  0  0  0
 13  2  1  0  0  0  0
 14 15  1  0  0  0  0
 14 16  1  0  0  0  0
 15 16  1  0  0  0  0
 15 12  1  0  0  0  0
 17 20  1  6  0  0  0
 18 19  1  0  0  0  0
 18 17  1  0  0  0  0
 19 17  1  0  0  0  0
 19  3  1  1  0  0  0
 20 21  2  0  0  0  0
 22 25  1  0  0  0  0
 23 22  1  0  0  0  0
 24 26  1  0  0  0  0
 25 28  2  0  0  0  0
 26 21  1  6  0  0  0
 26 25  1  0  0  0  0
 27 24  1  0  0  0  0
 27 23  1  0  0  0  0
 29 30  1  0  0  0  0
 30 31  2  0  0  0  0
 32 30  1  0  0  0  0
 33 32  1  0  0  0  0
 34 33  1  0  0  0  0
 35 34  1  0  0  0  0
 36 34  2  0  0  0  0
 37 35  1  0  0  0  0
 38 37  2  0  0  0  0
 38 36  1  0  0  0  0
 39 40  2  0  0  0  0
 40 38  1  0  0  0  0
 41 40  1  0  0  0  0
M  END
>  <MODEL>
6

>  <REMARK>
 VINA RESULT:      -7.0      2.389      7.605
  Name = 
  10 active torsions:
  status: ('A' for Active; 'I' for Inactive)
    1  A    between atoms: C_3  and  C_4
    2  A    between atoms: C_3  and  C_28
    3  A    between atoms: C_7  and  C_28
    4  A    between atoms: C_7  and  O_40
    5  A    between atoms: C_10  and  C_39
    6  A    between atoms: C_20  and  C_33
    7  A    between atoms: CA_21  and  C_36
    8  A    between atoms: C_22  and  C_30
    9  A    between atoms: C_25  and  C_35
   10  A    between atoms: C_27  and  O_40
                            x       y       z     vdW  Elec       q    Type
                         _______ _______ _______ _____ _____    ______ ____

>  <TORSDO>
F 10

$$$$
=
 OpenBabel11042419563D

 41 46  0  0  1  0  0  0  0  0999 V2000
  193.3530  173.5130  142.3420 C   0  0  0  0  0  3  0  0  0  0  0  0
  191.5070  175.5700  146.7840 C   0  0  0  0  0  0  0  0  0  0  0  0
  190.8370  174.3110  144.8140 C   0  0  0  0  0  0  0  0  0  0  0  0
  192.1900  173.9680  144.5600 C   0  0  0  0  0  0  0  0  0  0  0  0
  192.4430  173.1650  143.3860 N   0  0  0  0  0  2  0  0  0  0  0  0
  195.5120  174.2850  144.6080 N   0  0  0  0  0  0  0  0  0  0  0  0
  194.3420  174.2690  142.6600 C   0  0  0  0  0  0  0  0  0  0  0  0
  191.1950  176.3400  148.0200 C   0  0  0  0  0  1  0  0  0  0  0  0
  193.2130  174.4530  145.4460 C   0  0  0  0  0  0  0  0  0  0  0  0
  190.4970  175.1080  145.9270 C   0  0  0  0  0  0  0  0  0  0  0  0
  194.5980  174.0340  145.4720 N   0  0  0  0  0  0  0  0  0  0  0  0
  195.2780  174.8540  143.3210 C   0  0  0  0  0  0  0  0  0  0  0  0
  192.8310  175.2260  146.5430 C   0  0  0  0  0  3  0  0  0  0  0  0
  197.6360  175.5240  143.4730 C   0  0  0  0  0  2  0  0  0  0  0  0
  196.3980  175.5260  142.5970 C   0  0  0  0  0  3  0  0  0  0  0  0
  196.8180  176.7880  143.3290 C   0  0  0  0  0  2  0  0  0  0  0  0
  189.8250  174.4210  142.5680 C   0  0  1  0  0  3  0  0  0  0  0  0
  188.8810  174.8360  143.5190 O   0  0  0  0  0  0  0  0  0  0  0  0
  189.7440  173.7900  143.9100 C   0  0  2  0  0  3  0  0  0  0  0  0
  189.1580  173.5470  141.5640 C   0  0  0  0  0  3  0  0  0  0  0  0
  189.7330  173.3300  140.3840 C   0  0  0  0  0  3  0  0  0  0  0  0
  188.9680  172.6860  136.8500 O   0  0  0  0  0  0  0  0  0  0  0  0
  189.8710  171.6520  136.6630 N   0  0  0  0  0  2  0  0  0  0  0  0
  190.0070  171.2820  139.0510 C   0  0  0  0  0  2  0  0  0  0  0  0
  188.7100  173.2270  138.1150 C   0  0  0  0  0  0  0  0  0  0  0  0
  189.0790  172.4560  139.3600 C   0  0  2  0  0  3  0  0  0  0  0  0
  189.6660  170.6530  137.7080 C   0  0  0  0  0  2  0  0  0  0  0  0
  188.0590  174.3010  138.2050 O   0  0  0  0  0  0  0  0  0  0  0  0
  189.1480  175.3890  146.1860 O   0  0  0  0  0  0  0  0  0  0  0  0
  188.5360  176.6090  145.8790 C   0  0  0  0  0  0  0  0  0  0  0  0
  189.1970  177.5590  145.3770 O   0  0  0  0  0  0  0  0  0  0  0  0
  187.0850  176.7850  146.1440 C   0  0  0  0  0  2  0  0  0  0  0  0
  186.6860  178.2240  145.8720 C   0  0  0  0  0  2  0  0  0  0  0  0
  185.8660  178.3110  144.6310 C   0  0  0  0  0  0  0  0  0  0  0  0
  184.5500  178.4380  144.6040 C   0  0  0  0  0  2  0  0  0  0  0  0
  186.4030  178.2050  143.2490 C   0  0  0  0  0  3  0  0  0  0  0  0
  184.0910  178.4500  143.2590 N   0  0  0  0  0  0  0  0  0  0  0  0
  185.1240  178.3200  142.4930 C   0  0  0  0  0  0  0  0  0  0  0  0
  183.9570  178.6270  140.4560 O   0  0  0  0  0  1  0  0  0  0  0  0
  185.0260  178.2910  141.0310 C   0  0  0  0  0  0  0  0  0  0  0  0
  186.1180  177.8930  140.2690 O   0  0  0  0  0  0  0  0  0  0  0  0
  1  7  2  0  0  0  0
  1  5  1  0  0  0  0
  2  8  1  0  0  0  0
  3 10  1  0  0  0  0
  4  3  2  0  0  0  0
  4  9  1  0  0  0  0
  5  4  1  0  0  0  0
  6 11  2  0  0  0  0
  7 12  2  0  0  0  0
  9 11  1  0  0  0  0
  9 13  2  0  0  0  0
 10 29  1  0  0  0  0
 10  2  2  0  0  0  0
 12  6  1  0  0  0  0
 13  2  1  0  0  0  0
 15 12  1  0  0  0  0
 15 16  1  0  0  0  0
 15 14  1  0  0  0  0
 16 14  1  0  0  0  0
 17 20  1  6  0  0  0
 17 18  1  0  0  0  0
 17 19  1  0  0  0  0
 18 19  1  0  0  0  0
 19  3  1  1  0  0  0
 21 20  2  0  0  0  0
 22 25  1  0  0  0  0
 23 22  1  0  0  0  0
 23 27  1  0  0  0  0
 24 26  1  0  0  0  0
 25 28  2  0  0  0  0
 25 26  1  0  0  0  0
 26 21  1  1  0  0  0
 27 24  1  0  0  0  0
 30 32  1  0  0  0  0
 30 29  1  0  0  0  0
 31 30  2  0  0  0  0
 33 32  1  0  0  0  0
 34 33  1  0  0  0  0
 35 34  1  0  0  0  0
 36 34  2  0  0  0  0
 37 35  1  0  0  0  0
 38 36  1  0  0  0  0
 38 37  2  0  0  0  0
 39 40  1  0  0  0  0
 40 38  1  0  0  0  0
 41 40  2  0  0  0  0
M  END
>  <MODEL>
7

>  <REMARK>
 VINA RESULT:      -6.9      2.613      6.504
  Name = 
  10 active torsions:
  status: ('A' for Active; 'I' for Inactive)
    1  A    between atoms: C_3  and  C_4
    2  A    between atoms: C_3  and  C_28
    3  A    between atoms: C_7  and  C_28
    4  A    between atoms: C_7  and  O_40
    5  A    between atoms: C_10  and  C_39
    6  A    between atoms: C_20  and  C_33
    7  A    between atoms: CA_21  and  C_36
    8  A    between atoms: C_22  and  C_30
    9  A    between atoms: C_25  and  C_35
   10  A    between atoms: C_27  and  O_40
                            x       y       z     vdW  Elec       q    Type
                         _______ _______ _______ _____ _____    ______ ____

>  <TORSDO>
F 10

$$$$
=
 OpenBabel11042419563D

 41 46  0  0  1  0  0  0  0  0999 V2000
  194.0830  176.5410  145.1860 C   0  0  0  0  0  3  0  0  0  0  0  0
  192.2480  174.1170  140.9280 C   0  0  0  0  0  0  0  0  0  0  0  0
  191.6150  175.6660  142.6910 C   0  0  0  0  0  0  0  0  0  0  0  0
  192.9820  175.9170  142.9770 C   0  0  0  0  0  0  0  0  0  0  0  0
  193.2570  176.8350  144.0580 N   0  0  0  0  0  2  0  0  0  0  0  0
  196.2570  175.3020  143.1520 N   0  0  0  0  0  0  0  0  0  0  0  0
  195.0090  175.6650  145.0160 C   0  0  0  0  0  0  0  0  0  0  0  0
  191.9190  173.2280  139.7780 C   0  0  0  0  0  1  0  0  0  0  0  0
  193.9920  175.2350  142.2140 C   0  0  0  0  0  0  0  0  0  0  0  0
  191.2500  174.7700  141.6650 C   0  0  0  0  0  0  0  0  0  0  0  0
  195.4110  175.5230  142.2150 N   0  0  0  0  0  0  0  0  0  0  0  0
  195.9130  174.9210  144.4830 C   0  0  0  0  0  0  0  0  0  0  0  0
  193.5870  174.3690  141.1980 C   0  0  0  0  0  3  0  0  0  0  0  0
  197.8030  173.3510  144.4860 C   0  0  0  0  0  2  0  0  0  0  0  0
  196.9310  174.2480  145.3440 C   0  0  0  0  0  3  0  0  0  0  0  0
  196.7140  172.7450  145.3430 C   0  0  0  0  0  2  0  0  0  0  0  0
  189.8500  177.3860  142.6030 C   0  0  1  0  0  3  0  0  0  0  0  0
  190.8220  177.7720  143.5380 O   0  0  0  0  0  0  0  0  0  0  0  0
  190.5380  176.3910  143.4640 C   0  0  2  0  0  3  0  0  0  0  0  0
  188.4980  177.6740  143.1550 C   0  0  0  0  0  3  0  0  0  0  0  0
  187.5120  178.0480  142.3420 C   0  0  0  0  0  3  0  0  0  0  0  0
  185.0490  177.6370  145.0360 O   0  0  0  0  0  0  0  0  0  0  0  0
  185.1660  178.9100  145.5720 N   0  0  0  0  0  2  0  0  0  0  0  0
  186.1600  179.7280  143.5230 C   0  0  0  0  0  2  0  0  0  0  0  0
  185.6720  177.2770  143.8350 C   0  0  0  0  0  0  0  0  0  0  0  0
  186.1460  178.3440  142.8760 C   0  0  2  0  0  3  0  0  0  0  0  0
  185.0050  179.8890  144.5010 C   0  0  0  0  0  2  0  0  0  0  0  0
  185.7230  176.0630  143.5070 O   0  0  0  0  0  0  0  0  0  0  0  0
  189.8930  174.5800  141.3680 O   0  0  0  0  0  0  0  0  0  0  0  0
  189.1240  173.5320  141.8840 C   0  0  0  0  0  0  0  0  0  0  0  0
  187.8650  173.5470  141.8010 O   0  0  0  0  0  0  0  0  0  0  0  0
  189.8010  172.3820  142.5380 C   0  0  0  0  0  2  0  0  0  0  0  0
  189.3240  172.2570  143.9730 C   0  0  0  0  0  2  0  0  0  0  0  0
  190.1330  173.1320  144.8690 C   0  0  0  0  0  0  0  0  0  0  0  0
  191.4480  173.0740  144.9940 C   0  0  0  0  0  3  0  0  0  0  0  0
  189.5710  174.1490  145.7940 C   0  0  0  0  0  2  0  0  0  0  0  0
  191.8860  174.0190  145.9590 N   0  0  0  0  0  0  0  0  0  0  0  0
  190.8400  174.6270  146.4130 C   0  0  0  0  0  0  0  0  0  0  0  0
  191.5210  175.4720  148.5180 O   0  0  0  0  0  1  0  0  0  0  0  0
  190.9140  175.6780  147.4330 C   0  0  0  0  0  0  0  0  0  0  0  0
  190.3140  176.9090  147.2060 O   0  0  0  0  0  0  0  0  0  0  0  0
  2 13  2  0  0  0  0
  2 10  1  0  0  0  0
  3  4  1  0  0  0  0
  4  5  1  0  0  0  0
  5  1  1  0  0  0  0
  6 12  1  0  0  0  0
  7  1  2  0  0  0  0
  8  2  1  0  0  0  0
  9 11  1  0  0  0  0
  9  4  2  0  0  0  0
 10  3  2  0  0  0  0
 11  6  2  0  0  0  0
 12  7  2  0  0  0  0
 12 15  1  0  0  0  0
 13  9  1  0  0  0  0
 14 16  1  0  0  0  0
 14 15  1  0  0  0  0
 16 15  1  0  0  0  0
 17 20  1  1  0  0  0
 17 19  1  0  0  0  0
 17 18  1  0  0  0  0
 19  3  1  6  0  0  0
 19 18  1  0  0  0  0
 21 20  2  0  0  0  0
 22 23  1  0  0  0  0
 24 27  1  0  0  0  0
 25 22  1  0  0  0  0
 26 21  1  1  0  0  0
 26 24  1  0  0  0  0
 26 25  1  0  0  0  0
 27 23  1  0  0  0  0
 28 25  2  0  0  0  0
 29 10  1  0  0  0  0
 29 30  1  0  0  0  0
 30 32  1  0  0  0  0
 31 30  2  0  0  0  0
 32 33  1  0  0  0  0
 33 34  1  0  0  0  0
 34 35  2  0  0  0  0
 34 36  1  0  0  0  0
 35 37  1  0  0  0  0
 36 38  1  0  0  0  0
 37 38  2  0  0  0  0
 38 40  1  0  0  0  0
 40 39  1  0  0  0  0
 41 40  2  0  0  0  0
M  END
>  <MODEL>
8

>  <REMARK>
 VINA RESULT:      -6.8      2.733      5.062
  Name = 
  10 active torsions:
  status: ('A' for Active; 'I' for Inactive)
    1  A    between atoms: C_3  and  C_4
    2  A    between atoms: C_3  and  C_28
    3  A    between atoms: C_7  and  C_28
    4  A    between atoms: C_7  and  O_40
    5  A    between atoms: C_10  and  C_39
    6  A    between atoms: C_20  and  C_33
    7  A    between atoms: CA_21  and  C_36
    8  A    between atoms: C_22  and  C_30
    9  A    between atoms: C_25  and  C_35
   10  A    between atoms: C_27  and  O_40
                            x       y       z     vdW  Elec       q    Type
                         _______ _______ _______ _____ _____    ______ ____

>  <TORSDO>
F 10

$$$$
=
 OpenBabel11042419563D

 41 46  0  0  1  0  0  0  0  0999 V2000
  195.1690  175.1820  146.1450 C   0  0  0  0  0  3  0  0  0  0  0  0
  192.2720  174.3760  141.8640 C   0  0  0  0  0  0  0  0  0  0  0  0
  192.2470  175.4720  144.0340 C   0  0  0  0  0  0  0  0  0  0  0  0
  193.6620  175.3900  144.1050 C   0  0  0  0  0  0  0  0  0  0  0  0
  194.2800  175.9140  145.3000 N   0  0  0  0  0  2  0  0  0  0  0  0
  196.7130  174.1830  143.4980 N   0  0  0  0  0  0  0  0  0  0  0  0
  195.8470  174.2370  145.5980 C   0  0  0  0  0  0  0  0  0  0  0  0
  191.6000  173.9080  140.6200 C   0  0  0  0  0  1  0  0  0  0  0  0
  194.3810  174.7750  143.0220 C   0  0  0  0  0  0  0  0  0  0  0  0
  191.5550  174.9690  142.9130 C   0  0  0  0  0  0  0  0  0  0  0  0
  195.8140  174.7970  142.8200 N   0  0  0  0  0  0  0  0  0  0  0  0
  196.4820  173.5190  144.7390 C   0  0  0  0  0  0  0  0  0  0  0  0
  193.6580  174.3050  141.9260 C   0  0  0  0  0  3  0  0  0  0  0  0
  197.4560  171.3290  144.2020 C   0  0  0  0  0  2  0  0  0  0  0  0
  197.4370  172.4690  145.2030 C   0  0  0  0  0  3  0  0  0  0  0  0
  196.6950  171.1770  145.5000 C   0  0  0  0  0  2  0  0  0  0  0  0
  190.3370  176.9220  144.6080 C   0  0  1  0  0  3  0  0  0  0  0  0
  191.5260  177.5410  145.0230 O   0  0  0  0  0  0  0  0  0  0  0  0
  191.4740  176.1360  145.1500 C   0  0  2  0  0  3  0  0  0  0  0  0
  189.3010  177.0940  145.6630 C   0  0  0  0  0  3  0  0  0  0  0  0
  188.0640  176.6460  145.4610 C   0  0  0  0  0  3  0  0  0  0  0  0
  186.1140  178.8950  147.6110 O   0  0  0  0  0  0  0  0  0  0  0  0
  184.9240  178.8230  146.9030 N   0  0  0  0  0  2  0  0  0  0  0  0
  185.6370  176.7740  145.8320 C   0  0  0  0  0  2  0  0  0  0  0  0
  187.2050  178.0700  147.3150 C   0  0  0  0  0  0  0  0  0  0  0  0
  187.0070  176.8100  146.5070 C   0  0  2  0  0  3  0  0  0  0  0  0
  184.5750  177.4190  146.7100 C   0  0  0  0  0  2  0  0  0  0  0  0
  188.3260  178.3230  147.8310 O   0  0  0  0  0  0  0  0  0  0  0  0
  190.1610  175.1090  142.8440 O   0  0  0  0  0  0  0  0  0  0  0  0
  189.2680  174.0360  142.9190 C   0  0  0  0  0  0  0  0  0  0  0  0
  189.5670  172.9840  143.5460 O   0  0  0  0  0  0  0  0  0  0  0  0
  187.9440  174.1410  142.2520 C   0  0  0  0  0  2  0  0  0  0  0  0
  188.0090  175.1840  141.1510 C   0  0  0  0  0  2  0  0  0  0  0  0
  187.5060  176.4960  141.6460 C   0  0  0  0  0  0  0  0  0  0  0  0
  188.2030  177.6190  141.6490 C   0  0  0  0  0  3  0  0  0  0  0  0
  186.1720  176.7150  142.2650 C   0  0  0  0  0  2  0  0  0  0  0  0
  187.4360  178.6660  142.2270 N   0  0  0  0  0  0  0  0  0  0  0  0
  186.2950  178.1680  142.5740 C   0  0  0  0  0  0  0  0  0  0  0  0
  184.0390  178.5990  143.1470 O   0  0  0  0  0  0  0  0  0  0  0  0
  185.2420  178.9670  143.2070 C   0  0  0  0  0  0  0  0  0  0  0  0
  185.5670  180.1380  143.8800 O   0  0  0  0  0  1  0  0  0  0  0  0
  2 13  2  0  0  0  0
  2 10  1  0  0  0  0
  3  4  1  0  0  0  0
  4  5  1  0  0  0  0
  5  1  1  0  0  0  0
  6 12  1  0  0  0  0
  7  1  2  0  0  0  0
  8  2  1  0  0  0  0
  9  4  2  0  0  0  0
 10  3  2  0  0  0  0
 11  9  1  0  0  0  0
 11  6  2  0  0  0  0
 12 15  1  0  0  0  0
 12  7  2  0  0  0  0
 13  9  1  0  0  0  0
 14 15  1  0  0  0  0
 14 16  1  0  0  0  0
 15 16  1  0  0  0  0
 17 18  1  0  0  0  0
 17 19  1  0  0  0  0
 17 20  1  1  0  0  0
 18 19  1  0  0  0  0
 19  3  1  6  0  0  0
 21 20  2  0  0  0  0
 23 22  1  0  0  0  0
 24 26  1  0  0  0  0
 24 27  1  0  0  0  0
 25 22  1  0  0  0  0
 25 28  2  0  0  0  0
 26 21  1  6  0  0  0
 26 25  1  0  0  0  0
 27 23  1  0  0  0  0
 29 10  1  0  0  0  0
 29 30  1  0  0  0  0
 30 31  2  0  0  0  0
 32 30  1  0  0  0  0
 33 34  1  0  0  0  0
 33 32  1  0  0  0  0
 34 35  2  0  0  0  0
 34 36  1  0  0  0  0
 35 37  1  0  0  0  0
 36 38  1  0  0  0  0
 37 38  2  0  0  0  0
 38 40  1  0  0  0  0
 39 40  2  0  0  0  0
 40 41  1  0  0  0  0
M  END
>  <MODEL>
9

>  <REMARK>
 VINA RESULT:      -6.8      2.682      5.696
  Name = 
  10 active torsions:
  status: ('A' for Active; 'I' for Inactive)
    1  A    between atoms: C_3  and  C_4
    2  A    between atoms: C_3  and  C_28
    3  A    between atoms: C_7  and  C_28
    4  A    between atoms: C_7  and  O_40
    5  A    between atoms: C_10  and  C_39
    6  A    between atoms: C_20  and  C_33
    7  A    between atoms: CA_21  and  C_36
    8  A    between atoms: C_22  and  C_30
    9  A    between atoms: C_25  and  C_35
   10  A    between atoms: C_27  and  O_40
                            x       y       z     vdW  Elec       q    Type
                         _______ _______ _______ _____ _____    ______ ____

>  <TORSDO>
F 10

$$$$
