=
 OpenBabel11042418233D

 37 41  0  0  1  0  0  0  0  0999 V2000
  188.1390  175.3150  141.4720 C   0  0  0  0  0  0  0  0  0  0  0  0
  184.8050  178.7680  144.9790 C   0  0  0  0  0  0  0  0  0  0  0  0
  183.6180  178.9020  144.1010 C   0  0  0  0  0  3  0  0  0  0  0  0
  187.6660  177.1850  145.3770 C   0  0  0  0  0  2  0  0  0  0  0  0
  188.7200  173.1000  142.5900 C   0  0  0  0  0  2  0  0  0  0  0  0
  183.8930  178.5690  142.8680 N   0  0  0  0  0  0  0  0  0  0  0  0
  187.8620  175.9170  140.4000 O   0  0  0  0  0  0  0  0  0  0  0  0
  190.2170  172.9790  142.8390 C   0  0  1  0  0  3  0  0  0  0  0  0
  185.9090  177.3030  142.1720 C   0  0  0  0  0  3  0  0  0  0  0  0
  190.7450  173.9860  143.8770 C   0  0  2  0  0  0  0  0  0  0  0  0
  187.0600  176.8970  143.0160 C   0  0  0  0  0  0  0  0  0  0  0  0
  188.6970  176.0910  145.2200 C   0  0  0  0  0  2  0  0  0  0  0  0
  185.7970  178.3990  144.1940 C   0  0  0  0  0  0  0  0  0  0  0  0
  186.9350  177.5230  144.3230 C   0  0  0  0  0  0  0  0  0  0  0  0
  190.1980  173.7090  145.1200 F   0  0  0  0  0  0  0  0  0  0  0  0
  190.5340  171.5500  143.2490 C   0  0  0  0  0  1  0  0  0  0  0  0
  185.2680  178.2270  142.8930 C   0  0  0  0  0  0  0  0  0  0  0  0
  188.0510  176.0330  142.7630 C   0  0  2  0  0  3  0  0  0  0  0  0
  190.4020  175.4320  143.4390 C   0  0  1  0  0  3  0  0  0  0  0  0
  192.1320  173.8300  143.9640 O   0  0  0  0  0  1  0  0  0  0  0  0
  188.4820  173.9270  141.4140 N   0  0  0  0  0  2  0  0  0  0  0  0
  189.0370  175.8310  143.8020 N   0  0  1  0  0  0  0  0  0  0  0  0
  192.4080  176.6580  142.8230 O   0  0  0  0  0  0  0  0  0  0  0  0
  191.4240  176.5110  143.8190 C   0  0  1  0  0  0  0  0  0  0  0  0
  191.4840  177.7130  142.9530 C   0  0  0  0  0  2  0  0  0  0  0  0
  192.0490  176.5450  145.2170 C   0  0  0  0  0  2  0  0  0  0  0  0
  193.5550  176.7880  145.1960 C   0  0  0  0  0  2  0  0  0  0  0  0
  194.1200  176.4500  146.4280 O   0  0  0  0  0  0  0  0  0  0  0  0
  194.8670  175.3010  146.1780 C   0  0  0  0  0  2  0  0  0  0  0  0
  195.6960  175.5100  144.9950 N   0  0  0  0  0  2  0  0  0  0  0  0
  197.7370  174.7490  144.0980 O   0  0  0  0  0  1  0  0  0  0  0  0
  196.5810  174.3630  144.7830 C   0  0  1  0  0  3  0  0  0  0  0  0
  196.9460  173.6670  146.0920 C   0  0  0  0  0  2  0  0  0  0  0  0
  195.7680  171.6630  145.4460 N   0  0  0  0  0  2  0  0  0  0  0  0
  196.8180  172.1830  145.9670 C   0  0  0  0  0  3  0  0  0  0  0  0
  184.7750  178.6380  146.4100 C   0  0  0  0  0  0  0  0  0  0  0  0
  184.7520  178.5250  147.6100 C   0  0  0  0  0  3  0  0  0  0  0  0
  2 36  1  0  0  0  0
  3  2  2  0  0  0  0
  5  8  1  0  0  0  0
  6 17  2  0  0  0  0
  6  3  1  0  0  0  0
  7  1  2  0  0  0  0
  8 16  1  1  0  0  0
  8 10  1  0  0  0  0
  9 17  1  0  0  0  0
  9 11  2  0  0  0  0
 10 20  1  1  0  0  0
 10 15  1  0  0  0  0
 11 14  1  0  0  0  0
 12  4  1  0  0  0  0
 13 14  2  0  0  0  0
 13  2  1  0  0  0  0
 14  4  1  0  0  0  0
 17 13  1  0  0  0  0
 18  1  1  6  0  0  0
 18 11  1  0  0  0  0
 18 22  1  0  0  0  0
 19 22  1  0  0  0  0
 19 24  1  1  0  0  0
 19 10  1  0  0  0  0
 21  1  1  0  0  0  0
 21  5  1  0  0  0  0
 22 12  1  6  0  0  0
 23 25  1  0  0  0  0
 23 24  1  0  0  0  0
 24 26  1  1  0  0  0
 25 24  1  0  0  0  0
 27 26  1  0  0  0  0
 27 28  1  0  0  0  0
 29 28  1  0  0  0  0
 30 29  1  0  0  0  0
 32 31  1  1  0  0  0
 32 30  1  0  0  0  0
 32 33  1  0  0  0  0
 34 35  2  0  0  0  0
 35 33  1  0  0  0  0
 36 37  3  0  0  0  0
M  END
>  <MODEL>
1

>  <REMARK>
 VINA RESULT:      -7.5      0.000      0.000
  Name = 
  10 active torsions:
  status: ('A' for Active; 'I' for Inactive)
    1  A    between atoms: O_3  and  C_11
    2  A    between atoms: O_3  and  C_22
    3  A    between atoms: N_4  and  C_11
    4  A    between atoms: N_4  and  C_36
    5  A    between atoms: C_5  and  C_7
    6  A    between atoms: C_14  and  C_36
    7  A    between atoms: C_14  and  C_37
    8  A    between atoms: C_22  and  C_29
    9  A    between atoms: C_29  and  C_32
   10  A    between atoms: C_30  and  C_32
                            x       y       z     vdW  Elec       q    Type
                         _______ _______ _______ _____ _____    ______ ____

>  <TORSDO>
F 10

$$$$
=
 OpenBabel11042418233D

 37 41  0  0  1  0  0  0  0  0999 V2000
  188.4390  175.0350  141.6950 C   0  0  0  0  0  0  0  0  0  0  0  0
  184.9940  178.6790  144.8870 C   0  0  0  0  0  0  0  0  0  0  0  0
  183.8220  178.7330  143.9800 C   0  0  0  0  0  3  0  0  0  0  0  0
  187.8680  177.1700  145.4480 C   0  0  0  0  0  2  0  0  0  0  0  0
  189.0290  172.9140  142.9770 C   0  0  0  0  0  2  0  0  0  0  0  0
  184.1240  178.3180  142.7790 N   0  0  0  0  0  0  0  0  0  0  0  0
  188.1750  175.5560  140.5780 O   0  0  0  0  0  0  0  0  0  0  0  0
  190.5220  172.8330  143.2610 C   0  0  1  0  0  3  0  0  0  0  0  0
  186.1700  177.0350  142.2110 C   0  0  0  0  0  3  0  0  0  0  0  0
  191.0170  173.9180  144.2340 C   0  0  2  0  0  0  0  0  0  0  0  0
  187.3110  176.7070  143.1030 C   0  0  0  0  0  0  0  0  0  0  0  0
  188.9160  176.0830  145.3870 C   0  0  0  0  0  2  0  0  0  0  0  0
  186.0050  178.2700  144.1480 C   0  0  0  0  0  0  0  0  0  0  0  0
  187.1520  177.4220  144.3590 C   0  0  0  0  0  0  0  0  0  0  0  0
  190.4500  173.7230  145.4840 F   0  0  0  0  0  0  0  0  0  0  0  0
  190.8500  171.4410  143.7770 C   0  0  0  0  0  1  0  0  0  0  0  0
  185.5040  177.9980  142.8530 C   0  0  0  0  0  0  0  0  0  0  0  0
  188.3170  175.8420  142.9290 C   0  0  2  0  0  3  0  0  0  0  0  0
  190.6630  175.3250  143.6880 C   0  0  1  0  0  3  0  0  0  0  0  0
  192.4040  173.7900  144.3570 O   0  0  0  0  0  1  0  0  0  0  0  0
  188.8010  173.6520  141.7420 N   0  0  0  0  0  2  0  0  0  0  0  0
  189.2860  175.7280  143.9980 N   0  0  1  0  0  0  0  0  0  0  0  0
  192.6770  176.5180  143.0350 O   0  0  0  0  0  0  0  0  0  0  0  0
  191.6630  176.4430  144.0080 C   0  0  1  0  0  0  0  0  0  0  0  0
  191.7390  177.5700  143.0480 C   0  0  0  0  0  2  0  0  0  0  0  0
  192.2440  176.5980  145.4170 C   0  0  0  0  0  2  0  0  0  0  0  0
  193.7630  176.7450  145.4290 C   0  0  0  0  0  2  0  0  0  0  0  0
  194.3120  176.0450  146.5040 O   0  0  0  0  0  0  0  0  0  0  0  0
  195.2470  175.1850  145.9330 C   0  0  0  0  0  2  0  0  0  0  0  0
  195.6810  175.7260  144.6490 N   0  0  0  0  0  2  0  0  0  0  0  0
  196.5950  173.6820  143.9150 O   0  0  0  0  0  1  0  0  0  0  0  0
  196.8790  175.0250  144.1780 C   0  0  1  0  0  3  0  0  0  0  0  0
  197.4880  175.6920  142.9480 C   0  0  0  0  0  2  0  0  0  0  0  0
  196.1340  176.9160  141.3700 N   0  0  0  0  0  2  0  0  0  0  0  0
  196.4950  175.7770  141.8330 C   0  0  0  0  0  3  0  0  0  0  0  0
  184.9390  178.6500  146.3230 C   0  0  0  0  0  0  0  0  0  0  0  0
  184.8970  178.6260  147.5270 C   0  0  0  0  0  3  0  0  0  0  0  0
  1 21  1  0  0  0  0
  2 36  1  0  0  0  0
  3  2  2  0  0  0  0
  5  8  1  0  0  0  0
  6 17  2  0  0  0  0
  6  3  1  0  0  0  0
  7  1  2  0  0  0  0
  8 16  1  1  0  0  0
  8 10  1  0  0  0  0
  9 17  1  0  0  0  0
  9 11  2  0  0  0  0
 10 20  1  1  0  0  0
 10 15  1  0  0  0  0
 11 14  1  0  0  0  0
 12  4  1  0  0  0  0
 13 14  2  0  0  0  0
 13  2  1  0  0  0  0
 14  4  1  0  0  0  0
 17 13  1  0  0  0  0
 18  1  1  6  0  0  0
 18 11  1  0  0  0  0
 18 22  1  0  0  0  0
 19 22  1  0  0  0  0
 19 24  1  1  0  0  0
 19 10  1  0  0  0  0
 21  5  1  0  0  0  0
 22 12  1  6  0  0  0
 23 25  1  0  0  0  0
 23 24  1  0  0  0  0
 24 26  1  1  0  0  0
 25 24  1  0  0  0  0
 26 27  1  0  0  0  0
 27 28  1  0  0  0  0
 29 28  1  0  0  0  0
 30 29  1  0  0  0  0
 32 31  1  6  0  0  0
 32 30  1  0  0  0  0
 33 32  1  0  0  0  0
 34 35  2  0  0  0  0
 35 33  1  0  0  0  0
 36 37  3  0  0  0  0
M  END
>  <MODEL>
2

>  <REMARK>
 VINA RESULT:      -7.4      1.063      1.618
  Name = 
  10 active torsions:
  status: ('A' for Active; 'I' for Inactive)
    1  A    between atoms: O_3  and  C_11
    2  A    between atoms: O_3  and  C_22
    3  A    between atoms: N_4  and  C_11
    4  A    between atoms: N_4  and  C_36
    5  A    between atoms: C_5  and  C_7
    6  A    between atoms: C_14  and  C_36
    7  A    between atoms: C_14  and  C_37
    8  A    between atoms: C_22  and  C_29
    9  A    between atoms: C_29  and  C_32
   10  A    between atoms: C_30  and  C_32
                            x       y       z     vdW  Elec       q    Type
                         _______ _______ _______ _____ _____    ______ ____

>  <TORSDO>
F 10

$$$$
=
 OpenBabel11042418233D

 37 41  0  0  1  0  0  0  0  0999 V2000
  189.9100  175.2660  147.2750 C   0  0  0  0  0  0  0  0  0  0  0  0
  185.2760  178.4390  145.3290 C   0  0  0  0  0  0  0  0  0  0  0  0
  184.3910  178.2920  146.5090 C   0  0  0  0  0  3  0  0  0  0  0  0
  188.3190  177.8970  144.1910 C   0  0  0  0  0  2  0  0  0  0  0  0
  192.0420  176.6580  147.3800 C   0  0  0  0  0  2  0  0  0  0  0  0
  184.7710  177.3050  147.2750 N   0  0  0  0  0  0  0  0  0  0  0  0
  189.2250  174.3420  147.7900 O   0  0  0  0  0  0  0  0  0  0  0  0
  193.0860  176.1500  146.3950 C   0  0  1  0  0  3  0  0  0  0  0  0
  186.9930  176.2100  147.1520 C   0  0  0  0  0  3  0  0  0  0  0  0
  192.6780  176.3390  144.9230 C   0  0  2  0  0  0  0  0  0  0  0  0
  188.0660  176.4460  146.1540 C   0  0  0  0  0  0  0  0  0  0  0  0
  189.8100  177.6550  144.2360 C   0  0  0  0  0  2  0  0  0  0  0  0
  186.1530  177.4590  145.4100 C   0  0  0  0  0  0  0  0  0  0  0  0
  187.5540  177.3100  145.1020 C   0  0  0  0  0  0  0  0  0  0  0  0
  192.5990  177.6900  144.6260 F   0  0  0  0  0  0  0  0  0  0  0  0
  194.4130  176.8330  146.6890 C   0  0  0  0  0  1  0  0  0  0  0  0
  185.9020  176.7610  146.6150 C   0  0  0  0  0  0  0  0  0  0  0  0
  189.3490  176.0650  146.1630 C   0  0  2  0  0  3  0  0  0  0  0  0
  191.3210  175.6410  144.6530 C   0  0  1  0  0  3  0  0  0  0  0  0
  193.6730  175.7710  144.1210 O   0  0  0  0  0  1  0  0  0  0  0  0
  191.2020  175.5520  147.8200 N   0  0  0  0  0  2  0  0  0  0  0  0
  190.1680  176.4640  145.0390 N   0  0  1  0  0  0  0  0  0  0  0  0
  190.9950  176.0430  142.2780 O   0  0  0  0  0  0  0  0  0  0  0  0
  191.1390  175.0380  143.2540 C   0  0  1  0  0  0  0  0  0  0  0  0
  192.2030  175.3180  142.2610 C   0  0  0  0  0  2  0  0  0  0  0  0
  190.1500  173.8940  143.0130 C   0  0  0  0  0  2  0  0  0  0  0  0
  188.9920  174.2830  142.0980 C   0  0  0  0  0  2  0  0  0  0  0  0
  187.9540  174.8490  142.8400 O   0  0  0  0  0  0  0  0  0  0  0  0
  187.0950  175.4030  141.8930 C   0  0  0  0  0  2  0  0  0  0  0  0
  187.8530  176.2870  141.0120 N   0  0  0  0  0  2  0  0  0  0  0  0
  186.5850  177.1250  139.2130 O   0  0  0  0  0  1  0  0  0  0  0  0
  187.0010  177.3740  140.5240 C   0  0  1  0  0  3  0  0  0  0  0  0
  185.7960  177.6110  141.4300 C   0  0  0  0  0  2  0  0  0  0  0  0
  183.5550  178.1330  140.7060 N   0  0  0  0  0  2  0  0  0  0  0  0
  184.7850  178.4870  140.7620 C   0  0  0  0  0  3  0  0  0  0  0  0
  185.4160  179.6270  144.5320 C   0  0  0  0  0  0  0  0  0  0  0  0
  185.5380  180.6240  143.8660 C   0  0  0  0  0  3  0  0  0  0  0  0
  1  7  2  0  0  0  0
  1 21  1  0  0  0  0
  2 13  2  0  0  0  0
  2  3  1  0  0  0  0
  3  6  2  0  0  0  0
  4 12  1  0  0  0  0
  4 14  1  0  0  0  0
  5 21  1  0  0  0  0
  8 16  1  6  0  0  0
  8  5  1  0  0  0  0
 10 20  1  6  0  0  0
 10  8  1  0  0  0  0
 11  9  1  0  0  0  0
 13 17  1  0  0  0  0
 14 13  1  0  0  0  0
 14 11  2  0  0  0  0
 15 10  1  0  0  0  0
 17  9  2  0  0  0  0
 17  6  1  0  0  0  0
 18 11  1  6  0  0  0
 18  1  1  0  0  0  0
 19 24  1  6  0  0  0
 19 10  1  0  0  0  0
 19 22  1  0  0  0  0
 22 12  1  6  0  0  0
 22 18  1  0  0  0  0
 23 24  1  0  0  0  0
 24 26  1  6  0  0  0
 25 23  1  0  0  0  0
 25 24  1  0  0  0  0
 27 28  1  0  0  0  0
 27 26  1  0  0  0  0
 29 28  1  0  0  0  0
 30 29  1  0  0  0  0
 32 31  1  6  0  0  0
 32 30  1  0  0  0  0
 32 33  1  0  0  0  0
 34 35  2  0  0  0  0
 35 33  1  0  0  0  0
 36  2  1  0  0  0  0
 37 36  3  0  0  0  0
M  END
>  <MODEL>
3

>  <REMARK>
 VINA RESULT:      -7.2      2.562      6.552
  Name = 
  10 active torsions:
  status: ('A' for Active; 'I' for Inactive)
    1  A    between atoms: O_3  and  C_11
    2  A    between atoms: O_3  and  C_22
    3  A    between atoms: N_4  and  C_11
    4  A    between atoms: N_4  and  C_36
    5  A    between atoms: C_5  and  C_7
    6  A    between atoms: C_14  and  C_36
    7  A    between atoms: C_14  and  C_37
    8  A    between atoms: C_22  and  C_29
    9  A    between atoms: C_29  and  C_32
   10  A    between atoms: C_30  and  C_32
                            x       y       z     vdW  Elec       q    Type
                         _______ _______ _______ _____ _____    ______ ____

>  <TORSDO>
F 10

$$$$
=
 OpenBabel11042418233D

 37 41  0  0  1  0  0  0  0  0999 V2000
  190.5270  176.3070  146.3820 C   0  0  0  0  0  0  0  0  0  0  0  0
  184.9790  177.9300  144.9950 C   0  0  0  0  0  0  0  0  0  0  0  0
  184.7210  178.8440  146.1340 C   0  0  0  0  0  3  0  0  0  0  0  0
  187.3020  176.1730  143.4580 C   0  0  0  0  0  2  0  0  0  0  0  0
  192.1850  176.9120  144.5440 C   0  0  0  0  0  2  0  0  0  0  0  0
  185.5740  178.6560  147.1040 N   0  0  0  0  0  0  0  0  0  0  0  0
  190.3190  176.1850  147.6190 O   0  0  0  0  0  0  0  0  0  0  0  0
  192.7950  175.6680  143.9150 C   0  0  1  0  0  3  0  0  0  0  0  0
  187.7060  177.4090  146.8760 C   0  0  0  0  0  3  0  0  0  0  0  0
  191.7770  174.8190  143.1320 C   0  0  2  0  0  0  0  0  0  0  0  0
  188.1900  176.6490  145.6960 C   0  0  0  0  0  0  0  0  0  0  0  0
  188.6890  175.7580  143.0240 C   0  0  0  0  0  2  0  0  0  0  0  0
  185.9830  177.1630  145.3670 C   0  0  0  0  0  0  0  0  0  0  0  0
  187.1240  176.5760  144.7090 C   0  0  0  0  0  0  0  0  0  0  0  0
  191.3170  175.5300  142.0350 F   0  0  0  0  0  0  0  0  0  0  0  0
  193.9590  176.0840  143.0300 C   0  0  0  0  0  1  0  0  0  0  0  0
  186.4050  177.6040  146.6440 C   0  0  0  0  0  0  0  0  0  0  0  0
  189.4050  176.1560  145.4290 C   0  0  2  0  0  3  0  0  0  0  0  0
  190.5990  174.4150  144.0540 C   0  0  1  0  0  3  0  0  0  0  0  0
  192.4330  173.6750  142.6680 O   0  0  0  0  0  1  0  0  0  0  0  0
  191.8440  176.6440  145.9350 N   0  0  0  0  0  2  0  0  0  0  0  0
  189.5790  175.4640  144.1700 N   0  0  1  0  0  0  0  0  0  0  0  0
  190.8130  171.9990  144.1990 O   0  0  0  0  0  0  0  0  0  0  0  0
  189.9690  173.0440  143.7800 C   0  0  1  0  0  0  0  0  0  0  0  0
  189.6470  172.2060  144.9600 C   0  0  0  0  0  2  0  0  0  0  0  0
  189.3360  172.7260  142.4220 C   0  0  0  0  0  2  0  0  0  0  0  0
  190.0880  171.6500  141.6450 C   0  0  0  0  0  2  0  0  0  0  0  0
  189.8540  171.7830  140.2750 O   0  0  0  0  0  0  0  0  0  0  0  0
  190.2740  173.0740  139.9620 C   0  0  0  0  0  2  0  0  0  0  0  0
  189.8320  173.4130  138.6130 N   0  0  0  0  0  2  0  0  0  0  0  0
  188.2380  174.7280  139.7450 O   0  0  0  0  0  1  0  0  0  0  0  0
  188.4520  173.9040  138.6360 C   0  0  1  0  0  3  0  0  0  0  0  0
  188.0810  174.6360  137.3490 C   0  0  0  0  0  2  0  0  0  0  0  0
  188.9040  174.7870  135.0860 N   0  0  0  0  0  2  0  0  0  0  0  0
  189.1310  174.4500  136.3020 C   0  0  0  0  0  3  0  0  0  0  0  0
  184.5350  178.1330  143.6430 C   0  0  0  0  0  0  0  0  0  0  0  0
  184.1660  178.3010  142.5080 C   0  0  0  0  0  3  0  0  0  0  0  0
  1  7  2  0  0  0  0
  2 13  2  0  0  0  0
  2  3  1  0  0  0  0
  3  6  2  0  0  0  0
  4 14  1  0  0  0  0
  5 21  1  0  0  0  0
  8 16  1  6  0  0  0
  8  5  1  0  0  0  0
 10 15  1  6  0  0  0
 10  8  1  0  0  0  0
 10 19  1  0  0  0  0
 11  9  1  0  0  0  0
 12  4  1  0  0  0  0
 13 17  1  0  0  0  0
 14 13  1  0  0  0  0
 14 11  2  0  0  0  0
 17  9  2  0  0  0  0
 17  6  1  0  0  0  0
 18 11  1  1  0  0  0
 18  1  1  0  0  0  0
 19 24  1  6  0  0  0
 19 22  1  0  0  0  0
 20 10  1  0  0  0  0
 21  1  1  0  0  0  0
 22 12  1  1  0  0  0
 22 18  1  0  0  0  0
 23 25  1  0  0  0  0
 24 26  1  6  0  0  0
 24 23  1  0  0  0  0
 24 25  1  0  0  0  0
 27 26  1  0  0  0  0
 28 27  1  0  0  0  0
 29 28  1  0  0  0  0
 30 32  1  0  0  0  0
 30 29  1  0  0  0  0
 32 31  1  1  0  0  0
 33 32  1  0  0  0  0
 34 35  2  0  0  0  0
 35 33  1  0  0  0  0
 36  2  1  0  0  0  0
 37 36  3  0  0  0  0
M  END
>  <MODEL>
4

>  <REMARK>
 VINA RESULT:      -7.2      2.718      6.220
  Name = 
  10 active torsions:
  status: ('A' for Active; 'I' for Inactive)
    1  A    between atoms: O_3  and  C_11
    2  A    between atoms: O_3  and  C_22
    3  A    between atoms: N_4  and  C_11
    4  A    between atoms: N_4  and  C_36
    5  A    between atoms: C_5  and  C_7
    6  A    between atoms: C_14  and  C_36
    7  A    between atoms: C_14  and  C_37
    8  A    between atoms: C_22  and  C_29
    9  A    between atoms: C_29  and  C_32
   10  A    between atoms: C_30  and  C_32
                            x       y       z     vdW  Elec       q    Type
                         _______ _______ _______ _____ _____    ______ ____

>  <TORSDO>
F 10

$$$$
=
 OpenBabel11042418233D

 37 41  0  0  1  0  0  0  0  0999 V2000
  190.4960  176.2720  146.3710 C   0  0  0  0  0  0  0  0  0  0  0  0
  184.9420  177.9100  145.0260 C   0  0  0  0  0  0  0  0  0  0  0  0
  184.6910  178.8160  146.1720 C   0  0  0  0  0  3  0  0  0  0  0  0
  187.2540  176.1600  143.4640 C   0  0  0  0  0  2  0  0  0  0  0  0
  192.1440  176.8870  144.5280 C   0  0  0  0  0  2  0  0  0  0  0  0
  185.5500  178.6210  147.1370 N   0  0  0  0  0  0  0  0  0  0  0  0
  190.2940  176.1420  147.6080 O   0  0  0  0  0  0  0  0  0  0  0  0
  192.7490  175.6470  143.8870 C   0  0  1  0  0  3  0  0  0  0  0  0
  187.6790  177.3730  146.8880 C   0  0  0  0  0  3  0  0  0  0  0  0
  191.7260  174.8040  143.1040 C   0  0  2  0  0  0  0  0  0  0  0  0
  188.1550  176.6210  145.7000 C   0  0  0  0  0  0  0  0  0  0  0  0
  188.6390  175.7470  143.0200 C   0  0  0  0  0  2  0  0  0  0  0  0
  185.9470  177.1390  145.3880 C   0  0  0  0  0  0  0  0  0  0  0  0
  187.0840  176.5550  144.7190 C   0  0  0  0  0  0  0  0  0  0  0  0
  191.2600  175.5230  142.0140 F   0  0  0  0  0  0  0  0  0  0  0  0
  193.9090  176.0680  142.9980 C   0  0  0  0  0  1  0  0  0  0  0  0
  186.3770  177.5710  146.6650 C   0  0  0  0  0  0  0  0  0  0  0  0
  189.3680  176.1280  145.4240 C   0  0  2  0  0  3  0  0  0  0  0  0
  190.5530  174.3960  144.0300 C   0  0  1  0  0  3  0  0  0  0  0  0
  192.3780  173.6620  142.6290 O   0  0  0  0  0  1  0  0  0  0  0  0
  191.8100  176.6100  145.9190 N   0  0  0  0  0  2  0  0  0  0  0  0
  189.5340  175.4440  144.1590 N   0  0  1  0  0  0  0  0  0  0  0  0
  190.8030  171.9780  144.0690 O   0  0  0  0  0  0  0  0  0  0  0  0
  189.9190  173.0270  143.7510 C   0  0  1  0  0  0  0  0  0  0  0  0
  189.6920  172.1420  144.9190 C   0  0  0  0  0  2  0  0  0  0  0  0
  189.1950  172.7500  142.4300 C   0  0  0  0  0  2  0  0  0  0  0  0
  190.0030  171.8800  141.4710 C   0  0  0  0  0  2  0  0  0  0  0  0
  190.1560  172.5230  140.2410 O   0  0  0  0  0  0  0  0  0  0  0  0
  189.0810  173.4040  140.1590 C   0  0  0  0  0  2  0  0  0  0  0  0
  188.8240  173.7240  138.7580 N   0  0  0  0  0  2  0  0  0  0  0  0
  189.3190  172.0910  137.1340 O   0  0  0  0  0  1  0  0  0  0  0  0
  189.8530  173.1300  137.9020 C   0  0  1  0  0  3  0  0  0  0  0  0
  190.5230  174.1670  137.0040 C   0  0  0  0  0  2  0  0  0  0  0  0
  192.5250  174.1320  138.3490 N   0  0  0  0  0  2  0  0  0  0  0  0
  192.0080  174.1490  137.1770 C   0  0  0  0  0  3  0  0  0  0  0  0
  184.4900  178.1220  143.6780 C   0  0  0  0  0  0  0  0  0  0  0  0
  184.1080  178.2990  142.5490 C   0  0  0  0  0  3  0  0  0  0  0  0
  1  7  2  0  0  0  0
  2 13  2  0  0  0  0
  2  3  1  0  0  0  0
  3  6  2  0  0  0  0
  4 14  1  0  0  0  0
  5 21  1  0  0  0  0
  8 16  1  6  0  0  0
  8  5  1  0  0  0  0
 10 15  1  6  0  0  0
 10  8  1  0  0  0  0
 10 19  1  0  0  0  0
 11  9  1  0  0  0  0
 12  4  1  0  0  0  0
 13 17  1  0  0  0  0
 14 13  1  0  0  0  0
 14 11  2  0  0  0  0
 17  9  2  0  0  0  0
 17  6  1  0  0  0  0
 18 11  1  1  0  0  0
 18  1  1  0  0  0  0
 19 24  1  6  0  0  0
 19 22  1  0  0  0  0
 20 10  1  0  0  0  0
 21  1  1  0  0  0  0
 22 12  1  1  0  0  0
 22 18  1  0  0  0  0
 23 25  1  0  0  0  0
 24 26  1  6  0  0  0
 24 23  1  0  0  0  0
 24 25  1  0  0  0  0
 27 26  1  0  0  0  0
 28 27  1  0  0  0  0
 29 28  1  0  0  0  0
 30 29  1  0  0  0  0
 32 31  1  6  0  0  0
 32 30  1  0  0  0  0
 33 35  1  0  0  0  0
 33 32  1  0  0  0  0
 35 34  2  0  0  0  0
 36  2  1  0  0  0  0
 37 36  3  0  0  0  0
M  END
>  <MODEL>
5

>  <REMARK>
 VINA RESULT:      -6.9      2.790      5.846
  Name = 
  10 active torsions:
  status: ('A' for Active; 'I' for Inactive)
    1  A    between atoms: O_3  and  C_11
    2  A    between atoms: O_3  and  C_22
    3  A    between atoms: N_4  and  C_11
    4  A    between atoms: N_4  and  C_36
    5  A    between atoms: C_5  and  C_7
    6  A    between atoms: C_14  and  C_36
    7  A    between atoms: C_14  and  C_37
    8  A    between atoms: C_22  and  C_29
    9  A    between atoms: C_29  and  C_32
   10  A    between atoms: C_30  and  C_32
                            x       y       z     vdW  Elec       q    Type
                         _______ _______ _______ _____ _____    ______ ____

>  <TORSDO>
F 10

$$$$
=
 OpenBabel11042418233D

 37 41  0  0  1  0  0  0  0  0999 V2000
  191.1720  175.9730  146.7970 C   0  0  0  0  0  0  0  0  0  0  0  0
  185.8690  178.2090  145.3060 C   0  0  0  0  0  0  0  0  0  0  0  0
  185.5740  178.9430  146.5600 C   0  0  0  0  0  3  0  0  0  0  0  0
  188.1990  176.5550  143.6670 C   0  0  0  0  0  2  0  0  0  0  0  0
  193.0110  176.7420  145.2100 C   0  0  0  0  0  2  0  0  0  0  0  0
  186.3310  178.5370  147.5440 N   0  0  0  0  0  0  0  0  0  0  0  0
  190.8540  175.6680  147.9770 O   0  0  0  0  0  0  0  0  0  0  0  0
  193.5930  175.5740  144.4260 C   0  0  1  0  0  3  0  0  0  0  0  0
  188.3930  177.1880  147.2640 C   0  0  0  0  0  3  0  0  0  0  0  0
  192.5940  174.9420  143.4420 C   0  0  2  0  0  0  0  0  0  0  0  0
  188.9260  176.5950  146.0110 C   0  0  0  0  0  0  0  0  0  0  0  0
  189.5890  176.1140  143.2710 C   0  0  0  0  0  2  0  0  0  0  0  0
  186.7900  177.3180  145.6160 C   0  0  0  0  0  0  0  0  0  0  0  0
  187.9430  176.7620  144.9520 C   0  0  0  0  0  0  0  0  0  0  0  0
  192.2710  175.8540  142.4480 F   0  0  0  0  0  0  0  0  0  0  0  0
  194.8510  176.0400  143.7090 C   0  0  0  0  0  1  0  0  0  0  0  0
  187.1310  177.5140  146.9760 C   0  0  0  0  0  0  0  0  0  0  0  0
  190.1260  176.0620  145.7540 C   0  0  2  0  0  3  0  0  0  0  0  0
  191.3200  174.4830  144.1960 C   0  0  1  0  0  3  0  0  0  0  0  0
  193.2140  173.8420  142.8410 O   0  0  0  0  0  1  0  0  0  0  0  0
  192.5400  176.2780  146.5080 N   0  0  0  0  0  2  0  0  0  0  0  0
  190.3610  175.5720  144.4120 N   0  0  1  0  0  0  0  0  0  0  0  0
  191.2190  172.0550  144.1680 O   0  0  0  0  0  0  0  0  0  0  0  0
  190.6310  173.2250  143.6520 C   0  0  1  0  0  0  0  0  0  0  0  0
  189.9280  172.3670  144.6350 C   0  0  0  0  0  2  0  0  0  0  0  0
  190.3340  173.0750  142.1570 C   0  0  0  0  0  2  0  0  0  0  0  0
  188.9370  172.5320  141.8720 C   0  0  0  0  0  2  0  0  0  0  0  0
  188.1000  173.5520  141.4200 O   0  0  0  0  0  0  0  0  0  0  0  0
  188.5660  173.8630  140.1440 C   0  0  0  0  0  2  0  0  0  0  0  0
  188.2070  172.7890  139.2230 N   0  0  0  0  0  2  0  0  0  0  0  0
  190.3290  173.4660  138.4560 O   0  0  0  0  0  1  0  0  0  0  0  0
  189.2380  172.6310  138.1950 C   0  0  1  0  0  3  0  0  0  0  0  0
  189.6970  171.1820  138.0580 C   0  0  0  0  0  2  0  0  0  0  0  0
  189.3180  171.5430  135.7030 N   0  0  0  0  0  2  0  0  0  0  0  0
  189.7830  170.7790  136.6210 C   0  0  0  0  0  3  0  0  0  0  0  0
  185.5520  178.6600  143.9790 C   0  0  0  0  0  0  0  0  0  0  0  0
  185.2830  179.0400  142.8670 C   0  0  0  0  0  3  0  0  0  0  0  0
  1  7  2  0  0  0  0
  2 13  2  0  0  0  0
  2  3  1  0  0  0  0
  3  6  2  0  0  0  0
  4 14  1  0  0  0  0
  5 21  1  0  0  0  0
  8 16  1  6  0  0  0
  8  5  1  0  0  0  0
 10 15  1  6  0  0  0
 10 19  1  0  0  0  0
 10  8  1  0  0  0  0
 11  9  1  0  0  0  0
 12  4  1  0  0  0  0
 13 17  1  0  0  0  0
 14 13  1  0  0  0  0
 14 11  2  0  0  0  0
 17  9  2  0  0  0  0
 17  6  1  0  0  0  0
 18 11  1  1  0  0  0
 18  1  1  0  0  0  0
 19 24  1  6  0  0  0
 19 22  1  0  0  0  0
 20 10  1  0  0  0  0
 21  1  1  0  0  0  0
 22 12  1  1  0  0  0
 22 18  1  0  0  0  0
 23 25  1  0  0  0  0
 24 26  1  6  0  0  0
 24 23  1  0  0  0  0
 24 25  1  0  0  0  0
 27 26  1  0  0  0  0
 28 27  1  0  0  0  0
 29 28  1  0  0  0  0
 30 29  1  0  0  0  0
 32 31  1  1  0  0  0
 32 30  1  0  0  0  0
 33 32  1  0  0  0  0
 34 35  2  0  0  0  0
 35 33  1  0  0  0  0
 36  2  1  0  0  0  0
 37 36  3  0  0  0  0
M  END
>  <MODEL>
6

>  <REMARK>
 VINA RESULT:      -6.7      2.721      6.187
  Name = 
  10 active torsions:
  status: ('A' for Active; 'I' for Inactive)
    1  A    between atoms: O_3  and  C_11
    2  A    between atoms: O_3  and  C_22
    3  A    between atoms: N_4  and  C_11
    4  A    between atoms: N_4  and  C_36
    5  A    between atoms: C_5  and  C_7
    6  A    between atoms: C_14  and  C_36
    7  A    between atoms: C_14  and  C_37
    8  A    between atoms: C_22  and  C_29
    9  A    between atoms: C_29  and  C_32
   10  A    between atoms: C_30  and  C_32
                            x       y       z     vdW  Elec       q    Type
                         _______ _______ _______ _____ _____    ______ ____

>  <TORSDO>
F 10

$$$$
=
 OpenBabel11042418233D

 37 41  0  0  1  0  0  0  0  0999 V2000
  190.3580  175.9230  146.4280 C   0  0  0  0  0  0  0  0  0  0  0  0
  184.8690  177.9010  145.2890 C   0  0  0  0  0  0  0  0  0  0  0  0
  184.6410  178.6640  146.5400 C   0  0  0  0  0  3  0  0  0  0  0  0
  187.1330  176.2860  143.5240 C   0  0  0  0  0  2  0  0  0  0  0  0
  192.0370  176.7100  144.6800 C   0  0  0  0  0  2  0  0  0  0  0  0
  185.4880  178.3210  147.4740 N   0  0  0  0  0  0  0  0  0  0  0  0
  190.1450  175.6450  147.6380 O   0  0  0  0  0  0  0  0  0  0  0  0
  192.6050  175.5400  143.8890 C   0  0  1  0  0  3  0  0  0  0  0  0
  187.5760  177.0440  147.0740 C   0  0  0  0  0  3  0  0  0  0  0  0
  191.5600  174.8370  143.0050 C   0  0  2  0  0  0  0  0  0  0  0  0
  188.0340  176.4310  145.8020 C   0  0  0  0  0  0  0  0  0  0  0  0
  188.5050  175.8860  143.0340 C   0  0  0  0  0  2  0  0  0  0  0  0
  185.8470  177.0580  145.5530 C   0  0  0  0  0  0  0  0  0  0  0  0
  186.9670  176.5250  144.8180 C   0  0  0  0  0  0  0  0  0  0  0  0
  191.1240  175.7030  142.0130 F   0  0  0  0  0  0  0  0  0  0  0  0
  193.7830  176.0310  143.0630 C   0  0  0  0  0  1  0  0  0  0  0  0
  186.2830  177.3110  146.8750 C   0  0  0  0  0  0  0  0  0  0  0  0
  189.2320  175.9370  145.4680 C   0  0  2  0  0  3  0  0  0  0  0  0
  190.3680  174.3550  143.8700 C   0  0  1  0  0  3  0  0  0  0  0  0
  192.1770  173.7430  142.3910 O   0  0  0  0  0  1  0  0  0  0  0  0
  191.6860  176.2710  146.0240 N   0  0  0  0  0  2  0  0  0  0  0  0
  189.3840  175.4120  144.1270 N   0  0  1  0  0  0  0  0  0  0  0  0
  190.6190  171.9990  143.3260 O   0  0  0  0  0  0  0  0  0  0  0  0
  189.6920  173.0540  143.4190 C   0  0  1  0  0  0  0  0  0  0  0  0
  189.6920  171.9280  144.3840 C   0  0  0  0  0  2  0  0  0  0  0  0
  188.7260  173.0400  142.2300 C   0  0  0  0  0  2  0  0  0  0  0  0
  189.3990  172.6650  140.9130 C   0  0  0  0  0  2  0  0  0  0  0  0
  189.5620  173.7950  140.1090 O   0  0  0  0  0  0  0  0  0  0  0  0
  190.3290  173.3610  139.0300 C   0  0  0  0  0  2  0  0  0  0  0  0
  191.2720  172.3440  139.4850 N   0  0  0  0  0  2  0  0  0  0  0  0
  192.9100  172.0060  137.8260 O   0  0  0  0  0  1  0  0  0  0  0  0
  192.6260  172.6620  139.0270 C   0  0  1  0  0  3  0  0  0  0  0  0
  192.8440  174.1660  138.8770 C   0  0  0  0  0  2  0  0  0  0  0  0
  194.8270  173.7470  140.1860 N   0  0  0  0  0  2  0  0  0  0  0  0
  194.1140  174.5940  139.5400 C   0  0  0  0  0  3  0  0  0  0  0  0
  184.4330  178.2960  143.9780 C   0  0  0  0  0  0  0  0  0  0  0  0
  184.0670  178.6300  142.8790 C   0  0  0  0  0  3  0  0  0  0  0  0
  1  7  2  0  0  0  0
  2 13  2  0  0  0  0
  2  3  1  0  0  0  0
  3  6  2  0  0  0  0
  4 14  1  0  0  0  0
  5 21  1  0  0  0  0
  8 16  1  6  0  0  0
  8  5  1  0  0  0  0
 10 15  1  6  0  0  0
 10 19  1  0  0  0  0
 10  8  1  0  0  0  0
 11  9  1  0  0  0  0
 12  4  1  0  0  0  0
 13 17  1  0  0  0  0
 14 13  1  0  0  0  0
 14 11  2  0  0  0  0
 17  9  2  0  0  0  0
 17  6  1  0  0  0  0
 18 11  1  1  0  0  0
 18  1  1  0  0  0  0
 19 24  1  6  0  0  0
 19 22  1  0  0  0  0
 20 10  1  0  0  0  0
 21  1  1  0  0  0  0
 22 12  1  1  0  0  0
 22 18  1  0  0  0  0
 23 24  1  0  0  0  0
 23 25  1  0  0  0  0
 24 26  1  6  0  0  0
 24 25  1  0  0  0  0
 27 26  1  0  0  0  0
 28 27  1  0  0  0  0
 29 30  1  0  0  0  0
 29 28  1  0  0  0  0
 32 31  1  6  0  0  0
 32 30  1  0  0  0  0
 33 32  1  0  0  0  0
 33 35  1  0  0  0  0
 35 34  2  0  0  0  0
 36  2  1  0  0  0  0
 37 36  3  0  0  0  0
M  END
>  <MODEL>
7

>  <REMARK>
 VINA RESULT:      -6.7      2.810      5.200
  Name = 
  10 active torsions:
  status: ('A' for Active; 'I' for Inactive)
    1  A    between atoms: O_3  and  C_11
    2  A    between atoms: O_3  and  C_22
    3  A    between atoms: N_4  and  C_11
    4  A    between atoms: N_4  and  C_36
    5  A    between atoms: C_5  and  C_7
    6  A    between atoms: C_14  and  C_36
    7  A    between atoms: C_14  and  C_37
    8  A    between atoms: C_22  and  C_29
    9  A    between atoms: C_29  and  C_32
   10  A    between atoms: C_30  and  C_32
                            x       y       z     vdW  Elec       q    Type
                         _______ _______ _______ _____ _____    ______ ____

>  <TORSDO>
F 10

$$$$
=
 OpenBabel11042418233D

 37 41  0  0  1  0  0  0  0  0999 V2000
  187.9270  174.6790  142.3820 C   0  0  0  0  0  0  0  0  0  0  0  0
  193.4470  174.2650  140.2160 C   0  0  0  0  0  0  0  0  0  0  0  0
  193.1370  173.5780  138.9390 C   0  0  0  0  0  3  0  0  0  0  0  0
  192.1200  175.7700  142.8280 C   0  0  0  0  0  2  0  0  0  0  0  0
  187.2410  177.0990  142.7890 C   0  0  0  0  0  2  0  0  0  0  0  0
  191.9480  173.0390  138.9600 N   0  0  0  0  0  0  0  0  0  0  0  0
  187.5670  173.5230  142.0340 O   0  0  0  0  0  0  0  0  0  0  0  0
  187.0220  177.3730  144.2700 C   0  0  1  0  0  3  0  0  0  0  0  0
  190.1900  173.5830  140.6220 C   0  0  0  0  0  3  0  0  0  0  0  0
  188.3130  177.2840  145.1030 C   0  0  2  0  0  0  0  0  0  0  0  0
  190.3110  174.4550  141.8180 C   0  0  0  0  0  0  0  0  0  0  0  0
  191.0880  176.5170  143.6410 C   0  0  0  0  0  2  0  0  0  0  0  0
  192.4110  174.0530  141.0020 C   0  0  0  0  0  0  0  0  0  0  0  0
  191.7070  174.8210  141.9990 C   0  0  0  0  0  0  0  0  0  0  0  0
  189.1880  178.2910  144.7260 F   0  0  0  0  0  0  0  0  0  0  0  0
  186.3600  178.7330  144.4260 C   0  0  0  0  0  1  0  0  0  0  0  0
  191.4480  173.3350  140.2530 C   0  0  0  0  0  0  0  0  0  0  0  0
  189.3610  174.9640  142.6110 C   0  0  2  0  0  3  0  0  0  0  0  0
  188.9700  175.8930  144.9200 C   0  0  1  0  0  3  0  0  0  0  0  0
  187.9750  177.4780  146.4470 O   0  0  0  0  0  1  0  0  0  0  0  0
  186.9360  175.7050  142.4950 N   0  0  0  0  0  2  0  0  0  0  0  0
  189.7920  175.8040  143.7080 N   0  0  1  0  0  0  0  0  0  0  0  0
  188.8160  174.7000  147.0330 O   0  0  0  0  0  0  0  0  0  0  0  0
  189.7070  175.3300  146.1420 C   0  0  1  0  0  0  0  0  0  0  0  0
  189.6890  173.8580  146.3170 C   0  0  0  0  0  2  0  0  0  0  0  0
  190.7330  176.1770  146.9010 C   0  0  0  0  0  2  0  0  0  0  0  0
  192.1690  175.7030  146.7020 C   0  0  0  0  0  2  0  0  0  0  0  0
  193.0690  176.6970  147.0930 O   0  0  0  0  0  0  0  0  0  0  0  0
  194.2790  176.3400  146.5010 C   0  0  0  0  0  2  0  0  0  0  0  0
  194.4920  177.1540  145.3090 N   0  0  0  0  0  2  0  0  0  0  0  0
  196.3710  177.1380  143.8860 O   0  0  0  0  0  1  0  0  0  0  0  0
  195.2580  176.4050  144.3100 C   0  0  1  0  0  3  0  0  0  0  0  0
  195.6890  175.0340  144.8250 C   0  0  0  0  0  2  0  0  0  0  0  0
  194.5430  173.1700  143.8100 N   0  0  0  0  0  2  0  0  0  0  0  0
  195.5290  173.9870  143.7700 C   0  0  0  0  0  3  0  0  0  0  0  0
  194.4400  175.2890  140.3950 C   0  0  0  0  0  0  0  0  0  0  0  0
  195.2700  176.1500  140.5470 C   0  0  0  0  0  3  0  0  0  0  0  0
  1 21  1  0  0  0  0
  1 18  1  0  0  0  0
  2 36  1  0  0  0  0
  2 13  1  0  0  0  0
  3  6  1  0  0  0  0
  3  2  2  0  0  0  0
  4 12  1  0  0  0  0
  5  8  1  0  0  0  0
  6 17  2  0  0  0  0
  7  1  2  0  0  0  0
  8 16  1  6  0  0  0
  8 10  1  0  0  0  0
  9 11  2  0  0  0  0
 10 15  1  6  0  0  0
 10 20  1  0  0  0  0
 11 14  1  0  0  0  0
 13 14  2  0  0  0  0
 14  4  1  0  0  0  0
 17  9  1  0  0  0  0
 17 13  1  0  0  0  0
 18 11  1  1  0  0  0
 18 22  1  0  0  0  0
 19 10  1  0  0  0  0
 19 24  1  1  0  0  0
 21  5  1  0  0  0  0
 22 12  1  1  0  0  0
 22 19  1  0  0  0  0
 24 25  1  0  0  0  0
 24 26  1  1  0  0  0
 24 23  1  0  0  0  0
 25 23  1  0  0  0  0
 27 26  1  0  0  0  0
 27 28  1  0  0  0  0
 29 28  1  0  0  0  0
 30 29  1  0  0  0  0
 32 31  1  1  0  0  0
 32 33  1  0  0  0  0
 32 30  1  0  0  0  0
 35 34  2  0  0  0  0
 35 33  1  0  0  0  0
 36 37  3  0  0  0  0
M  END
>  <MODEL>
8

>  <REMARK>
 VINA RESULT:      -6.7      2.754      5.917
  Name = 
  10 active torsions:
  status: ('A' for Active; 'I' for Inactive)
    1  A    between atoms: O_3  and  C_11
    2  A    between atoms: O_3  and  C_22
    3  A    between atoms: N_4  and  C_11
    4  A    between atoms: N_4  and  C_36
    5  A    between atoms: C_5  and  C_7
    6  A    between atoms: C_14  and  C_36
    7  A    between atoms: C_14  and  C_37
    8  A    between atoms: C_22  and  C_29
    9  A    between atoms: C_29  and  C_32
   10  A    between atoms: C_30  and  C_32
                            x       y       z     vdW  Elec       q    Type
                         _______ _______ _______ _____ _____    ______ ____

>  <TORSDO>
F 10

$$$$
=
 OpenBabel11042418233D

 37 41  0  0  1  0  0  0  0  0999 V2000
  192.7810  176.3250  146.8000 C   0  0  0  0  0  0  0  0  0  0  0  0
  196.3020  173.2550  143.1240 C   0  0  0  0  0  0  0  0  0  0  0  0
  197.5410  173.2660  143.9380 C   0  0  0  0  0  3  0  0  0  0  0  0
  193.0880  173.9740  143.1470 C   0  0  0  0  0  2  0  0  0  0  0  0
  190.7380  174.9790  147.5110 C   0  0  0  0  0  2  0  0  0  0  0  0
  197.4970  174.1820  144.8690 N   0  0  0  0  0  0  0  0  0  0  0  0
  193.6490  177.1790  147.1260 O   0  0  0  0  0  0  0  0  0  0  0  0
  189.4510  175.6030  146.9890 C   0  0  1  0  0  3  0  0  0  0  0  0
  195.4280  175.3330  145.6070 C   0  0  0  0  0  3  0  0  0  0  0  0
  189.3260  175.5510  145.4560 C   0  0  2  0  0  0  0  0  0  0  0  0
  194.0690  175.2200  145.0200 C   0  0  0  0  0  0  0  0  0  0  0  0
  191.7150  174.2440  143.7200 C   0  0  0  0  0  2  0  0  0  0  0  0
  195.5580  174.2420  143.5840 C   0  0  0  0  0  0  0  0  0  0  0  0
  194.1460  174.4520  143.7880 C   0  0  0  0  0  0  0  0  0  0  0  0
  189.2250  174.2330  145.0370 F   0  0  0  0  0  0  0  0  0  0  0  0
  188.2680  174.9250  147.6610 C   0  0  0  0  0  1  0  0  0  0  0  0
  196.2400  174.8120  144.6850 C   0  0  0  0  0  0  0  0  0  0  0  0
  192.8880  175.6270  145.5000 C   0  0  2  0  0  3  0  0  0  0  0  0
  190.5480  176.2410  144.7980 C   0  0  1  0  0  3  0  0  0  0  0  0
  188.1510  176.2160  145.0950 O   0  0  0  0  0  1  0  0  0  0  0  0
  191.7370  176.0170  147.7280 N   0  0  0  0  0  2  0  0  0  0  0  0
  191.7160  175.3590  144.6950 N   0  0  1  0  0  0  0  0  0  0  0  0
  189.9890  178.3340  143.6960 O   0  0  0  0  0  0  0  0  0  0  0  0
  190.2770  176.9730  143.4780 C   0  0  1  0  0  0  0  0  0  0  0  0
  191.2300  178.0430  143.0960 C   0  0  0  0  0  2  0  0  0  0  0  0
  189.3360  176.3770  142.4260 C   0  0  0  0  0  2  0  0  0  0  0  0
  188.3280  177.3830  141.8800 C   0  0  0  0  0  2  0  0  0  0  0  0
  187.0620  176.8020  141.7860 O   0  0  0  0  0  0  0  0  0  0  0  0
  186.1750  177.8090  142.1610 C   0  0  0  0  0  2  0  0  0  0  0  0
  185.5760  177.4710  143.4490 N   0  0  0  0  0  2  0  0  0  0  0  0
  185.6100  179.8170  143.6580 O   0  0  0  0  0  1  0  0  0  0  0  0
  185.6560  178.6120  144.3640 C   0  0  1  0  0  3  0  0  0  0  0  0
  184.5600  178.5750  145.4260 C   0  0  0  0  0  2  0  0  0  0  0  0
  185.6060  177.6900  147.4120 N   0  0  0  0  0  2  0  0  0  0  0  0
  185.1370  178.7130  146.7990 C   0  0  0  0  0  3  0  0  0  0  0  0
  195.8350  172.1540  142.3270 C   0  0  0  0  0  0  0  0  0  0  0  0
  195.4450  171.2290  141.6610 C   0  0  0  0  0  3  0  0  0  0  0  0
  1  7  2  0  0  0  0
  1 21  1  0  0  0  0
  2 13  2  0  0  0  0
  2  3  1  0  0  0  0
  3  6  2  0  0  0  0
  4 12  1  0  0  0  0
  4 14  1  0  0  0  0
  5 21  1  0  0  0  0
  8  5  1  0  0  0  0
  8 16  1  1  0  0  0
 10 15  1  6  0  0  0
 10  8  1  0  0  0  0
 11  9  1  0  0  0  0
 13 14  1  0  0  0  0
 13 17  1  0  0  0  0
 14 11  2  0  0  0  0
 17  6  1  0  0  0  0
 17  9  2  0  0  0  0
 18 11  1  6  0  0  0
 18  1  1  0  0  0  0
 19 24  1  6  0  0  0
 19 10  1  0  0  0  0
 20 10  1  0  0  0  0
 22 12  1  6  0  0  0
 22 19  1  0  0  0  0
 22 18  1  0  0  0  0
 24 26  1  6  0  0  0
 24 23  1  0  0  0  0
 25 24  1  0  0  0  0
 25 23  1  0  0  0  0
 27 26  1  0  0  0  0
 28 27  1  0  0  0  0
 28 29  1  0  0  0  0
 29 30  1  0  0  0  0
 30 32  1  0  0  0  0
 32 31  1  6  0  0  0
 32 33  1  0  0  0  0
 33 35  1  0  0  0  0
 35 34  2  0  0  0  0
 36  2  1  0  0  0  0
 37 36  3  0  0  0  0
M  END
>  <MODEL>
9

>  <REMARK>
 VINA RESULT:      -6.4      2.478      9.037
  Name = 
  10 active torsions:
  status: ('A' for Active; 'I' for Inactive)
    1  A    between atoms: O_3  and  C_11
    2  A    between atoms: O_3  and  C_22
    3  A    between atoms: N_4  and  C_11
    4  A    between atoms: N_4  and  C_36
    5  A    between atoms: C_5  and  C_7
    6  A    between atoms: C_14  and  C_36
    7  A    between atoms: C_14  and  C_37
    8  A    between atoms: C_22  and  C_29
    9  A    between atoms: C_29  and  C_32
   10  A    between atoms: C_30  and  C_32
                            x       y       z     vdW  Elec       q    Type
                         _______ _______ _______ _____ _____    ______ ____

>  <TORSDO>
F 10

$$$$
