=
 OpenBabel11042417283D

 39 43  0  0  1  0  0  0  0  0999 V2000
  186.8370  177.9250  142.7690 C   0  0  0  0  0  0  0  0  0  0  0  0
  184.6160  178.4370  142.4970 C   0  0  0  0  0  2  0  0  0  0  0  0
  186.8740  177.8340  145.5480 C   0  0  0  0  0  0  0  0  0  0  0  0
  186.5600  178.0450  141.3270 C   0  0  2  0  0  3  0  0  0  0  0  0
  186.8570  177.7940  146.9510 C   0  0  0  0  0  3  0  0  0  0  0  0
  188.0440  177.6520  143.4100 C   0  0  0  0  0  3  0  0  0  0  0  0
  185.1750  178.3450  141.1930 O   0  0  0  0  0  0  0  0  0  0  0  0
  185.6680  178.1190  144.8520 C   0  0  0  0  0  0  0  0  0  0  0  0
  184.4860  178.3560  145.5620 C   0  0  0  0  0  3  0  0  0  0  0  0
  185.7000  178.1560  143.4560 C   0  0  0  0  0  0  0  0  0  0  0  0
  184.4890  178.3120  146.9590 C   0  0  0  0  0  3  0  0  0  0  0  0
  185.6700  178.0310  147.6510 C   0  0  0  0  0  3  0  0  0  0  0  0
  188.0700  177.6010  144.8190 C   0  0  0  0  0  0  0  0  0  0  0  0
  191.8640  176.4290  146.4450 C   0  0  2  0  0  3  0  0  0  0  0  0
  189.3600  177.2970  145.5260 C   0  0  1  0  0  3  0  0  0  0  0  0
  189.3940  175.8520  146.0280 C   0  0  0  0  0  2  0  0  0  0  0  0
  190.5710  177.6340  144.6420 C   0  0  0  0  0  2  0  0  0  0  0  0
  190.6550  175.5760  146.8560 C   0  0  0  0  0  2  0  0  0  0  0  0
  191.8100  176.7880  144.9610 C   0  0  0  0  0  2  0  0  0  0  0  0
  193.1460  175.6800  146.7740 C   0  0  0  0  0  2  0  0  0  0  0  0
  193.9210  175.3600  145.5270 C   0  0  0  0  0  0  0  0  0  0  0  0
  193.7100  174.2170  144.8710 C   0  0  0  0  0  3  0  0  0  0  0  0
  195.0840  177.4240  145.6100 O   0  0  0  0  0  0  0  0  0  0  0  0
  194.9150  176.3230  145.0170 C   0  0  0  0  0  0  0  0  0  0  0  0
  195.6870  176.0160  143.8500 N   0  0  0  0  0  2  0  0  0  0  0  0
  196.6950  176.9200  143.3160 C   0  0  0  0  0  2  0  0  0  0  0  0
  196.8190  176.7250  141.8820 N   0  0  0  0  0  2  0  0  0  0  0  0
  195.4850  176.4390  141.3830 C   0  0  0  0  0  1  0  0  0  0  0  0
  192.7610  173.2520  145.3230 N   0  0  0  0  0  2  0  0  0  0  0  0
  191.6480  172.8800  144.4750 C   0  0  0  0  0  1  0  0  0  0  0  0
  186.8780  176.7350  140.6210 C   0  0  0  0  0  2  0  0  0  0  0  0
  187.4230  174.7300  141.7900 O   0  0  0  0  0  0  0  0  0  0  0  0
  187.9450  175.9710  141.3830 C   0  0  1  0  0  3  0  0  0  0  0  0
  188.2680  174.7220  140.6650 C   0  0  1  0  0  3  0  0  0  0  0  0
  189.6480  174.2330  141.0800 C   0  0  0  0  0  2  0  0  0  0  0  0
  189.8660  172.7560  140.7540 C   0  0  0  0  0  0  0  0  0  0  0  0
  189.3860  171.9870  141.8130 O   0  0  0  0  0  1  0  0  0  0  0  0
  191.2280  172.4990  140.5860 O   0  0  0  0  0  1  0  0  0  0  0  0
  189.1160  172.3720  139.4910 C   0  0  0  0  0  1  0  0  0  0  0  0
  1  6  2  0  0  0  0
  1 10  1  0  0  0  0
  2 10  1  0  0  0  0
  3  5  1  0  0  0  0
  4 31  1  6  0  0  0
  4  1  1  0  0  0  0
  5 12  2  0  0  0  0
  6 13  1  0  0  0  0
  7  4  1  0  0  0  0
  7  2  1  0  0  0  0
  8  3  1  0  0  0  0
  8  9  1  0  0  0  0
  9 11  2  0  0  0  0
 10  8  2  0  0  0  0
 11 12  1  0  0  0  0
 13  3  2  0  0  0  0
 14 20  1  6  0  0  0
 14 18  1  0  0  0  0
 15 13  1  6  0  0  0
 15 16  1  0  0  0  0
 16 18  1  0  0  0  0
 17 19  1  0  0  0  0
 17 15  1  0  0  0  0
 19 14  1  0  0  0  0
 21 20  1  0  0  0  0
 22 29  1  0  0  0  0
 22 21  2  0  0  0  0
 24 21  1  0  0  0  0
 24 23  2  0  0  0  0
 25 24  1  0  0  0  0
 26 25  1  0  0  0  0
 27 26  1  0  0  0  0
 28 27  1  0  0  0  0
 30 29  1  0  0  0  0
 33 31  1  6  0  0  0
 33 32  1  0  0  0  0
 34 35  1  1  0  0  0
 34 33  1  0  0  0  0
 34 32  1  0  0  0  0
 36 35  1  0  0  0  0
 36 37  1  0  0  0  0
 38 36  1  0  0  0  0
 39 36  1  0  0  0  0
M  END
>  <MODEL>
1

>  <REMARK>
 VINA RESULT:      -8.3      0.000      0.000
  Name = 
  11 active torsions:
  status: ('A' for Active; 'I' for Inactive)
    1  A    between atoms: C_1  and  C_2
    2  A    between atoms: C_1  and  C_28
    3  A    between atoms: C_3  and  C_30
    4  A    between atoms: C_6  and  C_38
    5  A    between atoms: C_9  and  C_18
    6  A    between atoms: C_9  and  C_30
    7  A    between atoms: C_11  and  C_25
    8  A    between atoms: N_13  and  C_26
    9  A    between atoms: C_17  and  C_25
   10  A    between atoms: C_20  and  N_29
   11  A    between atoms: C_20  and  N_37
                            x       y       z     vdW  Elec       q    Type
                         _______ _______ _______ _____ _____    ______ ____

>  <TORSDO>
F 11

$$$$
=
 OpenBabel11042417283D

 39 43  0  0  1  0  0  0  0  0999 V2000
  187.0850  177.8390  142.8190 C   0  0  0  0  0  0  0  0  0  0  0  0
  184.8460  178.3240  142.6820 C   0  0  0  0  0  2  0  0  0  0  0  0
  187.2890  177.7370  145.5910 C   0  0  0  0  0  0  0  0  0  0  0  0
  186.7220  177.9620  141.3970 C   0  0  2  0  0  3  0  0  0  0  0  0
  187.3550  177.6900  146.9920 C   0  0  0  0  0  3  0  0  0  0  0  0
  188.3320  177.5790  143.3860 C   0  0  0  0  0  3  0  0  0  0  0  0
  185.3280  178.2450  141.3470 O   0  0  0  0  0  0  0  0  0  0  0  0
  186.0400  178.0090  144.9690 C   0  0  0  0  0  0  0  0  0  0  0  0
  184.8990  178.2290  145.7490 C   0  0  0  0  0  3  0  0  0  0  0  0
  185.9880  178.0520  143.5740 C   0  0  0  0  0  0  0  0  0  0  0  0
  184.9860  178.1790  147.1430 C   0  0  0  0  0  3  0  0  0  0  0  0
  186.2090  177.9090  147.7620 C   0  0  0  0  0  3  0  0  0  0  0  0
  188.4420  177.5210  144.7910 C   0  0  0  0  0  0  0  0  0  0  0  0
  192.3560  176.4240  146.1640 C   0  0  2  0  0  3  0  0  0  0  0  0
  189.7750  177.2300  145.4190 C   0  0  1  0  0  3  0  0  0  0  0  0
  189.9010  175.7540  145.8010 C   0  0  0  0  0  2  0  0  0  0  0  0
  190.9280  177.6980  144.5160 C   0  0  0  0  0  2  0  0  0  0  0  0
  191.2100  175.4800  146.5520 C   0  0  0  0  0  2  0  0  0  0  0  0
  192.2200  176.8950  144.7160 C   0  0  0  0  0  2  0  0  0  0  0  0
  193.6870  175.7190  146.3790 C   0  0  0  0  0  2  0  0  0  0  0  0
  194.0110  174.8110  145.2270 C   0  0  1  0  0  3  0  0  0  0  0  0
  194.9020  175.1780  144.3030 C   0  0  0  0  0  3  0  0  0  0  0  0
  193.7440  172.5370  145.8390 O   0  0  0  0  0  0  0  0  0  0  0  0
  193.3480  173.4970  145.1230 C   0  0  0  0  0  0  0  0  0  0  0  0
  192.2610  173.3070  144.2110 N   0  0  0  0  0  2  0  0  0  0  0  0
  191.5580  172.0390  144.0830 C   0  0  0  0  0  2  0  0  0  0  0  0
  190.2370  172.1470  144.6800 N   0  0  0  0  0  2  0  0  0  0  0  0
  189.2780  171.9920  143.6010 C   0  0  0  0  0  1  0  0  0  0  0  0
  195.5700  176.4370  144.3570 N   0  0  0  0  0  0  0  0  0  0  0  0
  196.5980  176.7540  143.3870 C   0  0  0  0  0  1  0  0  0  0  0  0
  187.0130  176.6590  140.6660 C   0  0  0  0  0  2  0  0  0  0  0  0
  187.6630  174.6300  141.7380 O   0  0  0  0  0  0  0  0  0  0  0  0
  188.1300  175.9030  141.3630 C   0  0  1  0  0  3  0  0  0  0  0  0
  188.4680  174.6930  140.5860 C   0  0  1  0  0  3  0  0  0  0  0  0
  189.8770  174.2360  140.9360 C   0  0  0  0  0  2  0  0  0  0  0  0
  190.3450  173.0710  140.0650 C   0  0  0  0  0  0  0  0  0  0  0  0
  189.3580  172.0860  140.0640 O   0  0  0  0  0  1  0  0  0  0  0  0
  191.5250  172.5320  140.5810 O   0  0  0  0  0  1  0  0  0  0  0  0
  190.5790  173.5320  138.6370 C   0  0  0  0  0  1  0  0  0  0  0  0
  1  6  2  0  0  0  0
  1 10  1  0  0  0  0
  2 10  1  0  0  0  0
  3  5  1  0  0  0  0
  4 31  1  6  0  0  0
  4  1  1  0  0  0  0
  5 12  2  0  0  0  0
  6 13  1  0  0  0  0
  7  4  1  0  0  0  0
  7  2  1  0  0  0  0
  8  3  1  0  0  0  0
  8  9  1  0  0  0  0
  9 11  2  0  0  0  0
 10  8  2  0  0  0  0
 11 12  1  0  0  0  0
 13  3  2  0  0  0  0
 14 20  1  6  0  0  0
 14 18  1  0  0  0  0
 15 13  1  6  0  0  0
 15 16  1  0  0  0  0
 16 18  1  0  0  0  0
 17 19  1  0  0  0  0
 17 15  1  0  0  0  0
 19 14  1  0  0  0  0
 21 22  1  1  0  0  0
 21 20  1  0  0  0  0
 22 29  2  0  0  0  0
 24 21  1  0  0  0  0
 24 23  2  0  0  0  0
 25 24  1  0  0  0  0
 26 25  1  0  0  0  0
 26 27  1  0  0  0  0
 28 27  1  0  0  0  0
 30 29  1  0  0  0  0
 33 31  1  6  0  0  0
 33 32  1  0  0  0  0
 34 35  1  1  0  0  0
 34 33  1  0  0  0  0
 34 32  1  0  0  0  0
 36 38  1  0  0  0  0
 36 35  1  0  0  0  0
 37 36  1  0  0  0  0
 39 36  1  0  0  0  0
M  END
>  <MODEL>
2

>  <REMARK>
 VINA RESULT:      -8.3      1.233      2.850
  Name = 
  11 active torsions:
  status: ('A' for Active; 'I' for Inactive)
    1  A    between atoms: C_1  and  C_2
    2  A    between atoms: C_1  and  C_28
    3  A    between atoms: C_3  and  C_30
    4  A    between atoms: C_6  and  C_38
    5  A    between atoms: C_9  and  C_18
    6  A    between atoms: C_9  and  C_30
    7  A    between atoms: C_11  and  C_25
    8  A    between atoms: N_13  and  C_26
    9  A    between atoms: C_17  and  C_25
   10  A    between atoms: C_20  and  N_29
   11  A    between atoms: C_20  and  N_37
                            x       y       z     vdW  Elec       q    Type
                         _______ _______ _______ _____ _____    ______ ____

>  <TORSDO>
F 11

$$$$
=
 OpenBabel11042417283D

 39 43  0  0  1  0  0  0  0  0999 V2000
  186.8830  177.8180  142.4870 C   0  0  0  0  0  0  0  0  0  0  0  0
  184.8080  178.5690  141.8550 C   0  0  0  0  0  2  0  0  0  0  0  0
  186.5030  177.9060  145.2410 C   0  0  0  0  0  0  0  0  0  0  0  0
  186.8370  177.8740  141.0160 C   0  0  2  0  0  3  0  0  0  0  0  0
  186.2760  177.9610  146.6250 C   0  0  0  0  0  3  0  0  0  0  0  0
  187.9390  177.4460  143.3170 C   0  0  0  0  0  3  0  0  0  0  0  0
  185.5360  178.3260  140.6580 O   0  0  0  0  0  0  0  0  0  0  0  0
  185.4570  178.2850  144.3560 C   0  0  0  0  0  0  0  0  0  0  0  0
  184.2240  178.7070  144.8650 C   0  0  0  0  0  3  0  0  0  0  0  0
  185.6960  178.2250  142.9810 C   0  0  0  0  0  0  0  0  0  0  0  0
  184.0180  178.7540  146.2460 C   0  0  0  0  0  3  0  0  0  0  0  0
  185.0400  178.3810  147.1230 C   0  0  0  0  0  3  0  0  0  0  0  0
  187.7530  177.4850  144.7150 C   0  0  0  0  0  0  0  0  0  0  0  0
  191.1570  176.0740  146.9130 C   0  0  2  0  0  3  0  0  0  0  0  0
  188.8770  177.0780  145.6250 C   0  0  1  0  0  3  0  0  0  0  0  0
  188.8370  175.5780  145.9230 C   0  0  0  0  0  2  0  0  0  0  0  0
  190.2360  177.5230  145.0620 C   0  0  0  0  0  2  0  0  0  0  0  0
  189.9080  175.1820  146.9470 C   0  0  0  0  0  2  0  0  0  0  0  0
  191.4010  176.6330  145.5120 C   0  0  0  0  0  2  0  0  0  0  0  0
  192.3610  175.2780  147.3940 C   0  0  0  0  0  2  0  0  0  0  0  0
  193.2320  174.8640  146.2420 C   0  0  0  0  0  0  0  0  0  0  0  0
  194.2570  175.6280  145.8580 C   0  0  0  0  0  3  0  0  0  0  0  0
  191.8840  173.4580  144.8910 O   0  0  0  0  0  0  0  0  0  0  0  0
  192.9590  173.5970  145.5370 C   0  0  0  0  0  0  0  0  0  0  0  0
  193.9060  172.5250  145.5860 N   0  0  0  0  0  2  0  0  0  0  0  0
  193.6970  171.2620  144.8930 C   0  0  0  0  0  2  0  0  0  0  0  0
  194.4610  170.2120  145.5450 N   0  0  0  0  0  2  0  0  0  0  0  0
  194.6120  169.1430  144.5740 C   0  0  0  0  0  1  0  0  0  0  0  0
  194.5620  176.8620  146.5060 N   0  0  0  0  0  2  0  0  0  0  0  0
  194.9560  178.0130  145.7200 C   0  0  0  0  0  1  0  0  0  0  0  0
  187.0860  176.4920  140.4290 C   0  0  0  0  0  2  0  0  0  0  0  0
  187.6050  174.4660  141.5750 O   0  0  0  0  0  0  0  0  0  0  0  0
  188.1090  175.7420  141.2630 C   0  0  1  0  0  3  0  0  0  0  0  0
  188.5520  174.5360  140.5360 C   0  0  1  0  0  3  0  0  0  0  0  0
  189.9070  174.0870  141.0640 C   0  0  0  0  0  2  0  0  0  0  0  0
  190.1090  172.5770  140.9420 C   0  0  0  0  0  0  0  0  0  0  0  0
  191.4590  172.3230  140.7030 O   0  0  0  0  0  1  0  0  0  0  0  0
  189.3560  172.0780  139.8770 O   0  0  0  0  0  1  0  0  0  0  0  0
  189.6980  171.8790  142.2270 C   0  0  0  0  0  1  0  0  0  0  0  0
  1 10  2  0  0  0  0
  1  6  1  0  0  0  0
  2 10  1  0  0  0  0
  3  5  1  0  0  0  0
  4 31  1  6  0  0  0
  4  1  1  0  0  0  0
  5 12  2  0  0  0  0
  6 13  2  0  0  0  0
  7  4  1  0  0  0  0
  7  2  1  0  0  0  0
  8  9  1  0  0  0  0
  8  3  2  0  0  0  0
  9 11  2  0  0  0  0
 10  8  1  0  0  0  0
 11 12  1  0  0  0  0
 13  3  1  0  0  0  0
 14 18  1  0  0  0  0
 14 20  1  6  0  0  0
 15 13  1  6  0  0  0
 15 16  1  0  0  0  0
 16 18  1  0  0  0  0
 17 19  1  0  0  0  0
 17 15  1  0  0  0  0
 19 14  1  0  0  0  0
 21 20  1  0  0  0  0
 22 21  2  0  0  0  0
 22 29  1  0  0  0  0
 23 24  2  0  0  0  0
 24 25  1  0  0  0  0
 24 21  1  0  0  0  0
 26 27  1  0  0  0  0
 26 25  1  0  0  0  0
 28 27  1  0  0  0  0
 30 29  1  0  0  0  0
 33 31  1  6  0  0  0
 33 32  1  0  0  0  0
 34 35  1  1  0  0  0
 34 33  1  0  0  0  0
 34 32  1  0  0  0  0
 36 35  1  0  0  0  0
 36 39  1  0  0  0  0
 37 36  1  0  0  0  0
 38 36  1  0  0  0  0
M  END
>  <MODEL>
3

>  <REMARK>
 VINA RESULT:      -7.9      1.740      2.839
  Name = 
  11 active torsions:
  status: ('A' for Active; 'I' for Inactive)
    1  A    between atoms: C_1  and  C_2
    2  A    between atoms: C_1  and  C_28
    3  A    between atoms: C_3  and  C_30
    4  A    between atoms: C_6  and  C_38
    5  A    between atoms: C_9  and  C_18
    6  A    between atoms: C_9  and  C_30
    7  A    between atoms: C_11  and  C_25
    8  A    between atoms: N_13  and  C_26
    9  A    between atoms: C_17  and  C_25
   10  A    between atoms: C_20  and  N_29
   11  A    between atoms: C_20  and  N_37
                            x       y       z     vdW  Elec       q    Type
                         _______ _______ _______ _____ _____    ______ ____

>  <TORSDO>
F 11

$$$$
=
 OpenBabel11042417283D

 39 43  0  0  1  0  0  0  0  0999 V2000
  193.0390  175.0980  142.7300 C   0  0  0  0  0  0  0  0  0  0  0  0
  194.4690  173.3070  142.6140 C   0  0  0  0  0  2  0  0  0  0  0  0
  190.6460  173.6930  142.5370 C   0  0  0  0  0  0  0  0  0  0  0  0
  194.4210  175.6010  142.8000 C   0  0  2  0  0  3  0  0  0  0  0  0
  189.4570  172.9520  142.4390 C   0  0  0  0  0  3  0  0  0  0  0  0
  191.8430  175.8140  142.7380 C   0  0  0  0  0  3  0  0  0  0  0  0
  195.2800  174.4680  142.7430 O   0  0  0  0  0  0  0  0  0  0  0  0
  191.8900  173.0050  142.5220 C   0  0  0  0  0  0  0  0  0  0  0  0
  191.9200  171.6100  142.4100 C   0  0  0  0  0  3  0  0  0  0  0  0
  193.0650  173.7540  142.6190 C   0  0  0  0  0  0  0  0  0  0  0  0
  190.7260  170.8910  142.3140 C   0  0  0  0  0  3  0  0  0  0  0  0
  189.4990  171.5600  142.3300 C   0  0  0  0  0  3  0  0  0  0  0  0
  190.6260  175.1090  142.6440 C   0  0  0  0  0  0  0  0  0  0  0  0
  187.0410  177.4310  142.2340 C   0  0  2  0  0  3  0  0  0  0  0  0
  189.3270  175.8640  142.6640 C   0  0  1  0  0  3  0  0  0  0  0  0
  189.5620  177.3740  142.7340 C   0  0  0  0  0  2  0  0  0  0  0  0
  188.4370  175.4680  141.4740 C   0  0  0  0  0  2  0  0  0  0  0  0
  188.2410  178.1400  142.8770 C   0  0  0  0  0  2  0  0  0  0  0  0
  187.4750  176.5810  141.0400 C   0  0  0  0  0  2  0  0  0  0  0  0
  186.0080  178.4650  141.8130 C   0  0  0  0  0  2  0  0  0  0  0  0
  184.8520  178.4970  142.7730 C   0  0  1  0  0  3  0  0  0  0  0  0
  183.6090  178.2660  142.3450 C   0  0  0  0  0  3  0  0  0  0  0  0
  185.5900  179.8830  144.5480 O   0  0  0  0  0  0  0  0  0  0  0  0
  185.0950  178.7760  144.2010 C   0  0  0  0  0  0  0  0  0  0  0  0
  184.7750  177.7930  145.1920 N   0  0  0  0  0  2  0  0  0  0  0  0
  184.9750  178.0230  146.6160 C   0  0  0  0  0  2  0  0  0  0  0  0
  185.7530  176.9350  147.1840 N   0  0  0  0  0  2  0  0  0  0  0  0
  187.1410  177.1930  146.8420 C   0  0  0  0  0  1  0  0  0  0  0  0
  183.3210  177.9940  140.9750 N   0  0  0  0  0  0  0  0  0  0  0  0
  181.9590  178.0820  140.4900 C   0  0  0  0  0  1  0  0  0  0  0  0
  194.6400  176.3540  144.1050 C   0  0  0  0  0  2  0  0  0  0  0  0
  194.7440  176.0320  146.4650 O   0  0  0  0  0  0  0  0  0  0  0  0
  194.1900  175.5090  145.2830 C   0  0  1  0  0  3  0  0  0  0  0  0
  193.3940  176.3360  146.2110 C   0  0  1  0  0  3  0  0  0  0  0  0
  192.5100  175.4420  147.0670 C   0  0  0  0  0  2  0  0  0  0  0  0
  191.1520  176.0760  147.3650 C   0  0  0  0  0  0  0  0  0  0  0  0
  191.2950  176.9650  148.4290 O   0  0  0  0  0  1  0  0  0  0  0  0
  190.2300  175.0880  147.7170 O   0  0  0  0  0  1  0  0  0  0  0  0
  190.6430  176.8380  146.1540 C   0  0  0  0  0  1  0  0  0  0  0  0
  1  6  1  0  0  0  0
  1  4  1  0  0  0  0
  2 10  1  0  0  0  0
  2  7  1  0  0  0  0
  3 13  1  0  0  0  0
  4 31  1  1  0  0  0
  5  3  2  0  0  0  0
  7  4  1  0  0  0  0
  8  3  1  0  0  0  0
  8 10  1  0  0  0  0
  9  8  2  0  0  0  0
 10  1  2  0  0  0  0
 11 12  2  0  0  0  0
 11  9  1  0  0  0  0
 12  5  1  0  0  0  0
 13  6  2  0  0  0  0
 14 20  1  6  0  0  0
 14 18  1  0  0  0  0
 15 13  1  6  0  0  0
 15 16  1  0  0  0  0
 16 18  1  0  0  0  0
 17 15  1  0  0  0  0
 19 17  1  0  0  0  0
 19 14  1  0  0  0  0
 21 20  1  1  0  0  0
 21 24  1  0  0  0  0
 22 21  1  0  0  0  0
 24 23  2  0  0  0  0
 24 25  1  0  0  0  0
 25 26  1  0  0  0  0
 26 27  1  0  0  0  0
 28 27  1  0  0  0  0
 29 22  2  0  0  0  0
 30 29  1  0  0  0  0
 33 31  1  6  0  0  0
 33 34  1  0  0  0  0
 33 32  1  0  0  0  0
 34 32  1  0  0  0  0
 34 35  1  1  0  0  0
 35 36  1  0  0  0  0
 36 38  1  0  0  0  0
 36 37  1  0  0  0  0
 39 36  1  0  0  0  0
M  END
>  <MODEL>
4

>  <REMARK>
 VINA RESULT:      -7.9      3.614      8.700
  Name = 
  11 active torsions:
  status: ('A' for Active; 'I' for Inactive)
    1  A    between atoms: C_1  and  C_2
    2  A    between atoms: C_1  and  C_28
    3  A    between atoms: C_3  and  C_30
    4  A    between atoms: C_6  and  C_38
    5  A    between atoms: C_9  and  C_18
    6  A    between atoms: C_9  and  C_30
    7  A    between atoms: C_11  and  C_25
    8  A    between atoms: N_13  and  C_26
    9  A    between atoms: C_17  and  C_25
   10  A    between atoms: C_20  and  N_29
   11  A    between atoms: C_20  and  N_37
                            x       y       z     vdW  Elec       q    Type
                         _______ _______ _______ _____ _____    ______ ____

>  <TORSDO>
F 11

$$$$
=
 OpenBabel11042417283D

 39 43  0  0  1  0  0  0  0  0999 V2000
  191.4430  172.7420  143.9750 C   0  0  0  0  0  0  0  0  0  0  0  0
  193.3670  171.7340  144.7180 C   0  0  0  0  0  2  0  0  0  0  0  0
  191.9850  175.3170  144.8750 C   0  0  0  0  0  0  0  0  0  0  0  0
  191.3880  171.3140  143.6180 C   0  0  2  0  0  3  0  0  0  0  0  0
  192.2920  176.6050  145.3410 C   0  0  0  0  0  3  0  0  0  0  0  0
  190.4950  173.7390  143.7520 C   0  0  0  0  0  3  0  0  0  0  0  0
  192.5990  170.7240  144.0760 O   0  0  0  0  0  0  0  0  0  0  0  0
  192.9190  174.2670  145.0890 C   0  0  0  0  0  0  0  0  0  0  0  0
  194.1220  174.5210  145.7570 C   0  0  0  0  0  3  0  0  0  0  0  0
  192.6010  172.9900  144.6210 C   0  0  0  0  0  0  0  0  0  0  0  0
  194.4090  175.8100  146.2130 C   0  0  0  0  0  3  0  0  0  0  0  0
  193.4980  176.8490  146.0050 C   0  0  0  0  0  3  0  0  0  0  0  0
  190.7640  175.0480  144.2020 C   0  0  0  0  0  0  0  0  0  0  0  0
  187.7100  177.8670  143.1360 C   0  0  2  0  0  3  0  0  0  0  0  0
  189.7580  176.1370  143.9600 C   0  0  1  0  0  3  0  0  0  0  0  0
  190.0150  176.8470  142.6300 C   0  0  0  0  0  2  0  0  0  0  0  0
  188.3220  175.6000  144.0660 C   0  0  0  0  0  2  0  0  0  0  0  0
  189.0670  178.0380  142.4380 C   0  0  0  0  0  2  0  0  0  0  0  0
  187.3140  176.3940  143.2250 C   0  0  0  0  0  2  0  0  0  0  0  0
  186.6530  178.6660  142.3890 C   0  0  0  0  0  2  0  0  0  0  0  0
  185.3630  178.7110  143.1590 C   0  0  0  0  0  0  0  0  0  0  0  0
  184.2170  178.3430  142.5840 C   0  0  0  0  0  3  0  0  0  0  0  0
  185.5670  180.3690  144.8400 O   0  0  0  0  0  0  0  0  0  0  0  0
  185.3670  179.1540  144.5660 C   0  0  0  0  0  0  0  0  0  0  0  0
  185.1480  178.2100  145.6210 N   0  0  0  0  0  2  0  0  0  0  0  0
  185.1210  178.5960  147.0240 C   0  0  0  0  0  2  0  0  0  0  0  0
  186.2810  178.0480  147.7070 N   0  0  0  0  0  2  0  0  0  0  0  0
  186.6030  176.7980  147.0430 C   0  0  0  0  0  1  0  0  0  0  0  0
  184.1600  177.9070  141.2260 N   0  0  0  0  0  2  0  0  0  0  0  0
  182.9010  177.9330  140.5110 C   0  0  0  0  0  1  0  0  0  0  0  0
  191.2710  171.1550  142.1080 C   0  0  0  0  0  2  0  0  0  0  0  0
  192.4990  171.1600  140.0650 O   0  0  0  0  0  0  0  0  0  0  0  0
  192.6420  171.2300  141.4630 C   0  0  1  0  0  3  0  0  0  0  0  0
  192.7240  172.4360  140.6140 C   0  0  1  0  0  3  0  0  0  0  0  0
  194.1820  172.8180  140.4060 C   0  0  0  0  0  2  0  0  0  0  0  0
  194.5650  174.0890  141.1640 C   0  0  0  0  0  0  0  0  0  0  0  0
  195.4670  174.8180  140.3910 O   0  0  0  0  0  1  0  0  0  0  0  0
  195.1710  173.7570  142.3770 O   0  0  0  0  0  1  0  0  0  0  0  0
  193.3390  174.9450  141.4250 C   0  0  0  0  0  1  0  0  0  0  0  0
  1 10  1  0  0  0  0
  3  8  1  0  0  0  0
  3  5  1  0  0  0  0
  4 31  1  6  0  0  0
  4  1  1  0  0  0  0
  4  7  1  0  0  0  0
  5 12  2  0  0  0  0
  6  1  2  0  0  0  0
  6 13  1  0  0  0  0
  7  2  1  0  0  0  0
  8  9  1  0  0  0  0
  9 11  2  0  0  0  0
 10  2  1  0  0  0  0
 10  8  2  0  0  0  0
 12 11  1  0  0  0  0
 13  3  2  0  0  0  0
 14 20  1  6  0  0  0
 14 19  1  0  0  0  0
 15 17  1  0  0  0  0
 15 13  1  6  0  0  0
 16 15  1  0  0  0  0
 18 16  1  0  0  0  0
 18 14  1  0  0  0  0
 19 17  1  0  0  0  0
 20 21  1  0  0  0  0
 21 24  1  0  0  0  0
 22 21  2  0  0  0  0
 24 23  2  0  0  0  0
 24 25  1  0  0  0  0
 25 26  1  0  0  0  0
 26 27  1  0  0  0  0
 28 27  1  0  0  0  0
 29 22  1  0  0  0  0
 30 29  1  0  0  0  0
 32 34  1  0  0  0  0
 32 33  1  0  0  0  0
 33 31  1  1  0  0  0
 34 35  1  6  0  0  0
 34 33  1  0  0  0  0
 35 36  1  0  0  0  0
 36 39  1  0  0  0  0
 36 38  1  0  0  0  0
 37 36  1  0  0  0  0
M  END
>  <MODEL>
5

>  <REMARK>
 VINA RESULT:      -7.8      3.706      8.068
  Name = 
  11 active torsions:
  status: ('A' for Active; 'I' for Inactive)
    1  A    between atoms: C_1  and  C_2
    2  A    between atoms: C_1  and  C_28
    3  A    between atoms: C_3  and  C_30
    4  A    between atoms: C_6  and  C_38
    5  A    between atoms: C_9  and  C_18
    6  A    between atoms: C_9  and  C_30
    7  A    between atoms: C_11  and  C_25
    8  A    between atoms: N_13  and  C_26
    9  A    between atoms: C_17  and  C_25
   10  A    between atoms: C_20  and  N_29
   11  A    between atoms: C_20  and  N_37
                            x       y       z     vdW  Elec       q    Type
                         _______ _______ _______ _____ _____    ______ ____

>  <TORSDO>
F 11

$$$$
=
 OpenBabel11042417283D

 39 43  0  0  1  0  0  0  0  0999 V2000
  186.7840  178.0180  142.7460 C   0  0  0  0  0  0  0  0  0  0  0  0
  184.6210  178.7260  142.4550 C   0  0  0  0  0  2  0  0  0  0  0  0
  186.7410  177.7740  145.5170 C   0  0  0  0  0  0  0  0  0  0  0  0
  186.5560  178.2380  141.3080 C   0  0  2  0  0  3  0  0  0  0  0  0
  186.6820  177.6590  146.9150 C   0  0  0  0  0  3  0  0  0  0  0  0
  187.9480  177.6120  143.3980 C   0  0  0  0  0  3  0  0  0  0  0  0
  185.2050  178.6600  141.1610 O   0  0  0  0  0  0  0  0  0  0  0  0
  185.5800  178.1950  144.8110 C   0  0  0  0  0  0  0  0  0  0  0  0
  184.4030  178.4910  145.5070 C   0  0  0  0  0  3  0  0  0  0  0  0
  185.6520  178.3040  143.4200 C   0  0  0  0  0  0  0  0  0  0  0  0
  184.3660  178.3710  146.8990 C   0  0  0  0  0  3  0  0  0  0  0  0
  185.5010  177.9550  147.6000 C   0  0  0  0  0  3  0  0  0  0  0  0
  187.9320  177.4820  144.8020 C   0  0  0  0  0  0  0  0  0  0  0  0
  191.5960  175.9480  146.4250 C   0  0  2  0  0  3  0  0  0  0  0  0
  189.1740  177.0340  145.5190 C   0  0  1  0  0  3  0  0  0  0  0  0
  189.1310  175.5350  145.8250 C   0  0  0  0  0  2  0  0  0  0  0  0
  190.4390  177.4330  144.7420 C   0  0  0  0  0  2  0  0  0  0  0  0
  190.3390  175.1000  146.6640 C   0  0  0  0  0  2  0  0  0  0  0  0
  191.6290  176.5020  145.0010 C   0  0  0  0  0  2  0  0  0  0  0  0
  192.8330  175.1100  146.7080 C   0  0  0  0  0  2  0  0  0  0  0  0
  193.6650  174.9360  145.4680 C   0  0  0  0  0  0  0  0  0  0  0  0
  193.4720  173.8880  144.6640 C   0  0  0  0  0  3  0  0  0  0  0  0
  194.9460  176.8730  145.9400 O   0  0  0  0  0  0  0  0  0  0  0  0
  194.6940  175.9380  145.1320 C   0  0  0  0  0  0  0  0  0  0  0  0
  195.4040  175.8550  143.8910 N   0  0  0  0  0  2  0  0  0  0  0  0
  196.4430  176.8030  143.5180 C   0  0  0  0  0  2  0  0  0  0  0  0
  197.2130  176.2750  142.4050 N   0  0  0  0  0  2  0  0  0  0  0  0
  196.2590  175.7010  141.4730 C   0  0  0  0  0  1  0  0  0  0  0  0
  192.4900  172.8920  144.9450 N   0  0  0  0  0  2  0  0  0  0  0  0
  191.3470  172.7360  144.0690 C   0  0  0  0  0  1  0  0  0  0  0  0
  186.7860  176.9470  140.5360 C   0  0  0  0  0  2  0  0  0  0  0  0
  187.0790  177.8250  138.3390 O   0  0  0  0  0  0  0  0  0  0  0  0
  186.2090  177.0600  139.1370 C   0  0  1  0  0  3  0  0  0  0  0  0
  187.1290  176.4280  138.1700 C   0  0  1  0  0  3  0  0  0  0  0  0
  186.3680  176.0500  136.9080 C   0  0  0  0  0  2  0  0  0  0  0  0
  187.2440  176.1090  135.6580 C   0  0  0  0  0  0  0  0  0  0  0  0
  187.6380  177.4290  135.4470 O   0  0  0  0  0  1  0  0  0  0  0  0
  186.5240  175.6660  134.5470 O   0  0  0  0  0  1  0  0  0  0  0  0
  188.4840  175.2500  135.8350 C   0  0  0  0  0  1  0  0  0  0  0  0
  1  6  2  0  0  0  0
  1 10  1  0  0  0  0
  2 10  1  0  0  0  0
  3  5  1  0  0  0  0
  4 31  1  6  0  0  0
  4  1  1  0  0  0  0
  5 12  2  0  0  0  0
  6 13  1  0  0  0  0
  7  4  1  0  0  0  0
  7  2  1  0  0  0  0
  8  9  1  0  0  0  0
  8  3  1  0  0  0  0
  9 11  2  0  0  0  0
 10  8  2  0  0  0  0
 11 12  1  0  0  0  0
 13  3  2  0  0  0  0
 14 18  1  0  0  0  0
 14 20  1  6  0  0  0
 15 13  1  6  0  0  0
 15 16  1  0  0  0  0
 16 18  1  0  0  0  0
 17 19  1  0  0  0  0
 17 15  1  0  0  0  0
 19 14  1  0  0  0  0
 21 20  1  0  0  0  0
 22 29  1  0  0  0  0
 22 21  2  0  0  0  0
 24 21  1  0  0  0  0
 24 23  2  0  0  0  0
 25 24  1  0  0  0  0
 26 25  1  0  0  0  0
 27 26  1  0  0  0  0
 28 27  1  0  0  0  0
 30 29  1  0  0  0  0
 32 33  1  0  0  0  0
 33 31  1  1  0  0  0
 34 35  1  6  0  0  0
 34 32  1  0  0  0  0
 34 33  1  0  0  0  0
 36 39  1  0  0  0  0
 36 35  1  0  0  0  0
 37 36  1  0  0  0  0
 38 36  1  0  0  0  0
M  END
>  <MODEL>
6

>  <REMARK>
 VINA RESULT:      -7.8      2.197      2.711
  Name = 
  11 active torsions:
  status: ('A' for Active; 'I' for Inactive)
    1  A    between atoms: C_1  and  C_2
    2  A    between atoms: C_1  and  C_28
    3  A    between atoms: C_3  and  C_30
    4  A    between atoms: C_6  and  C_38
    5  A    between atoms: C_9  and  C_18
    6  A    between atoms: C_9  and  C_30
    7  A    between atoms: C_11  and  C_25
    8  A    between atoms: N_13  and  C_26
    9  A    between atoms: C_17  and  C_25
   10  A    between atoms: C_20  and  N_29
   11  A    between atoms: C_20  and  N_37
                            x       y       z     vdW  Elec       q    Type
                         _______ _______ _______ _____ _____    ______ ____

>  <TORSDO>
F 11

$$$$
=
 OpenBabel11042417283D

 39 43  0  0  1  0  0  0  0  0999 V2000
  191.3720  172.8200  144.0990 C   0  0  0  0  0  0  0  0  0  0  0  0
  193.3740  171.8660  144.6910 C   0  0  0  0  0  2  0  0  0  0  0  0
  192.0290  175.4660  144.6500 C   0  0  0  0  0  0  0  0  0  0  0  0
  191.2700  171.3640  143.9020 C   0  0  2  0  0  3  0  0  0  0  0  0
  192.3940  176.7910  144.9360 C   0  0  0  0  0  3  0  0  0  0  0  0
  190.4040  173.8030  143.8960 C   0  0  0  0  0  3  0  0  0  0  0  0
  192.5290  170.8060  144.2620 O   0  0  0  0  0  0  0  0  0  0  0  0
  192.9810  174.4300  144.8510 C   0  0  0  0  0  0  0  0  0  0  0  0
  194.2600  174.7340  145.3300 C   0  0  0  0  0  3  0  0  0  0  0  0
  192.6040  173.1160  144.5630 C   0  0  0  0  0  0  0  0  0  0  0  0
  194.6040  176.0590  145.6100 C   0  0  0  0  0  3  0  0  0  0  0  0
  193.6760  177.0840  145.4120 C   0  0  0  0  0  3  0  0  0  0  0  0
  190.7310  175.1470  144.1700 C   0  0  0  0  0  0  0  0  0  0  0  0
  187.5950  177.9030  143.1810 C   0  0  2  0  0  3  0  0  0  0  0  0
  189.7040  176.2200  143.9460 C   0  0  1  0  0  3  0  0  0  0  0  0
  189.8710  176.8740  142.5730 C   0  0  0  0  0  2  0  0  0  0  0  0
  188.2810  175.6810  144.1650 C   0  0  0  0  0  2  0  0  0  0  0  0
  188.9030  178.0500  142.3920 C   0  0  0  0  0  2  0  0  0  0  0  0
  187.2160  176.4330  143.3570 C   0  0  0  0  0  2  0  0  0  0  0  0
  186.4860  178.6640  142.4690 C   0  0  0  0  0  2  0  0  0  0  0  0
  185.2080  178.6240  143.2590 C   0  0  0  0  0  0  0  0  0  0  0  0
  184.0630  178.2660  142.6750 C   0  0  0  0  0  3  0  0  0  0  0  0
  185.6050  180.1180  145.0550 O   0  0  0  0  0  0  0  0  0  0  0  0
  185.2230  178.9720  144.6920 C   0  0  0  0  0  0  0  0  0  0  0  0
  184.8100  178.0130  145.6720 N   0  0  0  0  0  2  0  0  0  0  0  0
  184.7840  178.3090  147.0970 C   0  0  0  0  0  2  0  0  0  0  0  0
  185.9480  177.7250  147.7410 N   0  0  0  0  0  2  0  0  0  0  0  0
  186.8180  178.8270  148.1110 C   0  0  0  0  0  1  0  0  0  0  0  0
  183.9950  177.9210  141.2930 N   0  0  0  0  0  2  0  0  0  0  0  0
  182.8410  178.3060  140.5060 C   0  0  0  0  0  1  0  0  0  0  0  0
  190.9600  171.0520  142.4450 C   0  0  0  0  0  2  0  0  0  0  0  0
  191.9570  171.9230  140.4620 O   0  0  0  0  0  0  0  0  0  0  0  0
  191.1860  172.2800  141.5830 C   0  0  1  0  0  3  0  0  0  0  0  0
  190.5730  172.0740  140.2560 C   0  0  1  0  0  3  0  0  0  0  0  0
  190.3100  173.4190  139.5960 C   0  0  0  0  0  2  0  0  0  0  0  0
  188.8270  173.6470  139.3060 C   0  0  0  0  0  0  0  0  0  0  0  0
  188.1690  172.4180  139.3410 O   0  0  0  0  0  1  0  0  0  0  0  0
  188.6690  174.2110  138.0390 O   0  0  0  0  0  1  0  0  0  0  0  0
  188.2120  174.5620  140.3510 C   0  0  0  0  0  1  0  0  0  0  0  0
  1 10  1  0  0  0  0
  3  8  1  0  0  0  0
  3  5  1  0  0  0  0
  4 31  1  6  0  0  0
  4  1  1  0  0  0  0
  4  7  1  0  0  0  0
  5 12  2  0  0  0  0
  6  1  2  0  0  0  0
  6 13  1  0  0  0  0
  7  2  1  0  0  0  0
  8  9  1  0  0  0  0
  9 11  2  0  0  0  0
 10  2  1  0  0  0  0
 10  8  2  0  0  0  0
 12 11  1  0  0  0  0
 13  3  2  0  0  0  0
 14 20  1  6  0  0  0
 14 19  1  0  0  0  0
 15 17  1  0  0  0  0
 15 13  1  6  0  0  0
 16 15  1  0  0  0  0
 18 16  1  0  0  0  0
 18 14  1  0  0  0  0
 19 17  1  0  0  0  0
 20 21  1  0  0  0  0
 21 24  1  0  0  0  0
 22 21  2  0  0  0  0
 24 23  2  0  0  0  0
 24 25  1  0  0  0  0
 25 26  1  0  0  0  0
 26 27  1  0  0  0  0
 27 28  1  0  0  0  0
 29 22  1  0  0  0  0
 30 29  1  0  0  0  0
 32 33  1  0  0  0  0
 33 31  1  1  0  0  0
 34 35  1  6  0  0  0
 34 32  1  0  0  0  0
 34 33  1  0  0  0  0
 36 37  1  0  0  0  0
 36 35  1  0  0  0  0
 36 39  1  0  0  0  0
 38 36  1  0  0  0  0
M  END
>  <MODEL>
7

>  <REMARK>
 VINA RESULT:      -7.7      3.647      7.915
  Name = 
  11 active torsions:
  status: ('A' for Active; 'I' for Inactive)
    1  A    between atoms: C_1  and  C_2
    2  A    between atoms: C_1  and  C_28
    3  A    between atoms: C_3  and  C_30
    4  A    between atoms: C_6  and  C_38
    5  A    between atoms: C_9  and  C_18
    6  A    between atoms: C_9  and  C_30
    7  A    between atoms: C_11  and  C_25
    8  A    between atoms: N_13  and  C_26
    9  A    between atoms: C_17  and  C_25
   10  A    between atoms: C_20  and  N_29
   11  A    between atoms: C_20  and  N_37
                            x       y       z     vdW  Elec       q    Type
                         _______ _______ _______ _____ _____    ______ ____

>  <TORSDO>
F 11

$$$$
=
 OpenBabel11042417283D

 39 43  0  0  1  0  0  0  0  0999 V2000
  192.4700  172.6080  144.5380 C   0  0  0  0  0  0  0  0  0  0  0  0
  194.7130  172.1340  144.4310 C   0  0  0  0  0  2  0  0  0  0  0  0
  192.6760  175.3370  145.0300 C   0  0  0  0  0  0  0  0  0  0  0  0
  192.6290  171.1650  144.2890 C   0  0  2  0  0  3  0  0  0  0  0  0
  192.8170  176.7120  145.2750 C   0  0  0  0  0  3  0  0  0  0  0  0
  191.2990  173.3450  144.7020 C   0  0  0  0  0  3  0  0  0  0  0  0
  194.0270  170.9080  144.2120 O   0  0  0  0  0  0  0  0  0  0  0  0
  193.8440  174.5440  144.8660 C   0  0  0  0  0  0  0  0  0  0  0  0
  195.1110  175.1320  144.9510 C   0  0  0  0  0  3  0  0  0  0  0  0
  193.6900  173.1770  144.6220 C   0  0  0  0  0  0  0  0  0  0  0  0
  195.2300  176.5030  145.1960 C   0  0  0  0  0  3  0  0  0  0  0  0
  194.0870  177.2900  145.3560 C   0  0  0  0  0  3  0  0  0  0  0  0
  191.3950  174.7300  144.9480 C   0  0  0  0  0  0  0  0  0  0  0  0
  187.5970  176.6210  145.5900 C   0  0  2  0  0  3  0  0  0  0  0  0
  190.1420  175.5430  145.1160 C   0  0  1  0  0  3  0  0  0  0  0  0
  189.0740  175.1360  144.1000 C   0  0  0  0  0  2  0  0  0  0  0  0
  189.6260  175.4740  146.5620 C   0  0  0  0  0  2  0  0  0  0  0  0
  187.8420  176.0450  144.1890 C   0  0  0  0  0  2  0  0  0  0  0  0
  188.1100  175.6750  146.6760 C   0  0  0  0  0  2  0  0  0  0  0  0
  186.1120  176.8970  145.7720 C   0  0  0  0  0  2  0  0  0  0  0  0
  185.7980  178.3470  145.5350 C   0  0  0  0  0  0  0  0  0  0  0  0
  185.7410  179.2050  146.5560 C   0  0  0  0  0  3  0  0  0  0  0  0
  185.6720  180.0580  143.8990 O   0  0  0  0  0  0  0  0  0  0  0  0
  185.5620  178.8280  144.1600 C   0  0  0  0  0  0  0  0  0  0  0  0
  185.2060  177.9070  143.1240 N   0  0  0  0  0  2  0  0  0  0  0  0
  184.9820  178.3240  141.7470 C   0  0  0  0  0  2  0  0  0  0  0  0
  185.7900  177.5140  140.8510 N   0  0  0  0  0  2  0  0  0  0  0  0
  187.1650  177.9440  141.0270 C   0  0  0  0  0  1  0  0  0  0  0  0
  185.9600  178.7900  147.9030 N   0  0  0  0  0  2  0  0  0  0  0  0
  187.2240  179.0750  148.5510 C   0  0  0  0  0  1  0  0  0  0  0  0
  191.9570  170.7800  142.9790 C   0  0  0  0  0  2  0  0  0  0  0  0
  191.8500  171.5840  140.7360 O   0  0  0  0  0  0  0  0  0  0  0  0
  191.8180  171.9960  142.0810 C   0  0  1  0  0  3  0  0  0  0  0  0
  190.5850  171.8790  141.2770 C   0  0  1  0  0  3  0  0  0  0  0  0
  190.1480  173.2580  140.8030 C   0  0  0  0  0  2  0  0  0  0  0  0
  188.6290  173.3850  140.6990 C   0  0  0  0  0  0  0  0  0  0  0  0
  188.2030  172.7400  139.5390 O   0  0  0  0  0  1  0  0  0  0  0  0
  188.2650  174.7310  140.6310 O   0  0  0  0  0  1  0  0  0  0  0  0
  187.9560  172.7370  141.8960 C   0  0  0  0  0  1  0  0  0  0  0  0
  1 10  2  0  0  0  0
  1  6  1  0  0  0  0
  2 10  1  0  0  0  0
  3  5  1  0  0  0  0
  4 31  1  6  0  0  0
  4  1  1  0  0  0  0
  5 12  2  0  0  0  0
  6 13  2  0  0  0  0
  7  4  1  0  0  0  0
  7  2  1  0  0  0  0
  8  9  1  0  0  0  0
  8  3  2  0  0  0  0
  9 11  2  0  0  0  0
 10  8  1  0  0  0  0
 11 12  1  0  0  0  0
 13  3  1  0  0  0  0
 14 20  1  1  0  0  0
 14 19  1  0  0  0  0
 15 13  1  1  0  0  0
 15 17  1  0  0  0  0
 16 18  1  0  0  0  0
 16 15  1  0  0  0  0
 17 19  1  0  0  0  0
 18 14  1  0  0  0  0
 21 20  1  0  0  0  0
 21 22  2  0  0  0  0
 22 29  1  0  0  0  0
 23 24  2  0  0  0  0
 24 21  1  0  0  0  0
 25 24  1  0  0  0  0
 26 25  1  0  0  0  0
 27 28  1  0  0  0  0
 27 26  1  0  0  0  0
 29 30  1  0  0  0  0
 32 34  1  0  0  0  0
 32 33  1  0  0  0  0
 33 31  1  1  0  0  0
 34 35  1  6  0  0  0
 34 33  1  0  0  0  0
 36 35  1  0  0  0  0
 36 39  1  0  0  0  0
 37 36  1  0  0  0  0
 38 36  1  0  0  0  0
M  END
>  <MODEL>
8

>  <REMARK>
 VINA RESULT:      -7.7      3.420      7.728
  Name = 
  11 active torsions:
  status: ('A' for Active; 'I' for Inactive)
    1  A    between atoms: C_1  and  C_2
    2  A    between atoms: C_1  and  C_28
    3  A    between atoms: C_3  and  C_30
    4  A    between atoms: C_6  and  C_38
    5  A    between atoms: C_9  and  C_18
    6  A    between atoms: C_9  and  C_30
    7  A    between atoms: C_11  and  C_25
    8  A    between atoms: N_13  and  C_26
    9  A    between atoms: C_17  and  C_25
   10  A    between atoms: C_20  and  N_29
   11  A    between atoms: C_20  and  N_37
                            x       y       z     vdW  Elec       q    Type
                         _______ _______ _______ _____ _____    ______ ____

>  <TORSDO>
F 11

$$$$
=
 OpenBabel11042417283D

 39 43  0  0  1  0  0  0  0  0999 V2000
  188.1760  176.3670  142.6520 C   0  0  0  0  0  0  0  0  0  0  0  0
  185.9420  176.8630  142.4760 C   0  0  0  0  0  2  0  0  0  0  0  0
  188.3440  176.3270  145.4280 C   0  0  0  0  0  0  0  0  0  0  0  0
  187.8310  176.4590  141.2230 C   0  0  2  0  0  3  0  0  0  0  0  0
  188.3930  176.3130  146.8310 C   0  0  0  0  0  3  0  0  0  0  0  0
  189.4140  176.1110  143.2410 C   0  0  0  0  0  3  0  0  0  0  0  0
  186.4400  176.7500  141.1490 O   0  0  0  0  0  0  0  0  0  0  0  0
  187.1050  176.5930  144.7840 C   0  0  0  0  0  0  0  0  0  0  0  0
  185.9560  176.8380  145.5450 C   0  0  0  0  0  3  0  0  0  0  0  0
  187.0710  176.6040  143.3880 C   0  0  0  0  0  0  0  0  0  0  0  0
  186.0260  176.8200  146.9410 C   0  0  0  0  0  3  0  0  0  0  0  0
  187.2390  176.5570  147.5810 C   0  0  0  0  0  3  0  0  0  0  0  0
  189.5060  176.0860  144.6480 C   0  0  0  0  0  0  0  0  0  0  0  0
  193.5000  175.4650  146.0890 C   0  0  2  0  0  3  0  0  0  0  0  0
  190.8290  175.8010  145.2990 C   0  0  1  0  0  3  0  0  0  0  0  0
  191.5750  174.6770  144.5770 C   0  0  0  0  0  2  0  0  0  0  0  0
  191.6760  177.0780  145.4190 C   0  0  0  0  0  2  0  0  0  0  0  0
  192.8680  174.3010  145.3120 C   0  0  0  0  0  2  0  0  0  0  0  0
  193.1850  176.8070  145.4290 C   0  0  0  0  0  2  0  0  0  0  0  0
  195.0020  175.2500  146.1880 C   0  0  0  0  0  2  0  0  0  0  0  0
  195.5750  174.8090  144.8710 C   0  0  0  0  0  0  0  0  0  0  0  0
  196.0100  173.5580  144.7060 C   0  0  0  0  0  3  0  0  0  0  0  0
  196.3420  176.8110  143.8600 O   0  0  0  0  0  0  0  0  0  0  0  0
  195.6470  175.7640  143.7490 C   0  0  0  0  0  0  0  0  0  0  0  0
  194.9280  175.5090  142.5370 N   0  0  0  0  0  2  0  0  0  0  0  0
  194.9800  176.4050  141.3910 C   0  0  0  0  0  2  0  0  0  0  0  0
  194.7530  175.6540  140.1690 N   0  0  0  0  0  2  0  0  0  0  0  0
  195.9010  174.7820  139.9960 C   0  0  0  0  0  1  0  0  0  0  0  0
  195.9630  172.5980  145.7590 N   0  0  0  0  0  2  0  0  0  0  0  0
  195.0590  171.4690  145.6700 C   0  0  0  0  0  1  0  0  0  0  0  0
  188.1230  175.1370  140.5270 C   0  0  0  0  0  2  0  0  0  0  0  0
  187.9160  172.7780  140.8070 O   0  0  0  0  0  0  0  0  0  0  0  0
  188.0310  173.9890  141.5140 C   0  0  1  0  0  3  0  0  0  0  0  0
  189.1850  173.0850  141.3320 C   0  0  1  0  0  3  0  0  0  0  0  0
  189.4090  172.2770  142.6020 C   0  0  0  0  0  2  0  0  0  0  0  0
  190.7040  171.4660  142.5560 C   0  0  0  0  0  0  0  0  0  0  0  0
  190.4430  170.2360  141.9550 O   0  0  0  0  0  1  0  0  0  0  0  0
  191.1780  171.2480  143.8510 O   0  0  0  0  0  1  0  0  0  0  0  0
  191.7610  172.1940  141.7440 C   0  0  0  0  0  1  0  0  0  0  0  0
  1  6  2  0  0  0  0
  1 10  1  0  0  0  0
  2 10  1  0  0  0  0
  3  5  1  0  0  0  0
  4 31  1  6  0  0  0
  4  1  1  0  0  0  0
  5 12  2  0  0  0  0
  6 13  1  0  0  0  0
  7  4  1  0  0  0  0
  7  2  1  0  0  0  0
  8  3  1  0  0  0  0
  8  9  1  0  0  0  0
  9 11  2  0  0  0  0
 10  8  2  0  0  0  0
 11 12  1  0  0  0  0
 13  3  2  0  0  0  0
 14 20  1  6  0  0  0
 15 13  1  6  0  0  0
 15 17  1  0  0  0  0
 16 15  1  0  0  0  0
 16 18  1  0  0  0  0
 17 19  1  0  0  0  0
 18 14  1  0  0  0  0
 19 14  1  0  0  0  0
 21 20  1  0  0  0  0
 22 21  2  0  0  0  0
 22 29  1  0  0  0  0
 24 23  2  0  0  0  0
 24 21  1  0  0  0  0
 25 24  1  0  0  0  0
 26 25  1  0  0  0  0
 27 26  1  0  0  0  0
 28 27  1  0  0  0  0
 30 29  1  0  0  0  0
 32 34  1  0  0  0  0
 32 33  1  0  0  0  0
 33 31  1  6  0  0  0
 34 33  1  0  0  0  0
 34 35  1  1  0  0  0
 36 35  1  0  0  0  0
 36 38  1  0  0  0  0
 37 36  1  0  0  0  0
 39 36  1  0  0  0  0
M  END
>  <MODEL>
9

>  <REMARK>
 VINA RESULT:      -7.6      1.782      2.337
  Name = 
  11 active torsions:
  status: ('A' for Active; 'I' for Inactive)
    1  A    between atoms: C_1  and  C_2
    2  A    between atoms: C_1  and  C_28
    3  A    between atoms: C_3  and  C_30
    4  A    between atoms: C_6  and  C_38
    5  A    between atoms: C_9  and  C_18
    6  A    between atoms: C_9  and  C_30
    7  A    between atoms: C_11  and  C_25
    8  A    between atoms: N_13  and  C_26
    9  A    between atoms: C_17  and  C_25
   10  A    between atoms: C_20  and  N_29
   11  A    between atoms: C_20  and  N_37
                            x       y       z     vdW  Elec       q    Type
                         _______ _______ _______ _____ _____    ______ ____

>  <TORSDO>
F 11

$$$$
