=
 OpenBabel11042419003D

 41 44  0  0  1  0  0  0  0  0999 V2000
  183.8140  178.4990  140.5010 O   0  0  0  0  0  1  0  0  0  0  0  0
  185.9570  177.6020  141.1430 C   0  0  0  0  0  3  0  0  0  0  0  0
  184.3250  178.1820  142.8340 C   0  0  0  0  0  3  0  0  0  0  0  0
  187.3160  176.8430  144.4780 N   0  0  0  0  0  0  0  0  0  0  0  0
  186.9720  176.9040  145.7950 C   0  0  0  0  0  0  0  0  0  0  0  0
  186.4840  177.2600  143.4870 C   0  0  0  0  0  0  0  0  0  0  0  0
  185.7260  177.4130  146.1630 C   0  0  0  0  0  3  0  0  0  0  0  0
  184.6970  178.0950  141.4920 C   0  0  0  0  0  0  0  0  0  0  0  0
  186.8660  177.1890  142.1230 C   0  0  0  0  0  0  0  0  0  0  0  0
  185.2100  177.7680  143.8300 C   0  0  0  0  0  0  0  0  0  0  0  0
  184.8410  177.8450  145.1740 C   0  0  0  0  0  3  0  0  0  0  0  0
  188.1450  176.7040  141.6880 N   0  0  0  0  0  2  0  0  0  0  0  0
  188.3910  175.3920  141.1080 C   0  0  0  0  0  2  0  0  0  0  0  0
  188.6170  173.7880  142.8710 O   0  0  0  0  0  0  0  0  0  0  0  0
  189.3450  174.6080  141.9870 C   0  0  1  0  0  3  0  0  0  0  0  0
  190.2380  173.7490  141.1160 C   0  0  2  0  0  3  0  0  0  0  0  0
  189.8060  171.5040  140.5080 O   0  0  0  0  0  1  0  0  0  0  0  0
  190.0000  172.3530  141.5970 C   0  0  2  0  0  3  0  0  0  0  0  0
  188.7210  172.4750  142.3800 C   0  0  0  0  0  2  0  0  0  0  0  0
  193.9640  174.3750  140.1770 C   0  0  0  0  0  0  0  0  0  0  0  0
  194.6570  174.2420  139.1320 O   0  0  0  0  0  0  0  0  0  0  0  0
  191.6770  174.1390  141.2690 C   0  0  0  0  0  0  0  0  0  0  0  0
  192.0890  174.5540  142.3870 O   0  0  0  0  0  0  0  0  0  0  0  0
  192.0410  173.6440  138.9500 O   0  0  0  0  0  1  0  0  0  0  0  0
  192.5610  174.0490  140.1350 N   0  0  0  0  0  0  0  0  0  0  0  0
  196.7090  174.7460  142.6130 N   0  0  0  0  0  2  0  0  0  0  0  0
  196.5230  176.1380  142.4240 C   0  0  0  0  0  0  0  0  0  0  0  0
  194.6340  174.8360  141.4350 C   0  0  1  0  0  3  0  0  0  0  0  0
  195.8290  173.9530  141.7790 C   0  0  0  0  0  2  0  0  0  0  0  0
  196.9190  176.9720  143.3250 N   0  0  0  0  0  2  0  0  0  0  0  0
  195.2100  176.5660  141.3020 S   0  0  0  0  0  0  0  0  0  0  0  0
  187.8540  176.4580  146.7810 O   0  0  0  0  0  0  0  0  0  0  0  0
  188.9760  174.4350  147.4690 C   0  0  0  0  0  1  0  0  0  0  0  0
  188.9500  175.5950  146.4880 C   0  0  2  0  0  3  0  0  0  0  0  0
  190.2770  177.5340  146.2400 O   0  0  0  0  0  0  0  0  0  0  0  0
  190.2360  176.3550  146.5590 C   0  0  0  0  0  0  0  0  0  0  0  0
  191.4650  175.6690  147.0620 C   0  0  0  0  0  2  0  0  0  0  0  0
  192.2870  175.0940  145.9150 C   0  0  0  0  0  2  0  0  0  0  0  0
  194.5290  174.5960  145.4620 C   0  0  0  0  0  1  0  0  0  0  0  0
  193.6330  175.6470  145.9160 N   0  0  0  0  0  0  0  0  0  0  0  0
  193.6580  176.6790  144.8980 C   0  0  0  0  0  1  0  0  0  0  0  0
  1  8  1  0  0  0  0
  2  8  2  0  0  0  0
  2  9  1  0  0  0  0
  3 10  2  0  0  0  0
  4  5  2  0  0  0  0
  5  7  1  0  0  0  0
  5 32  1  0  0  0  0
  6 10  1  0  0  0  0
  6  4  1  0  0  0  0
  8  3  1  0  0  0  0
  9  6  2  0  0  0  0
 10 11  1  0  0  0  0
 11  7  2  0  0  0  0
 12  9  1  0  0  0  0
 13 12  1  0  0  0  0
 15 13  1  6  0  0  0
 15 14  1  0  0  0  0
 16 22  1  1  0  0  0
 16 18  1  0  0  0  0
 16 15  1  0  0  0  0
 18 17  1  6  0  0  0
 18 19  1  0  0  0  0
 19 14  1  0  0  0  0
 21 20  2  0  0  0  0
 22 23  2  0  0  0  0
 24 25  1  0  0  0  0
 25 20  1  0  0  0  0
 25 22  1  0  0  0  0
 27 26  1  0  0  0  0
 27 30  2  0  0  0  0
 28 20  1  6  0  0  0
 28 29  1  0  0  0  0
 29 26  1  0  0  0  0
 31 28  1  0  0  0  0
 31 27  1  0  0  0  0
 34 36  1  0  0  0  0
 34 32  1  0  0  0  0
 34 33  1  1  0  0  0
 35 36  2  0  0  0  0
 36 37  1  0  0  0  0
 38 40  1  0  0  0  0
 38 37  1  0  0  0  0
 39 40  1  0  0  0  0
 41 40  1  0  0  0  0
M  END
>  <MODEL>
1

>  <REMARK>
 VINA RESULT:      -7.3      0.000      0.000
  Name = 
  11 active torsions:
  status: ('A' for Active; 'I' for Inactive)
    1  A    between atoms: C_4  and  N_9
    2  A    between atoms: C_4  and  C_18
    3  A    between atoms: C_6  and  C_25
    4  A    between atoms: C_7  and  N_16
    5  A    between atoms: C_7  and  C_29
    6  A    between atoms: N_9  and  C_30
    7  A    between atoms: C_13  and  C_29
    8  A    between atoms: C_13  and  C_39
    9  A    between atoms: C_17  and  O_33
   10  A    between atoms: C_19  and  C_34
   11  A    between atoms: O_33  and  C_39
                            x       y       z     vdW  Elec       q    Type
                         _______ _______ _______ _____ _____    ______ ____

>  <TORSDO>
F 11

$$$$
=
 OpenBabel11042419003D

 41 44  0  0  1  0  0  0  0  0999 V2000
  182.9690  178.5510  142.3870 O   0  0  0  0  0  1  0  0  0  0  0  0
  185.2180  177.6850  142.4020 C   0  0  0  0  0  3  0  0  0  0  0  0
  184.2200  178.5140  144.4450 C   0  0  0  0  0  3  0  0  0  0  0  0
  187.6050  177.3100  145.1790 N   0  0  0  0  0  0  0  0  0  0  0  0
  187.7100  177.5440  146.5160 C   0  0  0  0  0  0  0  0  0  0  0  0
  186.4880  177.6230  144.4690 C   0  0  0  0  0  0  0  0  0  0  0  0
  186.6450  178.1280  147.2040 C   0  0  0  0  0  3  0  0  0  0  0  0
  184.1340  178.2510  143.0780 C   0  0  0  0  0  0  0  0  0  0  0  0
  186.4040  177.3720  143.0760 C   0  0  0  0  0  0  0  0  0  0  0  0
  185.3890  178.2030  145.1420 C   0  0  0  0  0  0  0  0  0  0  0  0
  185.4790  178.4570  146.5110 C   0  0  0  0  0  3  0  0  0  0  0  0
  187.4770  176.8030  142.3120 N   0  0  0  0  0  2  0  0  0  0  0  0
  187.6530  175.3840  142.0420 C   0  0  0  0  0  2  0  0  0  0  0  0
  189.6160  175.0450  143.3700 O   0  0  0  0  0  0  0  0  0  0  0  0
  189.1280  175.0340  142.0490 C   0  0  1  0  0  3  0  0  0  0  0  0
  189.3190  173.6570  141.4490 C   0  0  2  0  0  3  0  0  0  0  0  0
  189.3850  171.6290  142.6660 O   0  0  0  0  0  1  0  0  0  0  0  0
  190.0020  172.8710  142.5220 C   0  0  2  0  0  3  0  0  0  0  0  0
  189.7690  173.7020  143.7540 C   0  0  0  0  0  2  0  0  0  0  0  0
  190.2160  173.7760  137.6620 C   0  0  0  0  0  0  0  0  0  0  0  0
  189.5580  173.7670  136.5860 O   0  0  0  0  0  0  0  0  0  0  0  0
  190.1550  173.7220  140.2060 C   0  0  0  0  0  0  0  0  0  0  0  0
  191.4110  173.7730  140.3090 O   0  0  0  0  0  0  0  0  0  0  0  0
  188.1550  173.7330  138.8800 O   0  0  0  0  0  1  0  0  0  0  0  0
  189.5100  173.7390  138.9170 N   0  0  0  0  0  0  0  0  0  0  0  0
  193.5670  172.7050  136.5510 N   0  0  0  0  0  2  0  0  0  0  0  0
  193.7220  174.0500  136.1310 C   0  0  0  0  0  0  0  0  0  0  0  0
  191.7130  173.7900  137.5930 C   0  0  1  0  0  3  0  0  0  0  0  0
  192.2560  172.4490  137.1110 C   0  0  0  0  0  2  0  0  0  0  0  0
  194.9020  174.5490  135.9770 N   0  0  0  0  0  2  0  0  0  0  0  0
  192.3280  175.1010  136.4770 S   0  0  0  0  0  0  0  0  0  0  0  0
  188.8720  177.2010  147.2090 O   0  0  0  0  0  0  0  0  0  0  0  0
  189.0010  174.7920  147.3060 C   0  0  0  0  0  1  0  0  0  0  0  0
  189.6700  176.0770  146.8450 C   0  0  2  0  0  3  0  0  0  0  0  0
  191.2720  177.0750  148.2660 O   0  0  0  0  0  0  0  0  0  0  0  0
  191.0300  176.1920  147.4570 C   0  0  0  0  0  0  0  0  0  0  0  0
  192.0820  175.1930  147.0980 C   0  0  0  0  0  2  0  0  0  0  0  0
  193.1120  175.7890  146.1470 C   0  0  0  0  0  2  0  0  0  0  0  0
  192.5450  176.9340  144.1870 C   0  0  0  0  0  1  0  0  0  0  0  0
  192.7030  175.6100  144.7620 N   0  0  0  0  0  0  0  0  0  0  0  0
  193.8220  174.9920  144.0760 C   0  0  0  0  0  1  0  0  0  0  0  0
  1  8  1  0  0  0  0
  2  9  2  0  0  0  0
  2  8  1  0  0  0  0
  3 10  1  0  0  0  0
  4  5  2  0  0  0  0
  5  7  1  0  0  0  0
  5 32  1  0  0  0  0
  6 10  2  0  0  0  0
  6  4  1  0  0  0  0
  8  3  2  0  0  0  0
  9  6  1  0  0  0  0
 10 11  1  0  0  0  0
 11  7  2  0  0  0  0
 12  9  1  0  0  0  0
 13 12  1  0  0  0  0
 14 19  1  0  0  0  0
 15 13  1  1  0  0  0
 15 14  1  0  0  0  0
 16 22  1  6  0  0  0
 16 15  1  0  0  0  0
 16 18  1  0  0  0  0
 18 17  1  1  0  0  0
 18 19  1  0  0  0  0
 20 25  1  0  0  0  0
 21 20  2  0  0  0  0
 22 23  2  0  0  0  0
 24 25  1  0  0  0  0
 25 22  1  0  0  0  0
 26 29  1  0  0  0  0
 27 31  1  0  0  0  0
 27 26  1  0  0  0  0
 28 20  1  6  0  0  0
 29 28  1  0  0  0  0
 30 27  2  0  0  0  0
 31 28  1  0  0  0  0
 34 32  1  0  0  0  0
 34 33  1  1  0  0  0
 34 36  1  0  0  0  0
 36 35  2  0  0  0  0
 37 36  1  0  0  0  0
 38 37  1  0  0  0  0
 39 40  1  0  0  0  0
 40 38  1  0  0  0  0
 41 40  1  0  0  0  0
M  END
>  <MODEL>
2

>  <REMARK>
 VINA RESULT:      -7.0      2.279      3.194
  Name = 
  11 active torsions:
  status: ('A' for Active; 'I' for Inactive)
    1  A    between atoms: C_4  and  N_9
    2  A    between atoms: C_4  and  C_18
    3  A    between atoms: C_6  and  C_25
    4  A    between atoms: C_7  and  N_16
    5  A    between atoms: C_7  and  C_29
    6  A    between atoms: N_9  and  C_30
    7  A    between atoms: C_13  and  C_29
    8  A    between atoms: C_13  and  C_39
    9  A    between atoms: C_17  and  O_33
   10  A    between atoms: C_19  and  C_34
   11  A    between atoms: O_33  and  C_39
                            x       y       z     vdW  Elec       q    Type
                         _______ _______ _______ _____ _____    ______ ____

>  <TORSDO>
F 11

$$$$
=
 OpenBabel11042419003D

 41 44  0  0  1  0  0  0  0  0999 V2000
  187.3800  179.2940  149.2250 O   0  0  0  0  0  1  0  0  0  0  0  0
  187.6390  177.6900  147.4440 C   0  0  0  0  0  3  0  0  0  0  0  0
  185.9280  179.3980  147.3040 C   0  0  0  0  0  3  0  0  0  0  0  0
  185.8070  177.3430  144.2700 N   0  0  0  0  0  0  0  0  0  0  0  0
  184.7910  177.9220  143.5720 C   0  0  0  0  0  0  0  0  0  0  0  0
  186.1980  177.7900  145.4930 C   0  0  0  0  0  0  0  0  0  0  0  0
  184.1100  179.0130  144.1140 C   0  0  0  0  0  3  0  0  0  0  0  0
  186.9820  178.7950  147.9920 C   0  0  0  0  0  0  0  0  0  0  0  0
  187.2570  177.1690  146.2030 C   0  0  0  0  0  0  0  0  0  0  0  0
  185.5340  178.9020  146.0610 C   0  0  0  0  0  0  0  0  0  0  0  0
  184.4860  179.5050  145.3640 C   0  0  0  0  0  3  0  0  0  0  0  0
  187.9720  176.0260  145.7090 N   0  0  0  0  0  2  0  0  0  0  0  0
  189.2540  175.5590  146.2120 C   0  0  0  0  0  2  0  0  0  0  0  0
  191.1480  176.9510  145.7580 O   0  0  0  0  0  0  0  0  0  0  0  0
  190.3560  175.9120  145.2330 C   0  0  1  0  0  3  0  0  0  0  0  0
  191.2180  174.6920  144.9860 C   0  0  2  0  0  3  0  0  0  0  0  0
  193.1890  174.1440  146.1740 O   0  0  0  0  0  1  0  0  0  0  0  0
  192.5970  175.1210  145.3740 C   0  0  2  0  0  3  0  0  0  0  0  0
  192.3510  176.3640  146.1860 C   0  0  0  0  0  2  0  0  0  0  0  0
  190.5010  172.4950  141.8520 C   0  0  0  0  0  0  0  0  0  0  0  0
  189.9930  171.3580  141.6550 O   0  0  0  0  0  0  0  0  0  0  0  0
  191.1630  174.2750  143.5470 C   0  0  0  0  0  0  0  0  0  0  0  0
  191.6140  175.0520  142.6610 O   0  0  0  0  0  0  0  0  0  0  0  0
  190.0710  172.2390  144.1950 O   0  0  0  0  0  1  0  0  0  0  0  0
  190.5830  173.0030  143.1980 N   0  0  0  0  0  0  0  0  0  0  0  0
  192.4560  173.0550  138.7750 N   0  0  0  0  0  2  0  0  0  0  0  0
  191.2090  173.3930  138.1920 C   0  0  0  0  0  0  0  0  0  0  0  0
  191.0330  173.2620  140.6810 C   0  0  1  0  0  3  0  0  0  0  0  0
  192.3260  172.6450  140.1580 C   0  0  0  0  0  2  0  0  0  0  0  0
  191.1680  174.1290  137.1330 N   0  0  0  0  0  2  0  0  0  0  0  0
  189.8260  173.3290  139.3090 S   0  0  0  0  0  0  0  0  0  0  0  0
  184.4260  177.4370  142.3150 O   0  0  0  0  0  0  0  0  0  0  0  0
  183.1380  178.2770  140.4540 C   0  0  0  0  0  1  0  0  0  0  0  0
  184.4940  178.2410  141.1390 C   0  0  2  0  0  3  0  0  0  0  0  0
  185.2110  177.3320  139.0800 O   0  0  0  0  0  0  0  0  0  0  0  0
  185.5260  177.6970  140.2030 C   0  0  0  0  0  0  0  0  0  0  0  0
  186.9540  177.6390  140.6400 C   0  0  0  0  0  2  0  0  0  0  0  0
  187.5460  176.2530  140.4170 C   0  0  0  0  0  2  0  0  0  0  0  0
  188.6950  177.0930  142.2740 C   0  0  0  0  0  1  0  0  0  0  0  0
  188.4280  175.8840  141.5140 N   0  0  0  0  0  0  0  0  0  0  0  0
  187.6640  175.0100  142.3840 C   0  0  0  0  0  1  0  0  0  0  0  0
  2  8  1  0  0  0  0
  3  8  2  0  0  0  0
  4  6  1  0  0  0  0
  5  7  1  0  0  0  0
  5  4  2  0  0  0  0
  6 10  2  0  0  0  0
  6  9  1  0  0  0  0
  7 11  2  0  0  0  0
  8  1  1  0  0  0  0
  9  2  2  0  0  0  0
 10  3  1  0  0  0  0
 11 10  1  0  0  0  0
 12  9  1  0  0  0  0
 12 13  1  0  0  0  0
 14 19  1  0  0  0  0
 15 14  1  0  0  0  0
 15 13  1  1  0  0  0
 16 22  1  6  0  0  0
 16 15  1  0  0  0  0
 16 18  1  0  0  0  0
 18 17  1  1  0  0  0
 18 19  1  0  0  0  0
 20 25  1  0  0  0  0
 21 20  2  0  0  0  0
 23 22  2  0  0  0  0
 25 22  1  0  0  0  0
 25 24  1  0  0  0  0
 26 29  1  0  0  0  0
 27 26  1  0  0  0  0
 27 31  1  0  0  0  0
 28 20  1  1  0  0  0
 29 28  1  0  0  0  0
 30 27  2  0  0  0  0
 31 28  1  0  0  0  0
 32  5  1  0  0  0  0
 34 33  1  6  0  0  0
 34 32  1  0  0  0  0
 35 36  2  0  0  0  0
 36 37  1  0  0  0  0
 36 34  1  0  0  0  0
 38 37  1  0  0  0  0
 38 40  1  0  0  0  0
 40 39  1  0  0  0  0
 40 41  1  0  0  0  0
M  END
>  <MODEL>
3

>  <REMARK>
 VINA RESULT:      -6.7      2.821      5.885
  Name = 
  11 active torsions:
  status: ('A' for Active; 'I' for Inactive)
    1  A    between atoms: C_4  and  N_9
    2  A    between atoms: C_4  and  C_18
    3  A    between atoms: C_6  and  C_25
    4  A    between atoms: C_7  and  N_16
    5  A    between atoms: C_7  and  C_29
    6  A    between atoms: N_9  and  C_30
    7  A    between atoms: C_13  and  C_29
    8  A    between atoms: C_13  and  C_39
    9  A    between atoms: C_17  and  O_33
   10  A    between atoms: C_19  and  C_34
   11  A    between atoms: O_33  and  C_39
                            x       y       z     vdW  Elec       q    Type
                         _______ _______ _______ _____ _____    ______ ____

>  <TORSDO>
F 11

$$$$
=
 OpenBabel11042419003D

 41 44  0  0  1  0  0  0  0  0999 V2000
  190.9950  176.3130  147.9810 O   0  0  0  0  0  1  0  0  0  0  0  0
  190.9120  176.5370  145.5820 C   0  0  0  0  0  3  0  0  0  0  0  0
  188.9930  177.1430  146.9280 C   0  0  0  0  0  3  0  0  0  0  0  0
  188.2160  177.7700  143.4000 N   0  0  0  0  0  0  0  0  0  0  0  0
  186.9450  178.2540  143.4670 C   0  0  0  0  0  0  0  0  0  0  0  0
  188.9110  177.3880  144.5050 C   0  0  0  0  0  0  0  0  0  0  0  0
  186.3110  178.3670  144.7060 C   0  0  0  0  0  3  0  0  0  0  0  0
  190.3000  176.6640  146.8320 C   0  0  0  0  0  0  0  0  0  0  0  0
  190.2330  176.8850  144.4090 C   0  0  0  0  0  0  0  0  0  0  0  0
  188.2980  177.5050  145.7730 C   0  0  0  0  0  0  0  0  0  0  0  0
  186.9930  177.9920  145.8630 C   0  0  0  0  0  3  0  0  0  0  0  0
  190.9240  176.7180  143.1620 N   0  0  0  0  0  2  0  0  0  0  0  0
  192.3430  176.4320  143.0220 C   0  0  0  0  0  2  0  0  0  0  0  0
  193.3670  174.3160  143.4750 O   0  0  0  0  0  0  0  0  0  0  0  0
  192.5410  175.0020  142.5630 C   0  0  1  0  0  3  0  0  0  0  0  0
  191.1960  174.3110  142.4790 C   0  0  2  0  0  3  0  0  0  0  0  0
  190.1940  173.0480  144.2100 O   0  0  0  0  0  1  0  0  0  0  0  0
  191.3200  173.1340  143.3930 C   0  0  2  0  0  3  0  0  0  0  0  0
  192.5280  173.4720  144.2230 C   0  0  0  0  0  2  0  0  0  0  0  0
  189.2060  173.7780  139.1750 C   0  0  0  0  0  0  0  0  0  0  0  0
  188.0420  174.0580  138.7770 O   0  0  0  0  0  0  0  0  0  0  0  0
  190.8970  173.8810  141.0740 C   0  0  0  0  0  0  0  0  0  0  0  0
  191.7890  173.2860  140.4080 O   0  0  0  0  0  0  0  0  0  0  0  0
  188.7120  174.8540  141.2570 O   0  0  0  0  0  1  0  0  0  0  0  0
  189.6060  174.1670  140.5040 N   0  0  0  0  0  0  0  0  0  0  0  0
  190.1950  171.1270  136.8090 N   0  0  0  0  0  2  0  0  0  0  0  0
  190.5150  172.1970  135.9360 C   0  0  0  0  0  0  0  0  0  0  0  0
  190.1200  173.0200  138.2610 C   0  0  1  0  0  3  0  0  0  0  0  0
  189.6390  171.5870  138.0650 C   0  0  0  0  0  2  0  0  0  0  0  0
  191.3510  172.0170  134.9700 N   0  0  0  0  0  2  0  0  0  0  0  0
  190.2530  173.8180  136.6220 S   0  0  0  0  0  0  0  0  0  0  0  0
  186.2700  178.6420  142.3090 O   0  0  0  0  0  0  0  0  0  0  0  0
  185.7850  177.7290  140.1270 C   0  0  0  0  0  1  0  0  0  0  0  0
  185.4060  177.7570  141.5990 C   0  0  2  0  0  3  0  0  0  0  0  0
  183.5090  178.3780  142.8640 O   0  0  0  0  0  0  0  0  0  0  0  0
  183.9840  178.1940  141.7530 C   0  0  0  0  0  0  0  0  0  0  0  0
  183.1580  178.4410  140.5320 C   0  0  0  0  0  2  0  0  0  0  0  0
  181.7670  177.8340  140.6720 C   0  0  0  0  0  2  0  0  0  0  0  0
  179.5400  178.1890  140.0470 C   0  0  0  0  0  1  0  0  0  0  0  0
  180.7400  178.8540  140.5250 N   0  0  0  0  0  0  0  0  0  0  0  0
  180.4410  179.3360  141.8610 C   0  0  0  0  0  1  0  0  0  0  0  0
  2  8  1  0  0  0  0
  4  5  2  0  0  0  0
  4  6  1  0  0  0  0
  5  7  1  0  0  0  0
  6 10  2  0  0  0  0
  7 11  2  0  0  0  0
  8  3  2  0  0  0  0
  8  1  1  0  0  0  0
  9  6  1  0  0  0  0
  9  2  2  0  0  0  0
 10 11  1  0  0  0  0
 10  3  1  0  0  0  0
 12  9  1  0  0  0  0
 13 12  1  0  0  0  0
 14 19  1  0  0  0  0
 15 13  1  1  0  0  0
 15 14  1  0  0  0  0
 16 22  1  6  0  0  0
 16 15  1  0  0  0  0
 16 18  1  0  0  0  0
 18 17  1  1  0  0  0
 18 19  1  0  0  0  0
 20 25  1  0  0  0  0
 21 20  2  0  0  0  0
 23 22  2  0  0  0  0
 25 22  1  0  0  0  0
 25 24  1  0  0  0  0
 26 29  1  0  0  0  0
 27 31  1  0  0  0  0
 27 26  1  0  0  0  0
 28 20  1  1  0  0  0
 29 28  1  0  0  0  0
 30 27  2  0  0  0  0
 31 28  1  0  0  0  0
 32  5  1  0  0  0  0
 34 33  1  6  0  0  0
 34 36  1  0  0  0  0
 34 32  1  0  0  0  0
 36 35  2  0  0  0  0
 37 38  1  0  0  0  0
 37 36  1  0  0  0  0
 39 40  1  0  0  0  0
 40 38  1  0  0  0  0
 40 41  1  0  0  0  0
M  END
>  <MODEL>
4

>  <REMARK>
 VINA RESULT:      -6.7      3.125      7.280
  Name = 
  11 active torsions:
  status: ('A' for Active; 'I' for Inactive)
    1  A    between atoms: C_4  and  N_9
    2  A    between atoms: C_4  and  C_18
    3  A    between atoms: C_6  and  C_25
    4  A    between atoms: C_7  and  N_16
    5  A    between atoms: C_7  and  C_29
    6  A    between atoms: N_9  and  C_30
    7  A    between atoms: C_13  and  C_29
    8  A    between atoms: C_13  and  C_39
    9  A    between atoms: C_17  and  O_33
   10  A    between atoms: C_19  and  C_34
   11  A    between atoms: O_33  and  C_39
                            x       y       z     vdW  Elec       q    Type
                         _______ _______ _______ _____ _____    ______ ____

>  <TORSDO>
F 11

$$$$
=
 OpenBabel11042419003D

 41 44  0  0  1  0  0  0  0  0999 V2000
  195.2780  174.7910  145.9920 O   0  0  0  0  0  1  0  0  0  0  0  0
  193.4890  175.4250  144.5060 C   0  0  0  0  0  3  0  0  0  0  0  0
  193.2840  175.8050  146.8880 C   0  0  0  0  0  3  0  0  0  0  0  0
  190.2580  177.0350  145.2240 N   0  0  0  0  0  0  0  0  0  0  0  0
  189.5270  177.5090  146.2710 C   0  0  0  0  0  0  0  0  0  0  0  0
  191.4810  176.4630  145.3880 C   0  0  0  0  0  0  0  0  0  0  0  0
  190.0310  177.4120  147.5690 C   0  0  0  0  0  3  0  0  0  0  0  0
  194.0190  175.3390  145.7970 C   0  0  0  0  0  0  0  0  0  0  0  0
  192.2220  175.9750  144.2820 C   0  0  0  0  0  0  0  0  0  0  0  0
  192.0220  176.3640  146.6900 C   0  0  0  0  0  0  0  0  0  0  0  0
  191.2850  176.8380  147.7770 C   0  0  0  0  0  3  0  0  0  0  0  0
  191.7420  176.0190  142.9300 N   0  0  0  0  0  2  0  0  0  0  0  0
  190.9500  174.9810  142.2880 C   0  0  0  0  0  2  0  0  0  0  0  0
  189.5070  173.5220  143.5210 O   0  0  0  0  0  0  0  0  0  0  0  0
  190.8540  173.7690  143.1920 C   0  0  1  0  0  3  0  0  0  0  0  0
  191.4310  172.5640  142.4780 C   0  0  2  0  0  3  0  0  0  0  0  0
  190.1960  171.0210  141.1780 O   0  0  0  0  0  1  0  0  0  0  0  0
  190.3130  171.5710  142.4540 C   0  0  2  0  0  3  0  0  0  0  0  0
  189.1030  172.4110  142.7600 C   0  0  0  0  0  2  0  0  0  0  0  0
  195.1590  171.9060  143.3860 C   0  0  0  0  0  0  0  0  0  0  0  0
  196.2720  172.2670  142.9140 O   0  0  0  0  0  0  0  0  0  0  0  0
  192.6230  172.0240  143.2090 C   0  0  0  0  0  0  0  0  0  0  0  0
  192.4470  171.2700  144.2060 O   0  0  0  0  0  0  0  0  0  0  0  0
  194.0640  173.2410  141.7260 O   0  0  0  0  0  1  0  0  0  0  0  0
  193.9470  172.3860  142.7720 N   0  0  0  0  0  0  0  0  0  0  0  0
  195.8490  168.7860  145.2300 N   0  0  0  0  0  2  0  0  0  0  0  0
  196.5020  169.6290  146.1640 C   0  0  0  0  0  0  0  0  0  0  0  0
  195.1400  170.9620  144.5500 C   0  0  1  0  0  3  0  0  0  0  0  0
  195.3310  169.5200  144.0930 C   0  0  0  0  0  2  0  0  0  0  0  0
  196.6760  169.2350  147.3810 N   0  0  0  0  0  2  0  0  0  0  0  0
  196.4420  171.3630  145.7700 S   0  0  0  0  0  0  0  0  0  0  0  0
  188.2780  178.0950  146.0580 O   0  0  0  0  0  0  0  0  0  0  0  0
  186.6260  176.3860  145.6340 C   0  0  0  0  0  1  0  0  0  0  0  0
  187.0720  177.5150  146.5490 C   0  0  2  0  0  3  0  0  0  0  0  0
  185.9280  179.2890  147.6120 O   0  0  0  0  0  0  0  0  0  0  0  0
  186.0000  178.5540  146.6370 C   0  0  0  0  0  0  0  0  0  0  0  0
  185.0390  178.7140  145.5040 C   0  0  0  0  0  2  0  0  0  0  0  0
  185.5140  179.7750  144.5190 C   0  0  0  0  0  2  0  0  0  0  0  0
  186.6930  178.6740  142.8230 C   0  0  0  0  0  1  0  0  0  0  0  0
  185.4180  179.2900  143.1510 N   0  0  0  0  0  0  0  0  0  0  0  0
  184.4340  178.2240  143.1560 C   0  0  0  0  0  1  0  0  0  0  0  0
  2  8  1  0  0  0  0
  4  6  1  0  0  0  0
  4  5  2  0  0  0  0
  5  7  1  0  0  0  0
  6 10  2  0  0  0  0
  7 11  2  0  0  0  0
  8  1  1  0  0  0  0
  8  3  2  0  0  0  0
  9  2  2  0  0  0  0
  9  6  1  0  0  0  0
 10  3  1  0  0  0  0
 10 11  1  0  0  0  0
 12  9  1  0  0  0  0
 13 12  1  0  0  0  0
 15 13  1  6  0  0  0
 15 14  1  0  0  0  0
 16 15  1  0  0  0  0
 16 22  1  1  0  0  0
 18 17  1  6  0  0  0
 18 16  1  0  0  0  0
 18 19  1  0  0  0  0
 19 14  1  0  0  0  0
 21 20  2  0  0  0  0
 22 23  2  0  0  0  0
 24 25  1  0  0  0  0
 25 22  1  0  0  0  0
 25 20  1  0  0  0  0
 26 27  1  0  0  0  0
 27 30  2  0  0  0  0
 28 20  1  6  0  0  0
 28 31  1  0  0  0  0
 29 28  1  0  0  0  0
 29 26  1  0  0  0  0
 31 27  1  0  0  0  0
 32  5  1  0  0  0  0
 32 34  1  0  0  0  0
 34 33  1  6  0  0  0
 34 36  1  0  0  0  0
 36 35  2  0  0  0  0
 37 36  1  0  0  0  0
 38 37  1  0  0  0  0
 39 40  1  0  0  0  0
 40 41  1  0  0  0  0
 40 38  1  0  0  0  0
M  END
>  <MODEL>
5

>  <REMARK>
 VINA RESULT:      -6.4      3.109      6.095
  Name = 
  11 active torsions:
  status: ('A' for Active; 'I' for Inactive)
    1  A    between atoms: C_4  and  N_9
    2  A    between atoms: C_4  and  C_18
    3  A    between atoms: C_6  and  C_25
    4  A    between atoms: C_7  and  N_16
    5  A    between atoms: C_7  and  C_29
    6  A    between atoms: N_9  and  C_30
    7  A    between atoms: C_13  and  C_29
    8  A    between atoms: C_13  and  C_39
    9  A    between atoms: C_17  and  O_33
   10  A    between atoms: C_19  and  C_34
   11  A    between atoms: O_33  and  C_39
                            x       y       z     vdW  Elec       q    Type
                         _______ _______ _______ _____ _____    ______ ____

>  <TORSDO>
F 11

$$$$
=
 OpenBabel11042419003D

 41 44  0  0  1  0  0  0  0  0999 V2000
  195.0690  174.1060  145.3120 O   0  0  0  0  0  1  0  0  0  0  0  0
  192.8060  173.3150  145.0560 C   0  0  0  0  0  3  0  0  0  0  0  0
  193.2450  175.3920  146.2190 C   0  0  0  0  0  3  0  0  0  0  0  0
  189.6250  174.8100  146.1490 N   0  0  0  0  0  0  0  0  0  0  0  0
  189.1460  175.9020  146.8070 C   0  0  0  0  0  0  0  0  0  0  0  0
  190.9550  174.6050  145.9480 C   0  0  0  0  0  0  0  0  0  0  0  0
  190.0340  176.8570  147.3060 C   0  0  0  0  0  3  0  0  0  0  0  0
  193.7080  174.2720  145.5300 C   0  0  0  0  0  0  0  0  0  0  0  0
  191.4300  173.4590  145.2620 C   0  0  0  0  0  0  0  0  0  0  0  0
  191.8760  175.5630  146.4300 C   0  0  0  0  0  0  0  0  0  0  0  0
  191.4050  176.6850  147.1140 C   0  0  0  0  0  3  0  0  0  0  0  0
  190.5670  172.4300  144.7560 N   0  0  0  0  0  2  0  0  0  0  0  0
  189.4040  172.6530  143.9100 C   0  0  0  0  0  2  0  0  0  0  0  0
  188.7610  172.1100  141.6680 O   0  0  0  0  0  0  0  0  0  0  0  0
  189.8120  172.6250  142.4510 C   0  0  1  0  0  3  0  0  0  0  0  0
  190.1410  174.0320  141.9960 C   0  0  2  0  0  3  0  0  0  0  0  0
  188.6200  175.5350  140.9840 O   0  0  0  0  0  1  0  0  0  0  0  0
  189.2150  174.2820  140.8480 C   0  0  2  0  0  3  0  0  0  0  0  0
  188.1770  173.2050  141.0070 C   0  0  0  0  0  2  0  0  0  0  0  0
  193.7560  175.4470  141.6940 C   0  0  0  0  0  0  0  0  0  0  0  0
  194.3650  176.4490  142.1580 O   0  0  0  0  0  0  0  0  0  0  0  0
  191.5750  174.1410  141.5720 C   0  0  0  0  0  0  0  0  0  0  0  0
  192.0600  173.2630  140.8060 O   0  0  0  0  0  0  0  0  0  0  0  0
  191.8070  176.1140  142.9170 O   0  0  0  0  0  1  0  0  0  0  0  0
  192.3780  175.2340  142.0570 N   0  0  0  0  0  0  0  0  0  0  0  0
  196.1010  174.5200  139.0020 N   0  0  0  0  0  2  0  0  0  0  0  0
  196.6980  173.6850  139.9790 C   0  0  0  0  0  0  0  0  0  0  0  0
  194.4800  174.5320  140.7550 C   0  0  1  0  0  3  0  0  0  0  0  0
  194.9940  175.2880  139.5340 C   0  0  0  0  0  2  0  0  0  0  0  0
  197.4140  172.6740  139.6170 N   0  0  0  0  0  2  0  0  0  0  0  0
  195.8960  173.7080  141.5670 S   0  0  0  0  0  0  0  0  0  0  0  0
  187.7730  176.0780  146.9850 O   0  0  0  0  0  0  0  0  0  0  0  0
  186.5800  178.0700  147.6480 C   0  0  0  0  0  1  0  0  0  0  0  0
  187.0820  177.2220  146.4900 C   0  0  2  0  0  3  0  0  0  0  0  0
  184.8890  176.4170  146.1390 O   0  0  0  0  0  0  0  0  0  0  0  0
  185.9330  176.7980  145.6320 C   0  0  0  0  0  0  0  0  0  0  0  0
  186.0600  176.8810  144.1450 C   0  0  0  0  0  2  0  0  0  0  0  0
  186.4690  178.2800  143.7000 C   0  0  0  0  0  2  0  0  0  0  0  0
  185.8600  178.2240  141.4410 C   0  0  0  0  0  1  0  0  0  0  0  0
  185.5250  178.8100  142.7280 N   0  0  0  0  0  0  0  0  0  0  0  0
  184.2200  178.2920  143.0910 C   0  0  0  0  0  1  0  0  0  0  0  0
  1  8  1  0  0  0  0
  2  9  2  0  0  0  0
  2  8  1  0  0  0  0
  3 10  1  0  0  0  0
  4  5  2  0  0  0  0
  5 32  1  0  0  0  0
  5  7  1  0  0  0  0
  6  4  1  0  0  0  0
  6 10  2  0  0  0  0
  8  3  2  0  0  0  0
  9  6  1  0  0  0  0
 10 11  1  0  0  0  0
 11  7  2  0  0  0  0
 12  9  1  0  0  0  0
 13 12  1  0  0  0  0
 14 15  1  0  0  0  0
 15 13  1  1  0  0  0
 16 22  1  6  0  0  0
 16 15  1  0  0  0  0
 18 17  1  1  0  0  0
 18 19  1  0  0  0  0
 18 16  1  0  0  0  0
 19 14  1  0  0  0  0
 20 25  1  0  0  0  0
 20 21  2  0  0  0  0
 22 25  1  0  0  0  0
 23 22  2  0  0  0  0
 25 24  1  0  0  0  0
 26 29  1  0  0  0  0
 26 27  1  0  0  0  0
 27 31  1  0  0  0  0
 28 31  1  0  0  0  0
 28 20  1  1  0  0  0
 29 28  1  0  0  0  0
 30 27  2  0  0  0  0
 34 32  1  0  0  0  0
 34 33  1  1  0  0  0
 36 35  2  0  0  0  0
 36 34  1  0  0  0  0
 37 36  1  0  0  0  0
 38 37  1  0  0  0  0
 39 40  1  0  0  0  0
 40 41  1  0  0  0  0
 40 38  1  0  0  0  0
M  END
>  <MODEL>
6

>  <REMARK>
 VINA RESULT:      -6.4      2.186      5.715
  Name = 
  11 active torsions:
  status: ('A' for Active; 'I' for Inactive)
    1  A    between atoms: C_4  and  N_9
    2  A    between atoms: C_4  and  C_18
    3  A    between atoms: C_6  and  C_25
    4  A    between atoms: C_7  and  N_16
    5  A    between atoms: C_7  and  C_29
    6  A    between atoms: N_9  and  C_30
    7  A    between atoms: C_13  and  C_29
    8  A    between atoms: C_13  and  C_39
    9  A    between atoms: C_17  and  O_33
   10  A    between atoms: C_19  and  C_34
   11  A    between atoms: O_33  and  C_39
                            x       y       z     vdW  Elec       q    Type
                         _______ _______ _______ _____ _____    ______ ____

>  <TORSDO>
F 11

$$$$
=
 OpenBabel11042419003D

 41 44  0  0  1  0  0  0  0  0999 V2000
  188.5690  175.1680  147.0260 O   0  0  0  0  0  1  0  0  0  0  0  0
  190.0490  173.8890  145.6170 C   0  0  0  0  0  3  0  0  0  0  0  0
  190.8840  175.8080  146.8350 C   0  0  0  0  0  3  0  0  0  0  0  0
  193.6440  174.3060  144.9450 N   0  0  0  0  0  0  0  0  0  0  0  0
  194.6900  175.1140  145.2730 C   0  0  0  0  0  0  0  0  0  0  0  0
  192.3880  174.5080  145.4260 C   0  0  0  0  0  0  0  0  0  0  0  0
  194.4880  176.1970  146.1300 C   0  0  0  0  0  3  0  0  0  0  0  0
  189.8330  174.9560  146.4940 C   0  0  0  0  0  0  0  0  0  0  0  0
  191.3140  173.6540  145.0680 C   0  0  0  0  0  0  0  0  0  0  0  0
  192.1570  175.5890  146.3060 C   0  0  0  0  0  0  0  0  0  0  0  0
  193.2140  176.4330  146.6490 C   0  0  0  0  0  3  0  0  0  0  0  0
  191.4560  172.5450  144.1680 N   0  0  0  0  0  2  0  0  0  0  0  0
  190.7090  172.3670  142.9330 C   0  0  0  0  0  2  0  0  0  0  0  0
  191.3500  173.7830  141.1120 O   0  0  0  0  0  0  0  0  0  0  0  0
  190.5180  173.7040  142.2450 C   0  0  1  0  0  3  0  0  0  0  0  0
  189.0700  173.8490  141.8230 C   0  0  2  0  0  3  0  0  0  0  0  0
  188.1930  173.2470  139.7110 O   0  0  0  0  0  1  0  0  0  0  0  0
  189.1300  174.0620  140.3440 C   0  0  2  0  0  3  0  0  0  0  0  0
  190.5200  173.6100  139.9900 C   0  0  0  0  0  2  0  0  0  0  0  0
  188.7160  177.2600  143.6650 C   0  0  0  0  0  0  0  0  0  0  0  0
  189.5150  178.1610  144.0410 O   0  0  0  0  0  0  0  0  0  0  0  0
  188.4210  175.0090  142.5150 C   0  0  0  0  0  0  0  0  0  0  0  0
  187.1700  175.0100  142.6770 O   0  0  0  0  0  0  0  0  0  0  0  0
  190.5650  176.0680  142.7180 O   0  0  0  0  0  1  0  0  0  0  0  0
  189.2330  176.1100  142.9690 N   0  0  0  0  0  0  0  0  0  0  0  0
  185.7530  178.5400  145.4510 N   0  0  0  0  0  2  0  0  0  0  0  0
  185.3200  178.9680  144.1710 C   0  0  0  0  0  0  0  0  0  0  0  0
  187.2600  177.4050  143.9880 C   0  0  1  0  0  3  0  0  0  0  0  0
  187.0590  177.9150  145.4110 C   0  0  0  0  0  2  0  0  0  0  0  0
  184.0660  179.1820  143.9490 N   0  0  0  0  0  2  0  0  0  0  0  0
  186.4210  178.5510  142.8360 S   0  0  0  0  0  0  0  0  0  0  0  0
  195.9660  174.8670  144.7630 O   0  0  0  0  0  0  0  0  0  0  0  0
  197.5740  174.2150  143.0850 C   0  0  0  0  0  1  0  0  0  0  0  0
  196.2460  174.9010  143.3660 C   0  0  2  0  0  3  0  0  0  0  0  0
  196.9030  177.1660  143.5120 O   0  0  0  0  0  0  0  0  0  0  0  0
  196.2890  176.3160  142.8840 C   0  0  0  0  0  0  0  0  0  0  0  0
  195.6070  176.6740  141.6030 C   0  0  0  0  0  2  0  0  0  0  0  0
  194.8920  175.4720  141.0000 C   0  0  0  0  0  2  0  0  0  0  0  0
  196.2020  174.1790  139.5550 C   0  0  0  0  0  1  0  0  0  0  0  0
  195.2690  175.2910  139.6060 N   0  0  0  0  0  0  0  0  0  0  0  0
  194.0740  174.8610  138.9050 C   0  0  0  0  0  1  0  0  0  0  0  0
  2  8  1  0  0  0  0
  4  5  2  0  0  0  0
  4  6  1  0  0  0  0
  5  7  1  0  0  0  0
  6 10  2  0  0  0  0
  7 11  2  0  0  0  0
  8  3  2  0  0  0  0
  8  1  1  0  0  0  0
  9  6  1  0  0  0  0
  9  2  2  0  0  0  0
 10 11  1  0  0  0  0
 10  3  1  0  0  0  0
 12  9  1  0  0  0  0
 13 12  1  0  0  0  0
 14 15  1  0  0  0  0
 15 13  1  6  0  0  0
 16 15  1  0  0  0  0
 16 22  1  1  0  0  0
 18 17  1  6  0  0  0
 18 16  1  0  0  0  0
 19 18  1  0  0  0  0
 19 14  1  0  0  0  0
 20 21  2  0  0  0  0
 22 23  2  0  0  0  0
 22 25  1  0  0  0  0
 24 25  1  0  0  0  0
 25 20  1  0  0  0  0
 27 26  1  0  0  0  0
 28 20  1  6  0  0  0
 28 29  1  0  0  0  0
 29 26  1  0  0  0  0
 30 27  2  0  0  0  0
 31 28  1  0  0  0  0
 31 27  1  0  0  0  0
 32  5  1  0  0  0  0
 34 33  1  1  0  0  0
 34 32  1  0  0  0  0
 36 34  1  0  0  0  0
 36 35  2  0  0  0  0
 37 36  1  0  0  0  0
 38 37  1  0  0  0  0
 39 40  1  0  0  0  0
 40 38  1  0  0  0  0
 41 40  1  0  0  0  0
M  END
>  <MODEL>
7

>  <REMARK>
 VINA RESULT:      -6.4      2.556      7.297
  Name = 
  11 active torsions:
  status: ('A' for Active; 'I' for Inactive)
    1  A    between atoms: C_4  and  N_9
    2  A    between atoms: C_4  and  C_18
    3  A    between atoms: C_6  and  C_25
    4  A    between atoms: C_7  and  N_16
    5  A    between atoms: C_7  and  C_29
    6  A    between atoms: N_9  and  C_30
    7  A    between atoms: C_13  and  C_29
    8  A    between atoms: C_13  and  C_39
    9  A    between atoms: C_17  and  O_33
   10  A    between atoms: C_19  and  C_34
   11  A    between atoms: O_33  and  C_39
                            x       y       z     vdW  Elec       q    Type
                         _______ _______ _______ _____ _____    ______ ____

>  <TORSDO>
F 11

$$$$
=
 OpenBabel11042419003D

 41 44  0  0  1  0  0  0  0  0999 V2000
  194.6640  176.1190  146.8880 O   0  0  0  0  0  1  0  0  0  0  0  0
  193.2540  176.1310  144.9320 C   0  0  0  0  0  3  0  0  0  0  0  0
  192.2830  176.3990  147.1330 C   0  0  0  0  0  3  0  0  0  0  0  0
  189.6110  176.5590  144.6280 N   0  0  0  0  0  0  0  0  0  0  0  0
  188.5050  176.7520  145.3990 C   0  0  0  0  0  0  0  0  0  0  0  0
  190.8560  176.4290  145.1580 C   0  0  0  0  0  0  0  0  0  0  0  0
  188.6310  176.8180  146.7880 C   0  0  0  0  0  3  0  0  0  0  0  0
  193.4010  176.2160  146.3190 C   0  0  0  0  0  0  0  0  0  0  0  0
  191.9930  176.2270  144.3350 C   0  0  0  0  0  0  0  0  0  0  0  0
  191.0150  176.5050  146.5610 C   0  0  0  0  0  0  0  0  0  0  0  0
  189.8930  176.6950  147.3700 C   0  0  0  0  0  3  0  0  0  0  0  0
  191.9200  176.1200  142.9050 N   0  0  0  0  0  2  0  0  0  0  0  0
  193.0510  176.2360  141.9980 C   0  0  0  0  0  2  0  0  0  0  0  0
  194.6470  174.4560  141.8630 O   0  0  0  0  0  0  0  0  0  0  0  0
  193.3830  174.8800  141.4080 C   0  0  1  0  0  3  0  0  0  0  0  0
  192.3290  173.8770  141.8310 C   0  0  2  0  0  3  0  0  0  0  0  0
  192.4550  172.4800  143.7360 O   0  0  0  0  0  1  0  0  0  0  0  0
  193.0940  172.8050  142.5400 C   0  0  2  0  0  3  0  0  0  0  0  0
  194.4150  173.4640  142.8320 C   0  0  0  0  0  2  0  0  0  0  0  0
  189.3620  172.7190  139.5930 C   0  0  0  0  0  0  0  0  0  0  0  0
  188.1080  172.6730  139.7230 O   0  0  0  0  0  0  0  0  0  0  0  0
  191.5990  173.3300  140.6420 C   0  0  0  0  0  0  0  0  0  0  0  0
  192.2560  172.9590  139.6310 O   0  0  0  0  0  0  0  0  0  0  0  0
  189.5140  173.7130  141.7670 O   0  0  0  0  0  1  0  0  0  0  0  0
  190.1600  173.2500  140.6680 N   0  0  0  0  0  0  0  0  0  0  0  0
  189.8030  170.4080  136.7510 N   0  0  0  0  0  2  0  0  0  0  0  0
  189.6060  171.5580  135.9460 C   0  0  0  0  0  0  0  0  0  0  0  0
  189.9780  172.1860  138.3350 C   0  0  1  0  0  3  0  0  0  0  0  0
  189.6880  170.6990  138.1660 C   0  0  0  0  0  2  0  0  0  0  0  0
  190.0410  171.5800  134.7310 N   0  0  0  0  0  2  0  0  0  0  0  0
  189.3680  173.0690  136.8550 S   0  0  0  0  0  0  0  0  0  0  0  0
  187.2450  176.8880  144.8140 O   0  0  0  0  0  0  0  0  0  0  0  0
  185.2380  176.7940  146.1520 C   0  0  0  0  0  1  0  0  0  0  0  0
  186.2160  177.6820  145.4000 C   0  0  2  0  0  3  0  0  0  0  0  0
  184.3190  178.7510  144.4840 O   0  0  0  0  0  0  0  0  0  0  0  0
  185.4960  178.4530  144.3410 C   0  0  0  0  0  0  0  0  0  0  0  0
  186.2390  178.8920  143.1200 C   0  0  0  0  0  2  0  0  0  0  0  0
  185.7850  178.1190  141.8870 C   0  0  0  0  0  2  0  0  0  0  0  0
  187.6270  176.7460  141.4440 C   0  0  0  0  0  1  0  0  0  0  0  0
  186.8950  177.9090  140.9710 N   0  0  0  0  0  0  0  0  0  0  0  0
  186.3150  177.5400  139.6940 C   0  0  0  0  0  1  0  0  0  0  0  0
  2  8  1  0  0  0  0
  4  6  1  0  0  0  0
  4  5  2  0  0  0  0
  5  7  1  0  0  0  0
  6 10  2  0  0  0  0
  7 11  2  0  0  0  0
  8  1  1  0  0  0  0
  8  3  2  0  0  0  0
  9  2  2  0  0  0  0
  9  6  1  0  0  0  0
 10  3  1  0  0  0  0
 10 11  1  0  0  0  0
 12  9  1  0  0  0  0
 13 12  1  0  0  0  0
 14 19  1  0  0  0  0
 15 16  1  0  0  0  0
 15 14  1  0  0  0  0
 15 13  1  1  0  0  0
 16 22  1  6  0  0  0
 16 18  1  0  0  0  0
 18 19  1  0  0  0  0
 18 17  1  1  0  0  0
 20 21  2  0  0  0  0
 20 25  1  0  0  0  0
 22 25  1  0  0  0  0
 23 22  2  0  0  0  0
 25 24  1  0  0  0  0
 26 29  1  0  0  0  0
 27 26  1  0  0  0  0
 27 31  1  0  0  0  0
 28 20  1  1  0  0  0
 29 28  1  0  0  0  0
 30 27  2  0  0  0  0
 31 28  1  0  0  0  0
 32  5  1  0  0  0  0
 32 34  1  0  0  0  0
 34 33  1  6  0  0  0
 36 35  2  0  0  0  0
 36 34  1  0  0  0  0
 37 36  1  0  0  0  0
 38 37  1  0  0  0  0
 40 39  1  0  0  0  0
 40 38  1  0  0  0  0
 41 40  1  0  0  0  0
M  END
>  <MODEL>
8

>  <REMARK>
 VINA RESULT:      -6.3      2.854      6.655
  Name = 
  11 active torsions:
  status: ('A' for Active; 'I' for Inactive)
    1  A    between atoms: C_4  and  N_9
    2  A    between atoms: C_4  and  C_18
    3  A    between atoms: C_6  and  C_25
    4  A    between atoms: C_7  and  N_16
    5  A    between atoms: C_7  and  C_29
    6  A    between atoms: N_9  and  C_30
    7  A    between atoms: C_13  and  C_29
    8  A    between atoms: C_13  and  C_39
    9  A    between atoms: C_17  and  O_33
   10  A    between atoms: C_19  and  C_34
   11  A    between atoms: O_33  and  C_39
                            x       y       z     vdW  Elec       q    Type
                         _______ _______ _______ _____ _____    ______ ____

>  <TORSDO>
F 11

$$$$
=
 OpenBabel11042419003D

 41 44  0  0  1  0  0  0  0  0999 V2000
  191.4810  176.6080  147.7310 O   0  0  0  0  0  1  0  0  0  0  0  0
  193.0550  175.2460  146.5150 C   0  0  0  0  0  3  0  0  0  0  0  0
  190.6820  174.8030  146.3490 C   0  0  0  0  0  3  0  0  0  0  0  0
  192.4860  172.4170  144.2300 N   0  0  0  0  0  0  0  0  0  0  0  0
  191.4710  171.6780  143.7010 C   0  0  0  0  0  0  0  0  0  0  0  0
  192.2670  173.4350  145.1040 C   0  0  0  0  0  0  0  0  0  0  0  0
  190.1510  171.9580  144.0570 C   0  0  0  0  0  3  0  0  0  0  0  0
  191.7380  175.5530  146.8660 C   0  0  0  0  0  0  0  0  0  0  0  0
  193.3410  174.1880  145.6440 C   0  0  0  0  0  0  0  0  0  0  0  0
  190.9390  173.7490  145.4720 C   0  0  0  0  0  0  0  0  0  0  0  0
  189.8860  173.0000  144.9460 C   0  0  0  0  0  3  0  0  0  0  0  0
  194.7190  173.9270  145.3390 N   0  0  0  0  0  2  0  0  0  0  0  0
  195.4170  174.3960  144.1520 C   0  0  0  0  0  2  0  0  0  0  0  0
  195.8880  176.6430  143.4710 O   0  0  0  0  0  0  0  0  0  0  0  0
  194.8450  175.7270  143.7060 C   0  0  1  0  0  3  0  0  0  0  0  0
  194.0470  175.5280  142.4340 C   0  0  2  0  0  3  0  0  0  0  0  0
  194.8920  175.7670  140.2370 O   0  0  0  0  0  1  0  0  0  0  0  0
  194.6910  176.4420  141.4410 C   0  0  2  0  0  3  0  0  0  0  0  0
  196.0190  176.7550  142.0760 C   0  0  0  0  0  2  0  0  0  0  0  0
  190.1710  175.3520  142.1180 C   0  0  0  0  0  0  0  0  0  0  0  0
  189.3570  174.6100  141.5030 O   0  0  0  0  0  0  0  0  0  0  0  0
  192.6050  175.8790  142.6420 C   0  0  0  0  0  0  0  0  0  0  0  0
  192.3080  176.8570  143.3820 O   0  0  0  0  0  0  0  0  0  0  0  0
  191.9700  174.0200  141.2640 O   0  0  0  0  0  1  0  0  0  0  0  0
  191.5830  175.0880  142.0060 N   0  0  0  0  0  0  0  0  0  0  0  0
  188.2730  178.4530  142.7410 N   0  0  0  0  0  2  0  0  0  0  0  0
  187.6040  177.6970  143.7350 C   0  0  0  0  0  0  0  0  0  0  0  0
  189.6390  176.5030  142.9160 C   0  0  1  0  0  3  0  0  0  0  0  0
  189.2470  177.6670  142.0120 C   0  0  0  0  0  2  0  0  0  0  0  0
  187.0080  178.2940  144.7120 N   0  0  0  0  0  2  0  0  0  0  0  0
  188.1820  176.0230  143.9100 S   0  0  0  0  0  0  0  0  0  0  0  0
  191.7390  170.6460  142.8000 O   0  0  0  0  0  0  0  0  0  0  0  0
  190.8200  168.7170  141.6760 C   0  0  0  0  0  1  0  0  0  0  0  0
  190.7950  170.2310  141.8170 C   0  0  2  0  0  3  0  0  0  0  0  0
  192.2320  170.8060  140.0320 O   0  0  0  0  0  0  0  0  0  0  0  0
  191.1060  170.8710  140.5020 C   0  0  0  0  0  0  0  0  0  0  0  0
  190.0160  171.5610  139.7470 C   0  0  0  0  0  2  0  0  0  0  0  0
  190.5740  172.3710  138.5830 C   0  0  0  0  0  2  0  0  0  0  0  0
  189.3160  172.5410  136.6170 C   0  0  0  0  0  1  0  0  0  0  0  0
  189.5190  173.1310  137.9290 N   0  0  0  0  0  0  0  0  0  0  0  0
  188.3040  172.8880  138.6840 C   0  0  0  0  0  1  0  0  0  0  0  0
  2  8  1  0  0  0  0
  3  8  2  0  0  0  0
  4  6  1  0  0  0  0
  5  7  1  0  0  0  0
  5  4  2  0  0  0  0
  6 10  2  0  0  0  0
  6  9  1  0  0  0  0
  7 11  2  0  0  0  0
  8  1  1  0  0  0  0
  9  2  2  0  0  0  0
 10  3  1  0  0  0  0
 11 10  1  0  0  0  0
 12  9  1  0  0  0  0
 13 12  1  0  0  0  0
 14 15  1  0  0  0  0
 15 13  1  6  0  0  0
 16 22  1  1  0  0  0
 16 15  1  0  0  0  0
 18 17  1  6  0  0  0
 18 19  1  0  0  0  0
 18 16  1  0  0  0  0
 19 14  1  0  0  0  0
 21 20  2  0  0  0  0
 22 23  2  0  0  0  0
 24 25  1  0  0  0  0
 25 20  1  0  0  0  0
 25 22  1  0  0  0  0
 26 27  1  0  0  0  0
 27 31  1  0  0  0  0
 27 30  2  0  0  0  0
 28 20  1  6  0  0  0
 28 31  1  0  0  0  0
 29 26  1  0  0  0  0
 29 28  1  0  0  0  0
 32  5  1  0  0  0  0
 34 33  1  6  0  0  0
 34 32  1  0  0  0  0
 35 36  2  0  0  0  0
 36 34  1  0  0  0  0
 37 36  1  0  0  0  0
 38 37  1  0  0  0  0
 39 40  1  0  0  0  0
 40 38  1  0  0  0  0
 40 41  1  0  0  0  0
M  END
>  <MODEL>
9

>  <REMARK>
 VINA RESULT:      -6.3      2.766      7.583
  Name = 
  11 active torsions:
  status: ('A' for Active; 'I' for Inactive)
    1  A    between atoms: C_4  and  N_9
    2  A    between atoms: C_4  and  C_18
    3  A    between atoms: C_6  and  C_25
    4  A    between atoms: C_7  and  N_16
    5  A    between atoms: C_7  and  C_29
    6  A    between atoms: N_9  and  C_30
    7  A    between atoms: C_13  and  C_29
    8  A    between atoms: C_13  and  C_39
    9  A    between atoms: C_17  and  O_33
   10  A    between atoms: C_19  and  C_34
   11  A    between atoms: O_33  and  C_39
                            x       y       z     vdW  Elec       q    Type
                         _______ _______ _______ _____ _____    ______ ____

>  <TORSDO>
F 11

$$$$
