=
 OpenBabel11042415503D

 34 36  0  0  1  0  0  0  0  0999 V2000
  190.0540  177.5090  146.6610 C   0  0  0  0  0  1  0  0  0  0  0  0
  189.7590  175.1460  144.2230 N   0  0  0  0  0  0  0  0  0  0  0  0
  190.6190  176.1500  144.7210 N   0  0  0  0  0  0  0  0  0  0  0  0
  188.5590  177.1160  144.7510 C   0  0  0  0  0  0  0  0  0  0  0  0
  189.9520  177.3680  145.1490 C   0  0  1  0  0  3  0  0  0  0  0  0
  187.5720  178.0040  144.8970 C   0  0  0  0  0  3  0  0  0  0  0  0
  188.4250  175.7480  144.1850 C   0  0  0  0  0  2  0  0  0  0  0  0
  192.5750  176.1060  143.2130 C   0  0  0  0  0  3  0  0  0  0  0  0
  194.2980  175.9520  145.3970 C   0  0  0  0  0  3  0  0  0  0  0  0
  193.9550  176.0440  143.0000 C   0  0  0  0  0  0  0  0  0  0  0  0
  194.8380  175.9670  144.1010 C   0  0  0  0  0  0  0  0  0  0  0  0
  194.4280  176.0600  141.6930 O   0  0  0  0  0  1  0  0  0  0  0  0
  192.0430  176.0940  144.5090 C   0  0  0  0  0  0  0  0  0  0  0  0
  192.9190  176.0140  145.5990 C   0  0  0  0  0  3  0  0  0  0  0  0
  197.0690  174.6690  144.3080 C   0  0  0  0  0  1  0  0  0  0  0  0
  196.3110  175.8980  143.9330 C   0  0  0  0  0  0  0  0  0  0  0  0
  196.9550  176.8760  143.4690 O   0  0  0  0  0  0  0  0  0  0  0  0
  186.1760  177.7860  144.4600 C   0  0  0  0  0  0  0  0  0  0  0  0
  185.2150  177.3750  145.2990 C   0  0  0  0  0  3  0  0  0  0  0  0
  185.8610  177.9430  143.0290 C   0  0  0  0  0  0  0  0  0  0  0  0
  184.7860  177.4900  142.5520 O   0  0  0  0  0  1  0  0  0  0  0  0
  186.7500  178.6010  142.1870 O   0  0  0  0  0  0  0  0  0  0  0  0
  185.1390  178.3220  147.5640 C   0  0  0  0  0  1  0  0  0  0  0  0
  185.4340  177.0820  146.7470 C   0  0  0  0  0  2  0  0  0  0  0  0
  189.6990  174.0810  145.2190 C   0  0  0  0  0  2  0  0  0  0  0  0
  190.2460  172.7850  144.6450 C   0  0  0  0  0  2  0  0  0  0  0  0
  190.5010  172.9320  143.1560 C   0  0  0  0  0  2  0  0  0  0  0  0
  188.2150  172.6370  142.0560 C   0  0  0  0  0  2  0  0  0  0  0  0
  190.1750  171.3790  141.2410 O   0  0  0  0  0  0  0  0  0  0  0  0
  190.7110  172.3670  140.3920 C   0  0  0  0  0  2  0  0  0  0  0  0
  188.3210  172.9610  139.7380 C   0  0  0  0  0  2  0  0  0  0  0  0
  188.3170  173.6570  141.0190 N   0  0  0  0  0  2  0  0  0  0  0  0
  189.7490  172.7050  139.2540 C   0  0  0  0  0  2  0  0  0  0  0  0
  189.5770  172.0020  142.3680 C   0  0  1  0  0  3  0  0  0  0  0  0
  2  3  1  0  0  0  0
  2 25  1  0  0  0  0
  3  5  1  0  0  0  0
  4  6  2  0  0  0  0
  4  5  1  0  0  0  0
  5  1  1  1  0  0  0
  7  2  1  0  0  0  0
  7  4  1  0  0  0  0
  8 13  1  0  0  0  0
  9 14  1  0  0  0  0
 10  8  2  0  0  0  0
 10 11  1  0  0  0  0
 11  9  2  0  0  0  0
 12 10  1  0  0  0  0
 13  3  1  0  0  0  0
 13 14  2  0  0  0  0
 16 11  1  0  0  0  0
 16 15  1  0  0  0  0
 17 16  2  0  0  0  0
 18  6  1  0  0  0  0
 18 19  2  0  0  0  0
 19 24  1  0  0  0  0
 20 18  1  0  0  0  0
 21 20  1  0  0  0  0
 22 20  2  0  0  0  0
 24 23  1  0  0  0  0
 26 25  1  0  0  0  0
 27 26  1  0  0  0  0
 28 34  1  0  0  0  0
 29 34  1  0  0  0  0
 30 29  1  0  0  0  0
 31 32  1  0  0  0  0
 32 28  1  0  0  0  0
 33 31  1  0  0  0  0
 33 30  1  0  0  0  0
 34 27  1  6  0  0  0
M  END
>  <MODEL>
1

>  <REMARK>
 VINA RESULT:      -7.1      0.000      0.000
  Name = 
  9 active torsions:
  status: ('A' for Active; 'I' for Inactive)
    1  A    between atoms: C_2  and  C_8
    2  A    between atoms: C_2  and  C_18
    3  A    between atoms: N_3  and  C_13
    4  A    between atoms: N_9  and  C_32
    5  A    between atoms: C_13  and  C_19
    6  A    between atoms: C_19  and  C_31
    7  A    between atoms: C_23  and  C_30
    8  A    between atoms: C_26  and  C_28
    9  A    between atoms: C_29  and  C_31
                            x       y       z     vdW  Elec       q    Type
                         _______ _______ _______ _____ _____    ______ ____

>  <TORSDO>
F 9

$$$$
=
 OpenBabel11042415503D

 34 36  0  0  1  0  0  0  0  0999 V2000
  189.9700  177.5510  146.7710 C   0  0  0  0  0  1  0  0  0  0  0  0
  189.6310  175.2620  144.2690 N   0  0  0  0  0  0  0  0  0  0  0  0
  190.4980  176.2540  144.7790 N   0  0  0  0  0  0  0  0  0  0  0  0
  188.4370  177.2100  144.8810 C   0  0  0  0  0  0  0  0  0  0  0  0
  189.8370  177.4550  145.2580 C   0  0  1  0  0  3  0  0  0  0  0  0
  187.4490  178.0900  145.0750 C   0  0  0  0  0  3  0  0  0  0  0  0
  188.2950  175.8600  144.2770 C   0  0  0  0  0  2  0  0  0  0  0  0
  192.4190  176.1600  143.2280 C   0  0  0  0  0  3  0  0  0  0  0  0
  194.1950  176.1510  145.3750 C   0  0  0  0  0  3  0  0  0  0  0  0
  193.7940  176.1090  142.9860 C   0  0  0  0  0  0  0  0  0  0  0  0
  194.7050  176.1050  144.0680 C   0  0  0  0  0  0  0  0  0  0  0  0
  194.2360  176.0630  141.6690 O   0  0  0  0  0  1  0  0  0  0  0  0
  191.9180  176.2090  144.5360 C   0  0  0  0  0  0  0  0  0  0  0  0
  192.8200  176.2020  145.6060 C   0  0  0  0  0  3  0  0  0  0  0  0
  196.9430  174.8090  144.1670 C   0  0  0  0  0  1  0  0  0  0  0  0
  196.1740  176.0520  143.8670 C   0  0  0  0  0  0  0  0  0  0  0  0
  196.8050  177.0540  143.4390 O   0  0  0  0  0  0  0  0  0  0  0  0
  186.0460  177.8790  144.6600 C   0  0  0  0  0  0  0  0  0  0  0  0
  185.6250  178.0970  143.4070 C   0  0  0  0  0  3  0  0  0  0  0  0
  185.0630  177.5020  145.6930 C   0  0  0  0  0  0  0  0  0  0  0  0
  185.2070  176.4440  146.3630 O   0  0  0  0  0  1  0  0  0  0  0  0
  183.9650  178.3160  145.9410 O   0  0  0  0  0  0  0  0  0  0  0  0
  186.4980  177.5670  141.1730 C   0  0  0  0  0  1  0  0  0  0  0  0
  186.5030  178.5790  142.2990 C   0  0  0  0  0  2  0  0  0  0  0  0
  189.5950  174.1670  145.2330 C   0  0  0  0  0  2  0  0  0  0  0  0
  189.7160  172.8290  144.5230 C   0  0  0  0  0  2  0  0  0  0  0  0
  190.2970  173.0170  143.1340 C   0  0  0  0  0  2  0  0  0  0  0  0
  188.1420  173.0460  141.7640 C   0  0  0  0  0  2  0  0  0  0  0  0
  190.1350  171.8430  140.9480 O   0  0  0  0  0  0  0  0  0  0  0  0
  190.7990  172.9330  140.3520 C   0  0  0  0  0  2  0  0  0  0  0  0
  188.5220  173.7620  139.5660 C   0  0  0  0  0  2  0  0  0  0  0  0
  188.3960  174.2230  140.9430 N   0  0  0  0  0  2  0  0  0  0  0  0
  189.9850  173.5160  139.1980 C   0  0  0  0  0  2  0  0  0  0  0  0
  189.4350  172.2910  142.0990 C   0  0  1  0  0  3  0  0  0  0  0  0
  2  7  1  0  0  0  0
  2  3  1  0  0  0  0
  2 25  1  0  0  0  0
  3  5  1  0  0  0  0
  4  6  2  0  0  0  0
  4  5  1  0  0  0  0
  5  1  1  1  0  0  0
  7  4  1  0  0  0  0
  8 13  1  0  0  0  0
  9 14  1  0  0  0  0
 10  8  2  0  0  0  0
 10 11  1  0  0  0  0
 11  9  2  0  0  0  0
 12 10  1  0  0  0  0
 13  3  1  0  0  0  0
 13 14  2  0  0  0  0
 16 11  1  0  0  0  0
 16 15  1  0  0  0  0
 17 16  2  0  0  0  0
 18  6  1  0  0  0  0
 18 20  1  0  0  0  0
 19 18  2  0  0  0  0
 20 22  2  0  0  0  0
 20 21  1  0  0  0  0
 23 24  1  0  0  0  0
 24 19  1  0  0  0  0
 26 25  1  0  0  0  0
 27 26  1  0  0  0  0
 28 34  1  0  0  0  0
 29 34  1  0  0  0  0
 30 29  1  0  0  0  0
 31 32  1  0  0  0  0
 32 28  1  0  0  0  0
 33 31  1  0  0  0  0
 33 30  1  0  0  0  0
 34 27  1  6  0  0  0
M  END
>  <MODEL>
2

>  <REMARK>
 VINA RESULT:      -7.1      1.147      1.881
  Name = 
  9 active torsions:
  status: ('A' for Active; 'I' for Inactive)
    1  A    between atoms: C_2  and  C_8
    2  A    between atoms: C_2  and  C_18
    3  A    between atoms: N_3  and  C_13
    4  A    between atoms: N_9  and  C_32
    5  A    between atoms: C_13  and  C_19
    6  A    between atoms: C_19  and  C_31
    7  A    between atoms: C_23  and  C_30
    8  A    between atoms: C_26  and  C_28
    9  A    between atoms: C_29  and  C_31
                            x       y       z     vdW  Elec       q    Type
                         _______ _______ _______ _____ _____    ______ ____

>  <TORSDO>
F 9

$$$$
=
 OpenBabel11042415503D

 34 36  0  0  1  0  0  0  0  0999 V2000
  191.1520  172.8240  142.8030 C   0  0  0  0  0  1  0  0  0  0  0  0
  190.7630  175.2750  145.1390 N   0  0  0  0  0  0  0  0  0  0  0  0
  190.5180  174.9610  143.7840 N   0  0  0  0  0  0  0  0  0  0  0  0
  192.6450  174.2400  144.1460 C   0  0  0  0  0  0  0  0  0  0  0  0
  191.5940  174.2450  143.1180 C   0  0  1  0  0  3  0  0  0  0  0  0
  193.8660  173.7290  143.9590 C   0  0  0  0  0  3  0  0  0  0  0  0
  192.1450  174.8650  145.3980 C   0  0  0  0  0  2  0  0  0  0  0  0
  189.5710  176.9010  142.5830 C   0  0  0  0  0  3  0  0  0  0  0  0
  187.2180  175.4910  142.0930 C   0  0  0  0  0  3  0  0  0  0  0  0
  188.5330  177.5140  141.8760 C   0  0  0  0  0  0  0  0  0  0  0  0
  187.3350  176.8080  141.6210 C   0  0  0  0  0  0  0  0  0  0  0  0
  188.7090  178.8210  141.4370 O   0  0  0  0  0  1  0  0  0  0  0  0
  189.4470  175.5850  143.0480 C   0  0  0  0  0  0  0  0  0  0  0  0
  188.2590  174.8880  142.7980 C   0  0  0  0  0  3  0  0  0  0  0  0
  185.0720  178.0660  141.5980 C   0  0  0  0  0  1  0  0  0  0  0  0
  186.2020  177.4120  140.8760 C   0  0  0  0  0  0  0  0  0  0  0  0
  186.1690  177.3860  139.6170 O   0  0  0  0  0  0  0  0  0  0  0  0
  194.9500  173.7560  144.9640 C   0  0  0  0  0  0  0  0  0  0  0  0
  195.6870  174.8510  145.1970 C   0  0  0  0  0  3  0  0  0  0  0  0
  195.2800  172.5030  145.6660 C   0  0  0  0  0  0  0  0  0  0  0  0
  194.4000  171.6210  145.8600 O   0  0  0  0  0  0  0  0  0  0  0  0
  196.5740  172.2790  146.1220 O   0  0  0  0  0  1  0  0  0  0  0  0
  196.6490  176.3310  143.4910 C   0  0  0  0  0  1  0  0  0  0  0  0
  195.5160  176.1480  144.4780 C   0  0  0  0  0  2  0  0  0  0  0  0
  189.9190  174.4080  145.9540 C   0  0  0  0  0  2  0  0  0  0  0  0
  189.2290  175.2100  147.0440 C   0  0  0  0  0  2  0  0  0  0  0  0
  188.6270  176.4790  146.4680 C   0  0  0  0  0  2  0  0  0  0  0  0
  186.4240  176.9300  147.6790 C   0  0  0  0  0  2  0  0  0  0  0  0
  186.5040  176.8130  145.2160 O   0  0  0  0  0  0  0  0  0  0  0  0
  186.9020  178.1400  144.9630 C   0  0  0  0  0  2  0  0  0  0  0  0
  185.3690  178.8580  146.8670 C   0  0  0  0  0  2  0  0  0  0  0  0
  186.4630  178.3870  147.7080 N   0  0  0  0  0  2  0  0  0  0  0  0
  185.8490  179.1370  145.4420 C   0  0  0  0  0  2  0  0  0  0  0  0
  187.1020  176.3650  146.4240 C   0  0  1  0  0  3  0  0  0  0  0  0
  2  7  1  0  0  0  0
  2 25  1  0  0  0  0
  3  2  1  0  0  0  0
  4  7  1  0  0  0  0
  5  1  1  1  0  0  0
  5  3  1  0  0  0  0
  5  4  1  0  0  0  0
  6  4  2  0  0  0  0
  6 18  1  0  0  0  0
  8 13  1  0  0  0  0
  9 14  1  0  0  0  0
 10  8  2  0  0  0  0
 11 10  1  0  0  0  0
 11  9  2  0  0  0  0
 12 10  1  0  0  0  0
 13  3  1  0  0  0  0
 14 13  2  0  0  0  0
 16 15  1  0  0  0  0
 16 11  1  0  0  0  0
 17 16  2  0  0  0  0
 18 19  2  0  0  0  0
 18 20  1  0  0  0  0
 20 21  2  0  0  0  0
 20 22  1  0  0  0  0
 23 24  1  0  0  0  0
 24 19  1  0  0  0  0
 25 26  1  0  0  0  0
 27 26  1  0  0  0  0
 28 32  1  0  0  0  0
 29 34  1  0  0  0  0
 30 29  1  0  0  0  0
 30 33  1  0  0  0  0
 31 32  1  0  0  0  0
 33 31  1  0  0  0  0
 34 27  1  6  0  0  0
 34 28  1  0  0  0  0
M  END
>  <MODEL>
3

>  <REMARK>
 VINA RESULT:      -7.0      2.583      8.085
  Name = 
  9 active torsions:
  status: ('A' for Active; 'I' for Inactive)
    1  A    between atoms: C_2  and  C_8
    2  A    between atoms: C_2  and  C_18
    3  A    between atoms: N_3  and  C_13
    4  A    between atoms: N_9  and  C_32
    5  A    between atoms: C_13  and  C_19
    6  A    between atoms: C_19  and  C_31
    7  A    between atoms: C_23  and  C_30
    8  A    between atoms: C_26  and  C_28
    9  A    between atoms: C_29  and  C_31
                            x       y       z     vdW  Elec       q    Type
                         _______ _______ _______ _____ _____    ______ ____

>  <TORSDO>
F 9

$$$$
=
 OpenBabel11042415503D

 34 36  0  0  1  0  0  0  0  0999 V2000
  188.9260  172.1810  143.0950 C   0  0  0  0  0  1  0  0  0  0  0  0
  188.9520  175.4650  142.1840 N   0  0  0  0  0  0  0  0  0  0  0  0
  189.3260  174.1720  141.7530 N   0  0  0  0  0  0  0  0  0  0  0  0
  189.9710  174.2410  143.9330 C   0  0  0  0  0  0  0  0  0  0  0  0
  189.8860  173.3210  142.7890 C   0  0  1  0  0  3  0  0  0  0  0  0
  190.4900  173.9070  145.1190 C   0  0  0  0  0  3  0  0  0  0  0  0
  189.3930  175.5630  143.5770 C   0  0  0  0  0  2  0  0  0  0  0  0
  190.6470  173.3330  139.8410 C   0  0  0  0  0  3  0  0  0  0  0  0
  188.4970  173.7670  138.1230 C   0  0  0  0  0  3  0  0  0  0  0  0
  190.7760  173.0280  138.4830 C   0  0  0  0  0  0  0  0  0  0  0  0
  189.6920  173.2440  137.6020 C   0  0  0  0  0  0  0  0  0  0  0  0
  191.9850  172.5140  138.0290 O   0  0  0  0  0  1  0  0  0  0  0  0
  189.4500  173.8530  140.3540 C   0  0  0  0  0  0  0  0  0  0  0  0
  188.3780  174.0690  139.4790 C   0  0  0  0  0  3  0  0  0  0  0  0
  189.4550  171.5740  135.6380 C   0  0  0  0  0  1  0  0  0  0  0  0
  189.7750  172.9380  136.1530 C   0  0  0  0  0  0  0  0  0  0  0  0
  190.1160  173.8220  135.3240 O   0  0  0  0  0  0  0  0  0  0  0  0
  190.6260  174.8310  146.2650 C   0  0  0  0  0  0  0  0  0  0  0  0
  191.8150  175.2810  146.6890 C   0  0  0  0  0  3  0  0  0  0  0  0
  189.4110  175.1930  147.0170 C   0  0  0  0  0  0  0  0  0  0  0  0
  188.8190  174.3410  147.7340 O   0  0  0  0  0  1  0  0  0  0  0  0
  188.9040  176.4840  146.9440 O   0  0  0  0  0  0  0  0  0  0  0  0
  193.6220  176.0430  145.2110 C   0  0  0  0  0  1  0  0  0  0  0  0
  193.1230  174.9050  146.0750 C   0  0  0  0  0  2  0  0  0  0  0  0
  187.4940  175.5160  142.2120 C   0  0  0  0  0  2  0  0  0  0  0  0
  187.0010  176.8750  141.7450 C   0  0  0  0  0  2  0  0  0  0  0  0
  185.7900  177.3060  142.5530 C   0  0  0  0  0  2  0  0  0  0  0  0
  185.1520  179.3930  143.8800 C   0  0  0  0  0  2  0  0  0  0  0  0
  186.6940  177.7190  144.8330 O   0  0  0  0  0  0  0  0  0  0  0  0
  185.7320  176.8240  145.3400 C   0  0  0  0  0  2  0  0  0  0  0  0
  184.3420  178.8510  146.0100 C   0  0  0  0  0  2  0  0  0  0  0  0
  183.9920  178.8750  144.5960 N   0  0  0  0  0  2  0  0  0  0  0  0
  184.8780  177.4790  146.4230 C   0  0  0  0  0  2  0  0  0  0  0  0
  186.2060  178.3050  143.6350 C   0  0  1  0  0  3  0  0  0  0  0  0
  2 25  1  0  0  0  0
  2  7  1  0  0  0  0
  3  2  1  0  0  0  0
  3  5  1  0  0  0  0
  4  6  2  0  0  0  0
  5  1  1  1  0  0  0
  5  4  1  0  0  0  0
  6 18  1  0  0  0  0
  7  4  1  0  0  0  0
  8 13  1  0  0  0  0
  9 14  1  0  0  0  0
 10  8  2  0  0  0  0
 11  9  2  0  0  0  0
 11 10  1  0  0  0  0
 12 10  1  0  0  0  0
 13  3  1  0  0  0  0
 14 13  2  0  0  0  0
 15 16  1  0  0  0  0
 16 11  1  0  0  0  0
 17 16  2  0  0  0  0
 18 19  2  0  0  0  0
 18 20  1  0  0  0  0
 20 21  1  0  0  0  0
 22 20  2  0  0  0  0
 23 24  1  0  0  0  0
 24 19  1  0  0  0  0
 26 25  1  0  0  0  0
 26 27  1  0  0  0  0
 28 32  1  0  0  0  0
 29 30  1  0  0  0  0
 30 33  1  0  0  0  0
 31 33  1  0  0  0  0
 32 31  1  0  0  0  0
 34 27  1  6  0  0  0
 34 28  1  0  0  0  0
 34 29  1  0  0  0  0
M  END
>  <MODEL>
4

>  <REMARK>
 VINA RESULT:      -6.9      2.843      7.247
  Name = 
  9 active torsions:
  status: ('A' for Active; 'I' for Inactive)
    1  A    between atoms: C_2  and  C_8
    2  A    between atoms: C_2  and  C_18
    3  A    between atoms: N_3  and  C_13
    4  A    between atoms: N_9  and  C_32
    5  A    between atoms: C_13  and  C_19
    6  A    between atoms: C_19  and  C_31
    7  A    between atoms: C_23  and  C_30
    8  A    between atoms: C_26  and  C_28
    9  A    between atoms: C_29  and  C_31
                            x       y       z     vdW  Elec       q    Type
                         _______ _______ _______ _____ _____    ______ ____

>  <TORSDO>
F 9

$$$$
=
 OpenBabel11042415503D

 34 36  0  0  1  0  0  0  0  0999 V2000
  190.6840  172.6290  142.8910 C   0  0  0  0  0  1  0  0  0  0  0  0
  190.8170  175.3270  144.9690 N   0  0  0  0  0  0  0  0  0  0  0  0
  190.3980  174.9130  143.6850 N   0  0  0  0  0  0  0  0  0  0  0  0
  192.4580  173.9790  143.9260 C   0  0  0  0  0  0  0  0  0  0  0  0
  191.3120  174.0100  143.0060 C   0  0  1  0  0  3  0  0  0  0  0  0
  193.5880  173.3080  143.6840 C   0  0  0  0  0  3  0  0  0  0  0  0
  192.1640  174.7800  145.1430 C   0  0  0  0  0  2  0  0  0  0  0  0
  189.5110  176.8840  142.4890 C   0  0  0  0  0  3  0  0  0  0  0  0
  187.0570  175.6110  142.1410 C   0  0  0  0  0  3  0  0  0  0  0  0
  188.4790  177.5470  141.8190 C   0  0  0  0  0  0  0  0  0  0  0  0
  187.2300  176.9100  141.6360 C   0  0  0  0  0  0  0  0  0  0  0  0
  188.7110  178.8320  141.3440 O   0  0  0  0  0  1  0  0  0  0  0  0
  189.3320  175.5870  142.9880 C   0  0  0  0  0  0  0  0  0  0  0  0
  188.0940  174.9590  142.8090 C   0  0  0  0  0  3  0  0  0  0  0  0
  185.0350  178.2820  141.6950 C   0  0  0  0  0  1  0  0  0  0  0  0
  186.1000  177.5670  140.9320 C   0  0  0  0  0  0  0  0  0  0  0  0
  186.0150  177.5360  139.6760 O   0  0  0  0  0  0  0  0  0  0  0  0
  194.7670  173.3010  144.5760 C   0  0  0  0  0  0  0  0  0  0  0  0
  195.0370  172.2840  145.4060 C   0  0  0  0  0  3  0  0  0  0  0  0
  195.6210  174.5020  144.6100 C   0  0  0  0  0  0  0  0  0  0  0  0
  196.6320  174.5530  145.3610 O   0  0  0  0  0  1  0  0  0  0  0  0
  195.3210  175.5950  143.8060 O   0  0  0  0  0  0  0  0  0  0  0  0
  194.9490  170.0000  146.3040 C   0  0  0  0  0  1  0  0  0  0  0  0
  194.1900  171.0610  145.5360 C   0  0  0  0  0  2  0  0  0  0  0  0
  189.9720  174.6530  145.9490 C   0  0  0  0  0  2  0  0  0  0  0  0
  189.3730  175.6590  146.9160 C   0  0  0  0  0  2  0  0  0  0  0  0
  187.9450  175.9910  146.5190 C   0  0  0  0  0  2  0  0  0  0  0  0
  187.1130  177.9470  145.1030 C   0  0  0  0  0  2  0  0  0  0  0  0
  187.1790  178.1140  147.5630 O   0  0  0  0  0  0  0  0  0  0  0  0
  185.9460  177.4920  147.8410 C   0  0  0  0  0  2  0  0  0  0  0  0
  184.9990  178.6800  145.7960 C   0  0  0  0  0  2  0  0  0  0  0  0
  185.6910  177.6260  145.0650 N   0  0  0  0  0  2  0  0  0  0  0  0
  184.7790  178.2850  147.2570 C   0  0  0  0  0  2  0  0  0  0  0  0
  187.7650  177.5070  146.4210 C   0  0  1  0  0  3  0  0  0  0  0  0
  2  7  1  0  0  0  0
  2 25  1  0  0  0  0
  3  2  1  0  0  0  0
  4  7  1  0  0  0  0
  5  1  1  1  0  0  0
  5  3  1  0  0  0  0
  5  4  1  0  0  0  0
  6  4  2  0  0  0  0
  6 18  1  0  0  0  0
  8 13  1  0  0  0  0
  9 14  1  0  0  0  0
 10  8  2  0  0  0  0
 11 10  1  0  0  0  0
 11  9  2  0  0  0  0
 12 10  1  0  0  0  0
 13  3  1  0  0  0  0
 14 13  2  0  0  0  0
 16 11  1  0  0  0  0
 16 15  1  0  0  0  0
 17 16  2  0  0  0  0
 18 20  1  0  0  0  0
 18 19  2  0  0  0  0
 19 24  1  0  0  0  0
 20 21  1  0  0  0  0
 22 20  2  0  0  0  0
 24 23  1  0  0  0  0
 25 26  1  0  0  0  0
 27 26  1  0  0  0  0
 28 34  1  0  0  0  0
 29 30  1  0  0  0  0
 31 33  1  0  0  0  0
 32 28  1  0  0  0  0
 32 31  1  0  0  0  0
 33 30  1  0  0  0  0
 34 27  1  1  0  0  0
 34 29  1  0  0  0  0
M  END
>  <MODEL>
5

>  <REMARK>
 VINA RESULT:      -6.7      2.548      8.135
  Name = 
  9 active torsions:
  status: ('A' for Active; 'I' for Inactive)
    1  A    between atoms: C_2  and  C_8
    2  A    between atoms: C_2  and  C_18
    3  A    between atoms: N_3  and  C_13
    4  A    between atoms: N_9  and  C_32
    5  A    between atoms: C_13  and  C_19
    6  A    between atoms: C_19  and  C_31
    7  A    between atoms: C_23  and  C_30
    8  A    between atoms: C_26  and  C_28
    9  A    between atoms: C_29  and  C_31
                            x       y       z     vdW  Elec       q    Type
                         _______ _______ _______ _____ _____    ______ ____

>  <TORSDO>
F 9

$$$$
=
 OpenBabel11042415503D

 34 36  0  0  1  0  0  0  0  0999 V2000
  189.8660  172.3080  143.7900 C   0  0  0  0  0  1  0  0  0  0  0  0
  189.8130  175.4380  142.4420 N   0  0  0  0  0  0  0  0  0  0  0  0
  190.0850  174.0850  142.1400 N   0  0  0  0  0  0  0  0  0  0  0  0
  191.0760  174.4150  144.1610 C   0  0  0  0  0  0  0  0  0  0  0  0
  190.7870  173.3560  143.1830 C   0  0  1  0  0  3  0  0  0  0  0  0
  191.7730  174.2190  145.2850 C   0  0  0  0  0  3  0  0  0  0  0  0
  190.4760  175.7010  143.7210 C   0  0  0  0  0  2  0  0  0  0  0  0
  191.0970  173.5150  139.9600 C   0  0  0  0  0  3  0  0  0  0  0  0
  188.6250  172.6630  138.9980 C   0  0  0  0  0  3  0  0  0  0  0  0
  190.9940  173.0300  138.6520 C   0  0  0  0  0  0  0  0  0  0  0  0
  189.7450  172.5950  138.1540 C   0  0  0  0  0  0  0  0  0  0  0  0
  192.1400  172.9890  137.8670 O   0  0  0  0  0  1  0  0  0  0  0  0
  189.9740  173.5770  140.7960 C   0  0  0  0  0  0  0  0  0  0  0  0
  188.7370  173.1490  140.3010 C   0  0  0  0  0  3  0  0  0  0  0  0
  189.7960  170.6270  136.4730 C   0  0  0  0  0  1  0  0  0  0  0  0
  189.5800  172.0720  136.7750 C   0  0  0  0  0  0  0  0  0  0  0  0
  189.2520  172.8360  135.8290 O   0  0  0  0  0  0  0  0  0  0  0  0
  192.1120  175.2810  146.2560 C   0  0  0  0  0  0  0  0  0  0  0  0
  191.3120  175.5980  147.2840 C   0  0  0  0  0  3  0  0  0  0  0  0
  193.3340  176.0720  146.0250 C   0  0  0  0  0  0  0  0  0  0  0  0
  194.4000  175.8060  146.6430 O   0  0  0  0  0  1  0  0  0  0  0  0
  193.3230  177.1230  145.1160 O   0  0  0  0  0  0  0  0  0  0  0  0
  188.8840  175.7600  146.9550 C   0  0  0  0  0  1  0  0  0  0  0  0
  190.0020  174.9390  147.5620 C   0  0  0  0  0  2  0  0  0  0  0  0
  188.3800  175.5560  142.6920 C   0  0  0  0  0  2  0  0  0  0  0  0
  187.8430  176.8520  142.1100 C   0  0  0  0  0  2  0  0  0  0  0  0
  186.4650  177.1540  142.6710 C   0  0  0  0  0  2  0  0  0  0  0  0
  185.3960  179.2920  143.5680 C   0  0  0  0  0  2  0  0  0  0  0  0
  186.7830  177.8700  145.0310 O   0  0  0  0  0  0  0  0  0  0  0  0
  185.7930  176.9430  145.4100 C   0  0  0  0  0  2  0  0  0  0  0  0
  184.1510  178.8880  145.5110 C   0  0  0  0  0  2  0  0  0  0  0  0
  184.1390  178.7420  144.0620 N   0  0  0  0  0  2  0  0  0  0  0  0
  184.6670  177.6190  146.1900 C   0  0  0  0  0  2  0  0  0  0  0  0
  186.5490  178.2880  143.6940 C   0  0  1  0  0  3  0  0  0  0  0  0
  2 25  1  0  0  0  0
  2  7  1  0  0  0  0
  3  2  1  0  0  0  0
  3  5  1  0  0  0  0
  4  6  2  0  0  0  0
  5  1  1  1  0  0  0
  5  4  1  0  0  0  0
  6 18  1  0  0  0  0
  7  4  1  0  0  0  0
  8 13  1  0  0  0  0
  9 14  1  0  0  0  0
 10  8  2  0  0  0  0
 11 10  1  0  0  0  0
 11  9  2  0  0  0  0
 12 10  1  0  0  0  0
 13  3  1  0  0  0  0
 14 13  2  0  0  0  0
 15 16  1  0  0  0  0
 16 11  1  0  0  0  0
 17 16  2  0  0  0  0
 18 19  2  0  0  0  0
 19 24  1  0  0  0  0
 20 18  1  0  0  0  0
 20 21  1  0  0  0  0
 22 20  2  0  0  0  0
 23 24  1  0  0  0  0
 26 27  1  0  0  0  0
 26 25  1  0  0  0  0
 28 34  1  0  0  0  0
 28 32  1  0  0  0  0
 29 30  1  0  0  0  0
 30 33  1  0  0  0  0
 31 33  1  0  0  0  0
 32 31  1  0  0  0  0
 34 27  1  6  0  0  0
 34 29  1  0  0  0  0
M  END
>  <MODEL>
6

>  <REMARK>
 VINA RESULT:      -6.7      2.531      7.155
  Name = 
  9 active torsions:
  status: ('A' for Active; 'I' for Inactive)
    1  A    between atoms: C_2  and  C_8
    2  A    between atoms: C_2  and  C_18
    3  A    between atoms: N_3  and  C_13
    4  A    between atoms: N_9  and  C_32
    5  A    between atoms: C_13  and  C_19
    6  A    between atoms: C_19  and  C_31
    7  A    between atoms: C_23  and  C_30
    8  A    between atoms: C_26  and  C_28
    9  A    between atoms: C_29  and  C_31
                            x       y       z     vdW  Elec       q    Type
                         _______ _______ _______ _____ _____    ______ ____

>  <TORSDO>
F 9

$$$$
=
 OpenBabel11042415503D

 34 36  0  0  1  0  0  0  0  0999 V2000
  191.2700  178.7030  143.8830 C   0  0  0  0  0  1  0  0  0  0  0  0
  190.2980  175.4720  144.3680 N   0  0  0  0  0  0  0  0  0  0  0  0
  191.4030  176.2750  144.0050 N   0  0  0  0  0  0  0  0  0  0  0  0
  189.6620  177.1640  142.8410 C   0  0  0  0  0  0  0  0  0  0  0  0
  191.0850  177.3920  143.1320 C   0  0  1  0  0  3  0  0  0  0  0  0
  188.9410  177.9270  142.0140 C   0  0  0  0  0  3  0  0  0  0  0  0
  189.1630  175.9880  143.6000 C   0  0  0  0  0  2  0  0  0  0  0  0
  193.1670  174.5610  143.7730 C   0  0  0  0  0  3  0  0  0  0  0  0
  194.9940  176.2170  145.0700 C   0  0  0  0  0  3  0  0  0  0  0  0
  194.4770  174.1180  143.9760 C   0  0  0  0  0  0  0  0  0  0  0  0
  195.4120  174.9500  144.6320 C   0  0  0  0  0  0  0  0  0  0  0  0
  194.8290  172.8530  143.5200 O   0  0  0  0  0  1  0  0  0  0  0  0
  192.7570  175.8280  144.2110 C   0  0  0  0  0  0  0  0  0  0  0  0
  193.6840  176.6490  144.8630 C   0  0  0  0  0  3  0  0  0  0  0  0
  197.1750  173.7170  146.0720 C   0  0  0  0  0  1  0  0  0  0  0  0
  196.8150  174.5300  144.8740 C   0  0  0  0  0  0  0  0  0  0  0  0
  197.7330  174.8500  144.0730 O   0  0  0  0  0  0  0  0  0  0  0  0
  187.5230  177.6850  141.6730 C   0  0  0  0  0  0  0  0  0  0  0  0
  186.5130  178.1770  142.4030 C   0  0  0  0  0  3  0  0  0  0  0  0
  187.2210  176.7940  140.5370 C   0  0  0  0  0  0  0  0  0  0  0  0
  186.4400  177.1630  139.6190 O   0  0  0  0  0  0  0  0  0  0  0  0
  187.8010  175.5340  140.4660 O   0  0  0  0  0  1  0  0  0  0  0  0
  185.4730  179.8780  143.8370 C   0  0  0  0  0  1  0  0  0  0  0  0
  186.6930  179.0060  143.6330 C   0  0  0  0  0  2  0  0  0  0  0  0
  189.9990  175.7400  145.7710 C   0  0  0  0  0  2  0  0  0  0  0  0
  188.5000  175.6900  146.0140 C   0  0  0  0  0  2  0  0  0  0  0  0
  187.9530  177.0880  146.2360 C   0  0  0  0  0  2  0  0  0  0  0  0
  186.8150  178.5060  148.0300 C   0  0  0  0  0  2  0  0  0  0  0  0
  185.8000  176.3900  147.2680 O   0  0  0  0  0  0  0  0  0  0  0  0
  185.1340  176.8840  146.1300 C   0  0  0  0  0  2  0  0  0  0  0  0
  184.5860  178.9750  147.4790 C   0  0  0  0  0  2  0  0  0  0  0  0
  185.9670  179.3320  147.1790 N   0  0  0  0  0  2  0  0  0  0  0  0
  184.0690  177.9110  146.5100 C   0  0  0  0  0  2  0  0  0  0  0  0
  187.0160  177.1010  147.4460 C   0  0  1  0  0  3  0  0  0  0  0  0
  2 25  1  0  0  0  0
  3 13  1  0  0  0  0
  3  2  1  0  0  0  0
  4  5  1  0  0  0  0
  4  7  1  0  0  0  0
  5  1  1  1  0  0  0
  5  3  1  0  0  0  0
  6  4  2  0  0  0  0
  7  2  1  0  0  0  0
  8 10  2  0  0  0  0
  8 13  1  0  0  0  0
 10 11  1  0  0  0  0
 11 16  1  0  0  0  0
 11  9  2  0  0  0  0
 12 10  1  0  0  0  0
 13 14  2  0  0  0  0
 14  9  1  0  0  0  0
 16 15  1  0  0  0  0
 17 16  2  0  0  0  0
 18  6  1  0  0  0  0
 18 19  2  0  0  0  0
 19 24  1  0  0  0  0
 20 18  1  0  0  0  0
 21 20  2  0  0  0  0
 22 20  1  0  0  0  0
 24 23  1  0  0  0  0
 25 26  1  0  0  0  0
 26 27  1  0  0  0  0
 29 34  1  0  0  0  0
 30 33  1  0  0  0  0
 30 29  1  0  0  0  0
 32 31  1  0  0  0  0
 32 28  1  0  0  0  0
 33 31  1  0  0  0  0
 34 27  1  6  0  0  0
 34 28  1  0  0  0  0
M  END
>  <MODEL>
7

>  <REMARK>
 VINA RESULT:      -6.6      2.603      4.853
  Name = 
  9 active torsions:
  status: ('A' for Active; 'I' for Inactive)
    1  A    between atoms: C_2  and  C_8
    2  A    between atoms: C_2  and  C_18
    3  A    between atoms: N_3  and  C_13
    4  A    between atoms: N_9  and  C_32
    5  A    between atoms: C_13  and  C_19
    6  A    between atoms: C_19  and  C_31
    7  A    between atoms: C_23  and  C_30
    8  A    between atoms: C_26  and  C_28
    9  A    between atoms: C_29  and  C_31
                            x       y       z     vdW  Elec       q    Type
                         _______ _______ _______ _____ _____    ______ ____

>  <TORSDO>
F 9

$$$$
=
 OpenBabel11042415503D

 34 36  0  0  1  0  0  0  0  0999 V2000
  187.7780  175.2490  141.5260 C   0  0  0  0  0  1  0  0  0  0  0  0
  189.8280  176.3150  144.0310 N   0  0  0  0  0  0  0  0  0  0  0  0
  189.3640  175.1550  143.3710 N   0  0  0  0  0  0  0  0  0  0  0  0
  187.4920  176.4120  143.6710 C   0  0  0  0  0  0  0  0  0  0  0  0
  187.9500  175.1680  143.0350 C   0  0  1  0  0  3  0  0  0  0  0  0
  186.2190  176.8200  143.6760 C   0  0  0  0  0  3  0  0  0  0  0  0
  188.6390  177.1320  144.2830 C   0  0  0  0  0  2  0  0  0  0  0  0
  190.8420  173.5740  142.1800 C   0  0  0  0  0  3  0  0  0  0  0  0
  190.9600  171.9370  144.4300 C   0  0  0  0  0  3  0  0  0  0  0  0
  191.5950  172.3980  142.1390 C   0  0  0  0  0  0  0  0  0  0  0  0
  191.6630  171.5600  143.2750 C   0  0  0  0  0  0  0  0  0  0  0  0
  192.2670  172.0790  140.9640 O   0  0  0  0  0  1  0  0  0  0  0  0
  190.1450  173.9450  143.3380 C   0  0  0  0  0  0  0  0  0  0  0  0
  190.2110  173.1130  144.4610 C   0  0  0  0  0  3  0  0  0  0  0  0
  193.7680  170.2260  143.9780 C   0  0  0  0  0  1  0  0  0  0  0  0
  192.4480  170.3000  143.2860 C   0  0  0  0  0  0  0  0  0  0  0  0
  192.0170  169.2650  142.7120 O   0  0  0  0  0  0  0  0  0  0  0  0
  185.7320  178.0430  144.3490 C   0  0  0  0  0  0  0  0  0  0  0  0
  185.2590  178.0340  145.6030 C   0  0  0  0  0  3  0  0  0  0  0  0
  185.6890  179.2950  143.5730 C   0  0  0  0  0  0  0  0  0  0  0  0
  185.9270  179.2950  142.3350 O   0  0  0  0  0  0  0  0  0  0  0  0
  185.3790  180.4950  144.2020 O   0  0  0  0  0  1  0  0  0  0  0  0
  186.2810  176.8020  147.4650 C   0  0  0  0  0  1  0  0  0  0  0  0
  185.1560  176.8100  146.4530 C   0  0  0  0  0  2  0  0  0  0  0  0
  190.6470  177.0650  143.0840 C   0  0  0  0  0  2  0  0  0  0  0  0
  191.8850  177.6150  143.7710 C   0  0  0  0  0  2  0  0  0  0  0  0
  192.4660  176.5820  144.7210 C   0  0  0  0  0  2  0  0  0  0  0  0
  194.4930  176.1430  143.2300 C   0  0  0  0  0  2  0  0  0  0  0  0
  193.5710  174.3550  144.6590 O   0  0  0  0  0  0  0  0  0  0  0  0
  194.2350  174.6900  145.8550 C   0  0  0  0  0  2  0  0  0  0  0  0
  196.2830  175.2460  144.4470 C   0  0  0  0  0  2  0  0  0  0  0  0
  195.5570  176.4790  144.1700 N   0  0  0  0  0  2  0  0  0  0  0  0
  195.7500  174.5610  145.7050 C   0  0  0  0  0  2  0  0  0  0  0  0
  193.2720  175.5420  143.9400 C   0  0  1  0  0  3  0  0  0  0  0  0
  2  7  1  0  0  0  0
  3  2  1  0  0  0  0
  4  6  2  0  0  0  0
  4  7  1  0  0  0  0
  5  1  1  6  0  0  0
  5  3  1  0  0  0  0
  5  4  1  0  0  0  0
  6 18  1  0  0  0  0
  8 13  1  0  0  0  0
  9 14  1  0  0  0  0
 10  8  2  0  0  0  0
 10 11  1  0  0  0  0
 11 16  1  0  0  0  0
 11  9  2  0  0  0  0
 12 10  1  0  0  0  0
 13  3  1  0  0  0  0
 13 14  2  0  0  0  0
 16 15  1  0  0  0  0
 17 16  2  0  0  0  0
 18 19  2  0  0  0  0
 19 24  1  0  0  0  0
 20 22  1  0  0  0  0
 20 18  1  0  0  0  0
 21 20  2  0  0  0  0
 24 23  1  0  0  0  0
 25 26  1  0  0  0  0
 25  2  1  0  0  0  0
 26 27  1  0  0  0  0
 28 34  1  0  0  0  0
 28 32  1  0  0  0  0
 29 30  1  0  0  0  0
 31 33  1  0  0  0  0
 32 31  1  0  0  0  0
 33 30  1  0  0  0  0
 34 29  1  0  0  0  0
 34 27  1  1  0  0  0
M  END
>  <MODEL>
8

>  <REMARK>
 VINA RESULT:      -6.6      2.008      4.991
  Name = 
  9 active torsions:
  status: ('A' for Active; 'I' for Inactive)
    1  A    between atoms: C_2  and  C_8
    2  A    between atoms: C_2  and  C_18
    3  A    between atoms: N_3  and  C_13
    4  A    between atoms: N_9  and  C_32
    5  A    between atoms: C_13  and  C_19
    6  A    between atoms: C_19  and  C_31
    7  A    between atoms: C_23  and  C_30
    8  A    between atoms: C_26  and  C_28
    9  A    between atoms: C_29  and  C_31
                            x       y       z     vdW  Elec       q    Type
                         _______ _______ _______ _____ _____    ______ ____

>  <TORSDO>
F 9

$$$$
=
 OpenBabel11042415503D

 34 36  0  0  1  0  0  0  0  0999 V2000
  189.7680  172.9640  144.2980 C   0  0  0  0  0  1  0  0  0  0  0  0
  190.3460  175.8970  142.6620 N   0  0  0  0  0  0  0  0  0  0  0  0
  190.4330  174.4940  142.5250 N   0  0  0  0  0  0  0  0  0  0  0  0
  191.2480  174.9010  144.6090 C   0  0  0  0  0  0  0  0  0  0  0  0
  190.9000  173.7920  143.7080 C   0  0  1  0  0  3  0  0  0  0  0  0
  191.7840  174.7340  145.8210 C   0  0  0  0  0  3  0  0  0  0  0  0
  190.9050  176.2030  143.9800 C   0  0  0  0  0  2  0  0  0  0  0  0
  189.2600  174.0000  140.4070 C   0  0  0  0  0  3  0  0  0  0  0  0
  191.4110  172.4610  139.5340 C   0  0  0  0  0  3  0  0  0  0  0  0
  189.2030  173.3810  139.1550 C   0  0  0  0  0  0  0  0  0  0  0  0
  190.2890  172.5990  138.7020 C   0  0  0  0  0  0  0  0  0  0  0  0
  188.0630  173.5550  138.3790 O   0  0  0  0  0  1  0  0  0  0  0  0
  190.3850  173.8600  141.2320 C   0  0  0  0  0  0  0  0  0  0  0  0
  191.4580  173.0820  140.7820 C   0  0  0  0  0  3  0  0  0  0  0  0
  189.8430  170.5000  137.2530 C   0  0  0  0  0  1  0  0  0  0  0  0
  190.2820  171.9210  137.3820 C   0  0  0  0  0  0  0  0  0  0  0  0
  190.6450  172.5280  136.3400 O   0  0  0  0  0  0  0  0  0  0  0  0
  192.1830  175.8380  146.7220 C   0  0  0  0  0  0  0  0  0  0  0  0
  193.4520  176.2540  146.8310 C   0  0  0  0  0  3  0  0  0  0  0  0
  191.1530  176.4340  147.5910 C   0  0  0  0  0  0  0  0  0  0  0  0
  189.9300  176.2010  147.3940 O   0  0  0  0  0  0  0  0  0  0  0  0
  191.5230  177.2620  148.6440 O   0  0  0  0  0  1  0  0  0  0  0  0
  194.9570  176.5540  144.9140 C   0  0  0  0  0  1  0  0  0  0  0  0
  194.5980  175.6600  146.0810 C   0  0  0  0  0  2  0  0  0  0  0  0
  188.9310  176.2480  142.7260 C   0  0  0  0  0  2  0  0  0  0  0  0
  188.6840  177.2620  143.8300 C   0  0  0  0  0  2  0  0  0  0  0  0
  187.3370  177.9340  143.6400 C   0  0  0  0  0  2  0  0  0  0  0  0
  186.3790  176.7930  145.7140 C   0  0  0  0  0  2  0  0  0  0  0  0
  184.9070  177.4420  143.8430 O   0  0  0  0  0  0  0  0  0  0  0  0
  184.7000  178.7860  144.2060 C   0  0  0  0  0  2  0  0  0  0  0  0
  184.6020  178.0140  146.6320 C   0  0  0  0  0  2  0  0  0  0  0  0
  186.0530  177.9730  146.5070 N   0  0  0  0  0  2  0  0  0  0  0  0
  183.9800  178.8960  145.5480 C   0  0  0  0  0  2  0  0  0  0  0  0
  186.2230  177.0530  144.2100 C   0  0  1  0  0  3  0  0  0  0  0  0
  2 25  1  0  0  0  0
  2  7  1  0  0  0  0
  3  2  1  0  0  0  0
  3  5  1  0  0  0  0
  4  6  2  0  0  0  0
  5  1  1  1  0  0  0
  5  4  1  0  0  0  0
  6 18  1  0  0  0  0
  7  4  1  0  0  0  0
  8 13  1  0  0  0  0
  9 14  1  0  0  0  0
 10  8  2  0  0  0  0
 11 10  1  0  0  0  0
 11  9  2  0  0  0  0
 12 10  1  0  0  0  0
 13  3  1  0  0  0  0
 14 13  2  0  0  0  0
 15 16  1  0  0  0  0
 16 11  1  0  0  0  0
 17 16  2  0  0  0  0
 18 19  2  0  0  0  0
 18 20  1  0  0  0  0
 20 22  1  0  0  0  0
 21 20  2  0  0  0  0
 23 24  1  0  0  0  0
 24 19  1  0  0  0  0
 25 26  1  0  0  0  0
 27 26  1  0  0  0  0
 28 32  1  0  0  0  0
 29 30  1  0  0  0  0
 29 34  1  0  0  0  0
 30 33  1  0  0  0  0
 32 31  1  0  0  0  0
 33 31  1  0  0  0  0
 34 27  1  1  0  0  0
 34 28  1  0  0  0  0
M  END
>  <MODEL>
9

>  <REMARK>
 VINA RESULT:      -6.6      2.620      7.188
  Name = 
  9 active torsions:
  status: ('A' for Active; 'I' for Inactive)
    1  A    between atoms: C_2  and  C_8
    2  A    between atoms: C_2  and  C_18
    3  A    between atoms: N_3  and  C_13
    4  A    between atoms: N_9  and  C_32
    5  A    between atoms: C_13  and  C_19
    6  A    between atoms: C_19  and  C_31
    7  A    between atoms: C_23  and  C_30
    8  A    between atoms: C_26  and  C_28
    9  A    between atoms: C_29  and  C_31
                            x       y       z     vdW  Elec       q    Type
                         _______ _______ _______ _____ _____    ______ ____

>  <TORSDO>
F 9

$$$$
