=
 OpenBabel11042419083D

 57 57  0  0  1  0  0  0  0  0999 V2000
  192.9560  172.9250  141.0480 C   0  0  1  0  0  3  0  0  0  0  0  0
  191.2110  171.6120  140.0810 O   0  0  0  0  0  0  0  0  0  0  0  0
  194.9060  171.8060  139.8350 C   0  0  0  0  0  0  0  0  0  0  0  0
  195.7220  172.7340  140.0880 O   0  0  0  0  0  0  0  0  0  0  0  0
  193.5080  171.9680  140.1310 N   0  0  0  0  0  0  0  0  0  0  0  0
  191.4880  172.4990  141.1500 C   0  0  1  0  0  0  0  0  0  0  0  0
  192.4460  171.1750  139.5460 C   0  0  2  0  0  3  0  0  0  0  0  0
  191.2100  171.8420  142.3550 O   0  0  0  0  0  1  0  0  0  0  0  0
  192.4400  171.3410  138.0230 C   0  0  2  0  0  3  0  0  0  0  0  0
  192.3220  172.6930  137.6920 O   0  0  0  0  0  1  0  0  0  0  0  0
  191.3180  170.5150  137.3810 C   0  0  2  0  0  3  0  0  0  0  0  0
  193.0020  168.5410  137.0490 C   0  0  0  0  0  1  0  0  0  0  0  0
  190.7440  168.2400  137.6190 O   0  0  0  0  0  0  0  0  0  0  0  0
  191.6290  169.0420  137.3610 C   0  0  0  0  0  0  0  0  0  0  0  0
  190.8960  171.0410  135.9970 C   0  0  0  0  0  2  0  0  0  0  0  0
  189.4290  171.4260  135.9130 C   0  0  0  0  0  1  0  0  0  0  0  0
  190.6170  173.7440  141.0310 C   0  0  0  0  0  2  0  0  0  0  0  0
  188.8540  173.4140  141.5490 P   0  0  0  0  0  2  0  0  0  0  0  0
  188.4380  175.2150  141.7470 C   0  0  0  0  0  2  0  0  0  0  0  0
  187.9470  175.7260  140.5420 O   0  0  0  0  0  0  0  0  0  0  0  0
  186.9820  176.6590  140.9190 C   0  0  2  0  0  3  0  0  0  0  0  0
  185.1700  177.4500  139.6020 O   0  0  0  0  0  1  0  0  0  0  0  0
  186.5590  177.4720  139.7110 C   0  0  0  0  0  2  0  0  0  0  0  0
  187.5520  177.5750  141.9830 C   0  0  0  0  0  2  0  0  0  0  0  0
  186.7940  178.7480  142.0410 O   0  0  0  0  0  0  0  0  0  0  0  0
  185.6060  179.9600  144.2860 O   0  0  0  0  0  1  0  0  0  0  0  0
  185.7100  178.5560  143.3370 P   0  0  1  0  0  0  0  0  0  0  0  0
  184.3400  178.2470  142.7730 O   0  0  0  0  0  0  0  0  0  0  0  0
  186.2450  177.1480  144.3590 C   0  0  0  0  0  2  0  0  0  0  0  0
  186.8980  177.6300  145.6490 C   0  0  1  0  0  3  0  0  0  0  0  0
  184.9650  176.6900  146.7330 O   0  0  0  0  0  1  0  0  0  0  0  0
  185.8810  177.7440  146.7780 C   0  0  0  0  0  2  0  0  0  0  0  0
  188.0340  176.6940  146.0380 C   0  0  0  0  0  2  0  0  0  0  0  0
  189.3440  177.3080  145.6810 C   0  0  0  0  0  0  0  0  0  0  0  0
  189.4140  178.0640  144.6710 O   0  0  0  0  0  0  0  0  0  0  0  0
  190.4780  177.0140  146.4380 O   0  0  0  0  0  0  0  0  0  0  0  0
  191.7750  176.9760  148.3420 O   0  0  0  0  0  1  0  0  0  0  0  0
  190.4750  177.1270  147.8540 C   0  0  0  0  0  2  0  0  0  0  0  0
  195.4120  170.5200  139.2670 C   0  0  0  0  0  2  0  0  0  0  0  0
  196.5550  169.5530  137.2710 C   0  0  0  0  0  1  0  0  0  0  0  0
  196.3820  170.7980  138.1290 C   0  0  0  0  0  2  0  0  0  0  0  0
  193.7690  173.0110  142.3560 C   0  0  2  0  0  3  0  0  0  0  0  0
  194.8100  173.9810  142.2900 O   0  0  0  0  0  0  0  0  0  0  0  0
  194.4750  175.9240  141.0930 O   0  0  0  0  0  0  0  0  0  0  0  0
  194.5530  175.3490  142.2150 C   0  0  0  0  0  0  0  0  0  0  0  0
  194.3970  176.0700  143.3980 O   0  0  0  0  0  0  0  0  0  0  0  0
  194.5460  175.4660  144.6730 C   0  0  0  0  0  2  0  0  0  0  0  0
  193.2250  175.5110  145.4230 C   0  0  0  0  0  2  0  0  0  0  0  0
  192.4360  174.2250  145.2150 C   0  0  0  0  0  2  0  0  0  0  0  0
  190.2730  173.7730  145.1670 C   0  0  0  0  0  1  0  0  0  0  0  0
  191.2690  174.4770  144.4890 O   0  0  0  0  0  0  0  0  0  0  0  0
  194.2600  171.6480  142.8460 C   0  0  0  0  0  2  0  0  0  0  0  0
  195.4560  171.7850  143.6660 N   0  0  0  0  0  2  0  0  0  0  0  0
  195.4390  171.5940  145.0830 C   0  0  0  0  0  0  0  0  0  0  0  0
  194.3870  171.2180  145.6700 O   0  0  0  0  0  0  0  0  0  0  0  0
  196.6710  171.8350  145.8810 C   0  0  0  0  0  2  0  0  0  0  0  0
  196.8790  173.3180  146.0740 C   0  0  0  0  0  1  0  0  0  0  0  0
  1  6  1  0  0  0  0
  1 42  1  1  0  0  0
  2  6  1  0  0  0  0
  3  4  2  0  0  0  0
  3  5  1  0  0  0  0
  5  1  1  0  0  0  0
  6  8  1  1  0  0  0
  7  9  1  6  0  0  0
  7  2  1  0  0  0  0
  7  5  1  0  0  0  0
  9 10  1  1  0  0  0
 11 15  1  6  0  0  0
 11  9  1  0  0  0  0
 12 14  1  0  0  0  0
 14 11  1  0  0  0  0
 14 13  2  0  0  0  0
 16 15  1  0  0  0  0
 17  6  1  0  0  0  0
 17 18  1  0  0  0  0
 18 19  1  0  0  0  0
 20 21  1  0  0  0  0
 20 19  1  0  0  0  0
 21 23  1  6  0  0  0
 21 24  1  0  0  0  0
 22 23  1  0  0  0  0
 24 25  1  0  0  0  0
 25 27  1  0  0  0  0
 27 28  2  6  0  0  0
 27 26  1  0  0  0  0
 27 29  1  0  0  0  0
 30 29  1  6  0  0  0
 30 33  1  0  0  0  0
 30 32  1  0  0  0  0
 31 32  1  0  0  0  0
 34 33  1  0  0  0  0
 34 36  1  0  0  0  0
 35 34  2  0  0  0  0
 36 38  1  0  0  0  0
 38 37  1  0  0  0  0
 39  3  1  0  0  0  0
 40 41  1  0  0  0  0
 41 39  1  0  0  0  0
 42 52  1  6  0  0  0
 43 42  1  0  0  0  0
 44 45  2  0  0  0  0
 45 43  1  0  0  0  0
 45 46  1  0  0  0  0
 46 47  1  0  0  0  0
 47 48  1  0  0  0  0
 49 48  1  0  0  0  0
 51 50  1  0  0  0  0
 51 49  1  0  0  0  0
 52 53  1  0  0  0  0
 53 54  1  0  0  0  0
 54 55  2  0  0  0  0
 54 56  1  0  0  0  0
 56 57  1  0  0  0  0
M  END
>  <MODEL>
1

>  <REMARK>
 VINA RESULT:      -4.5      0.000      0.000
  Name = 
  33 active torsions:
  status: ('A' for Active; 'I' for Inactive)
    1  A    between atoms: C_2  and  C_19
    2  A    between atoms: C_2  and  C_38
    3  A    between atoms: C_2  and  O_44
    4  A    between atoms: C_4  and  C_14
    5  A    between atoms: C_5  and  O_10
    6  A    between atoms: C_5  and  C_26
    7  A    between atoms: C_6  and  P_8
    8  A    between atoms: C_6  and  C_27
    9  A    between atoms: P_8  and  O_13
   10  A    between atoms: C_9  and  C_31
   11  A    between atoms: O_10  and  C_17
   12  A    between atoms: O_13  and  C_19
   13  A    between atoms: C_14  and  C_35
   14  A    between atoms: C_14  and  O_36
   15  A    between atoms: O_16  and  C_28
   16  A    between atoms: O_16  and  C_30
   17  A    between atoms: C_17  and  O_36
   18  A    between atoms: C_18  and  C_23
   19  A    between atoms: C_20  and  C_56
   20  A    between atoms: C_23  and  C_43
   21  A    between atoms: C_23  and  C_46
   22  A    between atoms: C_26  and  C_39
   23  A    between atoms: C_27  and  C_42
   24  A    between atoms: C_27  and  C_50
   25  A    between atoms: N_29  and  C_35
   26  A    between atoms: C_30  and  C_42
   27  A    between atoms: C_37  and  C_54
   28  A    between atoms: C_39  and  O_45
   29  A    between atoms: C_40  and  O_44
   30  A    between atoms: C_40  and  P_49
   31  A    between atoms: C_41  and  C_46
   32  A    between atoms: P_49  and  C_54
   33  A    between atoms: C_51  and  C_56
                            x       y       z     vdW  Elec       q    Type
                         _______ _______ _______ _____ _____    ______ ____

>  <TORSDO>
F 33

$$$$
=
 OpenBabel11042419083D

 57 57  0  0  1  0  0  0  0  0999 V2000
  190.0480  175.7140  144.4590 C   0  0  1  0  0  3  0  0  0  0  0  0
  188.9660  177.0490  142.8000 O   0  0  0  0  0  0  0  0  0  0  0  0
  188.2700  175.9630  146.2770 C   0  0  0  0  0  0  0  0  0  0  0  0
  188.6930  174.9900  146.9580 O   0  0  0  0  0  0  0  0  0  0  0  0
  188.8000  176.2150  144.9630 N   0  0  0  0  0  0  0  0  0  0  0  0
  190.2140  176.4720  143.1380 C   0  0  1  0  0  0  0  0  0  0  0  0
  188.1460  177.0210  143.9530 C   0  0  2  0  0  3  0  0  0  0  0  0
  191.1660  177.4950  143.2290 O   0  0  0  0  0  1  0  0  0  0  0  0
  186.7790  176.4260  143.6050 C   0  0  2  0  0  3  0  0  0  0  0  0
  186.8550  175.7300  142.3960 O   0  0  0  0  0  1  0  0  0  0  0  0
  185.7000  177.5160  143.5480 C   0  0  2  0  0  3  0  0  0  0  0  0
  186.1710  178.2650  141.0860 C   0  0  0  0  0  1  0  0  0  0  0  0
  184.0580  177.5940  141.8570 O   0  0  0  0  0  0  0  0  0  0  0  0
  185.2300  177.7850  142.1430 C   0  0  0  0  0  0  0  0  0  0  0  0
  186.1050  178.8060  144.2850 C   0  0  0  0  0  2  0  0  0  0  0  0
  184.9550  179.4750  145.0190 C   0  0  0  0  0  1  0  0  0  0  0  0
  190.6340  175.4760  142.0630 C   0  0  0  0  0  2  0  0  0  0  0  0
  189.4970  173.9970  142.0000 P   0  0  0  0  0  2  0  0  0  0  0  0
  190.6970  172.9510  141.0400 C   0  0  0  0  0  2  0  0  0  0  0  0
  191.3810  173.7410  140.1120 O   0  0  0  0  0  0  0  0  0  0  0  0
  192.6960  173.2810  140.1530 C   0  0  2  0  0  3  0  0  0  0  0  0
  194.9080  174.1060  139.8830 O   0  0  0  0  0  1  0  0  0  0  0  0
  193.6400  174.4510  140.3500 C   0  0  0  0  0  2  0  0  0  0  0  0
  193.0230  172.5660  138.8580 C   0  0  0  0  0  2  0  0  0  0  0  0
  192.9760  171.1840  139.0660 O   0  0  0  0  0  0  0  0  0  0  0  0
  192.4490  169.2270  137.1130 O   0  0  0  0  0  0  0  0  0  0  0  0
  191.8430  170.5710  137.9550 P   0  0  1  0  0  0  0  0  0  0  0  0
  190.6060  170.1500  138.7180 O   0  0  0  0  0  1  0  0  0  0  0  0
  191.3810  171.8870  136.7860 C   0  0  0  0  0  2  0  0  0  0  0  0
  191.5500  171.4180  135.3460 C   0  0  1  0  0  3  0  0  0  0  0  0
  189.1520  171.5370  135.5260 O   0  0  0  0  0  1  0  0  0  0  0  0
  190.2010  171.1640  134.6820 C   0  0  0  0  0  2  0  0  0  0  0  0
  192.3560  172.4400  134.5580 C   0  0  0  0  0  2  0  0  0  0  0  0
  193.7510  172.4980  135.0760 C   0  0  0  0  0  0  0  0  0  0  0  0
  194.2230  173.6100  135.4490 O   0  0  0  0  0  0  0  0  0  0  0  0
  194.5290  171.3410  135.1100 O   0  0  0  0  0  0  0  0  0  0  0  0
  196.8200  171.4770  135.3220 O   0  0  0  0  0  1  0  0  0  0  0  0
  195.6280  171.2110  136.0010 C   0  0  0  0  0  2  0  0  0  0  0  0
  187.2480  176.8810  146.8640 C   0  0  0  0  0  2  0  0  0  0  0  0
  186.9080  178.9530  148.2120 C   0  0  0  0  0  1  0  0  0  0  0  0
  187.9290  178.0930  147.4820 C   0  0  0  0  0  2  0  0  0  0  0  0
  191.1820  175.8320  145.4980 C   0  0  2  0  0  3  0  0  0  0  0  0
  192.2020  176.7410  145.0930 O   0  0  0  0  0  0  0  0  0  0  0  0
  193.5680  176.8730  146.9470 O   0  0  0  0  0  0  0  0  0  0  0  0
  193.4610  176.7670  145.6920 C   0  0  0  0  0  0  0  0  0  0  0  0
  194.5930  176.6880  144.8830 O   0  0  0  0  0  0  0  0  0  0  0  0
  194.7630  175.6570  143.9240 C   0  0  0  0  0  2  0  0  0  0  0  0
  195.9840  175.9440  143.0680 C   0  0  0  0  0  2  0  0  0  0  0  0
  196.8890  174.7220  142.9790 C   0  0  0  0  0  2  0  0  0  0  0  0
  197.8730  173.5000  144.5360 C   0  0  0  0  0  1  0  0  0  0  0  0
  197.8810  174.7730  143.9620 O   0  0  0  0  0  0  0  0  0  0  0  0
  191.7380  174.4750  145.9340 C   0  0  0  0  0  2  0  0  0  0  0  0
  191.7720  173.5400  144.8190 N   0  0  0  0  0  2  0  0  0  0  0  0
  192.7910  172.5450  144.6850 C   0  0  0  0  0  0  0  0  0  0  0  0
  193.6640  172.3930  145.5820 O   0  0  0  0  0  0  0  0  0  0  0  0
  192.8250  171.6750  143.4780 C   0  0  0  0  0  2  0  0  0  0  0  0
  193.8550  170.5860  143.6550 C   0  0  0  0  0  1  0  0  0  0  0  0
  1  5  1  0  0  0  0
  1 42  1  1  0  0  0
  2  6  1  0  0  0  0
  2  7  1  0  0  0  0
  3 39  1  0  0  0  0
  3  4  2  0  0  0  0
  5  3  1  0  0  0  0
  6  8  1  1  0  0  0
  6  1  1  0  0  0  0
  7  9  1  6  0  0  0
  7  5  1  0  0  0  0
  9 10  1  6  0  0  0
 11  9  1  0  0  0  0
 11 15  1  6  0  0  0
 12 14  1  0  0  0  0
 13 14  2  0  0  0  0
 14 11  1  0  0  0  0
 15 16  1  0  0  0  0
 17  6  1  0  0  0  0
 18 17  1  0  0  0  0
 19 18  1  0  0  0  0
 20 21  1  0  0  0  0
 20 19  1  0  0  0  0
 21 24  1  6  0  0  0
 21 23  1  0  0  0  0
 22 23  1  0  0  0  0
 24 25  1  0  0  0  0
 27 26  2  6  0  0  0
 27 28  1  0  0  0  0
 27 25  1  0  0  0  0
 29 27  1  0  0  0  0
 30 33  1  6  0  0  0
 30 29  1  0  0  0  0
 32 30  1  0  0  0  0
 32 31  1  0  0  0  0
 33 34  1  0  0  0  0
 34 36  1  0  0  0  0
 34 35  2  0  0  0  0
 36 38  1  0  0  0  0
 37 38  1  0  0  0  0
 39 41  1  0  0  0  0
 41 40  1  0  0  0  0
 42 52  1  6  0  0  0
 43 42  1  0  0  0  0
 43 45  1  0  0  0  0
 45 44  2  0  0  0  0
 46 45  1  0  0  0  0
 47 46  1  0  0  0  0
 48 47  1  0  0  0  0
 49 48  1  0  0  0  0
 49 51  1  0  0  0  0
 51 50  1  0  0  0  0
 53 52  1  0  0  0  0
 54 53  1  0  0  0  0
 54 55  2  0  0  0  0
 56 57  1  0  0  0  0
 56 54  1  0  0  0  0
M  END
>  <MODEL>
2

>  <REMARK>
 VINA RESULT:      -4.1      2.515      9.462
  Name = 
  33 active torsions:
  status: ('A' for Active; 'I' for Inactive)
    1  A    between atoms: C_2  and  C_19
    2  A    between atoms: C_2  and  C_38
    3  A    between atoms: C_2  and  O_44
    4  A    between atoms: C_4  and  C_14
    5  A    between atoms: C_5  and  O_10
    6  A    between atoms: C_5  and  C_26
    7  A    between atoms: C_6  and  P_8
    8  A    between atoms: C_6  and  C_27
    9  A    between atoms: P_8  and  O_13
   10  A    between atoms: C_9  and  C_31
   11  A    between atoms: O_10  and  C_17
   12  A    between atoms: O_13  and  C_19
   13  A    between atoms: C_14  and  C_35
   14  A    between atoms: C_14  and  O_36
   15  A    between atoms: O_16  and  C_28
   16  A    between atoms: O_16  and  C_30
   17  A    between atoms: C_17  and  O_36
   18  A    between atoms: C_18  and  C_23
   19  A    between atoms: C_20  and  C_56
   20  A    between atoms: C_23  and  C_43
   21  A    between atoms: C_23  and  C_46
   22  A    between atoms: C_26  and  C_39
   23  A    between atoms: C_27  and  C_42
   24  A    between atoms: C_27  and  C_50
   25  A    between atoms: N_29  and  C_35
   26  A    between atoms: C_30  and  C_42
   27  A    between atoms: C_37  and  C_54
   28  A    between atoms: C_39  and  O_45
   29  A    between atoms: C_40  and  O_44
   30  A    between atoms: C_40  and  P_49
   31  A    between atoms: C_41  and  C_46
   32  A    between atoms: P_49  and  C_54
   33  A    between atoms: C_51  and  C_56
                            x       y       z     vdW  Elec       q    Type
                         _______ _______ _______ _____ _____    ______ ____

>  <TORSDO>
F 33

$$$$
=
 OpenBabel11042419083D

 57 57  0  0  1  0  0  0  0  0999 V2000
  192.9920  174.1990  140.5210 C   0  0  1  0  0  3  0  0  0  0  0  0
  191.4870  172.3850  140.1360 O   0  0  0  0  0  0  0  0  0  0  0  0
  194.4160  173.8810  138.4240 C   0  0  0  0  0  0  0  0  0  0  0  0
  194.9340  175.0290  138.4860 O   0  0  0  0  0  0  0  0  0  0  0  0
  193.3290  173.5280  139.2970 N   0  0  0  0  0  0  0  0  0  0  0  0
  191.9360  173.2780  141.1400 C   0  0  1  0  0  0  0  0  0  0  0  0
  192.4110  172.4300  139.0670 C   0  0  2  0  0  3  0  0  0  0  0  0
  192.4460  172.5270  142.2060 O   0  0  0  0  0  1  0  0  0  0  0  0
  191.6680  172.6320  137.7440 C   0  0  2  0  0  3  0  0  0  0  0  0
  191.2390  173.9580  137.6350 O   0  0  0  0  0  1  0  0  0  0  0  0
  190.4880  171.6580  137.6190 C   0  0  2  0  0  3  0  0  0  0  0  0
  192.2270  170.0090  136.5720 C   0  0  0  0  0  1  0  0  0  0  0  0
  190.2200  169.3160  137.5730 O   0  0  0  0  0  0  0  0  0  0  0  0
  190.9300  170.2630  137.2690 C   0  0  0  0  0  0  0  0  0  0  0  0
  189.3770  172.1710  136.6830 C   0  0  0  0  0  2  0  0  0  0  0  0
  189.6190  171.8510  135.2180 C   0  0  0  0  0  1  0  0  0  0  0  0
  190.7750  174.1370  141.6270 C   0  0  0  0  0  2  0  0  0  0  0  0
  189.1430  173.2390  141.5070 P   0  0  0  0  0  2  0  0  0  0  0  0
  188.1580  174.6710  142.1680 C   0  0  0  0  0  2  0  0  0  0  0  0
  188.4930  175.8390  141.4770 O   0  0  0  0  0  0  0  0  0  0  0  0
  187.2850  176.5150  141.3150 C   0  0  2  0  0  3  0  0  0  0  0  0
  186.5940  177.8890  139.5030 O   0  0  0  0  0  1  0  0  0  0  0  0
  186.9290  176.5790  139.8420 C   0  0  0  0  0  2  0  0  0  0  0  0
  187.4100  177.9170  141.8770 C   0  0  0  0  0  2  0  0  0  0  0  0
  186.2610  178.2270  142.6100 O   0  0  0  0  0  0  0  0  0  0  0  0
  185.9990  179.1760  145.2470 O   0  0  0  0  0  1  0  0  0  0  0  0
  186.6520  177.9700  144.2450 P   0  0  1  0  0  0  0  0  0  0  0  0
  186.0870  176.6310  144.6660 O   0  0  0  0  0  0  0  0  0  0  0  0
  188.4620  177.9170  144.4250 C   0  0  0  0  0  2  0  0  0  0  0  0
  188.8630  177.0750  145.6300 C   0  0  1  0  0  3  0  0  0  0  0  0
  187.6460  176.0840  147.4560 O   0  0  0  0  0  1  0  0  0  0  0  0
  187.9120  177.2900  146.8010 C   0  0  0  0  0  2  0  0  0  0  0  0
  188.9180  175.6040  145.2410 C   0  0  0  0  0  2  0  0  0  0  0  0
  190.3190  175.1050  145.3310 C   0  0  0  0  0  0  0  0  0  0  0  0
  190.5770  173.9280  144.9510 O   0  0  0  0  0  0  0  0  0  0  0  0
  191.3150  175.9220  145.8640 O   0  0  0  0  0  0  0  0  0  0  0  0
  191.0150  175.6600  148.1330 O   0  0  0  0  0  1  0  0  0  0  0  0
  191.9500  175.6130  147.0960 C   0  0  0  0  0  2  0  0  0  0  0  0
  194.9710  172.8760  137.4690 C   0  0  0  0  0  2  0  0  0  0  0  0
  196.9200  172.3610  135.9980 C   0  0  0  0  0  1  0  0  0  0  0  0
  196.4360  173.1790  137.1870 C   0  0  0  0  0  2  0  0  0  0  0  0
  194.2400  174.5250  141.3670 C   0  0  2  0  0  3  0  0  0  0  0  0
  194.8450  173.3590  141.9180 O   0  0  0  0  0  0  0  0  0  0  0  0
  196.7270  173.1010  140.6080 O   0  0  0  0  0  0  0  0  0  0  0  0
  196.2010  173.0730  141.7570 C   0  0  0  0  0  0  0  0  0  0  0  0
  196.9570  172.7440  142.8800 O   0  0  0  0  0  0  0  0  0  0  0  0
  197.3230  171.4060  143.1780 C   0  0  0  0  0  2  0  0  0  0  0  0
  196.4270  170.8570  144.2730 C   0  0  0  0  0  2  0  0  0  0  0  0
  196.0300  169.4150  143.9830 C   0  0  0  0  0  2  0  0  0  0  0  0
  194.1550  170.3460  144.6950 C   0  0  0  0  0  1  0  0  0  0  0  0
  194.8020  169.1140  144.5780 O   0  0  0  0  0  0  0  0  0  0  0  0
  193.9890  175.6110  142.4130 C   0  0  0  0  0  2  0  0  0  0  0  0
  194.0930  175.0740  143.7620 N   0  0  0  0  0  2  0  0  0  0  0  0
  195.2150  175.3400  144.6080 C   0  0  0  0  0  0  0  0  0  0  0  0
  196.1310  176.1230  144.2350 O   0  0  0  0  0  0  0  0  0  0  0  0
  195.3090  174.6910  145.9440 C   0  0  0  0  0  2  0  0  0  0  0  0
  196.6280  173.9680  146.0750 C   0  0  0  0  0  1  0  0  0  0  0  0
  1  6  1  0  0  0  0
  1 42  1  1  0  0  0
  2  6  1  0  0  0  0
  3  4  2  0  0  0  0
  3  5  1  0  0  0  0
  5  1  1  0  0  0  0
  6 17  1  0  0  0  0
  6  8  1  1  0  0  0
  7  9  1  6  0  0  0
  7  5  1  0  0  0  0
  7  2  1  0  0  0  0
  9 10  1  1  0  0  0
 11 15  1  6  0  0  0
 11  9  1  0  0  0  0
 12 14  1  0  0  0  0
 14 13  2  0  0  0  0
 14 11  1  0  0  0  0
 16 15  1  0  0  0  0
 18 17  1  0  0  0  0
 18 19  1  0  0  0  0
 20 19  1  0  0  0  0
 21 23  1  6  0  0  0
 21 20  1  0  0  0  0
 21 24  1  0  0  0  0
 22 23  1  0  0  0  0
 24 25  1  0  0  0  0
 25 27  1  0  0  0  0
 27 29  1  0  0  0  0
 27 28  2  1  0  0  0
 27 26  1  0  0  0  0
 30 29  1  6  0  0  0
 30 32  1  0  0  0  0
 32 31  1  0  0  0  0
 33 34  1  0  0  0  0
 33 30  1  0  0  0  0
 34 36  1  0  0  0  0
 35 34  2  0  0  0  0
 36 38  1  0  0  0  0
 38 37  1  0  0  0  0
 39  3  1  0  0  0  0
 40 41  1  0  0  0  0
 41 39  1  0  0  0  0
 42 43  1  0  0  0  0
 42 52  1  1  0  0  0
 44 45  2  0  0  0  0
 45 43  1  0  0  0  0
 45 46  1  0  0  0  0
 46 47  1  0  0  0  0
 47 48  1  0  0  0  0
 49 48  1  0  0  0  0
 49 51  1  0  0  0  0
 51 50  1  0  0  0  0
 52 53  1  0  0  0  0
 53 54  1  0  0  0  0
 54 56  1  0  0  0  0
 55 54  2  0  0  0  0
 56 57  1  0  0  0  0
M  END
>  <MODEL>
3

>  <REMARK>
 VINA RESULT:      -4.1      1.719      2.775
  Name = 
  33 active torsions:
  status: ('A' for Active; 'I' for Inactive)
    1  A    between atoms: C_2  and  C_19
    2  A    between atoms: C_2  and  C_38
    3  A    between atoms: C_2  and  O_44
    4  A    between atoms: C_4  and  C_14
    5  A    between atoms: C_5  and  O_10
    6  A    between atoms: C_5  and  C_26
    7  A    between atoms: C_6  and  P_8
    8  A    between atoms: C_6  and  C_27
    9  A    between atoms: P_8  and  O_13
   10  A    between atoms: C_9  and  C_31
   11  A    between atoms: O_10  and  C_17
   12  A    between atoms: O_13  and  C_19
   13  A    between atoms: C_14  and  C_35
   14  A    between atoms: C_14  and  O_36
   15  A    between atoms: O_16  and  C_28
   16  A    between atoms: O_16  and  C_30
   17  A    between atoms: C_17  and  O_36
   18  A    between atoms: C_18  and  C_23
   19  A    between atoms: C_20  and  C_56
   20  A    between atoms: C_23  and  C_43
   21  A    between atoms: C_23  and  C_46
   22  A    between atoms: C_26  and  C_39
   23  A    between atoms: C_27  and  C_42
   24  A    between atoms: C_27  and  C_50
   25  A    between atoms: N_29  and  C_35
   26  A    between atoms: C_30  and  C_42
   27  A    between atoms: C_37  and  C_54
   28  A    between atoms: C_39  and  O_45
   29  A    between atoms: C_40  and  O_44
   30  A    between atoms: C_40  and  P_49
   31  A    between atoms: C_41  and  C_46
   32  A    between atoms: P_49  and  C_54
   33  A    between atoms: C_51  and  C_56
                            x       y       z     vdW  Elec       q    Type
                         _______ _______ _______ _____ _____    ______ ____

>  <TORSDO>
F 33

$$$$
=
 OpenBabel11042419083D

 57 57  0  0  1  0  0  0  0  0999 V2000
  190.5440  173.7260  143.2880 C   0  0  1  0  0  3  0  0  0  0  0  0
  189.8860  175.8800  142.4910 O   0  0  0  0  0  0  0  0  0  0  0  0
  189.6020  173.9600  145.6510 C   0  0  0  0  0  0  0  0  0  0  0  0
  189.6470  172.7240  145.8950 O   0  0  0  0  0  0  0  0  0  0  0  0
  189.8570  174.4470  144.3220 N   0  0  0  0  0  0  0  0  0  0  0  0
  190.7370  174.7860  142.1990 C   0  0  1  0  0  0  0  0  0  0  0  0
  189.4570  175.7520  143.8330 C   0  0  2  0  0  3  0  0  0  0  0  0
  192.0560  175.2530  142.1410 O   0  0  0  0  0  1  0  0  0  0  0  0
  187.9350  175.9020  143.9100 C   0  0  2  0  0  3  0  0  0  0  0  0
  187.3580  175.5380  142.6910 O   0  0  0  0  0  1  0  0  0  0  0  0
  187.5400  177.3310  144.3040 C   0  0  2  0  0  3  0  0  0  0  0  0
  185.4890  176.9150  145.8720 C   0  0  0  0  0  1  0  0  0  0  0  0
  187.5200  177.8330  146.6070 O   0  0  0  0  0  0  0  0  0  0  0  0
  186.8880  177.3940  145.6590 C   0  0  0  0  0  0  0  0  0  0  0  0
  186.7110  178.0480  143.2220 C   0  0  0  0  0  2  0  0  0  0  0  0
  186.0080  179.2990  143.7220 C   0  0  0  0  0  1  0  0  0  0  0  0
  190.3510  174.1720  140.8580 C   0  0  0  0  0  2  0  0  0  0  0  0
  189.4930  172.5260  141.0660 P   0  0  0  0  0  2  0  0  0  0  0  0
  190.5210  171.6800  139.7680 C   0  0  0  0  0  2  0  0  0  0  0  0
  191.4400  172.5820  139.2250 O   0  0  0  0  0  0  0  0  0  0  0  0
  191.4260  172.3230  137.8550 C   0  0  2  0  0  3  0  0  0  0  0  0
  189.9530  174.0280  137.1010 O   0  0  0  0  0  1  0  0  0  0  0  0
  190.0580  172.6510  137.2880 C   0  0  0  0  0  2  0  0  0  0  0  0
  191.7470  170.8620  137.6130 C   0  0  0  0  0  2  0  0  0  0  0  0
  192.9680  170.7600  136.9400 O   0  0  0  0  0  0  0  0  0  0  0  0
  192.8790  168.6980  138.8530 O   0  0  0  0  0  1  0  0  0  0  0  0
  193.8200  169.4890  137.6820 P   0  0  1  0  0  0  0  0  0  0  0  0
  194.2090  168.4880  136.6150 O   0  0  0  0  0  0  0  0  0  0  0  0
  195.3390  170.1480  138.4380 C   0  0  0  0  0  2  0  0  0  0  0  0
  195.7570  171.4510  137.7680 C   0  0  1  0  0  3  0  0  0  0  0  0
  196.8220  171.6590  139.9170 O   0  0  0  0  0  1  0  0  0  0  0  0
  196.6720  172.2710  138.6700 C   0  0  0  0  0  2  0  0  0  0  0  0
  196.4330  171.1580  136.4360 C   0  0  0  0  0  2  0  0  0  0  0  0
  196.7460  172.4330  135.7320 C   0  0  0  0  0  0  0  0  0  0  0  0
  197.9410  172.6760  135.4030 O   0  0  0  0  0  0  0  0  0  0  0  0
  195.7300  173.3530  135.4760 O   0  0  0  0  0  0  0  0  0  0  0  0
  196.6350  175.4140  134.9830 O   0  0  0  0  0  1  0  0  0  0  0  0
  195.8360  174.7090  135.8860 C   0  0  0  0  0  2  0  0  0  0  0  0
  189.3270  174.9170  146.7640 C   0  0  0  0  0  2  0  0  0  0  0  0
  190.7980  176.7400  147.6250 C   0  0  0  0  0  1  0  0  0  0  0  0
  190.6150  175.2330  147.5100 C   0  0  0  0  0  2  0  0  0  0  0  0
  191.8020  173.0090  143.8190 C   0  0  2  0  0  3  0  0  0  0  0  0
  192.9930  173.7580  143.5930 O   0  0  0  0  0  0  0  0  0  0  0  0
  193.6170  173.7860  145.8140 O   0  0  0  0  0  0  0  0  0  0  0  0
  193.8040  174.2040  144.6360 C   0  0  0  0  0  0  0  0  0  0  0  0
  194.8130  175.1240  144.3570 O   0  0  0  0  0  0  0  0  0  0  0  0
  195.8570  174.8430  143.4390 C   0  0  0  0  0  2  0  0  0  0  0  0
  196.7520  176.0600  143.2860 C   0  0  0  0  0  2  0  0  0  0  0  0
  196.4240  176.8230  142.0090 C   0  0  0  0  0  2  0  0  0  0  0  0
  196.9710  175.7330  140.1650 C   0  0  0  0  0  1  0  0  0  0  0  0
  195.9070  175.9590  141.0400 O   0  0  0  0  0  0  0  0  0  0  0  0
  191.9140  171.5610  143.3400 C   0  0  0  0  0  2  0  0  0  0  0  0
  192.7850  170.7860  144.2120 N   0  0  0  0  0  2  0  0  0  0  0  0
  194.1280  170.4500  143.8520 C   0  0  0  0  0  0  0  0  0  0  0  0
  194.6360  170.8860  142.7830 O   0  0  0  0  0  0  0  0  0  0  0  0
  194.9410  169.5800  144.7440 C   0  0  0  0  0  2  0  0  0  0  0  0
  195.1820  168.2450  144.0830 C   0  0  0  0  0  1  0  0  0  0  0  0
  1 42  1  1  0  0  0
  1  5  1  0  0  0  0
  2  7  1  0  0  0  0
  3  4  2  0  0  0  0
  3 39  1  0  0  0  0
  5  3  1  0  0  0  0
  6  8  1  6  0  0  0
  6  2  1  0  0  0  0
  6  1  1  0  0  0  0
  7  9  1  6  0  0  0
  7  5  1  0  0  0  0
  9 10  1  6  0  0  0
  9 11  1  0  0  0  0
 11 15  1  6  0  0  0
 11 14  1  0  0  0  0
 14 12  1  0  0  0  0
 14 13  2  0  0  0  0
 15 16  1  0  0  0  0
 17 18  1  0  0  0  0
 17  6  1  0  0  0  0
 19 18  1  0  0  0  0
 20 19  1  0  0  0  0
 21 23  1  1  0  0  0
 21 20  1  0  0  0  0
 22 23  1  0  0  0  0
 24 21  1  0  0  0  0
 25 24  1  0  0  0  0
 25 27  1  0  0  0  0
 27 28  2  6  0  0  0
 27 29  1  0  0  0  0
 27 26  1  0  0  0  0
 30 33  1  6  0  0  0
 30 29  1  0  0  0  0
 30 32  1  0  0  0  0
 32 31  1  0  0  0  0
 34 33  1  0  0  0  0
 35 34  2  0  0  0  0
 36 34  1  0  0  0  0
 36 38  1  0  0  0  0
 37 38  1  0  0  0  0
 39 41  1  0  0  0  0
 41 40  1  0  0  0  0
 42 52  1  6  0  0  0
 43 42  1  0  0  0  0
 43 45  1  0  0  0  0
 45 44  2  0  0  0  0
 46 45  1  0  0  0  0
 47 46  1  0  0  0  0
 48 47  1  0  0  0  0
 49 48  1  0  0  0  0
 50 51  1  0  0  0  0
 51 49  1  0  0  0  0
 52 53  1  0  0  0  0
 54 53  1  0  0  0  0
 54 56  1  0  0  0  0
 55 54  2  0  0  0  0
 57 56  1  0  0  0  0
M  END
>  <MODEL>
4

>  <REMARK>
 VINA RESULT:      -3.9      2.693      9.298
  Name = 
  33 active torsions:
  status: ('A' for Active; 'I' for Inactive)
    1  A    between atoms: C_2  and  C_19
    2  A    between atoms: C_2  and  C_38
    3  A    between atoms: C_2  and  O_44
    4  A    between atoms: C_4  and  C_14
    5  A    between atoms: C_5  and  O_10
    6  A    between atoms: C_5  and  C_26
    7  A    between atoms: C_6  and  P_8
    8  A    between atoms: C_6  and  C_27
    9  A    between atoms: P_8  and  O_13
   10  A    between atoms: C_9  and  C_31
   11  A    between atoms: O_10  and  C_17
   12  A    between atoms: O_13  and  C_19
   13  A    between atoms: C_14  and  C_35
   14  A    between atoms: C_14  and  O_36
   15  A    between atoms: O_16  and  C_28
   16  A    between atoms: O_16  and  C_30
   17  A    between atoms: C_17  and  O_36
   18  A    between atoms: C_18  and  C_23
   19  A    between atoms: C_20  and  C_56
   20  A    between atoms: C_23  and  C_43
   21  A    between atoms: C_23  and  C_46
   22  A    between atoms: C_26  and  C_39
   23  A    between atoms: C_27  and  C_42
   24  A    between atoms: C_27  and  C_50
   25  A    between atoms: N_29  and  C_35
   26  A    between atoms: C_30  and  C_42
   27  A    between atoms: C_37  and  C_54
   28  A    between atoms: C_39  and  O_45
   29  A    between atoms: C_40  and  O_44
   30  A    between atoms: C_40  and  P_49
   31  A    between atoms: C_41  and  C_46
   32  A    between atoms: P_49  and  C_54
   33  A    between atoms: C_51  and  C_56
                            x       y       z     vdW  Elec       q    Type
                         _______ _______ _______ _____ _____    ______ ____

>  <TORSDO>
F 33

$$$$
=
 OpenBabel11042419083D

 57 57  0  0  1  0  0  0  0  0999 V2000
  191.2530  175.0230  143.1940 C   0  0  1  0  0  3  0  0  0  0  0  0
  191.9050  172.7400  143.4530 O   0  0  0  0  0  0  0  0  0  0  0  0
  192.5940  175.9620  145.1540 C   0  0  0  0  0  0  0  0  0  0  0  0
  192.5100  177.1580  144.7640 O   0  0  0  0  0  0  0  0  0  0  0  0
  192.1500  174.8890  144.3060 N   0  0  0  0  0  0  0  0  0  0  0  0
  190.9470  173.5690  142.8190 C   0  0  1  0  0  0  0  0  0  0  0  0
  192.5450  173.5030  144.4580 C   0  0  2  0  0  3  0  0  0  0  0  0
  189.6710  173.1710  143.2350 O   0  0  0  0  0  1  0  0  0  0  0  0
  194.0650  173.3690  144.3240 C   0  0  2  0  0  3  0  0  0  0  0  0
  194.4940  173.9740  143.1410 O   0  0  0  0  0  1  0  0  0  0  0  0
  194.4970  171.8970  144.3810 C   0  0  2  0  0  3  0  0  0  0  0  0
  195.7550  170.2520  145.9770 C   0  0  0  0  0  1  0  0  0  0  0  0
  196.1230  172.5700  145.9500 O   0  0  0  0  0  0  0  0  0  0  0  0
  195.4980  171.6350  145.4740 C   0  0  0  0  0  0  0  0  0  0  0  0
  194.9630  171.3510  143.0180 C   0  0  0  0  0  2  0  0  0  0  0  0
  196.4660  171.4300  142.8120 C   0  0  0  0  0  1  0  0  0  0  0  0
  191.0600  173.4300  141.3060 C   0  0  0  0  0  2  0  0  0  0  0  0
  189.6400  172.4520  140.5880 P   0  0  0  0  0  2  0  0  0  0  0  0
  189.5460  173.4790  139.0410 C   0  0  0  0  0  2  0  0  0  0  0  0
  190.3080  172.8880  138.0290 O   0  0  0  0  0  0  0  0  0  0  0  0
  190.2570  173.7950  136.9710 C   0  0  2  0  0  3  0  0  0  0  0  0
  190.8980  172.4420  135.1250 O   0  0  0  0  0  1  0  0  0  0  0  0
  189.8070  173.0830  135.7100 C   0  0  0  0  0  2  0  0  0  0  0  0
  191.6290  174.4020  136.7580 C   0  0  0  0  0  2  0  0  0  0  0  0
  192.6080  173.4320  136.9880 O   0  0  0  0  0  0  0  0  0  0  0  0
  194.9850  173.9370  135.5680 O   0  0  0  0  0  0  0  0  0  0  0  0
  194.1010  174.2470  136.9840 P   0  0  1  0  0  0  0  0  0  0  0  0
  193.8340  175.7340  137.0750 O   0  0  0  0  0  1  0  0  0  0  0  0
  195.0610  173.7410  138.4460 C   0  0  0  0  0  2  0  0  0  0  0  0
  196.4860  173.3670  138.0560 C   0  0  1  0  0  3  0  0  0  0  0  0
  197.4310  175.5700  137.8350 O   0  0  0  0  0  1  0  0  0  0  0  0
  197.4910  174.3870  138.5770 C   0  0  0  0  0  2  0  0  0  0  0  0
  196.8150  171.9730  138.5700 C   0  0  0  0  0  2  0  0  0  0  0  0
  196.1100  170.9480  137.7500 C   0  0  0  0  0  0  0  0  0  0  0  0
  195.3790  170.0950  138.3290 O   0  0  0  0  0  0  0  0  0  0  0  0
  196.2910  170.9180  136.3680 O   0  0  0  0  0  0  0  0  0  0  0  0
  197.9330  171.5170  134.8670 O   0  0  0  0  0  1  0  0  0  0  0  0
  197.5350  170.5480  135.7900 C   0  0  0  0  0  2  0  0  0  0  0  0
  193.1150  175.6730  146.5240 C   0  0  0  0  0  2  0  0  0  0  0  0
  191.5190  176.7540  148.1090 C   0  0  0  0  0  1  0  0  0  0  0  0
  191.9580  175.4370  147.4830 C   0  0  0  0  0  2  0  0  0  0  0  0
  190.0580  175.9430  143.5200 C   0  0  2  0  0  3  0  0  0  0  0  0
  189.9590  176.2360  144.9110 O   0  0  0  0  0  0  0  0  0  0  0  0
  188.7070  174.8660  146.2810 O   0  0  0  0  0  0  0  0  0  0  0  0
  188.8120  175.9580  145.6530 C   0  0  0  0  0  0  0  0  0  0  0  0
  187.7830  176.8970  145.6800 O   0  0  0  0  0  0  0  0  0  0  0  0
  186.5300  176.6260  146.2870 C   0  0  0  0  0  2  0  0  0  0  0  0
  185.8180  177.9290  146.6070 C   0  0  0  0  0  2  0  0  0  0  0  0
  184.3090  177.7740  146.4720 C   0  0  0  0  0  2  0  0  0  0  0  0
  184.1430  178.9270  144.5940 C   0  0  0  0  0  1  0  0  0  0  0  0
  183.7420  178.9310  145.9310 O   0  0  0  0  0  0  0  0  0  0  0  0
  188.7390  175.4470  142.9250 C   0  0  0  0  0  2  0  0  0  0  0  0
  188.4060  176.1750  141.7090 N   0  0  0  0  0  2  0  0  0  0  0  0
  187.3480  177.1360  141.6570 C   0  0  0  0  0  0  0  0  0  0  0  0
  186.7070  177.4440  142.6990 O   0  0  0  0  0  0  0  0  0  0  0  0
  186.9950  177.7830  140.3650 C   0  0  0  0  0  2  0  0  0  0  0  0
  185.5030  177.9990  140.2860 C   0  0  0  0  0  1  0  0  0  0  0  0
  1 42  1  1  0  0  0
  1  5  1  0  0  0  0
  2  7  1  0  0  0  0
  3 39  1  0  0  0  0
  4  3  2  0  0  0  0
  5  7  1  0  0  0  0
  5  3  1  0  0  0  0
  6  1  1  0  0  0  0
  6  8  1  1  0  0  0
  6  2  1  0  0  0  0
  7  9  1  6  0  0  0
  9 10  1  6  0  0  0
  9 11  1  0  0  0  0
 11 15  1  6  0  0  0
 11 14  1  0  0  0  0
 14 13  2  0  0  0  0
 14 12  1  0  0  0  0
 16 15  1  0  0  0  0
 17  6  1  0  0  0  0
 18 17  1  0  0  0  0
 19 18  1  0  0  0  0
 20 19  1  0  0  0  0
 21 23  1  6  0  0  0
 21 20  1  0  0  0  0
 22 23  1  0  0  0  0
 24 21  1  0  0  0  0
 24 25  1  0  0  0  0
 27 26  2  6  0  0  0
 27 25  1  0  0  0  0
 27 28  1  0  0  0  0
 27 29  1  0  0  0  0
 30 29  1  1  0  0  0
 30 33  1  0  0  0  0
 30 32  1  0  0  0  0
 31 32  1  0  0  0  0
 34 35  2  0  0  0  0
 34 33  1  0  0  0  0
 36 34  1  0  0  0  0
 37 38  1  0  0  0  0
 38 36  1  0  0  0  0
 39 41  1  0  0  0  0
 41 40  1  0  0  0  0
 42 52  1  1  0  0  0
 42 43  1  0  0  0  0
 43 45  1  0  0  0  0
 45 46  1  0  0  0  0
 45 44  2  0  0  0  0
 46 47  1  0  0  0  0
 47 48  1  0  0  0  0
 49 48  1  0  0  0  0
 50 51  1  0  0  0  0
 51 49  1  0  0  0  0
 53 52  1  0  0  0  0
 54 53  1  0  0  0  0
 54 55  2  0  0  0  0
 56 54  1  0  0  0  0
 57 56  1  0  0  0  0
M  END
>  <MODEL>
5

>  <REMARK>
 VINA RESULT:      -3.7      2.639      9.446
  Name = 
  33 active torsions:
  status: ('A' for Active; 'I' for Inactive)
    1  A    between atoms: C_2  and  C_19
    2  A    between atoms: C_2  and  C_38
    3  A    between atoms: C_2  and  O_44
    4  A    between atoms: C_4  and  C_14
    5  A    between atoms: C_5  and  O_10
    6  A    between atoms: C_5  and  C_26
    7  A    between atoms: C_6  and  P_8
    8  A    between atoms: C_6  and  C_27
    9  A    between atoms: P_8  and  O_13
   10  A    between atoms: C_9  and  C_31
   11  A    between atoms: O_10  and  C_17
   12  A    between atoms: O_13  and  C_19
   13  A    between atoms: C_14  and  C_35
   14  A    between atoms: C_14  and  O_36
   15  A    between atoms: O_16  and  C_28
   16  A    between atoms: O_16  and  C_30
   17  A    between atoms: C_17  and  O_36
   18  A    between atoms: C_18  and  C_23
   19  A    between atoms: C_20  and  C_56
   20  A    between atoms: C_23  and  C_43
   21  A    between atoms: C_23  and  C_46
   22  A    between atoms: C_26  and  C_39
   23  A    between atoms: C_27  and  C_42
   24  A    between atoms: C_27  and  C_50
   25  A    between atoms: N_29  and  C_35
   26  A    between atoms: C_30  and  C_42
   27  A    between atoms: C_37  and  C_54
   28  A    between atoms: C_39  and  O_45
   29  A    between atoms: C_40  and  O_44
   30  A    between atoms: C_40  and  P_49
   31  A    between atoms: C_41  and  C_46
   32  A    between atoms: P_49  and  C_54
   33  A    between atoms: C_51  and  C_56
                            x       y       z     vdW  Elec       q    Type
                         _______ _______ _______ _____ _____    ______ ____

>  <TORSDO>
F 33

$$$$
=
 OpenBabel11042419083D

 57 57  0  0  1  0  0  0  0  0999 V2000
  193.3360  172.3600  140.7150 C   0  0  1  0  0  3  0  0  0  0  0  0
  191.8750  170.7110  139.7920 O   0  0  0  0  0  0  0  0  0  0  0  0
  193.8820  173.5610  138.5270 C   0  0  0  0  0  0  0  0  0  0  0  0
  194.3370  174.5910  139.0940 O   0  0  0  0  0  0  0  0  0  0  0  0
  193.2170  172.5430  139.2960 N   0  0  0  0  0  0  0  0  0  0  0  0
  192.6290  171.0210  140.9500 C   0  0  1  0  0  0  0  0  0  0  0  0
  192.3280  171.5420  138.7410 C   0  0  2  0  0  3  0  0  0  0  0  0
  193.5330  169.9770  141.1830 O   0  0  0  0  0  1  0  0  0  0  0  0
  191.1340  172.2160  138.0580 C   0  0  2  0  0  3  0  0  0  0  0  0
  189.9500  171.8630  138.7110 O   0  0  0  0  0  1  0  0  0  0  0  0
  191.0730  171.8550  136.5680 C   0  0  2  0  0  3  0  0  0  0  0  0
  189.9310  174.1910  136.2880 C   0  0  0  0  0  1  0  0  0  0  0  0
  190.9370  173.0170  134.5220 O   0  0  0  0  0  0  0  0  0  0  0  0
  190.6590  173.0210  135.7110 C   0  0  0  0  0  0  0  0  0  0  0  0
  190.2330  170.5960  136.2860 C   0  0  0  0  0  2  0  0  0  0  0  0
  191.0520  169.3190  136.2140 C   0  0  0  0  0  1  0  0  0  0  0  0
  191.7010  171.1730  142.1490 C   0  0  0  0  0  2  0  0  0  0  0  0
  191.0520  172.9170  142.3130 P   0  0  0  0  0  2  0  0  0  0  0  0
  190.1520  172.5710  143.9030 C   0  0  0  0  0  2  0  0  0  0  0  0
  190.2620  173.6700  144.7600 O   0  0  0  0  0  0  0  0  0  0  0  0
  190.9600  174.6260  144.0240 C   0  0  2  0  0  3  0  0  0  0  0  0
  192.8050  176.1010  144.2840 O   0  0  0  0  0  1  0  0  0  0  0  0
  191.7310  175.5320  144.9650 C   0  0  0  0  0  2  0  0  0  0  0  0
  189.9840  175.4460  143.2040 C   0  0  0  0  0  2  0  0  0  0  0  0
  189.9770  176.7630  143.6710 O   0  0  0  0  0  0  0  0  0  0  0  0
  187.9250  178.2580  142.4550 O   0  0  0  0  0  0  0  0  0  0  0  0
  188.3450  177.2370  143.7450 P   0  0  1  0  0  0  0  0  0  0  0  0
  187.4830  175.9940  143.6800 O   0  0  0  0  0  1  0  0  0  0  0  0
  188.0360  178.0710  145.3330 C   0  0  0  0  0  2  0  0  0  0  0  0
  186.9020  177.3930  146.0910 C   0  0  1  0  0  3  0  0  0  0  0  0
  188.4410  175.6860  146.8070 O   0  0  0  0  0  1  0  0  0  0  0  0
  187.4310  176.5480  147.2440 C   0  0  0  0  0  2  0  0  0  0  0  0
  185.9160  178.4370  146.5950 C   0  0  0  0  0  2  0  0  0  0  0  0
  184.5790  178.2180  145.9740 C   0  0  0  0  0  0  0  0  0  0  0  0
  183.5460  178.2940  146.6970 O   0  0  0  0  0  0  0  0  0  0  0  0
  184.4860  177.8980  144.6200 O   0  0  0  0  0  0  0  0  0  0  0  0
  185.3590  179.8170  143.6880 O   0  0  0  0  0  1  0  0  0  0  0  0
  184.3060  178.9010  143.6300 C   0  0  0  0  0  2  0  0  0  0  0  0
  194.0810  173.3850  137.0570 C   0  0  0  0  0  2  0  0  0  0  0  0
  194.0550  175.4830  135.7060 C   0  0  0  0  0  1  0  0  0  0  0  0
  194.9260  174.5240  136.5060 C   0  0  0  0  0  2  0  0  0  0  0  0
  194.7960  172.4910  141.1960 C   0  0  2  0  0  3  0  0  0  0  0  0
  195.5980  171.3770  140.8160 O   0  0  0  0  0  0  0  0  0  0  0  0
  196.9190  170.7960  139.0170 O   0  0  0  0  0  0  0  0  0  0  0  0
  196.7500  171.5150  140.0420 C   0  0  0  0  0  0  0  0  0  0  0  0
  197.7110  172.4490  140.4250 O   0  0  0  0  0  0  0  0  0  0  0  0
  197.5370  173.8410  140.2120 C   0  0  0  0  0  2  0  0  0  0  0  0
  197.8420  174.6010  141.4910 C   0  0  0  0  0  2  0  0  0  0  0  0
  197.1840  175.9750  141.4790 C   0  0  0  0  0  2  0  0  0  0  0  0
  196.5480  176.7970  143.4300 C   0  0  0  0  0  1  0  0  0  0  0  0
  196.1040  176.0110  142.3660 O   0  0  0  0  0  0  0  0  0  0  0  0
  194.9080  172.8210  142.6860 C   0  0  0  0  0  2  0  0  0  0  0  0
  195.6450  171.7860  143.3970 N   0  0  0  0  0  2  0  0  0  0  0  0
  196.6350  172.0910  144.3830 C   0  0  0  0  0  0  0  0  0  0  0  0
  196.8520  173.2840  144.7290 O   0  0  0  0  0  0  0  0  0  0  0  0
  197.4190  170.9950  145.0130 C   0  0  0  0  0  2  0  0  0  0  0  0
  196.7070  170.4940  146.2470 C   0  0  0  0  0  1  0  0  0  0  0  0
  1  6  1  0  0  0  0
  1 42  1  6  0  0  0
  2  6  1  0  0  0  0
  3  4  2  0  0  0  0
  3  5  1  0  0  0  0
  5  1  1  0  0  0  0
  6  8  1  1  0  0  0
  6 17  1  0  0  0  0
  7  9  1  1  0  0  0
  7  5  1  0  0  0  0
  7  2  1  0  0  0  0
  9 10  1  1  0  0  0
 11 15  1  1  0  0  0
 11  9  1  0  0  0  0
 13 14  2  0  0  0  0
 14 12  1  0  0  0  0
 14 11  1  0  0  0  0
 16 15  1  0  0  0  0
 17 18  1  0  0  0  0
 18 19  1  0  0  0  0
 19 20  1  0  0  0  0
 21 24  1  1  0  0  0
 21 20  1  0  0  0  0
 21 23  1  0  0  0  0
 22 23  1  0  0  0  0
 24 25  1  0  0  0  0
 25 27  1  0  0  0  0
 27 26  2  6  0  0  0
 27 29  1  0  0  0  0
 28 27  1  0  0  0  0
 30 29  1  1  0  0  0
 30 33  1  0  0  0  0
 30 32  1  0  0  0  0
 31 32  1  0  0  0  0
 34 33  1  0  0  0  0
 34 35  2  0  0  0  0
 36 34  1  0  0  0  0
 38 37  1  0  0  0  0
 38 36  1  0  0  0  0
 39  3  1  0  0  0  0
 40 41  1  0  0  0  0
 41 39  1  0  0  0  0
 42 52  1  1  0  0  0
 43 42  1  0  0  0  0
 44 45  2  0  0  0  0
 45 46  1  0  0  0  0
 45 43  1  0  0  0  0
 47 46  1  0  0  0  0
 47 48  1  0  0  0  0
 49 48  1  0  0  0  0
 49 51  1  0  0  0  0
 51 50  1  0  0  0  0
 52 53  1  0  0  0  0
 53 54  1  0  0  0  0
 54 55  2  0  0  0  0
 54 56  1  0  0  0  0
 56 57  1  0  0  0  0
M  END
>  <MODEL>
6

>  <REMARK>
 VINA RESULT:      -3.6      2.241      4.387
  Name = 
  33 active torsions:
  status: ('A' for Active; 'I' for Inactive)
    1  A    between atoms: C_2  and  C_19
    2  A    between atoms: C_2  and  C_38
    3  A    between atoms: C_2  and  O_44
    4  A    between atoms: C_4  and  C_14
    5  A    between atoms: C_5  and  O_10
    6  A    between atoms: C_5  and  C_26
    7  A    between atoms: C_6  and  P_8
    8  A    between atoms: C_6  and  C_27
    9  A    between atoms: P_8  and  O_13
   10  A    between atoms: C_9  and  C_31
   11  A    between atoms: O_10  and  C_17
   12  A    between atoms: O_13  and  C_19
   13  A    between atoms: C_14  and  C_35
   14  A    between atoms: C_14  and  O_36
   15  A    between atoms: O_16  and  C_28
   16  A    between atoms: O_16  and  C_30
   17  A    between atoms: C_17  and  O_36
   18  A    between atoms: C_18  and  C_23
   19  A    between atoms: C_20  and  C_56
   20  A    between atoms: C_23  and  C_43
   21  A    between atoms: C_23  and  C_46
   22  A    between atoms: C_26  and  C_39
   23  A    between atoms: C_27  and  C_42
   24  A    between atoms: C_27  and  C_50
   25  A    between atoms: N_29  and  C_35
   26  A    between atoms: C_30  and  C_42
   27  A    between atoms: C_37  and  C_54
   28  A    between atoms: C_39  and  O_45
   29  A    between atoms: C_40  and  O_44
   30  A    between atoms: C_40  and  P_49
   31  A    between atoms: C_41  and  C_46
   32  A    between atoms: P_49  and  C_54
   33  A    between atoms: C_51  and  C_56
                            x       y       z     vdW  Elec       q    Type
                         _______ _______ _______ _____ _____    ______ ____

>  <TORSDO>
F 33

$$$$
=
 OpenBabel11042419083D

 57 57  0  0  1  0  0  0  0  0999 V2000
  192.9600  174.0350  140.0470 C   0  0  1  0  0  3  0  0  0  0  0  0
  191.9810  172.4360  138.5680 O   0  0  0  0  0  0  0  0  0  0  0  0
  194.9630  174.6390  138.5810 C   0  0  0  0  0  0  0  0  0  0  0  0
  195.2280  175.6980  139.2120 O   0  0  0  0  0  0  0  0  0  0  0  0
  193.7510  173.9150  138.8550 N   0  0  0  0  0  0  0  0  0  0  0  0
  191.9530  172.8890  139.9090 C   0  0  1  0  0  0  0  0  0  0  0  0
  193.1520  172.9460  137.9600 C   0  0  2  0  0  3  0  0  0  0  0  0
  192.2580  171.8110  140.7490 O   0  0  0  0  0  1  0  0  0  0  0  0
  192.7990  173.6070  136.6240 C   0  0  2  0  0  3  0  0  0  0  0  0
  192.1520  174.8250  136.8520 O   0  0  0  0  0  1  0  0  0  0  0  0
  191.9380  172.6780  135.7580 C   0  0  2  0  0  3  0  0  0  0  0  0
  192.2280  170.2580  134.8100 C   0  0  0  0  0  1  0  0  0  0  0  0
  193.8740  171.9230  134.6430 O   0  0  0  0  0  0  0  0  0  0  0  0
  192.7580  171.6340  135.0470 C   0  0  0  0  0  0  0  0  0  0  0  0
  191.0040  173.4390  134.7990 C   0  0  0  0  0  2  0  0  0  0  0  0
  189.5720  173.5400  135.2960 C   0  0  0  0  0  1  0  0  0  0  0  0
  190.5670  173.4260  140.2480 C   0  0  0  0  0  2  0  0  0  0  0  0
  189.2360  172.6190  139.2170 P   0  0  0  0  0  2  0  0  0  0  0  0
  187.9290  173.8460  139.7110 C   0  0  0  0  0  2  0  0  0  0  0  0
  188.2590  175.1150  139.2260 O   0  0  0  0  0  0  0  0  0  0  0  0
  187.0610  175.8280  139.2540 C   0  0  2  0  0  3  0  0  0  0  0  0
  186.9300  175.3850  136.9230 O   0  0  0  0  0  1  0  0  0  0  0  0
  186.7690  176.3890  137.8760 C   0  0  0  0  0  2  0  0  0  0  0  0
  187.1660  176.9570  140.2590 C   0  0  0  0  0  2  0  0  0  0  0  0
  186.4100  176.6430  141.3920 O   0  0  0  0  0  0  0  0  0  0  0  0
  188.5230  175.4090  142.7830 O   0  0  0  0  0  1  0  0  0  0  0  0
  187.4710  176.7400  142.7180 P   0  0  1  0  0  0  0  0  0  0  0  0
  188.2930  178.0030  142.5810 O   0  0  0  0  0  0  0  0  0  0  0  0
  186.4990  176.8460  144.2540 C   0  0  0  0  0  2  0  0  0  0  0  0
  187.1040  177.8670  145.2090 C   0  0  1  0  0  3  0  0  0  0  0  0
  186.0150  178.5960  147.2290 O   0  0  0  0  0  1  0  0  0  0  0  0
  186.0290  178.7450  145.8390 C   0  0  0  0  0  2  0  0  0  0  0  0
  187.9180  177.1570  146.2810 C   0  0  0  0  0  2  0  0  0  0  0  0
  189.3510  177.0960  145.8760 C   0  0  0  0  0  0  0  0  0  0  0  0
  189.8910  178.1210  145.3710 O   0  0  0  0  0  0  0  0  0  0  0  0
  190.0650  175.9080  146.0240 O   0  0  0  0  0  0  0  0  0  0  0  0
  189.3140  173.8260  146.6650 O   0  0  0  0  0  1  0  0  0  0  0  0
  189.8380  175.0370  147.1230 C   0  0  0  0  0  2  0  0  0  0  0  0
  195.9420  174.1190  137.5790 C   0  0  0  0  0  2  0  0  0  0  0  0
  196.0050  175.1940  135.3280 C   0  0  0  0  0  1  0  0  0  0  0  0
  196.5120  175.2680  136.7610 C   0  0  0  0  0  2  0  0  0  0  0  0
  193.8320  174.0720  141.3190 C   0  0  2  0  0  3  0  0  0  0  0  0
  194.5150  172.8430  141.5490 O   0  0  0  0  0  0  0  0  0  0  0  0
  196.6600  173.6620  141.3230 O   0  0  0  0  0  0  0  0  0  0  0  0
  195.8860  172.7860  141.8020 C   0  0  0  0  0  0  0  0  0  0  0  0
  196.3830  171.7420  142.5790 O   0  0  0  0  0  0  0  0  0  0  0  0
  196.1710  170.3810  142.2380 C   0  0  0  0  0  2  0  0  0  0  0  0
  195.7300  169.6030  143.4660 C   0  0  0  0  0  2  0  0  0  0  0  0
  194.4380  170.1710  144.0370 C   0  0  0  0  0  2  0  0  0  0  0  0
  194.6340  168.1840  144.9850 C   0  0  0  0  0  1  0  0  0  0  0  0
  194.0220  169.4280  145.1450 O   0  0  0  0  0  0  0  0  0  0  0  0
  193.0720  174.5650  142.5520 C   0  0  0  0  0  2  0  0  0  0  0  0
  193.9020  175.4460  143.3610 N   0  0  0  0  0  2  0  0  0  0  0  0
  193.8080  175.4910  144.7880 C   0  0  0  0  0  0  0  0  0  0  0  0
  193.0440  174.7010  145.4070 O   0  0  0  0  0  0  0  0  0  0  0  0
  194.6170  176.4750  145.5550 C   0  0  0  0  0  2  0  0  0  0  0  0
  193.9290  176.8070  146.8570 C   0  0  0  0  0  1  0  0  0  0  0  0
  1 42  1  1  0  0  0
  2  6  1  0  0  0  0
  3  5  1  0  0  0  0
  3  4  2  0  0  0  0
  5  1  1  0  0  0  0
  6  1  1  0  0  0  0
  6 17  1  0  0  0  0
  6  8  1  1  0  0  0
  7  9  1  6  0  0  0
  7  2  1  0  0  0  0
  7  5  1  0  0  0  0
  9 10  1  1  0  0  0
 11 15  1  6  0  0  0
 11  9  1  0  0  0  0
 12 14  1  0  0  0  0
 13 14  2  0  0  0  0
 14 11  1  0  0  0  0
 15 16  1  0  0  0  0
 18 19  1  0  0  0  0
 18 17  1  0  0  0  0
 20 21  1  0  0  0  0
 20 19  1  0  0  0  0
 21 23  1  6  0  0  0
 21 24  1  0  0  0  0
 22 23  1  0  0  0  0
 24 25  1  0  0  0  0
 25 27  1  0  0  0  0
 27 28  2  6  0  0  0
 27 26  1  0  0  0  0
 27 29  1  0  0  0  0
 30 29  1  6  0  0  0
 30 32  1  0  0  0  0
 30 33  1  0  0  0  0
 32 31  1  0  0  0  0
 34 36  1  0  0  0  0
 34 33  1  0  0  0  0
 35 34  2  0  0  0  0
 36 38  1  0  0  0  0
 37 38  1  0  0  0  0
 39  3  1  0  0  0  0
 40 41  1  0  0  0  0
 41 39  1  0  0  0  0
 42 43  1  0  0  0  0
 42 52  1  1  0  0  0
 43 45  1  0  0  0  0
 44 45  2  0  0  0  0
 45 46  1  0  0  0  0
 47 46  1  0  0  0  0
 47 48  1  0  0  0  0
 48 49  1  0  0  0  0
 49 51  1  0  0  0  0
 50 51  1  0  0  0  0
 52 53  1  0  0  0  0
 53 54  1  0  0  0  0
 54 55  2  0  0  0  0
 54 56  1  0  0  0  0
 56 57  1  0  0  0  0
M  END
>  <MODEL>
7

>  <REMARK>
 VINA RESULT:      -3.6      2.300      3.437
  Name = 
  33 active torsions:
  status: ('A' for Active; 'I' for Inactive)
    1  A    between atoms: C_2  and  C_19
    2  A    between atoms: C_2  and  C_38
    3  A    between atoms: C_2  and  O_44
    4  A    between atoms: C_4  and  C_14
    5  A    between atoms: C_5  and  O_10
    6  A    between atoms: C_5  and  C_26
    7  A    between atoms: C_6  and  P_8
    8  A    between atoms: C_6  and  C_27
    9  A    between atoms: P_8  and  O_13
   10  A    between atoms: C_9  and  C_31
   11  A    between atoms: O_10  and  C_17
   12  A    between atoms: O_13  and  C_19
   13  A    between atoms: C_14  and  C_35
   14  A    between atoms: C_14  and  O_36
   15  A    between atoms: O_16  and  C_28
   16  A    between atoms: O_16  and  C_30
   17  A    between atoms: C_17  and  O_36
   18  A    between atoms: C_18  and  C_23
   19  A    between atoms: C_20  and  C_56
   20  A    between atoms: C_23  and  C_43
   21  A    between atoms: C_23  and  C_46
   22  A    between atoms: C_26  and  C_39
   23  A    between atoms: C_27  and  C_42
   24  A    between atoms: C_27  and  C_50
   25  A    between atoms: N_29  and  C_35
   26  A    between atoms: C_30  and  C_42
   27  A    between atoms: C_37  and  C_54
   28  A    between atoms: C_39  and  O_45
   29  A    between atoms: C_40  and  O_44
   30  A    between atoms: C_40  and  P_49
   31  A    between atoms: C_41  and  C_46
   32  A    between atoms: P_49  and  C_54
   33  A    between atoms: C_51  and  C_56
                            x       y       z     vdW  Elec       q    Type
                         _______ _______ _______ _____ _____    ______ ____

>  <TORSDO>
F 33

$$$$
=
 OpenBabel11042419083D

 57 57  0  0  1  0  0  0  0  0999 V2000
  192.3430  172.5860  141.0650 C   0  0  1  0  0  3  0  0  0  0  0  0
  190.9750  171.6360  139.3530 O   0  0  0  0  0  0  0  0  0  0  0  0
  194.5070  171.3760  140.4500 C   0  0  0  0  0  0  0  0  0  0  0  0
  195.2440  172.1520  141.1170 O   0  0  0  0  0  0  0  0  0  0  0  0
  193.1150  171.6810  140.2600 N   0  0  0  0  0  0  0  0  0  0  0  0
  190.9110  172.3450  140.5770 C   0  0  1  0  0  0  0  0  0  0  0  0
  192.2810  171.1100  139.2210 C   0  0  2  0  0  3  0  0  0  0  0  0
  190.1610  171.5910  141.4880 O   0  0  0  0  0  1  0  0  0  0  0  0
  192.8460  171.4560  137.8410 C   0  0  2  0  0  3  0  0  0  0  0  0
  192.8650  172.8430  137.6680 O   0  0  0  0  0  1  0  0  0  0  0  0
  192.0410  170.7720  136.7270 C   0  0  2  0  0  3  0  0  0  0  0  0
  192.5840  168.3280  135.9700 C   0  0  0  0  0  1  0  0  0  0  0  0
  193.7880  170.2100  135.2470 O   0  0  0  0  0  0  0  0  0  0  0  0
  192.8710  169.7940  135.9380 C   0  0  0  0  0  0  0  0  0  0  0  0
  191.2950  171.7690  135.8210 C   0  0  0  0  0  2  0  0  0  0  0  0
  189.9910  171.2250  135.2620 C   0  0  0  0  0  1  0  0  0  0  0  0
  190.2440  173.6980  140.3600 C   0  0  0  0  0  2  0  0  0  0  0  0
  188.3890  173.5460  140.2110 P   0  0  0  0  0  2  0  0  0  0  0  0
  188.0500  175.0170  141.2960 C   0  0  0  0  0  2  0  0  0  0  0  0
  187.6800  176.1130  140.5110 O   0  0  0  0  0  0  0  0  0  0  0  0
  186.5110  176.5930  141.1000 C   0  0  2  0  0  3  0  0  0  0  0  0
  186.6350  177.9100  139.1260 O   0  0  0  0  0  1  0  0  0  0  0  0
  186.0720  177.8650  140.4000 C   0  0  0  0  0  2  0  0  0  0  0  0
  186.7600  176.8710  142.5680 C   0  0  0  0  0  2  0  0  0  0  0  0
  186.5770  178.2330  142.8210 O   0  0  0  0  0  0  0  0  0  0  0  0
  185.5380  179.8690  144.8620 O   0  0  0  0  0  1  0  0  0  0  0  0
  185.4990  178.3360  144.1320 P   0  0  1  0  0  0  0  0  0  0  0  0
  184.0980  178.0770  143.6210 O   0  0  0  0  0  0  0  0  0  0  0  0
  185.9170  177.0500  145.3510 C   0  0  0  0  0  2  0  0  0  0  0  0
  186.7140  177.6380  146.5090 C   0  0  1  0  0  3  0  0  0  0  0  0
  186.4910  178.5270  148.7340 O   0  0  0  0  0  1  0  0  0  0  0  0
  185.8000  178.2790  147.5460 C   0  0  0  0  0  2  0  0  0  0  0  0
  187.5790  176.5590  147.1450 C   0  0  0  0  0  2  0  0  0  0  0  0
  188.9710  176.6470  146.6210 C   0  0  0  0  0  0  0  0  0  0  0  0
  189.2430  177.5100  145.7400 O   0  0  0  0  0  0  0  0  0  0  0  0
  189.9440  175.7590  147.0810 O   0  0  0  0  0  0  0  0  0  0  0  0
  191.1950  177.1350  148.4420 O   0  0  0  0  0  1  0  0  0  0  0  0
  191.2550  176.1980  147.4080 C   0  0  0  0  0  2  0  0  0  0  0  0
  195.0830  170.1120  139.9000 C   0  0  0  0  0  2  0  0  0  0  0  0
  197.2110  168.8920  139.4390 C   0  0  0  0  0  1  0  0  0  0  0  0
  196.5710  170.0390  140.2090 C   0  0  0  0  0  2  0  0  0  0  0  0
  192.6250  172.4070  142.5710 C   0  0  2  0  0  3  0  0  0  0  0  0
  193.6800  173.2460  143.0320 O   0  0  0  0  0  0  0  0  0  0  0  0
  192.8690  173.9460  145.0750 O   0  0  0  0  0  0  0  0  0  0  0  0
  193.4860  174.2230  144.0080 C   0  0  0  0  0  0  0  0  0  0  0  0
  193.9710  175.5090  143.7780 O   0  0  0  0  0  0  0  0  0  0  0  0
  194.8150  175.8110  142.6780 C   0  0  0  0  0  2  0  0  0  0  0  0
  196.2610  175.8680  143.1370 C   0  0  0  0  0  2  0  0  0  0  0  0
  196.4410  175.1500  144.4680 C   0  0  0  0  0  2  0  0  0  0  0  0
  197.5390  173.5430  145.5170 C   0  0  0  0  0  1  0  0  0  0  0  0
  197.6810  174.5070  144.5160 O   0  0  0  0  0  0  0  0  0  0  0  0
  192.8130  170.9440  142.9760 C   0  0  0  0  0  2  0  0  0  0  0  0
  193.8750  170.8050  143.9620 N   0  0  0  0  0  2  0  0  0  0  0  0
  194.0660  169.6070  144.7190 C   0  0  0  0  0  0  0  0  0  0  0  0
  193.3560  168.5880  144.5000 O   0  0  0  0  0  0  0  0  0  0  0  0
  195.1110  169.5540  145.7760 C   0  0  0  0  0  2  0  0  0  0  0  0
  194.8910  168.3520  146.6610 C   0  0  0  0  0  1  0  0  0  0  0  0
  1 42  1  1  0  0  0
  2  6  1  0  0  0  0
  3  4  2  0  0  0  0
  5  3  1  0  0  0  0
  5  1  1  0  0  0  0
  6  1  1  0  0  0  0
  6  8  1  1  0  0  0
  7  9  1  6  0  0  0
  7  2  1  0  0  0  0
  7  5  1  0  0  0  0
  9 10  1  6  0  0  0
 11 15  1  6  0  0  0
 11  9  1  0  0  0  0
 13 14  2  0  0  0  0
 14 12  1  0  0  0  0
 14 11  1  0  0  0  0
 16 15  1  0  0  0  0
 17  6  1  0  0  0  0
 18 17  1  0  0  0  0
 18 19  1  0  0  0  0
 20 21  1  0  0  0  0
 20 19  1  0  0  0  0
 21 23  1  6  0  0  0
 21 24  1  0  0  0  0
 22 23  1  0  0  0  0
 24 25  1  0  0  0  0
 25 27  1  0  0  0  0
 27 28  2  6  0  0  0
 27 26  1  0  0  0  0
 27 29  1  0  0  0  0
 30 29  1  6  0  0  0
 30 33  1  0  0  0  0
 30 32  1  0  0  0  0
 32 31  1  0  0  0  0
 34 36  1  0  0  0  0
 34 33  1  0  0  0  0
 35 34  2  0  0  0  0
 36 38  1  0  0  0  0
 38 37  1  0  0  0  0
 39 41  1  0  0  0  0
 39  3  1  0  0  0  0
 40 41  1  0  0  0  0
 42 52  1  6  0  0  0
 42 43  1  0  0  0  0
 43 45  1  0  0  0  0
 45 44  2  0  0  0  0
 46 45  1  0  0  0  0
 47 48  1  0  0  0  0
 47 46  1  0  0  0  0
 48 49  1  0  0  0  0
 49 51  1  0  0  0  0
 51 50  1  0  0  0  0
 52 53  1  0  0  0  0
 53 54  1  0  0  0  0
 54 56  1  0  0  0  0
 55 54  2  0  0  0  0
 56 57  1  0  0  0  0
M  END
>  <MODEL>
8

>  <REMARK>
 VINA RESULT:      -3.5      1.575      2.288
  Name = 
  33 active torsions:
  status: ('A' for Active; 'I' for Inactive)
    1  A    between atoms: C_2  and  C_19
    2  A    between atoms: C_2  and  C_38
    3  A    between atoms: C_2  and  O_44
    4  A    between atoms: C_4  and  C_14
    5  A    between atoms: C_5  and  O_10
    6  A    between atoms: C_5  and  C_26
    7  A    between atoms: C_6  and  P_8
    8  A    between atoms: C_6  and  C_27
    9  A    between atoms: P_8  and  O_13
   10  A    between atoms: C_9  and  C_31
   11  A    between atoms: O_10  and  C_17
   12  A    between atoms: O_13  and  C_19
   13  A    between atoms: C_14  and  C_35
   14  A    between atoms: C_14  and  O_36
   15  A    between atoms: O_16  and  C_28
   16  A    between atoms: O_16  and  C_30
   17  A    between atoms: C_17  and  O_36
   18  A    between atoms: C_18  and  C_23
   19  A    between atoms: C_20  and  C_56
   20  A    between atoms: C_23  and  C_43
   21  A    between atoms: C_23  and  C_46
   22  A    between atoms: C_26  and  C_39
   23  A    between atoms: C_27  and  C_42
   24  A    between atoms: C_27  and  C_50
   25  A    between atoms: N_29  and  C_35
   26  A    between atoms: C_30  and  C_42
   27  A    between atoms: C_37  and  C_54
   28  A    between atoms: C_39  and  O_45
   29  A    between atoms: C_40  and  O_44
   30  A    between atoms: C_40  and  P_49
   31  A    between atoms: C_41  and  C_46
   32  A    between atoms: P_49  and  C_54
   33  A    between atoms: C_51  and  C_56
                            x       y       z     vdW  Elec       q    Type
                         _______ _______ _______ _____ _____    ______ ____

>  <TORSDO>
F 33

$$$$
=
 OpenBabel11042419083D

 57 57  0  0  1  0  0  0  0  0999 V2000
  194.1410  172.6790  141.3830 C   0  0  1  0  0  3  0  0  0  0  0  0
  195.5360  173.4040  143.1810 O   0  0  0  0  0  0  0  0  0  0  0  0
  195.1440  170.3440  141.1250 C   0  0  0  0  0  0  0  0  0  0  0  0
  194.1770  169.8990  140.4490 O   0  0  0  0  0  0  0  0  0  0  0  0
  195.0590  171.6370  141.7480 N   0  0  0  0  0  0  0  0  0  0  0  0
  194.6460  173.8810  142.1880 C   0  0  1  0  0  0  0  0  0  0  0  0
  195.9010  172.0810  142.8410 C   0  0  2  0  0  3  0  0  0  0  0  0
  195.3280  174.8060  141.3890 O   0  0  0  0  0  1  0  0  0  0  0  0
  195.7210  171.1620  144.0530 C   0  0  2  0  0  3  0  0  0  0  0  0
  194.5780  171.5330  144.7660 O   0  0  0  0  0  1  0  0  0  0  0  0
  196.9640  171.1840  144.9530 C   0  0  2  0  0  3  0  0  0  0  0  0
  197.2010  169.2990  146.7500 C   0  0  0  0  0  1  0  0  0  0  0  0
  197.9240  169.0730  144.5280 O   0  0  0  0  0  0  0  0  0  0  0  0
  197.4040  169.8030  145.3580 C   0  0  0  0  0  0  0  0  0  0  0  0
  196.8190  172.1290  146.1600 C   0  0  0  0  0  2  0  0  0  0  0  0
  197.4170  173.5070  145.9320 C   0  0  0  0  0  1  0  0  0  0  0  0
  193.4480  174.5560  142.8450 C   0  0  0  0  0  2  0  0  0  0  0  0
  193.8910  176.2220  143.5610 P   0  0  0  0  0  2  0  0  0  0  0  0
  192.4940  176.2120  144.7870 C   0  0  0  0  0  2  0  0  0  0  0  0
  191.3950  175.5370  144.2510 O   0  0  0  0  0  0  0  0  0  0  0  0
  190.5520  175.3090  145.3380 C   0  0  2  0  0  3  0  0  0  0  0  0
  190.0670  173.4720  143.9110 O   0  0  0  0  0  1  0  0  0  0  0  0
  189.9230  173.9350  145.2180 C   0  0  0  0  0  2  0  0  0  0  0  0
  189.4710  176.3700  145.3730 C   0  0  0  0  0  2  0  0  0  0  0  0
  188.3040  175.8270  145.9160 O   0  0  0  0  0  0  0  0  0  0  0  0
  185.5930  176.5490  146.1380 O   0  0  0  0  0  0  0  0  0  0  0  0
  187.1930  177.1080  146.0430 P   0  0  1  0  0  0  0  0  0  0  0  0
  187.5090  177.8920  147.2980 O   0  0  0  0  0  1  0  0  0  0  0  0
  187.3870  178.2120  144.6080 C   0  0  0  0  0  2  0  0  0  0  0  0
  186.2520  178.0130  143.6120 C   0  0  1  0  0  3  0  0  0  0  0  0
  185.3550  180.1390  144.3000 O   0  0  0  0  0  1  0  0  0  0  0  0
  185.0170  178.8140  144.0080 C   0  0  0  0  0  2  0  0  0  0  0  0
  186.7160  178.3910  142.2130 C   0  0  0  0  0  2  0  0  0  0  0  0
  186.8360  177.1690  141.3680 C   0  0  0  0  0  0  0  0  0  0  0  0
  187.4100  176.1480  141.8430 O   0  0  0  0  0  0  0  0  0  0  0  0
  186.3510  177.1770  140.0610 O   0  0  0  0  0  0  0  0  0  0  0  0
  186.1710  176.4110  137.8960 O   0  0  0  0  0  1  0  0  0  0  0  0
  186.9890  176.4420  139.0270 C   0  0  0  0  0  2  0  0  0  0  0  0
  196.3960  169.5360  141.2340 C   0  0  0  0  0  2  0  0  0  0  0  0
  196.8920  168.2870  139.1310 C   0  0  0  0  0  1  0  0  0  0  0  0
  197.1520  169.5660  139.9140 C   0  0  0  0  0  2  0  0  0  0  0  0
  194.0260  172.8410  139.8530 C   0  0  2  0  0  3  0  0  0  0  0  0
  192.9110  172.1390  139.3130 O   0  0  0  0  0  0  0  0  0  0  0  0
  191.3060  173.5810  140.1290 O   0  0  0  0  0  0  0  0  0  0  0  0
  191.5960  172.4430  139.6630 C   0  0  0  0  0  0  0  0  0  0  0  0
  190.6140  171.4670  139.5010 O   0  0  0  0  0  0  0  0  0  0  0  0
  190.0690  171.1490  138.2310 C   0  0  0  0  0  2  0  0  0  0  0  0
  190.5620  172.1440  137.1940 C   0  0  0  0  0  2  0  0  0  0  0  0
  189.7100  172.0860  135.9330 C   0  0  0  0  0  2  0  0  0  0  0  0
  189.0830  174.1050  136.5780 C   0  0  0  0  0  1  0  0  0  0  0  0
  189.4580  173.3730  135.4500 O   0  0  0  0  0  0  0  0  0  0  0  0
  195.3320  172.5330  139.1180 C   0  0  0  0  0  2  0  0  0  0  0  0
  195.0710  171.9680  137.8020 N   0  0  0  0  0  2  0  0  0  0  0  0
  195.0390  172.7680  136.6170 C   0  0  0  0  0  0  0  0  0  0  0  0
  195.3150  173.9980  136.6640 O   0  0  0  0  0  0  0  0  0  0  0  0
  194.6790  172.1500  135.3120 C   0  0  0  0  0  2  0  0  0  0  0  0
  195.1970  170.7340  135.2520 C   0  0  0  0  0  1  0  0  0  0  0  0
  1 42  1  6  0  0  0
  1  5  1  0  0  0  0
  1  6  1  0  0  0  0
  3 39  1  0  0  0  0
  3  5  1  0  0  0  0
  4  3  2  0  0  0  0
  5  7  1  0  0  0  0
  6  8  1  6  0  0  0
  6 17  1  0  0  0  0
  6  2  1  0  0  0  0
  7  2  1  0  0  0  0
  7  9  1  1  0  0  0
  9 10  1  1  0  0  0
  9 11  1  0  0  0  0
 11 14  1  0  0  0  0
 11 15  1  1  0  0  0
 13 14  2  0  0  0  0
 14 12  1  0  0  0  0
 16 15  1  0  0  0  0
 17 18  1  0  0  0  0
 18 19  1  0  0  0  0
 20 19  1  0  0  0  0
 20 21  1  0  0  0  0
 21 23  1  6  0  0  0
 21 24  1  0  0  0  0
 22 23  1  0  0  0  0
 24 25  1  0  0  0  0
 25 27  1  0  0  0  0
 27 26  2  1  0  0  0
 27 28  1  0  0  0  0
 29 27  1  0  0  0  0
 30 33  1  6  0  0  0
 30 32  1  0  0  0  0
 30 29  1  0  0  0  0
 32 31  1  0  0  0  0
 34 35  2  0  0  0  0
 34 33  1  0  0  0  0
 36 34  1  0  0  0  0
 37 38  1  0  0  0  0
 38 36  1  0  0  0  0
 40 41  1  0  0  0  0
 41 39  1  0  0  0  0
 42 52  1  6  0  0  0
 43 45  1  0  0  0  0
 43 42  1  0  0  0  0
 45 44  2  0  0  0  0
 46 45  1  0  0  0  0
 47 46  1  0  0  0  0
 48 47  1  0  0  0  0
 49 48  1  0  0  0  0
 51 49  1  0  0  0  0
 51 50  1  0  0  0  0
 53 52  1  0  0  0  0
 54 55  2  0  0  0  0
 54 53  1  0  0  0  0
 56 54  1  0  0  0  0
 57 56  1  0  0  0  0
M  END
>  <MODEL>
9

>  <REMARK>
 VINA RESULT:      -3.4      2.140      6.844
  Name = 
  33 active torsions:
  status: ('A' for Active; 'I' for Inactive)
    1  A    between atoms: C_2  and  C_19
    2  A    between atoms: C_2  and  C_38
    3  A    between atoms: C_2  and  O_44
    4  A    between atoms: C_4  and  C_14
    5  A    between atoms: C_5  and  O_10
    6  A    between atoms: C_5  and  C_26
    7  A    between atoms: C_6  and  P_8
    8  A    between atoms: C_6  and  C_27
    9  A    between atoms: P_8  and  O_13
   10  A    between atoms: C_9  and  C_31
   11  A    between atoms: O_10  and  C_17
   12  A    between atoms: O_13  and  C_19
   13  A    between atoms: C_14  and  C_35
   14  A    between atoms: C_14  and  O_36
   15  A    between atoms: O_16  and  C_28
   16  A    between atoms: O_16  and  C_30
   17  A    between atoms: C_17  and  O_36
   18  A    between atoms: C_18  and  C_23
   19  A    between atoms: C_20  and  C_56
   20  A    between atoms: C_23  and  C_43
   21  A    between atoms: C_23  and  C_46
   22  A    between atoms: C_26  and  C_39
   23  A    between atoms: C_27  and  C_42
   24  A    between atoms: C_27  and  C_50
   25  A    between atoms: N_29  and  C_35
   26  A    between atoms: C_30  and  C_42
   27  A    between atoms: C_37  and  C_54
   28  A    between atoms: C_39  and  O_45
   29  A    between atoms: C_40  and  O_44
   30  A    between atoms: C_40  and  P_49
   31  A    between atoms: C_41  and  C_46
   32  A    between atoms: P_49  and  C_54
   33  A    between atoms: C_51  and  C_56
                            x       y       z     vdW  Elec       q    Type
                         _______ _______ _______ _____ _____    ______ ____

>  <TORSDO>
F 33

$$$$
