=
 OpenBabel11042417483D

 25 28  0  0  1  0  0  0  0  0999 V2000
  189.3850  175.4770  142.7470 C   0  0  0  0  0  0  0  0  0  0  0  0
  184.3490  178.1870  141.6810 C   0  0  0  0  0  0  0  0  0  0  0  0
  190.7190  176.5190  145.2820 C   0  0  0  0  0  2  0  0  0  0  0  0
  188.4250  177.0510  144.5400 C   0  0  0  0  0  0  0  0  0  0  0  0
  191.9590  174.3770  145.4400 C   0  0  0  0  0  1  0  0  0  0  0  0
  190.9150  173.7050  142.9500 O   0  0  0  0  0  0  0  0  0  0  0  0
  185.4940  177.5920  141.3410 C   0  0  0  0  0  3  0  0  0  0  0  0
  190.4560  174.7570  143.4730 C   0  0  0  0  0  0  0  0  0  0  0  0
  188.9800  175.0760  141.4280 N   0  0  0  0  0  0  0  0  0  0  0  0
  185.1380  178.7870  143.9470 C   0  0  0  0  0  0  0  0  0  0  0  0
  189.2690  176.6070  145.7070 C   0  0  2  0  0  3  0  0  0  0  0  0
  187.6310  176.7010  142.1530 C   0  0  0  0  0  0  0  0  0  0  0  0
  187.9490  175.7780  141.0760 C   0  0  0  0  0  3  0  0  0  0  0  0
  186.5870  177.5100  142.3200 C   0  0  1  0  0  3  0  0  0  0  0  0
  187.3890  177.8970  144.7110 C   0  0  0  0  0  2  0  0  0  0  0  0
  183.2380  178.2510  140.6960 C   0  0  0  0  0  1  0  0  0  0  0  0
  188.5950  176.4530  143.1960 C   0  0  0  0  0  0  0  0  0  0  0  0
  184.1430  178.7190  143.0450 C   0  0  0  0  0  3  0  0  0  0  0  0
  190.9960  175.2050  144.7310 N   0  0  0  0  0  0  0  0  0  0  0  0
  189.1790  177.5460  146.9030 C   0  0  0  0  0  1  0  0  0  0  0  0
  186.5450  178.4000  143.5510 C   0  0  2  0  0  3  0  0  0  0  0  0
  184.9110  179.2810  145.2400 O   0  0  0  0  0  0  0  0  0  0  0  0
  184.1500  178.5880  146.2260 C   0  0  0  0  0  2  0  0  0  0  0  0
  184.9900  178.3550  147.4670 C   0  0  0  0  0  2  0  0  0  0  0  0
  185.8960  179.4030  147.6170 O   0  0  0  0  0  1  0  0  0  0  0  0
  1 17  1  0  0  0  0
  1  8  1  0  0  0  0
  2 18  1  0  0  0  0
  3 11  1  0  0  0  0
  4 15  1  0  0  0  0
  4 11  1  0  0  0  0
  6  8  2  0  0  0  0
  7  2  2  0  0  0  0
  8 19  1  0  0  0  0
  9  1  2  0  0  0  0
 10 22  1  0  0  0  0
 11 20  1  1  0  0  0
 12 14  1  0  0  0  0
 12 17  1  0  0  0  0
 13  9  1  0  0  0  0
 13 12  2  0  0  0  0
 14  7  1  6  0  0  0
 14 21  1  0  0  0  0
 16  2  1  0  0  0  0
 17  4  2  0  0  0  0
 18 10  2  0  0  0  0
 19  3  1  0  0  0  0
 19  5  1  0  0  0  0
 21 10  1  0  0  0  0
 21 15  1  1  0  0  0
 22 23  1  0  0  0  0
 23 24  1  0  0  0  0
 24 25  1  0  0  0  0
M  END
>  <MODEL>
1

>  <REMARK>
 VINA RESULT:      -7.5      0.000      0.000
  Name = 
  3 active torsions:
  status: ('A' for Active; 'I' for Inactive)
    1  A    between atoms: C_3  and  C_10
    2  A    between atoms: C_10  and  O_16
    3  A    between atoms: C_12  and  O_16
                            x       y       z     vdW  Elec       q    Type
                         _______ _______ _______ _____ _____    ______ ____

>  <TORSDO>
F 3

$$$$
=
 OpenBabel11042417483D

 25 28  0  0  1  0  0  0  0  0999 V2000
  190.0680  174.4910  145.0550 C   0  0  0  0  0  0  0  0  0  0  0  0
  186.2260  178.5720  146.6130 C   0  0  0  0  0  0  0  0  0  0  0  0
  189.5860  173.5050  142.2100 C   0  0  0  0  0  2  0  0  0  0  0  0
  188.4940  175.4530  143.2630 C   0  0  0  0  0  0  0  0  0  0  0  0
  191.9540  172.7740  142.1240 C   0  0  0  0  0  1  0  0  0  0  0  0
  192.1450  173.4170  144.8250 O   0  0  0  0  0  0  0  0  0  0  0  0
  187.0250  177.5240  146.8240 C   0  0  0  0  0  3  0  0  0  0  0  0
  191.0710  173.7510  144.2550 C   0  0  0  0  0  0  0  0  0  0  0  0
  190.2460  174.6980  146.4650 N   0  0  0  0  0  2  0  0  0  0  0  0
  186.0270  178.1430  144.1840 C   0  0  0  0  0  0  0  0  0  0  0  0
  189.2190  174.9630  142.0370 C   0  0  2  0  0  3  0  0  0  0  0  0
  188.4380  175.8120  145.7770 C   0  0  0  0  0  0  0  0  0  0  0  0
  189.3040  175.4770  146.8950 C   0  0  0  0  0  3  0  0  0  0  0  0
  187.4370  176.6850  145.6890 C   0  0  1  0  0  3  0  0  0  0  0  0
  187.4590  176.3130  143.1650 C   0  0  0  0  0  3  0  0  0  0  0  0
  185.8270  179.4290  147.7580 C   0  0  0  0  0  1  0  0  0  0  0  0
  188.9880  175.1440  144.6240 C   0  0  0  0  0  0  0  0  0  0  0  0
  185.7900  178.9330  145.2460 C   0  0  0  0  0  3  0  0  0  0  0  0
  190.8720  173.3930  142.8750 N   0  0  0  0  0  0  0  0  0  0  0  0
  188.3980  175.1000  140.7610 C   0  0  0  0  0  1  0  0  0  0  0  0
  186.6770  176.7930  144.3770 C   0  0  2  0  0  3  0  0  0  0  0  0
  185.6170  178.5200  142.8960 O   0  0  0  0  0  0  0  0  0  0  0  0
  184.3720  178.1360  142.3210 C   0  0  0  0  0  2  0  0  0  0  0  0
  184.4300  178.2690  140.8110 C   0  0  0  0  0  2  0  0  0  0  0  0
  185.7490  178.1300  140.3840 O   0  0  0  0  0  1  0  0  0  0  0  0
  1  9  1  0  0  0  0
  2  7  2  0  0  0  0
  2 16  1  0  0  0  0
  3 19  1  0  0  0  0
  4 17  1  0  0  0  0
  5 19  1  0  0  0  0
  8  6  2  0  0  0  0
  8  1  1  0  0  0  0
  9 13  1  0  0  0  0
 10 21  1  0  0  0  0
 10 18  2  0  0  0  0
 11 20  1  6  0  0  0
 11  3  1  0  0  0  0
 11  4  1  0  0  0  0
 12 13  2  0  0  0  0
 14 12  1  0  0  0  0
 14  7  1  1  0  0  0
 15  4  2  0  0  0  0
 17  1  2  0  0  0  0
 17 12  1  0  0  0  0
 18  2  1  0  0  0  0
 19  8  1  0  0  0  0
 21 15  1  6  0  0  0
 21 14  1  0  0  0  0
 22 10  1  0  0  0  0
 23 22  1  0  0  0  0
 24 23  1  0  0  0  0
 25 24  1  0  0  0  0
M  END
>  <MODEL>
2

>  <REMARK>
 VINA RESULT:      -7.2      1.928      4.331
  Name = 
  3 active torsions:
  status: ('A' for Active; 'I' for Inactive)
    1  A    between atoms: C_3  and  C_10
    2  A    between atoms: C_10  and  O_16
    3  A    between atoms: C_12  and  O_16
                            x       y       z     vdW  Elec       q    Type
                         _______ _______ _______ _____ _____    ______ ____

>  <TORSDO>
F 3

$$$$
=
 OpenBabel11042417483D

 25 28  0  0  1  0  0  0  0  0999 V2000
  186.1260  178.1710  145.6150 C   0  0  0  0  0  0  0  0  0  0  0  0
  191.4150  175.7970  146.0930 C   0  0  0  0  0  0  0  0  0  0  0  0
  185.5090  178.9980  142.7460 C   0  0  0  0  0  2  0  0  0  0  0  0
  187.4400  177.6410  143.4690 C   0  0  0  0  0  0  0  0  0  0  0  0
  183.0930  178.8700  143.2900 C   0  0  0  0  0  1  0  0  0  0  0  0
  183.8160  178.4500  145.9440 O   0  0  0  0  0  0  0  0  0  0  0  0
  190.3780  176.5250  146.5100 C   0  0  0  0  0  3  0  0  0  0  0  0
  184.7620  178.4500  145.1100 C   0  0  0  0  0  0  0  0  0  0  0  0
  186.3880  178.0450  147.0210 N   0  0  0  0  0  2  0  0  0  0  0  0
  190.8420  176.0450  143.6990 C   0  0  0  0  0  0  0  0  0  0  0  0
  186.3090  177.7420  142.4780 C   0  0  2  0  0  3  0  0  0  0  0  0
  188.2410  177.5530  145.8770 C   0  0  0  0  0  0  0  0  0  0  0  0
  187.6190  177.6740  147.1850 C   0  0  0  0  0  3  0  0  0  0  0  0
  189.4300  177.0680  145.5260 C   0  0  1  0  0  3  0  0  0  0  0  0
  188.6520  177.1790  143.0980 C   0  0  0  0  0  3  0  0  0  0  0  0
  192.3610  175.2340  147.0900 C   0  0  0  0  0  1  0  0  0  0  0  0
  187.2230  177.8870  144.9130 C   0  0  0  0  0  0  0  0  0  0  0  0
  191.5970  175.4820  144.6590 C   0  0  0  0  0  3  0  0  0  0  0  0
  184.4730  178.7270  143.7270 N   0  0  0  0  0  0  0  0  0  0  0  0
  186.7820  177.7770  141.0310 C   0  0  0  0  0  1  0  0  0  0  0  0
  189.8280  177.1060  144.0600 C   0  0  2  0  0  3  0  0  0  0  0  0
  191.0240  175.7140  142.3480 O   0  0  0  0  0  0  0  0  0  0  0  0
  191.0600  174.3760  141.8620 C   0  0  0  0  0  2  0  0  0  0  0  0
  189.6560  173.8050  141.7950 C   0  0  0  0  0  2  0  0  0  0  0  0
  188.9200  174.4950  140.8340 O   0  0  0  0  0  1  0  0  0  0  0  0
  1  9  1  0  0  0  0
  2  7  2  0  0  0  0
  2 16  1  0  0  0  0
  3 19  1  0  0  0  0
  4 17  1  0  0  0  0
  5 19  1  0  0  0  0
  8  1  1  0  0  0  0
  8  6  2  0  0  0  0
  9 13  1  0  0  0  0
 10 21  1  0  0  0  0
 10 18  2  0  0  0  0
 11 20  1  6  0  0  0
 11  3  1  0  0  0  0
 11  4  1  0  0  0  0
 12 13  2  0  0  0  0
 14 12  1  0  0  0  0
 14  7  1  1  0  0  0
 15  4  2  0  0  0  0
 17  1  2  0  0  0  0
 17 12  1  0  0  0  0
 18  2  1  0  0  0  0
 19  8  1  0  0  0  0
 21 15  1  6  0  0  0
 21 14  1  0  0  0  0
 22 10  1  0  0  0  0
 23 22  1  0  0  0  0
 24 23  1  0  0  0  0
 25 24  1  0  0  0  0
M  END
>  <MODEL>
3

>  <REMARK>
 VINA RESULT:      -7.1      2.299      7.015
  Name = 
  3 active torsions:
  status: ('A' for Active; 'I' for Inactive)
    1  A    between atoms: C_3  and  C_10
    2  A    between atoms: C_10  and  O_16
    3  A    between atoms: C_12  and  O_16
                            x       y       z     vdW  Elec       q    Type
                         _______ _______ _______ _____ _____    ______ ____

>  <TORSDO>
F 3

$$$$
=
 OpenBabel11042417483D

 25 28  0  0  1  0  0  0  0  0999 V2000
  186.6720  176.6770  143.1120 C   0  0  0  0  0  0  0  0  0  0  0  0
  191.7590  174.2660  144.5780 C   0  0  0  0  0  0  0  0  0  0  0  0
  185.0560  177.4960  145.5640 C   0  0  0  0  0  2  0  0  0  0  0  0
  187.4100  176.7520  145.5750 C   0  0  0  0  0  0  0  0  0  0  0  0
  183.8340  179.1210  144.1450 C   0  0  0  0  0  1  0  0  0  0  0  0
  185.1520  178.0380  141.9460 O   0  0  0  0  0  0  0  0  0  0  0  0
  190.6650  174.4130  143.8280 C   0  0  0  0  0  3  0  0  0  0  0  0
  185.5370  177.6280  143.0750 C   0  0  0  0  0  0  0  0  0  0  0  0
  187.2230  176.1280  141.9050 N   0  0  0  0  0  0  0  0  0  0  0  0
  190.7190  175.2700  146.5860 C   0  0  0  0  0  0  0  0  0  0  0  0
  186.4500  177.8030  146.0680 C   0  0  2  0  0  3  0  0  0  0  0  0
  188.4640  175.4810  143.6440 C   0  0  0  0  0  0  0  0  0  0  0  0
  188.2770  175.4360  142.2040 C   0  0  0  0  0  3  0  0  0  0  0  0
  189.4730  175.0530  144.4010 C   0  0  1  0  0  3  0  0  0  0  0  0
  188.4100  176.2990  146.3580 C   0  0  0  0  0  2  0  0  0  0  0  0
  192.9690  173.6360  143.9920 C   0  0  0  0  0  1  0  0  0  0  0  0
  187.3960  176.2970  144.1660 C   0  0  0  0  0  0  0  0  0  0  0  0
  191.8080  174.7860  145.9620 C   0  0  0  0  0  3  0  0  0  0  0  0
  184.8580  178.0930  144.2560 N   0  0  0  0  0  0  0  0  0  0  0  0
  186.3970  177.9010  147.5870 C   0  0  0  0  0  1  0  0  0  0  0  0
  189.3700  175.2080  145.9080 C   0  0  2  0  0  3  0  0  0  0  0  0
  190.7980  175.7730  147.8930 O   0  0  0  0  0  0  0  0  0  0  0  0
  191.7110  176.7910  148.2930 C   0  0  0  0  0  2  0  0  0  0  0  0
  190.9580  177.9630  148.8920 C   0  0  0  0  0  2  0  0  0  0  0  0
  191.5630  178.3400  150.0900 O   0  0  0  0  0  1  0  0  0  0  0  0
  1 17  1  0  0  0  0
  2 18  1  0  0  0  0
  3 11  1  0  0  0  0
  4 11  1  0  0  0  0
  4 15  1  0  0  0  0
  5 19  1  0  0  0  0
  6  8  2  0  0  0  0
  7  2  2  0  0  0  0
  8  1  1  0  0  0  0
  8 19  1  0  0  0  0
  9 13  1  0  0  0  0
  9  1  2  0  0  0  0
 10 22  1  0  0  0  0
 11 20  1  1  0  0  0
 12 17  1  0  0  0  0
 12 14  1  0  0  0  0
 13 12  2  0  0  0  0
 14  7  1  1  0  0  0
 14 21  1  0  0  0  0
 16  2  1  0  0  0  0
 17  4  2  0  0  0  0
 18 10  2  0  0  0  0
 19  3  1  0  0  0  0
 21 15  1  6  0  0  0
 21 10  1  0  0  0  0
 22 23  1  0  0  0  0
 23 24  1  0  0  0  0
 24 25  1  0  0  0  0
M  END
>  <MODEL>
4

>  <REMARK>
 VINA RESULT:      -7.0      2.587      6.077
  Name = 
  3 active torsions:
  status: ('A' for Active; 'I' for Inactive)
    1  A    between atoms: C_3  and  C_10
    2  A    between atoms: C_10  and  O_16
    3  A    between atoms: C_12  and  O_16
                            x       y       z     vdW  Elec       q    Type
                         _______ _______ _______ _____ _____    ______ ____

>  <TORSDO>
F 3

$$$$
=
 OpenBabel11042417483D

 25 28  0  0  1  0  0  0  0  0999 V2000
  191.8660  176.1600  146.3630 C   0  0  0  0  0  0  0  0  0  0  0  0
  186.3270  177.9380  146.4180 C   0  0  0  0  0  0  0  0  0  0  0  0
  192.4380  174.3020  144.0150 C   0  0  0  0  0  2  0  0  0  0  0  0
  190.3750  175.6190  144.3380 C   0  0  0  0  0  0  0  0  0  0  0  0
  194.8360  174.9000  144.2010 C   0  0  0  0  0  1  0  0  0  0  0  0
  194.2060  176.2900  146.5280 O   0  0  0  0  0  0  0  0  0  0  0  0
  187.4780  177.5600  146.9770 C   0  0  0  0  0  3  0  0  0  0  0  0
  193.2260  175.8470  145.8690 C   0  0  0  0  0  0  0  0  0  0  0  0
  191.6650  176.8220  147.6220 N   0  0  0  0  0  2  0  0  0  0  0  0
  186.7990  176.7950  144.2760 C   0  0  0  0  0  0  0  0  0  0  0  0
  191.4540  175.2440  143.3560 C   0  0  2  0  0  3  0  0  0  0  0  0
  189.7010  176.6000  146.5830 C   0  0  0  0  0  0  0  0  0  0  0  0
  190.4040  177.0930  147.7550 C   0  0  0  0  0  3  0  0  0  0  0  0
  188.4380  176.7680  146.1960 C   0  0  1  0  0  3  0  0  0  0  0  0
  189.0910  175.7560  143.9460 C   0  0  0  0  0  3  0  0  0  0  0  0
  185.3660  178.7550  147.2020 C   0  0  0  0  0  1  0  0  0  0  0  0
  190.7020  176.0110  145.7280 C   0  0  0  0  0  0  0  0  0  0  0  0
  186.0250  177.6160  145.0060 C   0  0  0  0  0  3  0  0  0  0  0  0
  193.4760  175.0600  144.6890 N   0  0  0  0  0  0  0  0  0  0  0  0
  190.9130  174.5690  142.1020 C   0  0  0  0  0  1  0  0  0  0  0  0
  187.9710  176.0900  144.9190 C   0  0  2  0  0  3  0  0  0  0  0  0
  186.4990  176.5210  142.9320 O   0  0  0  0  0  0  0  0  0  0  0  0
  186.3230  177.5300  141.9420 C   0  0  0  0  0  2  0  0  0  0  0  0
  187.5160  177.5560  141.0050 C   0  0  0  0  0  2  0  0  0  0  0  0
  188.5510  178.2820  141.5910 O   0  0  0  0  0  1  0  0  0  0  0  0
  1  9  1  0  0  0  0
  2  7  2  0  0  0  0
  2 16  1  0  0  0  0
  3 19  1  0  0  0  0
  4 17  1  0  0  0  0
  5 19  1  0  0  0  0
  8  1  1  0  0  0  0
  8  6  2  0  0  0  0
  9 13  1  0  0  0  0
 10 21  1  0  0  0  0
 10 18  2  0  0  0  0
 11 20  1  6  0  0  0
 11  3  1  0  0  0  0
 11  4  1  0  0  0  0
 12 13  2  0  0  0  0
 14 12  1  0  0  0  0
 14  7  1  1  0  0  0
 15  4  2  0  0  0  0
 17  1  2  0  0  0  0
 17 12  1  0  0  0  0
 18  2  1  0  0  0  0
 19  8  1  0  0  0  0
 21 15  1  6  0  0  0
 21 14  1  0  0  0  0
 22 10  1  0  0  0  0
 23 22  1  0  0  0  0
 24 25  1  0  0  0  0
 24 23  1  0  0  0  0
M  END
>  <MODEL>
5

>  <REMARK>
 VINA RESULT:      -6.9      2.544      4.789
  Name = 
  3 active torsions:
  status: ('A' for Active; 'I' for Inactive)
    1  A    between atoms: C_3  and  C_10
    2  A    between atoms: C_10  and  O_16
    3  A    between atoms: C_12  and  O_16
                            x       y       z     vdW  Elec       q    Type
                         _______ _______ _______ _____ _____    ______ ____

>  <TORSDO>
F 3

$$$$
=
 OpenBabel11042417483D

 25 28  0  0  1  0  0  0  0  0999 V2000
  186.3980  177.0320  142.6510 C   0  0  0  0  0  0  0  0  0  0  0  0
  191.5870  174.4020  142.6380 C   0  0  0  0  0  0  0  0  0  0  0  0
  185.1930  177.1490  145.4490 C   0  0  0  0  0  2  0  0  0  0  0  0
  187.5020  176.4660  144.9040 C   0  0  0  0  0  0  0  0  0  0  0  0
  183.8110  179.0710  144.7100 C   0  0  0  0  0  1  0  0  0  0  0  0
  184.7540  178.6280  142.1300 O   0  0  0  0  0  0  0  0  0  0  0  0
  190.3960  174.7240  142.1280 C   0  0  0  0  0  3  0  0  0  0  0  0
  185.2950  177.9410  143.0390 C   0  0  0  0  0  0  0  0  0  0  0  0
  186.7470  176.8300  141.2720 N   0  0  0  0  0  0  0  0  0  0  0  0
  190.8880  174.8230  144.9730 C   0  0  0  0  0  0  0  0  0  0  0  0
  186.6540  177.3350  145.7970 C   0  0  2  0  0  3  0  0  0  0  0  0
  188.2200  175.7670  142.5700 C   0  0  0  0  0  0  0  0  0  0  0  0
  187.8160  176.1010  141.2140 C   0  0  0  0  0  3  0  0  0  0  0  0
  189.3210  175.1710  143.0240 C   0  0  1  0  0  3  0  0  0  0  0  0
  188.5980  175.8390  145.3780 C   0  0  0  0  0  2  0  0  0  0  0  0
  192.6780  173.9680  141.7280 C   0  0  0  0  0  1  0  0  0  0  0  0
  187.2630  176.3990  143.4440 C   0  0  0  0  0  0  0  0  0  0  0  0
  191.8570  174.5390  144.0850 C   0  0  0  0  0  3  0  0  0  0  0  0
  184.8140  178.0670  144.3900 N   0  0  0  0  0  0  0  0  0  0  0  0
  186.8340  177.0270  147.2780 C   0  0  0  0  0  1  0  0  0  0  0  0
  189.4500  174.9210  144.5170 C   0  0  2  0  0  3  0  0  0  0  0  0
  191.1760  174.9650  146.3390 O   0  0  0  0  0  0  0  0  0  0  0  0
  192.0140  175.9900  146.8650 C   0  0  0  0  0  2  0  0  0  0  0  0
  191.3560  176.6370  148.0690 C   0  0  0  0  0  2  0  0  0  0  0  0
  190.3870  177.5410  147.6380 O   0  0  0  0  0  1  0  0  0  0  0  0
  1  8  1  0  0  0  0
  1 17  1  0  0  0  0
  2 18  1  0  0  0  0
  3 11  1  0  0  0  0
  4 15  1  0  0  0  0
  4 11  1  0  0  0  0
  6  8  2  0  0  0  0
  7  2  2  0  0  0  0
  8 19  1  0  0  0  0
  9  1  2  0  0  0  0
 10 22  1  0  0  0  0
 11 20  1  1  0  0  0
 12 14  1  0  0  0  0
 12 17  1  0  0  0  0
 13  9  1  0  0  0  0
 13 12  2  0  0  0  0
 14  7  1  6  0  0  0
 14 21  1  0  0  0  0
 16  2  1  0  0  0  0
 17  4  2  0  0  0  0
 18 10  2  0  0  0  0
 19  5  1  0  0  0  0
 19  3  1  0  0  0  0
 21 10  1  0  0  0  0
 21 15  1  1  0  0  0
 22 23  1  0  0  0  0
 23 24  1  0  0  0  0
 25 24  1  0  0  0  0
M  END
>  <MODEL>
6

>  <REMARK>
 VINA RESULT:      -6.8      2.371      5.924
  Name = 
  3 active torsions:
  status: ('A' for Active; 'I' for Inactive)
    1  A    between atoms: C_3  and  C_10
    2  A    between atoms: C_10  and  O_16
    3  A    between atoms: C_12  and  O_16
                            x       y       z     vdW  Elec       q    Type
                         _______ _______ _______ _____ _____    ______ ____

>  <TORSDO>
F 3

$$$$
=
 OpenBabel11042417483D

 25 28  0  0  1  0  0  0  0  0999 V2000
  185.8830  178.2170  145.3150 C   0  0  0  0  0  0  0  0  0  0  0  0
  190.8320  175.7080  147.0650 C   0  0  0  0  0  0  0  0  0  0  0  0
  185.7830  178.5370  142.2850 C   0  0  0  0  0  2  0  0  0  0  0  0
  187.4670  177.2390  143.5400 C   0  0  0  0  0  0  0  0  0  0  0  0
  183.3100  178.6320  142.4350 C   0  0  0  0  0  1  0  0  0  0  0  0
  183.5800  178.6670  145.2050 O   0  0  0  0  0  0  0  0  0  0  0  0
  189.8030  176.5510  147.1730 C   0  0  0  0  0  3  0  0  0  0  0  0
  184.6400  178.4670  144.5510 C   0  0  0  0  0  0  0  0  0  0  0  0
  185.9150  178.3360  146.7460 N   0  0  0  0  0  2  0  0  0  0  0  0
  190.6560  175.5430  144.6030 C   0  0  0  0  0  0  0  0  0  0  0  0
  186.5140  177.2140  142.3740 C   0  0  2  0  0  3  0  0  0  0  0  0
  187.8780  177.5520  146.0280 C   0  0  0  0  0  0  0  0  0  0  0  0
  187.0730  177.9410  147.1730 C   0  0  0  0  0  3  0  0  0  0  0  0
  189.0640  176.9520  145.9670 C   0  0  1  0  0  3  0  0  0  0  0  0
  188.6820  176.6570  143.4610 C   0  0  0  0  0  3  0  0  0  0  0  0
  191.5650  175.2890  148.2870 C   0  0  0  0  0  1  0  0  0  0  0  0
  187.0500  177.7550  144.8640 C   0  0  0  0  0  0  0  0  0  0  0  0
  191.2070  175.1270  145.7570 C   0  0  0  0  0  3  0  0  0  0  0  0
  184.5910  178.5020  143.1120 N   0  0  0  0  0  0  0  0  0  0  0  0
  187.2050  176.9600  141.0410 C   0  0  0  0  0  1  0  0  0  0  0  0
  189.6850  176.7010  144.6030 C   0  0  2  0  0  3  0  0  0  0  0  0
  191.0180  174.9620  143.3780 O   0  0  0  0  0  0  0  0  0  0  0  0
  191.9340  175.5570  142.4640 C   0  0  0  0  0  2  0  0  0  0  0  0
  193.3610  175.2850  142.9030 C   0  0  0  0  0  2  0  0  0  0  0  0
  193.8770  176.4150  143.5320 O   0  0  0  0  0  1  0  0  0  0  0  0
  1  9  1  0  0  0  0
  2  7  2  0  0  0  0
  2 16  1  0  0  0  0
  3 11  1  0  0  0  0
  3 19  1  0  0  0  0
  4 17  1  0  0  0  0
  5 19  1  0  0  0  0
  8  6  2  0  0  0  0
  8  1  1  0  0  0  0
  9 13  1  0  0  0  0
 10 18  2  0  0  0  0
 11 20  1  6  0  0  0
 11  4  1  0  0  0  0
 12 13  2  0  0  0  0
 14 12  1  0  0  0  0
 14  7  1  1  0  0  0
 15  4  2  0  0  0  0
 17  1  2  0  0  0  0
 17 12  1  0  0  0  0
 18  2  1  0  0  0  0
 19  8  1  0  0  0  0
 21 15  1  6  0  0  0
 21 10  1  0  0  0  0
 21 14  1  0  0  0  0
 22 10  1  0  0  0  0
 23 24  1  0  0  0  0
 23 22  1  0  0  0  0
 24 25  1  0  0  0  0
M  END
>  <MODEL>
7

>  <REMARK>
 VINA RESULT:      -6.7      2.383      7.142
  Name = 
  3 active torsions:
  status: ('A' for Active; 'I' for Inactive)
    1  A    between atoms: C_3  and  C_10
    2  A    between atoms: C_10  and  O_16
    3  A    between atoms: C_12  and  O_16
                            x       y       z     vdW  Elec       q    Type
                         _______ _______ _______ _____ _____    ______ ____

>  <TORSDO>
F 3

$$$$
=
 OpenBabel11042417483D

 25 28  0  0  1  0  0  0  0  0999 V2000
  187.3880  176.6560  146.0210 C   0  0  0  0  0  0  0  0  0  0  0  0
  190.8710  173.2810  142.8080 C   0  0  0  0  0  0  0  0  0  0  0  0
  185.6800  178.4960  144.2910 C   0  0  0  0  0  2  0  0  0  0  0  0
  187.0700  176.6290  143.4680 C   0  0  0  0  0  0  0  0  0  0  0  0
  184.0670  178.6650  146.1650 C   0  0  0  0  0  1  0  0  0  0  0  0
  185.8850  177.2510  147.7260 O   0  0  0  0  0  0  0  0  0  0  0  0
  190.5520  174.0150  143.8760 C   0  0  0  0  0  3  0  0  0  0  0  0
  186.1690  177.3460  146.5010 C   0  0  0  0  0  0  0  0  0  0  0  0
  188.2930  176.0190  146.9360 N   0  0  0  0  0  2  0  0  0  0  0  0
  189.2440  174.4190  141.3320 C   0  0  0  0  0  0  0  0  0  0  0  0
  185.7090  177.2710  143.4020 C   0  0  2  0  0  3  0  0  0  0  0  0
  188.9360  175.5880  144.8420 C   0  0  0  0  0  0  0  0  0  0  0  0
  189.1960  175.3840  146.2570 C   0  0  0  0  0  3  0  0  0  0  0  0
  189.4920  175.0270  143.7700 C   0  0  1  0  0  3  0  0  0  0  0  0
  187.6420  176.0910  142.3710 C   0  0  0  0  0  3  0  0  0  0  0  0
  191.9290  172.2450  142.9220 C   0  0  0  0  0  1  0  0  0  0  0  0
  187.7580  176.4160  144.7620 C   0  0  0  0  0  0  0  0  0  0  0  0
  190.1360  173.4340  141.5330 C   0  0  0  0  0  3  0  0  0  0  0  0
  185.3100  178.1200  145.6430 N   0  0  0  0  0  0  0  0  0  0  0  0
  185.3150  177.6950  141.9930 C   0  0  0  0  0  1  0  0  0  0  0  0
  189.0320  175.4740  142.3930 C   0  0  2  0  0  3  0  0  0  0  0  0
  188.5490  174.5300  140.1180 O   0  0  0  0  0  0  0  0  0  0  0  0
  188.6080  173.5520  139.0840 C   0  0  0  0  0  2  0  0  0  0  0  0
  188.1920  174.1660  137.7600 C   0  0  0  0  0  2  0  0  0  0  0  0
  188.9540  173.6140  136.7330 O   0  0  0  0  0  1  0  0  0  0  0  0
  1  8  1  0  0  0  0
  1  9  1  0  0  0  0
  2 16  1  0  0  0  0
  2  7  2  0  0  0  0
  3 19  1  0  0  0  0
  4 17  1  0  0  0  0
  8  6  2  0  0  0  0
 10 18  2  0  0  0  0
 10 21  1  0  0  0  0
 11 20  1  6  0  0  0
 11  4  1  0  0  0  0
 11  3  1  0  0  0  0
 12 13  2  0  0  0  0
 13  9  1  0  0  0  0
 14  7  1  6  0  0  0
 14 12  1  0  0  0  0
 15  4  2  0  0  0  0
 17 12  1  0  0  0  0
 17  1  2  0  0  0  0
 18  2  1  0  0  0  0
 19  5  1  0  0  0  0
 19  8  1  0  0  0  0
 21 15  1  1  0  0  0
 21 14  1  0  0  0  0
 22 10  1  0  0  0  0
 23 22  1  0  0  0  0
 24 23  1  0  0  0  0
 25 24  1  0  0  0  0
M  END
>  <MODEL>
8

>  <REMARK>
 VINA RESULT:      -6.7      2.660      6.985
  Name = 
  3 active torsions:
  status: ('A' for Active; 'I' for Inactive)
    1  A    between atoms: C_3  and  C_10
    2  A    between atoms: C_10  and  O_16
    3  A    between atoms: C_12  and  O_16
                            x       y       z     vdW  Elec       q    Type
                         _______ _______ _______ _____ _____    ______ ____

>  <TORSDO>
F 3

$$$$
=
 OpenBabel11042417483D

 25 28  0  0  1  0  0  0  0  0999 V2000
  188.1910  175.3970  140.9140 C   0  0  0  0  0  0  0  0  0  0  0  0
  186.5940  177.9200  145.9070 C   0  0  0  0  0  0  0  0  0  0  0  0
  190.5350  173.4870  141.3070 C   0  0  0  0  0  2  0  0  0  0  0  0
  189.2320  174.5570  143.1100 C   0  0  0  0  0  0  0  0  0  0  0  0
  189.8480  172.3100  139.2360 C   0  0  0  0  0  1  0  0  0  0  0  0
  187.9650  174.3200  138.8380 O   0  0  0  0  0  0  0  0  0  0  0  0
  186.7990  177.8760  144.5890 C   0  0  0  0  0  3  0  0  0  0  0  0
  188.5760  174.3490  139.9400 C   0  0  0  0  0  0  0  0  0  0  0  0
  187.2560  176.4290  140.5650 N   0  0  0  0  0  0  0  0  0  0  0  0
  188.1970  176.0980  146.3850 C   0  0  0  0  0  0  0  0  0  0  0  0
  189.8000  173.2540  142.6090 C   0  0  2  0  0  3  0  0  0  0  0  0
  187.7680  176.5970  142.7320 C   0  0  0  0  0  0  0  0  0  0  0  0
  186.9940  177.1310  141.6230 C   0  0  0  0  0  3  0  0  0  0  0  0
  187.7280  176.8830  144.0320 C   0  0  1  0  0  3  0  0  0  0  0  0
  189.2250  174.8540  144.4260 C   0  0  0  0  0  2  0  0  0  0  0  0
  185.6400  178.9120  146.4650 C   0  0  0  0  0  1  0  0  0  0  0  0
  188.5150  175.4830  142.2040 C   0  0  0  0  0  0  0  0  0  0  0  0
  187.2470  176.9480  146.8110 C   0  0  0  0  0  3  0  0  0  0  0  0
  189.6120  173.3810  140.1910 N   0  0  0  0  0  0  0  0  0  0  0  0
  190.7660  172.6040  143.5920 C   0  0  0  0  0  1  0  0  0  0  0  0
  188.7000  176.1760  144.9620 C   0  0  2  0  0  3  0  0  0  0  0  0
  188.7870  175.1750  147.2620 O   0  0  0  0  0  0  0  0  0  0  0  0
  190.1940  175.0540  147.4500 C   0  0  0  0  0  2  0  0  0  0  0  0
  190.8160  176.4250  147.6390 C   0  0  0  0  0  2  0  0  0  0  0  0
  191.8270  176.6100  146.6980 O   0  0  0  0  0  1  0  0  0  0  0  0
  1 17  1  0  0  0  0
  2 16  1  0  0  0  0
  2 18  1  0  0  0  0
  3 11  1  0  0  0  0
  4 15  1  0  0  0  0
  5 19  1  0  0  0  0
  6  8  2  0  0  0  0
  7  2  2  0  0  0  0
  8 19  1  0  0  0  0
  8  1  1  0  0  0  0
  9  1  2  0  0  0  0
  9 13  1  0  0  0  0
 10 18  2  0  0  0  0
 10 22  1  0  0  0  0
 11  4  1  0  0  0  0
 11 20  1  1  0  0  0
 12 14  1  0  0  0  0
 13 12  2  0  0  0  0
 14  7  1  6  0  0  0
 14 21  1  0  0  0  0
 17 12  1  0  0  0  0
 17  4  2  0  0  0  0
 19  3  1  0  0  0  0
 21 15  1  6  0  0  0
 21 10  1  0  0  0  0
 22 23  1  0  0  0  0
 23 24  1  0  0  0  0
 25 24  1  0  0  0  0
M  END
>  <MODEL>
9

>  <REMARK>
 VINA RESULT:      -6.6      2.723      4.670
  Name = 
  3 active torsions:
  status: ('A' for Active; 'I' for Inactive)
    1  A    between atoms: C_3  and  C_10
    2  A    between atoms: C_10  and  O_16
    3  A    between atoms: C_12  and  O_16
                            x       y       z     vdW  Elec       q    Type
                         _______ _______ _______ _____ _____    ______ ____

>  <TORSDO>
F 3

$$$$
