=
 OpenBabel11042415263D

 63 68  0  0  1  0  0  0  0  0999 V2000
  196.1490  174.4230  140.8770 C   0  0  2  0  0  3  0  0  0  0  0  0
  193.8680  174.7050  139.9010 C   0  0  0  0  0  3  0  0  0  0  0  0
  195.1950  174.5920  139.7150 C   0  0  0  0  0  0  0  0  0  0  0  0
  196.6240  176.3970  143.9650 C   0  0  0  0  0  2  0  0  0  0  0  0
  195.2200  176.3750  143.8510 O   0  0  0  0  0  0  0  0  0  0  0  0
  193.6010  175.8400  142.1160 C   0  0  1  0  0  3  0  0  0  0  0  0
  194.9370  175.5100  142.7800 C   0  0  1  0  0  3  0  0  0  0  0  0
  193.1780  174.6730  141.2310 C   0  0  0  0  0  2  0  0  0  0  0  0
  197.2400  175.7730  142.7280 C   0  0  0  0  0  2  0  0  0  0  0  0
  196.0730  175.6420  141.8000 C   0  0  1  0  0  3  0  0  0  0  0  0
  197.7340  172.9010  140.5790 C   0  0  0  0  0  1  0  0  0  0  0  0
  197.4550  174.2570  140.4000 O   0  0  0  0  0  0  0  0  0  0  0  0
  195.7270  174.6270  138.4180 O   0  0  0  0  0  0  0  0  0  0  0  0
  195.0660  175.2560  137.3260 C   0  0  0  0  0  2  0  0  0  0  0  0
  195.5710  174.6720  136.0170 C   0  0  0  0  0  2  0  0  0  0  0  0
  194.5430  173.9870  135.3680 O   0  0  0  0  0  0  0  0  0  0  0  0
  193.3770  174.6040  135.8130 C   0  0  0  0  0  2  0  0  0  0  0  0
  192.2090  173.6340  135.7320 C   0  0  0  0  0  2  0  0  0  0  0  0
  191.9530  173.0440  137.1060 C   0  0  0  0  0  2  0  0  0  0  0  0
  191.0280  171.8440  137.0040 C   0  0  0  0  0  2  0  0  0  0  0  0
  191.7170  170.6180  137.5820 C   0  0  1  0  0  3  0  0  0  0  0  0
  192.9730  171.0280  138.3620 C   0  0  0  0  0  2  0  0  0  0  0  0
  190.9210  169.4150  141.1050 C   0  0  0  0  0  2  0  0  0  0  0  0
  193.0130  171.4970  140.8430 C   0  0  0  0  0  2  0  0  0  0  0  0
  191.8970  169.6100  142.2620 C   0  0  0  0  0  2  0  0  0  0  0  0
  192.8670  170.4180  139.7690 C   0  0  1  0  0  3  0  0  0  0  0  0
  192.5020  171.0270  142.2370 C   0  0  1  0  0  3  0  0  0  0  0  0
  189.7210  169.5200  138.4010 O   0  0  0  0  0  0  0  0  0  0  0  0
  191.5430  169.8310  139.8510 N   0  0  0  0  0  0  0  0  0  0  0  0
  190.8770  169.9720  138.6140 C   0  0  0  0  0  0  0  0  0  0  0  0
  194.8490  171.3760  142.7340 C   0  0  0  0  0  2  0  0  0  0  0  0
  193.1270  172.3060  144.1540 C   0  0  0  0  0  2  0  0  0  0  0  0
  193.9770  172.3120  145.4340 C   0  0  0  0  0  2  0  0  0  0  0  0
  193.5010  171.1740  143.3040 N   0  0  1  0  0  0  0  0  0  0  0  0
  195.4120  171.8100  145.1980 C   0  0  2  0  0  3  0  0  0  0  0  0
  195.8500  171.9790  143.7380 C   0  0  0  0  0  2  0  0  0  0  0  0
  195.6130  170.3820  145.7120 C   0  0  2  0  0  0  0  0  0  0  0  0
  196.6440  169.2810  147.4720 O   0  0  0  0  0  1  0  0  0  0  0  0
  196.7370  169.5880  145.2220 C   0  0  0  0  0  2  0  0  0  0  0  0
  194.5070  169.6450  146.1700 O   0  0  0  0  0  1  0  0  0  0  0  0
  196.8360  170.2500  146.5440 N   0  0  0  0  0  0  0  0  0  0  0  0
  192.5190  176.0800  143.1500 C   0  0  0  0  0  2  0  0  0  0  0  0
  191.6500  177.2380  142.7010 C   0  0  0  0  0  2  0  0  0  0  0  0
  189.7650  175.7110  143.3780 N   0  0  0  0  0  2  0  0  0  0  0  0
  189.4260  178.0100  143.1410 O   0  0  0  0  0  0  0  0  0  0  0  0
  190.2310  177.0370  143.1140 C   0  0  0  0  0  0  0  0  0  0  0  0
  188.3440  175.3880  143.4650 C   0  0  1  0  0  3  0  0  0  0  0  0
  187.5790  176.5560  144.1090 C   0  0  1  0  0  3  0  0  0  0  0  0
  186.1310  176.6650  143.6090 C   0  0  0  0  0  2  0  0  0  0  0  0
  185.6980  178.1090  143.4230 C   0  0  0  0  0  2  0  0  0  0  0  0
  186.3500  178.6730  142.1760 C   0  0  0  0  0  2  0  0  0  0  0  0
  184.5170  178.3300  140.5520 C   0  0  0  0  0  1  0  0  0  0  0  0
  185.8980  177.8740  140.9740 C   0  0  0  0  0  2  0  0  0  0  0  0
  187.6090  176.4680  145.6330 C   0  0  0  0  0  2  0  0  0  0  0  0
  186.2280  176.7140  146.2220 C   0  0  0  0  0  2  0  0  0  0  0  0
  186.3110  176.8900  147.6050 O   0  0  0  0  0  0  0  0  0  0  0  0
  185.5100  179.0210  146.9090 C   0  0  0  0  0  1  0  0  0  0  0  0
  186.5030  178.2610  147.7660 C   0  0  0  0  0  2  0  0  0  0  0  0
  187.8260  175.1190  142.1290 N   0  0  0  0  0  2  0  0  0  0  0  0
  188.3250  173.8110  141.7270 C   0  0  0  0  0  2  0  0  0  0  0  0
  188.0740  172.9680  139.4960 O   0  0  0  0  0  1  0  0  0  0  0  0
  188.8170  173.8450  140.2890 C   0  0  0  0  0  3  0  0  0  0  0  0
  190.1660  173.4890  140.2420 O   0  0  0  0  0  1  0  0  0  0  0  0
  1 12  1  6  0  0  0
  1 10  1  0  0  0  0
  2  8  1  0  0  0  0
  3  2  2  0  0  0  0
  3  1  1  0  0  0  0
  5  4  1  0  0  0  0
  6  7  1  0  0  0  0
  6 42  1  1  0  0  0
  7  5  1  1  0  0  0
  8  6  1  0  0  0  0
  9  4  1  0  0  0  0
 10  9  1  1  0  0  0
 10  7  1  0  0  0  0
 12 11  1  0  0  0  0
 13  3  1  0  0  0  0
 14 13  1  0  0  0  0
 15 14  1  0  0  0  0
 16 17  1  0  0  0  0
 16 15  1  0  0  0  0
 18 17  1  0  0  0  0
 18 19  1  0  0  0  0
 20 19  1  0  0  0  0
 21 20  1  1  0  0  0
 21 22  1  0  0  0  0
 21 30  1  0  0  0  0
 23 25  1  0  0  0  0
 26 22  1  6  0  0  0
 26 29  1  0  0  0  0
 26 24  1  0  0  0  0
 27 24  1  6  0  0  0
 27 25  1  0  0  0  0
 27 34  1  0  0  0  0
 28 30  2  0  0  0  0
 29 23  1  0  0  0  0
 30 29  1  0  0  0  0
 31 36  1  0  0  0  0
 32 33  1  0  0  0  0
 34 31  1  6  0  0  0
 34 32  1  0  0  0  0
 35 36  1  6  0  0  0
 35 33  1  0  0  0  0
 35 37  1  0  0  0  0
 37 40  1  1  0  0  0
 37 41  1  0  0  0  0
 39 37  1  0  0  0  0
 39 41  1  0  0  0  0
 41 38  1  0  0  0  0
 43 46  1  0  0  0  0
 43 42  1  0  0  0  0
 44 47  1  0  0  0  0
 46 45  2  0  0  0  0
 46 44  1  0  0  0  0
 47 59  1  6  0  0  0
 47 48  1  0  0  0  0
 48 49  1  6  0  0  0
 48 54  1  0  0  0  0
 50 49  1  0  0  0  0
 51 50  1  0  0  0  0
 52 53  1  0  0  0  0
 53 51  1  0  0  0  0
 54 55  1  0  0  0  0
 55 56  1  0  0  0  0
 56 58  1  0  0  0  0
 57 58  1  0  0  0  0
 60 59  1  0  0  0  0
 61 62  1  0  0  0  0
 62 60  1  0  0  0  0
 63 62  1  0  0  0  0
M  END
>  <MODEL>
1

>  <REMARK>
 VINA RESULT:      -5.4      0.000      0.000
  Name = 
  28 active torsions:
  status: ('A' for Active; 'I' for Inactive)
    1  A    between atoms: C_1  and  C_34
    2  A    between atoms: C_2  and  C_7
    3  A    between atoms: C_2  and  O_25
    4  A    between atoms: C_4  and  C_37
    5  A    between atoms: C_7  and  O_54
    6  A    between atoms: N_9  and  C_38
    7  A    between atoms: C_10  and  O_50
    8  A    between atoms: N_14  and  C_29
    9  A    between atoms: N_14  and  C_57
   10  A    between atoms: N_15  and  C_57
   11  A    between atoms: C_20  and  C_33
   12  A    between atoms: C_20  and  C_55
   13  A    between atoms: C_21  and  C_57
   14  A    between atoms: C_21  and  C_58
   15  A    between atoms: C_21  and  C_62
   16  A    between atoms: C_22  and  C_41
   17  A    between atoms: C_22  and  C_61
   18  A    between atoms: O_25  and  C_26
   19  A    between atoms: C_28  and  C_29
   20  A    between atoms: C_32  and  O_36
   21  A    between atoms: C_32  and  C_62
   22  A    between atoms: C_33  and  C_58
   23  A    between atoms: C_34  and  C_56
   24  A    between atoms: C_35  and  O_54
   25  A    between atoms: C_35  and  C_59
   26  A    between atoms: O_36  and  C_60
   27  A    between atoms: C_44  and  C_61
   28  A    between atoms: C_56  and  C_59
                            x       y       z     vdW  Elec       q    Type
                         _______ _______ _______ _____ _____    ______ ____

>  <TORSDO>
F 28

$$$$
=
 OpenBabel11042415263D

 63 68  0  0  1  0  0  0  0  0999 V2000
  196.5600  174.3760  140.4900 C   0  0  2  0  0  3  0  0  0  0  0  0
  194.2090  174.7800  139.7520 C   0  0  0  0  0  3  0  0  0  0  0  0
  195.4960  174.5590  139.4300 C   0  0  0  0  0  0  0  0  0  0  0  0
  197.5120  176.4570  143.3920 C   0  0  0  0  0  2  0  0  0  0  0  0
  196.1060  176.5350  143.4310 O   0  0  0  0  0  0  0  0  0  0  0  0
  194.2700  176.0390  141.9140 C   0  0  1  0  0  3  0  0  0  0  0  0
  195.6460  175.6430  142.4480 C   0  0  1  0  0  3  0  0  0  0  0  0
  193.6710  174.8650  141.1480 C   0  0  0  0  0  2  0  0  0  0  0  0
  197.9410  175.7300  142.1340 C   0  0  0  0  0  2  0  0  0  0  0  0
  196.6720  175.6410  141.3450 C   0  0  1  0  0  3  0  0  0  0  0  0
  197.9310  172.7040  139.9980 C   0  0  0  0  0  1  0  0  0  0  0  0
  197.7900  174.0890  139.8870 O   0  0  0  0  0  0  0  0  0  0  0  0
  195.8810  174.4900  138.0840 O   0  0  0  0  0  0  0  0  0  0  0  0
  195.7210  175.5740  137.1750 C   0  0  0  0  0  2  0  0  0  0  0  0
  195.5610  175.0370  135.7630 C   0  0  0  0  0  2  0  0  0  0  0  0
  194.2200  174.7460  135.5070 O   0  0  0  0  0  0  0  0  0  0  0  0
  193.5300  175.8740  135.9410 C   0  0  0  0  0  2  0  0  0  0  0  0
  192.0460  175.7260  135.6430 C   0  0  0  0  0  2  0  0  0  0  0  0
  191.4770  174.6020  136.4880 C   0  0  0  0  0  2  0  0  0  0  0  0
  190.8990  173.5110  135.6030 C   0  0  0  0  0  2  0  0  0  0  0  0
  191.4950  172.1680  135.9920 C   0  0  1  0  0  3  0  0  0  0  0  0
  192.5300  172.3460  137.1110 C   0  0  0  0  0  2  0  0  0  0  0  0
  189.9950  170.1180  138.8260 C   0  0  0  0  0  2  0  0  0  0  0  0
  192.0010  172.1650  139.5740 C   0  0  0  0  0  2  0  0  0  0  0  0
  190.6810  169.9960  140.1830 C   0  0  0  0  0  2  0  0  0  0  0  0
  192.1420  171.3990  138.2580 C   0  0  1  0  0  3  0  0  0  0  0  0
  191.2150  171.3630  140.6530 C   0  0  1  0  0  3  0  0  0  0  0  0
  189.4170  170.9280  136.0380 O   0  0  0  0  0  0  0  0  0  0  0  0
  190.8600  170.8310  137.8900 N   0  0  0  0  0  0  0  0  0  0  0  0
  190.4770  171.2930  136.6120 C   0  0  0  0  0  0  0  0  0  0  0  0
  191.2220  171.8820  143.0210 C   0  0  0  0  0  2  0  0  0  0  0  0
  192.1240  169.7920  142.2050 C   0  0  0  0  0  2  0  0  0  0  0  0
  193.1240  169.6030  143.3560 C   0  0  0  0  0  2  0  0  0  0  0  0
  191.9470  171.2170  141.9190 N   0  0  1  0  0  0  0  0  0  0  0  0
  193.0370  170.7200  144.4100 C   0  0  2  0  0  3  0  0  0  0  0  0
  191.6630  171.4030  144.4160 C   0  0  0  0  0  2  0  0  0  0  0  0
  194.1910  171.7190  144.2850 C   0  0  2  0  0  0  0  0  0  0  0  0
  196.2040  172.2110  145.3230 O   0  0  0  0  0  1  0  0  0  0  0  0
  194.1060  173.0100  144.9640 C   0  0  0  0  0  2  0  0  0  0  0  0
  195.0200  171.6850  143.1510 O   0  0  0  0  0  1  0  0  0  0  0  0
  194.9040  171.9190  145.5720 N   0  0  0  0  0  0  0  0  0  0  0  0
  193.3300  176.4100  143.0430 C   0  0  0  0  0  2  0  0  0  0  0  0
  192.2100  177.2720  142.4950 C   0  0  0  0  0  2  0  0  0  0  0  0
  189.7850  177.5880  143.0970 N   0  0  0  0  0  2  0  0  0  0  0  0
  190.7280  175.4540  142.9790 O   0  0  0  0  0  0  0  0  0  0  0  0
  190.8750  176.7000  142.8340 C   0  0  0  0  0  0  0  0  0  0  0  0
  188.5550  177.1400  143.7450 C   0  0  1  0  0  3  0  0  0  0  0  0
  187.7380  176.2720  142.7750 C   0  0  1  0  0  3  0  0  0  0  0  0
  186.2280  176.3400  143.0460 C   0  0  0  0  0  2  0  0  0  0  0  0
  185.7580  177.7620  143.3050 C   0  0  0  0  0  2  0  0  0  0  0  0
  184.9920  177.8080  144.6120 C   0  0  0  0  0  2  0  0  0  0  0  0
  185.1990  180.2520  144.2950 C   0  0  0  0  0  1  0  0  0  0  0  0
  185.2670  179.1250  145.3040 C   0  0  0  0  0  2  0  0  0  0  0  0
  188.0330  176.6320  141.3210 C   0  0  0  0  0  2  0  0  0  0  0  0
  187.5100  175.5610  140.3750 C   0  0  0  0  0  2  0  0  0  0  0  0
  188.1250  174.3350  140.6390 O   0  0  0  0  0  0  0  0  0  0  0  0
  188.0590  174.4590  138.2630 C   0  0  0  0  0  1  0  0  0  0  0  0
  188.8600  174.0650  139.4870 C   0  0  0  0  0  2  0  0  0  0  0  0
  188.8890  176.3830  144.9450 N   0  0  0  0  0  2  0  0  0  0  0  0
  188.3590  177.1200  146.0840 C   0  0  0  0  0  2  0  0  0  0  0  0
  186.6330  177.0530  147.7470 O   0  0  0  0  0  1  0  0  0  0  0  0
  187.3750  176.2640  146.8640 C   0  0  0  0  0  3  0  0  0  0  0  0
  188.0630  175.2830  147.5790 O   0  0  0  0  0  1  0  0  0  0  0  0
  1 12  1  6  0  0  0
  1 10  1  0  0  0  0
  2  8  1  0  0  0  0
  3  2  2  0  0  0  0
  3  1  1  0  0  0  0
  4  5  1  0  0  0  0
  6  7  1  0  0  0  0
  6 42  1  1  0  0  0
  7  5  1  1  0  0  0
  8  6  1  0  0  0  0
  9  4  1  0  0  0  0
 10  9  1  1  0  0  0
 10  7  1  0  0  0  0
 12 11  1  0  0  0  0
 13  3  1  0  0  0  0
 14 13  1  0  0  0  0
 15 14  1  0  0  0  0
 16 15  1  0  0  0  0
 16 17  1  0  0  0  0
 18 17  1  0  0  0  0
 18 19  1  0  0  0  0
 20 19  1  0  0  0  0
 21 20  1  1  0  0  0
 21 30  1  0  0  0  0
 21 22  1  0  0  0  0
 23 25  1  0  0  0  0
 25 27  1  0  0  0  0
 26 22  1  6  0  0  0
 26 24  1  0  0  0  0
 27 24  1  6  0  0  0
 27 34  1  0  0  0  0
 28 30  2  0  0  0  0
 29 26  1  0  0  0  0
 29 23  1  0  0  0  0
 30 29  1  0  0  0  0
 31 36  1  0  0  0  0
 32 33  1  0  0  0  0
 34 32  1  1  0  0  0
 34 31  1  0  0  0  0
 35 33  1  6  0  0  0
 35 36  1  0  0  0  0
 37 40  1  6  0  0  0
 37 35  1  0  0  0  0
 37 39  1  0  0  0  0
 37 41  1  0  0  0  0
 38 41  1  0  0  0  0
 39 41  1  0  0  0  0
 43 46  1  0  0  0  0
 43 42  1  0  0  0  0
 46 45  2  0  0  0  0
 46 44  1  0  0  0  0
 47 44  1  6  0  0  0
 47 59  1  0  0  0  0
 48 54  1  6  0  0  0
 48 49  1  0  0  0  0
 48 47  1  0  0  0  0
 49 50  1  0  0  0  0
 50 51  1  0  0  0  0
 51 53  1  0  0  0  0
 52 53  1  0  0  0  0
 55 56  1  0  0  0  0
 55 54  1  0  0  0  0
 57 58  1  0  0  0  0
 58 56  1  0  0  0  0
 59 60  1  0  0  0  0
 60 62  1  0  0  0  0
 62 63  1  0  0  0  0
 62 61  1  0  0  0  0
M  END
>  <MODEL>
2

>  <REMARK>
 VINA RESULT:      -5.0      1.660      3.594
  Name = 
  28 active torsions:
  status: ('A' for Active; 'I' for Inactive)
    1  A    between atoms: C_1  and  C_34
    2  A    between atoms: C_2  and  C_7
    3  A    between atoms: C_2  and  O_25
    4  A    between atoms: C_4  and  C_37
    5  A    between atoms: C_7  and  O_54
    6  A    between atoms: N_9  and  C_38
    7  A    between atoms: C_10  and  O_50
    8  A    between atoms: N_14  and  C_29
    9  A    between atoms: N_14  and  C_57
   10  A    between atoms: N_15  and  C_57
   11  A    between atoms: C_20  and  C_33
   12  A    between atoms: C_20  and  C_55
   13  A    between atoms: C_21  and  C_57
   14  A    between atoms: C_21  and  C_58
   15  A    between atoms: C_21  and  C_62
   16  A    between atoms: C_22  and  C_41
   17  A    between atoms: C_22  and  C_61
   18  A    between atoms: O_25  and  C_26
   19  A    between atoms: C_28  and  C_29
   20  A    between atoms: C_32  and  O_36
   21  A    between atoms: C_32  and  C_62
   22  A    between atoms: C_33  and  C_58
   23  A    between atoms: C_34  and  C_56
   24  A    between atoms: C_35  and  O_54
   25  A    between atoms: C_35  and  C_59
   26  A    between atoms: O_36  and  C_60
   27  A    between atoms: C_44  and  C_61
   28  A    between atoms: C_56  and  C_59
                            x       y       z     vdW  Elec       q    Type
                         _______ _______ _______ _____ _____    ______ ____

>  <TORSDO>
F 28

$$$$
=
 OpenBabel11042415263D

 63 68  0  0  1  0  0  0  0  0999 V2000
  196.2190  174.2940  140.8420 C   0  0  2  0  0  3  0  0  0  0  0  0
  193.8290  174.4760  140.1420 C   0  0  0  0  0  3  0  0  0  0  0  0
  195.1230  174.3510  139.8000 C   0  0  0  0  0  0  0  0  0  0  0  0
  197.0490  176.5480  143.6510 C   0  0  0  0  0  2  0  0  0  0  0  0
  195.6420  176.5100  143.7180 O   0  0  0  0  0  0  0  0  0  0  0  0
  193.8260  175.8110  142.2590 C   0  0  1  0  0  3  0  0  0  0  0  0
  195.2400  175.5490  142.7760 C   0  0  1  0  0  3  0  0  0  0  0  0
  193.3130  174.5650  141.5470 C   0  0  0  0  0  2  0  0  0  0  0  0
  197.5140  175.8140  142.4090 C   0  0  0  0  0  2  0  0  0  0  0  0
  196.2410  175.5930  141.6520 C   0  0  1  0  0  3  0  0  0  0  0  0
  197.8090  172.7770  140.5460 C   0  0  0  0  0  1  0  0  0  0  0  0
  197.4570  174.0890  140.2220 O   0  0  0  0  0  0  0  0  0  0  0  0
  195.4870  174.2660  138.4500 O   0  0  0  0  0  0  0  0  0  0  0  0
  194.9180  175.0940  137.4400 C   0  0  0  0  0  2  0  0  0  0  0  0
  195.3420  174.5930  136.0700 C   0  0  0  0  0  2  0  0  0  0  0  0
  194.2280  174.1700  135.3450 O   0  0  0  0  0  0  0  0  0  0  0  0
  193.1620  174.8710  135.9040 C   0  0  0  0  0  2  0  0  0  0  0  0
  191.9110  174.0080  135.9020 C   0  0  0  0  0  2  0  0  0  0  0  0
  191.7710  173.3270  137.2510 C   0  0  0  0  0  2  0  0  0  0  0  0
  190.7110  172.2410  137.1890 C   0  0  0  0  0  2  0  0  0  0  0  0
  191.3530  170.8860  137.4410 C   0  0  1  0  0  3  0  0  0  0  0  0
  192.6760  171.0540  138.2000 C   0  0  0  0  0  2  0  0  0  0  0  0
  190.6900  168.9870  140.6730 C   0  0  0  0  0  2  0  0  0  0  0  0
  192.8910  170.9700  140.7140 C   0  0  0  0  0  2  0  0  0  0  0  0
  191.7420  168.8780  141.7730 C   0  0  0  0  0  2  0  0  0  0  0  0
  192.6140  170.1590  139.4480 C   0  0  1  0  0  3  0  0  0  0  0  0
  192.4340  170.2350  142.0090 C   0  0  1  0  0  3  0  0  0  0  0  0
  189.3430  169.7360  138.1470 O   0  0  0  0  0  0  0  0  0  0  0  0
  191.2630  169.6340  139.4960 N   0  0  0  0  0  0  0  0  0  0  0  0
  190.5360  170.0740  138.3690 C   0  0  0  0  0  0  0  0  0  0  0  0
  193.0060  169.3860  144.2060 C   0  0  0  0  0  2  0  0  0  0  0  0
  194.6250  169.3740  142.4100 C   0  0  0  0  0  2  0  0  0  0  0  0
  195.8580  169.4620  143.3210 C   0  0  0  0  0  2  0  0  0  0  0  0
  193.5010  170.0960  143.0090 N   0  0  1  0  0  0  0  0  0  0  0  0
  195.4960  169.4650  144.8160 C   0  0  2  0  0  3  0  0  0  0  0  0
  194.1340  168.8090  145.0820 C   0  0  0  0  0  2  0  0  0  0  0  0
  195.6050  170.8630  145.4320 C   0  0  2  0  0  0  0  0  0  0  0  0
  196.3180  172.9880  144.8400 O   0  0  0  0  0  1  0  0  0  0  0  0
  196.7960  171.2260  146.1960 C   0  0  0  0  0  2  0  0  0  0  0  0
  194.4360  171.5710  145.7600 O   0  0  0  0  0  1  0  0  0  0  0  0
  196.6670  171.6790  144.7900 N   0  0  0  0  0  0  0  0  0  0  0  0
  192.8800  176.1430  143.3950 C   0  0  0  0  0  2  0  0  0  0  0  0
  191.9080  177.2120  142.9370 C   0  0  0  0  0  2  0  0  0  0  0  0
  190.1420  175.6750  143.8650 N   0  0  0  0  0  2  0  0  0  0  0  0
  189.7550  177.9700  143.6620 O   0  0  0  0  0  0  0  0  0  0  0  0
  190.5570  177.0030  143.5350 C   0  0  0  0  0  0  0  0  0  0  0  0
  188.7460  175.3420  144.1390 C   0  0  1  0  0  3  0  0  0  0  0  0
  188.1930  176.2640  145.2380 C   0  0  1  0  0  3  0  0  0  0  0  0
  186.7150  176.6200  145.0250 C   0  0  0  0  0  2  0  0  0  0  0  0
  186.4170  178.0650  145.3900 C   0  0  0  0  0  2  0  0  0  0  0  0
  186.3710  178.9030  144.1280 C   0  0  0  0  0  2  0  0  0  0  0  0
  183.9840  179.0900  144.7470 C   0  0  0  0  0  1  0  0  0  0  0  0
  185.1800  179.8350  144.1930 C   0  0  0  0  0  2  0  0  0  0  0  0
  188.4000  175.6630  146.6260 C   0  0  0  0  0  2  0  0  0  0  0  0
  189.6770  174.8380  146.6800 C   0  0  0  0  0  2  0  0  0  0  0  0
  190.5170  175.3040  147.6950 O   0  0  0  0  0  0  0  0  0  0  0  0
  192.6620  174.9070  146.7420 C   0  0  0  0  0  1  0  0  0  0  0  0
  191.5670  175.9180  147.0160 C   0  0  0  0  0  2  0  0  0  0  0  0
  187.9650  175.4860  142.9170 N   0  0  0  0  0  2  0  0  0  0  0  0
  188.0570  174.2240  142.1940 C   0  0  0  0  0  2  0  0  0  0  0  0
  188.4120  174.1700  139.8240 O   0  0  0  0  0  1  0  0  0  0  0  0
  189.0550  174.3330  141.0530 C   0  0  0  0  0  3  0  0  0  0  0  0
  190.0450  173.3610  141.1960 O   0  0  0  0  0  1  0  0  0  0  0  0
  1 12  1  6  0  0  0
  1 10  1  0  0  0  0
  2  8  1  0  0  0  0
  3  2  2  0  0  0  0
  3  1  1  0  0  0  0
  4  5  1  0  0  0  0
  6  7  1  0  0  0  0
  6 42  1  1  0  0  0
  7  5  1  1  0  0  0
  8  6  1  0  0  0  0
  9  4  1  0  0  0  0
 10  9  1  1  0  0  0
 10  7  1  0  0  0  0
 12 11  1  0  0  0  0
 13  3  1  0  0  0  0
 14 13  1  0  0  0  0
 15 14  1  0  0  0  0
 16 17  1  0  0  0  0
 16 15  1  0  0  0  0
 18 17  1  0  0  0  0
 18 19  1  0  0  0  0
 20 19  1  0  0  0  0
 21 20  1  1  0  0  0
 21 22  1  0  0  0  0
 21 30  1  0  0  0  0
 23 25  1  0  0  0  0
 25 27  1  0  0  0  0
 26 22  1  6  0  0  0
 26 29  1  0  0  0  0
 26 24  1  0  0  0  0
 27 24  1  6  0  0  0
 27 34  1  0  0  0  0
 28 30  2  0  0  0  0
 29 23  1  0  0  0  0
 30 29  1  0  0  0  0
 31 36  1  0  0  0  0
 32 33  1  0  0  0  0
 34 32  1  6  0  0  0
 34 31  1  0  0  0  0
 35 33  1  6  0  0  0
 35 36  1  0  0  0  0
 35 37  1  0  0  0  0
 37 40  1  1  0  0  0
 37 39  1  0  0  0  0
 41 38  1  0  0  0  0
 41 37  1  0  0  0  0
 41 39  1  0  0  0  0
 43 42  1  0  0  0  0
 43 46  1  0  0  0  0
 44 47  1  0  0  0  0
 46 45  2  0  0  0  0
 46 44  1  0  0  0  0
 47 59  1  6  0  0  0
 47 48  1  0  0  0  0
 48 49  1  6  0  0  0
 48 54  1  0  0  0  0
 49 50  1  0  0  0  0
 51 53  1  0  0  0  0
 51 50  1  0  0  0  0
 53 52  1  0  0  0  0
 54 55  1  0  0  0  0
 55 56  1  0  0  0  0
 57 58  1  0  0  0  0
 58 56  1  0  0  0  0
 60 59  1  0  0  0  0
 61 62  1  0  0  0  0
 62 63  1  0  0  0  0
 62 60  1  0  0  0  0
M  END
>  <MODEL>
3

>  <REMARK>
 VINA RESULT:      -4.9      1.445      2.150
  Name = 
  28 active torsions:
  status: ('A' for Active; 'I' for Inactive)
    1  A    between atoms: C_1  and  C_34
    2  A    between atoms: C_2  and  C_7
    3  A    between atoms: C_2  and  O_25
    4  A    between atoms: C_4  and  C_37
    5  A    between atoms: C_7  and  O_54
    6  A    between atoms: N_9  and  C_38
    7  A    between atoms: C_10  and  O_50
    8  A    between atoms: N_14  and  C_29
    9  A    between atoms: N_14  and  C_57
   10  A    between atoms: N_15  and  C_57
   11  A    between atoms: C_20  and  C_33
   12  A    between atoms: C_20  and  C_55
   13  A    between atoms: C_21  and  C_57
   14  A    between atoms: C_21  and  C_58
   15  A    between atoms: C_21  and  C_62
   16  A    between atoms: C_22  and  C_41
   17  A    between atoms: C_22  and  C_61
   18  A    between atoms: O_25  and  C_26
   19  A    between atoms: C_28  and  C_29
   20  A    between atoms: C_32  and  O_36
   21  A    between atoms: C_32  and  C_62
   22  A    between atoms: C_33  and  C_58
   23  A    between atoms: C_34  and  C_56
   24  A    between atoms: C_35  and  O_54
   25  A    between atoms: C_35  and  C_59
   26  A    between atoms: O_36  and  C_60
   27  A    between atoms: C_44  and  C_61
   28  A    between atoms: C_56  and  C_59
                            x       y       z     vdW  Elec       q    Type
                         _______ _______ _______ _____ _____    ______ ____

>  <TORSDO>
F 28

$$$$
=
 OpenBabel11042415263D

 63 68  0  0  1  0  0  0  0  0999 V2000
  186.1130  178.1050  144.4460 C   0  0  2  0  0  3  0  0  0  0  0  0
  188.3470  177.5720  143.4640 C   0  0  0  0  0  3  0  0  0  0  0  0
  187.0140  177.6660  143.3120 C   0  0  0  0  0  0  0  0  0  0  0  0
  185.7560  176.8690  147.9100 C   0  0  0  0  0  2  0  0  0  0  0  0
  187.1540  176.8390  147.7360 O   0  0  0  0  0  0  0  0  0  0  0  0
  188.7000  176.9470  145.8610 C   0  0  1  0  0  3  0  0  0  0  0  0
  187.3980  177.4400  146.4910 C   0  0  1  0  0  3  0  0  0  0  0  0
  189.0950  177.8830  144.7250 C   0  0  0  0  0  2  0  0  0  0  0  0
  185.0920  177.2160  146.5930 C   0  0  0  0  0  2  0  0  0  0  0  0
  186.2180  177.1180  145.6110 C   0  0  1  0  0  3  0  0  0  0  0  0
  184.5290  179.5550  143.8950 C   0  0  0  0  0  1  0  0  0  0  0  0
  184.7890  178.1870  143.9980 O   0  0  0  0  0  0  0  0  0  0  0  0
  186.4250  177.3570  142.0780 O   0  0  0  0  0  0  0  0  0  0  0  0
  187.1190  177.4630  140.8390 C   0  0  0  0  0  2  0  0  0  0  0  0
  187.2020  176.0960  140.1820 C   0  0  0  0  0  2  0  0  0  0  0  0
  187.6730  175.1510  141.0930 O   0  0  0  0  0  0  0  0  0  0  0  0
  188.7900  174.5950  140.4750 C   0  0  0  0  0  2  0  0  0  0  0  0
  188.5200  174.3930  138.9930 C   0  0  0  0  0  2  0  0  0  0  0  0
  189.3640  173.2390  138.4850 C   0  0  0  0  0  2  0  0  0  0  0  0
  188.5390  172.3340  137.5850 C   0  0  0  0  0  2  0  0  0  0  0  0
  189.4600  171.5650  136.6520 C   0  0  1  0  0  3  0  0  0  0  0  0
  190.5500  172.4890  136.0940 C   0  0  0  0  0  2  0  0  0  0  0  0
  192.6500  169.9500  137.9570 C   0  0  0  0  0  2  0  0  0  0  0  0
  192.8270  172.7930  137.1420 C   0  0  0  0  0  2  0  0  0  0  0  0
  194.0290  170.5320  137.6580 C   0  0  0  0  0  2  0  0  0  0  0  0
  191.9100  171.8340  136.3830 C   0  0  1  0  0  3  0  0  0  0  0  0
  194.0250  172.0640  137.8210 C   0  0  1  0  0  3  0  0  0  0  0  0
  189.7120  169.6000  138.0430 O   0  0  0  0  0  0  0  0  0  0  0  0
  191.6270  170.6770  137.2120 N   0  0  0  0  0  0  0  0  0  0  0  0
  190.2330  170.5420  137.3900 C   0  0  0  0  0  0  0  0  0  0  0  0
  196.1360  172.9170  138.6530 C   0  0  0  0  0  2  0  0  0  0  0  0
  196.0300  171.6620  136.5890 C   0  0  0  0  0  2  0  0  0  0  0  0
  197.2620  172.3220  135.9510 C   0  0  0  0  0  2  0  0  0  0  0  0
  195.3330  172.6200  137.4490 N   0  0  1  0  0  0  0  0  0  0  0  0
  197.9400  173.3430  136.8800 C   0  0  2  0  0  3  0  0  0  0  0  0
  197.6410  173.0650  138.3590 C   0  0  0  0  0  2  0  0  0  0  0  0
  197.6240  174.7860  136.4770 C   0  0  2  0  0  0  0  0  0  0  0  0
  195.8480  176.0270  135.6550 O   0  0  0  0  0  1  0  0  0  0  0  0
  197.9110  175.2370  135.1180 C   0  0  0  0  0  2  0  0  0  0  0  0
  197.6060  175.7930  137.4580 O   0  0  0  0  0  1  0  0  0  0  0  0
  196.5230  174.8650  135.4840 N   0  0  0  0  0  0  0  0  0  0  0  0
  189.8240  176.9200  146.8780 C   0  0  0  0  0  2  0  0  0  0  0  0
  190.2730  175.4870  147.0850 C   0  0  0  0  0  2  0  0  0  0  0  0
  191.8490  174.5100  145.3810 N   0  0  0  0  0  2  0  0  0  0  0  0
  192.6550  175.6920  147.2280 O   0  0  0  0  0  0  0  0  0  0  0  0
  191.6580  175.2770  146.5720 C   0  0  0  0  0  0  0  0  0  0  0  0
  193.1560  173.9850  144.9940 C   0  0  1  0  0  3  0  0  0  0  0  0
  193.0020  172.5700  144.4140 C   0  0  1  0  0  3  0  0  0  0  0  0
  193.8820  171.5360  145.1300 C   0  0  0  0  0  2  0  0  0  0  0  0
  195.2770  171.4600  144.5320 C   0  0  0  0  0  2  0  0  0  0  0  0
  196.3060  171.6610  145.6260 C   0  0  0  0  0  2  0  0  0  0  0  0
  197.2390  169.5400  144.7610 C   0  0  0  0  0  1  0  0  0  0  0  0
  196.8910  170.3200  146.0120 C   0  0  0  0  0  2  0  0  0  0  0  0
  191.5430  172.1210  144.4200 C   0  0  0  0  0  2  0  0  0  0  0  0
  191.1940  171.3790  143.1390 C   0  0  0  0  0  2  0  0  0  0  0  0
  190.8920  172.2830  142.1170 O   0  0  0  0  0  0  0  0  0  0  0  0
  193.1000  172.1050  141.2450 C   0  0  0  0  0  1  0  0  0  0  0  0
  191.6270  171.8240  141.0260 C   0  0  0  0  0  2  0  0  0  0  0  0
  193.7620  174.8730  144.0100 N   0  0  0  0  0  2  0  0  0  0  0  0
  195.0780  175.2440  144.5140 C   0  0  0  0  0  2  0  0  0  0  0  0
  195.8050  174.2940  142.4360 O   0  0  0  0  0  1  0  0  0  0  0  0
  196.0930  175.2790  143.3830 C   0  0  0  0  0  3  0  0  0  0  0  0
  197.3760  175.0760  143.8930 O   0  0  0  0  0  1  0  0  0  0  0  0
  1 12  1  6  0  0  0
  1 10  1  0  0  0  0
  2  8  1  0  0  0  0
  3  2  2  0  0  0  0
  3  1  1  0  0  0  0
  5  4  1  0  0  0  0
  6  7  1  0  0  0  0
  6 42  1  1  0  0  0
  7  5  1  1  0  0  0
  8  6  1  0  0  0  0
  9  4  1  0  0  0  0
 10  7  1  0  0  0  0
 10  9  1  1  0  0  0
 11 12  1  0  0  0  0
 13  3  1  0  0  0  0
 14 13  1  0  0  0  0
 15 14  1  0  0  0  0
 15 16  1  0  0  0  0
 17 16  1  0  0  0  0
 18 17  1  0  0  0  0
 19 18  1  0  0  0  0
 20 19  1  0  0  0  0
 21 30  1  0  0  0  0
 21 20  1  1  0  0  0
 22 21  1  0  0  0  0
 25 27  1  0  0  0  0
 25 23  1  0  0  0  0
 26 22  1  1  0  0  0
 26 24  1  0  0  0  0
 26 29  1  0  0  0  0
 27 24  1  6  0  0  0
 29 30  1  0  0  0  0
 29 23  1  0  0  0  0
 30 28  2  0  0  0  0
 33 32  1  0  0  0  0
 34 32  1  6  0  0  0
 34 27  1  0  0  0  0
 34 31  1  0  0  0  0
 35 33  1  6  0  0  0
 35 36  1  0  0  0  0
 36 31  1  0  0  0  0
 37 35  1  0  0  0  0
 37 40  1  1  0  0  0
 39 41  1  0  0  0  0
 39 37  1  0  0  0  0
 41 38  1  0  0  0  0
 41 37  1  0  0  0  0
 42 43  1  0  0  0  0
 44 46  1  0  0  0  0
 46 43  1  0  0  0  0
 46 45  2  0  0  0  0
 47 59  1  6  0  0  0
 47 44  1  0  0  0  0
 48 54  1  1  0  0  0
 48 47  1  0  0  0  0
 48 49  1  0  0  0  0
 50 49  1  0  0  0  0
 50 51  1  0  0  0  0
 51 53  1  0  0  0  0
 52 53  1  0  0  0  0
 55 54  1  0  0  0  0
 56 55  1  0  0  0  0
 58 57  1  0  0  0  0
 58 56  1  0  0  0  0
 59 60  1  0  0  0  0
 61 62  1  0  0  0  0
 62 63  1  0  0  0  0
 62 60  1  0  0  0  0
M  END
>  <MODEL>
4

>  <REMARK>
 VINA RESULT:      -4.7      2.478      8.613
  Name = 
  28 active torsions:
  status: ('A' for Active; 'I' for Inactive)
    1  A    between atoms: C_1  and  C_34
    2  A    between atoms: C_2  and  C_7
    3  A    between atoms: C_2  and  O_25
    4  A    between atoms: C_4  and  C_37
    5  A    between atoms: C_7  and  O_54
    6  A    between atoms: N_9  and  C_38
    7  A    between atoms: C_10  and  O_50
    8  A    between atoms: N_14  and  C_29
    9  A    between atoms: N_14  and  C_57
   10  A    between atoms: N_15  and  C_57
   11  A    between atoms: C_20  and  C_33
   12  A    between atoms: C_20  and  C_55
   13  A    between atoms: C_21  and  C_57
   14  A    between atoms: C_21  and  C_58
   15  A    between atoms: C_21  and  C_62
   16  A    between atoms: C_22  and  C_41
   17  A    between atoms: C_22  and  C_61
   18  A    between atoms: O_25  and  C_26
   19  A    between atoms: C_28  and  C_29
   20  A    between atoms: C_32  and  O_36
   21  A    between atoms: C_32  and  C_62
   22  A    between atoms: C_33  and  C_58
   23  A    between atoms: C_34  and  C_56
   24  A    between atoms: C_35  and  O_54
   25  A    between atoms: C_35  and  C_59
   26  A    between atoms: O_36  and  C_60
   27  A    between atoms: C_44  and  C_61
   28  A    between atoms: C_56  and  C_59
                            x       y       z     vdW  Elec       q    Type
                         _______ _______ _______ _____ _____    ______ ____

>  <TORSDO>
F 28

$$$$
=
 OpenBabel11042415263D

 63 68  0  0  1  0  0  0  0  0999 V2000
  191.3470  176.1290  143.4510 C   0  0  2  0  0  3  0  0  0  0  0  0
  189.6350  174.3630  143.8800 C   0  0  0  0  0  3  0  0  0  0  0  0
  190.1020  175.5990  144.1280 C   0  0  0  0  0  0  0  0  0  0  0  0
  194.7670  174.7520  143.1880 C   0  0  0  0  0  2  0  0  0  0  0  0
  193.9780  173.5990  143.0050 O   0  0  0  0  0  0  0  0  0  0  0  0
  191.6550  172.9760  143.3730 C   0  0  1  0  0  3  0  0  0  0  0  0
  192.6500  174.0510  142.9370 C   0  0  1  0  0  3  0  0  0  0  0  0
  190.2530  173.3810  142.9320 C   0  0  0  0  0  2  0  0  0  0  0  0
  193.8750  175.9200  143.5580 C   0  0  0  0  0  2  0  0  0  0  0  0
  192.5550  175.2650  143.8240 C   0  0  1  0  0  3  0  0  0  0  0  0
  191.2070  178.2150  142.7120 C   0  0  0  0  0  1  0  0  0  0  0  0
  191.5670  177.4580  143.8290 O   0  0  0  0  0  0  0  0  0  0  0  0
  189.4310  176.4350  145.0300 O   0  0  0  0  0  0  0  0  0  0  0  0
  189.5910  176.3400  146.4420 C   0  0  0  0  0  2  0  0  0  0  0  0
  188.4000  176.9790  147.1360 C   0  0  0  0  0  2  0  0  0  0  0  0
  187.3120  176.1070  147.1270 O   0  0  0  0  0  0  0  0  0  0  0  0
  186.2470  176.8820  146.6750 C   0  0  0  0  0  2  0  0  0  0  0  0
  186.0530  176.6840  145.1810 C   0  0  0  0  0  2  0  0  0  0  0  0
  186.0380  178.0370  144.4950 C   0  0  0  0  0  2  0  0  0  0  0  0
  185.2540  177.9640  143.1960 C   0  0  0  0  0  2  0  0  0  0  0  0
  186.1150  178.4730  142.0510 C   0  0  1  0  0  3  0  0  0  0  0  0
  187.4480  177.7150  142.0060 C   0  0  0  0  0  2  0  0  0  0  0  0
  185.9940  176.8040  138.6320 C   0  0  0  0  0  2  0  0  0  0  0  0
  187.8580  175.6440  140.6210 C   0  0  0  0  0  2  0  0  0  0  0  0
  187.1290  175.9160  138.1280 C   0  0  0  0  0  2  0  0  0  0  0  0
  187.6180  177.1540  140.5860 C   0  0  1  0  0  3  0  0  0  0  0  0
  187.6170  174.9660  139.2400 C   0  0  1  0  0  3  0  0  0  0  0  0
  184.3650  178.5500  140.3800 O   0  0  0  0  0  0  0  0  0  0  0  0
  186.3710  177.4280  139.8970 N   0  0  0  0  0  0  0  0  0  0  0  0
  185.5040  178.1530  140.7420 C   0  0  0  0  0  0  0  0  0  0  0  0
  189.1600  173.1770  139.7810 C   0  0  0  0  0  2  0  0  0  0  0  0
  188.4050  173.5210  137.5100 C   0  0  0  0  0  2  0  0  0  0  0  0
  189.6570  172.9280  136.8460 C   0  0  0  0  0  2  0  0  0  0  0  0
  188.7630  174.1770  138.7690 N   0  0  1  0  0  0  0  0  0  0  0  0
  190.6800  172.4000  137.8670 C   0  0  2  0  0  3  0  0  0  0  0  0
  190.0250  172.0390  139.2060 C   0  0  0  0  0  2  0  0  0  0  0  0
  191.8700  173.3490  138.0310 C   0  0  2  0  0  0  0  0  0  0  0  0
  194.1530  173.3820  137.6280 O   0  0  0  0  0  1  0  0  0  0  0  0
  192.6040  173.3770  139.2930 C   0  0  0  0  0  2  0  0  0  0  0  0
  191.9280  174.5300  137.2700 O   0  0  0  0  0  1  0  0  0  0  0  0
  193.1580  172.6200  138.1460 N   0  0  0  0  0  0  0  0  0  0  0  0
  191.9900  171.6360  142.7510 C   0  0  0  0  0  2  0  0  0  0  0  0
  192.2050  170.6160  143.8520 C   0  0  0  0  0  2  0  0  0  0  0  0
  194.5780  170.2990  143.0710 N   0  0  0  0  0  2  0  0  0  0  0  0
  193.2290  168.4660  143.5970 O   0  0  0  0  0  0  0  0  0  0  0  0
  193.3570  169.7210  143.5390 C   0  0  0  0  0  0  0  0  0  0  0  0
  195.6260  169.5000  142.4400 C   0  0  1  0  0  3  0  0  0  0  0  0
  195.9530  170.0690  141.0500 C   0  0  1  0  0  3  0  0  0  0  0  0
  195.9770  171.6050  141.0280 C   0  0  0  0  0  2  0  0  0  0  0  0
  197.2880  172.1630  141.5550 C   0  0  0  0  0  2  0  0  0  0  0  0
  197.9390  173.0150  140.4850 C   0  0  0  0  0  2  0  0  0  0  0  0
  196.5080  174.9650  139.9690 C   0  0  0  0  0  1  0  0  0  0  0  0
  196.8710  173.5530  139.5580 C   0  0  0  0  0  2  0  0  0  0  0  0
  197.2690  169.5110  140.5140 C   0  0  0  0  0  2  0  0  0  0  0  0
  197.2520  169.4310  138.9950 C   0  0  0  0  0  2  0  0  0  0  0  0
  196.0080  169.8300  138.4990 O   0  0  0  0  0  0  0  0  0  0  0  0
  197.4670  169.8790  136.6180 C   0  0  0  0  0  1  0  0  0  0  0  0
  196.3130  170.5440  137.3420 C   0  0  0  0  0  2  0  0  0  0  0  0
  196.8150  169.5080  143.2830 N   0  0  0  0  0  2  0  0  0  0  0  0
  196.4040  169.0820  144.6140 C   0  0  0  0  0  2  0  0  0  0  0  0
  197.9410  170.8520  145.1150 O   0  0  0  0  0  1  0  0  0  0  0  0
  196.9780  170.0080  145.6730 C   0  0  0  0  0  3  0  0  0  0  0  0
  197.5520  169.2570  146.6990 O   0  0  0  0  0  1  0  0  0  0  0  0
  1 10  1  0  0  0  0
  1 12  1  1  0  0  0
  1  3  1  0  0  0  0
  2  3  2  0  0  0  0
  3 13  1  0  0  0  0
  4  9  1  0  0  0  0
  5  4  1  0  0  0  0
  6 42  1  6  0  0  0
  7  5  1  1  0  0  0
  7  6  1  0  0  0  0
  7 10  1  0  0  0  0
  8  6  1  0  0  0  0
  8  2  1  0  0  0  0
 10  9  1  6  0  0  0
 11 12  1  0  0  0  0
 13 14  1  0  0  0  0
 14 15  1  0  0  0  0
 16 15  1  0  0  0  0
 17 16  1  0  0  0  0
 18 17  1  0  0  0  0
 19 18  1  0  0  0  0
 20 19  1  0  0  0  0
 21 20  1  1  0  0  0
 22 21  1  0  0  0  0
 23 29  1  0  0  0  0
 25 23  1  0  0  0  0
 26 24  1  1  0  0  0
 26 22  1  0  0  0  0
 27 25  1  6  0  0  0
 27 24  1  0  0  0  0
 28 30  2  0  0  0  0
 29 26  1  0  0  0  0
 29 30  1  0  0  0  0
 30 21  1  0  0  0  0
 33 32  1  0  0  0  0
 34 32  1  6  0  0  0
 34 27  1  0  0  0  0
 34 31  1  0  0  0  0
 35 33  1  6  0  0  0
 35 37  1  0  0  0  0
 35 36  1  0  0  0  0
 36 31  1  0  0  0  0
 37 40  1  6  0  0  0
 37 41  1  0  0  0  0
 37 39  1  0  0  0  0
 38 41  1  0  0  0  0
 41 39  1  0  0  0  0
 42 43  1  0  0  0  0
 44 46  1  0  0  0  0
 46 45  2  0  0  0  0
 46 43  1  0  0  0  0
 47 44  1  1  0  0  0
 47 59  1  0  0  0  0
 48 54  1  1  0  0  0
 48 47  1  0  0  0  0
 49 48  1  0  0  0  0
 49 50  1  0  0  0  0
 51 50  1  0  0  0  0
 53 52  1  0  0  0  0
 53 51  1  0  0  0  0
 55 54  1  0  0  0  0
 56 55  1  0  0  0  0
 57 58  1  0  0  0  0
 58 56  1  0  0  0  0
 59 60  1  0  0  0  0
 60 62  1  0  0  0  0
 61 62  1  0  0  0  0
 62 63  1  0  0  0  0
M  END
>  <MODEL>
5

>  <REMARK>
 VINA RESULT:      -4.5      2.413      9.899
  Name = 
  28 active torsions:
  status: ('A' for Active; 'I' for Inactive)
    1  A    between atoms: C_1  and  C_34
    2  A    between atoms: C_2  and  C_7
    3  A    between atoms: C_2  and  O_25
    4  A    between atoms: C_4  and  C_37
    5  A    between atoms: C_7  and  O_54
    6  A    between atoms: N_9  and  C_38
    7  A    between atoms: C_10  and  O_50
    8  A    between atoms: N_14  and  C_29
    9  A    between atoms: N_14  and  C_57
   10  A    between atoms: N_15  and  C_57
   11  A    between atoms: C_20  and  C_33
   12  A    between atoms: C_20  and  C_55
   13  A    between atoms: C_21  and  C_57
   14  A    between atoms: C_21  and  C_58
   15  A    between atoms: C_21  and  C_62
   16  A    between atoms: C_22  and  C_41
   17  A    between atoms: C_22  and  C_61
   18  A    between atoms: O_25  and  C_26
   19  A    between atoms: C_28  and  C_29
   20  A    between atoms: C_32  and  O_36
   21  A    between atoms: C_32  and  C_62
   22  A    between atoms: C_33  and  C_58
   23  A    between atoms: C_34  and  C_56
   24  A    between atoms: C_35  and  O_54
   25  A    between atoms: C_35  and  C_59
   26  A    between atoms: O_36  and  C_60
   27  A    between atoms: C_44  and  C_61
   28  A    between atoms: C_56  and  C_59
                            x       y       z     vdW  Elec       q    Type
                         _______ _______ _______ _____ _____    ______ ____

>  <TORSDO>
F 28

$$$$
=
 OpenBabel11042415263D

 63 68  0  0  1  0  0  0  0  0999 V2000
  195.5680  173.4090  141.2080 C   0  0  2  0  0  3  0  0  0  0  0  0
  193.7540  174.8750  140.3150 C   0  0  0  0  0  3  0  0  0  0  0  0
  194.8360  174.1100  140.0840 C   0  0  0  0  0  0  0  0  0  0  0  0
  196.9840  174.6770  144.3770 C   0  0  0  0  0  2  0  0  0  0  0  0
  195.7670  175.3830  144.3030 O   0  0  0  0  0  0  0  0  0  0  0  0
  194.1040  175.8550  142.5910 C   0  0  1  0  0  3  0  0  0  0  0  0
  195.0820  174.8500  143.1990 C   0  0  1  0  0  3  0  0  0  0  0  0
  193.1440  175.1220  141.6620 C   0  0  0  0  0  2  0  0  0  0  0  0
  197.1950  173.9000  143.0930 C   0  0  0  0  0  2  0  0  0  0  0  0
  196.1260  174.4390  142.1930 C   0  0  1  0  0  3  0  0  0  0  0  0
  197.6330  173.5300  140.4090 C   0  0  0  0  0  1  0  0  0  0  0  0
  196.6050  172.6270  140.6860 O   0  0  0  0  0  0  0  0  0  0  0  0
  195.3110  173.9440  138.7770 O   0  0  0  0  0  0  0  0  0  0  0  0
  195.7600  175.0280  137.9710 C   0  0  0  0  0  2  0  0  0  0  0  0
  196.5760  174.4960  136.8040 C   0  0  0  0  0  2  0  0  0  0  0  0
  195.9570  174.8200  135.5970 O   0  0  0  0  0  0  0  0  0  0  0  0
  195.4540  176.1030  135.7960 C   0  0  0  0  0  2  0  0  0  0  0  0
  194.2620  176.3450  134.8840 C   0  0  0  0  0  2  0  0  0  0  0  0
  192.9810  176.1770  135.6800 C   0  0  0  0  0  2  0  0  0  0  0  0
  191.7700  176.3560  134.7810 C   0  0  0  0  0  2  0  0  0  0  0  0
  190.9920  175.0520  134.7080 C   0  0  1  0  0  3  0  0  0  0  0  0
  191.7890  173.9150  135.3620 C   0  0  0  0  0  2  0  0  0  0  0  0
  188.7090  173.9850  137.5610 C   0  0  0  0  0  2  0  0  0  0  0  0
  191.5660  173.2350  137.7830 C   0  0  0  0  0  2  0  0  0  0  0  0
  189.0880  172.8600  138.5190 C   0  0  0  0  0  2  0  0  0  0  0  0
  190.8840  173.2570  136.4150 C   0  0  1  0  0  3  0  0  0  0  0  0
  190.5640  172.9790  138.9480 C   0  0  1  0  0  3  0  0  0  0  0  0
  188.8430  175.9570  135.3580 O   0  0  0  0  0  0  0  0  0  0  0  0
  189.6900  174.0770  136.4830 N   0  0  0  0  0  0  0  0  0  0  0  0
  189.7650  175.1170  135.5320 C   0  0  0  0  0  0  0  0  0  0  0  0
  190.5450  172.0920  141.2040 C   0  0  0  0  0  2  0  0  0  0  0  0
  190.2970  170.6310  139.2930 C   0  0  0  0  0  2  0  0  0  0  0  0
  190.8900  169.3900  139.9780 C   0  0  0  0  0  2  0  0  0  0  0  0
  190.9400  171.8440  139.8020 N   0  0  1  0  0  0  0  0  0  0  0  0
  191.2770  169.6460  141.4440 C   0  0  2  0  0  3  0  0  0  0  0  0
  190.4860  170.8100  142.0550 C   0  0  0  0  0  2  0  0  0  0  0  0
  192.7890  169.8050  141.6210 C   0  0  2  0  0  0  0  0  0  0  0  0
  194.6270  168.5280  142.2240 O   0  0  0  0  0  1  0  0  0  0  0  0
  193.3230  170.2630  142.9020 C   0  0  0  0  0  2  0  0  0  0  0  0
  193.5960  170.0650  140.5010 O   0  0  0  0  0  1  0  0  0  0  0  0
  193.3510  168.8170  142.5770 N   0  0  0  0  0  0  0  0  0  0  0  0
  193.2970  176.5530  143.6670 C   0  0  0  0  0  2  0  0  0  0  0  0
  192.4610  177.6450  143.0320 C   0  0  0  0  0  2  0  0  0  0  0  0
  190.8880  177.2070  144.9490 N   0  0  0  0  0  2  0  0  0  0  0  0
  190.1000  178.0340  142.9100 O   0  0  0  0  0  0  0  0  0  0  0  0
  191.0880  177.6800  143.6140 C   0  0  0  0  0  0  0  0  0  0  0  0
  189.5600  176.9000  145.4750 C   0  0  1  0  0  3  0  0  0  0  0  0
  189.0140  175.6260  144.8100 C   0  0  1  0  0  3  0  0  0  0  0  0
  189.0580  174.4060  145.7410 C   0  0  0  0  0  2  0  0  0  0  0  0
  189.8450  173.2540  145.1360 C   0  0  0  0  0  2  0  0  0  0  0  0
  191.0090  173.8050  144.3380 C   0  0  0  0  0  2  0  0  0  0  0  0
  192.8340  174.0380  145.9910 C   0  0  0  0  0  1  0  0  0  0  0  0
  192.2960  173.1970  144.8520 C   0  0  0  0  0  2  0  0  0  0  0  0
  187.5990  175.8380  144.2780 C   0  0  0  0  0  2  0  0  0  0  0  0
  186.8880  176.9450  145.0420 C   0  0  0  0  0  2  0  0  0  0  0  0
  185.8100  177.4360  144.3000 O   0  0  0  0  0  0  0  0  0  0  0  0
  185.2330  177.6890  142.0050 C   0  0  0  0  0  1  0  0  0  0  0  0
  186.3440  177.6750  143.0350 C   0  0  0  0  0  2  0  0  0  0  0  0
  189.6410  176.7230  146.9190 N   0  0  0  0  0  2  0  0  0  0  0  0
  190.5530  177.7380  147.4290 C   0  0  0  0  0  2  0  0  0  0  0  0
  191.2800  175.7750  148.5970 O   0  0  0  0  0  1  0  0  0  0  0  0
  191.5910  177.1130  148.3460 C   0  0  0  0  0  3  0  0  0  0  0  0
  191.6430  177.8150  149.5510 O   0  0  0  0  0  1  0  0  0  0  0  0
  1 12  1  6  0  0  0
  1 10  1  0  0  0  0
  2  8  1  0  0  0  0
  3  2  2  0  0  0  0
  3  1  1  0  0  0  0
  5  4  1  0  0  0  0
  6  7  1  0  0  0  0
  6 42  1  1  0  0  0
  7  5  1  1  0  0  0
  8  6  1  0  0  0  0
  9  4  1  0  0  0  0
 10  9  1  1  0  0  0
 10  7  1  0  0  0  0
 11 12  1  0  0  0  0
 13  3  1  0  0  0  0
 14 13  1  0  0  0  0
 15 14  1  0  0  0  0
 16 17  1  0  0  0  0
 16 15  1  0  0  0  0
 18 19  1  0  0  0  0
 18 17  1  0  0  0  0
 20 19  1  0  0  0  0
 21 20  1  1  0  0  0
 21 22  1  0  0  0  0
 21 30  1  0  0  0  0
 23 25  1  0  0  0  0
 25 27  1  0  0  0  0
 26 22  1  6  0  0  0
 26 29  1  0  0  0  0
 26 24  1  0  0  0  0
 27 24  1  6  0  0  0
 27 34  1  0  0  0  0
 28 30  2  0  0  0  0
 29 23  1  0  0  0  0
 30 29  1  0  0  0  0
 31 36  1  0  0  0  0
 32 33  1  0  0  0  0
 34 32  1  6  0  0  0
 34 31  1  0  0  0  0
 35 33  1  6  0  0  0
 35 37  1  0  0  0  0
 35 36  1  0  0  0  0
 37 40  1  6  0  0  0
 37 41  1  0  0  0  0
 37 39  1  0  0  0  0
 38 41  1  0  0  0  0
 41 39  1  0  0  0  0
 43 46  1  0  0  0  0
 43 42  1  0  0  0  0
 45 46  2  0  0  0  0
 46 44  1  0  0  0  0
 47 44  1  6  0  0  0
 47 59  1  0  0  0  0
 48 54  1  1  0  0  0
 48 47  1  0  0  0  0
 48 49  1  0  0  0  0
 50 49  1  0  0  0  0
 51 53  1  0  0  0  0
 51 50  1  0  0  0  0
 53 52  1  0  0  0  0
 54 55  1  0  0  0  0
 56 55  1  0  0  0  0
 57 58  1  0  0  0  0
 58 56  1  0  0  0  0
 59 60  1  0  0  0  0
 60 62  1  0  0  0  0
 62 61  1  0  0  0  0
 62 63  1  0  0  0  0
M  END
>  <MODEL>
6

>  <REMARK>
 VINA RESULT:      -4.5      2.408      4.834
  Name = 
  28 active torsions:
  status: ('A' for Active; 'I' for Inactive)
    1  A    between atoms: C_1  and  C_34
    2  A    between atoms: C_2  and  C_7
    3  A    between atoms: C_2  and  O_25
    4  A    between atoms: C_4  and  C_37
    5  A    between atoms: C_7  and  O_54
    6  A    between atoms: N_9  and  C_38
    7  A    between atoms: C_10  and  O_50
    8  A    between atoms: N_14  and  C_29
    9  A    between atoms: N_14  and  C_57
   10  A    between atoms: N_15  and  C_57
   11  A    between atoms: C_20  and  C_33
   12  A    between atoms: C_20  and  C_55
   13  A    between atoms: C_21  and  C_57
   14  A    between atoms: C_21  and  C_58
   15  A    between atoms: C_21  and  C_62
   16  A    between atoms: C_22  and  C_41
   17  A    between atoms: C_22  and  C_61
   18  A    between atoms: O_25  and  C_26
   19  A    between atoms: C_28  and  C_29
   20  A    between atoms: C_32  and  O_36
   21  A    between atoms: C_32  and  C_62
   22  A    between atoms: C_33  and  C_58
   23  A    between atoms: C_34  and  C_56
   24  A    between atoms: C_35  and  O_54
   25  A    between atoms: C_35  and  C_59
   26  A    between atoms: O_36  and  C_60
   27  A    between atoms: C_44  and  C_61
   28  A    between atoms: C_56  and  C_59
                            x       y       z     vdW  Elec       q    Type
                         _______ _______ _______ _____ _____    ______ ____

>  <TORSDO>
F 28

$$$$
=
 OpenBabel11042415263D

 63 68  0  0  1  0  0  0  0  0999 V2000
  195.2540  174.2810  142.4980 C   0  0  2  0  0  3  0  0  0  0  0  0
  193.5720  175.3280  140.9780 C   0  0  0  0  0  3  0  0  0  0  0  0
  194.7370  174.6740  141.1310 C   0  0  0  0  0  0  0  0  0  0  0  0
  195.8170  176.2610  145.5660 C   0  0  0  0  0  2  0  0  0  0  0  0
  194.5940  176.7870  145.1050 O   0  0  0  0  0  0  0  0  0  0  0  0
  193.3230  176.7350  143.0320 C   0  0  1  0  0  3  0  0  0  0  0  0
  194.2190  175.9840  144.0160 C   0  0  1  0  0  3  0  0  0  0  0  0
  192.6580  175.7350  142.0940 C   0  0  0  0  0  2  0  0  0  0  0  0
  196.3730  175.2990  144.5360 C   0  0  0  0  0  2  0  0  0  0  0  0
  195.4920  175.5320  143.3480 C   0  0  1  0  0  3  0  0  0  0  0  0
  196.1220  172.2630  142.8000 C   0  0  0  0  0  1  0  0  0  0  0  0
  196.4420  173.5510  142.3660 O   0  0  0  0  0  0  0  0  0  0  0  0
  195.5050  174.3350  140.0080 O   0  0  0  0  0  0  0  0  0  0  0  0
  196.5110  175.1880  139.4720 C   0  0  0  0  0  2  0  0  0  0  0  0
  197.6350  174.3480  138.8890 C   0  0  0  0  0  2  0  0  0  0  0  0
  197.4790  174.2250  137.5080 O   0  0  0  0  0  0  0  0  0  0  0  0
  196.6410  175.2800  137.1570 C   0  0  0  0  0  2  0  0  0  0  0  0
  195.5870  174.8040  136.1710 C   0  0  0  0  0  2  0  0  0  0  0  0
  194.2290  175.3290  136.5990 C   0  0  0  0  0  2  0  0  0  0  0  0
  193.2810  175.3800  135.4130 C   0  0  0  0  0  2  0  0  0  0  0  0
  192.7280  173.9900  135.1410 C   0  0  1  0  0  3  0  0  0  0  0  0
  193.4880  172.9410  135.9630 C   0  0  0  0  0  2  0  0  0  0  0  0
  189.9840  172.5240  137.3340 C   0  0  0  0  0  2  0  0  0  0  0  0
  192.7750  172.1410  138.2500 C   0  0  0  0  0  2  0  0  0  0  0  0
  190.2670  171.4200  138.3490 C   0  0  0  0  0  2  0  0  0  0  0  0
  192.4510  172.1300  136.7550 C   0  0  1  0  0  3  0  0  0  0  0  0
  191.5640  171.7120  139.1290 C   0  0  1  0  0  3  0  0  0  0  0  0
  190.3830  174.5840  135.2470 O   0  0  0  0  0  0  0  0  0  0  0  0
  191.1760  172.7860  136.5330 N   0  0  0  0  0  0  0  0  0  0  0  0
  191.3400  173.8640  135.6370 C   0  0  0  0  0  0  0  0  0  0  0  0
  190.9140  170.5730  141.1680 C   0  0  0  0  0  2  0  0  0  0  0  0
  191.8230  169.3440  139.2950 C   0  0  0  0  0  2  0  0  0  0  0  0
  192.4140  168.2040  140.1380 C   0  0  0  0  0  2  0  0  0  0  0  0
  191.8700  170.6020  140.0420 N   0  0  1  0  0  0  0  0  0  0  0  0
  192.1220  168.3600  141.6400 C   0  0  2  0  0  3  0  0  0  0  0  0
  190.8760  169.2180  141.9000 C   0  0  0  0  0  2  0  0  0  0  0  0
  193.3470  168.8510  142.4170 C   0  0  2  0  0  0  0  0  0  0  0  0
  194.6580  168.2000  144.2140 O   0  0  0  0  0  1  0  0  0  0  0  0
  193.1730  169.7800  143.5300 C   0  0  0  0  0  2  0  0  0  0  0  0
  194.6000  168.8940  141.7830 O   0  0  0  0  0  1  0  0  0  0  0  0
  193.3720  168.3380  143.8100 N   0  0  0  0  0  0  0  0  0  0  0  0
  192.2420  177.5100  143.7580 C   0  0  0  0  0  2  0  0  0  0  0  0
  191.1130  177.8110  142.7930 C   0  0  0  0  0  2  0  0  0  0  0  0
  189.6850  177.0560  144.7250 N   0  0  0  0  0  2  0  0  0  0  0  0
  188.8460  177.0780  142.5450 O   0  0  0  0  0  0  0  0  0  0  0  0
  189.8060  177.3290  143.3270 C   0  0  0  0  0  0  0  0  0  0  0  0
  188.5730  176.2850  145.2740 C   0  0  1  0  0  3  0  0  0  0  0  0
  189.1000  175.0020  145.9360 C   0  0  1  0  0  3  0  0  0  0  0  0
  190.0570  174.2150  145.0280 C   0  0  0  0  0  2  0  0  0  0  0  0
  189.3100  173.3320  144.0420 C   0  0  0  0  0  2  0  0  0  0  0  0
  189.8910  173.5220  142.6560 C   0  0  0  0  0  2  0  0  0  0  0  0
  189.0120  174.3940  140.5140 C   0  0  0  0  0  1  0  0  0  0  0  0
  188.7850  173.3960  141.6310 C   0  0  0  0  0  2  0  0  0  0  0  0
  189.7680  175.3010  147.2770 C   0  0  0  0  0  2  0  0  0  0  0  0
  191.2770  175.1350  147.1850 C   0  0  0  0  0  2  0  0  0  0  0  0
  191.9240  176.2760  147.6670 O   0  0  0  0  0  0  0  0  0  0  0  0
  191.2590  178.1110  149.0290 C   0  0  0  0  0  1  0  0  0  0  0  0
  191.2190  176.6100  148.8210 C   0  0  0  0  0  2  0  0  0  0  0  0
  187.8540  177.0980  146.2460 N   0  0  0  0  0  2  0  0  0  0  0  0
  186.4660  176.6560  146.2380 C   0  0  0  0  0  2  0  0  0  0  0  0
  186.3230  178.8060  145.1870 O   0  0  0  0  0  1  0  0  0  0  0  0
  185.5860  177.6690  145.5240 C   0  0  0  0  0  3  0  0  0  0  0  0
  184.5170  178.0310  146.3450 O   0  0  0  0  0  1  0  0  0  0  0  0
  1 12  1  6  0  0  0
  1 10  1  0  0  0  0
  2  3  2  0  0  0  0
  2  8  1  0  0  0  0
  3  1  1  0  0  0  0
  5  4  1  0  0  0  0
  6 42  1  1  0  0  0
  6  7  1  0  0  0  0
  7  5  1  1  0  0  0
  8  6  1  0  0  0  0
  9  4  1  0  0  0  0
 10  7  1  0  0  0  0
 10  9  1  1  0  0  0
 12 11  1  0  0  0  0
 13  3  1  0  0  0  0
 14 13  1  0  0  0  0
 15 14  1  0  0  0  0
 16 15  1  0  0  0  0
 17 16  1  0  0  0  0
 18 19  1  0  0  0  0
 18 17  1  0  0  0  0
 20 19  1  0  0  0  0
 21 20  1  1  0  0  0
 21 30  1  0  0  0  0
 21 22  1  0  0  0  0
 23 25  1  0  0  0  0
 25 27  1  0  0  0  0
 26 22  1  6  0  0  0
 26 24  1  0  0  0  0
 27 24  1  6  0  0  0
 27 34  1  0  0  0  0
 28 30  2  0  0  0  0
 29 26  1  0  0  0  0
 29 23  1  0  0  0  0
 30 29  1  0  0  0  0
 31 36  1  0  0  0  0
 32 33  1  0  0  0  0
 34 32  1  6  0  0  0
 34 31  1  0  0  0  0
 35 33  1  6  0  0  0
 35 36  1  0  0  0  0
 35 37  1  0  0  0  0
 37 40  1  6  0  0  0
 37 39  1  0  0  0  0
 37 41  1  0  0  0  0
 39 41  1  0  0  0  0
 41 38  1  0  0  0  0
 43 46  1  0  0  0  0
 43 42  1  0  0  0  0
 45 46  2  0  0  0  0
 46 44  1  0  0  0  0
 47 44  1  1  0  0  0
 47 48  1  0  0  0  0
 47 59  1  0  0  0  0
 48 49  1  6  0  0  0
 48 54  1  0  0  0  0
 50 49  1  0  0  0  0
 51 50  1  0  0  0  0
 52 53  1  0  0  0  0
 53 51  1  0  0  0  0
 55 54  1  0  0  0  0
 55 56  1  0  0  0  0
 56 58  1  0  0  0  0
 58 57  1  0  0  0  0
 60 59  1  0  0  0  0
 61 62  1  0  0  0  0
 62 60  1  0  0  0  0
 62 63  1  0  0  0  0
M  END
>  <MODEL>
7

>  <REMARK>
 VINA RESULT:      -4.1      2.421      4.320
  Name = 
  28 active torsions:
  status: ('A' for Active; 'I' for Inactive)
    1  A    between atoms: C_1  and  C_34
    2  A    between atoms: C_2  and  C_7
    3  A    between atoms: C_2  and  O_25
    4  A    between atoms: C_4  and  C_37
    5  A    between atoms: C_7  and  O_54
    6  A    between atoms: N_9  and  C_38
    7  A    between atoms: C_10  and  O_50
    8  A    between atoms: N_14  and  C_29
    9  A    between atoms: N_14  and  C_57
   10  A    between atoms: N_15  and  C_57
   11  A    between atoms: C_20  and  C_33
   12  A    between atoms: C_20  and  C_55
   13  A    between atoms: C_21  and  C_57
   14  A    between atoms: C_21  and  C_58
   15  A    between atoms: C_21  and  C_62
   16  A    between atoms: C_22  and  C_41
   17  A    between atoms: C_22  and  C_61
   18  A    between atoms: O_25  and  C_26
   19  A    between atoms: C_28  and  C_29
   20  A    between atoms: C_32  and  O_36
   21  A    between atoms: C_32  and  C_62
   22  A    between atoms: C_33  and  C_58
   23  A    between atoms: C_34  and  C_56
   24  A    between atoms: C_35  and  O_54
   25  A    between atoms: C_35  and  C_59
   26  A    between atoms: O_36  and  C_60
   27  A    between atoms: C_44  and  C_61
   28  A    between atoms: C_56  and  C_59
                            x       y       z     vdW  Elec       q    Type
                         _______ _______ _______ _____ _____    ______ ____

>  <TORSDO>
F 28

$$$$
=
 OpenBabel11042415263D

 63 68  0  0  1  0  0  0  0  0999 V2000
  192.1040  170.6690  138.3850 C   0  0  2  0  0  3  0  0  0  0  0  0
  191.4330  171.3780  140.6840 C   0  0  0  0  0  3  0  0  0  0  0  0
  191.9330  170.4310  139.8690 C   0  0  0  0  0  0  0  0  0  0  0  0
  189.7290  171.8200  135.7980 C   0  0  0  0  0  2  0  0  0  0  0  0
  189.3990  172.6560  136.8830 O   0  0  0  0  0  0  0  0  0  0  0  0
  189.8320  172.6890  139.2770 C   0  0  1  0  0  3  0  0  0  0  0  0
  190.3600  172.3940  137.8740 C   0  0  1  0  0  3  0  0  0  0  0  0
  191.0020  172.7470  140.2520 C   0  0  0  0  0  2  0  0  0  0  0  0
  190.7380  170.7830  136.2490 C   0  0  0  0  0  2  0  0  0  0  0  0
  190.7440  170.9430  137.7370 C   0  0  1  0  0  3  0  0  0  0  0  0
  191.6970  168.5960  137.7120 C   0  0  0  0  0  1  0  0  0  0  0  0
  192.7080  169.5550  137.7900 O   0  0  0  0  0  0  0  0  0  0  0  0
  192.3130  169.1870  140.3900 O   0  0  0  0  0  0  0  0  0  0  0  0
  192.6090  168.9800  141.7670 C   0  0  0  0  0  2  0  0  0  0  0  0
  193.4210  170.1500  142.2970 C   0  0  0  0  0  2  0  0  0  0  0  0
  193.3350  170.2050  143.6880 O   0  0  0  0  0  0  0  0  0  0  0  0
  194.0570  169.0980  144.1270 C   0  0  0  0  0  2  0  0  0  0  0  0
  194.6300  169.3620  145.5090 C   0  0  0  0  0  2  0  0  0  0  0  0
  195.1890  170.7710  145.5580 C   0  0  0  0  0  2  0  0  0  0  0  0
  196.5150  170.7920  146.3000 C   0  0  0  0  0  2  0  0  0  0  0  0
  197.4940  171.6970  145.5720 C   0  0  1  0  0  3  0  0  0  0  0  0
  197.5220  171.3610  144.0750 C   0  0  0  0  0  2  0  0  0  0  0  0
  196.3250  174.9510  143.9790 C   0  0  0  0  0  2  0  0  0  0  0  0
  196.0840  172.4960  142.3380 C   0  0  0  0  0  2  0  0  0  0  0  0
  196.1840  175.1030  142.4680 C   0  0  0  0  0  2  0  0  0  0  0  0
  197.2610  172.6620  143.3000 C   0  0  1  0  0  3  0  0  0  0  0  0
  195.5110  173.8610  141.8510 C   0  0  1  0  0  3  0  0  0  0  0  0
  196.8330  173.7650  146.6430 O   0  0  0  0  0  0  0  0  0  0  0  0
  196.9320  173.6610  144.2980 N   0  0  0  0  0  0  0  0  0  0  0  0
  197.0350  173.1030  145.5910 C   0  0  0  0  0  0  0  0  0  0  0  0
  195.5310  172.6520  139.7500 C   0  0  0  0  0  2  0  0  0  0  0  0
  194.2190  174.6670  140.0120 C   0  0  0  0  0  2  0  0  0  0  0  0
  194.2640  175.0660  138.5290 C   0  0  0  0  0  2  0  0  0  0  0  0
  195.4580  173.9830  140.3880 N   0  0  1  0  0  0  0  0  0  0  0  0
  195.0190  174.0470  137.6590 C   0  0  2  0  0  3  0  0  0  0  0  0
  195.0360  172.6490  138.2920 C   0  0  0  0  0  2  0  0  0  0  0  0
  196.4190  174.5380  137.2810 C   0  0  2  0  0  0  0  0  0  0  0  0
  197.5290  175.4260  135.4500 O   0  0  0  0  0  1  0  0  0  0  0  0
  197.4090  173.5870  136.7820 C   0  0  0  0  0  2  0  0  0  0  0  0
  196.9410  175.6890  137.8950 O   0  0  0  0  0  1  0  0  0  0  0  0
  196.6730  174.4430  135.8210 N   0  0  0  0  0  0  0  0  0  0  0  0
  189.1020  174.0160  139.3190 C   0  0  0  0  0  2  0  0  0  0  0  0
  188.0440  173.9680  140.4030 C   0  0  0  0  0  2  0  0  0  0  0  0
  188.0940  175.1250  142.6390 N   0  0  0  0  0  2  0  0  0  0  0  0
  187.9140  176.3460  140.6560 O   0  0  0  0  0  0  0  0  0  0  0  0
  188.0460  175.2210  141.2140 C   0  0  0  0  0  0  0  0  0  0  0  0
  187.7740  176.2570  143.5060 C   0  0  1  0  0  3  0  0  0  0  0  0
  189.0680  176.9450  143.9680 C   0  0  1  0  0  3  0  0  0  0  0  0
  188.9640  177.5100  145.3920 C   0  0  0  0  0  2  0  0  0  0  0  0
  187.5930  177.2690  146.0040 C   0  0  0  0  0  2  0  0  0  0  0  0
  187.5300  177.9200  147.3700 C   0  0  0  0  0  2  0  0  0  0  0  0
  185.1760  177.5830  146.6890 C   0  0  0  0  0  1  0  0  0  0  0  0
  186.0890  178.2450  147.7000 C   0  0  0  0  0  2  0  0  0  0  0  0
  190.2680  176.0080  143.8570 C   0  0  0  0  0  2  0  0  0  0  0  0
  191.1180  176.0550  145.1170 C   0  0  0  0  0  2  0  0  0  0  0  0
  191.2830  174.7720  145.6440 O   0  0  0  0  0  0  0  0  0  0  0  0
  193.2350  176.0570  146.0970 C   0  0  0  0  0  1  0  0  0  0  0  0
  192.3580  174.8960  146.5220 C   0  0  0  0  0  2  0  0  0  0  0  0
  186.9310  177.1990  142.7800 N   0  0  0  0  0  2  0  0  0  0  0  0
  185.5470  176.8770  143.1020 C   0  0  0  0  0  2  0  0  0  0  0  0
  184.8770  177.9850  141.0840 O   0  0  0  0  0  1  0  0  0  0  0  0
  184.6010  177.8720  142.4490 C   0  0  0  0  0  3  0  0  0  0  0  0
  184.7310  179.1200  143.0580 O   0  0  0  0  0  1  0  0  0  0  0  0
  1 12  1  6  0  0  0
  1  3  1  0  0  0  0
  3 13  1  0  0  0  0
  3  2  2  0  0  0  0
  4  9  1  0  0  0  0
  4  5  1  0  0  0  0
  6 42  1  6  0  0  0
  6  8  1  0  0  0  0
  7  5  1  6  0  0  0
  7  6  1  0  0  0  0
  8  2  1  0  0  0  0
 10  9  1  6  0  0  0
 10  7  1  0  0  0  0
 10  1  1  0  0  0  0
 11 12  1  0  0  0  0
 13 14  1  0  0  0  0
 14 15  1  0  0  0  0
 15 16  1  0  0  0  0
 16 17  1  0  0  0  0
 17 18  1  0  0  0  0
 18 19  1  0  0  0  0
 19 20  1  0  0  0  0
 21 30  1  0  0  0  0
 21 20  1  1  0  0  0
 22 21  1  0  0  0  0
 23 29  1  0  0  0  0
 25 23  1  0  0  0  0
 26 24  1  6  0  0  0
 26 22  1  0  0  0  0
 26 29  1  0  0  0  0
 27 24  1  6  0  0  0
 27 25  1  0  0  0  0
 29 30  1  0  0  0  0
 30 28  2  0  0  0  0
 32 34  1  0  0  0  0
 33 32  1  0  0  0  0
 34 31  1  6  0  0  0
 34 27  1  0  0  0  0
 35 36  1  1  0  0  0
 35 33  1  0  0  0  0
 36 31  1  0  0  0  0
 37 35  1  0  0  0  0
 37 40  1  1  0  0  0
 38 41  1  0  0  0  0
 39 37  1  0  0  0  0
 41 39  1  0  0  0  0
 41 37  1  0  0  0  0
 42 43  1  0  0  0  0
 43 46  1  0  0  0  0
 45 46  2  0  0  0  0
 46 44  1  0  0  0  0
 47 44  1  6  0  0  0
 47 48  1  0  0  0  0
 48 54  1  1  0  0  0
 48 49  1  0  0  0  0
 49 50  1  0  0  0  0
 50 51  1  0  0  0  0
 51 53  1  0  0  0  0
 52 53  1  0  0  0  0
 54 55  1  0  0  0  0
 55 56  1  0  0  0  0
 56 58  1  0  0  0  0
 57 58  1  0  0  0  0
 59 60  1  0  0  0  0
 59 47  1  0  0  0  0
 61 62  1  0  0  0  0
 62 63  1  0  0  0  0
 62 60  1  0  0  0  0
M  END
>  <MODEL>
8

>  <REMARK>
 VINA RESULT:      -4.1      2.450      7.351
  Name = 
  28 active torsions:
  status: ('A' for Active; 'I' for Inactive)
    1  A    between atoms: C_1  and  C_34
    2  A    between atoms: C_2  and  C_7
    3  A    between atoms: C_2  and  O_25
    4  A    between atoms: C_4  and  C_37
    5  A    between atoms: C_7  and  O_54
    6  A    between atoms: N_9  and  C_38
    7  A    between atoms: C_10  and  O_50
    8  A    between atoms: N_14  and  C_29
    9  A    between atoms: N_14  and  C_57
   10  A    between atoms: N_15  and  C_57
   11  A    between atoms: C_20  and  C_33
   12  A    between atoms: C_20  and  C_55
   13  A    between atoms: C_21  and  C_57
   14  A    between atoms: C_21  and  C_58
   15  A    between atoms: C_21  and  C_62
   16  A    between atoms: C_22  and  C_41
   17  A    between atoms: C_22  and  C_61
   18  A    between atoms: O_25  and  C_26
   19  A    between atoms: C_28  and  C_29
   20  A    between atoms: C_32  and  O_36
   21  A    between atoms: C_32  and  C_62
   22  A    between atoms: C_33  and  C_58
   23  A    between atoms: C_34  and  C_56
   24  A    between atoms: C_35  and  O_54
   25  A    between atoms: C_35  and  C_59
   26  A    between atoms: O_36  and  C_60
   27  A    between atoms: C_44  and  C_61
   28  A    between atoms: C_56  and  C_59
                            x       y       z     vdW  Elec       q    Type
                         _______ _______ _______ _____ _____    ______ ____

>  <TORSDO>
F 28

$$$$
=
 OpenBabel11042415263D

 63 68  0  0  1  0  0  0  0  0999 V2000
  186.0700  177.8450  143.4580 C   0  0  2  0  0  3  0  0  0  0  0  0
  188.3170  177.5140  142.4190 C   0  0  0  0  0  3  0  0  0  0  0  0
  186.9820  177.3700  142.3480 C   0  0  0  0  0  0  0  0  0  0  0  0
  186.0750  177.1710  147.0910 C   0  0  0  0  0  2  0  0  0  0  0  0
  187.4490  177.3330  146.8270 O   0  0  0  0  0  0  0  0  0  0  0  0
  188.8730  177.3670  144.8550 C   0  0  1  0  0  3  0  0  0  0  0  0
  187.5350  177.7470  145.4880 C   0  0  1  0  0  3  0  0  0  0  0  0
  189.0560  178.1480  143.5590 C   0  0  0  0  0  2  0  0  0  0  0  0
  185.3060  177.1810  145.7860 C   0  0  0  0  0  2  0  0  0  0  0  0
  186.3900  177.0980  144.7560 C   0  0  1  0  0  3  0  0  0  0  0  0
  184.0850  178.8330  143.4260 C   0  0  0  0  0  1  0  0  0  0  0  0
  184.7330  177.6400  143.0970 O   0  0  0  0  0  0  0  0  0  0  0  0
  186.4010  176.7680  141.2240 O   0  0  0  0  0  0  0  0  0  0  0  0
  186.5630  177.2730  139.9020 C   0  0  0  0  0  2  0  0  0  0  0  0
  187.3710  176.2880  139.0740 C   0  0  0  0  0  2  0  0  0  0  0  0
  187.6350  175.1370  139.8170 O   0  0  0  0  0  0  0  0  0  0  0  0
  188.6870  174.5210  139.1440 C   0  0  0  0  0  2  0  0  0  0  0  0
  188.3090  173.0950  138.7770 C   0  0  0  0  0  2  0  0  0  0  0  0
  189.5010  172.4120  138.1330 C   0  0  0  0  0  2  0  0  0  0  0  0
  189.6730  172.8840  136.6990 C   0  0  0  0  0  2  0  0  0  0  0  0
  190.9730  172.3360  136.1340 C   0  0  1  0  0  3  0  0  0  0  0  0
  192.1760  173.0240  136.7930 C   0  0  0  0  0  2  0  0  0  0  0  0
  192.7580  169.4270  137.8200 C   0  0  0  0  0  2  0  0  0  0  0  0
  193.3720  172.1420  138.8340 C   0  0  0  0  0  2  0  0  0  0  0  0
  194.0380  169.6260  138.6250 C   0  0  0  0  0  2  0  0  0  0  0  0
  193.0960  171.9250  137.3460 C   0  0  1  0  0  3  0  0  0  0  0  0
  193.9300  170.8660  139.5330 C   0  0  1  0  0  3  0  0  0  0  0  0
  190.3530  169.9970  136.1900 O   0  0  0  0  0  0  0  0  0  0  0  0
  192.3800  170.6770  137.1650 N   0  0  0  0  0  0  0  0  0  0  0  0
  191.1570  170.9160  136.5020 C   0  0  0  0  0  0  0  0  0  0  0  0
  195.6100  169.8840  140.9780 C   0  0  0  0  0  2  0  0  0  0  0  0
  196.2230  171.4770  139.2650 C   0  0  0  0  0  2  0  0  0  0  0  0
  197.4730  172.0000  139.9890 C   0  0  0  0  0  2  0  0  0  0  0  0
  195.1980  171.0950  140.2390 N   0  0  1  0  0  0  0  0  0  0  0  0
  197.7350  171.2780  141.3220 C   0  0  2  0  0  3  0  0  0  0  0  0
  197.1030  169.8800  141.3560 C   0  0  0  0  0  2  0  0  0  0  0  0
  197.3350  172.1330  142.5280 C   0  0  2  0  0  0  0  0  0  0  0  0
  197.8920  172.3780  144.7640 O   0  0  0  0  0  1  0  0  0  0  0  0
  196.2200  171.7150  143.3740 C   0  0  0  0  0  2  0  0  0  0  0  0
  197.6060  173.5120  142.5220 O   0  0  0  0  0  1  0  0  0  0  0  0
  197.6090  171.4510  143.8170 N   0  0  0  0  0  0  0  0  0  0  0  0
  190.0280  177.6890  145.7810 C   0  0  0  0  0  2  0  0  0  0  0  0
  190.1580  176.5900  146.8170 C   0  0  0  0  0  2  0  0  0  0  0  0
  191.5080  175.4600  145.0170 N   0  0  0  0  0  2  0  0  0  0  0  0
  190.4930  174.2210  146.7170 O   0  0  0  0  0  0  0  0  0  0  0  0
  190.7440  175.3550  146.2200 C   0  0  0  0  0  0  0  0  0  0  0  0
  191.8350  174.2950  144.1980 C   0  0  1  0  0  3  0  0  0  0  0  0
  191.7900  174.6720  142.7090 C   0  0  1  0  0  3  0  0  0  0  0  0
  192.9310  175.6170  142.3010 C   0  0  0  0  0  2  0  0  0  0  0  0
  194.0150  174.8970  141.5160 C   0  0  0  0  0  2  0  0  0  0  0  0
  194.5620  175.8230  140.4490 C   0  0  0  0  0  2  0  0  0  0  0  0
  196.8730  175.5940  139.5990 C   0  0  0  0  0  1  0  0  0  0  0  0
  195.4660  175.0380  139.5240 C   0  0  0  0  0  2  0  0  0  0  0  0
  191.7850  173.4310  141.8200 C   0  0  0  0  0  2  0  0  0  0  0  0
  190.4130  172.7750  141.8040 C   0  0  0  0  0  2  0  0  0  0  0  0
  190.2420  171.9720  142.9350 O   0  0  0  0  0  0  0  0  0  0  0  0
  188.3590  173.4220  142.7960 C   0  0  0  0  0  1  0  0  0  0  0  0
  188.8810  172.0630  143.2180 C   0  0  0  0  0  2  0  0  0  0  0  0
  193.1610  173.8080  144.5580 N   0  0  0  0  0  2  0  0  0  0  0  0
  193.7580  174.7940  145.4490 C   0  0  0  0  0  2  0  0  0  0  0  0
  196.0260  174.3880  146.1120 O   0  0  0  0  0  1  0  0  0  0  0  0
  195.2310  174.9820  145.1290 C   0  0  0  0  0  3  0  0  0  0  0  0
  195.5280  176.3430  145.0470 O   0  0  0  0  0  1  0  0  0  0  0  0
  1 12  1  6  0  0  0
  1 10  1  0  0  0  0
  2  8  1  0  0  0  0
  3  2  2  0  0  0  0
  3  1  1  0  0  0  0
  5  4  1  0  0  0  0
  6  7  1  0  0  0  0
  6 42  1  1  0  0  0
  7  5  1  1  0  0  0
  8  6  1  0  0  0  0
  9  4  1  0  0  0  0
 10  7  1  0  0  0  0
 10  9  1  1  0  0  0
 12 11  1  0  0  0  0
 13  3  1  0  0  0  0
 14 13  1  0  0  0  0
 15 16  1  0  0  0  0
 15 14  1  0  0  0  0
 17 16  1  0  0  0  0
 18 17  1  0  0  0  0
 19 18  1  0  0  0  0
 20 19  1  0  0  0  0
 21 30  1  0  0  0  0
 21 20  1  1  0  0  0
 21 22  1  0  0  0  0
 23 25  1  0  0  0  0
 24 27  1  0  0  0  0
 26 22  1  1  0  0  0
 26 24  1  0  0  0  0
 27 25  1  6  0  0  0
 27 34  1  0  0  0  0
 28 30  2  0  0  0  0
 29 26  1  0  0  0  0
 29 23  1  0  0  0  0
 30 29  1  0  0  0  0
 31 36  1  0  0  0  0
 32 33  1  0  0  0  0
 34 32  1  6  0  0  0
 34 31  1  0  0  0  0
 35 33  1  6  0  0  0
 35 36  1  0  0  0  0
 35 37  1  0  0  0  0
 37 40  1  6  0  0  0
 37 39  1  0  0  0  0
 37 41  1  0  0  0  0
 39 41  1  0  0  0  0
 41 38  1  0  0  0  0
 42 43  1  0  0  0  0
 44 46  1  0  0  0  0
 46 45  2  0  0  0  0
 46 43  1  0  0  0  0
 47 59  1  1  0  0  0
 47 44  1  0  0  0  0
 48 54  1  6  0  0  0
 48 47  1  0  0  0  0
 49 48  1  0  0  0  0
 50 49  1  0  0  0  0
 51 50  1  0  0  0  0
 53 52  1  0  0  0  0
 53 51  1  0  0  0  0
 55 54  1  0  0  0  0
 55 56  1  0  0  0  0
 56 58  1  0  0  0  0
 57 58  1  0  0  0  0
 59 60  1  0  0  0  0
 62 60  1  0  0  0  0
 62 61  1  0  0  0  0
 63 62  1  0  0  0  0
M  END
>  <MODEL>
9

>  <REMARK>
 VINA RESULT:      -4.1      2.398      7.046
  Name = 
  28 active torsions:
  status: ('A' for Active; 'I' for Inactive)
    1  A    between atoms: C_1  and  C_34
    2  A    between atoms: C_2  and  C_7
    3  A    between atoms: C_2  and  O_25
    4  A    between atoms: C_4  and  C_37
    5  A    between atoms: C_7  and  O_54
    6  A    between atoms: N_9  and  C_38
    7  A    between atoms: C_10  and  O_50
    8  A    between atoms: N_14  and  C_29
    9  A    between atoms: N_14  and  C_57
   10  A    between atoms: N_15  and  C_57
   11  A    between atoms: C_20  and  C_33
   12  A    between atoms: C_20  and  C_55
   13  A    between atoms: C_21  and  C_57
   14  A    between atoms: C_21  and  C_58
   15  A    between atoms: C_21  and  C_62
   16  A    between atoms: C_22  and  C_41
   17  A    between atoms: C_22  and  C_61
   18  A    between atoms: O_25  and  C_26
   19  A    between atoms: C_28  and  C_29
   20  A    between atoms: C_32  and  O_36
   21  A    between atoms: C_32  and  C_62
   22  A    between atoms: C_33  and  C_58
   23  A    between atoms: C_34  and  C_56
   24  A    between atoms: C_35  and  O_54
   25  A    between atoms: C_35  and  C_59
   26  A    between atoms: O_36  and  C_60
   27  A    between atoms: C_44  and  C_61
   28  A    between atoms: C_56  and  C_59
                            x       y       z     vdW  Elec       q    Type
                         _______ _______ _______ _____ _____    ______ ____

>  <TORSDO>
F 28

$$$$
