=
 OpenBabel11042415043D

 33 35  0  0  1  0  0  0  0  0999 V2000
  186.2410  177.9840  141.4030 N   0  0  0  0  0  0  0  0  0  0  0  0
  183.6490  178.2590  142.3520 C   0  0  0  0  0  3  0  0  0  0  0  0
  185.1830  178.0370  140.5400 C   0  0  0  0  0  3  0  0  0  0  0  0
  183.9060  178.1720  141.0140 N   0  0  0  0  0  0  0  0  0  0  0  0
  185.9900  178.0660  142.7330 C   0  0  0  0  0  0  0  0  0  0  0  0
  185.9600  178.1920  145.0130 C   0  0  0  0  0  0  0  0  0  0  0  0
  186.3500  178.2280  146.3860 N   0  0  0  0  0  2  0  0  0  0  0  0
  184.7270  178.2040  143.2230 C   0  0  0  0  0  0  0  0  0  0  0  0
  186.8960  178.0430  143.8720 C   0  0  0  0  0  0  0  0  0  0  0  0
  188.2340  177.9060  143.8790 C   0  0  0  0  0  0  0  0  0  0  0  0
  184.7140  178.2820  144.6430 N   0  0  0  0  0  0  0  0  0  0  0  0
  185.4280  178.3640  147.3680 O   0  0  0  0  0  1  0  0  0  0  0  0
  188.9830  177.9070  145.1820 C   0  0  0  0  0  2  0  0  0  0  0  0
  189.0640  176.6180  145.7390 O   0  0  0  0  0  0  0  0  0  0  0  0
  191.6560  175.2180  146.9160 C   0  0  0  0  0  2  0  0  0  0  0  0
  189.2640  173.9680  146.7430 Cl  0  0  0  0  0  0  0  0  0  0  0  0
  189.8900  177.6680  147.6720 O   0  0  0  0  0  1  0  0  0  0  0  0
  191.4750  176.5500  146.2080 C   0  0  0  0  0  2  0  0  0  0  0  0
  190.0570  176.6340  146.7430 C   0  0  2  0  0  0  0  0  0  0  0  0
  190.2360  175.2930  147.4490 C   0  0  2  0  0  3  0  0  0  0  0  0
  188.9790  177.7200  142.5850 C   0  0  0  0  0  2  0  0  0  0  0  0
  190.1650  176.8290  142.7630 C   0  0  0  0  0  0  0  0  0  0  0  0
  191.3830  177.3760  142.7580 C   0  0  0  0  0  3  0  0  0  0  0  0
  189.9650  175.4080  142.9340 C   0  0  0  0  0  0  0  0  0  0  0  0
  189.6070  172.7840  143.2540 C   0  0  0  0  0  1  0  0  0  0  0  0
  189.8020  174.2220  143.0780 C   0  0  0  0  0  0  0  0  0  0  0  0
  193.6070  175.9760  143.0770 C   0  0  0  0  0  0  0  0  0  0  0  0
  192.5940  176.6140  142.9360 C   0  0  0  0  0  0  0  0  0  0  0  0
  195.2750  173.9530  145.4720 C   0  0  0  0  0  3  0  0  0  0  0  0
  194.8140  175.2170  143.2360 C   0  0  0  0  0  3  0  0  0  0  0  0
  195.0440  174.5850  144.3520 C   0  0  0  0  0  0  0  0  0  0  0  0
  195.0560  172.4810  145.5840 C   0  0  0  0  0  2  0  0  0  0  0  0
  193.6510  172.1080  145.1430 C   0  0  0  0  0  1  0  0  0  0  0  0
  1  5  1  0  0  0  0
  2  8  1  0  0  0  0
  3  4  1  0  0  0  0
  3  1  2  0  0  0  0
  4  2  2  0  0  0  0
  5  8  2  0  0  0  0
  5  9  1  0  0  0  0
  6  7  1  0  0  0  0
  7 12  1  0  0  0  0
  8 11  1  0  0  0  0
  9 10  2  0  0  0  0
  9  6  1  0  0  0  0
 10 13  1  0  0  0  0
 11  6  2  0  0  0  0
 13 14  1  0  0  0  0
 14 19  1  0  0  0  0
 15 20  1  0  0  0  0
 18 19  1  0  0  0  0
 18 15  1  0  0  0  0
 19 20  1  0  0  0  0
 19 17  1  1  0  0  0
 20 16  1  6  0  0  0
 21 22  1  0  0  0  0
 21 10  1  0  0  0  0
 22 24  1  0  0  0  0
 23 22  2  0  0  0  0
 23 28  1  0  0  0  0
 24 26  3  0  0  0  0
 26 25  1  0  0  0  0
 27 30  1  0  0  0  0
 28 27  3  0  0  0  0
 29 32  1  0  0  0  0
 30 31  2  0  0  0  0
 31 29  2  0  0  0  0
 33 32  1  0  0  0  0
M  END
>  <MODEL>
1

>  <REMARK>
 VINA RESULT:      -7.1      0.000      0.000
  Name = 
  9 active torsions:
  status: ('A' for Active; 'I' for Inactive)
    1  A    between atoms: C_1  and  C_18
    2  A    between atoms: C_2  and  C_7
    3  A    between atoms: C_3  and  C_8
    4  A    between atoms: C_3  and  C_17
    5  A    between atoms: O_6  and  C_15
    6  A    between atoms: O_6  and  C_31
    7  A    between atoms: C_9  and  C_10
    8  A    between atoms: C_15  and  C_27
    9  A    between atoms: C_17  and  C_27
                            x       y       z     vdW  Elec       q    Type
                         _______ _______ _______ _____ _____    ______ ____

>  <TORSDO>
F 9

$$$$
=
 OpenBabel11042415043D

 33 35  0  0  1  0  0  0  0  0999 V2000
  189.6260  172.8180  143.1100 N   0  0  0  0  0  0  0  0  0  0  0  0
  189.0900  172.9520  140.3910 C   0  0  0  0  0  3  0  0  0  0  0  0
  189.8920  171.7560  142.2930 C   0  0  0  0  0  3  0  0  0  0  0  0
  189.6240  171.8280  140.9510 N   0  0  0  0  0  0  0  0  0  0  0  0
  189.0910  173.9360  142.5580 C   0  0  0  0  0  0  0  0  0  0  0  0
  188.2200  175.9690  141.9920 C   0  0  0  0  0  0  0  0  0  0  0  0
  187.7190  177.3050  142.0450 N   0  0  0  0  0  2  0  0  0  0  0  0
  188.8220  174.0270  141.2260 C   0  0  0  0  0  0  0  0  0  0  0  0
  188.7130  175.2040  143.1640 C   0  0  0  0  0  0  0  0  0  0  0  0
  188.7800  175.5730  144.4550 C   0  0  0  0  0  0  0  0  0  0  0  0
  188.2800  175.2950  140.8790 N   0  0  0  0  0  0  0  0  0  0  0  0
  187.2850  177.9310  140.9260 O   0  0  0  0  0  1  0  0  0  0  0  0
  188.3290  176.9450  144.8700 C   0  0  0  0  0  2  0  0  0  0  0  0
  186.9290  177.0230  144.9790 O   0  0  0  0  0  0  0  0  0  0  0  0
  184.6920  178.3990  146.7600 C   0  0  0  0  0  2  0  0  0  0  0  0
  185.5150  179.4170  144.3930 Cl  0  0  0  0  0  0  0  0  0  0  0  0
  187.7140  177.7200  147.0820 O   0  0  0  0  0  1  0  0  0  0  0  0
  185.3840  177.0530  146.8910 C   0  0  0  0  0  2  0  0  0  0  0  0
  186.6170  177.6290  146.2160 C   0  0  2  0  0  0  0  0  0  0  0  0
  185.9200  178.9790  146.0790 C   0  0  2  0  0  3  0  0  0  0  0  0
  189.2770  174.6010  145.4910 C   0  0  0  0  0  2  0  0  0  0  0  0
  190.7000  174.8750  145.8560 C   0  0  0  0  0  0  0  0  0  0  0  0
  191.6660  174.2550  145.1760 C   0  0  0  0  0  3  0  0  0  0  0  0
  190.9910  175.7990  146.9290 C   0  0  0  0  0  0  0  0  0  0  0  0
  191.5300  177.5120  148.9020 C   0  0  0  0  0  1  0  0  0  0  0  0
  191.2340  176.5720  147.8210 C   0  0  0  0  0  0  0  0  0  0  0  0
  194.2470  174.6210  145.6410 C   0  0  0  0  0  0  0  0  0  0  0  0
  193.0700  174.4570  145.4330 C   0  0  0  0  0  0  0  0  0  0  0  0
  197.3580  174.5110  143.9350 C   0  0  0  0  0  3  0  0  0  0  0  0
  195.6480  174.8110  145.8820 C   0  0  0  0  0  3  0  0  0  0  0  0
  196.5030  174.6620  144.9100 C   0  0  0  0  0  0  0  0  0  0  0  0
  197.9410  175.6920  143.2320 C   0  0  0  0  0  2  0  0  0  0  0  0
  196.9060  176.7910  143.0720 C   0  0  0  0  0  1  0  0  0  0  0  0
  2  4  2  0  0  0  0
  2  8  1  0  0  0  0
  3  1  2  0  0  0  0
  4  3  1  0  0  0  0
  5  1  1  0  0  0  0
  5  9  1  0  0  0  0
  6  7  1  0  0  0  0
  6  9  1  0  0  0  0
  8  5  2  0  0  0  0
  9 10  2  0  0  0  0
 10 13  1  0  0  0  0
 10 21  1  0  0  0  0
 11  8  1  0  0  0  0
 11  6  2  0  0  0  0
 12  7  1  0  0  0  0
 13 14  1  0  0  0  0
 14 19  1  0  0  0  0
 15 18  1  0  0  0  0
 19 18  1  0  0  0  0
 19 17  1  1  0  0  0
 20 16  1  6  0  0  0
 20 19  1  0  0  0  0
 20 15  1  0  0  0  0
 21 22  1  0  0  0  0
 22 24  1  0  0  0  0
 23 28  1  0  0  0  0
 23 22  2  0  0  0  0
 24 26  3  0  0  0  0
 26 25  1  0  0  0  0
 27 30  1  0  0  0  0
 28 27  3  0  0  0  0
 29 31  2  0  0  0  0
 31 30  2  0  0  0  0
 32 29  1  0  0  0  0
 33 32  1  0  0  0  0
M  END
>  <MODEL>
2

>  <REMARK>
 VINA RESULT:      -6.8      2.952      5.224
  Name = 
  9 active torsions:
  status: ('A' for Active; 'I' for Inactive)
    1  A    between atoms: C_1  and  C_18
    2  A    between atoms: C_2  and  C_7
    3  A    between atoms: C_3  and  C_8
    4  A    between atoms: C_3  and  C_17
    5  A    between atoms: O_6  and  C_15
    6  A    between atoms: O_6  and  C_31
    7  A    between atoms: C_9  and  C_10
    8  A    between atoms: C_15  and  C_27
    9  A    between atoms: C_17  and  C_27
                            x       y       z     vdW  Elec       q    Type
                         _______ _______ _______ _____ _____    ______ ____

>  <TORSDO>
F 9

$$$$
=
 OpenBabel11042415043D

 33 35  0  0  1  0  0  0  0  0999 V2000
  186.1210  177.8290  141.0920 N   0  0  0  0  0  0  0  0  0  0  0  0
  183.5250  178.3100  141.9450 C   0  0  0  0  0  3  0  0  0  0  0  0
  185.0930  177.9000  140.1950 C   0  0  0  0  0  3  0  0  0  0  0  0
  183.8130  178.1370  140.6220 N   0  0  0  0  0  0  0  0  0  0  0  0
  185.8380  177.9960  142.4080 C   0  0  0  0  0  0  0  0  0  0  0  0
  185.7520  178.2450  144.6760 C   0  0  0  0  0  0  0  0  0  0  0  0
  186.1050  178.3310  146.0570 N   0  0  0  0  0  2  0  0  0  0  0  0
  184.5730  178.2360  142.8510 C   0  0  0  0  0  0  0  0  0  0  0  0
  186.7090  177.9800  143.5740 C   0  0  0  0  0  0  0  0  0  0  0  0
  188.0350  177.7630  143.6300 C   0  0  0  0  0  0  0  0  0  0  0  0
  184.5250  178.3910  144.2640 N   0  0  0  0  0  0  0  0  0  0  0  0
  185.1670  178.5740  147.0010 O   0  0  0  0  0  1  0  0  0  0  0  0
  188.7460  177.7880  144.9540 C   0  0  0  0  0  2  0  0  0  0  0  0
  188.9480  176.4930  145.4620 O   0  0  0  0  0  0  0  0  0  0  0  0
  191.6660  175.3980  146.6800 C   0  0  0  0  0  2  0  0  0  0  0  0
  189.4960  173.8300  146.2900 Cl  0  0  0  0  0  0  0  0  0  0  0  0
  189.5240  177.5000  147.5060 O   0  0  0  0  0  1  0  0  0  0  0  0
  191.3200  176.7390  146.0570 C   0  0  0  0  0  2  0  0  0  0  0  0
  189.8830  176.5750  146.5180 C   0  0  2  0  0  0  0  0  0  0  0  0
  190.2280  175.2250  147.1380 C   0  0  2  0  0  3  0  0  0  0  0  0
  188.8030  177.4640  142.3710 C   0  0  0  0  0  2  0  0  0  0  0  0
  189.4330  176.1100  142.4260 C   0  0  0  0  0  0  0  0  0  0  0  0
  188.6440  175.0340  142.3700 C   0  0  0  0  0  3  0  0  0  0  0  0
  190.8700  176.0000  142.5370 C   0  0  0  0  0  0  0  0  0  0  0  0
  193.5210  175.7880  142.7500 C   0  0  0  0  0  1  0  0  0  0  0  0
  192.0680  175.9050  142.6330 C   0  0  0  0  0  0  0  0  0  0  0  0
  189.5630  172.5520  142.4310 C   0  0  0  0  0  0  0  0  0  0  0  0
  189.1450  173.6830  142.3990 C   0  0  0  0  0  0  0  0  0  0  0  0
  192.6030  170.7720  142.8710 C   0  0  0  0  0  3  0  0  0  0  0  0
  190.0620  171.2080  142.4780 C   0  0  0  0  0  3  0  0  0  0  0  0
  191.3310  170.9900  142.6750 C   0  0  0  0  0  0  0  0  0  0  0  0
  193.1170  170.3610  144.2100 C   0  0  0  0  0  2  0  0  0  0  0  0
  193.7170  171.5460  144.9470 C   0  0  0  0  0  1  0  0  0  0  0  0
  1  5  1  0  0  0  0
  2  8  1  0  0  0  0
  3  4  1  0  0  0  0
  3  1  2  0  0  0  0
  4  2  2  0  0  0  0
  5  8  2  0  0  0  0
  5  9  1  0  0  0  0
  6  7  1  0  0  0  0
  7 12  1  0  0  0  0
  8 11  1  0  0  0  0
  9 10  2  0  0  0  0
  9  6  1  0  0  0  0
 10 13  1  0  0  0  0
 11  6  2  0  0  0  0
 13 14  1  0  0  0  0
 14 19  1  0  0  0  0
 15 20  1  0  0  0  0
 18 19  1  0  0  0  0
 18 15  1  0  0  0  0
 19 20  1  0  0  0  0
 19 17  1  1  0  0  0
 20 16  1  6  0  0  0
 21 22  1  0  0  0  0
 21 10  1  0  0  0  0
 22 24  1  0  0  0  0
 23 28  1  0  0  0  0
 23 22  2  0  0  0  0
 24 26  3  0  0  0  0
 26 25  1  0  0  0  0
 27 30  1  0  0  0  0
 28 27  3  0  0  0  0
 29 32  1  0  0  0  0
 30 31  2  0  0  0  0
 31 29  2  0  0  0  0
 32 33  1  0  0  0  0
M  END
>  <MODEL>
3

>  <REMARK>
 VINA RESULT:      -6.7      1.000      2.487
  Name = 
  9 active torsions:
  status: ('A' for Active; 'I' for Inactive)
    1  A    between atoms: C_1  and  C_18
    2  A    between atoms: C_2  and  C_7
    3  A    between atoms: C_3  and  C_8
    4  A    between atoms: C_3  and  C_17
    5  A    between atoms: O_6  and  C_15
    6  A    between atoms: O_6  and  C_31
    7  A    between atoms: C_9  and  C_10
    8  A    between atoms: C_15  and  C_27
    9  A    between atoms: C_17  and  C_27
                            x       y       z     vdW  Elec       q    Type
                         _______ _______ _______ _____ _____    ______ ____

>  <TORSDO>
F 9

$$$$
=
 OpenBabel11042415043D

 33 35  0  0  1  0  0  0  0  0999 V2000
  189.1420  172.7780  140.0080 N   0  0  0  0  0  0  0  0  0  0  0  0
  190.1230  173.1970  137.4470 C   0  0  0  0  0  3  0  0  0  0  0  0
  188.3720  172.5080  138.9130 C   0  0  0  0  0  3  0  0  0  0  0  0
  188.8610  172.7170  137.6510 N   0  0  0  0  0  0  0  0  0  0  0  0
  190.3940  173.2590  139.8110 C   0  0  0  0  0  0  0  0  0  0  0  0
  192.5360  174.0500  139.8700 C   0  0  0  0  0  0  0  0  0  0  0  0
  193.8100  174.5160  140.3170 N   0  0  0  0  0  2  0  0  0  0  0  0
  190.8990  173.4700  138.5640 C   0  0  0  0  0  0  0  0  0  0  0  0
  191.4300  173.6270  140.7650 C   0  0  0  0  0  0  0  0  0  0  0  0
  191.3820  173.6040  142.1090 C   0  0  0  0  0  0  0  0  0  0  0  0
  192.2330  173.9620  138.6060 N   0  0  0  0  0  0  0  0  0  0  0  0
  194.7640  174.8860  139.4310 O   0  0  0  0  0  1  0  0  0  0  0  0
  192.5780  174.0340  142.9110 C   0  0  0  0  0  2  0  0  0  0  0  0
  192.5900  175.4230  143.1250 O   0  0  0  0  0  0  0  0  0  0  0  0
  192.7330  175.8790  146.2620 C   0  0  0  0  0  2  0  0  0  0  0  0
  191.3340  177.4970  144.6060 Cl  0  0  0  0  0  0  0  0  0  0  0  0
  194.7650  175.8590  143.9030 O   0  0  0  0  0  1  0  0  0  0  0  0
  193.2180  174.7280  145.3970 C   0  0  0  0  0  2  0  0  0  0  0  0
  193.4160  175.6900  144.2400 C   0  0  2  0  0  0  0  0  0  0  0  0
  192.9230  176.8450  145.1050 C   0  0  2  0  0  3  0  0  0  0  0  0
  190.1210  173.1760  142.8100 C   0  0  0  0  0  2  0  0  0  0  0  0
  189.4180  174.3420  143.4250 C   0  0  0  0  0  0  0  0  0  0  0  0
  188.8060  175.2160  142.6230 C   0  0  0  0  0  3  0  0  0  0  0  0
  189.4190  174.4920  144.8630 C   0  0  0  0  0  0  0  0  0  0  0  0
  189.4080  174.7640  147.5170 C   0  0  0  0  0  1  0  0  0  0  0  0
  189.4150  174.6160  146.0620 C   0  0  0  0  0  0  0  0  0  0  0  0
  187.4850  177.3270  143.5220 C   0  0  0  0  0  0  0  0  0  0  0  0
  188.0850  176.3660  143.1090 C   0  0  0  0  0  0  0  0  0  0  0  0
  184.6630  178.1360  145.5190 C   0  0  0  0  0  3  0  0  0  0  0  0
  186.7740  178.4680  144.0230 C   0  0  0  0  0  3  0  0  0  0  0  0
  185.7200  178.3030  144.7710 C   0  0  0  0  0  0  0  0  0  0  0  0
  184.7360  178.2960  147.0010 C   0  0  0  0  0  2  0  0  0  0  0  0
  186.0030  177.6640  147.5520 C   0  0  0  0  0  1  0  0  0  0  0  0
  2  4  2  0  0  0  0
  2  8  1  0  0  0  0
  3  1  2  0  0  0  0
  4  3  1  0  0  0  0
  5  1  1  0  0  0  0
  5  9  1  0  0  0  0
  6  7  1  0  0  0  0
  6  9  1  0  0  0  0
  8 11  1  0  0  0  0
  8  5  2  0  0  0  0
  9 10  2  0  0  0  0
 10 21  1  0  0  0  0
 10 13  1  0  0  0  0
 11  6  2  0  0  0  0
 12  7  1  0  0  0  0
 13 14  1  0  0  0  0
 14 19  1  0  0  0  0
 18 15  1  0  0  0  0
 19 17  1  6  0  0  0
 19 20  1  0  0  0  0
 19 18  1  0  0  0  0
 20 16  1  6  0  0  0
 20 15  1  0  0  0  0
 21 22  1  0  0  0  0
 22 24  1  0  0  0  0
 23 28  1  0  0  0  0
 23 22  2  0  0  0  0
 24 26  3  0  0  0  0
 26 25  1  0  0  0  0
 27 30  1  0  0  0  0
 28 27  3  0  0  0  0
 29 32  1  0  0  0  0
 30 31  2  0  0  0  0
 31 29  2  0  0  0  0
 32 33  1  0  0  0  0
M  END
>  <MODEL>
4

>  <REMARK>
 VINA RESULT:      -6.7      4.005      7.302
  Name = 
  9 active torsions:
  status: ('A' for Active; 'I' for Inactive)
    1  A    between atoms: C_1  and  C_18
    2  A    between atoms: C_2  and  C_7
    3  A    between atoms: C_3  and  C_8
    4  A    between atoms: C_3  and  C_17
    5  A    between atoms: O_6  and  C_15
    6  A    between atoms: O_6  and  C_31
    7  A    between atoms: C_9  and  C_10
    8  A    between atoms: C_15  and  C_27
    9  A    between atoms: C_17  and  C_27
                            x       y       z     vdW  Elec       q    Type
                         _______ _______ _______ _____ _____    ______ ____

>  <TORSDO>
F 9

$$$$
=
 OpenBabel11042415043D

 33 35  0  0  1  0  0  0  0  0999 V2000
  186.7300  177.1670  147.0640 N   0  0  0  0  0  0  0  0  0  0  0  0
  185.0280  179.0400  145.9260 C   0  0  0  0  0  3  0  0  0  0  0  0
  185.8320  177.8530  147.8330 C   0  0  0  0  0  3  0  0  0  0  0  0
  184.9960  178.7770  147.2650 N   0  0  0  0  0  0  0  0  0  0  0  0
  186.7690  177.4280  145.7340 C   0  0  0  0  0  0  0  0  0  0  0  0
  187.1070  177.5820  143.4810 C   0  0  0  0  0  0  0  0  0  0  0  0
  187.6050  177.3900  142.1570 N   0  0  0  0  0  2  0  0  0  0  0  0
  185.9430  178.3400  145.1520 C   0  0  0  0  0  0  0  0  0  0  0  0
  187.6000  176.8620  144.6820 C   0  0  0  0  0  0  0  0  0  0  0  0
  188.5730  175.9390  144.7820 C   0  0  0  0  0  0  0  0  0  0  0  0
  186.1570  178.4320  143.7490 N   0  0  0  0  0  0  0  0  0  0  0  0
  187.1000  178.0920  141.1150 O   0  0  0  0  0  1  0  0  0  0  0  0
  189.3160  175.4930  143.5550 C   0  0  0  0  0  2  0  0  0  0  0  0
  188.8620  174.2450  143.0940 O   0  0  0  0  0  0  0  0  0  0  0  0
  190.0660  171.5170  142.0090 C   0  0  0  0  0  2  0  0  0  0  0  0
  189.6430  171.9910  144.6380 Cl  0  0  0  0  0  0  0  0  0  0  0  0
  190.9250  174.5100  142.0000 O   0  0  0  0  0  1  0  0  0  0  0  0
  189.4670  172.7050  141.2760 C   0  0  0  0  0  2  0  0  0  0  0  0
  189.9220  173.6190  142.4010 C   0  0  2  0  0  0  0  0  0  0  0  0
  190.5180  172.4250  143.1400 C   0  0  2  0  0  3  0  0  0  0  0  0
  188.9380  175.3750  146.1280 C   0  0  0  0  0  2  0  0  0  0  0  0
  190.3950  175.5500  146.4150 C   0  0  0  0  0  0  0  0  0  0  0  0
  191.2790  174.9010  145.6530 C   0  0  0  0  0  3  0  0  0  0  0  0
  190.8050  176.4100  147.5010 C   0  0  0  0  0  0  0  0  0  0  0  0
  191.5660  177.9880  149.5130 C   0  0  0  0  0  1  0  0  0  0  0  0
  191.1490  177.1240  148.4100 C   0  0  0  0  0  0  0  0  0  0  0  0
  193.8990  175.1060  145.9720 C   0  0  0  0  0  0  0  0  0  0  0  0
  192.7050  175.0090  145.8290 C   0  0  0  0  0  0  0  0  0  0  0  0
  196.8220  173.0970  146.1320 C   0  0  0  0  0  3  0  0  0  0  0  0
  195.3190  175.2290  146.1380 C   0  0  0  0  0  3  0  0  0  0  0  0
  196.0700  174.1640  146.1340 C   0  0  0  0  0  0  0  0  0  0  0  0
  197.6100  172.7130  144.9250 C   0  0  0  0  0  2  0  0  0  0  0  0
  197.9200  173.9310  144.0710 C   0  0  0  0  0  1  0  0  0  0  0  0
  1  3  1  0  0  0  0
  2  4  1  0  0  0  0
  4  3  2  0  0  0  0
  5  1  2  0  0  0  0
  6 11  2  0  0  0  0
  6  9  1  0  0  0  0
  7  6  1  0  0  0  0
  8  5  1  0  0  0  0
  8  2  2  0  0  0  0
  9 10  2  0  0  0  0
  9  5  1  0  0  0  0
 10 21  1  0  0  0  0
 11  8  1  0  0  0  0
 12  7  1  0  0  0  0
 13 10  1  0  0  0  0
 14 13  1  0  0  0  0
 15 20  1  0  0  0  0
 18 15  1  0  0  0  0
 18 19  1  0  0  0  0
 19 17  1  6  0  0  0
 19 14  1  0  0  0  0
 19 20  1  0  0  0  0
 20 16  1  1  0  0  0
 21 22  1  0  0  0  0
 22 24  1  0  0  0  0
 23 28  1  0  0  0  0
 23 22  2  0  0  0  0
 24 26  3  0  0  0  0
 26 25  1  0  0  0  0
 27 30  1  0  0  0  0
 28 27  3  0  0  0  0
 29 31  2  0  0  0  0
 31 30  2  0  0  0  0
 32 29  1  0  0  0  0
 33 32  1  0  0  0  0
M  END
>  <MODEL>
5

>  <REMARK>
 VINA RESULT:      -6.7      2.621      4.575
  Name = 
  9 active torsions:
  status: ('A' for Active; 'I' for Inactive)
    1  A    between atoms: C_1  and  C_18
    2  A    between atoms: C_2  and  C_7
    3  A    between atoms: C_3  and  C_8
    4  A    between atoms: C_3  and  C_17
    5  A    between atoms: O_6  and  C_15
    6  A    between atoms: O_6  and  C_31
    7  A    between atoms: C_9  and  C_10
    8  A    between atoms: C_15  and  C_27
    9  A    between atoms: C_17  and  C_27
                            x       y       z     vdW  Elec       q    Type
                         _______ _______ _______ _____ _____    ______ ____

>  <TORSDO>
F 9

$$$$
=
 OpenBabel11042415043D

 33 35  0  0  1  0  0  0  0  0999 V2000
  187.3460  178.0760  142.0520 N   0  0  0  0  0  0  0  0  0  0  0  0
  184.7110  177.9160  142.9060 C   0  0  0  0  0  3  0  0  0  0  0  0
  186.3160  178.2900  141.1810 C   0  0  0  0  0  3  0  0  0  0  0  0
  185.0170  178.2090  141.6080 N   0  0  0  0  0  0  0  0  0  0  0  0
  187.0470  177.7810  143.3420 C   0  0  0  0  0  0  0  0  0  0  0  0
  186.9340  177.2880  145.5690 C   0  0  0  0  0  0  0  0  0  0  0  0
  187.2760  176.9810  146.9200 N   0  0  0  0  0  2  0  0  0  0  0  0
  185.7620  177.7000  143.7850 C   0  0  0  0  0  0  0  0  0  0  0  0
  187.9150  177.5130  144.4790 C   0  0  0  0  0  0  0  0  0  0  0  0
  189.2590  177.4670  144.5190 C   0  0  0  0  0  0  0  0  0  0  0  0
  185.6970  177.3930  145.1730 N   0  0  0  0  0  0  0  0  0  0  0  0
  186.3150  176.7870  147.8540 O   0  0  0  0  0  1  0  0  0  0  0  0
  189.9630  177.1670  145.8120 C   0  0  0  0  0  2  0  0  0  0  0  0
  190.3450  175.8170  145.8970 O   0  0  0  0  0  0  0  0  0  0  0  0
  193.4900  175.5010  146.1760 C   0  0  0  0  0  2  0  0  0  0  0  0
  191.9220  173.6220  145.0220 Cl  0  0  0  0  0  0  0  0  0  0  0  0
  191.0790  175.7620  148.1290 O   0  0  0  0  0  1  0  0  0  0  0  0
  192.5770  176.6830  146.4520 C   0  0  0  0  0  2  0  0  0  0  0  0
  191.4450  175.7250  146.7780 C   0  0  2  0  0  0  0  0  0  0  0  0
  192.3590  174.5370  146.4950 C   0  0  2  0  0  3  0  0  0  0  0  0
  190.0570  177.6850  143.2620 C   0  0  0  0  0  2  0  0  0  0  0  0
  190.6530  176.4060  142.7670 C   0  0  0  0  0  0  0  0  0  0  0  0
  189.8330  175.4280  142.3760 C   0  0  0  0  0  3  0  0  0  0  0  0
  192.0900  176.2640  142.7240 C   0  0  0  0  0  0  0  0  0  0  0  0
  194.7450  176.0040  142.6570 C   0  0  0  0  0  1  0  0  0  0  0  0
  193.2900  176.1470  142.6930 C   0  0  0  0  0  0  0  0  0  0  0  0
  190.6800  173.1020  141.4370 C   0  0  0  0  0  0  0  0  0  0  0  0
  190.2980  174.1620  141.8670 C   0  0  0  0  0  0  0  0  0  0  0  0
  190.0200  170.8430  138.7790 C   0  0  0  0  0  3  0  0  0  0  0  0
  191.1270  171.8400  140.9200 C   0  0  0  0  0  3  0  0  0  0  0  0
  190.5750  171.3420  139.8500 C   0  0  0  0  0  0  0  0  0  0  0  0
  190.6920  170.9340  137.4490 C   0  0  0  0  0  2  0  0  0  0  0  0
  189.6910  171.2790  136.3600 C   0  0  0  0  0  1  0  0  0  0  0  0
  1  5  1  0  0  0  0
  2  8  1  0  0  0  0
  3  4  1  0  0  0  0
  3  1  2  0  0  0  0
  4  2  2  0  0  0  0
  5  8  2  0  0  0  0
  5  9  1  0  0  0  0
  6  7  1  0  0  0  0
  7 12  1  0  0  0  0
  8 11  1  0  0  0  0
  9 10  2  0  0  0  0
  9  6  1  0  0  0  0
 10 13  1  0  0  0  0
 11  6  2  0  0  0  0
 13 14  1  0  0  0  0
 14 19  1  0  0  0  0
 15 18  1  0  0  0  0
 15 20  1  0  0  0  0
 18 19  1  0  0  0  0
 19 17  1  1  0  0  0
 20 16  1  6  0  0  0
 20 19  1  0  0  0  0
 21 10  1  0  0  0  0
 22 21  1  0  0  0  0
 23 22  2  0  0  0  0
 24 22  1  0  0  0  0
 25 26  1  0  0  0  0
 26 24  3  0  0  0  0
 27 28  3  0  0  0  0
 28 23  1  0  0  0  0
 29 31  2  0  0  0  0
 30 27  1  0  0  0  0
 31 30  2  0  0  0  0
 32 29  1  0  0  0  0
 33 32  1  0  0  0  0
M  END
>  <MODEL>
6

>  <REMARK>
 VINA RESULT:      -6.6      2.394      3.893
  Name = 
  9 active torsions:
  status: ('A' for Active; 'I' for Inactive)
    1  A    between atoms: C_1  and  C_18
    2  A    between atoms: C_2  and  C_7
    3  A    between atoms: C_3  and  C_8
    4  A    between atoms: C_3  and  C_17
    5  A    between atoms: O_6  and  C_15
    6  A    between atoms: O_6  and  C_31
    7  A    between atoms: C_9  and  C_10
    8  A    between atoms: C_15  and  C_27
    9  A    between atoms: C_17  and  C_27
                            x       y       z     vdW  Elec       q    Type
                         _______ _______ _______ _____ _____    ______ ____

>  <TORSDO>
F 9

$$$$
=
 OpenBabel11042415043D

 33 35  0  0  1  0  0  0  0  0999 V2000
  186.2930  177.0430  146.5040 N   0  0  0  0  0  0  0  0  0  0  0  0
  184.2370  178.6610  145.5800 C   0  0  0  0  0  3  0  0  0  0  0  0
  185.4490  177.6680  147.3780 C   0  0  0  0  0  3  0  0  0  0  0  0
  184.4370  178.4660  146.9160 N   0  0  0  0  0  0  0  0  0  0  0  0
  186.1020  177.2370  145.1760 C   0  0  0  0  0  0  0  0  0  0  0  0
  186.0760  177.3090  142.8930 C   0  0  0  0  0  0  0  0  0  0  0  0
  186.3870  177.1030  141.5150 N   0  0  0  0  0  2  0  0  0  0  0  0
  185.0990  178.0240  144.6970 C   0  0  0  0  0  0  0  0  0  0  0  0
  186.8230  176.7100  144.0270 C   0  0  0  0  0  0  0  0  0  0  0  0
  187.8990  175.9030  144.0080 C   0  0  0  0  0  0  0  0  0  0  0  0
  185.0870  178.0650  143.2760 N   0  0  0  0  0  0  0  0  0  0  0  0
  185.6540  177.6910  140.5410 O   0  0  0  0  0  1  0  0  0  0  0  0
  188.4950  175.4760  142.6960 C   0  0  0  0  0  2  0  0  0  0  0  0
  188.1360  174.1570  142.3640 O   0  0  0  0  0  0  0  0  0  0  0  0
  190.7370  173.3340  140.7440 C   0  0  0  0  0  2  0  0  0  0  0  0
  188.2320  172.8840  139.8260 Cl  0  0  0  0  0  0  0  0  0  0  0  0
  189.4600  172.5680  143.4780 O   0  0  0  0  0  1  0  0  0  0  0  0
  190.5680  174.1560  142.0100 C   0  0  0  0  0  2  0  0  0  0  0  0
  189.3110  173.3730  142.3420 C   0  0  2  0  0  0  0  0  0  0  0  0
  189.4750  172.5520  141.0680 C   0  0  2  0  0  3  0  0  0  0  0  0
  188.5250  175.4520  145.2990 C   0  0  0  0  0  2  0  0  0  0  0  0
  189.9940  175.7270  145.3180 C   0  0  0  0  0  0  0  0  0  0  0  0
  190.8020  174.8460  145.9110 C   0  0  0  0  0  3  0  0  0  0  0  0
  190.4980  176.9310  144.6970 C   0  0  0  0  0  0  0  0  0  0  0  0
  191.4330  179.1570  143.5630 C   0  0  0  0  0  1  0  0  0  0  0  0
  190.9200  177.9370  144.1840 C   0  0  0  0  0  0  0  0  0  0  0  0
  193.4300  175.1400  146.0260 C   0  0  0  0  0  0  0  0  0  0  0  0
  192.2340  175.0020  145.9740 C   0  0  0  0  0  0  0  0  0  0  0  0
  196.2580  175.3430  143.8880 C   0  0  0  0  0  3  0  0  0  0  0  0
  194.8540  175.3140  146.0860 C   0  0  0  0  0  3  0  0  0  0  0  0
  195.5550  175.3290  144.9880 C   0  0  0  0  0  0  0  0  0  0  0  0
  196.7400  176.6260  143.2970 C   0  0  0  0  0  2  0  0  0  0  0  0
  196.4630  176.6710  141.8040 C   0  0  0  0  0  1  0  0  0  0  0  0
  1  3  1  0  0  0  0
  2  4  1  0  0  0  0
  4  3  2  0  0  0  0
  5  1  2  0  0  0  0
  6 11  2  0  0  0  0
  6  9  1  0  0  0  0
  7  6  1  0  0  0  0
  8  5  1  0  0  0  0
  8  2  2  0  0  0  0
  9  5  1  0  0  0  0
 10  9  2  0  0  0  0
 10 21  1  0  0  0  0
 11  8  1  0  0  0  0
 12  7  1  0  0  0  0
 13 10  1  0  0  0  0
 14 13  1  0  0  0  0
 15 20  1  0  0  0  0
 15 18  1  0  0  0  0
 18 19  1  0  0  0  0
 19 14  1  0  0  0  0
 19 17  1  1  0  0  0
 20 16  1  6  0  0  0
 20 19  1  0  0  0  0
 21 22  1  0  0  0  0
 22 23  2  0  0  0  0
 23 28  1  0  0  0  0
 24 22  1  0  0  0  0
 25 26  1  0  0  0  0
 26 24  3  0  0  0  0
 27 30  1  0  0  0  0
 28 27  3  0  0  0  0
 29 31  2  0  0  0  0
 31 30  2  0  0  0  0
 32 29  1  0  0  0  0
 33 32  1  0  0  0  0
M  END
>  <MODEL>
7

>  <REMARK>
 VINA RESULT:      -6.5      2.814      4.571
  Name = 
  9 active torsions:
  status: ('A' for Active; 'I' for Inactive)
    1  A    between atoms: C_1  and  C_18
    2  A    between atoms: C_2  and  C_7
    3  A    between atoms: C_3  and  C_8
    4  A    between atoms: C_3  and  C_17
    5  A    between atoms: O_6  and  C_15
    6  A    between atoms: O_6  and  C_31
    7  A    between atoms: C_9  and  C_10
    8  A    between atoms: C_15  and  C_27
    9  A    between atoms: C_17  and  C_27
                            x       y       z     vdW  Elec       q    Type
                         _______ _______ _______ _____ _____    ______ ____

>  <TORSDO>
F 9

$$$$
=
 OpenBabel11042415043D

 33 35  0  0  1  0  0  0  0  0999 V2000
  192.5040  175.6580  146.1680 N   0  0  0  0  0  0  0  0  0  0  0  0
  194.7480  177.1990  145.6320 C   0  0  0  0  0  3  0  0  0  0  0  0
  193.0860  176.4090  147.1500 C   0  0  0  0  0  3  0  0  0  0  0  0
  194.1940  177.1670  146.8790 N   0  0  0  0  0  0  0  0  0  0  0  0
  193.0530  175.6830  144.9290 C   0  0  0  0  0  0  0  0  0  0  0  0
  193.6760  175.4920  142.7400 C   0  0  0  0  0  0  0  0  0  0  0  0
  193.7390  175.1170  141.3630 N   0  0  0  0  0  2  0  0  0  0  0  0
  194.1520  176.4330  144.6400 C   0  0  0  0  0  0  0  0  0  0  0  0
  192.6580  175.0040  143.7030 C   0  0  0  0  0  0  0  0  0  0  0  0
  191.6420  174.1450  143.5070 C   0  0  0  0  0  0  0  0  0  0  0  0
  194.5360  176.3110  143.2750 N   0  0  0  0  0  0  0  0  0  0  0  0
  194.7050  175.6080  140.5520 O   0  0  0  0  0  1  0  0  0  0  0  0
  191.4120  173.5510  142.1460 C   0  0  0  0  0  2  0  0  0  0  0  0
  190.2670  172.7350  142.1200 O   0  0  0  0  0  0  0  0  0  0  0  0
  188.5340  173.8050  139.6870 C   0  0  0  0  0  2  0  0  0  0  0  0
  187.4370  172.9700  142.0140 Cl  0  0  0  0  0  0  0  0  0  0  0  0
  190.4690  171.4170  140.1860 O   0  0  0  0  0  1  0  0  0  0  0  0
  190.0360  173.7930  139.9140 C   0  0  0  0  0  2  0  0  0  0  0  0
  189.8890  172.5490  140.7720 C   0  0  2  0  0  0  0  0  0  0  0  0
  188.3800  172.5640  140.5500 C   0  0  2  0  0  3  0  0  0  0  0  0
  190.7550  173.7540  144.6580 C   0  0  0  0  0  2  0  0  0  0  0  0
  189.6800  174.7670  144.8850 C   0  0  0  0  0  0  0  0  0  0  0  0
  189.2250  174.9490  146.1260 C   0  0  0  0  0  3  0  0  0  0  0  0
  189.1640  175.5170  143.7630 C   0  0  0  0  0  0  0  0  0  0  0  0
  188.2030  176.9080  141.6980 C   0  0  0  0  0  1  0  0  0  0  0  0
  188.7300  176.1450  142.8290 C   0  0  0  0  0  0  0  0  0  0  0  0
  187.3470  176.7130  146.7360 C   0  0  0  0  0  0  0  0  0  0  0  0
  188.2030  175.9080  146.4620 C   0  0  0  0  0  0  0  0  0  0  0  0
  185.5630  179.4030  145.2570 C   0  0  0  0  0  3  0  0  0  0  0  0
  186.3280  177.6720  147.0520 C   0  0  0  0  0  3  0  0  0  0  0  0
  185.9450  178.5360  146.1550 C   0  0  0  0  0  0  0  0  0  0  0  0
  184.2940  179.2150  144.4950 C   0  0  0  0  0  2  0  0  0  0  0  0
  184.4990  178.2620  143.3300 C   0  0  0  0  0  1  0  0  0  0  0  0
  1  3  1  0  0  0  0
  2  4  1  0  0  0  0
  4  3  2  0  0  0  0
  5  1  2  0  0  0  0
  6 11  2  0  0  0  0
  6  9  1  0  0  0  0
  7  6  1  0  0  0  0
  8  5  1  0  0  0  0
  8  2  2  0  0  0  0
  9  5  1  0  0  0  0
 10  9  2  0  0  0  0
 10 21  1  0  0  0  0
 11  8  1  0  0  0  0
 12  7  1  0  0  0  0
 13 10  1  0  0  0  0
 14 13  1  0  0  0  0
 15 18  1  0  0  0  0
 15 20  1  0  0  0  0
 18 19  1  0  0  0  0
 19 17  1  6  0  0  0
 19 14  1  0  0  0  0
 20 19  1  0  0  0  0
 20 16  1  1  0  0  0
 21 22  1  0  0  0  0
 22 23  2  0  0  0  0
 23 28  1  0  0  0  0
 24 22  1  0  0  0  0
 25 26  1  0  0  0  0
 26 24  3  0  0  0  0
 27 30  1  0  0  0  0
 28 27  3  0  0  0  0
 29 31  2  0  0  0  0
 31 30  2  0  0  0  0
 32 29  1  0  0  0  0
 33 32  1  0  0  0  0
M  END
>  <MODEL>
8

>  <REMARK>
 VINA RESULT:      -6.4      4.216      8.279
  Name = 
  9 active torsions:
  status: ('A' for Active; 'I' for Inactive)
    1  A    between atoms: C_1  and  C_18
    2  A    between atoms: C_2  and  C_7
    3  A    between atoms: C_3  and  C_8
    4  A    between atoms: C_3  and  C_17
    5  A    between atoms: O_6  and  C_15
    6  A    between atoms: O_6  and  C_31
    7  A    between atoms: C_9  and  C_10
    8  A    between atoms: C_15  and  C_27
    9  A    between atoms: C_17  and  C_27
                            x       y       z     vdW  Elec       q    Type
                         _______ _______ _______ _____ _____    ______ ____

>  <TORSDO>
F 9

$$$$
=
 OpenBabel11042415043D

 33 35  0  0  1  0  0  0  0  0999 V2000
  187.3230  178.1190  142.0280 N   0  0  0  0  0  0  0  0  0  0  0  0
  184.7070  177.6730  142.8410 C   0  0  0  0  0  3  0  0  0  0  0  0
  186.2830  178.2840  141.1570 C   0  0  0  0  0  3  0  0  0  0  0  0
  184.9940  178.0610  141.5640 N   0  0  0  0  0  0  0  0  0  0  0  0
  187.0430  177.7290  143.2960 C   0  0  0  0  0  0  0  0  0  0  0  0
  186.9600  177.1090  145.4920 C   0  0  0  0  0  0  0  0  0  0  0  0
  187.3200  176.7610  146.8300 N   0  0  0  0  0  2  0  0  0  0  0  0
  185.7680  177.5060  143.7200 C   0  0  0  0  0  0  0  0  0  0  0  0
  187.9240  177.4810  144.4280 C   0  0  0  0  0  0  0  0  0  0  0  0
  189.2660  177.5560  144.4810 C   0  0  0  0  0  0  0  0  0  0  0  0
  185.7220  177.1200  145.0880 N   0  0  0  0  0  0  0  0  0  0  0  0
  186.3750  176.4300  147.7400 O   0  0  0  0  0  1  0  0  0  0  0  0
  189.9860  177.2520  145.7650 C   0  0  0  0  0  2  0  0  0  0  0  0
  190.4420  175.9230  145.8060 O   0  0  0  0  0  0  0  0  0  0  0  0
  193.5820  175.5710  146.0950 C   0  0  0  0  0  2  0  0  0  0  0  0
  191.9810  173.6570  145.0500 Cl  0  0  0  0  0  0  0  0  0  0  0  0
  191.1810  175.9800  148.0360 O   0  0  0  0  0  1  0  0  0  0  0  0
  192.6890  176.7820  146.3070 C   0  0  0  0  0  2  0  0  0  0  0  0
  191.5430  175.8620  146.6880 C   0  0  2  0  0  0  0  0  0  0  0  0
  192.4370  174.6450  146.4700 C   0  0  2  0  0  3  0  0  0  0  0  0
  190.0500  177.9130  143.2470 C   0  0  0  0  0  2  0  0  0  0  0  0
  190.9150  176.7780  142.8030 C   0  0  0  0  0  0  0  0  0  0  0  0
  192.2390  176.9460  142.8020 C   0  0  0  0  0  3  0  0  0  0  0  0
  190.3000  175.5360  142.3920 C   0  0  0  0  0  0  0  0  0  0  0  0
  189.1580  173.2510  141.6230 C   0  0  0  0  0  1  0  0  0  0  0  0
  189.7840  174.5030  142.0450 C   0  0  0  0  0  0  0  0  0  0  0  0
  193.9490  175.0590  142.0790 C   0  0  0  0  0  0  0  0  0  0  0  0
  193.1670  175.9150  142.4090 C   0  0  0  0  0  0  0  0  0  0  0  0
  196.1400  174.2480  139.4050 C   0  0  0  0  0  3  0  0  0  0  0  0
  194.8860  174.0460  141.6840 C   0  0  0  0  0  3  0  0  0  0  0  0
  195.5130  174.1470  140.5460 C   0  0  0  0  0  0  0  0  0  0  0  0
  197.5550  174.7190  139.3420 C   0  0  0  0  0  2  0  0  0  0  0  0
  197.9100  175.1770  137.9380 C   0  0  0  0  0  1  0  0  0  0  0  0
  1  5  1  0  0  0  0
  2  8  1  0  0  0  0
  3  4  1  0  0  0  0
  3  1  2  0  0  0  0
  4  2  2  0  0  0  0
  5  8  2  0  0  0  0
  5  9  1  0  0  0  0
  6  7  1  0  0  0  0
  7 12  1  0  0  0  0
  8 11  1  0  0  0  0
  9 10  2  0  0  0  0
  9  6  1  0  0  0  0
 10 13  1  0  0  0  0
 11  6  2  0  0  0  0
 13 14  1  0  0  0  0
 14 19  1  0  0  0  0
 15 18  1  0  0  0  0
 15 20  1  0  0  0  0
 18 19  1  0  0  0  0
 19 17  1  1  0  0  0
 20 16  1  6  0  0  0
 20 19  1  0  0  0  0
 21 10  1  0  0  0  0
 22 21  1  0  0  0  0
 23 22  2  0  0  0  0
 24 22  1  0  0  0  0
 25 26  1  0  0  0  0
 26 24  3  0  0  0  0
 27 28  3  0  0  0  0
 28 23  1  0  0  0  0
 29 31  2  0  0  0  0
 30 27  1  0  0  0  0
 31 30  2  0  0  0  0
 32 29  1  0  0  0  0
 33 32  1  0  0  0  0
M  END
>  <MODEL>
9

>  <REMARK>
 VINA RESULT:      -6.4      2.116      2.791
  Name = 
  9 active torsions:
  status: ('A' for Active; 'I' for Inactive)
    1  A    between atoms: C_1  and  C_18
    2  A    between atoms: C_2  and  C_7
    3  A    between atoms: C_3  and  C_8
    4  A    between atoms: C_3  and  C_17
    5  A    between atoms: O_6  and  C_15
    6  A    between atoms: O_6  and  C_31
    7  A    between atoms: C_9  and  C_10
    8  A    between atoms: C_15  and  C_27
    9  A    between atoms: C_17  and  C_27
                            x       y       z     vdW  Elec       q    Type
                         _______ _______ _______ _____ _____    ______ ____

>  <TORSDO>
F 9

$$$$
