=
 OpenBabel11042416153D

 33 35  0  0  0  0  0  0  0  0999 V2000
  193.7050  174.8510  144.6520 C   0  0  0  0  0  3  0  0  0  0  0  0
  192.3290  175.5570  146.5220 C   0  0  0  0  0  0  0  0  0  0  0  0
  194.7000  175.7630  145.0240 C   0  0  0  0  0  0  0  0  0  0  0  0
  194.5040  176.5620  146.1580 C   0  0  0  0  0  3  0  0  0  0  0  0
  192.5180  174.7450  145.3870 C   0  0  0  0  0  0  0  0  0  0  0  0
  193.3250  176.4640  146.8980 C   0  0  0  0  0  3  0  0  0  0  0  0
  196.7790  173.8520  146.3110 N   0  0  0  0  0  2  0  0  0  0  0  0
  196.8020  174.6670  144.0840 N   0  0  0  0  0  2  0  0  0  0  0  0
  197.0320  173.6440  145.0600 C   0  0  0  0  0  0  0  0  0  0  0  0
  195.9680  175.8190  144.2650 C   0  0  0  0  0  0  0  0  0  0  0  0
  196.3040  176.8990  143.7100 O   0  0  0  0  0  0  0  0  0  0  0  0
  197.1420  171.2250  145.4760 C   0  0  0  0  0  1  0  0  0  0  0  0
  197.6840  172.3720  144.6470 C   0  0  0  0  0  2  0  0  0  0  0  0
  191.5120  173.7130  144.9770 C   0  0  0  0  0  2  0  0  0  0  0  0
  191.4360  173.5820  143.4590 C   0  0  0  0  0  2  0  0  0  0  0  0
  188.5550  175.5720  142.3730 C   0  0  0  0  0  0  0  0  0  0  0  0
  188.8380  172.0890  142.6250 N   0  0  0  0  0  1  0  0  0  0  0  0
  187.9230  176.7950  142.1590 C   0  0  0  0  0  3  0  0  0  0  0  0
  188.6720  177.9670  142.3800 C   0  0  0  0  0  2  0  0  0  0  0  0
  190.6290  176.6450  143.0190 C   0  0  0  0  0  3  0  0  0  0  0  0
  189.0000  173.5010  142.5880 C   0  0  0  0  0  0  0  0  0  0  0  0
  188.0020  174.3500  142.2430 N   0  0  0  0  0  0  0  0  0  0  0  0
  190.0150  177.8910  142.8080 C   0  0  0  0  0  3  0  0  0  0  0  0
  190.1680  174.1710  142.9260 C   0  0  0  0  0  0  0  0  0  0  0  0
  189.8630  175.5040  142.7860 C   0  0  0  0  0  0  0  0  0  0  0  0
  191.0760  175.4850  147.3340 C   0  0  0  0  0  2  0  0  0  0  0  0
  190.0150  176.3850  146.7340 C   0  0  0  0  0  2  0  0  0  0  0  0
  188.7000  175.6320  146.6540 C   0  0  0  0  0  2  0  0  0  0  0  0
  186.7110  176.7910  146.0980 C   0  0  0  0  0  3  0  0  0  0  0  0
  187.8170  176.2670  145.7110 N   0  0  0  0  0  0  0  0  0  0  0  0
  185.8020  177.4520  145.1170 C   0  0  0  0  0  2  0  0  0  0  0  0
  185.9210  178.9600  145.2210 C   0  0  0  0  0  2  0  0  0  0  0  0
  185.5660  179.5870  143.8900 C   0  0  0  0  0  1  0  0  0  0  0  0
  1  3  2  0  0  0  0
  1  5  1  0  0  0  0
  2  6  1  0  0  0  0
  2 26  1  0  0  0  0
  3  4  1  0  0  0  0
  4  6  2  0  0  0  0
  5  2  2  0  0  0  0
  8 10  1  0  0  0  0
  8  9  1  0  0  0  0
  9  7  2  0  0  0  0
 10  3  1  0  0  0  0
 11 10  2  0  0  0  0
 13  9  1  0  0  0  0
 13 12  1  0  0  0  0
 14  5  1  0  0  0  0
 15 14  1  0  0  0  0
 16 25  1  0  0  0  0
 18 16  2  0  0  0  0
 18 19  1  0  0  0  0
 19 23  1  0  0  0  0
 21 17  1  0  0  0  0
 21 24  1  0  0  0  0
 22 16  1  0  0  0  0
 22 21  2  0  0  0  0
 23 20  2  0  0  0  0
 24 15  1  0  0  0  0
 25 24  2  0  0  0  0
 25 20  1  0  0  0  0
 27 26  1  0  0  0  0
 28 27  1  0  0  0  0
 30 29  2  0  0  0  0
 30 28  1  0  0  0  0
 31 32  1  0  0  0  0
 31 29  1  0  0  0  0
 33 32  1  0  0  0  0
M  END
>  <MODEL>
1

>  <REMARK>
 VINA RESULT:      -6.9      0.000      0.000
  Name = 
  11 active torsions:
  status: ('A' for Active; 'I' for Inactive)
    1  A    between atoms: C_1  and  C_10
    2  A    between atoms: C_1  and  N_26
    3  A    between atoms: C_6  and  C_8
    4  A    between atoms: C_7  and  C_15
    5  A    between atoms: C_7  and  C_25
    6  A    between atoms: C_8  and  C_10
    7  A    between atoms: C_11  and  C_19
    8  A    between atoms: C_12  and  C_16
    9  A    between atoms: C_15  and  C_32
   10  A    between atoms: C_17  and  C_29
   11  A    between atoms: C_21  and  C_29
                            x       y       z     vdW  Elec       q    Type
                         _______ _______ _______ _____ _____    ______ ____

>  <TORSDO>
F 11

$$$$
=
 OpenBabel11042416153D

 33 35  0  0  0  0  0  0  0  0999 V2000
  188.5350  177.9160  142.2280 C   0  0  0  0  0  3  0  0  0  0  0  0
  189.4960  175.6880  142.2770 C   0  0  0  0  0  0  0  0  0  0  0  0
  187.2670  177.3780  141.9780 C   0  0  0  0  0  0  0  0  0  0  0  0
  187.1220  175.9870  141.8910 C   0  0  0  0  0  3  0  0  0  0  0  0
  189.6520  177.0850  142.3720 C   0  0  0  0  0  0  0  0  0  0  0  0
  188.2290  175.1480  142.0330 C   0  0  0  0  0  3  0  0  0  0  0  0
  185.5770  177.1660  144.5720 N   0  0  0  0  0  2  0  0  0  0  0  0
  185.5660  178.9630  143.0240 N   0  0  0  0  0  2  0  0  0  0  0  0
  185.4910  178.4380  144.3550 C   0  0  0  0  0  0  0  0  0  0  0  0
  186.0930  178.2720  141.8840 C   0  0  0  0  0  0  0  0  0  0  0  0
  185.5680  178.4790  140.7570 O   0  0  0  0  0  0  0  0  0  0  0  0
  185.7730  178.7980  146.7680 C   0  0  0  0  0  1  0  0  0  0  0  0
  185.1880  179.3540  145.4870 C   0  0  0  0  0  2  0  0  0  0  0  0
  190.9740  177.7110  142.6940 C   0  0  0  0  0  2  0  0  0  0  0  0
  191.0020  178.2510  144.1200 C   0  0  0  0  0  2  0  0  0  0  0  0
  190.8870  175.6510  146.7010 C   0  0  0  0  0  0  0  0  0  0  0  0
  193.6900  177.0920  145.1720 N   0  0  0  0  0  1  0  0  0  0  0  0
  190.1860  174.8480  147.6000 C   0  0  0  0  0  3  0  0  0  0  0  0
  188.7810  174.9270  147.5910 C   0  0  0  0  0  2  0  0  0  0  0  0
  188.8450  176.5970  145.8050 C   0  0  0  0  0  3  0  0  0  0  0  0
  192.4050  176.6610  145.6040 C   0  0  0  0  0  0  0  0  0  0  0  0
  192.2260  175.7360  146.5780 N   0  0  0  0  0  0  0  0  0  0  0  0
  188.1160  175.7960  146.7000 C   0  0  0  0  0  3  0  0  0  0  0  0
  191.2020  177.1500  145.1140 C   0  0  0  0  0  0  0  0  0  0  0  0
  190.2340  176.4920  145.8340 C   0  0  0  0  0  0  0  0  0  0  0  0
  190.6590  174.7600  142.4160 C   0  0  0  0  0  2  0  0  0  0  0  0
  190.3680  173.7150  143.4750 C   0  0  0  0  0  2  0  0  0  0  0  0
  191.0410  172.4090  143.0940 C   0  0  0  0  0  2  0  0  0  0  0  0
  192.6500  172.6210  144.8190 C   0  0  0  0  0  3  0  0  0  0  0  0
  192.3950  172.3850  143.5830 N   0  0  0  0  0  0  0  0  0  0  0  0
  194.0550  172.5910  145.3200 C   0  0  0  0  0  2  0  0  0  0  0  0
  194.8200  173.8000  144.8160 C   0  0  0  0  0  2  0  0  0  0  0  0
  195.9600  174.1070  145.7640 C   0  0  0  0  0  1  0  0  0  0  0  0
  1  5  1  0  0  0  0
  2  5  2  0  0  0  0
  2 26  1  0  0  0  0
  3  1  2  0  0  0  0
  4  3  1  0  0  0  0
  4  6  2  0  0  0  0
  5 14  1  0  0  0  0
  6  2  1  0  0  0  0
  8  9  1  0  0  0  0
  9  7  2  0  0  0  0
  9 13  1  0  0  0  0
 10  3  1  0  0  0  0
 10  8  1  0  0  0  0
 11 10  2  0  0  0  0
 13 12  1  0  0  0  0
 14 15  1  0  0  0  0
 15 24  1  0  0  0  0
 16 18  2  0  0  0  0
 17 21  1  0  0  0  0
 19 18  1  0  0  0  0
 20 25  1  0  0  0  0
 20 23  2  0  0  0  0
 21 22  2  0  0  0  0
 22 16  1  0  0  0  0
 23 19  1  0  0  0  0
 24 21  1  0  0  0  0
 24 25  2  0  0  0  0
 25 16  1  0  0  0  0
 26 27  1  0  0  0  0
 28 27  1  0  0  0  0
 28 30  1  0  0  0  0
 29 31  1  0  0  0  0
 30 29  2  0  0  0  0
 32 31  1  0  0  0  0
 32 33  1  0  0  0  0
M  END
>  <MODEL>
2

>  <REMARK>
 VINA RESULT:      -6.9      2.849      8.139
  Name = 
  11 active torsions:
  status: ('A' for Active; 'I' for Inactive)
    1  A    between atoms: C_1  and  C_10
    2  A    between atoms: C_1  and  N_26
    3  A    between atoms: C_6  and  C_8
    4  A    between atoms: C_7  and  C_15
    5  A    between atoms: C_7  and  C_25
    6  A    between atoms: C_8  and  C_10
    7  A    between atoms: C_11  and  C_19
    8  A    between atoms: C_12  and  C_16
    9  A    between atoms: C_15  and  C_32
   10  A    between atoms: C_17  and  C_29
   11  A    between atoms: C_21  and  C_29
                            x       y       z     vdW  Elec       q    Type
                         _______ _______ _______ _____ _____    ______ ____

>  <TORSDO>
F 11

$$$$
=
 OpenBabel11042416153D

 33 35  0  0  0  0  0  0  0  0999 V2000
  191.4280  177.0800  145.2820 C   0  0  0  0  0  3  0  0  0  0  0  0
  189.3330  176.3960  146.2970 C   0  0  0  0  0  0  0  0  0  0  0  0
  192.1460  176.3900  146.2660 C   0  0  0  0  0  0  0  0  0  0  0  0
  191.4440  175.6940  147.2590 C   0  0  0  0  0  3  0  0  0  0  0  0
  190.0290  177.0950  145.2910 C   0  0  0  0  0  0  0  0  0  0  0  0
  190.0480  175.7010  147.2780 C   0  0  0  0  0  3  0  0  0  0  0  0
  193.0680  173.5710  145.3560 N   0  0  0  0  0  2  0  0  0  0  0  0
  194.3220  175.5790  145.2140 N   0  0  0  0  0  2  0  0  0  0  0  0
  193.9170  174.3010  144.7090 C   0  0  0  0  0  0  0  0  0  0  0  0
  193.6220  176.3430  146.2050 C   0  0  0  0  0  0  0  0  0  0  0  0
  194.2930  177.0390  147.0130 O   0  0  0  0  0  0  0  0  0  0  0  0
  193.5190  173.3340  142.4860 C   0  0  0  0  0  1  0  0  0  0  0  0
  194.5720  173.7550  143.4900 C   0  0  0  0  0  2  0  0  0  0  0  0
  189.3120  177.8020  144.1820 C   0  0  0  0  0  2  0  0  0  0  0  0
  189.7830  177.3130  142.8150 C   0  0  0  0  0  2  0  0  0  0  0  0
  188.2110  174.1360  141.8810 C   0  0  0  0  0  0  0  0  0  0  0  0
  187.4510  177.3670  140.7570 N   0  0  0  0  0  1  0  0  0  0  0  0
  188.1340  172.7460  141.9350 C   0  0  0  0  0  3  0  0  0  0  0  0
  189.0240  172.0740  142.7950 C   0  0  0  0  0  2  0  0  0  0  0  0
  190.0180  174.1970  143.4930 C   0  0  0  0  0  3  0  0  0  0  0  0
  187.9370  176.1890  141.3900 C   0  0  0  0  0  0  0  0  0  0  0  0
  187.4700  174.9500  141.1040 N   0  0  0  0  0  0  0  0  0  0  0  0
  189.9590  172.7950  143.5670 C   0  0  0  0  0  3  0  0  0  0  0  0
  188.9550  176.1640  142.3350 C   0  0  0  0  0  0  0  0  0  0  0  0
  189.1210  174.8330  142.6370 C   0  0  0  0  0  0  0  0  0  0  0  0
  187.8400  176.3880  146.3530 C   0  0  0  0  0  2  0  0  0  0  0  0
  187.3500  177.4560  147.3110 C   0  0  0  0  0  2  0  0  0  0  0  0
  185.8540  177.2980  147.5210 C   0  0  0  0  0  2  0  0  0  0  0  0
  184.6440  178.6430  145.9930 C   0  0  0  0  0  3  0  0  0  0  0  0
  185.1530  177.5000  146.2810 N   0  0  0  0  0  0  0  0  0  0  0  0
  183.9210  178.8470  144.7050 C   0  0  0  0  0  2  0  0  0  0  0  0
  184.7570  178.3410  143.5450 C   0  0  0  0  0  2  0  0  0  0  0  0
  185.9440  179.2570  143.3420 C   0  0  0  0  0  1  0  0  0  0  0  0
  1  5  2  0  0  0  0
  1  3  1  0  0  0  0
  2 26  1  0  0  0  0
  2  6  2  0  0  0  0
  3  4  2  0  0  0  0
  4  6  1  0  0  0  0
  5  2  1  0  0  0  0
  8 10  1  0  0  0  0
  9  8  1  0  0  0  0
  9  7  2  0  0  0  0
 10  3  1  0  0  0  0
 10 11  2  0  0  0  0
 12 13  1  0  0  0  0
 13  9  1  0  0  0  0
 14  5  1  0  0  0  0
 15 14  1  0  0  0  0
 16 18  2  0  0  0  0
 16 25  1  0  0  0  0
 17 21  1  0  0  0  0
 18 19  1  0  0  0  0
 19 23  1  0  0  0  0
 20 23  2  0  0  0  0
 21 24  1  0  0  0  0
 22 21  2  0  0  0  0
 22 16  1  0  0  0  0
 24 25  2  0  0  0  0
 24 15  1  0  0  0  0
 25 20  1  0  0  0  0
 26 27  1  0  0  0  0
 27 28  1  0  0  0  0
 29 30  2  0  0  0  0
 30 28  1  0  0  0  0
 31 29  1  0  0  0  0
 32 31  1  0  0  0  0
 33 32  1  0  0  0  0
M  END
>  <MODEL>
3

>  <REMARK>
 VINA RESULT:      -6.8      2.019      3.475
  Name = 
  11 active torsions:
  status: ('A' for Active; 'I' for Inactive)
    1  A    between atoms: C_1  and  C_10
    2  A    between atoms: C_1  and  N_26
    3  A    between atoms: C_6  and  C_8
    4  A    between atoms: C_7  and  C_15
    5  A    between atoms: C_7  and  C_25
    6  A    between atoms: C_8  and  C_10
    7  A    between atoms: C_11  and  C_19
    8  A    between atoms: C_12  and  C_16
    9  A    between atoms: C_15  and  C_32
   10  A    between atoms: C_17  and  C_29
   11  A    between atoms: C_21  and  C_29
                            x       y       z     vdW  Elec       q    Type
                         _______ _______ _______ _____ _____    ______ ____

>  <TORSDO>
F 11

$$$$
=
 OpenBabel11042416153D

 33 35  0  0  0  0  0  0  0  0999 V2000
  188.9390  175.4180  144.6500 C   0  0  0  0  0  3  0  0  0  0  0  0
  189.0640  173.8790  142.7780 C   0  0  0  0  0  0  0  0  0  0  0  0
  189.5320  174.4670  145.4890 C   0  0  0  0  0  0  0  0  0  0  0  0
  189.8990  173.2240  144.9570 C   0  0  0  0  0  3  0  0  0  0  0  0
  188.6950  175.1340  143.3010 C   0  0  0  0  0  0  0  0  0  0  0  0
  189.6610  172.9300  143.6130 C   0  0  0  0  0  3  0  0  0  0  0  0
  192.6010  174.4550  145.9450 N   0  0  0  0  0  2  0  0  0  0  0  0
  190.9820  175.5740  147.2700 N   0  0  0  0  0  2  0  0  0  0  0  0
  192.2750  175.4840  146.6590 C   0  0  0  0  0  0  0  0  0  0  0  0
  189.8280  174.8090  146.8960 C   0  0  0  0  0  0  0  0  0  0  0  0
  189.0160  174.4660  147.7960 O   0  0  0  0  0  0  0  0  0  0  0  0
  194.5180  176.3020  146.0830 C   0  0  0  0  0  1  0  0  0  0  0  0
  193.2960  176.5260  146.9490 C   0  0  0  0  0  2  0  0  0  0  0  0
  188.1110  176.2090  142.4370 C   0  0  0  0  0  2  0  0  0  0  0  0
  188.1600  177.5680  143.1290 C   0  0  0  0  0  2  0  0  0  0  0  0
  184.9210  178.5080  144.5650 C   0  0  0  0  0  0  0  0  0  0  0  0
  185.8700  178.3970  141.1940 N   0  0  0  0  0  1  0  0  0  0  0  0
  184.0610  178.6600  145.6510 C   0  0  0  0  0  3  0  0  0  0  0  0
  184.5790  178.4110  146.9360 C   0  0  0  0  0  2  0  0  0  0  0  0
  186.7710  177.8700  145.9930 C   0  0  0  0  0  3  0  0  0  0  0  0
  185.7580  178.3840  142.6120 C   0  0  0  0  0  0  0  0  0  0  0  0
  184.6070  178.6720  143.2650 N   0  0  0  0  0  0  0  0  0  0  0  0
  185.9250  178.0180  147.1050 C   0  0  0  0  0  3  0  0  0  0  0  0
  186.7880  178.0470  143.4810 C   0  0  0  0  0  0  0  0  0  0  0  0
  186.2300  178.1290  144.7350 C   0  0  0  0  0  0  0  0  0  0  0  0
  188.8180  173.5270  141.3470 C   0  0  0  0  0  2  0  0  0  0  0  0
  189.5900  172.2750  140.9790 C   0  0  0  0  0  2  0  0  0  0  0  0
  190.5030  172.5730  139.8030 C   0  0  0  0  0  2  0  0  0  0  0  0
  192.3420  173.6260  140.8600 C   0  0  0  0  0  3  0  0  0  0  0  0
  191.3220  173.7220  140.0860 N   0  0  0  0  0  0  0  0  0  0  0  0
  193.1900  174.8200  141.1470 C   0  0  0  0  0  2  0  0  0  0  0  0
  193.1040  175.1850  142.6160 C   0  0  0  0  0  2  0  0  0  0  0  0
  192.0970  176.3010  142.8000 C   0  0  0  0  0  1  0  0  0  0  0  0
  1  3  1  0  0  0  0
  2  5  1  0  0  0  0
  2  6  2  0  0  0  0
  3 10  1  0  0  0  0
  4  3  2  0  0  0  0
  5  1  2  0  0  0  0
  6  4  1  0  0  0  0
  7  9  2  0  0  0  0
  9 13  1  0  0  0  0
  9  8  1  0  0  0  0
 10  8  1  0  0  0  0
 10 11  2  0  0  0  0
 12 13  1  0  0  0  0
 14 15  1  0  0  0  0
 14  5  1  0  0  0  0
 15 24  1  0  0  0  0
 16 25  1  0  0  0  0
 16 18  2  0  0  0  0
 17 21  1  0  0  0  0
 18 19  1  0  0  0  0
 19 23  1  0  0  0  0
 20 23  2  0  0  0  0
 21 22  2  0  0  0  0
 21 24  1  0  0  0  0
 22 16  1  0  0  0  0
 24 25  2  0  0  0  0
 25 20  1  0  0  0  0
 26  2  1  0  0  0  0
 27 26  1  0  0  0  0
 28 30  1  0  0  0  0
 28 27  1  0  0  0  0
 29 31  1  0  0  0  0
 30 29  2  0  0  0  0
 31 32  1  0  0  0  0
 32 33  1  0  0  0  0
M  END
>  <MODEL>
4

>  <REMARK>
 VINA RESULT:      -6.8      2.899      6.296
  Name = 
  11 active torsions:
  status: ('A' for Active; 'I' for Inactive)
    1  A    between atoms: C_1  and  C_10
    2  A    between atoms: C_1  and  N_26
    3  A    between atoms: C_6  and  C_8
    4  A    between atoms: C_7  and  C_15
    5  A    between atoms: C_7  and  C_25
    6  A    between atoms: C_8  and  C_10
    7  A    between atoms: C_11  and  C_19
    8  A    between atoms: C_12  and  C_16
    9  A    between atoms: C_15  and  C_32
   10  A    between atoms: C_17  and  C_29
   11  A    between atoms: C_21  and  C_29
                            x       y       z     vdW  Elec       q    Type
                         _______ _______ _______ _____ _____    ______ ____

>  <TORSDO>
F 11

$$$$
=
 OpenBabel11042416153D

 33 35  0  0  1  0  0  0  0  0999 V2000
  188.0670  178.2080  144.4030 C   0  0  0  0  0  3  0  0  0  0  0  0
  188.5020  176.5010  146.0720 C   0  0  0  0  0  0  0  0  0  0  0  0
  186.6990  178.1650  144.6950 C   0  0  0  0  0  0  0  0  0  0  0  0
  186.2420  177.2900  145.6900 C   0  0  0  0  0  3  0  0  0  0  0  0
  188.9720  177.3800  145.0770 C   0  0  0  0  0  0  0  0  0  0  0  0
  187.1350  176.4600  146.3690 C   0  0  0  0  0  3  0  0  0  0  0  0
  187.3790  178.2780  141.6700 N   0  0  0  0  0  2  0  0  0  0  0  0
  185.3070  178.8500  142.6720 N   0  0  0  0  0  2  0  0  0  0  0  0
  186.0880  178.2940  141.6070 C   0  0  0  0  0  0  0  0  0  0  0  0
  185.7690  179.0870  144.0090 C   0  0  0  0  0  0  0  0  0  0  0  0
  185.3220  180.0860  144.6330 O   0  0  0  0  0  0  0  0  0  0  0  0
  186.4130  177.1670  139.4490 C   0  0  0  0  0  1  0  0  0  0  0  0
  185.4100  177.8420  140.3630 C   0  0  0  0  0  2  0  0  0  0  0  0
  190.4310  177.5090  144.7630 C   0  0  0  0  0  2  0  0  0  0  0  0
  190.6710  177.6090  143.2600 C   0  0  0  0  0  2  0  0  0  0  0  0
  190.8410  174.1810  141.9710 C   0  0  0  0  0  0  0  0  0  0  0  0
  193.4670  176.4140  142.6010 N   0  0  0  0  0  1  0  0  0  0  0  0
  190.2400  172.9720  141.6270 C   0  0  0  0  0  3  0  0  0  0  0  0
  188.8380  172.8880  141.7170 C   0  0  0  0  0  3  0  0  0  0  0  0
  188.7080  175.2050  142.4910 C   0  0  0  0  0  3  0  0  0  0  0  0
  192.2350  175.7290  142.4100 C   0  0  0  0  0  0  0  0  0  0  0  0
  192.1620  174.4470  141.9770 N   0  0  0  0  0  0  0  0  0  0  0  0
  188.0780  173.9970  142.1470 C   0  0  0  0  0  3  0  0  0  0  0  0
  190.9820  176.2700  142.6700 C   0  0  0  0  0  0  0  0  0  0  0  0
  190.0960  175.2580  142.3860 C   0  0  1  0  0  3  0  0  0  0  0  0
  189.4280  175.5920  146.8130 C   0  0  0  0  0  2  0  0  0  0  0  0
  189.3100  174.1790  146.2770 C   0  0  0  0  0  2  0  0  0  0  0  0
  190.5840  173.8120  145.5380 C   0  0  0  0  0  2  0  0  0  0  0  0
  192.8750  174.4110  145.5740 C   0  0  0  0  0  3  0  0  0  0  0  0
  191.7040  174.5320  146.0850 N   0  0  0  0  0  0  0  0  0  0  0  0
  194.0310  175.1620  146.1430 C   0  0  0  0  0  2  0  0  0  0  0  0
  193.6170  176.5780  146.4960 C   0  0  0  0  0  2  0  0  0  0  0  0
  194.5800  177.5570  145.8600 C   0  0  0  0  0  1  0  0  0  0  0  0
  1  3  2  0  0  0  0
  1  5  1  0  0  0  0
  2  6  1  0  0  0  0
  2 26  1  0  0  0  0
  3  4  1  0  0  0  0
  4  6  2  0  0  0  0
  5  2  2  0  0  0  0
  8 10  1  0  0  0  0
  9  7  2  0  0  0  0
  9  8  1  0  0  0  0
 10 11  2  0  0  0  0
 10  3  1  0  0  0  0
 12 13  1  0  0  0  0
 13  9  1  0  0  0  0
 14  5  1  0  0  0  0
 15 14  1  0  0  0  0
 16 22  2  0  0  0  0
 16 25  1  0  0  0  0
 18 19  2  0  0  0  0
 18 16  1  0  0  0  0
 19 23  1  0  0  0  0
 21 17  1  0  0  0  0
 21 24  2  0  0  0  0
 22 21  1  0  0  0  0
 23 20  2  0  0  0  0
 24 15  1  0  0  0  0
 25 20  1  1  0  0  0
 25 24  1  0  0  0  0
 27 26  1  0  0  0  0
 28 30  1  0  0  0  0
 28 27  1  0  0  0  0
 29 30  2  0  0  0  0
 29 31  1  0  0  0  0
 31 32  1  0  0  0  0
 33 32  1  0  0  0  0
M  END
>  <MODEL>
5

>  <REMARK>
 VINA RESULT:      -6.8      3.141      7.429
  Name = 
  11 active torsions:
  status: ('A' for Active; 'I' for Inactive)
    1  A    between atoms: C_1  and  C_10
    2  A    between atoms: C_1  and  N_26
    3  A    between atoms: C_6  and  C_8
    4  A    between atoms: C_7  and  C_15
    5  A    between atoms: C_7  and  C_25
    6  A    between atoms: C_8  and  C_10
    7  A    between atoms: C_11  and  C_19
    8  A    between atoms: C_12  and  C_16
    9  A    between atoms: C_15  and  C_32
   10  A    between atoms: C_17  and  C_29
   11  A    between atoms: C_21  and  C_29
                            x       y       z     vdW  Elec       q    Type
                         _______ _______ _______ _____ _____    ______ ____

>  <TORSDO>
F 11

$$$$
=
 OpenBabel11042416153D

 33 35  0  0  0  0  0  0  0  0999 V2000
  192.7490  176.7550  144.3750 C   0  0  0  0  0  3  0  0  0  0  0  0
  191.4830  176.3700  146.4090 C   0  0  0  0  0  0  0  0  0  0  0  0
  193.7890  175.9480  144.8530 C   0  0  0  0  0  0  0  0  0  0  0  0
  193.6590  175.3450  146.1110 C   0  0  0  0  0  3  0  0  0  0  0  0
  191.6010  176.9770  145.1430 C   0  0  0  0  0  0  0  0  0  0  0  0
  192.5180  175.5590  146.8860 C   0  0  0  0  0  3  0  0  0  0  0  0
  193.6310  173.0690  143.7060 N   0  0  0  0  0  2  0  0  0  0  0  0
  194.8940  174.8730  142.8230 N   0  0  0  0  0  2  0  0  0  0  0  0
  194.0920  173.6950  142.6720 C   0  0  0  0  0  0  0  0  0  0  0  0
  194.9690  175.6850  144.0020 C   0  0  0  0  0  0  0  0  0  0  0  0
  196.0660  176.2330  144.2870 O   0  0  0  0  0  0  0  0  0  0  0  0
  193.3560  174.1790  140.3790 C   0  0  0  0  0  1  0  0  0  0  0  0
  193.8900  173.1160  141.3170 C   0  0  0  0  0  2  0  0  0  0  0  0
  190.4960  177.8020  144.5580 C   0  0  0  0  0  2  0  0  0  0  0  0
  190.3870  177.5980  143.0500 C   0  0  0  0  0  2  0  0  0  0  0  0
  188.1010  174.8660  142.1840 C   0  0  0  0  0  0  0  0  0  0  0  0
  187.5120  178.3190  142.1070 N   0  0  0  0  0  1  0  0  0  0  0  0
  187.8290  173.5140  141.9870 C   0  0  0  0  0  3  0  0  0  0  0  0
  188.8480  172.5900  142.2840 C   0  0  0  0  0  2  0  0  0  0  0  0
  190.3510  174.4010  142.9510 C   0  0  0  0  0  3  0  0  0  0  0  0
  187.9990  176.9910  142.2550 C   0  0  0  0  0  0  0  0  0  0  0  0
  187.2690  175.8960  141.9330 N   0  0  0  0  0  0  0  0  0  0  0  0
  190.1010  173.0320  142.7620 C   0  0  0  0  0  3  0  0  0  0  0  0
  189.2700  176.6630  142.7080 C   0  0  0  0  0  0  0  0  0  0  0  0
  189.3200  175.2900  142.6520 C   0  0  0  0  0  0  0  0  0  0  0  0
  190.2790  176.5820  147.2680 C   0  0  0  0  0  2  0  0  0  0  0  0
  189.3500  175.3890  147.1670 C   0  0  0  0  0  2  0  0  0  0  0  0
  188.2050  175.7190  146.2260 C   0  0  0  0  0  2  0  0  0  0  0  0
  186.8620  177.6650  146.3470 C   0  0  0  0  0  3  0  0  0  0  0  0
  187.2460  176.5660  146.8860 N   0  0  0  0  0  0  0  0  0  0  0  0
  185.8650  178.5370  147.0340 C   0  0  0  0  0  2  0  0  0  0  0  0
  184.4550  178.1070  146.6790 C   0  0  0  0  0  2  0  0  0  0  0  0
  184.0660  178.7050  145.3440 C   0  0  0  0  0  1  0  0  0  0  0  0
  1  3  2  0  0  0  0
  1  5  1  0  0  0  0
  2  6  1  0  0  0  0
  2 26  1  0  0  0  0
  3  4  1  0  0  0  0
  4  6  2  0  0  0  0
  5  2  2  0  0  0  0
  8 10  1  0  0  0  0
  9  8  1  0  0  0  0
  9  7  2  0  0  0  0
 10 11  2  0  0  0  0
 10  3  1  0  0  0  0
 12 13  1  0  0  0  0
 13  9  1  0  0  0  0
 14  5  1  0  0  0  0
 15 14  1  0  0  0  0
 16 25  1  0  0  0  0
 17 21  1  0  0  0  0
 18 16  2  0  0  0  0
 18 19  1  0  0  0  0
 19 23  1  0  0  0  0
 21 24  1  0  0  0  0
 22 16  1  0  0  0  0
 22 21  2  0  0  0  0
 23 20  2  0  0  0  0
 24 15  1  0  0  0  0
 25 24  2  0  0  0  0
 25 20  1  0  0  0  0
 27 26  1  0  0  0  0
 28 30  1  0  0  0  0
 28 27  1  0  0  0  0
 29 30  2  0  0  0  0
 29 31  1  0  0  0  0
 32 31  1  0  0  0  0
 33 32  1  0  0  0  0
M  END
>  <MODEL>
6

>  <REMARK>
 VINA RESULT:      -6.7      2.011      3.119
  Name = 
  11 active torsions:
  status: ('A' for Active; 'I' for Inactive)
    1  A    between atoms: C_1  and  C_10
    2  A    between atoms: C_1  and  N_26
    3  A    between atoms: C_6  and  C_8
    4  A    between atoms: C_7  and  C_15
    5  A    between atoms: C_7  and  C_25
    6  A    between atoms: C_8  and  C_10
    7  A    between atoms: C_11  and  C_19
    8  A    between atoms: C_12  and  C_16
    9  A    between atoms: C_15  and  C_32
   10  A    between atoms: C_17  and  C_29
   11  A    between atoms: C_21  and  C_29
                            x       y       z     vdW  Elec       q    Type
                         _______ _______ _______ _____ _____    ______ ____

>  <TORSDO>
F 11

$$$$
=
 OpenBabel11042416153D

 33 35  0  0  0  0  0  0  0  0999 V2000
  192.3970  176.5710  144.2600 C   0  0  0  0  0  3  0  0  0  0  0  0
  190.8290  174.8270  144.8840 C   0  0  0  0  0  0  0  0  0  0  0  0
  193.2000  176.2630  145.3650 C   0  0  0  0  0  0  0  0  0  0  0  0
  192.8120  175.2240  146.2200 C   0  0  0  0  0  3  0  0  0  0  0  0
  191.2120  175.8670  144.0150 C   0  0  0  0  0  0  0  0  0  0  0  0
  191.6330  174.5150  145.9860 C   0  0  0  0  0  3  0  0  0  0  0  0
  195.5150  174.7150  143.9980 N   0  0  0  0  0  2  0  0  0  0  0  0
  195.5050  177.0150  144.5780 N   0  0  0  0  0  2  0  0  0  0  0  0
  195.8630  175.9280  143.7150 C   0  0  0  0  0  0  0  0  0  0  0  0
  194.4730  176.9840  145.5730 C   0  0  0  0  0  0  0  0  0  0  0  0
  194.6420  177.6410  146.6350 O   0  0  0  0  0  0  0  0  0  0  0  0
  195.9330  176.7340  141.3960 C   0  0  0  0  0  1  0  0  0  0  0  0
  196.7480  176.1820  142.5480 C   0  0  0  0  0  2  0  0  0  0  0  0
  190.4210  176.2000  142.7870 C   0  0  0  0  0  2  0  0  0  0  0  0
  189.6820  177.5260  142.9440 C   0  0  0  0  0  2  0  0  0  0  0  0
  186.4240  176.9140  144.5070 C   0  0  0  0  0  0  0  0  0  0  0  0
  187.2510  176.9120  141.1020 N   0  0  0  0  0  1  0  0  0  0  0  0
  185.6180  176.7440  145.6310 C   0  0  0  0  0  3  0  0  0  0  0  0
  186.2110  176.9230  146.8950 C   0  0  0  0  0  2  0  0  0  0  0  0
  188.3690  177.4220  145.8580 C   0  0  0  0  0  3  0  0  0  0  0  0
  187.1830  177.0010  142.5210 C   0  0  0  0  0  0  0  0  0  0  0  0
  186.0490  176.7600  143.2220 N   0  0  0  0  0  0  0  0  0  0  0  0
  187.5770  177.2590  147.0070 C   0  0  0  0  0  3  0  0  0  0  0  0
  188.2580  177.3090  143.3450 C   0  0  0  0  0  0  0  0  0  0  0  0
  187.7510  177.2440  144.6210 C   0  0  0  0  0  0  0  0  0  0  0  0
  189.5700  174.0520  144.6690 C   0  0  0  0  0  2  0  0  0  0  0  0
  189.8660  172.5650  144.6770 C   0  0  0  0  0  2  0  0  0  0  0  0
  189.4950  171.9690  143.3310 C   0  0  0  0  0  2  0  0  0  0  0  0
  190.1550  172.8400  141.2300 C   0  0  0  0  0  3  0  0  0  0  0  0
  190.4910  172.3020  142.3460 N   0  0  0  0  0  0  0  0  0  0  0  0
  191.1910  173.1870  140.2150 C   0  0  0  0  0  2  0  0  0  0  0  0
  192.5790  173.0500  140.8100 C   0  0  0  0  0  2  0  0  0  0  0  0
  193.1210  174.4220  141.1480 C   0  0  0  0  0  1  0  0  0  0  0  0
  1  3  1  0  0  0  0
  2  6  2  0  0  0  0
  3 10  1  0  0  0  0
  3  4  2  0  0  0  0
  5  1  2  0  0  0  0
  5  2  1  0  0  0  0
  6  4  1  0  0  0  0
  8 10  1  0  0  0  0
  9  7  2  0  0  0  0
  9  8  1  0  0  0  0
 10 11  2  0  0  0  0
 12 13  1  0  0  0  0
 13  9  1  0  0  0  0
 14 15  1  0  0  0  0
 14  5  1  0  0  0  0
 15 24  1  0  0  0  0
 16 25  1  0  0  0  0
 16 18  2  0  0  0  0
 17 21  1  0  0  0  0
 18 19  1  0  0  0  0
 19 23  1  0  0  0  0
 20 23  2  0  0  0  0
 21 22  2  0  0  0  0
 21 24  1  0  0  0  0
 22 16  1  0  0  0  0
 24 25  2  0  0  0  0
 25 20  1  0  0  0  0
 26 27  1  0  0  0  0
 26  2  1  0  0  0  0
 28 27  1  0  0  0  0
 29 30  2  0  0  0  0
 30 28  1  0  0  0  0
 31 32  1  0  0  0  0
 31 29  1  0  0  0  0
 32 33  1  0  0  0  0
M  END
>  <MODEL>
7

>  <REMARK>
 VINA RESULT:      -6.7      2.129      4.749
  Name = 
  11 active torsions:
  status: ('A' for Active; 'I' for Inactive)
    1  A    between atoms: C_1  and  C_10
    2  A    between atoms: C_1  and  N_26
    3  A    between atoms: C_6  and  C_8
    4  A    between atoms: C_7  and  C_15
    5  A    between atoms: C_7  and  C_25
    6  A    between atoms: C_8  and  C_10
    7  A    between atoms: C_11  and  C_19
    8  A    between atoms: C_12  and  C_16
    9  A    between atoms: C_15  and  C_32
   10  A    between atoms: C_17  and  C_29
   11  A    between atoms: C_21  and  C_29
                            x       y       z     vdW  Elec       q    Type
                         _______ _______ _______ _____ _____    ______ ____

>  <TORSDO>
F 11

$$$$
=
 OpenBabel11042416153D

 33 35  0  0  0  0  0  0  0  0999 V2000
  188.3350  174.8110  142.8570 C   0  0  0  0  0  3  0  0  0  0  0  0
  187.1990  176.7720  141.9900 C   0  0  0  0  0  0  0  0  0  0  0  0
  188.6250  174.3860  141.5540 C   0  0  0  0  0  0  0  0  0  0  0  0
  188.2050  175.1710  140.4720 C   0  0  0  0  0  3  0  0  0  0  0  0
  187.6210  175.9920  143.0850 C   0  0  0  0  0  0  0  0  0  0  0  0
  187.4920  176.3520  140.6880 C   0  0  0  0  0  3  0  0  0  0  0  0
  191.6390  175.0350  141.9030 N   0  0  0  0  0  2  0  0  0  0  0  0
  190.6270  172.8970  142.0780 N   0  0  0  0  0  2  0  0  0  0  0  0
  191.5940  173.8760  142.4760 C   0  0  0  0  0  0  0  0  0  0  0  0
  189.4270  173.1630  141.3400 C   0  0  0  0  0  0  0  0  0  0  0  0
  189.0180  172.2960  140.5220 O   0  0  0  0  0  0  0  0  0  0  0  0
  192.0070  172.7460  144.6170 C   0  0  0  0  0  1  0  0  0  0  0  0
  192.6370  173.5120  143.4720 C   0  0  0  0  0  2  0  0  0  0  0  0
  187.3890  176.4280  144.4990 C   0  0  0  0  0  2  0  0  0  0  0  0
  188.2570  177.6290  144.8610 C   0  0  0  0  0  2  0  0  0  0  0  0
  191.6880  176.5520  145.5720 C   0  0  0  0  0  0  0  0  0  0  0  0
  190.5090  178.4660  142.8840 N   0  0  0  0  0  1  0  0  0  0  0  0
  192.6310  175.9300  146.3870 C   0  0  0  0  0  3  0  0  0  0  0  0
  192.1700  175.2930  147.5550 C   0  0  0  0  0  2  0  0  0  0  0  0
  189.8650  175.9290  147.0410 C   0  0  0  0  0  3  0  0  0  0  0  0
  190.7120  177.6630  144.0410 C   0  0  0  0  0  0  0  0  0  0  0  0
  191.9340  177.2330  144.4360 N   0  0  0  0  0  0  0  0  0  0  0  0
  190.7960  175.2930  147.8790 C   0  0  0  0  0  3  0  0  0  0  0  0
  189.7050  177.2580  144.9080 C   0  0  0  0  0  0  0  0  0  0  0  0
  190.3520  176.5470  145.8900 C   0  0  0  0  0  0  0  0  0  0  0  0
  186.4280  178.0370  142.1820 C   0  0  0  0  0  2  0  0  0  0  0  0
  185.0440  177.8990  141.5790 C   0  0  0  0  0  2  0  0  0  0  0  0
  184.0100  178.4080  142.5670 C   0  0  0  0  0  2  0  0  0  0  0  0
  184.4660  179.2330  144.7400 C   0  0  0  0  0  3  0  0  0  0  0  0
  184.4880  178.2490  143.9160 N   0  0  0  0  0  0  0  0  0  0  0  0
  184.9590  179.0600  146.1370 C   0  0  0  0  0  2  0  0  0  0  0  0
  184.8180  177.6140  146.5710 C   0  0  0  0  0  2  0  0  0  0  0  0
  185.8590  177.3000  147.6250 C   0  0  0  0  0  1  0  0  0  0  0  0
  1  5  1  0  0  0  0
  2 26  1  0  0  0  0
  2  5  2  0  0  0  0
  3  1  2  0  0  0  0
  4  6  2  0  0  0  0
  4  3  1  0  0  0  0
  5 14  1  0  0  0  0
  6  2  1  0  0  0  0
  7  9  2  0  0  0  0
  8  9  1  0  0  0  0
  9 13  1  0  0  0  0
 10  3  1  0  0  0  0
 10  8  1  0  0  0  0
 11 10  2  0  0  0  0
 13 12  1  0  0  0  0
 14 15  1  0  0  0  0
 15 24  1  0  0  0  0
 16 25  1  0  0  0  0
 16 18  2  0  0  0  0
 17 21  1  0  0  0  0
 18 19  1  0  0  0  0
 19 23  1  0  0  0  0
 20 23  2  0  0  0  0
 21 22  2  0  0  0  0
 21 24  1  0  0  0  0
 22 16  1  0  0  0  0
 24 25  2  0  0  0  0
 25 20  1  0  0  0  0
 27 26  1  0  0  0  0
 27 28  1  0  0  0  0
 28 30  1  0  0  0  0
 29 31  1  0  0  0  0
 30 29  2  0  0  0  0
 31 32  1  0  0  0  0
 32 33  1  0  0  0  0
M  END
>  <MODEL>
8

>  <REMARK>
 VINA RESULT:      -6.6      3.158      5.986
  Name = 
  11 active torsions:
  status: ('A' for Active; 'I' for Inactive)
    1  A    between atoms: C_1  and  C_10
    2  A    between atoms: C_1  and  N_26
    3  A    between atoms: C_6  and  C_8
    4  A    between atoms: C_7  and  C_15
    5  A    between atoms: C_7  and  C_25
    6  A    between atoms: C_8  and  C_10
    7  A    between atoms: C_11  and  C_19
    8  A    between atoms: C_12  and  C_16
    9  A    between atoms: C_15  and  C_32
   10  A    between atoms: C_17  and  C_29
   11  A    between atoms: C_21  and  C_29
                            x       y       z     vdW  Elec       q    Type
                         _______ _______ _______ _____ _____    ______ ____

>  <TORSDO>
F 11

$$$$
=
 OpenBabel11042416153D

 33 35  0  0  0  0  0  0  0  0999 V2000
  187.6720  177.9960  143.1830 C   0  0  0  0  0  3  0  0  0  0  0  0
  188.7310  175.8750  142.6640 C   0  0  0  0  0  0  0  0  0  0  0  0
  186.4070  177.4060  143.0750 C   0  0  0  0  0  0  0  0  0  0  0  0
  186.3150  176.0410  142.7720 C   0  0  0  0  0  3  0  0  0  0  0  0
  188.8350  177.2450  142.9740 C   0  0  0  0  0  0  0  0  0  0  0  0
  187.4680  175.2830  142.5610 C   0  0  0  0  0  3  0  0  0  0  0  0
  185.3490  176.7500  145.9180 N   0  0  0  0  0  2  0  0  0  0  0  0
  184.8970  178.7110  144.6620 N   0  0  0  0  0  2  0  0  0  0  0  0
  185.1480  178.0280  145.8960 C   0  0  0  0  0  0  0  0  0  0  0  0
  185.1950  178.2050  143.3530 C   0  0  0  0  0  0  0  0  0  0  0  0
  184.4230  178.5020  142.4030 O   0  0  0  0  0  0  0  0  0  0  0  0
  186.3810  178.7110  147.9070 C   0  0  0  0  0  1  0  0  0  0  0  0
  185.0540  178.7750  147.1780 C   0  0  0  0  0  2  0  0  0  0  0  0
  190.1620  177.9150  143.1570 C   0  0  0  0  0  2  0  0  0  0  0  0
  190.4310  178.2250  144.6260 C   0  0  0  0  0  2  0  0  0  0  0  0
  192.0380  175.2560  146.0520 C   0  0  0  0  0  0  0  0  0  0  0  0
  188.7420  176.3700  146.4670 N   0  0  0  0  0  1  0  0  0  0  0  0
  193.1260  174.3940  146.1770 C   0  0  0  0  0  3  0  0  0  0  0  0
  194.3160  174.7390  145.5090 C   0  0  0  0  0  3  0  0  0  0  0  0
  193.2790  176.7710  144.6270 C   0  0  0  0  0  3  0  0  0  0  0  0
  190.1160  176.1630  146.1580 C   0  0  0  0  0  0  0  0  0  0  0  0
  190.8140  175.0850  146.5890 N   0  0  0  0  0  2  0  0  0  0  0  0
  194.3910  175.9200  144.7390 C   0  0  0  0  0  3  0  0  0  0  0  0
  190.8830  177.0060  145.3650 C   0  0  0  0  0  0  0  0  0  0  0  0
  192.1170  176.4040  145.3040 C   0  0  0  0  0  0  0  0  0  0  0  0
  189.9430  175.0340  142.4250 C   0  0  0  0  0  2  0  0  0  0  0  0
  189.9170  173.8160  143.3270 C   0  0  0  0  0  2  0  0  0  0  0  0
  190.2220  172.5750  142.5070 C   0  0  0  0  0  2  0  0  0  0  0  0
  190.0640  171.9570  140.2270 C   0  0  0  0  0  3  0  0  0  0  0  0
  190.1970  172.8860  141.1020 N   0  0  0  0  0  0  0  0  0  0  0  0
  190.0360  172.2860  138.7720 C   0  0  0  0  0  2  0  0  0  0  0  0
  189.6920  173.7490  138.5690 C   0  0  0  0  0  2  0  0  0  0  0  0
  188.2200  173.8800  138.2400 C   0  0  0  0  0  1  0  0  0  0  0  0
  2  5  1  0  0  0  0
  3  1  1  0  0  0  0
  3 10  1  0  0  0  0
  4  3  2  0  0  0  0
  5 14  1  0  0  0  0
  5  1  2  0  0  0  0
  6  2  2  0  0  0  0
  6  4  1  0  0  0  0
  8  9  1  0  0  0  0
  9  7  2  0  0  0  0
  9 13  1  0  0  0  0
 10  8  1  0  0  0  0
 11 10  2  0  0  0  0
 13 12  1  0  0  0  0
 14 15  1  0  0  0  0
 15 24  1  0  0  0  0
 16 18  1  0  0  0  0
 16 22  1  0  0  0  0
 19 18  2  0  0  0  0
 20 23  2  0  0  0  0
 20 25  1  0  0  0  0
 21 17  1  0  0  0  0
 21 22  1  0  0  0  0
 23 19  1  0  0  0  0
 24 21  2  0  0  0  0
 25 24  1  0  0  0  0
 25 16  2  0  0  0  0
 26  2  1  0  0  0  0
 26 27  1  0  0  0  0
 28 27  1  0  0  0  0
 29 30  2  0  0  0  0
 30 28  1  0  0  0  0
 31 29  1  0  0  0  0
 32 31  1  0  0  0  0
 33 32  1  0  0  0  0
M  END
>  <MODEL>
9

>  <REMARK>
 VINA RESULT:      -6.5      3.144      8.095
  Name = 
  11 active torsions:
  status: ('A' for Active; 'I' for Inactive)
    1  A    between atoms: C_1  and  C_10
    2  A    between atoms: C_1  and  N_26
    3  A    between atoms: C_6  and  C_8
    4  A    between atoms: C_7  and  C_15
    5  A    between atoms: C_7  and  C_25
    6  A    between atoms: C_8  and  C_10
    7  A    between atoms: C_11  and  C_19
    8  A    between atoms: C_12  and  C_16
    9  A    between atoms: C_15  and  C_32
   10  A    between atoms: C_17  and  C_29
   11  A    between atoms: C_21  and  C_29
                            x       y       z     vdW  Elec       q    Type
                         _______ _______ _______ _____ _____    ______ ____

>  <TORSDO>
F 11

$$$$
