=
 OpenBabel11042417213D

 26 30  0  0  1  0  0  0  0  0999 V2000
  188.0310  177.2460  146.7130 C   0  0  0  0  0  0  0  0  0  0  0  0
  186.8840  177.9800  143.0400 C   0  0  0  0  0  0  0  0  0  0  0  0
  189.5760  175.7880  144.4270 C   0  0  1  0  0  3  0  0  0  0  0  0
  187.7320  177.4390  140.7970 C   0  0  0  0  0  3  0  0  0  0  0  0
  186.7560  177.6460  147.3790 C   0  0  0  0  0  2  0  0  0  0  0  0
  185.3700  177.7260  141.1300 C   0  0  0  0  0  3  0  0  0  0  0  0
  190.6200  175.9570  145.4980 C   0  0  0  0  0  0  0  0  0  0  0  0
  190.3520  176.3130  146.7820 C   0  0  0  0  0  3  0  0  0  0  0  0
  187.9800  177.6950  142.1470 C   0  0  0  0  0  0  0  0  0  0  0  0
  188.3590  176.1430  144.6310 N   0  0  0  0  0  2  0  0  0  0  0  0
  189.0600  176.7410  147.3980 C   0  0  0  0  0  3  0  0  0  0  0  0
  186.4400  177.4530  140.2900 C   0  0  0  0  0  0  0  0  0  0  0  0
  188.1770  177.4210  145.2620 C   0  0  1  0  0  3  0  0  0  0  0  0
  185.1930  176.7060  145.7900 O   0  0  0  0  0  1  0  0  0  0  0  0
  190.0380  175.8880  142.6960 S   0  0  0  0  0  0  0  0  0  0  0  0
  185.5670  177.9910  142.4920 C   0  0  0  0  0  0  0  0  0  0  0  0
  185.6650  177.9070  146.3320 C   0  0  2  0  0  3  0  0  0  0  0  0
  186.0800  178.8090  145.3170 O   0  0  0  0  0  0  0  0  0  0  0  0
  187.1420  178.2760  144.5320 C   0  0  2  0  0  3  0  0  0  0  0  0
  186.1600  177.1260  138.5940 Cl  0  0  0  0  0  0  0  0  0  0  0  0
  189.4350  177.6330  142.5590 C   0  0  0  0  0  2  0  0  0  0  0  0
  192.8220  176.9000  144.8920 C   0  0  0  0  0  2  0  0  0  0  0  0
  192.9000  176.2380  146.1270 O   0  0  0  0  0  0  0  0  0  0  0  0
  192.0550  175.6580  145.1600 C   0  0  1  0  0  3  0  0  0  0  0  0
  183.2380  178.4360  142.7780 O   0  0  0  0  0  0  0  0  0  0  0  0
  184.3740  178.2770  143.3020 C   0  0  0  0  0  3  0  0  0  0  0  0
  1  5  1  0  0  0  0
  1 11  2  0  0  0  0
  3 15  1  6  0  0  0
  3 10  1  0  0  0  0
  3  7  1  0  0  0  0
  4  9  1  0  0  0  0
  6 16  2  0  0  0  0
  7  8  2  0  0  0  0
  8 11  1  0  0  0  0
  9 21  1  0  0  0  0
  9  2  2  0  0  0  0
 12  4  2  0  0  0  0
 12  6  1  0  0  0  0
 13 10  1  6  0  0  0
 13  1  1  0  0  0  0
 16  2  1  0  0  0  0
 16 26  1  0  0  0  0
 17 14  1  6  0  0  0
 17  5  1  0  0  0  0
 18 17  1  0  0  0  0
 19  2  1  6  0  0  0
 19 13  1  0  0  0  0
 19 18  1  0  0  0  0
 20 12  1  0  0  0  0
 21 15  1  0  0  0  0
 22 24  1  0  0  0  0
 22 23  1  0  0  0  0
 24  7  1  1  0  0  0
 24 23  1  0  0  0  0
 25 26  2  0  0  0  0
M  END
>  <MODEL>
1

>  <REMARK>
 VINA RESULT:      -7.4      0.000      0.000
  Name = 
  2 active torsions:
  status: ('A' for Active; 'I' for Inactive)
    1  A    between atoms: C_9  and  C_17
    2  A    between atoms: C_19  and  C_23
                            x       y       z     vdW  Elec       q    Type
                         _______ _______ _______ _____ _____    ______ ____

>  <TORSDO>
F 2

$$$$
=
 OpenBabel11042417213D

 26 30  0  0  1  0  0  0  0  0999 V2000
  184.4910  178.2940  142.9150 C   0  0  0  0  0  0  0  0  0  0  0  0
  187.2820  176.9760  145.3280 C   0  0  0  0  0  0  0  0  0  0  0  0
  187.3750  178.0390  141.7460 C   0  0  1  0  0  3  0  0  0  0  0  0
  189.6300  176.2920  145.0870 C   0  0  0  0  0  3  0  0  0  0  0  0
  183.5490  178.7600  143.9730 C   0  0  0  0  0  2  0  0  0  0  0  0
  188.8810  177.2310  147.1670 C   0  0  0  0  0  3  0  0  0  0  0  0
  186.4930  177.7870  140.5520 C   0  0  0  0  0  0  0  0  0  0  0  0
  185.1590  178.0420  140.5160 C   0  0  0  0  0  3  0  0  0  0  0  0
  188.3520  176.4190  144.5390 C   0  0  0  0  0  0  0  0  0  0  0  0
  186.8700  178.3620  142.8820 N   0  0  0  0  0  2  0  0  0  0  0  0
  184.2450  178.4760  141.6150 C   0  0  0  0  0  3  0  0  0  0  0  0
  189.8960  176.6930  146.3880 C   0  0  0  0  0  0  0  0  0  0  0  0
  185.7270  177.5980  143.2990 C   0  0  1  0  0  3  0  0  0  0  0  0
  185.1540  179.7120  145.5120 O   0  0  0  0  0  1  0  0  0  0  0  0
  188.9340  177.1700  141.9120 S   0  0  0  0  0  0  0  0  0  0  0  0
  187.5820  177.3780  146.6640 C   0  0  0  0  0  0  0  0  0  0  0  0
  184.2150  178.6870  145.3540 C   0  0  2  0  0  3  0  0  0  0  0  0
  184.7840  177.4140  145.6230 O   0  0  0  0  0  0  0  0  0  0  0  0
  185.8610  177.1130  144.7420 C   0  0  2  0  0  3  0  0  0  0  0  0
  191.5080  176.5230  147.0460 Cl  0  0  0  0  0  0  0  0  0  0  0  0
  188.2140  175.9520  143.1060 C   0  0  0  0  0  2  0  0  0  0  0  0
  187.0390  175.7940  139.1960 C   0  0  0  0  0  2  0  0  0  0  0  0
  186.1480  176.6260  138.5010 O   0  0  0  0  0  0  0  0  0  0  0  0
  187.1230  177.2740  139.2870 C   0  0  1  0  0  3  0  0  0  0  0  0
  186.8090  178.9690  148.2690 O   0  0  0  0  0  0  0  0  0  0  0  0
  186.5710  177.9500  147.5660 C   0  0  0  0  0  3  0  0  0  0  0  0
  1 13  1  0  0  0  0
  1  5  1  0  0  0  0
  2 16  1  0  0  0  0
  3  7  1  1  0  0  0
  3 15  1  0  0  0  0
  3 10  1  0  0  0  0
  4 12  2  0  0  0  0
  5 17  1  0  0  0  0
  8  7  2  0  0  0  0
  8 11  1  0  0  0  0
  9  4  1  0  0  0  0
  9  2  2  0  0  0  0
 11  1  2  0  0  0  0
 12 20  1  0  0  0  0
 12  6  1  0  0  0  0
 13 10  1  1  0  0  0
 13 19  1  0  0  0  0
 15 21  1  0  0  0  0
 16  6  2  0  0  0  0
 16 26  1  0  0  0  0
 17 14  1  6  0  0  0
 17 18  1  0  0  0  0
 19  2  1  1  0  0  0
 19 18  1  0  0  0  0
 21  9  1  0  0  0  0
 22 24  1  0  0  0  0
 23 22  1  0  0  0  0
 23 24  1  0  0  0  0
 24  7  1  1  0  0  0
 26 25  2  0  0  0  0
M  END
>  <MODEL>
2

>  <REMARK>
 VINA RESULT:      -7.2      2.861      5.706
  Name = 
  2 active torsions:
  status: ('A' for Active; 'I' for Inactive)
    1  A    between atoms: C_9  and  C_17
    2  A    between atoms: C_19  and  C_23
                            x       y       z     vdW  Elec       q    Type
                         _______ _______ _______ _____ _____    ______ ____

>  <TORSDO>
F 2

$$$$
=
 OpenBabel11042417213D

 26 30  0  0  1  0  0  0  0  0999 V2000
  189.3150  176.2910  145.5970 C   0  0  0  0  0  0  0  0  0  0  0  0
  186.4220  177.9570  143.5460 C   0  0  0  0  0  0  0  0  0  0  0  0
  188.7770  175.1690  142.7340 C   0  0  1  0  0  3  0  0  0  0  0  0
  185.5990  177.8080  141.2350 C   0  0  0  0  0  3  0  0  0  0  0  0
  188.8350  176.7050  146.9480 C   0  0  0  0  0  2  0  0  0  0  0  0
  184.0630  178.3340  143.0040 C   0  0  0  0  0  3  0  0  0  0  0  0
  190.2560  174.9570  142.9170 C   0  0  0  0  0  0  0  0  0  0  0  0
  190.9040  175.0570  144.1080 C   0  0  0  0  0  3  0  0  0  0  0  0
  186.6580  177.7270  142.1420 C   0  0  0  0  0  0  0  0  0  0  0  0
  188.0540  175.6340  143.6880 N   0  0  0  0  0  2  0  0  0  0  0  0
  190.3880  175.5130  145.4340 C   0  0  0  0  0  3  0  0  0  0  0  0
  184.3130  178.1080  141.6580 C   0  0  0  0  0  0  0  0  0  0  0  0
  188.6020  176.7560  144.4000 C   0  0  1  0  0  3  0  0  0  0  0  0
  186.4630  176.3560  146.6260 O   0  0  0  0  0  1  0  0  0  0  0  0
  188.1210  175.5810  141.1160 S   0  0  0  0  0  0  0  0  0  0  0  0
  185.0910  178.2660  143.9540 C   0  0  0  0  0  0  0  0  0  0  0  0
  187.4390  177.3350  146.8490 C   0  0  2  0  0  3  0  0  0  0  0  0
  187.3680  178.3710  145.8810 O   0  0  0  0  0  0  0  0  0  0  0  0
  187.5820  177.8820  144.5610 C   0  0  2  0  0  3  0  0  0  0  0  0
  183.0060  178.2000  140.4980 Cl  0  0  0  0  0  0  0  0  0  0  0  0
  188.0010  177.3790  141.5390 C   0  0  0  0  0  2  0  0  0  0  0  0
  191.8520  173.3090  141.9980 C   0  0  0  0  0  2  0  0  0  0  0  0
  190.6530  173.2830  141.2700 O   0  0  0  0  0  0  0  0  0  0  0  0
  191.0780  174.5460  141.7270 C   0  0  1  0  0  3  0  0  0  0  0  0
  183.5890  178.9520  145.6810 O   0  0  0  0  0  0  0  0  0  0  0  0
  184.7320  178.5290  145.3560 C   0  0  0  0  0  3  0  0  0  0  0  0
  1  5  1  0  0  0  0
  2 16  1  0  0  0  0
  3 15  1  6  0  0  0
  3  7  1  0  0  0  0
  3 10  1  0  0  0  0
  4 12  2  0  0  0  0
  4  9  1  0  0  0  0
  6 16  2  0  0  0  0
  7  8  2  0  0  0  0
  8 11  1  0  0  0  0
  9  2  2  0  0  0  0
 11  1  2  0  0  0  0
 12  6  1  0  0  0  0
 13 10  1  1  0  0  0
 13 19  1  0  0  0  0
 13  1  1  0  0  0  0
 15 21  1  0  0  0  0
 16 26  1  0  0  0  0
 17 14  1  6  0  0  0
 17  5  1  0  0  0  0
 18 17  1  0  0  0  0
 19  2  1  1  0  0  0
 19 18  1  0  0  0  0
 20 12  1  0  0  0  0
 21  9  1  0  0  0  0
 23 24  1  0  0  0  0
 23 22  1  0  0  0  0
 24 22  1  0  0  0  0
 24  7  1  1  0  0  0
 26 25  2  0  0  0  0
M  END
>  <MODEL>
3

>  <REMARK>
 VINA RESULT:      -7.1      2.131      2.640
  Name = 
  2 active torsions:
  status: ('A' for Active; 'I' for Inactive)
    1  A    between atoms: C_9  and  C_17
    2  A    between atoms: C_19  and  C_23
                            x       y       z     vdW  Elec       q    Type
                         _______ _______ _______ _____ _____    ______ ____

>  <TORSDO>
F 2

$$$$
=
 OpenBabel11042417213D

 26 30  0  0  1  0  0  0  0  0999 V2000
  185.4300  177.7420  145.3650 C   0  0  0  0  0  0  0  0  0  0  0  0
  189.0700  176.3840  144.8610 C   0  0  0  0  0  0  0  0  0  0  0  0
  186.9470  178.6650  142.7970 C   0  0  1  0  0  3  0  0  0  0  0  0
  190.7320  176.4490  143.0510 C   0  0  0  0  0  3  0  0  0  0  0  0
  185.3680  177.5380  146.8410 C   0  0  0  0  0  2  0  0  0  0  0  0
  191.4740  176.3450  145.3330 C   0  0  0  0  0  3  0  0  0  0  0  0
  185.5050  178.6510  142.3620 C   0  0  0  0  0  0  0  0  0  0  0  0
  184.4490  178.5580  143.2110 C   0  0  0  0  0  3  0  0  0  0  0  0
  189.3960  176.4400  143.4570 C   0  0  0  0  0  0  0  0  0  0  0  0
  187.2700  178.4140  144.0140 N   0  0  0  0  0  2  0  0  0  0  0  0
  184.4340  178.3170  144.6860 C   0  0  0  0  0  3  0  0  0  0  0  0
  191.7640  176.4020  143.9770 C   0  0  0  0  0  0  0  0  0  0  0  0
  186.6110  177.2890  144.6180 C   0  0  1  0  0  3  0  0  0  0  0  0
  187.6140  178.2360  147.4100 O   0  0  0  0  0  1  0  0  0  0  0  0
  188.2400  178.2160  141.6380 S   0  0  0  0  0  0  0  0  0  0  0  0
  190.1500  176.3340  145.7920 C   0  0  0  0  0  0  0  0  0  0  0  0
  186.7470  177.1370  147.3840 C   0  0  2  0  0  3  0  0  0  0  0  0
  187.3170  176.0410  146.6850 O   0  0  0  0  0  0  0  0  0  0  0  0
  187.5990  176.3630  145.3270 C   0  0  2  0  0  3  0  0  0  0  0  0
  193.4280  176.4150  143.4380 Cl  0  0  0  0  0  0  0  0  0  0  0  0
  188.3790  176.5090  142.3380 C   0  0  0  0  0  2  0  0  0  0  0  0
  185.0080  177.4950  140.2350 C   0  0  0  0  0  2  0  0  0  0  0  0
  183.9140  178.2800  140.6290 O   0  0  0  0  0  0  0  0  0  0  0  0
  185.1920  178.8100  140.9000 C   0  0  1  0  0  3  0  0  0  0  0  0
  190.4580  175.3530  147.9480 O   0  0  0  0  0  0  0  0  0  0  0  0
  189.9410  176.2640  147.2460 C   0  0  0  0  0  3  0  0  0  0  0  0
  1  5  1  0  0  0  0
  2 16  1  0  0  0  0
  3 15  1  6  0  0  0
  3 10  1  0  0  0  0
  4  9  1  0  0  0  0
  4 12  2  0  0  0  0
  5 17  1  0  0  0  0
  6 16  2  0  0  0  0
  7  3  1  0  0  0  0
  7  8  2  0  0  0  0
  8 11  1  0  0  0  0
  9  2  2  0  0  0  0
 11  1  2  0  0  0  0
 12  6  1  0  0  0  0
 13 10  1  1  0  0  0
 13 19  1  0  0  0  0
 13  1  1  0  0  0  0
 15 21  1  0  0  0  0
 16 26  1  0  0  0  0
 17 14  1  6  0  0  0
 18 17  1  0  0  0  0
 19  2  1  1  0  0  0
 19 18  1  0  0  0  0
 20 12  1  0  0  0  0
 21  9  1  0  0  0  0
 22 23  1  0  0  0  0
 22 24  1  0  0  0  0
 23 24  1  0  0  0  0
 24  7  1  1  0  0  0
 26 25  2  0  0  0  0
M  END
>  <MODEL>
4

>  <REMARK>
 VINA RESULT:      -7.1      2.355      5.757
  Name = 
  2 active torsions:
  status: ('A' for Active; 'I' for Inactive)
    1  A    between atoms: C_9  and  C_17
    2  A    between atoms: C_19  and  C_23
                            x       y       z     vdW  Elec       q    Type
                         _______ _______ _______ _____ _____    ______ ____

>  <TORSDO>
F 2

$$$$
=
 OpenBabel11042417213D

 26 30  0  0  1  0  0  0  0  0999 V2000
  189.0010  175.2270  142.0960 C   0  0  0  0  0  0  0  0  0  0  0  0
  186.8660  177.0950  144.7980 C   0  0  0  0  0  0  0  0  0  0  0  0
  190.4460  176.0220  144.7460 C   0  0  1  0  0  3  0  0  0  0  0  0
  187.2070  177.7890  147.1320 C   0  0  0  0  0  3  0  0  0  0  0  0
  188.1410  175.5690  140.9250 C   0  0  0  0  0  2  0  0  0  0  0  0
  185.7500  179.0730  145.7180 C   0  0  0  0  0  3  0  0  0  0  0  0
  191.1600  174.7650  144.3260 C   0  0  0  0  0  0  0  0  0  0  0  0
  191.0480  174.1940  143.0980 C   0  0  0  0  0  3  0  0  0  0  0  0
  187.4780  176.9000  146.0890 C   0  0  0  0  0  0  0  0  0  0  0  0
  189.5380  176.5450  144.0030 N   0  0  0  0  0  2  0  0  0  0  0  0
  190.1440  174.5510  141.9630 C   0  0  0  0  0  3  0  0  0  0  0  0
  186.3510  178.8660  146.9520 C   0  0  0  0  0  0  0  0  0  0  0  0
  188.5820  175.6300  143.4450 C   0  0  1  0  0  3  0  0  0  0  0  0
  187.6210  177.8610  141.4980 O   0  0  0  0  0  1  0  0  0  0  0  0
  190.1920  176.3730  146.4870 S   0  0  0  0  0  0  0  0  0  0  0  0
  185.9880  178.2100  144.6410 C   0  0  0  0  0  0  0  0  0  0  0  0
  187.0670  176.5870  141.3290 C   0  0  2  0  0  3  0  0  0  0  0  0
  186.3290  176.1850  142.4740 O   0  0  0  0  0  0  0  0  0  0  0  0
  187.1460  176.1170  143.6380 C   0  0  2  0  0  3  0  0  0  0  0  0
  186.0320  179.9630  148.2770 Cl  0  0  0  0  0  0  0  0  0  0  0  0
  188.4390  175.7810  146.4270 C   0  0  0  0  0  2  0  0  0  0  0  0
  193.4600  173.9430  144.7030 C   0  0  0  0  0  2  0  0  0  0  0  0
  193.1710  174.9990  145.5800 O   0  0  0  0  0  0  0  0  0  0  0  0
  192.1090  174.1170  145.2950 C   0  0  1  0  0  3  0  0  0  0  0  0
  184.0480  178.3990  143.2600 O   0  0  0  0  0  0  0  0  0  0  0  0
  185.3000  178.5040  143.3760 C   0  0  0  0  0  3  0  0  0  0  0  0
  2  9  1  0  0  0  0
  3 10  1  6  0  0  0
  3 15  1  0  0  0  0
  5 17  1  0  0  0  0
  5  1  1  0  0  0  0
  6 12  2  0  0  0  0
  7  3  1  0  0  0  0
  8  7  2  0  0  0  0
  9 21  1  0  0  0  0
  9  4  2  0  0  0  0
 11  1  2  0  0  0  0
 11  8  1  0  0  0  0
 12  4  1  0  0  0  0
 12 20  1  0  0  0  0
 13  1  1  6  0  0  0
 13 19  1  0  0  0  0
 13 10  1  0  0  0  0
 16  2  2  0  0  0  0
 16  6  1  0  0  0  0
 17 14  1  1  0  0  0
 17 18  1  0  0  0  0
 19 18  1  6  0  0  0
 19  2  1  0  0  0  0
 21 15  1  0  0  0  0
 22 24  1  0  0  0  0
 22 23  1  0  0  0  0
 24  7  1  6  0  0  0
 24 23  1  0  0  0  0
 25 26  2  0  0  0  0
 26 16  1  0  0  0  0
M  END
>  <MODEL>
5

>  <REMARK>
 VINA RESULT:      -7.1      2.802      4.394
  Name = 
  2 active torsions:
  status: ('A' for Active; 'I' for Inactive)
    1  A    between atoms: C_9  and  C_17
    2  A    between atoms: C_19  and  C_23
                            x       y       z     vdW  Elec       q    Type
                         _______ _______ _______ _____ _____    ______ ____

>  <TORSDO>
F 2

$$$$
=
 OpenBabel11042417213D

 26 30  0  0  1  0  0  0  0  0999 V2000
  186.2830  178.7350  143.4350 C   0  0  0  0  0  0  0  0  0  0  0  0
  188.9930  175.9060  143.4340 C   0  0  0  0  0  0  0  0  0  0  0  0
  186.5420  177.0170  146.0280 C   0  0  1  0  0  3  0  0  0  0  0  0
  189.9300  174.3730  145.1130 C   0  0  0  0  0  3  0  0  0  0  0  0
  186.1470  178.8490  141.9530 C   0  0  0  0  0  2  0  0  0  0  0  0
  189.8460  173.6960  142.8100 C   0  0  0  0  0  3  0  0  0  0  0  0
  186.0950  178.3590  146.5450 C   0  0  0  0  0  0  0  0  0  0  0  0
  185.6060  179.3580  145.7630 C   0  0  0  0  0  3  0  0  0  0  0  0
  189.3480  175.6030  144.7990 C   0  0  0  0  0  0  0  0  0  0  0  0
  186.6470  176.7970  144.7680 N   0  0  0  0  0  2  0  0  0  0  0  0
  185.5220  179.4420  144.2740 C   0  0  0  0  0  3  0  0  0  0  0  0
  190.1770  173.4260  144.1300 C   0  0  0  0  0  0  0  0  0  0  0  0
  187.2910  177.8300  144.0030 C   0  0  1  0  0  3  0  0  0  0  0  0
  186.2550  176.5000  141.3850 O   0  0  0  0  0  1  0  0  0  0  0  0
  187.6710  176.0130  146.9950 S   0  0  0  0  0  0  0  0  0  0  0  0
  189.2620  174.9150  142.4430 C   0  0  0  0  0  0  0  0  0  0  0  0
  186.9230  177.7230  141.2560 C   0  0  2  0  0  3  0  0  0  0  0  0
  188.2710  177.6300  141.6950 O   0  0  0  0  0  0  0  0  0  0  0  0
  188.3600  177.2650  143.0690 C   0  0  2  0  0  3  0  0  0  0  0  0
  190.9060  171.8920  144.5540 Cl  0  0  0  0  0  0  0  0  0  0  0  0
  189.1250  176.5310  145.9730 C   0  0  0  0  0  2  0  0  0  0  0  0
  187.3870  179.2710  148.4430 C   0  0  0  0  0  2  0  0  0  0  0  0
  186.1970  179.9940  148.2730 O   0  0  0  0  0  0  0  0  0  0  0  0
  186.1260  178.6080  148.0270 C   0  0  1  0  0  3  0  0  0  0  0  0
  188.4620  174.1930  140.3110 O   0  0  0  0  0  0  0  0  0  0  0  0
  188.9530  175.1140  141.0190 C   0  0  0  0  0  3  0  0  0  0  0  0
  1 11  2  0  0  0  0
  2  9  1  0  0  0  0
  3 10  1  6  0  0  0
  3  7  1  0  0  0  0
  3 15  1  0  0  0  0
  5  1  1  0  0  0  0
  6 12  2  0  0  0  0
  8  7  2  0  0  0  0
  9  4  2  0  0  0  0
  9 21  1  0  0  0  0
 11  8  1  0  0  0  0
 12 20  1  0  0  0  0
 12  4  1  0  0  0  0
 13  1  1  6  0  0  0
 13 10  1  0  0  0  0
 16  6  1  0  0  0  0
 16  2  2  0  0  0  0
 17 14  1  1  0  0  0
 17 18  1  0  0  0  0
 17  5  1  0  0  0  0
 19 18  1  6  0  0  0
 19  2  1  0  0  0  0
 19 13  1  0  0  0  0
 21 15  1  0  0  0  0
 23 22  1  0  0  0  0
 24  7  1  6  0  0  0
 24 23  1  0  0  0  0
 24 22  1  0  0  0  0
 25 26  2  0  0  0  0
 26 16  1  0  0  0  0
M  END
>  <MODEL>
6

>  <REMARK>
 VINA RESULT:      -7.0      3.128      5.420
  Name = 
  2 active torsions:
  status: ('A' for Active; 'I' for Inactive)
    1  A    between atoms: C_9  and  C_17
    2  A    between atoms: C_19  and  C_23
                            x       y       z     vdW  Elec       q    Type
                         _______ _______ _______ _____ _____    ______ ____

>  <TORSDO>
F 2

$$$$
=
 OpenBabel11042417213D

 26 30  0  0  1  0  0  0  0  0999 V2000
  190.8850  175.0590  145.3060 C   0  0  0  0  0  0  0  0  0  0  0  0
  187.7800  177.3420  144.6040 C   0  0  0  0  0  0  0  0  0  0  0  0
  189.2870  174.5130  142.6810 C   0  0  1  0  0  3  0  0  0  0  0  0
  186.2440  177.6820  142.7160 C   0  0  0  0  0  3  0  0  0  0  0  0
  190.9360  175.2790  146.7810 C   0  0  0  0  0  2  0  0  0  0  0  0
  185.4600  178.0460  144.9570 C   0  0  0  0  0  3  0  0  0  0  0  0
  190.6950  174.1230  142.3170 C   0  0  0  0  0  0  0  0  0  0  0  0
  191.6990  173.9480  143.2160 C   0  0  0  0  0  3  0  0  0  0  0  0
  187.5120  177.3380  143.1870 C   0  0  0  0  0  0  0  0  0  0  0  0
  188.9920  174.8760  143.8770 N   0  0  0  0  0  2  0  0  0  0  0  0
  191.7150  174.2160  144.6860 C   0  0  0  0  0  3  0  0  0  0  0  0
  185.2250  178.0330  143.5890 C   0  0  0  0  0  0  0  0  0  0  0  0
  189.9060  175.7950  144.4970 C   0  0  1  0  0  3  0  0  0  0  0  0
  188.5630  175.2350  147.2490 O   0  0  0  0  0  1  0  0  0  0  0  0
  188.2170  175.2650  141.4530 S   0  0  0  0  0  0  0  0  0  0  0  0
  186.7150  177.7100  145.4800 C   0  0  0  0  0  0  0  0  0  0  0  0
  189.6970  176.0540  147.2500 C   0  0  2  0  0  3  0  0  0  0  0  0
  189.4800  177.2450  146.5070 O   0  0  0  0  0  0  0  0  0  0  0  0
  189.1790  176.9750  145.1420 C   0  0  2  0  0  3  0  0  0  0  0  0
  183.6450  178.4580  142.9690 Cl  0  0  0  0  0  0  0  0  0  0  0  0
  188.5190  176.9640  142.1210 C   0  0  0  0  0  2  0  0  0  0  0  0
  191.6160  172.4980  140.6990 C   0  0  0  0  0  2  0  0  0  0  0  0
  190.2610  172.7420  140.4250 O   0  0  0  0  0  0  0  0  0  0  0  0
  191.0160  173.8440  140.8750 C   0  0  1  0  0  3  0  0  0  0  0  0
  185.9800  177.3260  147.7200 O   0  0  0  0  0  0  0  0  0  0  0  0
  186.8720  177.7600  146.9410 C   0  0  0  0  0  3  0  0  0  0  0  0
  1  5  1  0  0  0  0
  2 16  1  0  0  0  0
  3 15  1  6  0  0  0
  3 10  1  0  0  0  0
  4  9  1  0  0  0  0
  4 12  2  0  0  0  0
  5 17  1  0  0  0  0
  6 16  2  0  0  0  0
  7  3  1  0  0  0  0
  7  8  2  0  0  0  0
  8 11  1  0  0  0  0
  9  2  2  0  0  0  0
 11  1  2  0  0  0  0
 12  6  1  0  0  0  0
 13 10  1  1  0  0  0
 13 19  1  0  0  0  0
 13  1  1  0  0  0  0
 15 21  1  0  0  0  0
 16 26  1  0  0  0  0
 17 14  1  6  0  0  0
 18 17  1  0  0  0  0
 19  2  1  1  0  0  0
 19 18  1  0  0  0  0
 20 12  1  0  0  0  0
 21  9  1  0  0  0  0
 22 24  1  0  0  0  0
 23 22  1  0  0  0  0
 23 24  1  0  0  0  0
 24  7  1  1  0  0  0
 26 25  2  0  0  0  0
M  END
>  <MODEL>
7

>  <REMARK>
 VINA RESULT:      -6.9      2.784      3.984
  Name = 
  2 active torsions:
  status: ('A' for Active; 'I' for Inactive)
    1  A    between atoms: C_9  and  C_17
    2  A    between atoms: C_19  and  C_23
                            x       y       z     vdW  Elec       q    Type
                         _______ _______ _______ _____ _____    ______ ____

>  <TORSDO>
F 2

$$$$
=
 OpenBabel11042417213D

 26 30  0  0  1  0  0  0  0  0999 V2000
  188.3680  176.6900  146.1890 C   0  0  0  0  0  0  0  0  0  0  0  0
  189.6490  174.3400  143.3270 C   0  0  0  0  0  0  0  0  0  0  0  0
  187.8960  177.6410  143.2530 C   0  0  1  0  0  3  0  0  0  0  0  0
  189.4310  174.2780  140.8790 C   0  0  0  0  0  3  0  0  0  0  0  0
  189.2600  176.1630  147.2620 C   0  0  0  0  0  2  0  0  0  0  0  0
  191.4000  173.3700  141.9150 C   0  0  0  0  0  3  0  0  0  0  0  0
  186.7270  178.2270  143.9990 C   0  0  0  0  0  0  0  0  0  0  0  0
  186.6370  178.2930  145.3540 C   0  0  0  0  0  3  0  0  0  0  0  0
  188.9050  174.6250  142.1250 C   0  0  0  0  0  0  0  0  0  0  0  0
  188.8220  177.0040  143.8740 N   0  0  0  0  0  2  0  0  0  0  0  0
  187.5400  177.7180  146.3950 C   0  0  0  0  0  3  0  0  0  0  0  0
  190.6670  173.6560  140.7720 C   0  0  0  0  0  0  0  0  0  0  0  0
  188.3790  176.0590  144.8620 C   0  0  1  0  0  3  0  0  0  0  0  0
  191.2850  175.8910  145.9670 O   0  0  0  0  0  1  0  0  0  0  0  0
  187.6930  177.0780  141.5620 S   0  0  0  0  0  0  0  0  0  0  0  0
  190.9150  173.6980  143.1880 C   0  0  0  0  0  0  0  0  0  0  0  0
  190.2950  175.1960  146.6710 C   0  0  2  0  0  3  0  0  0  0  0  0
  189.7060  174.1780  145.8750 O   0  0  0  0  0  0  0  0  0  0  0  0
  189.0770  174.7080  144.7120 C   0  0  2  0  0  3  0  0  0  0  0  0
  191.3010  173.2330  139.1960 Cl  0  0  0  0  0  0  0  0  0  0  0  0
  187.5550  175.3090  142.0880 C   0  0  0  0  0  2  0  0  0  0  0  0
  184.4410  177.9160  143.1120 C   0  0  0  0  0  2  0  0  0  0  0  0
  184.4650  178.9730  144.0340 O   0  0  0  0  0  0  0  0  0  0  0  0
  185.6010  178.8370  143.2110 C   0  0  1  0  0  3  0  0  0  0  0  0
  192.0510  172.1520  144.6110 O   0  0  0  0  0  0  0  0  0  0  0  0
  191.7580  173.3490  144.3410 C   0  0  0  0  0  3  0  0  0  0  0  0
  1 11  2  0  0  0  0
  1  5  1  0  0  0  0
  3 15  1  6  0  0  0
  3 10  1  0  0  0  0
  3  7  1  0  0  0  0
  4  9  1  0  0  0  0
  6 16  2  0  0  0  0
  7  8  2  0  0  0  0
  8 11  1  0  0  0  0
  9  2  2  0  0  0  0
 12  4  2  0  0  0  0
 12  6  1  0  0  0  0
 13 10  1  6  0  0  0
 13  1  1  0  0  0  0
 15 21  1  0  0  0  0
 16  2  1  0  0  0  0
 16 26  1  0  0  0  0
 17 14  1  6  0  0  0
 17  5  1  0  0  0  0
 18 17  1  0  0  0  0
 19  2  1  6  0  0  0
 19 13  1  0  0  0  0
 19 18  1  0  0  0  0
 20 12  1  0  0  0  0
 21  9  1  0  0  0  0
 22 24  1  0  0  0  0
 22 23  1  0  0  0  0
 24  7  1  1  0  0  0
 24 23  1  0  0  0  0
 26 25  2  0  0  0  0
M  END
>  <MODEL>
8

>  <REMARK>
 VINA RESULT:      -6.8      2.629      5.677
  Name = 
  2 active torsions:
  status: ('A' for Active; 'I' for Inactive)
    1  A    between atoms: C_9  and  C_17
    2  A    between atoms: C_19  and  C_23
                            x       y       z     vdW  Elec       q    Type
                         _______ _______ _______ _____ _____    ______ ____

>  <TORSDO>
F 2

$$$$
=
 OpenBabel11042417213D

 26 30  0  0  1  0  0  0  0  0999 V2000
  190.9180  176.6120  146.3890 C   0  0  0  0  0  0  0  0  0  0  0  0
  189.4290  175.5880  142.9130 C   0  0  0  0  0  0  0  0  0  0  0  0
  192.1610  174.1120  144.9940 C   0  0  1  0  0  3  0  0  0  0  0  0
  190.0190  173.9680  141.1610 C   0  0  0  0  0  3  0  0  0  0  0  0
  189.7360  177.3880  146.8660 C   0  0  0  0  0  2  0  0  0  0  0  0
  187.7180  174.5780  141.4800 C   0  0  0  0  0  3  0  0  0  0  0  0
  193.3160  174.6850  145.7720 C   0  0  0  0  0  0  0  0  0  0  0  0
  193.1950  175.6340  146.7370 C   0  0  0  0  0  3  0  0  0  0  0  0
  190.4150  174.8190  142.1950 C   0  0  0  0  0  0  0  0  0  0  0  0
  190.9860  174.6220  145.0860 N   0  0  0  0  0  2  0  0  0  0  0  0
  191.9920  176.4120  147.1580 C   0  0  0  0  0  3  0  0  0  0  0  0
  188.6840  173.8460  140.8040 C   0  0  0  0  0  0  0  0  0  0  0  0
  190.9210  176.0570  145.0300 C   0  0  1  0  0  3  0  0  0  0  0  0
  187.9810  175.9360  146.0490 O   0  0  0  0  0  1  0  0  0  0  0  0
  192.4460  173.3310  143.4050 S   0  0  0  0  0  0  0  0  0  0  0  0
  188.0640  175.4460  142.5240 C   0  0  0  0  0  0  0  0  0  0  0  0
  188.5530  177.2060  145.9040 C   0  0  2  0  0  3  0  0  0  0  0  0
  188.8970  177.4710  144.5520 O   0  0  0  0  0  0  0  0  0  0  0  0
  189.8510  176.5400  144.0520 C   0  0  2  0  0  3  0  0  0  0  0  0
  188.2180  172.7710  139.5040 Cl  0  0  0  0  0  0  0  0  0  0  0  0
  191.9010  174.8390  142.4820 C   0  0  0  0  0  2  0  0  0  0  0  0
  195.5270  175.0980  144.7480 C   0  0  0  0  0  2  0  0  0  0  0  0
  195.6520  174.9700  146.1400 O   0  0  0  0  0  0  0  0  0  0  0  0
  194.6950  174.1410  145.5200 C   0  0  1  0  0  3  0  0  0  0  0  0
  186.1400  176.8610  142.5130 O   0  0  0  0  0  0  0  0  0  0  0  0
  186.9730  176.1850  143.1760 C   0  0  0  0  0  3  0  0  0  0  0  0
  1  5  1  0  0  0  0
  1 11  2  0  0  0  0
  3 15  1  6  0  0  0
  3 10  1  0  0  0  0
  3  7  1  0  0  0  0
  4  9  1  0  0  0  0
  6 16  2  0  0  0  0
  7  8  2  0  0  0  0
  8 11  1  0  0  0  0
  9 21  1  0  0  0  0
  9  2  2  0  0  0  0
 12  4  2  0  0  0  0
 12  6  1  0  0  0  0
 13 10  1  1  0  0  0
 13  1  1  0  0  0  0
 16  2  1  0  0  0  0
 16 26  1  0  0  0  0
 17 14  1  6  0  0  0
 17  5  1  0  0  0  0
 18 17  1  0  0  0  0
 19  2  1  1  0  0  0
 19 18  1  0  0  0  0
 19 13  1  0  0  0  0
 20 12  1  0  0  0  0
 21 15  1  0  0  0  0
 22 24  1  0  0  0  0
 22 23  1  0  0  0  0
 24  7  1  1  0  0  0
 24 23  1  0  0  0  0
 25 26  2  0  0  0  0
M  END
>  <MODEL>
9

>  <REMARK>
 VINA RESULT:      -6.7      2.650      3.418
  Name = 
  2 active torsions:
  status: ('A' for Active; 'I' for Inactive)
    1  A    between atoms: C_9  and  C_17
    2  A    between atoms: C_19  and  C_23
                            x       y       z     vdW  Elec       q    Type
                         _______ _______ _______ _____ _____    ______ ____

>  <TORSDO>
F 2

$$$$
