=
 OpenBabel11042417473D

 25 28  0  0  1  0  0  0  0  0999 V2000
  189.0040  176.1550  146.6830 C   0  0  0  0  0  2  0  0  0  0  0  0
  189.7330  177.1150  144.7110 C   0  0  0  0  0  2  0  0  0  0  0  0
  188.6180  177.1010  145.6490 N   0  0  0  0  0  0  0  0  0  0  0  0
  191.0020  176.7860  145.4810 C   0  0  1  0  0  3  0  0  0  0  0  0
  190.5130  176.1570  146.7730 C   0  0  1  0  0  3  0  0  0  0  0  0
  190.9120  176.9490  147.8490 O   0  0  0  0  0  1  0  0  0  0  0  0
  191.0840  175.3910  143.5570 C   0  0  2  0  0  3  0  0  0  0  0  0
  191.9200  175.5110  142.3840 N   0  0  0  0  0  2  0  0  0  0  0  0
  192.8960  176.5040  142.7670 C   0  0  0  0  0  2  0  0  0  0  0  0
  192.9470  176.5670  144.2190 N   0  0  0  0  0  2  0  0  0  0  0  0
  191.8410  175.8530  144.7190 N   0  0  1  0  0  0  0  0  0  0  0  0
  190.5730  171.8690  144.4120 N   0  0  0  0  0  0  0  0  0  0  0  0
  188.4940  173.9590  142.4850 N   0  0  0  0  0  1  0  0  0  0  0  0
  189.4810  172.0800  143.6900 N   0  0  0  0  0  0  0  0  0  0  0  0
  190.6530  173.9690  143.7340 C   0  0  0  0  0  0  0  0  0  0  0  0
  189.5140  173.3540  143.2740 C   0  0  0  0  0  0  0  0  0  0  0  0
  191.3100  173.0010  144.4650 C   0  0  0  0  0  2  0  0  0  0  0  0
  187.4720  176.5250  144.9610 C   0  0  0  0  0  2  0  0  0  0  0  0
  183.9640  178.8980  145.6900 C   0  0  0  0  0  3  0  0  0  0  0  0
  185.4930  177.1440  146.3530 C   0  0  0  0  0  3  0  0  0  0  0  0
  184.7140  179.1150  144.5310 C   0  0  0  0  0  3  0  0  0  0  0  0
  186.2500  177.3560  145.1950 C   0  0  0  0  0  0  0  0  0  0  0  0
  186.7620  178.6500  142.8020 Cl  0  0  0  0  0  0  0  0  0  0  0  0
  184.3530  177.9120  146.6000 C   0  0  0  0  0  3  0  0  0  0  0  0
  185.8570  178.3490  144.2790 C   0  0  0  0  0  0  0  0  0  0  0  0
  1  5  1  0  0  0  0
  2  3  1  0  0  0  0
  3  1  1  0  0  0  0
  4  2  1  6  0  0  0
  4  5  1  0  0  0  0
  5  6  1  1  0  0  0
  7 15  1  1  0  0  0
  7 11  1  0  0  0  0
  8  9  1  0  0  0  0
  8  7  1  0  0  0  0
  9 10  1  0  0  0  0
 11 10  1  6  0  0  0
 11  4  1  0  0  0  0
 12 17  1  0  0  0  0
 13 16  1  0  0  0  0
 14 12  2  0  0  0  0
 15 17  1  0  0  0  0
 16 14  1  0  0  0  0
 16 15  2  0  0  0  0
 18 22  1  0  0  0  0
 18  3  1  0  0  0  0
 19 24  1  0  0  0  0
 20 24  2  0  0  0  0
 21 19  2  0  0  0  0
 22 20  1  0  0  0  0
 23 25  1  0  0  0  0
 25 21  1  0  0  0  0
 25 22  2  0  0  0  0
M  END
>  <MODEL>
1

>  <REMARK>
 VINA RESULT:      -6.9      0.000      0.000
  Name = 
  4 active torsions:
  status: ('A' for Active; 'I' for Inactive)
    1  A    between atoms: C_2  and  C_18
    2  A    between atoms: N_6  and  C_11
    3  A    between atoms: C_11  and  C_19
    4  A    between atoms: C_12  and  N_15
                            x       y       z     vdW  Elec       q    Type
                         _______ _______ _______ _____ _____    ______ ____

>  <TORSDO>
F 4

$$$$
=
 OpenBabel11042417473D

 25 28  0  0  1  0  0  0  0  0999 V2000
  189.4490  175.2860  144.1760 C   0  0  0  0  0  2  0  0  0  0  0  0
  189.7810  177.2840  145.2900 C   0  0  0  0  0  2  0  0  0  0  0  0
  190.4760  176.0990  144.8060 N   0  0  0  0  0  0  0  0  0  0  0  0
  188.5850  177.5320  144.3850 C   0  0  1  0  0  3  0  0  0  0  0  0
  188.3750  176.2160  143.6590 C   0  0  1  0  0  3  0  0  0  0  0  0
  188.5530  176.4140  142.2900 O   0  0  0  0  0  1  0  0  0  0  0  0
  186.3170  176.9800  144.8400 C   0  0  2  0  0  3  0  0  0  0  0  0
  185.7310  176.4840  146.0650 N   0  0  0  0  0  2  0  0  0  0  0  0
  186.7820  176.6690  147.0390 C   0  0  0  0  0  2  0  0  0  0  0  0
  187.7050  177.6750  146.5370 N   0  0  0  0  0  2  0  0  0  0  0  0
  187.4040  177.8960  145.1790 N   0  0  1  0  0  0  0  0  0  0  0  0
  183.9930  178.2700  142.3230 N   0  0  0  0  0  0  0  0  0  0  0  0
  184.1120  179.0300  145.7600 N   0  0  0  0  0  1  0  0  0  0  0  0
  183.5400  178.9130  143.3910 N   0  0  0  0  0  2  0  0  0  0  0  0
  185.2740  177.6730  144.0200 C   0  0  0  0  0  0  0  0  0  0  0  0
  184.3070  178.5570  144.4310 C   0  0  0  0  0  0  0  0  0  0  0  0
  185.0490  177.5000  142.6700 C   0  0  0  0  0  3  0  0  0  0  0  0
  190.9440  175.3580  145.9670 C   0  0  0  0  0  2  0  0  0  0  0  0
  195.2340  175.1010  145.9770 C   0  0  0  0  0  3  0  0  0  0  0  0
  193.1970  176.3050  146.4840 C   0  0  0  0  0  3  0  0  0  0  0  0
  194.4820  174.0500  145.4480 C   0  0  0  0  0  3  0  0  0  0  0  0
  192.4370  175.2540  145.9560 C   0  0  0  0  0  0  0  0  0  0  0  0
  192.1820  172.7770  144.7480 Cl  0  0  0  0  0  0  0  0  0  0  0  0
  194.5920  176.2300  146.4940 C   0  0  0  0  0  3  0  0  0  0  0  0
  193.0850  174.1200  145.4350 C   0  0  0  0  0  0  0  0  0  0  0  0
  1  3  1  0  0  0  0
  3  2  1  0  0  0  0
  3 18  1  0  0  0  0
  4 11  1  0  0  0  0
  4  2  1  1  0  0  0
  5  6  1  6  0  0  0
  5  1  1  0  0  0  0
  5  4  1  0  0  0  0
  7 15  1  1  0  0  0
  7 11  1  0  0  0  0
  7  8  1  0  0  0  0
  8  9  1  0  0  0  0
 10  9  1  0  0  0  0
 11 10  1  1  0  0  0
 12 17  2  0  0  0  0
 12 14  1  0  0  0  0
 14 16  1  0  0  0  0
 15 16  2  0  0  0  0
 16 13  1  0  0  0  0
 17 15  1  0  0  0  0
 19 24  1  0  0  0  0
 20 24  2  0  0  0  0
 21 19  2  0  0  0  0
 22 18  1  0  0  0  0
 22 20  1  0  0  0  0
 23 25  1  0  0  0  0
 25 21  1  0  0  0  0
 25 22  2  0  0  0  0
M  END
>  <MODEL>
2

>  <REMARK>
 VINA RESULT:      -6.9      3.398      7.156
  Name = 
  4 active torsions:
  status: ('A' for Active; 'I' for Inactive)
    1  A    between atoms: C_2  and  C_18
    2  A    between atoms: N_6  and  C_11
    3  A    between atoms: C_11  and  C_19
    4  A    between atoms: C_12  and  N_15
                            x       y       z     vdW  Elec       q    Type
                         _______ _______ _______ _____ _____    ______ ____

>  <TORSDO>
F 4

$$$$
=
 OpenBabel11042417473D

 25 28  0  0  1  0  0  0  0  0999 V2000
  189.2930  176.0230  145.6370 C   0  0  0  0  0  2  0  0  0  0  0  0
  189.5540  177.3780  143.7830 C   0  0  0  0  0  2  0  0  0  0  0  0
  188.6590  177.1020  144.8980 N   0  0  0  0  0  0  0  0  0  0  0  0
  190.9690  177.0240  144.2140 C   0  0  1  0  0  3  0  0  0  0  0  0
  190.7870  176.1350  145.4300 C   0  0  1  0  0  3  0  0  0  0  0  0
  191.3620  176.7520  146.5410 O   0  0  0  0  0  1  0  0  0  0  0  0
  192.6210  175.3790  143.7420 C   0  0  2  0  0  3  0  0  0  0  0  0
  192.4630  174.0890  143.1090 N   0  0  0  0  0  2  0  0  0  0  0  0
  191.1250  174.1410  142.5700 C   0  0  0  0  0  2  0  0  0  0  0  0
  190.7330  175.5360  142.4380 N   0  0  0  0  0  2  0  0  0  0  0  0
  191.6740  176.3150  143.1390 N   0  0  1  0  0  0  0  0  0  0  0  0
  195.9350  176.4910  142.6540 N   0  0  0  0  0  0  0  0  0  0  0  0
  194.6200  176.4610  145.9210 N   0  0  0  0  0  1  0  0  0  0  0  0
  196.0430  176.7200  143.9560 N   0  0  0  0  0  2  0  0  0  0  0  0
  194.0270  175.8630  143.5720 C   0  0  0  0  0  0  0  0  0  0  0  0
  194.8890  176.3460  144.5270 C   0  0  0  0  0  0  0  0  0  0  0  0
  194.7160  175.9720  142.3820 C   0  0  0  0  0  3  0  0  0  0  0  0
  187.4230  176.5650  144.3480 C   0  0  0  0  0  2  0  0  0  0  0  0
  184.0540  178.7750  145.8420 C   0  0  0  0  0  3  0  0  0  0  0  0
  185.6490  176.9690  146.0590 C   0  0  0  0  0  3  0  0  0  0  0  0
  184.6440  179.1520  144.6340 C   0  0  0  0  0  3  0  0  0  0  0  0
  186.2460  177.3420  144.8490 C   0  0  0  0  0  0  0  0  0  0  0  0
  186.4430  178.9470  142.6030 Cl  0  0  0  0  0  0  0  0  0  0  0  0
  184.5550  177.6820  146.5540 C   0  0  0  0  0  3  0  0  0  0  0  0
  185.7400  178.4420  144.1330 C   0  0  0  0  0  0  0  0  0  0  0  0
  2  3  1  0  0  0  0
  3  1  1  0  0  0  0
  4  2  1  6  0  0  0
  4  5  1  0  0  0  0
  5  1  1  0  0  0  0
  5  6  1  1  0  0  0
  7 15  1  6  0  0  0
  8  7  1  0  0  0  0
  9  8  1  0  0  0  0
 10  9  1  0  0  0  0
 11 10  1  1  0  0  0
 11  7  1  0  0  0  0
 11  4  1  0  0  0  0
 12 14  1  0  0  0  0
 14 16  1  0  0  0  0
 15 16  2  0  0  0  0
 16 13  1  0  0  0  0
 17 12  2  0  0  0  0
 17 15  1  0  0  0  0
 18 22  1  0  0  0  0
 18  3  1  0  0  0  0
 19 24  1  0  0  0  0
 20 24  2  0  0  0  0
 21 19  2  0  0  0  0
 22 20  1  0  0  0  0
 23 25  1  0  0  0  0
 25 21  1  0  0  0  0
 25 22  2  0  0  0  0
M  END
>  <MODEL>
3

>  <REMARK>
 VINA RESULT:      -6.9      1.560      3.393
  Name = 
  4 active torsions:
  status: ('A' for Active; 'I' for Inactive)
    1  A    between atoms: C_2  and  C_18
    2  A    between atoms: N_6  and  C_11
    3  A    between atoms: C_11  and  C_19
    4  A    between atoms: C_12  and  N_15
                            x       y       z     vdW  Elec       q    Type
                         _______ _______ _______ _____ _____    ______ ____

>  <TORSDO>
F 4

$$$$
=
 OpenBabel11042417473D

 25 28  0  0  1  0  0  0  0  0999 V2000
  190.6460  176.1750  146.5940 C   0  0  0  0  0  2  0  0  0  0  0  0
  189.4910  176.5440  144.6260 C   0  0  0  0  0  2  0  0  0  0  0  0
  190.7880  176.1340  145.1480 N   0  0  0  0  0  0  0  0  0  0  0  0
  188.4280  176.1450  145.6380 C   0  0  1  0  0  3  0  0  0  0  0  0
  189.1960  175.9060  146.9250 C   0  0  1  0  0  3  0  0  0  0  0  0
  189.0480  174.5720  147.3060 O   0  0  0  0  0  1  0  0  0  0  0  0
  186.1220  176.6950  145.4560 C   0  0  2  0  0  3  0  0  0  0  0  0
  185.1910  177.0630  146.4990 N   0  0  0  0  0  2  0  0  0  0  0  0
  186.0430  177.3010  147.6410 C   0  0  0  0  0  2  0  0  0  0  0  0
  187.3920  177.5660  147.1650 N   0  0  0  0  0  2  0  0  0  0  0  0
  187.4420  177.2200  145.8000 N   0  0  1  0  0  0  0  0  0  0  0  0
  184.7270  178.5430  142.6210 N   0  0  0  0  0  0  0  0  0  0  0  0
  186.7450  175.6580  142.5500 N   0  0  0  0  0  1  0  0  0  0  0  0
  185.3710  177.5870  141.9650 N   0  0  0  0  0  0  0  0  0  0  0  0
  185.6580  177.2410  144.1420 C   0  0  0  0  0  0  0  0  0  0  0  0
  185.9450  176.7900  142.8770 C   0  0  0  0  0  0  0  0  0  0  0  0
  184.8840  178.3670  143.9520 C   0  0  0  0  0  2  0  0  0  0  0  0
  191.7510  177.1660  144.7910 C   0  0  0  0  0  2  0  0  0  0  0  0
  195.3080  175.4070  143.1410 C   0  0  0  0  0  3  0  0  0  0  0  0
  193.0010  176.0980  142.9110 C   0  0  0  0  0  3  0  0  0  0  0  0
  195.3110  175.8540  144.4640 C   0  0  0  0  0  3  0  0  0  0  0  0
  192.9960  176.5490  144.2360 C   0  0  0  0  0  0  0  0  0  0  0  0
  194.2080  176.9650  146.6890 Cl  0  0  0  0  0  0  0  0  0  0  0  0
  194.1530  175.5270  142.3640 C   0  0  0  0  0  3  0  0  0  0  0  0
  194.1600  176.4270  145.0170 C   0  0  0  0  0  0  0  0  0  0  0  0
  1  5  1  0  0  0  0
  2  3  1  0  0  0  0
  3  1  1  0  0  0  0
  4  2  1  6  0  0  0
  4 11  1  0  0  0  0
  4  5  1  0  0  0  0
  5  6  1  6  0  0  0
  7 15  1  6  0  0  0
  7 11  1  0  0  0  0
  7  8  1  0  0  0  0
  8  9  1  0  0  0  0
 10  9  1  0  0  0  0
 11 10  1  1  0  0  0
 12 17  1  0  0  0  0
 13 16  1  0  0  0  0
 14 12  2  0  0  0  0
 14 16  1  0  0  0  0
 16 15  2  0  0  0  0
 17 15  1  0  0  0  0
 18  3  1  0  0  0  0
 19 21  1  0  0  0  0
 20 22  2  0  0  0  0
 21 25  2  0  0  0  0
 22 18  1  0  0  0  0
 22 25  1  0  0  0  0
 24 20  1  0  0  0  0
 24 19  2  0  0  0  0
 25 23  1  0  0  0  0
M  END
>  <MODEL>
4

>  <REMARK>
 VINA RESULT:      -6.8      2.840      6.919
  Name = 
  4 active torsions:
  status: ('A' for Active; 'I' for Inactive)
    1  A    between atoms: C_2  and  C_18
    2  A    between atoms: N_6  and  C_11
    3  A    between atoms: C_11  and  C_19
    4  A    between atoms: C_12  and  N_15
                            x       y       z     vdW  Elec       q    Type
                         _______ _______ _______ _____ _____    ______ ____

>  <TORSDO>
F 4

$$$$
=
 OpenBabel11042417473D

 25 28  0  0  1  0  0  0  0  0999 V2000
  189.3460  176.1040  146.8840 C   0  0  0  0  0  2  0  0  0  0  0  0
  190.0410  177.0720  144.9040 C   0  0  0  0  0  2  0  0  0  0  0  0
  188.9600  177.0800  145.8800 N   0  0  0  0  0  0  0  0  0  0  0  0
  191.3230  176.6840  145.6240 C   0  0  1  0  0  3  0  0  0  0  0  0
  190.8570  176.0500  146.9210 C   0  0  1  0  0  3  0  0  0  0  0  0
  191.3200  176.8080  147.9960 O   0  0  0  0  0  1  0  0  0  0  0  0
  191.3300  175.3990  143.6240 C   0  0  2  0  0  3  0  0  0  0  0  0
  192.1900  175.5220  142.4680 N   0  0  0  0  0  2  0  0  0  0  0  0
  193.2320  176.4150  142.9180 C   0  0  0  0  0  2  0  0  0  0  0  0
  193.2650  176.3910  144.3720 N   0  0  0  0  0  2  0  0  0  0  0  0
  192.1010  175.7350  144.8180 N   0  0  1  0  0  0  0  0  0  0  0  0
  190.5500  171.8790  144.2580 N   0  0  0  0  0  0  0  0  0  0  0  0
  188.6370  174.2390  142.4770 N   0  0  0  0  0  1  0  0  0  0  0  0
  189.4780  172.2190  143.5560 N   0  0  0  0  0  0  0  0  0  0  0  0
  190.7910  174.0060  143.7130 C   0  0  0  0  0  0  0  0  0  0  0  0
  189.6080  173.5100  143.2210 C   0  0  0  0  0  0  0  0  0  0  0  0
  191.3730  172.9460  144.3780 C   0  0  0  0  0  2  0  0  0  0  0  0
  187.7710  176.5580  145.2220 C   0  0  0  0  0  2  0  0  0  0  0  0
  184.8830  179.6770  144.5860 C   0  0  0  0  0  3  0  0  0  0  0  0
  186.6910  178.2860  143.7780 C   0  0  0  0  0  3  0  0  0  0  0  0
  184.9510  179.0430  145.8290 C   0  0  0  0  0  3  0  0  0  0  0  0
  186.7640  177.6470  145.0210 C   0  0  0  0  0  0  0  0  0  0  0  0
  185.9420  177.2690  147.6370 Cl  0  0  0  0  0  0  0  0  0  0  0  0
  185.7540  179.2990  143.5600 C   0  0  0  0  0  3  0  0  0  0  0  0
  185.8870  178.0290  146.0530 C   0  0  0  0  0  0  0  0  0  0  0  0
  1  5  1  0  0  0  0
  2  3  1  0  0  0  0
  3  1  1  0  0  0  0
  4  2  1  6  0  0  0
  4  5  1  0  0  0  0
  5  6  1  1  0  0  0
  7 15  1  1  0  0  0
  7 11  1  0  0  0  0
  8  9  1  0  0  0  0
  8  7  1  0  0  0  0
  9 10  1  0  0  0  0
 11 10  1  6  0  0  0
 11  4  1  0  0  0  0
 12 17  1  0  0  0  0
 13 16  1  0  0  0  0
 14 12  2  0  0  0  0
 15 17  1  0  0  0  0
 16 14  1  0  0  0  0
 16 15  2  0  0  0  0
 18  3  1  0  0  0  0
 19 21  1  0  0  0  0
 20 22  2  0  0  0  0
 21 25  2  0  0  0  0
 22 18  1  0  0  0  0
 22 25  1  0  0  0  0
 24 20  1  0  0  0  0
 24 19  2  0  0  0  0
 25 23  1  0  0  0  0
M  END
>  <MODEL>
5

>  <REMARK>
 VINA RESULT:      -6.7      1.163      1.528
  Name = 
  4 active torsions:
  status: ('A' for Active; 'I' for Inactive)
    1  A    between atoms: C_2  and  C_18
    2  A    between atoms: N_6  and  C_11
    3  A    between atoms: C_11  and  C_19
    4  A    between atoms: C_12  and  N_15
                            x       y       z     vdW  Elec       q    Type
                         _______ _______ _______ _____ _____    ______ ____

>  <TORSDO>
F 4

$$$$
=
 OpenBabel11042417473D

 25 28  0  0  1  0  0  0  0  0999 V2000
  189.0310  177.7190  144.8280 C   0  0  0  0  0  2  0  0  0  0  0  0
  188.9950  175.4380  144.4590 C   0  0  0  0  0  2  0  0  0  0  0  0
  188.1820  176.6410  144.3480 N   0  0  0  0  0  0  0  0  0  0  0  0
  190.4540  175.8380  144.3070 C   0  0  1  0  0  3  0  0  0  0  0  0
  190.4670  177.3350  144.5510 C   0  0  1  0  0  3  0  0  0  0  0  0
  190.9060  177.9850  143.3980 O   0  0  0  0  0  1  0  0  0  0  0  0
  192.3030  176.0570  145.7870 C   0  0  2  0  0  3  0  0  0  0  0  0
  192.3240  175.9880  147.2310 N   0  0  0  0  0  2  0  0  0  0  0  0
  191.0170  175.4710  147.5610 C   0  0  0  0  0  2  0  0  0  0  0  0
  190.4760  174.7970  146.3910 N   0  0  0  0  0  2  0  0  0  0  0  0
  191.2870  175.1320  145.2890 N   0  0  1  0  0  0  0  0  0  0  0  0
  195.2900  174.6410  144.2140 N   0  0  0  0  0  0  0  0  0  0  0  0
  194.9270  177.7960  145.7350 N   0  0  0  0  0  1  0  0  0  0  0  0
  195.7750  175.8170  144.5870 N   0  0  0  0  0  0  0  0  0  0  0  0
  193.6520  175.7100  145.2390 C   0  0  0  0  0  0  0  0  0  0  0  0
  194.7890  176.4800  145.2090 C   0  0  0  0  0  0  0  0  0  0  0  0
  193.9950  174.5420  144.5910 C   0  0  0  0  0  2  0  0  0  0  0  0
  187.0840  176.5190  145.2950 C   0  0  0  0  0  2  0  0  0  0  0  0
  183.7610  178.9330  144.0280 C   0  0  0  0  0  3  0  0  0  0  0  0
  185.5250  177.3520  143.5300 C   0  0  0  0  0  3  0  0  0  0  0  0
  184.1600  178.9570  145.3660 C   0  0  0  0  0  3  0  0  0  0  0  0
  185.9290  177.3710  144.8700 C   0  0  0  0  0  0  0  0  0  0  0  0
  185.7130  178.2520  147.4850 Cl  0  0  0  0  0  0  0  0  0  0  0  0
  184.4450  178.1310  143.1090 C   0  0  0  0  0  3  0  0  0  0  0  0
  185.2410  178.1790  145.7940 C   0  0  0  0  0  0  0  0  0  0  0  0
  3  2  1  0  0  0  0
  3  1  1  0  0  0  0
  3 18  1  0  0  0  0
  4  2  1  1  0  0  0
  4  5  1  0  0  0  0
  4 11  1  0  0  0  0
  5  6  1  6  0  0  0
  5  1  1  0  0  0  0
  7 15  1  6  0  0  0
  7  8  1  0  0  0  0
  8  9  1  0  0  0  0
 10  9  1  0  0  0  0
 11  7  1  0  0  0  0
 11 10  1  1  0  0  0
 12 14  2  0  0  0  0
 12 17  1  0  0  0  0
 14 16  1  0  0  0  0
 16 15  2  0  0  0  0
 16 13  1  0  0  0  0
 17 15  1  0  0  0  0
 19 21  1  0  0  0  0
 20 22  2  0  0  0  0
 21 25  2  0  0  0  0
 22 18  1  0  0  0  0
 22 25  1  0  0  0  0
 24 20  1  0  0  0  0
 24 19  2  0  0  0  0
 25 23  1  0  0  0  0
M  END
>  <MODEL>
6

>  <REMARK>
 VINA RESULT:      -6.7      2.382      3.906
  Name = 
  4 active torsions:
  status: ('A' for Active; 'I' for Inactive)
    1  A    between atoms: C_2  and  C_18
    2  A    between atoms: N_6  and  C_11
    3  A    between atoms: C_11  and  C_19
    4  A    between atoms: C_12  and  N_15
                            x       y       z     vdW  Elec       q    Type
                         _______ _______ _______ _____ _____    ______ ____

>  <TORSDO>
F 4

$$$$
=
 OpenBabel11042417473D

 25 28  0  0  1  0  0  0  0  0999 V2000
  188.2150  175.7970  142.9340 C   0  0  0  0  0  2  0  0  0  0  0  0
  189.6800  176.0930  144.6970 C   0  0  0  0  0  2  0  0  0  0  0  0
  188.2780  176.2170  144.3240 N   0  0  0  0  0  0  0  0  0  0  0  0
  190.2960  174.9870  143.8540 C   0  0  1  0  0  3  0  0  0  0  0  0
  189.3280  174.8010  142.7010 C   0  0  1  0  0  3  0  0  0  0  0  0
  188.8080  173.5070  142.7420 O   0  0  0  0  0  1  0  0  0  0  0  0
  192.6350  174.7130  144.1900 C   0  0  2  0  0  3  0  0  0  0  0  0
  193.6140  174.1120  143.3120 N   0  0  0  0  0  2  0  0  0  0  0  0
  192.9030  173.9700  142.0630 C   0  0  0  0  0  2  0  0  0  0  0  0
  191.7810  174.8960  142.0620 N   0  0  0  0  0  2  0  0  0  0  0  0
  191.6250  175.3850  143.3740 N   0  0  1  0  0  0  0  0  0  0  0  0
  194.6020  177.2950  145.8810 N   0  0  0  0  0  0  0  0  0  0  0  0
  192.0410  175.2880  147.2280 N   0  0  0  0  0  1  0  0  0  0  0  0
  193.8280  176.9150  146.8880 N   0  0  0  0  0  2  0  0  0  0  0  0
  193.3040  175.6830  145.1130 C   0  0  0  0  0  0  0  0  0  0  0  0
  193.0300  175.9370  146.4340 C   0  0  0  0  0  0  0  0  0  0  0  0
  194.3070  176.5690  144.7800 C   0  0  0  0  0  3  0  0  0  0  0  0
  187.9390  177.6320  144.3510 C   0  0  0  0  0  2  0  0  0  0  0  0
  184.4690  178.2810  146.8020 C   0  0  0  0  0  3  0  0  0  0  0  0
  186.6440  177.2770  146.4570 C   0  0  0  0  0  3  0  0  0  0  0  0
  184.5390  178.8690  145.5370 C   0  0  0  0  0  3  0  0  0  0  0  0
  186.7200  177.8630  145.1880 C   0  0  0  0  0  0  0  0  0  0  0  0
  185.6970  179.4150  143.1370 Cl  0  0  0  0  0  0  0  0  0  0  0  0
  185.5210  177.4840  147.2620 C   0  0  0  0  0  3  0  0  0  0  0  0
  185.6600  178.6650  144.7260 C   0  0  0  0  0  0  0  0  0  0  0  0
  1  3  1  0  0  0  0
  3 18  1  0  0  0  0
  3  2  1  0  0  0  0
  4  2  1  1  0  0  0
  5  6  1  1  0  0  0
  5  1  1  0  0  0  0
  5  4  1  0  0  0  0
  7 15  1  1  0  0  0
  8  7  1  0  0  0  0
  9  8  1  0  0  0  0
 10  9  1  0  0  0  0
 11 10  1  6  0  0  0
 11  4  1  0  0  0  0
 11  7  1  0  0  0  0
 12 14  1  0  0  0  0
 15 16  2  0  0  0  0
 16 14  1  0  0  0  0
 16 13  1  0  0  0  0
 17 15  1  0  0  0  0
 17 12  2  0  0  0  0
 18 22  1  0  0  0  0
 19 24  1  0  0  0  0
 20 24  2  0  0  0  0
 21 19  2  0  0  0  0
 22 20  1  0  0  0  0
 23 25  1  0  0  0  0
 25 22  2  0  0  0  0
 25 21  1  0  0  0  0
M  END
>  <MODEL>
7

>  <REMARK>
 VINA RESULT:      -6.7      2.237      3.603
  Name = 
  4 active torsions:
  status: ('A' for Active; 'I' for Inactive)
    1  A    between atoms: C_2  and  C_18
    2  A    between atoms: N_6  and  C_11
    3  A    between atoms: C_11  and  C_19
    4  A    between atoms: C_12  and  N_15
                            x       y       z     vdW  Elec       q    Type
                         _______ _______ _______ _____ _____    ______ ____

>  <TORSDO>
F 4

$$$$
=
 OpenBabel11042417473D

 25 28  0  0  1  0  0  0  0  0999 V2000
  188.3700  177.2070  142.2200 C   0  0  0  0  0  2  0  0  0  0  0  0
  188.0180  175.5640  143.8070 C   0  0  0  0  0  2  0  0  0  0  0  0
  187.5870  176.8950  143.4040 N   0  0  0  0  0  0  0  0  0  0  0  0
  188.4720  174.8180  142.5620 C   0  0  1  0  0  3  0  0  0  0  0  0
  188.7000  175.9040  141.5280 C   0  0  1  0  0  3  0  0  0  0  0  0
  187.8240  175.7130  140.4590 O   0  0  0  0  0  1  0  0  0  0  0  0
  190.1740  174.4100  144.1720 C   0  0  2  0  0  3  0  0  0  0  0  0
  190.4820  173.1870  144.8780 N   0  0  0  0  0  2  0  0  0  0  0  0
  189.7070  172.1900  144.1760 C   0  0  0  0  0  2  0  0  0  0  0  0
  189.3920  172.6980  142.8500 N   0  0  0  0  0  2  0  0  0  0  0  0
  189.7070  174.0710  142.8290 N   0  0  1  0  0  0  0  0  0  0  0  0
  193.2540  176.2350  143.4100 N   0  0  0  0  0  0  0  0  0  0  0  0
  191.0560  176.7230  146.1170 N   0  0  0  0  0  1  0  0  0  0  0  0
  192.8950  176.8650  144.5200 N   0  0  0  0  0  2  0  0  0  0  0  0
  191.3880  175.2820  144.1080 C   0  0  0  0  0  0  0  0  0  0  0  0
  191.7600  176.2990  144.9540 C   0  0  0  0  0  0  0  0  0  0  0  0
  192.3560  175.2650  143.1250 C   0  0  0  0  0  3  0  0  0  0  0  0
  188.0060  177.8260  144.4420 C   0  0  0  0  0  2  0  0  0  0  0  0
  184.9060  178.3540  147.3710 C   0  0  0  0  0  3  0  0  0  0  0  0
  187.0110  177.3750  146.6880 C   0  0  0  0  0  3  0  0  0  0  0  0
  184.8030  178.9960  146.1350 C   0  0  0  0  0  3  0  0  0  0  0  0
  186.9140  178.0160  145.4470 C   0  0  0  0  0  0  0  0  0  0  0  0
  185.6220  179.6500  143.6250 Cl  0  0  0  0  0  0  0  0  0  0  0  0
  186.0100  177.5430  147.6480 C   0  0  0  0  0  3  0  0  0  0  0  0
  185.8020  178.8320  145.1700 C   0  0  0  0  0  0  0  0  0  0  0  0
  1  3  1  0  0  0  0
  3  2  1  0  0  0  0
  3 18  1  0  0  0  0
  4 11  1  0  0  0  0
  4  2  1  1  0  0  0
  5  6  1  6  0  0  0
  5  1  1  0  0  0  0
  5  4  1  0  0  0  0
  7 15  1  6  0  0  0
  7  8  1  0  0  0  0
  9  8  1  0  0  0  0
 10  9  1  0  0  0  0
 11 10  1  1  0  0  0
 11  7  1  0  0  0  0
 12 14  1  0  0  0  0
 14 16  1  0  0  0  0
 15 16  2  0  0  0  0
 16 13  1  0  0  0  0
 17 12  2  0  0  0  0
 17 15  1  0  0  0  0
 18 22  1  0  0  0  0
 19 24  1  0  0  0  0
 20 24  2  0  0  0  0
 21 19  2  0  0  0  0
 22 20  1  0  0  0  0
 23 25  1  0  0  0  0
 25 22  2  0  0  0  0
 25 21  1  0  0  0  0
M  END
>  <MODEL>
8

>  <REMARK>
 VINA RESULT:      -6.7      2.238      3.866
  Name = 
  4 active torsions:
  status: ('A' for Active; 'I' for Inactive)
    1  A    between atoms: C_2  and  C_18
    2  A    between atoms: N_6  and  C_11
    3  A    between atoms: C_11  and  C_19
    4  A    between atoms: C_12  and  N_15
                            x       y       z     vdW  Elec       q    Type
                         _______ _______ _______ _____ _____    ______ ____

>  <TORSDO>
F 4

$$$$
=
 OpenBabel11042417473D

 25 28  0  0  1  0  0  0  0  0999 V2000
  189.4370  177.6860  144.8800 C   0  0  0  0  0  2  0  0  0  0  0  0
  189.2190  176.2000  143.1240 C   0  0  0  0  0  2  0  0  0  0  0  0
  188.4840  177.1860  143.9030 N   0  0  0  0  0  0  0  0  0  0  0  0
  190.6870  176.5970  143.1230 C   0  0  1  0  0  3  0  0  0  0  0  0
  190.8190  177.5720  144.2780 C   0  0  1  0  0  3  0  0  0  0  0  0
  191.2140  178.8160  143.7860 O   0  0  0  0  0  1  0  0  0  0  0  0
  192.3870  175.6500  144.4900 C   0  0  2  0  0  3  0  0  0  0  0  0
  192.3210  174.4870  145.3460 N   0  0  0  0  0  2  0  0  0  0  0  0
  191.0770  173.8610  144.9660 C   0  0  0  0  0  2  0  0  0  0  0  0
  190.7110  174.3260  143.6370 N   0  0  0  0  0  2  0  0  0  0  0  0
  191.5410  175.4190  143.3210 N   0  0  1  0  0  0  0  0  0  0  0  0
  195.6660  175.9650  142.8940 N   0  0  0  0  0  0  0  0  0  0  0  0
  194.6300  177.2650  145.9980 N   0  0  0  0  0  1  0  0  0  0  0  0
  195.8980  176.6460  144.0070 N   0  0  0  0  0  2  0  0  0  0  0  0
  193.8040  175.9030  144.0780 C   0  0  0  0  0  0  0  0  0  0  0  0
  194.7730  176.6200  144.7360 C   0  0  0  0  0  0  0  0  0  0  0  0
  194.3960  175.5000  142.9000 C   0  0  0  0  0  3  0  0  0  0  0  0
  187.4530  176.4780  144.6480 C   0  0  0  0  0  2  0  0  0  0  0  0
  183.9600  178.9490  145.0630 C   0  0  0  0  0  3  0  0  0  0  0  0
  185.6860  177.9580  143.6850 C   0  0  0  0  0  3  0  0  0  0  0  0
  184.5090  178.3360  146.1910 C   0  0  0  0  0  3  0  0  0  0  0  0
  186.2410  177.3410  144.8120 C   0  0  0  0  0  0  0  0  0  0  0  0
  186.3080  176.7900  147.5240 Cl  0  0  0  0  0  0  0  0  0  0  0  0
  184.5490  178.7610  143.8090 C   0  0  0  0  0  3  0  0  0  0  0  0
  185.6470  177.5310  146.0730 C   0  0  0  0  0  0  0  0  0  0  0  0
  2  3  1  0  0  0  0
  3 18  1  0  0  0  0
  3  1  1  0  0  0  0
  4  2  1  1  0  0  0
  4 11  1  0  0  0  0
  4  5  1  0  0  0  0
  5  6  1  6  0  0  0
  5  1  1  0  0  0  0
  7 15  1  6  0  0  0
  7  8  1  0  0  0  0
  9  8  1  0  0  0  0
 10  9  1  0  0  0  0
 11 10  1  1  0  0  0
 11  7  1  0  0  0  0
 12 17  2  0  0  0  0
 12 14  1  0  0  0  0
 14 16  1  0  0  0  0
 15 16  2  0  0  0  0
 16 13  1  0  0  0  0
 17 15  1  0  0  0  0
 18 22  1  0  0  0  0
 19 21  1  0  0  0  0
 20 24  1  0  0  0  0
 20 22  2  0  0  0  0
 22 25  1  0  0  0  0
 24 19  2  0  0  0  0
 25 21  2  0  0  0  0
 25 23  1  0  0  0  0
M  END
>  <MODEL>
9

>  <REMARK>
 VINA RESULT:      -6.7      2.088      3.887
  Name = 
  4 active torsions:
  status: ('A' for Active; 'I' for Inactive)
    1  A    between atoms: C_2  and  C_18
    2  A    between atoms: N_6  and  C_11
    3  A    between atoms: C_11  and  C_19
    4  A    between atoms: C_12  and  N_15
                            x       y       z     vdW  Elec       q    Type
                         _______ _______ _______ _____ _____    ______ ____

>  <TORSDO>
F 4

$$$$
