=
 OpenBabel11042414503D

 64 70  0  0  1  0  0  0  0  0999 V2000
  196.4430  175.1910  143.0930 C   0  0  1  0  0  3  0  0  0  0  0  0
  196.3490  177.0790  141.6180 O   0  0  0  0  0  1  0  0  0  0  0  0
  196.8700  175.9640  141.8860 C   0  0  0  0  0  0  0  0  0  0  0  0
  197.8760  175.4620  141.0720 O   0  0  0  0  0  0  0  0  0  0  0  0
  197.4910  174.1680  143.5290 C   0  0  0  0  0  2  0  0  0  0  0  0
  196.9680  173.2350  144.6120 C   0  0  0  0  0  2  0  0  0  0  0  0
  194.9460  172.3900  143.4310 N   0  0  0  0  0  0  0  0  0  0  0  0
  196.5390  170.8740  143.9320 N   0  0  0  0  0  2  0  0  0  0  0  0
  196.1430  172.1590  143.9990 C   0  0  0  0  0  0  0  0  0  0  0  0
  195.5360  170.2410  143.2960 C   0  0  0  0  0  3  0  0  0  0  0  0
  194.5640  171.1760  142.9970 C   0  0  0  0  0  0  0  0  0  0  0  0
  193.2930  170.9400  142.2830 C   0  0  0  0  0  0  0  0  0  0  0  0
  192.0640  170.9620  142.9860 N   0  0  0  0  0  2  0  0  0  0  0  0
  191.7680  170.5070  140.5010 C   0  0  2  0  0  3  0  0  0  0  0  0
  190.6790  170.5730  141.9670 S   0  0  0  0  0  0  0  0  0  0  0  0
  193.1760  170.6750  140.9850 C   0  0  0  0  0  0  0  0  0  0  0  0
  194.3060  170.5420  140.1150 N   0  0  0  0  0  2  0  0  0  0  0  0
  194.8190  173.9020  135.2090 C   0  0  0  0  0  2  0  0  0  0  0  0
  193.4200  174.0770  134.6070 C   0  0  0  0  0  2  0  0  0  0  0  0
  195.6410  171.1780  137.3320 C   0  0  0  0  0  2  0  0  0  0  0  0
  192.9270  175.6690  136.3220 C   0  0  0  0  0  2  0  0  0  0  0  0
  195.2770  174.0140  138.9160 C   0  0  0  0  0  2  0  0  0  0  0  0
  194.7600  173.3270  136.5490 N   0  0  1  0  0  0  0  0  0  0  0  0
  195.2070  171.6450  139.8090 C   0  0  1  0  0  3  0  0  0  0  0  0
  193.5040  175.1940  137.6480 C   0  0  0  0  0  2  0  0  0  0  0  0
  196.2160  171.2070  138.7420 C   0  0  0  0  0  2  0  0  0  0  0  0
  194.3940  172.8850  139.4300 C   0  0  0  0  0  2  0  0  0  0  0  0
  192.4250  174.5160  135.5830 N   0  0  0  0  0  2  0  0  0  0  0  0
  195.9540  172.4900  136.6280 C   0  0  0  0  0  2  0  0  0  0  0  0
  194.8450  174.4530  137.5090 C   0  0  1  0  0  3  0  0  0  0  0  0
  191.4290  171.6000  139.6050 N   0  0  0  0  0  2  0  0  0  0  0  0
  191.2140  171.0250  138.2890 C   0  0  0  0  0  2  0  0  0  0  0  0
  189.9640  171.9840  137.4090 P   0  0  0  0  0  2  0  0  0  0  0  0
  189.0740  172.9120  138.2060 O   0  0  0  0  0  1  0  0  0  0  0  0
  189.4430  171.6440  135.7080 C   0  0  0  0  0 15  0  0  0  0  0  0
  190.0000  170.4520  138.2400 O   0  0  0  0  0  0  0  0  0  0  0  0
  196.0980  176.0830  144.1930 N   0  0  0  0  0  2  0  0  0  0  0  0
  192.6780  175.7010  145.6990 N   0  0  0  0  0  2  0  0  0  0  0  0
  194.1000  175.6530  145.5730 C   0  0  0  0  0  0  0  0  0  0  0  0
  194.8160  175.2660  146.5360 O   0  0  0  0  0  0  0  0  0  0  0  0
  194.7050  176.0390  144.3390 N   0  0  0  0  0  2  0  0  0  0  0  0
  191.9740  175.2520  146.8920 C   0  0  0  0  0  2  0  0  0  0  0  0
  190.6810  175.9390  147.0000 N   0  0  0  0  0  2  0  0  0  0  0  0
  189.6070  175.0250  147.1460 N   0  0  0  0  0  0  0  0  0  0  0  0
  189.6390  174.0300  146.0780 C   0  0  0  0  0  1  0  0  0  0  0  0
  188.3340  175.7400  147.1050 C   0  0  0  0  0  2  0  0  0  0  0  0
  188.5110  177.0790  146.4090 C   0  0  0  0  0  2  0  0  0  0  0  0
  186.3220  177.3460  147.3630 O   0  0  0  0  0  0  0  0  0  0  0  0
  184.3960  178.2580  146.2740 C   0  0  0  0  0  2  0  0  0  0  0  0
  185.2060  178.5570  145.0070 C   0  0  1  0  0  3  0  0  0  0  0  0
  186.3710  176.4960  144.5400 O   0  0  0  0  0  0  0  0  0  0  0  0
  186.5550  177.8210  145.0020 C   0  0  2  0  0  3  0  0  0  0  0  0
  186.1820  176.4960  143.1680 N   0  0  2  0  0  0  0  0  0  0  0  0
  185.3020  178.3000  147.5010 C   0  0  0  0  0  2  0  0  0  0  0  0
  186.0510  178.5900  141.9320 C   0  0  0  0  0  2  0  0  0  0  0  0
  187.2030  177.8560  146.3930 C   0  0  2  0  0  3  0  0  0  0  0  0
  187.4330  176.6960  142.4230 C   0  0  1  0  0  3  0  0  0  0  0  0
  184.3800  178.1270  143.7970 C   0  0  2  0  0  3  0  0  0  0  0  0
  185.2420  177.5290  142.6740 C   0  0  2  0  0  3  0  0  0  0  0  0
  183.6080  179.1920  143.3280 O   0  0  0  0  0  1  0  0  0  0  0  0
  187.4950  178.1490  142.0070 C   0  0  0  0  0  2  0  0  0  0  0  0
  188.6900  176.2610  143.1700 C   0  0  1  0  0  3  0  0  0  0  0  0
  189.6180  175.6230  142.2260 N   0  0  0  0  0  2  0  0  0  0  0  0
  189.8430  177.0040  142.6740 C   0  0  0  0  0  2  0  0  0  0  0  0
  1  5  1  1  0  0  0
  1 37  1  0  0  0  0
  2  3  1  0  0  0  0
  3  1  1  0  0  0  0
  4  3  2  0  0  0  0
  5  6  1  0  0  0  0
  7  9  2  0  0  0  0
  8  9  1  0  0  0  0
  9  6  1  0  0  0  0
 10  8  1  0  0  0  0
 11 10  2  0  0  0  0
 11  7  1  0  0  0  0
 12 13  1  0  0  0  0
 12 11  1  0  0  0  0
 14 31  1  6  0  0  0
 14 16  1  0  0  0  0
 14 15  1  0  0  0  0
 15 13  1  0  0  0  0
 16 12  2  0  0  0  0
 17 16  1  0  0  0  0
 19 18  1  0  0  0  0
 19 28  1  0  0  0  0
 20 26  1  0  0  0  0
 21 25  1  0  0  0  0
 22 27  1  0  0  0  0
 23 18  1  6  0  0  0
 23 29  1  0  0  0  0
 23 30  1  0  0  0  0
 24 17  1  6  0  0  0
 26 24  1  0  0  0  0
 27 24  1  0  0  0  0
 28 21  1  0  0  0  0
 29 20  1  0  0  0  0
 30 25  1  1  0  0  0
 30 22  1  0  0  0  0
 32 31  1  0  0  0  0
 33 34  1  0  0  0  0
 33 36  1  0  0  0  0
 36 32  1  0  0  0  0
 37 41  1  0  0  0  0
 38 42  1  0  0  0  0
 39 38  1  0  0  0  0
 39 40  2  0  0  0  0
 41 39  1  0  0  0  0
 42 43  1  0  0  0  0
 43 44  1  0  0  0  0
 45 44  1  0  0  0  0
 46 44  1  0  0  0  0
 47 46  1  0  0  0  0
 48 54  1  0  0  0  0
 49 54  1  0  0  0  0
 50 49  1  1  0  0  0
 52 51  1  1  0  0  0
 52 50  1  0  0  0  0
 52 56  1  0  0  0  0
 53 51  1  1  0  0  0
 55 61  1  0  0  0  0
 56 47  1  6  0  0  0
 56 48  1  0  0  0  0
 57 61  1  1  0  0  0
 57 53  1  0  0  0  0
 57 62  1  0  0  0  0
 58 60  1  6  0  0  0
 58 50  1  0  0  0  0
 59 55  1  1  0  0  0
 59 53  1  0  0  0  0
 59 58  1  0  0  0  0
 62 64  1  6  0  0  0
 63 64  1  0  0  0  0
 63 62  1  0  0  0  0
M  END
>  <MODEL>
1

>  <REMARK>
 VINA RESULT:      -7.1      0.000      0.000
  Name = 
  18 active torsions:
  status: ('A' for Active; 'I' for Inactive)
    1  A    between atoms: C_1  and  C_41
    2  A    between atoms: C_1  and  C_47
    3  A    between atoms: C_2  and  C_53
    4  A    between atoms: C_5  and  C_64
    5  A    between atoms: C_8  and  N_28
    6  A    between atoms: C_9  and  N_23
    7  A    between atoms: C_9  and  N_42
    8  A    between atoms: C_22  and  C_39
    9  A    between atoms: C_22  and  N_40
   10  A    between atoms: C_22  and  C_47
   11  A    between atoms: N_28  and  C_38
   12  A    between atoms: C_29  and  N_33
   13  A    between atoms: N_33  and  C_61
   14  A    between atoms: N_34  and  N_40
   15  A    between atoms: N_42  and  N_44
   16  A    between atoms: C_43  and  N_44
   17  A    between atoms: C_43  and  C_60
   18  A    between atoms: C_51  and  C_60
                            x       y       z     vdW  Elec       q    Type
                         _______ _______ _______ _____ _____    ______ ____

>  <TORSDO>
F 18

$$$$
=
 OpenBabel11042414503D

 64 70  0  0  1  0  0  0  0  0999 V2000
  186.4300  178.3790  145.9980 C   0  0  1  0  0  3  0  0  0  0  0  0
  184.1870  179.1580  146.3320 O   0  0  0  0  0  0  0  0  0  0  0  0
  184.9850  178.1830  146.3270 C   0  0  0  0  0  0  0  0  0  0  0  0
  184.5110  176.9060  146.5950 O   0  0  0  0  0  1  0  0  0  0  0  0
  187.2790  177.1590  146.3540 C   0  0  0  0  0  2  0  0  0  0  0  0
  188.4410  177.5140  147.2700 C   0  0  0  0  0  2  0  0  0  0  0  0
  189.7750  176.1630  145.6600 N   0  0  0  0  0  0  0  0  0  0  0  0
  190.7580  176.6660  147.6270 N   0  0  0  0  0  2  0  0  0  0  0  0
  189.6590  176.7680  146.8560 C   0  0  0  0  0  0  0  0  0  0  0  0
  191.6250  175.9440  146.8920 C   0  0  0  0  0  3  0  0  0  0  0  0
  191.0120  175.6380  145.6930 C   0  0  0  0  0  0  0  0  0  0  0  0
  191.5940  174.8780  144.5670 C   0  0  0  0  0  0  0  0  0  0  0  0
  191.0980  173.5930  144.2410 N   0  0  0  0  0  2  0  0  0  0  0  0
  192.9800  174.3400  142.7020 C   0  0  2  0  0  3  0  0  0  0  0  0
  191.9820  172.8240  142.9240 S   0  0  0  0  0  0  0  0  0  0  0  0
  192.6000  175.2870  143.8000 C   0  0  0  0  0  0  0  0  0  0  0  0
  193.2820  176.5280  144.0110 N   0  0  0  0  0  2  0  0  0  0  0  0
  197.3380  172.2470  144.9330 C   0  0  0  0  0  2  0  0  0  0  0  0
  196.9520  171.0380  144.0750 C   0  0  0  0  0  2  0  0  0  0  0  0
  194.9660  174.6890  145.9390 C   0  0  0  0  0  2  0  0  0  0  0  0
  197.7870  172.1890  142.1530 C   0  0  0  0  0  2  0  0  0  0  0  0
  196.9630  175.7010  143.5570 C   0  0  0  0  0  2  0  0  0  0  0  0
  196.5650  173.4310  144.5730 N   0  0  1  0  0  0  0  0  0  0  0  0
  194.7120  176.6150  144.2750 C   0  0  1  0  0  3  0  0  0  0  0  0
  197.3980  173.6580  142.2220 C   0  0  0  0  0  2  0  0  0  0  0  0
  194.9970  176.1970  145.7210 C   0  0  0  0  0  2  0  0  0  0  0  0
  195.4800  175.8070  143.2260 C   0  0  0  0  0  2  0  0  0  0  0  0
  196.6910  171.3830  142.6790 N   0  0  0  0  0  2  0  0  0  0  0  0
  196.3790  174.1320  145.8400 C   0  0  0  0  0  2  0  0  0  0  0  0
  197.4020  174.2330  143.6490 C   0  0  1  0  0  3  0  0  0  0  0  0
  192.6630  174.9360  141.4150 N   0  0  0  0  0  2  0  0  0  0  0  0
  192.8200  173.8970  140.4120 C   0  0  0  0  0  2  0  0  0  0  0  0
  194.4540  174.0310  139.6580 P   0  0  0  0  0  2  0  0  0  0  0  0
  195.2250  175.3210  139.8290 O   0  0  0  0  0  1  0  0  0  0  0  0
  195.0820  172.8870  138.4010 C   0  0  0  0  0 15  0  0  0  0  0  0
  192.8290  174.4510  139.1880 O   0  0  0  0  0  0  0  0  0  0  0  0
  186.6060  178.7440  144.5980 N   0  0  0  0  0  2  0  0  0  0  0  0
  188.0680  176.3730  142.0770 N   0  0  0  0  0  2  0  0  0  0  0  0
  187.1840  177.3310  142.6610 C   0  0  0  0  0  0  0  0  0  0  0  0
  186.2170  177.7970  141.9990 O   0  0  0  0  0  0  0  0  0  0  0  0
  187.3990  177.7500  144.0080 N   0  0  0  0  0  2  0  0  0  0  0  0
  187.8770  175.8320  140.7390 C   0  0  0  0  0  2  0  0  0  0  0  0
  188.7140  174.6400  140.5540 N   0  0  0  0  0  2  0  0  0  0  0  0
  187.9610  173.4440  140.6590 N   0  0  0  0  0  0  0  0  0  0  0  0
  188.3610  172.6930  141.8450 C   0  0  0  0  0  1  0  0  0  0  0  0
  188.1650  172.6200  139.4710 C   0  0  0  0  0  2  0  0  0  0  0  0
  189.6380  172.6010  139.0980 C   0  0  0  0  0  2  0  0  0  0  0  0
  191.0210  170.8900  140.0640 O   0  0  0  0  0  0  0  0  0  0  0  0
  192.0600  169.0740  138.9020 C   0  0  0  0  0  2  0  0  0  0  0  0
  191.4140  169.5000  137.5790 C   0  0  1  0  0  3  0  0  0  0  0  0
  191.8830  171.8620  137.4160 O   0  0  0  0  0  0  0  0  0  0  0  0
  190.8470  170.9270  137.6510 C   0  0  2  0  0  3  0  0  0  0  0  0
  192.2040  171.8840  136.0700 N   0  0  2  0  0  0  0  0  0  0  0  0
  191.1820  169.4960  140.0760 C   0  0  0  0  0  2  0  0  0  0  0  0
  191.1430  170.3410  134.5140 C   0  0  0  0  0  2  0  0  0  0  0  0
  190.1510  171.1710  138.9970 C   0  0  2  0  0  3  0  0  0  0  0  0
  191.2160  172.6150  135.2630 C   0  0  1  0  0  3  0  0  0  0  0  0
  192.4740  169.4220  136.4820 C   0  0  2  0  0  3  0  0  0  0  0  0
  192.3360  170.5480  135.4440 C   0  0  2  0  0  3  0  0  0  0  0  0
  192.4520  168.1660  135.8700 O   0  0  0  0  0  1  0  0  0  0  0  0
  190.3060  171.5960  134.6150 C   0  0  0  0  0  2  0  0  0  0  0  0
  190.4330  173.6750  136.0310 C   0  0  1  0  0  3  0  0  0  0  0  0
  190.8930  175.0090  135.6220 N   0  0  0  0  0  2  0  0  0  0  0  0
  189.6300  174.4650  135.1050 C   0  0  0  0  0  2  0  0  0  0  0  0
  1  3  1  0  0  0  0
  1  5  1  6  0  0  0
  3  2  2  0  0  0  0
  3  4  1  0  0  0  0
  5  6  1  0  0  0  0
  7 11  1  0  0  0  0
  7  9  2  0  0  0  0
  9  6  1  0  0  0  0
  9  8  1  0  0  0  0
 10  8  1  0  0  0  0
 11 10  2  0  0  0  0
 12 11  1  0  0  0  0
 13 12  1  0  0  0  0
 14 31  1  6  0  0  0
 14 15  1  0  0  0  0
 14 16  1  0  0  0  0
 15 13  1  0  0  0  0
 16 17  1  0  0  0  0
 16 12  2  0  0  0  0
 19 18  1  0  0  0  0
 21 25  1  0  0  0  0
 21 28  1  0  0  0  0
 22 30  1  0  0  0  0
 23 18  1  1  0  0  0
 23 29  1  0  0  0  0
 24 17  1  6  0  0  0
 24 26  1  0  0  0  0
 26 20  1  0  0  0  0
 27 22  1  0  0  0  0
 27 24  1  0  0  0  0
 28 19  1  0  0  0  0
 29 20  1  0  0  0  0
 30 25  1  6  0  0  0
 30 23  1  0  0  0  0
 32 31  1  0  0  0  0
 33 34  1  0  0  0  0
 36 33  1  0  0  0  0
 36 32  1  0  0  0  0
 37  1  1  0  0  0  0
 38 39  1  0  0  0  0
 39 41  1  0  0  0  0
 40 39  2  0  0  0  0
 41 37  1  0  0  0  0
 42 38  1  0  0  0  0
 43 44  1  0  0  0  0
 43 42  1  0  0  0  0
 44 45  1  0  0  0  0
 46 44  1  0  0  0  0
 47 46  1  0  0  0  0
 48 54  1  0  0  0  0
 49 54  1  0  0  0  0
 50 52  1  0  0  0  0
 50 49  1  1  0  0  0
 52 51  1  1  0  0  0
 52 56  1  0  0  0  0
 53 51  1  1  0  0  0
 55 61  1  0  0  0  0
 56 47  1  6  0  0  0
 56 48  1  0  0  0  0
 57 61  1  1  0  0  0
 57 62  1  0  0  0  0
 57 53  1  0  0  0  0
 58 60  1  6  0  0  0
 58 50  1  0  0  0  0
 59 55  1  1  0  0  0
 59 53  1  0  0  0  0
 59 58  1  0  0  0  0
 62 64  1  6  0  0  0
 63 62  1  0  0  0  0
 64 63  1  0  0  0  0
M  END
>  <MODEL>
2

>  <REMARK>
 VINA RESULT:      -6.7      2.349      9.040
  Name = 
  18 active torsions:
  status: ('A' for Active; 'I' for Inactive)
    1  A    between atoms: C_1  and  C_41
    2  A    between atoms: C_1  and  C_47
    3  A    between atoms: C_2  and  C_53
    4  A    between atoms: C_5  and  C_64
    5  A    between atoms: C_8  and  N_28
    6  A    between atoms: C_9  and  N_23
    7  A    between atoms: C_9  and  N_42
    8  A    between atoms: C_22  and  C_39
    9  A    between atoms: C_22  and  N_40
   10  A    between atoms: C_22  and  C_47
   11  A    between atoms: N_28  and  C_38
   12  A    between atoms: C_29  and  N_33
   13  A    between atoms: N_33  and  C_61
   14  A    between atoms: N_34  and  N_40
   15  A    between atoms: N_42  and  N_44
   16  A    between atoms: C_43  and  N_44
   17  A    between atoms: C_43  and  C_60
   18  A    between atoms: C_51  and  C_60
                            x       y       z     vdW  Elec       q    Type
                         _______ _______ _______ _____ _____    ______ ____

>  <TORSDO>
F 18

$$$$
=
 OpenBabel11042414503D

 64 70  0  0  1  0  0  0  0  0999 V2000
  196.3950  174.1950  138.1180 C   0  0  1  0  0  3  0  0  0  0  0  0
  196.4480  173.9430  135.7350 O   0  0  0  0  0  0  0  0  0  0  0  0
  196.5930  174.7060  136.7270 C   0  0  0  0  0  0  0  0  0  0  0  0
  196.9070  176.0430  136.5270 O   0  0  0  0  0  1  0  0  0  0  0  0
  197.5740  173.3530  138.6030 C   0  0  0  0  0  2  0  0  0  0  0  0
  197.3060  171.8600  138.4750 C   0  0  0  0  0  2  0  0  0  0  0  0
  196.4540  171.7970  140.8130 N   0  0  0  0  0  0  0  0  0  0  0  0
  197.7650  170.0810  140.1600 N   0  0  0  0  0  2  0  0  0  0  0  0
  197.1850  171.2490  139.8250 C   0  0  0  0  0  0  0  0  0  0  0  0
  197.3980  169.8730  141.4390 C   0  0  0  0  0  3  0  0  0  0  0  0
  196.6000  170.9300  141.8300 C   0  0  0  0  0  0  0  0  0  0  0  0
  195.9520  171.1150  143.1450 C   0  0  0  0  0  0  0  0  0  0  0  0
  196.7360  171.3270  144.3040 N   0  0  0  0  0  2  0  0  0  0  0  0
  194.2400  171.3310  144.7910 C   0  0  2  0  0  3  0  0  0  0  0  0
  195.7750  171.4380  145.7770 S   0  0  0  0  0  0  0  0  0  0  0  0
  194.6420  171.0820  143.3690 C   0  0  0  0  0  0  0  0  0  0  0  0
  193.6840  170.8120  142.3390 N   0  0  0  0  0  2  0  0  0  0  0  0
  190.1560  168.9880  137.8830 C   0  0  0  0  0  2  0  0  0  0  0  0
  190.0970  170.1080  136.8380 C   0  0  0  0  0  2  0  0  0  0  0  0
  190.9690  169.6110  141.2820 C   0  0  0  0  0  2  0  0  0  0  0  0
  192.2860  169.4830  136.1050 C   0  0  0  0  0  2  0  0  0  0  0  0
  193.3870  168.2060  139.5900 C   0  0  0  0  0  2  0  0  0  0  0  0
  191.2020  169.2310  138.8720 N   0  0  1  0  0  0  0  0  0  0  0  0
  193.4750  169.4860  141.7740 C   0  0  1  0  0  3  0  0  0  0  0  0
  193.1550  169.1440  137.3080 C   0  0  0  0  0  2  0  0  0  0  0  0
  192.0710  168.9880  142.1290 C   0  0  0  0  0  2  0  0  0  0  0  0
  193.7690  169.5120  140.2720 C   0  0  0  0  0  2  0  0  0  0  0  0
  191.4170  170.6020  136.4490 N   0  0  0  0  0  2  0  0  0  0  0  0
  190.6470  168.6930  140.1120 C   0  0  0  0  0  2  0  0  0  0  0  0
  192.3890  168.4520  138.4490 C   0  0  1  0  0  3  0  0  0  0  0  0
  193.5270  172.5950  144.8800 N   0  0  0  0  0  2  0  0  0  0  0  0
  194.4660  173.5820  145.3810 C   0  0  0  0  0  2  0  0  0  0  0  0
  193.6300  175.1720  145.5550 P   0  0  0  0  0  2  0  0  0  0  0  0
  192.3140  175.3790  144.8390 O   0  0  0  0  0  1  0  0  0  0  0  0
  194.4240  176.6630  146.2110 C   0  0  0  0  0 15  0  0  0  0  0  0
  194.7450  174.4710  144.4130 O   0  0  0  0  0  0  0  0  0  0  0  0
  196.1210  175.2870  139.0450 N   0  0  0  0  0  2  0  0  0  0  0  0
  192.9640  173.9940  140.6190 N   0  0  0  0  0  2  0  0  0  0  0  0
  193.8420  174.5600  139.6450 C   0  0  0  0  0  0  0  0  0  0  0  0
  193.4180  174.8490  138.4920 O   0  0  0  0  0  0  0  0  0  0  0  0
  195.2050  174.8060  139.9900 N   0  0  0  0  0  2  0  0  0  0  0  0
  191.5440  173.7830  140.3780 C   0  0  0  0  0  2  0  0  0  0  0  0
  190.8920  173.3060  141.6040 N   0  0  0  0  0  2  0  0  0  0  0  0
  189.4980  173.5640  141.5960 N   0  0  0  0  0  0  0  0  0  0  0  0
  188.9050  173.1130  140.3400 C   0  0  0  0  0  1  0  0  0  0  0  0
  189.2540  174.9940  141.7610 C   0  0  0  0  0  2  0  0  0  0  0  0
  188.5250  175.2490  143.0700 C   0  0  0  0  0  2  0  0  0  0  0  0
  187.3710  176.8530  141.7040 O   0  0  0  0  0  0  0  0  0  0  0  0
  185.5790  178.2830  142.3920 C   0  0  0  0  0  2  0  0  0  0  0  0
  185.5700  177.6610  143.7920 C   0  0  1  0  0  3  0  0  0  0  0  0
  187.8820  177.7000  144.4810 O   0  0  0  0  0  0  0  0  0  0  0  0
  186.8400  176.8390  144.0640 C   0  0  2  0  0  3  0  0  0  0  0  0
  187.6680  178.1030  145.7880 N   0  0  2  0  0  0  0  0  0  0  0  0
  186.0720  177.2650  141.3670 C   0  0  0  0  0  2  0  0  0  0  0  0
  185.6440  177.4490  146.9740 C   0  0  0  0  0  2  0  0  0  0  0  0
  187.2350  176.0200  142.8270 C   0  0  2  0  0  3  0  0  0  0  0  0
  187.9980  177.0550  146.7660 C   0  0  1  0  0  3  0  0  0  0  0  0
  185.4580  178.7890  144.8160 C   0  0  2  0  0  3  0  0  0  0  0  0
  186.2780  178.5180  146.0870 C   0  0  2  0  0  3  0  0  0  0  0  0
  184.1180  179.0390  145.1230 O   0  0  0  0  0  1  0  0  0  0  0  0
  186.7050  176.3920  147.1850 C   0  0  0  0  0  2  0  0  0  0  0  0
  189.0290  176.0410  146.2810 C   0  0  1  0  0  3  0  0  0  0  0  0
  189.9970  175.7820  147.3560 N   0  0  0  0  0  2  0  0  0  0  0  0
  188.9270  174.8170  147.0670 C   0  0  0  0  0  2  0  0  0  0  0  0
  1  5  1  1  0  0  0
  1 37  1  0  0  0  0
  2  3  2  0  0  0  0
  3  1  1  0  0  0  0
  4  3  1  0  0  0  0
  6  5  1  0  0  0  0
  6  9  1  0  0  0  0
  7 11  1  0  0  0  0
  8 10  1  0  0  0  0
  9  8  1  0  0  0  0
  9  7  2  0  0  0  0
 10 11  2  0  0  0  0
 11 12  1  0  0  0  0
 12 16  2  0  0  0  0
 12 13  1  0  0  0  0
 13 15  1  0  0  0  0
 14 31  1  6  0  0  0
 14 15  1  0  0  0  0
 16 14  1  0  0  0  0
 17 16  1  0  0  0  0
 19 18  1  0  0  0  0
 20 26  1  0  0  0  0
 21 28  1  0  0  0  0
 21 25  1  0  0  0  0
 22 27  1  0  0  0  0
 23 18  1  6  0  0  0
 23 29  1  0  0  0  0
 24 26  1  0  0  0  0
 24 17  1  6  0  0  0
 27 24  1  0  0  0  0
 28 19  1  0  0  0  0
 29 20  1  0  0  0  0
 30 25  1  6  0  0  0
 30 23  1  0  0  0  0
 30 22  1  0  0  0  0
 31 32  1  0  0  0  0
 34 33  1  0  0  0  0
 36 32  1  0  0  0  0
 36 33  1  0  0  0  0
 37 41  1  0  0  0  0
 39 41  1  0  0  0  0
 39 38  1  0  0  0  0
 40 39  2  0  0  0  0
 42 38  1  0  0  0  0
 42 43  1  0  0  0  0
 44 43  1  0  0  0  0
 44 46  1  0  0  0  0
 45 44  1  0  0  0  0
 46 47  1  0  0  0  0
 48 56  1  0  0  0  0
 50 49  1  6  0  0  0
 50 52  1  0  0  0  0
 50 58  1  0  0  0  0
 52 51  1  6  0  0  0
 53 51  1  6  0  0  0
 53 59  1  0  0  0  0
 53 57  1  0  0  0  0
 54 48  1  0  0  0  0
 54 49  1  0  0  0  0
 55 61  1  0  0  0  0
 56 47  1  1  0  0  0
 56 52  1  0  0  0  0
 57 61  1  6  0  0  0
 58 60  1  1  0  0  0
 58 59  1  0  0  0  0
 59 55  1  6  0  0  0
 62 57  1  0  0  0  0
 62 64  1  1  0  0  0
 62 63  1  0  0  0  0
 64 63  1  0  0  0  0
M  END
>  <MODEL>
3

>  <REMARK>
 VINA RESULT:      -6.7      2.840      5.510
  Name = 
  18 active torsions:
  status: ('A' for Active; 'I' for Inactive)
    1  A    between atoms: C_1  and  C_41
    2  A    between atoms: C_1  and  C_47
    3  A    between atoms: C_2  and  C_53
    4  A    between atoms: C_5  and  C_64
    5  A    between atoms: C_8  and  N_28
    6  A    between atoms: C_9  and  N_23
    7  A    between atoms: C_9  and  N_42
    8  A    between atoms: C_22  and  C_39
    9  A    between atoms: C_22  and  N_40
   10  A    between atoms: C_22  and  C_47
   11  A    between atoms: N_28  and  C_38
   12  A    between atoms: C_29  and  N_33
   13  A    between atoms: N_33  and  C_61
   14  A    between atoms: N_34  and  N_40
   15  A    between atoms: N_42  and  N_44
   16  A    between atoms: C_43  and  N_44
   17  A    between atoms: C_43  and  C_60
   18  A    between atoms: C_51  and  C_60
                            x       y       z     vdW  Elec       q    Type
                         _______ _______ _______ _____ _____    ______ ____

>  <TORSDO>
F 18

$$$$
=
 OpenBabel11042414503D

 64 70  0  0  1  0  0  0  0  0999 V2000
  192.6970  175.5570  135.0510 C   0  0  1  0  0  3  0  0  0  0  0  0
  192.3820  177.9330  135.1090 O   0  0  0  0  0  1  0  0  0  0  0  0
  191.8750  176.7980  134.9070 C   0  0  0  0  0  0  0  0  0  0  0  0
  190.5480  176.6980  134.5130 O   0  0  0  0  0  0  0  0  0  0  0  0
  193.6100  175.6020  136.2740 C   0  0  0  0  0  2  0  0  0  0  0  0
  194.7880  174.6460  136.1490 C   0  0  0  0  0  2  0  0  0  0  0  0
  195.2130  174.9630  138.5810 N   0  0  0  0  0  0  0  0  0  0  0  0
  197.0200  174.6930  137.2580 N   0  0  0  0  0  2  0  0  0  0  0  0
  195.6790  174.7800  137.3320 C   0  0  0  0  0  0  0  0  0  0  0  0
  197.4420  174.8430  138.5280 C   0  0  0  0  0  3  0  0  0  0  0  0
  196.3290  175.0110  139.3290 C   0  0  0  0  0  0  0  0  0  0  0  0
  196.3080  175.1890  140.7950 C   0  0  0  0  0  0  0  0  0  0  0  0
  197.2090  176.0870  141.4180 N   0  0  0  0  0  2  0  0  0  0  0  0
  195.6620  174.9340  143.0770 C   0  0  2  0  0  3  0  0  0  0  0  0
  197.0770  176.0870  143.1760 S   0  0  0  0  0  0  0  0  0  0  0  0
  195.5050  174.5470  141.6380 C   0  0  0  0  0  0  0  0  0  0  0  0
  194.5700  173.5490  141.2110 N   0  0  0  0  0  2  0  0  0  0  0  0
  190.8740  168.9700  140.2120 C   0  0  0  0  0  2  0  0  0  0  0  0
  190.2590  169.1540  138.8210 C   0  0  0  0  0  2  0  0  0  0  0  0
  192.1770  171.6920  142.0820 C   0  0  0  0  0  2  0  0  0  0  0  0
  192.3210  168.4240  137.8570 C   0  0  0  0  0  2  0  0  0  0  0  0
  194.4800  169.7760  140.7720 C   0  0  0  0  0  2  0  0  0  0  0  0
  191.9870  169.8880  140.4330 N   0  0  1  0  0  0  0  0  0  0  0  0
  194.6510  172.1550  141.6250 C   0  0  1  0  0  3  0  0  0  0  0  0
  193.4900  169.0160  138.6300 C   0  0  0  0  0  2  0  0  0  0  0  0
  193.5710  171.8640  142.6720 C   0  0  0  0  0  2  0  0  0  0  0  0
  194.5920  171.2470  140.3940 C   0  0  0  0  0  2  0  0  0  0  0  0
  191.2530  169.4140  137.7810 N   0  0  0  0  0  2  0  0  0  0  0  0
  191.9000  170.2130  141.8540 C   0  0  0  0  0  2  0  0  0  0  0  0
  193.2320  169.1390  140.1420 C   0  0  1  0  0  3  0  0  0  0  0  0
  194.4610  175.6140  143.5310 N   0  0  0  0  0  2  0  0  0  0  0  0
  194.5440  175.7110  144.9780 C   0  0  0  0  0  2  0  0  0  0  0  0
  192.9590  176.2660  145.6360 P   0  0  0  0  0  2  0  0  0  0  0  0
  191.9680  176.9070  144.6890 O   0  0  0  0  0  1  0  0  0  0  0  0
  192.6120  176.4600  147.4040 C   0  0  0  0  0 15  0  0  0  0  0  0
  194.5120  177.0030  145.3460 O   0  0  0  0  0  0  0  0  0  0  0  0
  191.8530  174.3680  135.0760 N   0  0  0  0  0  2  0  0  0  0  0  0
  189.9000  173.9790  138.2610 N   0  0  0  0  0  2  0  0  0  0  0  0
  190.8360  173.6970  137.2190 C   0  0  0  0  0  0  0  0  0  0  0  0
  191.5920  172.6910  137.2940 O   0  0  0  0  0  0  0  0  0  0  0  0
  190.8990  174.5600  136.0850 N   0  0  0  0  0  2  0  0  0  0  0  0
  189.7130  173.1090  139.4140 C   0  0  0  0  0  2  0  0  0  0  0  0
  189.8140  173.8900  140.6540 N   0  0  0  0  0  2  0  0  0  0  0  0
  188.5380  174.2190  141.1760 N   0  0  0  0  0  0  0  0  0  0  0  0
  188.0160  175.4180  140.5270 C   0  0  0  0  0  1  0  0  0  0  0  0
  188.6310  174.4490  142.6150 C   0  0  0  0  0  2  0  0  0  0  0  0
  188.3120  175.9000  142.9320 C   0  0  0  0  0  2  0  0  0  0  0  0
  188.7140  174.9920  145.1200 O   0  0  0  0  0  0  0  0  0  0  0  0
  188.1160  175.9930  147.2090 C   0  0  0  0  0  2  0  0  0  0  0  0
  187.5660  177.2360  146.5010 C   0  0  1  0  0  3  0  0  0  0  0  0
  186.1220  176.3560  144.7790 O   0  0  0  0  0  0  0  0  0  0  0  0
  187.3650  176.9970  144.9960 C   0  0  2  0  0  3  0  0  0  0  0  0
  185.0880  177.2630  144.9380 N   0  0  2  0  0  0  0  0  0  0  0  0
  189.2240  175.3580  146.3750 C   0  0  0  0  0  2  0  0  0  0  0  0
  185.5390  179.5470  145.6510 C   0  0  0  0  0  2  0  0  0  0  0  0
  188.5330  176.1910  144.4100 C   0  0  2  0  0  3  0  0  0  0  0  0
  184.9450  178.1660  143.7860 C   0  0  1  0  0  3  0  0  0  0  0  0
  186.2320  177.6050  147.1460 C   0  0  2  0  0  3  0  0  0  0  0  0
  185.2090  178.1350  146.1290 C   0  0  2  0  0  3  0  0  0  0  0  0
  186.4280  178.5170  148.1870 O   0  0  0  0  0  1  0  0  0  0  0  0
  185.6100  179.4760  144.1430 C   0  0  0  0  0  2  0  0  0  0  0  0
  185.4670  177.5990  142.4700 C   0  0  1  0  0  3  0  0  0  0  0  0
  184.3970  177.6470  141.4640 N   0  0  0  0  0  2  0  0  0  0  0  0
  185.4780  178.6420  141.4520 C   0  0  0  0  0  2  0  0  0  0  0  0
  1 37  1  0  0  0  0
  1  5  1  1  0  0  0
  3  1  1  0  0  0  0
  3  2  1  0  0  0  0
  4  3  2  0  0  0  0
  6  5  1  0  0  0  0
  6  9  1  0  0  0  0
  7 11  1  0  0  0  0
  8  9  1  0  0  0  0
  8 10  1  0  0  0  0
  9  7  2  0  0  0  0
 10 11  2  0  0  0  0
 11 12  1  0  0  0  0
 12 13  1  0  0  0  0
 12 16  2  0  0  0  0
 13 15  1  0  0  0  0
 14 15  1  0  0  0  0
 14 31  1  6  0  0  0
 16 14  1  0  0  0  0
 17 16  1  0  0  0  0
 19 18  1  0  0  0  0
 20 26  1  0  0  0  0
 21 25  1  0  0  0  0
 23 18  1  1  0  0  0
 23 29  1  0  0  0  0
 24 17  1  6  0  0  0
 24 26  1  0  0  0  0
 27 22  1  0  0  0  0
 27 24  1  0  0  0  0
 28 21  1  0  0  0  0
 28 19  1  0  0  0  0
 29 20  1  0  0  0  0
 30 25  1  6  0  0  0
 30 23  1  0  0  0  0
 30 22  1  0  0  0  0
 31 32  1  0  0  0  0
 32 36  1  0  0  0  0
 34 33  1  0  0  0  0
 36 33  1  0  0  0  0
 37 41  1  0  0  0  0
 38 42  1  0  0  0  0
 39 40  2  0  0  0  0
 39 38  1  0  0  0  0
 41 39  1  0  0  0  0
 42 43  1  0  0  0  0
 43 44  1  0  0  0  0
 44 46  1  0  0  0  0
 45 44  1  0  0  0  0
 46 47  1  0  0  0  0
 48 54  1  0  0  0  0
 50 58  1  0  0  0  0
 50 49  1  1  0  0  0
 52 51  1  1  0  0  0
 52 50  1  0  0  0  0
 53 51  1  6  0  0  0
 53 59  1  0  0  0  0
 54 49  1  0  0  0  0
 56 47  1  6  0  0  0
 56 52  1  0  0  0  0
 56 48  1  0  0  0  0
 57 61  1  1  0  0  0
 57 53  1  0  0  0  0
 58 60  1  1  0  0  0
 59 55  1  6  0  0  0
 59 58  1  0  0  0  0
 61 55  1  0  0  0  0
 62 64  1  6  0  0  0
 62 57  1  0  0  0  0
 63 62  1  0  0  0  0
 64 63  1  0  0  0  0
M  END
>  <MODEL>
4

>  <REMARK>
 VINA RESULT:      -6.6      2.771      6.653
  Name = 
  18 active torsions:
  status: ('A' for Active; 'I' for Inactive)
    1  A    between atoms: C_1  and  C_41
    2  A    between atoms: C_1  and  C_47
    3  A    between atoms: C_2  and  C_53
    4  A    between atoms: C_5  and  C_64
    5  A    between atoms: C_8  and  N_28
    6  A    between atoms: C_9  and  N_23
    7  A    between atoms: C_9  and  N_42
    8  A    between atoms: C_22  and  C_39
    9  A    between atoms: C_22  and  N_40
   10  A    between atoms: C_22  and  C_47
   11  A    between atoms: N_28  and  C_38
   12  A    between atoms: C_29  and  N_33
   13  A    between atoms: N_33  and  C_61
   14  A    between atoms: N_34  and  N_40
   15  A    between atoms: N_42  and  N_44
   16  A    between atoms: C_43  and  N_44
   17  A    between atoms: C_43  and  C_60
   18  A    between atoms: C_51  and  C_60
                            x       y       z     vdW  Elec       q    Type
                         _______ _______ _______ _____ _____    ______ ____

>  <TORSDO>
F 18

$$$$
=
 OpenBabel11042414503D

 64 70  0  0  1  0  0  0  0  0999 V2000
  192.8970  174.8300  145.3710 C   0  0  1  0  0  3  0  0  0  0  0  0
  194.2000  176.7910  144.9190 O   0  0  0  0  0  0  0  0  0  0  0  0
  194.1000  175.7020  145.5430 C   0  0  0  0  0  0  0  0  0  0  0  0
  195.0990  175.3220  146.4290 O   0  0  0  0  0  1  0  0  0  0  0  0
  193.1450  173.6840  144.3910 C   0  0  0  0  0  2  0  0  0  0  0  0
  192.2280  172.4970  144.6500 C   0  0  0  0  0  2  0  0  0  0  0  0
  191.6530  171.6450  142.3830 N   0  0  0  0  0  0  0  0  0  0  0  0
  193.1520  170.4490  143.5700 N   0  0  0  0  0  2  0  0  0  0  0  0
  192.3370  171.5190  143.5350 C   0  0  0  0  0  0  0  0  0  0  0  0
  192.9740  169.8440  142.3810 C   0  0  0  0  0  3  0  0  0  0  0  0
  192.0530  170.5820  141.6630 C   0  0  0  0  0  0  0  0  0  0  0  0
  191.5660  170.3070  140.2950 C   0  0  0  0  0  0  0  0  0  0  0  0
  190.8540  169.1160  140.0170 N   0  0  0  0  0  2  0  0  0  0  0  0
  191.1300  170.6000  137.9690 C   0  0  2  0  0  3  0  0  0  0  0  0
  190.4380  168.9420  138.3120 S   0  0  0  0  0  0  0  0  0  0  0  0
  191.7540  171.0920  139.2390 C   0  0  0  0  0  0  0  0  0  0  0  0
  192.5090  172.3080  139.3000 N   0  0  0  0  0  2  0  0  0  0  0  0
  196.8910  176.0310  140.8990 C   0  0  0  0  0  2  0  0  0  0  0  0
  196.7380  176.3280  142.3940 C   0  0  0  0  0  2  0  0  0  0  0  0
  194.1680  174.9570  138.8920 C   0  0  0  0  0  2  0  0  0  0  0  0
  197.6430  174.1670  142.8730 C   0  0  0  0  0  2  0  0  0  0  0  0
  196.2860  172.5740  139.6150 C   0  0  0  0  0  2  0  0  0  0  0  0
  196.0350  174.9270  140.4790 N   0  0  1  0  0  0  0  0  0  0  0  0
  193.8830  172.4160  138.8300 C   0  0  1  0  0  3  0  0  0  0  0  0
  197.0870  173.1460  141.8900 C   0  0  0  0  0  2  0  0  0  0  0  0
  194.0540  173.7090  138.0260 C   0  0  0  0  0  2  0  0  0  0  0  0
  194.8450  172.2810  140.0120 C   0  0  0  0  0  2  0  0  0  0  0  0
  196.5930  175.1220  143.2080 N   0  0  0  0  0  2  0  0  0  0  0  0
  195.6360  175.2850  139.1200 C   0  0  0  0  0  2  0  0  0  0  0  0
  196.8740  173.7050  140.4730 C   0  0  1  0  0  3  0  0  0  0  0  0
  190.0530  171.4940  137.5780 N   0  0  0  0  0  2  0  0  0  0  0  0
  190.5300  172.2720  136.4490 C   0  0  0  0  0  2  0  0  0  0  0  0
  189.7980  173.9210  136.5030 P   0  0  0  0  0  2  0  0  0  0  0  0
  188.5810  174.1430  137.3730 O   0  0  0  0  0  1  0  0  0  0  0  0
  190.1770  175.2330  135.3120 C   0  0  0  0  0 15  0  0  0  0  0  0
  189.5240  172.4680  135.5800 O   0  0  0  0  0  0  0  0  0  0  0  0
  192.4270  174.3230  146.6540 N   0  0  0  0  0  2  0  0  0  0  0  0
  189.2470  176.1110  147.5530 N   0  0  0  0  0  2  0  0  0  0  0  0
  190.1270  175.1670  146.9410 C   0  0  0  0  0  0  0  0  0  0  0  0
  189.6720  174.2550  146.1990 O   0  0  0  0  0  0  0  0  0  0  0  0
  191.5320  175.2720  147.1690 N   0  0  0  0  0  2  0  0  0  0  0  0
  187.8110  176.1260  147.3120 C   0  0  0  0  0  2  0  0  0  0  0  0
  187.3080  177.5050  147.3590 N   0  0  0  0  0  2  0  0  0  0  0  0
  185.8920  177.5520  147.3390 N   0  0  0  0  0  0  0  0  0  0  0  0
  185.3560  176.4150  146.5970 C   0  0  0  0  0  1  0  0  0  0  0  0
  185.4420  178.7940  146.7160 C   0  0  0  0  0  2  0  0  0  0  0  0
  186.2440  179.0620  145.4540 C   0  0  0  0  0  2  0  0  0  0  0  0
  184.0510  178.6640  144.5550 O   0  0  0  0  0  0  0  0  0  0  0  0
  183.5000  178.2900  142.2570 C   0  0  0  0  0  2  0  0  0  0  0  0
  184.9590  178.4920  141.8340 C   0  0  1  0  0  3  0  0  0  0  0  0
  186.2190  177.0820  143.3340 O   0  0  0  0  0  0  0  0  0  0  0  0
  185.9180  178.4320  143.0340 C   0  0  2  0  0  3  0  0  0  0  0  0
  187.1020  176.5750  142.3960 N   0  0  2  0  0  0  0  0  0  0  0  0
  183.2030  179.0900  143.5210 C   0  0  0  0  0  2  0  0  0  0  0  0
  187.7920  177.9190  140.4860 C   0  0  0  0  0  2  0  0  0  0  0  0
  185.3260  179.1680  144.2440 C   0  0  2  0  0  3  0  0  0  0  0  0
  188.4810  177.0410  142.6060 C   0  0  1  0  0  3  0  0  0  0  0  0
  185.3230  177.4010  140.8290 C   0  0  2  0  0  3  0  0  0  0  0  0
  186.7690  176.9050  140.9910 C   0  0  2  0  0  3  0  0  0  0  0  0
  185.0810  177.8370  139.5240 O   0  0  0  0  0  1  0  0  0  0  0  0
  188.7370  178.1750  141.6390 C   0  0  0  0  0  2  0  0  0  0  0  0
  188.8030  177.4330  144.0440 C   0  0  1  0  0  3  0  0  0  0  0  0
  190.1450  176.9440  144.3910 N   0  0  0  0  0  2  0  0  0  0  0  0
  189.9290  178.3600  144.0640 C   0  0  0  0  0  2  0  0  0  0  0  0
  1  5  1  6  0  0  0
  1  3  1  0  0  0  0
  1 37  1  0  0  0  0
  2  3  2  0  0  0  0
  3  4  1  0  0  0  0
  5  6  1  0  0  0  0
  7  9  2  0  0  0  0
  9  8  1  0  0  0  0
  9  6  1  0  0  0  0
 10  8  1  0  0  0  0
 11 10  2  0  0  0  0
 11  7  1  0  0  0  0
 12 11  1  0  0  0  0
 13 12  1  0  0  0  0
 14 31  1  1  0  0  0
 14 15  1  0  0  0  0
 14 16  1  0  0  0  0
 15 13  1  0  0  0  0
 16 17  1  0  0  0  0
 16 12  2  0  0  0  0
 18 19  1  0  0  0  0
 19 28  1  0  0  0  0
 20 29  1  0  0  0  0
 21 28  1  0  0  0  0
 22 27  1  0  0  0  0
 23 29  1  6  0  0  0
 23 18  1  0  0  0  0
 24 17  1  1  0  0  0
 24 27  1  0  0  0  0
 25 21  1  0  0  0  0
 26 24  1  0  0  0  0
 26 20  1  0  0  0  0
 30 22  1  6  0  0  0
 30 23  1  0  0  0  0
 30 25  1  0  0  0  0
 32 31  1  0  0  0  0
 33 34  1  0  0  0  0
 36 32  1  0  0  0  0
 36 33  1  0  0  0  0
 37 41  1  0  0  0  0
 39 41  1  0  0  0  0
 39 38  1  0  0  0  0
 40 39  2  0  0  0  0
 42 43  1  0  0  0  0
 42 38  1  0  0  0  0
 44 43  1  0  0  0  0
 45 44  1  0  0  0  0
 46 44  1  0  0  0  0
 47 46  1  0  0  0  0
 49 54  1  0  0  0  0
 50 49  1  1  0  0  0
 50 52  1  0  0  0  0
 52 51  1  1  0  0  0
 52 56  1  0  0  0  0
 53 57  1  0  0  0  0
 53 51  1  1  0  0  0
 54 48  1  0  0  0  0
 55 61  1  0  0  0  0
 56 48  1  0  0  0  0
 56 47  1  1  0  0  0
 57 61  1  6  0  0  0
 57 62  1  0  0  0  0
 58 60  1  6  0  0  0
 58 59  1  0  0  0  0
 58 50  1  0  0  0  0
 59 55  1  1  0  0  0
 59 53  1  0  0  0  0
 62 64  1  6  0  0  0
 62 63  1  0  0  0  0
 64 63  1  0  0  0  0
M  END
>  <MODEL>
5

>  <REMARK>
 VINA RESULT:      -6.3      2.136      3.979
  Name = 
  18 active torsions:
  status: ('A' for Active; 'I' for Inactive)
    1  A    between atoms: C_1  and  C_41
    2  A    between atoms: C_1  and  C_47
    3  A    between atoms: C_2  and  C_53
    4  A    between atoms: C_5  and  C_64
    5  A    between atoms: C_8  and  N_28
    6  A    between atoms: C_9  and  N_23
    7  A    between atoms: C_9  and  N_42
    8  A    between atoms: C_22  and  C_39
    9  A    between atoms: C_22  and  N_40
   10  A    between atoms: C_22  and  C_47
   11  A    between atoms: N_28  and  C_38
   12  A    between atoms: C_29  and  N_33
   13  A    between atoms: N_33  and  C_61
   14  A    between atoms: N_34  and  N_40
   15  A    between atoms: N_42  and  N_44
   16  A    between atoms: C_43  and  N_44
   17  A    between atoms: C_43  and  C_60
   18  A    between atoms: C_51  and  C_60
                            x       y       z     vdW  Elec       q    Type
                         _______ _______ _______ _____ _____    ______ ____

>  <TORSDO>
F 18

$$$$
=
 OpenBabel11042414503D

 64 70  0  0  1  0  0  0  0  0999 V2000
  186.4430  177.3750  143.8050 C   0  0  1  0  0  3  0  0  0  0  0  0
  184.7460  178.9180  144.5040 O   0  0  0  0  0  1  0  0  0  0  0  0
  185.6880  178.6630  143.7080 C   0  0  0  0  0  0  0  0  0  0  0  0
  186.0530  179.5990  142.7500 O   0  0  0  0  0  0  0  0  0  0  0  0
  187.8040  177.4450  143.1140 C   0  0  0  0  0  2  0  0  0  0  0  0
  187.7290  177.0270  141.6530 C   0  0  0  0  0  2  0  0  0  0  0  0
  188.5520  175.0200  140.4310 N   0  0  0  0  0  0  0  0  0  0  0  0
  187.7480  174.6860  142.5120 N   0  0  0  0  0  2  0  0  0  0  0  0
  187.9990  175.5700  141.5270 C   0  0  0  0  0  0  0  0  0  0  0  0
  188.1480  173.5000  142.0160 C   0  0  0  0  0  3  0  0  0  0  0  0
  188.6350  173.7150  140.7410 C   0  0  0  0  0  0  0  0  0  0  0  0
  189.2030  172.7040  139.8250 C   0  0  0  0  0  0  0  0  0  0  0  0
  188.4720  172.2790  138.6900 N   0  0  0  0  0  2  0  0  0  0  0  0
  190.7380  171.1410  138.8840 C   0  0  2  0  0  3  0  0  0  0  0  0
  189.2880  171.0110  137.7780 S   0  0  0  0  0  0  0  0  0  0  0  0
  190.3810  172.1060  139.9730 C   0  0  0  0  0  0  0  0  0  0  0  0
  191.2400  172.3490  141.0930 N   0  0  0  0  0  2  0  0  0  0  0  0
  194.8990  168.3600  143.6080 C   0  0  0  0  0  2  0  0  0  0  0  0
  196.3380  168.7490  143.2540 C   0  0  0  0  0  2  0  0  0  0  0  0
  192.1240  169.3730  141.6390 C   0  0  0  0  0  2  0  0  0  0  0  0
  196.2200  170.4980  144.8810 C   0  0  0  0  0  2  0  0  0  0  0  0
  192.4070  171.0130  144.4530 C   0  0  0  0  0  2  0  0  0  0  0  0
  193.9550  169.4200  143.2670 N   0  0  1  0  0  0  0  0  0  0  0  0
  191.1320  171.6220  142.3500 C   0  0  1  0  0  3  0  0  0  0  0  0
  194.8530  171.1650  144.8230 C   0  0  0  0  0  2  0  0  0  0  0  0
  190.8780  170.1370  142.0680 C   0  0  0  0  0  2  0  0  0  0  0  0
  192.3690  171.8920  143.2100 C   0  0  0  0  0  2  0  0  0  0  0  0
  196.6370  170.1540  143.5270 N   0  0  0  0  0  2  0  0  0  0  0  0
  192.7520  168.7030  142.8520 C   0  0  0  0  0  2  0  0  0  0  0  0
  193.7030  170.1920  144.5070 C   0  0  1  0  0  3  0  0  0  0  0  0
  191.8680  171.6560  138.1290 N   0  0  0  0  0  2  0  0  0  0  0  0
  193.0070  170.8050  138.4280 C   0  0  0  0  0  2  0  0  0  0  0  0
  194.0440  170.6490  136.9590 P   0  0  0  0  0  2  0  0  0  0  0  0
  193.4560  171.0260  135.6170 O   0  0  0  0  0  1  0  0  0  0  0  0
  195.6010  169.7250  136.9170 C   0  0  0  0  0 15  0  0  0  0  0  0
  192.8810  169.6380  137.7750 O   0  0  0  0  0  0  0  0  0  0  0  0
  186.5870  176.9550  145.1940 N   0  0  0  0  0  2  0  0  0  0  0  0
  190.0030  176.6350  146.7230 N   0  0  0  0  0  2  0  0  0  0  0  0
  188.6360  176.3500  146.4250 C   0  0  0  0  0  0  0  0  0  0  0  0
  188.0730  175.3320  146.9140 O   0  0  0  0  0  0  0  0  0  0  0  0
  187.9060  177.2350  145.5760 N   0  0  0  0  0  2  0  0  0  0  0  0
  190.7980  175.8320  147.6400 C   0  0  0  0  0  2  0  0  0  0  0  0
  192.2090  175.8520  147.2330 N   0  0  0  0  0  2  0  0  0  0  0  0
  192.4350  175.0720  146.0720 N   0  0  0  0  0  0  0  0  0  0  0  0
  191.4150  174.0350  145.9490 C   0  0  0  0  0  1  0  0  0  0  0  0
  193.7540  174.4490  146.1380 C   0  0  0  0  0  2  0  0  0  0  0  0
  194.7910  175.3580  145.5000 C   0  0  0  0  0  2  0  0  0  0  0  0
  197.0880  174.8840  144.9790 O   0  0  0  0  0  0  0  0  0  0  0  0
  197.9400  174.0910  142.8880 C   0  0  0  0  0  2  0  0  0  0  0  0
  196.5280  174.0110  142.2980 C   0  0  1  0  0  3  0  0  0  0  0  0
  195.5420  176.1530  142.8130 O   0  0  0  0  0  0  0  0  0  0  0  0
  195.5060  174.7800  143.1510 C   0  0  2  0  0  3  0  0  0  0  0  0
  194.9190  176.3560  141.5930 N   0  0  2  0  0  0  0  0  0  0  0  0
  197.8920  173.8890  144.3990 C   0  0  0  0  0  2  0  0  0  0  0  0
  194.0900  174.4710  140.2930 C   0  0  0  0  0  2  0  0  0  0  0  0
  195.7630  174.5530  144.6480 C   0  0  2  0  0  3  0  0  0  0  0  0
  193.4520  176.3090  141.6910 C   0  0  1  0  0  3  0  0  0  0  0  0
  196.5640  174.5950  140.8880 C   0  0  2  0  0  3  0  0  0  0  0  0
  195.2900  175.3820  140.5400 C   0  0  2  0  0  3  0  0  0  0  0  0
  196.8080  173.5910  139.9480 O   0  0  0  0  0  1  0  0  0  0  0  0
  193.0040  174.9380  141.2350 C   0  0  0  0  0  2  0  0  0  0  0  0
  192.8990  176.6630  143.0680 C   0  0  1  0  0  3  0  0  0  0  0  0
  191.9170  177.7470  142.9320 N   0  0  0  0  0  2  0  0  0  0  0  0
  191.4740  176.3590  143.1220 C   0  0  0  0  0  2  0  0  0  0  0  0
  1  5  1  1  0  0  0
  1 37  1  0  0  0  0
  3  1  1  0  0  0  0
  3  2  1  0  0  0  0
  4  3  2  0  0  0  0
  6  5  1  0  0  0  0
  7 11  1  0  0  0  0
  7  9  2  0  0  0  0
  9  6  1  0  0  0  0
  9  8  1  0  0  0  0
 10  8  1  0  0  0  0
 11 10  2  0  0  0  0
 12 16  2  0  0  0  0
 12 11  1  0  0  0  0
 13 12  1  0  0  0  0
 14 31  1  6  0  0  0
 14 16  1  0  0  0  0
 15 13  1  0  0  0  0
 15 14  1  0  0  0  0
 16 17  1  0  0  0  0
 19 28  1  0  0  0  0
 19 18  1  0  0  0  0
 20 26  1  0  0  0  0
 20 29  1  0  0  0  0
 23 29  1  1  0  0  0
 23 18  1  0  0  0  0
 23 30  1  0  0  0  0
 24 17  1  6  0  0  0
 24 27  1  0  0  0  0
 25 21  1  0  0  0  0
 26 24  1  0  0  0  0
 27 22  1  0  0  0  0
 28 21  1  0  0  0  0
 30 22  1  6  0  0  0
 30 25  1  0  0  0  0
 31 32  1  0  0  0  0
 33 36  1  0  0  0  0
 34 33  1  0  0  0  0
 36 32  1  0  0  0  0
 37 41  1  0  0  0  0
 38 42  1  0  0  0  0
 39 38  1  0  0  0  0
 39 40  2  0  0  0  0
 41 39  1  0  0  0  0
 43 42  1  0  0  0  0
 44 46  1  0  0  0  0
 44 43  1  0  0  0  0
 45 44  1  0  0  0  0
 47 46  1  0  0  0  0
 49 54  1  0  0  0  0
 50 49  1  1  0  0  0
 50 52  1  0  0  0  0
 52 51  1  1  0  0  0
 52 56  1  0  0  0  0
 53 57  1  0  0  0  0
 53 51  1  1  0  0  0
 54 48  1  0  0  0  0
 55 61  1  0  0  0  0
 56 48  1  0  0  0  0
 56 47  1  1  0  0  0
 57 61  1  1  0  0  0
 57 62  1  0  0  0  0
 58 60  1  6  0  0  0
 58 50  1  0  0  0  0
 59 55  1  1  0  0  0
 59 58  1  0  0  0  0
 59 53  1  0  0  0  0
 62 64  1  6  0  0  0
 63 62  1  0  0  0  0
 63 64  1  0  0  0  0
M  END
>  <MODEL>
6

>  <REMARK>
 VINA RESULT:      -6.3      2.489      8.113
  Name = 
  18 active torsions:
  status: ('A' for Active; 'I' for Inactive)
    1  A    between atoms: C_1  and  C_41
    2  A    between atoms: C_1  and  C_47
    3  A    between atoms: C_2  and  C_53
    4  A    between atoms: C_5  and  C_64
    5  A    between atoms: C_8  and  N_28
    6  A    between atoms: C_9  and  N_23
    7  A    between atoms: C_9  and  N_42
    8  A    between atoms: C_22  and  C_39
    9  A    between atoms: C_22  and  N_40
   10  A    between atoms: C_22  and  C_47
   11  A    between atoms: N_28  and  C_38
   12  A    between atoms: C_29  and  N_33
   13  A    between atoms: N_33  and  C_61
   14  A    between atoms: N_34  and  N_40
   15  A    between atoms: N_42  and  N_44
   16  A    between atoms: C_43  and  N_44
   17  A    between atoms: C_43  and  C_60
   18  A    between atoms: C_51  and  C_60
                            x       y       z     vdW  Elec       q    Type
                         _______ _______ _______ _____ _____    ______ ____

>  <TORSDO>
F 18

$$$$
=
 OpenBabel11042414503D

 64 70  0  0  1  0  0  0  0  0999 V2000
  196.1370  173.7300  137.5500 C   0  0  1  0  0  3  0  0  0  0  0  0
  195.6850  173.3760  135.2220 O   0  0  0  0  0  0  0  0  0  0  0  0
  196.2660  174.0690  136.0990 C   0  0  0  0  0  0  0  0  0  0  0  0
  197.0060  175.1800  135.7190 O   0  0  0  0  0  1  0  0  0  0  0  0
  196.8280  172.4150  137.9040 C   0  0  0  0  0  2  0  0  0  0  0  0
  195.8340  171.2800  138.1110 C   0  0  0  0  0  2  0  0  0  0  0  0
  196.0890  170.7870  140.5370 N   0  0  0  0  0  0  0  0  0  0  0  0
  196.8340  169.2190  139.0960 N   0  0  0  0  0  2  0  0  0  0  0  0
  196.2650  170.4300  139.2520 C   0  0  0  0  0  0  0  0  0  0  0  0
  197.0480  168.7790  140.3500 C   0  0  0  0  0  3  0  0  0  0  0  0
  196.5920  169.7460  141.2240 C   0  0  0  0  0  0  0  0  0  0  0  0
  196.6030  169.6860  142.7010 C   0  0  0  0  0  0  0  0  0  0  0  0
  197.6670  169.0470  143.3810 N   0  0  0  0  0  0  0  0  0  0  0  0
  195.9250  170.0130  144.9630 C   0  0  2  0  0  3  0  0  0  0  0  0
  197.4460  169.0110  145.1300 S   0  0  0  0  0  0  0  0  0  0  0  0
  195.6590  170.1760  143.4980 C   0  0  2  0  0  3  0  0  0  0  0  0
  194.4690  170.8000  143.0010 N   0  0  0  0  0  2  0  0  0  0  0  0
  189.0420  172.9590  141.7710 C   0  0  0  0  0  2  0  0  0  0  0  0
  189.1850  173.9790  140.6360 C   0  0  0  0  0  2  0  0  0  0  0  0
  191.7480  172.1090  143.9050 C   0  0  0  0  0  2  0  0  0  0  0  0
  189.4250  172.1680  139.0940 C   0  0  0  0  0  2  0  0  0  0  0  0
  191.0420  169.8030  141.6980 C   0  0  0  0  0  2  0  0  0  0  0  0
  190.2660  172.1850  141.9550 N   0  0  1  0  0  0  0  0  0  0  0  0
  193.1610  170.1610  143.0390 C   0  0  1  0  0  3  0  0  0  0  0  0
  190.2900  171.0770  139.7100 C   0  0  0  0  0  2  0  0  0  0  0  0
  192.3390  170.7350  144.1970 C   0  0  0  0  0  2  0  0  0  0  0  0
  192.4870  170.2830  141.6700 C   0  0  0  0  0  2  0  0  0  0  0  0
  189.9460  173.4690  139.4960 N   0  0  0  0  0  2  0  0  0  0  0  0
  190.3230  171.9520  143.3960 C   0  0  0  0  0  2  0  0  0  0  0  0
  190.0860  170.9080  141.2250 C   0  0  1  0  0  3  0  0  0  0  0  0
  196.1460  171.3180  145.5660 N   0  0  0  0  0  2  0  0  0  0  0  0
  195.9830  172.3080  144.5160 C   0  0  0  0  0  2  0  0  0  0  0  0
  196.8200  173.8340  144.9940 P   0  0  0  0  0  2  0  0  0  0  0  0
  197.1880  174.0310  146.4480 O   0  0  0  0  0  1  0  0  0  0  0  0
  196.9160  175.3050  143.9410 C   0  0  0  0  0 15  0  0  0  0  0  0
  195.1660  173.2860  144.9420 O   0  0  0  0  0  0  0  0  0  0  0  0
  196.6260  174.8170  138.3890 N   0  0  0  0  0  2  0  0  0  0  0  0
  194.4180  174.5180  141.4140 N   0  0  0  0  0  2  0  0  0  0  0  0
  194.8490  174.8690  140.0980 C   0  0  0  0  0  0  0  0  0  0  0  0
  194.0640  175.4520  139.3010 O   0  0  0  0  0  0  0  0  0  0  0  0
  196.1830  174.5620  139.6950 N   0  0  0  0  0  2  0  0  0  0  0  0
  193.1030  174.8630  141.9340 C   0  0  0  0  0  2  0  0  0  0  0  0
  193.0830  176.2680  142.3600 N   0  0  0  0  0  2  0  0  0  0  0  0
  192.2790  176.4600  143.5110 N   0  0  0  0  0  0  0  0  0  0  0  0
  192.9320  175.8940  144.6870 C   0  0  0  0  0  1  0  0  0  0  0  0
  190.9790  175.8230  143.3230 C   0  0  0  0  0  2  0  0  0  0  0  0
  189.8730  176.8610  143.4080 C   0  0  0  0  0  2  0  0  0  0  0  0
  189.5530  175.7550  145.5170 O   0  0  0  0  0  0  0  0  0  0  0  0
  187.8330  176.2090  147.1160 C   0  0  0  0  0  2  0  0  0  0  0  0
  187.2860  177.3560  146.2600 C   0  0  1  0  0  3  0  0  0  0  0  0
  187.0810  176.4100  144.0500 O   0  0  0  0  0  0  0  0  0  0  0  0
  187.8390  177.3170  144.8270 C   0  0  2  0  0  3  0  0  0  0  0  0
  185.8540  176.9690  143.7340 N   0  0  2  0  0  0  0  0  0  0  0  0
  189.3290  176.0370  146.8730 C   0  0  0  0  0  2  0  0  0  0  0  0
  185.2150  179.1450  144.6210 C   0  0  0  0  0  2  0  0  0  0  0  0
  189.3320  176.9600  144.8270 C   0  0  2  0  0  3  0  0  0  0  0  0
  185.9470  177.9740  142.6640 C   0  0  1  0  0  3  0  0  0  0  0  0
  185.7630  177.2460  146.2280 C   0  0  2  0  0  3  0  0  0  0  0  0
  185.1700  177.6380  144.8650 C   0  0  2  0  0  3  0  0  0  0  0  0
  185.1960  177.9970  147.2600 O   0  0  0  0  0  1  0  0  0  0  0  0
  185.9480  179.3390  143.3130 C   0  0  0  0  0  2  0  0  0  0  0  0
  187.1340  177.7870  141.7240 C   0  0  1  0  0  3  0  0  0  0  0  0
  186.9220  176.5830  140.9090 N   0  0  0  0  0  2  0  0  0  0  0  0
  186.6950  177.9180  140.3400 C   0  0  0  0  0  2  0  0  0  0  0  0
  1  5  1  6  0  0  0
  1 37  1  0  0  0  0
  2  3  2  0  0  0  0
  3  1  1  0  0  0  0
  4  3  1  0  0  0  0
  5  6  1  0  0  0  0
  6  9  1  0  0  0  0
  7 11  1  0  0  0  0
  8  9  1  0  0  0  0
  8 10  1  0  0  0  0
  9  7  2  0  0  0  0
 10 11  2  0  0  0  0
 11 12  1  0  0  0  0
 12 13  2  0  0  0  0
 12 16  1  0  0  0  0
 13 15  1  0  0  0  0
 14 15  1  0  0  0  0
 14 31  1  6  0  0  0
 16 17  1  6  0  0  0
 16 14  1  0  0  0  0
 19 18  1  0  0  0  0
 20 26  1  0  0  0  0
 21 28  1  0  0  0  0
 21 25  1  0  0  0  0
 23 18  1  1  0  0  0
 23 29  1  0  0  0  0
 24 17  1  6  0  0  0
 24 26  1  0  0  0  0
 27 22  1  0  0  0  0
 27 24  1  0  0  0  0
 28 19  1  0  0  0  0
 29 20  1  0  0  0  0
 30 25  1  6  0  0  0
 30 22  1  0  0  0  0
 30 23  1  0  0  0  0
 32 36  1  0  0  0  0
 32 31  1  0  0  0  0
 33 34  1  0  0  0  0
 36 33  1  0  0  0  0
 37 41  1  0  0  0  0
 38 42  1  0  0  0  0
 39 38  1  0  0  0  0
 40 39  2  0  0  0  0
 41 39  1  0  0  0  0
 42 43  1  0  0  0  0
 43 44  1  0  0  0  0
 44 45  1  0  0  0  0
 46 47  1  0  0  0  0
 46 44  1  0  0  0  0
 48 54  1  0  0  0  0
 50 49  1  1  0  0  0
 52 51  1  6  0  0  0
 52 56  1  0  0  0  0
 52 50  1  0  0  0  0
 53 51  1  1  0  0  0
 53 59  1  0  0  0  0
 54 49  1  0  0  0  0
 56 47  1  6  0  0  0
 56 48  1  0  0  0  0
 57 61  1  1  0  0  0
 57 53  1  0  0  0  0
 58 50  1  0  0  0  0
 58 60  1  1  0  0  0
 59 55  1  6  0  0  0
 59 58  1  0  0  0  0
 61 55  1  0  0  0  0
 62 64  1  6  0  0  0
 62 57  1  0  0  0  0
 63 62  1  0  0  0  0
 64 63  1  0  0  0  0
M  END
>  <MODEL>
7

>  <REMARK>
 VINA RESULT:      -6.3      2.901      5.720
  Name = 
  18 active torsions:
  status: ('A' for Active; 'I' for Inactive)
    1  A    between atoms: C_1  and  C_41
    2  A    between atoms: C_1  and  C_47
    3  A    between atoms: C_2  and  C_53
    4  A    between atoms: C_5  and  C_64
    5  A    between atoms: C_8  and  N_28
    6  A    between atoms: C_9  and  N_23
    7  A    between atoms: C_9  and  N_42
    8  A    between atoms: C_22  and  C_39
    9  A    between atoms: C_22  and  N_40
   10  A    between atoms: C_22  and  C_47
   11  A    between atoms: N_28  and  C_38
   12  A    between atoms: C_29  and  N_33
   13  A    between atoms: N_33  and  C_61
   14  A    between atoms: N_34  and  N_40
   15  A    between atoms: N_42  and  N_44
   16  A    between atoms: C_43  and  N_44
   17  A    between atoms: C_43  and  C_60
   18  A    between atoms: C_51  and  C_60
                            x       y       z     vdW  Elec       q    Type
                         _______ _______ _______ _____ _____    ______ ____

>  <TORSDO>
F 18

$$$$
=
 OpenBabel11042414503D

 64 70  0  0  1  0  0  0  0  0999 V2000
  186.2260  178.6200  145.3110 C   0  0  1  0  0  3  0  0  0  0  0  0
  184.4200  177.3790  146.2850 O   0  0  0  0  0  1  0  0  0  0  0  0
  184.7770  178.3070  145.5130 C   0  0  0  0  0  0  0  0  0  0  0  0
  183.8160  179.0730  144.8680 O   0  0  0  0  0  0  0  0  0  0  0  0
  187.1400  177.6330  146.0360 C   0  0  0  0  0  2  0  0  0  0  0  0
  188.5140  177.5380  145.3860 C   0  0  0  0  0  2  0  0  0  0  0  0
  189.5980  175.4580  144.5540 N   0  0  0  0  0  0  0  0  0  0  0  0
  189.1090  175.5410  146.7540 N   0  0  0  0  0  2  0  0  0  0  0  0
  189.0650  176.1690  145.5640 C   0  0  0  0  0  0  0  0  0  0  0  0
  189.6910  174.3550  146.4930 C   0  0  0  0  0  3  0  0  0  0  0  0
  189.9830  174.3130  145.1440 C   0  0  0  0  0  0  0  0  0  0  0  0
  190.6450  173.2130  144.4120 C   0  0  0  0  0  0  0  0  0  0  0  0
  189.9220  172.4490  143.4640 N   0  0  0  0  0  2  0  0  0  0  0  0
  192.3450  171.7090  143.6820 C   0  0  2  0  0  3  0  0  0  0  0  0
  190.8690  171.1360  142.7680 S   0  0  0  0  0  0  0  0  0  0  0  0
  191.9080  172.8330  144.5710 C   0  0  0  0  0  0  0  0  0  0  0  0
  192.7850  173.4360  145.5300 N   0  0  0  0  0  2  0  0  0  0  0  0
  197.5940  175.3290  142.5450 C   0  0  0  0  0  2  0  0  0  0  0  0
  197.7490  174.4570  141.2950 C   0  0  0  0  0  2  0  0  0  0  0  0
  195.8360  174.2220  145.4230 C   0  0  0  0  0  2  0  0  0  0  0  0
  195.9530  175.6660  140.2800 C   0  0  0  0  0  2  0  0  0  0  0  0
  194.1930  176.4190  143.6450 C   0  0  0  0  0  2  0  0  0  0  0  0
  196.3020  175.1200  143.1900 N   0  0  1  0  0  0  0  0  0  0  0  0
  193.3390  174.7730  145.3710 C   0  0  1  0  0  3  0  0  0  0  0  0
  194.8640  175.9320  141.3090 C   0  0  0  0  0  2  0  0  0  0  0  0
  194.6620  174.8800  146.1360 C   0  0  0  0  0  2  0  0  0  0  0  0
  193.4470  175.1130  143.8820 C   0  0  0  0  0  2  0  0  0  0  0  0
  196.5160  174.3420  140.5170 N   0  0  0  0  0  2  0  0  0  0  0  0
  196.5910  175.2670  144.6150 C   0  0  0  0  0  2  0  0  0  0  0  0
  195.4030  176.2020  142.7240 C   0  0  1  0  0  3  0  0  0  0  0  0
  193.3340  172.1960  142.7330 N   0  0  0  0  0  2  0  0  0  0  0  0
  194.6270  171.6990  143.1690 C   0  0  0  0  0  2  0  0  0  0  0  0
  195.4620  170.9010  141.7820 P   0  0  0  0  0  2  0  0  0  0  0  0
  194.6410  170.5060  140.5750 O   0  0  0  0  0  1  0  0  0  0  0  0
  197.1290  170.1990  141.8760 C   0  0  0  0  0 15  0  0  0  0  0  0
  194.6060  170.3560  143.1990 O   0  0  0  0  0  0  0  0  0  0  0  0
  186.5560  178.6890  143.8930 N   0  0  0  0  0  2  0  0  0  0  0  0
  187.3320  175.6920  141.7630 N   0  0  0  0  0  2  0  0  0  0  0  0
  187.2290  177.0580  142.1700 C   0  0  0  0  0  0  0  0  0  0  0  0
  187.6700  177.9800  141.4320 O   0  0  0  0  0  0  0  0  0  0  0  0
  186.6100  177.3710  143.4170 N   0  0  0  0  0  2  0  0  0  0  0  0
  187.8750  175.2890  140.4740 C   0  0  0  0  0  2  0  0  0  0  0  0
  188.8680  174.2220  140.6590 N   0  0  0  0  0  2  0  0  0  0  0  0
  189.1430  173.5410  139.4470 N   0  0  0  0  0  0  0  0  0  0  0  0
  188.1980  172.4460  139.2530 C   0  0  0  0  0  1  0  0  0  0  0  0
  190.5030  173.0090  139.4720 C   0  0  0  0  0  2  0  0  0  0  0  0
  191.0340  172.8740  138.0550 C   0  0  0  0  0  2  0  0  0  0  0  0
  191.2550  170.6360  138.9020 O   0  0  0  0  0  0  0  0  0  0  0  0
  192.6910  168.9250  138.0450 C   0  0  0  0  0  2  0  0  0  0  0  0
  193.1680  169.8380  136.9100 C   0  0  1  0  0  3  0  0  0  0  0  0
  193.7660  171.9000  138.0120 O   0  0  0  0  0  0  0  0  0  0  0  0
  192.8000  171.3090  137.1650 C   0  0  2  0  0  3  0  0  0  0  0  0
  194.9300  172.1460  137.3030 N   0  0  2  0  0  0  0  0  0  0  0  0
  191.2740  169.3020  138.4650 C   0  0  0  0  0  2  0  0  0  0  0  0
  195.1430  171.4370  134.9830 C   0  0  0  0  0  2  0  0  0  0  0  0
  191.3830  171.4250  137.7450 C   0  0  2  0  0  3  0  0  0  0  0  0
  194.8220  173.3220  136.4270 C   0  0  1  0  0  3  0  0  0  0  0  0
  194.6840  169.7010  136.7890 C   0  0  2  0  0  3  0  0  0  0  0  0
  195.3730  171.0290  136.4360 C   0  0  2  0  0  3  0  0  0  0  0  0
  195.0120  168.7020  135.8690 O   0  0  0  0  0  1  0  0  0  0  0  0
  194.5500  172.8280  135.0240 C   0  0  0  0  0  2  0  0  0  0  0  0
  193.7940  174.3540  136.8790 C   0  0  1  0  0  3  0  0  0  0  0  0
  194.4590  175.6520  137.0630 N   0  0  0  0  0  2  0  0  0  0  0  0
  193.6540  175.3900  135.8620 C   0  0  0  0  0  2  0  0  0  0  0  0
  1  3  1  0  0  0  0
  1  5  1  1  0  0  0
  3  2  1  0  0  0  0
  4  3  2  0  0  0  0
  6  9  1  0  0  0  0
  6  5  1  0  0  0  0
  7 11  1  0  0  0  0
  7  9  2  0  0  0  0
  9  8  1  0  0  0  0
 10  8  1  0  0  0  0
 11 10  2  0  0  0  0
 12 16  2  0  0  0  0
 12 11  1  0  0  0  0
 13 12  1  0  0  0  0
 14 31  1  6  0  0  0
 14 16  1  0  0  0  0
 15 13  1  0  0  0  0
 15 14  1  0  0  0  0
 16 17  1  0  0  0  0
 19 18  1  0  0  0  0
 20 26  1  0  0  0  0
 21 28  1  0  0  0  0
 21 25  1  0  0  0  0
 22 27  1  0  0  0  0
 23 18  1  6  0  0  0
 23 29  1  0  0  0  0
 24 17  1  6  0  0  0
 24 26  1  0  0  0  0
 27 24  1  0  0  0  0
 28 19  1  0  0  0  0
 29 20  1  0  0  0  0
 30 25  1  6  0  0  0
 30 23  1  0  0  0  0
 30 22  1  0  0  0  0
 31 32  1  0  0  0  0
 32 36  1  0  0  0  0
 33 36  1  0  0  0  0
 34 33  1  0  0  0  0
 37  1  1  0  0  0  0
 38 39  1  0  0  0  0
 39 41  1  0  0  0  0
 40 39  2  0  0  0  0
 41 37  1  0  0  0  0
 42 43  1  0  0  0  0
 42 38  1  0  0  0  0
 44 46  1  0  0  0  0
 44 43  1  0  0  0  0
 45 44  1  0  0  0  0
 47 46  1  0  0  0  0
 49 54  1  0  0  0  0
 50 52  1  0  0  0  0
 50 49  1  1  0  0  0
 52 56  1  0  0  0  0
 52 51  1  1  0  0  0
 53 51  1  6  0  0  0
 54 48  1  0  0  0  0
 55 61  1  0  0  0  0
 56 47  1  1  0  0  0
 56 48  1  0  0  0  0
 57 61  1  6  0  0  0
 57 62  1  0  0  0  0
 57 53  1  0  0  0  0
 58 60  1  6  0  0  0
 58 50  1  0  0  0  0
 59 55  1  6  0  0  0
 59 58  1  0  0  0  0
 59 53  1  0  0  0  0
 62 64  1  6  0  0  0
 62 63  1  0  0  0  0
 64 63  1  0  0  0  0
M  END
>  <MODEL>
8

>  <REMARK>
 VINA RESULT:      -6.1      2.461      9.269
  Name = 
  18 active torsions:
  status: ('A' for Active; 'I' for Inactive)
    1  A    between atoms: C_1  and  C_41
    2  A    between atoms: C_1  and  C_47
    3  A    between atoms: C_2  and  C_53
    4  A    between atoms: C_5  and  C_64
    5  A    between atoms: C_8  and  N_28
    6  A    between atoms: C_9  and  N_23
    7  A    between atoms: C_9  and  N_42
    8  A    between atoms: C_22  and  C_39
    9  A    between atoms: C_22  and  N_40
   10  A    between atoms: C_22  and  C_47
   11  A    between atoms: N_28  and  C_38
   12  A    between atoms: C_29  and  N_33
   13  A    between atoms: N_33  and  C_61
   14  A    between atoms: N_34  and  N_40
   15  A    between atoms: N_42  and  N_44
   16  A    between atoms: C_43  and  N_44
   17  A    between atoms: C_43  and  C_60
   18  A    between atoms: C_51  and  C_60
                            x       y       z     vdW  Elec       q    Type
                         _______ _______ _______ _____ _____    ______ ____

>  <TORSDO>
F 18

$$$$
=
 OpenBabel11042414503D

 64 70  0  0  1  0  0  0  0  0999 V2000
  192.2700  175.6300  135.1450 C   0  0  1  0  0  3  0  0  0  0  0  0
  192.1280  177.9380  134.5130 O   0  0  0  0  0  0  0  0  0  0  0  0
  191.5180  176.8830  134.8280 C   0  0  0  0  0  0  0  0  0  0  0  0
  190.1300  176.8710  134.8480 O   0  0  0  0  0  1  0  0  0  0  0  0
  193.0900  175.7520  136.4290 C   0  0  0  0  0  2  0  0  0  0  0  0
  193.9870  174.5430  136.6560 C   0  0  0  0  0  2  0  0  0  0  0  0
  194.2200  175.0990  139.0710 N   0  0  0  0  0  0  0  0  0  0  0  0
  196.0990  174.4920  137.9800 N   0  0  0  0  0  2  0  0  0  0  0  0
  194.7750  174.7230  137.9040 C   0  0  0  0  0  0  0  0  0  0  0  0
  196.4160  174.7460  139.2640 C   0  0  0  0  0  3  0  0  0  0  0  0
  195.2610  175.1200  139.9210 C   0  0  0  0  0  0  0  0  0  0  0  0
  195.1260  175.4710  141.3500 C   0  0  0  0  0  0  0  0  0  0  0  0
  196.1590  176.1770  142.0130 N   0  0  0  0  0  2  0  0  0  0  0  0
  194.1860  175.6620  143.5340 C   0  0  2  0  0  3  0  0  0  0  0  0
  195.8380  176.4200  143.7290 S   0  0  0  0  0  0  0  0  0  0  0  0
  194.0920  175.1590  142.1250 C   0  0  0  0  0  0  0  0  0  0  0  0
  192.9780  174.3890  141.6600 N   0  0  0  0  0  2  0  0  0  0  0  0
  196.5150  169.7890  143.0590 C   0  0  0  0  0  2  0  0  0  0  0  0
  197.8260  170.3530  143.6150 C   0  0  0  0  0  2  0  0  0  0  0  0
  194.3980  171.6740  140.9220 C   0  0  0  0  0  2  0  0  0  0  0  0
  196.7000  170.8330  145.6690 C   0  0  0  0  0  2  0  0  0  0  0  0
  193.2640  171.3890  143.9750 C   0  0  0  0  0  2  0  0  0  0  0  0
  195.4910  170.8220  142.9430 N   0  0  1  0  0  0  0  0  0  0  0  0
  192.6560  173.0650  142.1750 C   0  0  1  0  0  3  0  0  0  0  0  0
  195.3060  171.3700  145.3800 C   0  0  0  0  0  2  0  0  0  0  0  0
  192.9220  172.0110  141.0950 C   0  0  0  0  0  2  0  0  0  0  0  0
  193.4090  172.8240  143.4850 C   0  0  0  0  0  2  0  0  0  0  0  0
  197.6240  171.3490  144.6670 N   0  0  0  0  0  2  0  0  0  0  0  0
  194.7390  170.4440  141.7500 C   0  0  0  0  0  2  0  0  0  0  0  0
  194.6380  170.7270  144.1520 C   0  0  1  0  0  3  0  0  0  0  0  0
  193.1680  176.6740  143.7580 N   0  0  0  0  0  2  0  0  0  0  0  0
  192.2640  176.1570  144.7700 C   0  0  0  0  0  2  0  0  0  0  0  0
  192.8020  176.7160  146.3990 P   0  0  0  0  0  2  0  0  0  0  0  0
  194.2120  177.2420  146.5530 O   0  0  0  0  0  1  0  0  0  0  0  0
  191.9170  176.3470  147.9360 C   0  0  0  0  0 15  0  0  0  0  0  0
  192.8950  175.2240  145.5030 O   0  0  0  0  0  0  0  0  0  0  0  0
  191.3760  174.4810  135.2070 N   0  0  0  0  0  2  0  0  0  0  0  0
  189.1990  174.0970  138.2440 N   0  0  0  0  0  2  0  0  0  0  0  0
  190.1010  173.7580  137.1900 C   0  0  0  0  0  0  0  0  0  0  0  0
  190.5920  172.5980  137.1160 O   0  0  0  0  0  0  0  0  0  0  0  0
  190.4360  174.7430  136.2130 N   0  0  0  0  0  2  0  0  0  0  0  0
  188.7420  173.1330  139.2360 C   0  0  0  0  0  2  0  0  0  0  0  0
  189.1610  173.5570  140.5780 N   0  0  0  0  0  2  0  0  0  0  0  0
  188.1340  174.2640  141.2530 N   0  0  0  0  0  0  0  0  0  0  0  0
  187.8580  175.5280  140.5780 C   0  0  0  0  0  1  0  0  0  0  0  0
  188.5350  174.5290  142.6330 C   0  0  0  0  0  2  0  0  0  0  0  0
  188.5000  176.0230  142.9060 C   0  0  0  0  0  2  0  0  0  0  0  0
  188.7270  175.0990  145.1120 O   0  0  0  0  0  0  0  0  0  0  0  0
  187.8630  176.0280  147.1410 C   0  0  0  0  0  2  0  0  0  0  0  0
  187.3200  177.2520  146.3950 C   0  0  1  0  0  3  0  0  0  0  0  0
  186.1110  176.3250  144.5230 O   0  0  0  0  0  0  0  0  0  0  0  0
  187.2870  177.0290  144.8740 C   0  0  2  0  0  3  0  0  0  0  0  0
  185.0170  177.1720  144.5850 N   0  0  2  0  0  0  0  0  0  0  0  0
  189.0840  175.4700  146.4180 C   0  0  0  0  0  2  0  0  0  0  0  0
  185.2640  179.4640  145.3700 C   0  0  0  0  0  2  0  0  0  0  0  0
  188.5530  176.2990  144.4020 C   0  0  2  0  0  3  0  0  0  0  0  0
  184.9420  178.0870  143.4360 C   0  0  1  0  0  3  0  0  0  0  0  0
  185.9080  177.5370  146.9040 C   0  0  2  0  0  3  0  0  0  0  0  0
  184.9660  178.0280  145.7930 C   0  0  2  0  0  3  0  0  0  0  0  0
  185.9460  178.4380  147.9700 O   0  0  0  0  0  1  0  0  0  0  0  0
  185.4930  179.4250  143.8750 C   0  0  0  0  0  2  0  0  0  0  0  0
  185.6270  177.5720  142.1740 C   0  0  1  0  0  3  0  0  0  0  0  0
  184.7720  177.8510  141.0110 N   0  0  0  0  0  2  0  0  0  0  0  0
  185.9450  178.6900  141.2930 C   0  0  0  0  0  2  0  0  0  0  0  0
  1 37  1  0  0  0  0
  1  5  1  1  0  0  0
  2  3  2  0  0  0  0
  3  4  1  0  0  0  0
  3  1  1  0  0  0  0
  5  6  1  0  0  0  0
  6  9  1  0  0  0  0
  7 11  1  0  0  0  0
  8 10  1  0  0  0  0
  9  8  1  0  0  0  0
  9  7  2  0  0  0  0
 10 11  2  0  0  0  0
 11 12  1  0  0  0  0
 12 13  1  0  0  0  0
 12 16  2  0  0  0  0
 13 15  1  0  0  0  0
 14 15  1  0  0  0  0
 14 31  1  6  0  0  0
 16 14  1  0  0  0  0
 17 16  1  0  0  0  0
 18 19  1  0  0  0  0
 19 28  1  0  0  0  0
 20 26  1  0  0  0  0
 20 29  1  0  0  0  0
 23 29  1  6  0  0  0
 23 18  1  0  0  0  0
 23 30  1  0  0  0  0
 24 17  1  6  0  0  0
 24 27  1  0  0  0  0
 25 21  1  0  0  0  0
 26 24  1  0  0  0  0
 27 22  1  0  0  0  0
 28 21  1  0  0  0  0
 30 22  1  6  0  0  0
 30 25  1  0  0  0  0
 31 32  1  0  0  0  0
 32 36  1  0  0  0  0
 33 34  1  0  0  0  0
 36 33  1  0  0  0  0
 37 41  1  0  0  0  0
 38 42  1  0  0  0  0
 39 38  1  0  0  0  0
 40 39  2  0  0  0  0
 41 39  1  0  0  0  0
 42 43  1  0  0  0  0
 43 44  1  0  0  0  0
 44 46  1  0  0  0  0
 45 44  1  0  0  0  0
 46 47  1  0  0  0  0
 48 54  1  0  0  0  0
 50 58  1  0  0  0  0
 50 49  1  1  0  0  0
 52 51  1  1  0  0  0
 52 50  1  0  0  0  0
 53 51  1  6  0  0  0
 53 59  1  0  0  0  0
 54 49  1  0  0  0  0
 56 47  1  6  0  0  0
 56 52  1  0  0  0  0
 56 48  1  0  0  0  0
 57 61  1  1  0  0  0
 57 53  1  0  0  0  0
 58 60  1  1  0  0  0
 59 55  1  6  0  0  0
 59 58  1  0  0  0  0
 61 55  1  0  0  0  0
 62 64  1  6  0  0  0
 62 57  1  0  0  0  0
 63 64  1  0  0  0  0
 63 62  1  0  0  0  0
M  END
>  <MODEL>
9

>  <REMARK>
 VINA RESULT:      -6.1      2.846      7.019
  Name = 
  18 active torsions:
  status: ('A' for Active; 'I' for Inactive)
    1  A    between atoms: C_1  and  C_41
    2  A    between atoms: C_1  and  C_47
    3  A    between atoms: C_2  and  C_53
    4  A    between atoms: C_5  and  C_64
    5  A    between atoms: C_8  and  N_28
    6  A    between atoms: C_9  and  N_23
    7  A    between atoms: C_9  and  N_42
    8  A    between atoms: C_22  and  C_39
    9  A    between atoms: C_22  and  N_40
   10  A    between atoms: C_22  and  C_47
   11  A    between atoms: N_28  and  C_38
   12  A    between atoms: C_29  and  N_33
   13  A    between atoms: N_33  and  C_61
   14  A    between atoms: N_34  and  N_40
   15  A    between atoms: N_42  and  N_44
   16  A    between atoms: C_43  and  N_44
   17  A    between atoms: C_43  and  C_60
   18  A    between atoms: C_51  and  C_60
                            x       y       z     vdW  Elec       q    Type
                         _______ _______ _______ _____ _____    ______ ____

>  <TORSDO>
F 18

$$$$
