=
 OpenBabel11042417353D

 68 74  0  0  1  0  0  0  0  0999 V2000
  197.0080  173.0700  139.6390 C   0  0  0  0  0  0  0  0  0  0  0  0
  193.4190  171.3440  141.3090 C   0  0  0  0  0  2  0  0  0  0  0  0
  190.4880  171.8680  140.2930 C   0  0  0  0  0  0  0  0  0  0  0  0
  193.1940  174.6430  138.5880 O   0  0  0  0  0  0  0  0  0  0  0  0
  194.5580  170.5580  140.6850 C   0  0  0  0  0  2  0  0  0  0  0  0
  193.1210  174.6610  137.3300 C   0  0  0  0  0  0  0  0  0  0  0  0
  190.3710  171.6300  138.9850 C   0  0  0  0  0  3  0  0  0  0  0  0
  191.3450  172.1000  137.9530 C   0  0  0  0  0  2  0  0  0  0  0  0
  190.8990  173.4550  137.4020 C   0  0  1  0  0  3  0  0  0  0  0  0
  195.8810  174.6060  138.1690 N   0  0  0  0  0  2  0  0  0  0  0  0
  194.1910  175.2830  136.5250 C   0  0  0  0  0  0  0  0  0  0  0  0
  196.5080  175.8970  136.1280 C   0  0  0  0  0  0  0  0  0  0  0  0
  191.9860  174.0930  136.6740 N   0  0  0  0  0  2  0  0  0  0  0  0
  194.7920  176.4050  134.5140 C   0  0  0  0  0  3  0  0  0  0  0  0
  191.6420  172.5130  140.8550 N   0  0  0  0  0  2  0  0  0  0  0  0
  197.1300  173.8970  138.4010 C   0  0  0  0  0  2  0  0  0  0  0  0
  196.0750  172.1720  139.6840 N   0  0  0  0  0  0  0  0  0  0  0  0
  195.8670  171.3080  140.8350 C   0  0  0  0  0  2  0  0  0  0  0  0
  195.5380  175.2800  136.9510 C   0  0  0  0  0  0  0  0  0  0  0  0
  197.9390  176.0210  136.5300 C   0  0  0  0  0  1  0  0  0  0  0  0
  196.1270  176.4580  134.9110 C   0  0  0  0  0  3  0  0  0  0  0  0
  193.8670  175.8250  135.3190 N   0  0  0  0  0  0  0  0  0  0  0  0
  192.8990  172.2740  140.4050 O   0  0  0  0  0  0  0  0  0  0  0  0
  189.6440  171.3650  142.6650 C   0  0  0  0  0  2  0  0  0  0  0  0
  190.2190  172.6090  143.3560 C   0  0  2  0  0  3  0  0  0  0  0  0
  188.0520  173.7080  141.3640 C   0  0  0  0  0  2  0  0  0  0  0  0
  190.1800  172.4270  144.7370 O   0  0  0  0  0  1  0  0  0  0  0  0
  189.5210  173.9240  142.9970 C   0  0  0  0  0  2  0  0  0  0  0  0
  188.1570  173.7310  142.7580 O   0  0  0  0  0  0  0  0  0  0  0  0
  188.0330  172.2690  140.8610 C   0  0  0  0  0  2  0  0  0  0  0  0
  189.3270  171.5080  141.1700 C   0  0  1  0  0  3  0  0  0  0  0  0
  189.0840  174.4390  135.9310 N   0  0  0  0  0  1  0  0  0  0  0  0
  189.7180  173.2980  136.4980 C   0  0  0  0  0  0  0  0  0  0  0  0
  189.2900  172.1460  136.2290 O   0  0  0  0  0  0  0  0  0  0  0  0
  197.8520  173.2690  140.7470 O   0  0  0  0  0  0  0  0  0  0  0  0
  197.5230  174.0530  141.8390 N   0  0  0  0  0  0  0  0  0  0  0  0
  197.1890  175.7700  143.0290 C   0  0  0  0  0  0  0  0  0  0  0  0
  197.5370  175.3770  141.7930 N   0  0  0  0  0  2  0  0  0  0  0  0
  197.1760  173.5820  143.0310 N   0  0  0  0  0  0  0  0  0  0  0  0
  196.9400  174.6570  143.8050 C   0  0  0  0  0  0  0  0  0  0  0  0
  197.1350  176.9720  143.3970 O   0  0  0  0  0  0  0  0  0  0  0  0
  197.5220  173.6930  145.9140 O   0  0  0  0  0  1  0  0  0  0  0  0
  196.6510  174.5840  145.2800 C   0  0  2  0  0  3  0  0  0  0  0  0
  195.2610  174.2370  145.5710 N   0  0  0  0  0  2  0  0  0  0  0  0
  194.5960  175.3760  146.0610 N   0  0  0  0  0  2  0  0  0  0  0  0
  193.6750  175.8170  145.0180 C   0  0  2  0  0  3  0  0  0  0  0  0
  192.4310  176.4620  145.6180 C   0  0  2  0  0  3  0  0  0  0  0  0
  191.6560  175.4200  146.3970 C   0  0  0  0  0  2  0  0  0  0  0  0
  191.1780  175.8370  145.0200 C   0  0  1  0  0  3  0  0  0  0  0  0
  185.7060  178.9850  145.8440 C   0  0  0  0  0  1  0  0  0  0  0  0
  190.6850  177.6350  142.7390 C   0  0  0  0  0  2  0  0  0  0  0  0
  189.7220  177.6350  143.9170 C   0  0  0  0  0  0  0  0  0  0  0  0
  189.9300  177.5100  146.3240 O   0  0  0  0  0  0  0  0  0  0  0  0
  186.3350  177.2750  147.9070 S   0  0  0  0  0  0  0  0  0  0  0  0
  186.3250  177.0290  143.7740 C   0  0  0  0  0  2  0  0  0  0  0  0
  190.7750  178.7190  143.7980 C   0  0  0  0  0  2  0  0  0  0  0  0
  187.6750  177.1480  143.0830 C   0  0  2  0  0  3  0  0  0  0  0  0
  188.9420  176.9400  147.1320 C   0  0  0  0  0  2  0  0  0  0  0  0
  185.7100  177.5030  146.2010 C   0  0  2  0  0  3  0  0  0  0  0  0
  187.9770  178.0120  147.5980 C   0  0  0  0  0  2  0  0  0  0  0  0
  189.9310  176.7350  145.1520 C   0  0  2  0  0  3  0  0  0  0  0  0
  186.5330  176.6530  145.2330 C   0  0  0  0  0  2  0  0  0  0  0  0
  188.4390  178.1650  143.6840 O   0  0  0  0  0  0  0  0  0  0  0  0
  187.4630  177.4470  141.6320 C   0  0  0  0  0  0  0  0  0  0  0  0
  187.8510  176.5190  140.6750 O   0  0  0  0  0  0  0  0  0  0  0  0
  186.9010  178.5170  141.2760 O   0  0  0  0  0  1  0  0  0  0  0  0
  193.6270  175.1680  142.9250 O   0  0  0  0  0  1  0  0  0  0  0  0
  193.3390  174.7600  144.1470 O   0  0  0  0  0  0  0  0  0  0  0  0
  1 17  2  0  0  0  0
  1 35  1  0  0  0  0
  3 15  1  0  0  0  0
  5 18  1  0  0  0  0
  5  2  1  0  0  0  0
  6  4  2  0  0  0  0
  7  3  2  0  0  0  0
  8  7  1  0  0  0  0
  9 33  1  6  0  0  0
  9  8  1  0  0  0  0
 10 16  1  0  0  0  0
 11 19  1  0  0  0  0
 11  6  1  0  0  0  0
 12 20  1  0  0  0  0
 12 19  2  0  0  0  0
 13  6  1  0  0  0  0
 13  9  1  0  0  0  0
 14 21  2  0  0  0  0
 14 22  1  0  0  0  0
 16  1  1  0  0  0  0
 17 18  1  0  0  0  0
 19 10  1  0  0  0  0
 21 12  1  0  0  0  0
 22 11  2  0  0  0  0
 23 15  1  0  0  0  0
 23  2  1  0  0  0  0
 24 25  1  0  0  0  0
 25 27  1  1  0  0  0
 26 29  1  0  0  0  0
 28 25  1  0  0  0  0
 29 28  1  0  0  0  0
 30 31  1  0  0  0  0
 30 26  1  0  0  0  0
 31  3  1  6  0  0  0
 31 24  1  0  0  0  0
 32 33  1  0  0  0  0
 34 33  2  0  0  0  0
 35 36  1  0  0  0  0
 36 39  1  0  0  0  0
 37 41  2  0  0  0  0
 37 40  1  0  0  0  0
 38 36  1  0  0  0  0
 38 37  1  0  0  0  0
 39 40  2  0  0  0  0
 40 43  1  0  0  0  0
 43 44  1  0  0  0  0
 43 42  1  6  0  0  0
 44 45  1  0  0  0  0
 46 68  1  1  0  0  0
 46 45  1  0  0  0  0
 47 46  1  6  0  0  0
 47 48  1  0  0  0  0
 49 61  1  0  0  0  0
 49 47  1  0  0  0  0
 49 48  1  1  0  0  0
 51 56  1  0  0  0  0
 51 52  1  0  0  0  0
 52 61  1  0  0  0  0
 53 58  1  0  0  0  0
 55 62  1  0  0  0  0
 56 52  1  0  0  0  0
 57 64  1  6  0  0  0
 57 63  1  0  0  0  0
 57 55  1  0  0  0  0
 58 60  1  0  0  0  0
 59 50  1  6  0  0  0
 59 54  1  0  0  0  0
 60 54  1  0  0  0  0
 61 53  1  1  0  0  0
 62 59  1  0  0  0  0
 63 52  1  0  0  0  0
 65 64  2  0  0  0  0
 66 64  1  0  0  0  0
 67 68  1  0  0  0  0
M  END
>  <MODEL>
1

>  <REMARK>
 VINA RESULT:      -7.7      0.000      0.000
  Name = 
  12 active torsions:
  status: ('A' for Active; 'I' for Inactive)
    1  A    between atoms: N_2  and  C_56
    2  A    between atoms: N_2  and  N_68
    3  A    between atoms: C_3  and  C_30
    4  A    between atoms: N_5  and  O_53
    5  A    between atoms: C_6  and  O_53
    6  A    between atoms: C_9  and  C_66
    7  A    between atoms: C_11  and  C_60
    8  A    between atoms: C_25  and  C_34
    9  A    between atoms: C_48  and  C_56
   10  A    between atoms: C_51  and  C_61
   11  A    between atoms: O_63  and  C_66
   12  A    between atoms: C_66  and  N_68
                            x       y       z     vdW  Elec       q    Type
                         _______ _______ _______ _____ _____    ______ ____

>  <TORSDO>
F 12

$$$$
=
 OpenBabel11042417353D

 68 74  0  0  1  0  0  0  0  0999 V2000
  188.1940  174.6580  141.1390 C   0  0  0  0  0  0  0  0  0  0  0  0
  191.0340  171.4360  141.5890 C   0  0  0  0  0  2  0  0  0  0  0  0
  192.4870  169.9310  139.2390 C   0  0  0  0  0  0  0  0  0  0  0  0
  189.3020  172.3030  137.7690 O   0  0  0  0  0  0  0  0  0  0  0  0
  191.2180  172.8440  142.1270 C   0  0  0  0  0  2  0  0  0  0  0  0
  189.6800  173.0900  136.8600 C   0  0  0  0  0  0  0  0  0  0  0  0
  193.1060  170.7820  138.4180 C   0  0  0  0  0  3  0  0  0  0  0  0
  192.4970  172.0440  137.8970 C   0  0  0  0  0  2  0  0  0  0  0  0
  191.8170  171.7730  136.5540 C   0  0  1  0  0  3  0  0  0  0  0  0
  187.9970  174.4800  138.7470 N   0  0  0  0  0  2  0  0  0  0  0  0
  188.8350  174.2300  136.4550 C   0  0  0  0  0  0  0  0  0  0  0  0
  187.2070  175.9740  136.9130 C   0  0  0  0  0  0  0  0  0  0  0  0
  190.9280  172.8690  136.2010 N   0  0  0  0  0  2  0  0  0  0  0  0
  188.1840  175.7270  134.7240 C   0  0  0  0  0  3  0  0  0  0  0  0
  191.1940  170.2090  139.7990 N   0  0  0  0  0  2  0  0  0  0  0  0
  187.8200  175.3730  139.8820 C   0  0  0  0  0  2  0  0  0  0  0  0
  189.3980  174.1890  141.2400 N   0  0  0  0  0  0  0  0  0  0  0  0
  189.8730  173.4810  142.4180 C   0  0  0  0  0  2  0  0  0  0  0  0
  187.9900  174.8920  137.3740 C   0  0  0  0  0  0  0  0  0  0  0  0
  186.2230  176.6810  137.7840 C   0  0  0  0  0  1  0  0  0  0  0  0
  187.3090  176.3860  135.5860 C   0  0  0  0  0  3  0  0  0  0  0  0
  188.9180  174.6790  135.1730 N   0  0  0  0  0  0  0  0  0  0  0  0
  190.8320  171.4510  140.2060 O   0  0  0  0  0  0  0  0  0  0  0  0
  194.5000  168.3990  138.8000 C   0  0  0  0  0  2  0  0  0  0  0  0
  195.6050  169.4140  139.1270 C   0  0  2  0  0  3  0  0  0  0  0  0
  194.1130  168.9250  141.8480 C   0  0  0  0  0  2  0  0  0  0  0  0
  196.8250  168.9320  138.6550 O   0  0  0  0  0  1  0  0  0  0  0  0
  195.7370  169.7660  140.6110 C   0  0  0  0  0  2  0  0  0  0  0  0
  195.4230  168.6730  141.4260 O   0  0  0  0  0  0  0  0  0  0  0  0
  193.1220  168.1680  140.9710 C   0  0  0  0  0  2  0  0  0  0  0  0
  193.1540  168.6160  139.5050 C   0  0  1  0  0  3  0  0  0  0  0  0
  193.6720  172.6640  135.0740 N   0  0  0  0  0  1  0  0  0  0  0  0
  192.8330  171.5860  135.4730 C   0  0  0  0  0  0  0  0  0  0  0  0
  192.9550  170.4620  134.9210 O   0  0  0  0  0  0  0  0  0  0  0  0
  187.2700  174.4610  142.1810 O   0  0  0  0  0  0  0  0  0  0  0  0
  187.1420  175.3040  143.2720 N   0  0  0  0  0  0  0  0  0  0  0  0
  186.3610  176.7900  144.5580 C   0  0  0  0  0  0  0  0  0  0  0  0
  186.1230  176.1400  143.4080 N   0  0  0  0  0  2  0  0  0  0  0  0
  188.0080  175.3790  144.2750 N   0  0  0  0  0  0  0  0  0  0  0  0
  187.5240  176.3080  145.1200 C   0  0  0  0  0  0  0  0  0  0  0  0
  185.6310  177.7110  145.0100 O   0  0  0  0  0  0  0  0  0  0  0  0
  187.7550  178.0440  146.7470 O   0  0  0  0  0  1  0  0  0  0  0  0
  188.2640  176.8110  146.3290 C   0  0  2  0  0  3  0  0  0  0  0  0
  189.7080  176.8990  146.1170 N   0  0  0  0  0  2  0  0  0  0  0  0
  189.9910  178.0460  145.3530 N   0  0  0  0  0  2  0  0  0  0  0  0
  190.4410  177.5890  144.0420 C   0  0  2  0  0  3  0  0  0  0  0  0
  191.9360  177.2920  144.0450 C   0  0  2  0  0  3  0  0  0  0  0  0
  192.4340  177.2310  142.6160 C   0  0  0  0  0  2  0  0  0  0  0  0
  192.2030  175.9450  143.3870 C   0  0  1  0  0  3  0  0  0  0  0  0
  197.9410  173.3700  144.3730 C   0  0  0  0  0  1  0  0  0  0  0  0
  192.0900  174.0340  145.6260 C   0  0  0  0  0  2  0  0  0  0  0  0
  193.4240  174.3260  144.9550 C   0  0  0  0  0  0  0  0  0  0  0  0
  194.5340  176.2960  144.0940 O   0  0  0  0  0  0  0  0  0  0  0  0
  197.8760  175.2070  142.3250 S   0  0  0  0  0  0  0  0  0  0  0  0
  195.5210  172.0080  143.4890 C   0  0  0  0  0  2  0  0  0  0  0  0
  193.0720  174.9970  146.2690 C   0  0  0  0  0  2  0  0  0  0  0  0
  194.2260  172.3450  144.2140 C   0  0  2  0  0  3  0  0  0  0  0  0
  195.4380  176.2400  143.0290 C   0  0  0  0  0  2  0  0  0  0  0  0
  197.4920  173.5210  142.9240 C   0  0  2  0  0  3  0  0  0  0  0  0
  196.8480  176.0760  143.5590 C   0  0  0  0  0  2  0  0  0  0  0  0
  193.5590  175.3310  143.7920 C   0  0  2  0  0  3  0  0  0  0  0  0
  196.0060  173.2270  142.7210 C   0  0  0  0  0  2  0  0  0  0  0  0
  194.4460  173.3780  145.1420 O   0  0  0  0  0  0  0  0  0  0  0  0
  193.7160  171.1220  144.9090 C   0  0  0  0  0  0  0  0  0  0  0  0
  194.4690  170.5420  145.9210 O   0  0  0  0  0  1  0  0  0  0  0  0
  192.5940  170.6360  144.6060 O   0  0  0  0  0  0  0  0  0  0  0  0
  189.0490  178.0140  142.4020 O   0  0  0  0  0  1  0  0  0  0  0  0
  190.1000  178.5100  143.0310 O   0  0  0  0  0  0  0  0  0  0  0  0
  1 17  2  0  0  0  0
  1 35  1  0  0  0  0
  2  5  1  0  0  0  0
  3 15  1  0  0  0  0
  5 18  1  0  0  0  0
  6  4  2  0  0  0  0
  7  3  2  0  0  0  0
  8  7  1  0  0  0  0
  9 33  1  6  0  0  0
  9  8  1  0  0  0  0
 10 16  1  0  0  0  0
 11  6  1  0  0  0  0
 11 19  1  0  0  0  0
 12 19  2  0  0  0  0
 12 20  1  0  0  0  0
 13  9  1  0  0  0  0
 13  6  1  0  0  0  0
 14 22  1  0  0  0  0
 14 21  2  0  0  0  0
 15 23  1  0  0  0  0
 16  1  1  0  0  0  0
 17 18  1  0  0  0  0
 19 10  1  0  0  0  0
 21 12  1  0  0  0  0
 22 11  2  0  0  0  0
 23  2  1  0  0  0  0
 24 25  1  0  0  0  0
 24 31  1  0  0  0  0
 25 27  1  1  0  0  0
 25 28  1  0  0  0  0
 28 29  1  0  0  0  0
 29 26  1  0  0  0  0
 30 26  1  0  0  0  0
 31  3  1  1  0  0  0
 31 30  1  0  0  0  0
 32 33  1  0  0  0  0
 34 33  2  0  0  0  0
 35 36  1  0  0  0  0
 36 38  1  0  0  0  0
 36 39  1  0  0  0  0
 37 41  2  0  0  0  0
 37 40  1  0  0  0  0
 38 37  1  0  0  0  0
 39 40  2  0  0  0  0
 40 43  1  0  0  0  0
 43 42  1  6  0  0  0
 44 43  1  0  0  0  0
 45 44  1  0  0  0  0
 46 68  1  6  0  0  0
 46 45  1  0  0  0  0
 47 46  1  6  0  0  0
 48 47  1  0  0  0  0
 49 48  1  6  0  0  0
 49 61  1  0  0  0  0
 49 47  1  0  0  0  0
 51 56  1  0  0  0  0
 52 63  1  0  0  0  0
 52 51  1  0  0  0  0
 52 56  1  0  0  0  0
 54 59  1  0  0  0  0
 54 60  1  0  0  0  0
 55 57  1  0  0  0  0
 57 64  1  1  0  0  0
 57 63  1  0  0  0  0
 58 60  1  0  0  0  0
 58 53  1  0  0  0  0
 59 50  1  1  0  0  0
 61 53  1  1  0  0  0
 61 52  1  0  0  0  0
 62 59  1  0  0  0  0
 62 55  1  0  0  0  0
 64 65  1  0  0  0  0
 66 64  2  0  0  0  0
 67 68  1  0  0  0  0
M  END
>  <MODEL>
2

>  <REMARK>
 VINA RESULT:      -7.5      3.624      7.678
  Name = 
  12 active torsions:
  status: ('A' for Active; 'I' for Inactive)
    1  A    between atoms: N_2  and  C_56
    2  A    between atoms: N_2  and  N_68
    3  A    between atoms: C_3  and  C_30
    4  A    between atoms: N_5  and  O_53
    5  A    between atoms: C_6  and  O_53
    6  A    between atoms: C_9  and  C_66
    7  A    between atoms: C_11  and  C_60
    8  A    between atoms: C_25  and  C_34
    9  A    between atoms: C_48  and  C_56
   10  A    between atoms: C_51  and  C_61
   11  A    between atoms: O_63  and  C_66
   12  A    between atoms: C_66  and  N_68
                            x       y       z     vdW  Elec       q    Type
                         _______ _______ _______ _____ _____    ______ ____

>  <TORSDO>
F 12

$$$$
=
 OpenBabel11042417353D

 68 74  0  0  1  0  0  0  0  0999 V2000
  188.0250  174.9400  141.3970 C   0  0  0  0  0  0  0  0  0  0  0  0
  190.5840  171.7490  142.7810 C   0  0  0  0  0  2  0  0  0  0  0  0
  192.2220  169.7860  140.9460 C   0  0  0  0  0  0  0  0  0  0  0  0
  189.3960  171.9700  138.6720 O   0  0  0  0  0  0  0  0  0  0  0  0
  190.7860  173.2230  143.0820 C   0  0  0  0  0  2  0  0  0  0  0  0
  189.9310  172.5630  137.6970 C   0  0  0  0  0  0  0  0  0  0  0  0
  192.9890  170.4490  140.0780 C   0  0  0  0  0  3  0  0  0  0  0  0
  192.5280  171.6170  139.2670 C   0  0  0  0  0  2  0  0  0  0  0  0
  192.0050  171.1310  137.9150 C   0  0  1  0  0  3  0  0  0  0  0  0
  188.1160  174.3370  139.0700 N   0  0  0  0  0  2  0  0  0  0  0  0
  189.2140  173.6420  136.9890 C   0  0  0  0  0  0  0  0  0  0  0  0
  187.6520  175.5010  136.9130 C   0  0  0  0  0  0  0  0  0  0  0  0
  191.2340  172.1780  137.2590 N   0  0  0  0  0  2  0  0  0  0  0  0
  188.8760  174.8210  134.9510 C   0  0  0  0  0  3  0  0  0  0  0  0
  190.8890  170.2110  141.2720 N   0  0  0  0  0  2  0  0  0  0  0  0
  187.8540  175.4280  139.9950 C   0  0  0  0  0  2  0  0  0  0  0  0
  189.1760  174.4530  141.7380 N   0  0  0  0  0  0  0  0  0  0  0  0
  189.4570  173.9530  143.0750 C   0  0  0  0  0  2  0  0  0  0  0  0
  188.3040  174.4910  137.6570 C   0  0  0  0  0  0  0  0  0  0  0  0
  186.6130  176.3910  137.5060 C   0  0  0  0  0  1  0  0  0  0  0  0
  187.9430  175.6590  135.5590 C   0  0  0  0  0  3  0  0  0  0  0  0
  189.4830  173.8450  135.6710 N   0  0  0  0  0  0  0  0  0  0  0  0
  190.5560  171.5190  141.4020 O   0  0  0  0  0  0  0  0  0  0  0  0
  194.2790  168.3050  141.3540 C   0  0  0  0  0  2  0  0  0  0  0  0
  195.1860  169.3810  141.9690 C   0  0  2  0  0  3  0  0  0  0  0  0
  192.8400  169.0150  144.0270 C   0  0  0  0  0  2  0  0  0  0  0  0
  196.5000  168.9140  141.9910 O   0  0  0  0  0  1  0  0  0  0  0  0
  194.7840  169.8330  143.3760 C   0  0  0  0  0  2  0  0  0  0  0  0
  194.2180  168.7860  144.1090 O   0  0  0  0  0  0  0  0  0  0  0  0
  192.2290  168.1660  142.9180 C   0  0  0  0  0  2  0  0  0  0  0  0
  192.7690  168.5170  141.5260 C   0  0  1  0  0  3  0  0  0  0  0  0
  194.1560  171.6360  136.6720 N   0  0  0  0  0  1  0  0  0  0  0  0
  193.1330  170.7120  137.0290 C   0  0  0  0  0  0  0  0  0  0  0  0
  193.1850  169.5290  136.6040 O   0  0  0  0  0  0  0  0  0  0  0  0
  186.9680  174.9720  142.3250 O   0  0  0  0  0  0  0  0  0  0  0  0
  186.8170  175.9510  143.2930 N   0  0  0  0  0  0  0  0  0  0  0  0
  186.3950  177.8240  144.1800 C   0  0  0  0  0  0  0  0  0  0  0  0
  186.3850  177.1710  143.0070 N   0  0  0  0  0  2  0  0  0  0  0  0
  187.0910  175.7890  144.5820 N   0  0  0  0  0  0  0  0  0  0  0  0
  186.8130  176.9640  145.1750 C   0  0  0  0  0  0  0  0  0  0  0  0
  186.0920  179.0380  144.3130 O   0  0  0  0  0  0  0  0  0  0  0  0
  186.2180  178.2190  147.1200 O   0  0  0  0  0  1  0  0  0  0  0  0
  187.1110  177.2680  146.6180 C   0  0  2  0  0  3  0  0  0  0  0  0
  188.4920  177.6960  146.8360 N   0  0  0  0  0  2  0  0  0  0  0  0
  189.3430  176.9400  146.0110 N   0  0  0  0  0  2  0  0  0  0  0  0
  190.7030  177.1340  146.5040 C   0  0  2  0  0  3  0  0  0  0  0  0
  191.7030  177.1940  145.3540 C   0  0  2  0  0  3  0  0  0  0  0  0
  191.0420  176.6810  144.0920 C   0  0  0  0  0  2  0  0  0  0  0  0
  192.0050  175.7880  144.8510 C   0  0  1  0  0  3  0  0  0  0  0  0
  197.1890  174.9540  141.2520 C   0  0  0  0  0  1  0  0  0  0  0  0
  194.4140  175.6820  146.5440 C   0  0  0  0  0  2  0  0  0  0  0  0
  194.5570  175.6220  145.0310 C   0  0  0  0  0  0  0  0  0  0  0  0
  193.5140  176.7260  143.1480 O   0  0  0  0  0  0  0  0  0  0  0  0
  194.8440  175.1050  139.8190 S   0  0  0  0  0  0  0  0  0  0  0  0
  196.0930  173.1110  143.2250 C   0  0  0  0  0  2  0  0  0  0  0  0
  194.8050  176.9250  145.7660 C   0  0  0  0  0  2  0  0  0  0  0  0
  195.6500  173.6980  144.5570 C   0  0  2  0  0  3  0  0  0  0  0  0
  193.3750  176.1090  141.9010 C   0  0  0  0  0  2  0  0  0  0  0  0
  195.9600  174.1280  140.8920 C   0  0  2  0  0  3  0  0  0  0  0  0
  194.5630  176.4470  141.0240 C   0  0  0  0  0  2  0  0  0  0  0  0
  193.3410  175.6940  144.0850 C   0  0  2  0  0  3  0  0  0  0  0  0
  195.1910  173.6300  142.1160 C   0  0  0  0  0  2  0  0  0  0  0  0
  195.7640  175.1000  144.5310 O   0  0  0  0  0  0  0  0  0  0  0  0
  196.4950  173.1290  145.6530 C   0  0  0  0  0  0  0  0  0  0  0  0
  196.1480  171.9130  146.2270 O   0  0  0  0  0  1  0  0  0  0  0  0
  197.5370  173.7270  146.0330 O   0  0  0  0  0  0  0  0  0  0  0  0
  191.8450  176.7260  148.3300 O   0  0  0  0  0  1  0  0  0  0  0  0
  191.0570  176.1450  147.4440 O   0  0  0  0  0  0  0  0  0  0  0  0
  1 17  2  0  0  0  0
  1 35  1  0  0  0  0
  2  5  1  0  0  0  0
  3 15  1  0  0  0  0
  6  4  2  0  0  0  0
  7  3  2  0  0  0  0
  8  7  1  0  0  0  0
  9 33  1  6  0  0  0
  9  8  1  0  0  0  0
 10 16  1  0  0  0  0
 11 19  1  0  0  0  0
 11  6  1  0  0  0  0
 12 20  1  0  0  0  0
 12 19  2  0  0  0  0
 13  6  1  0  0  0  0
 13  9  1  0  0  0  0
 14 21  2  0  0  0  0
 14 22  1  0  0  0  0
 15 23  1  0  0  0  0
 16  1  1  0  0  0  0
 17 18  1  0  0  0  0
 18  5  1  0  0  0  0
 19 10  1  0  0  0  0
 21 12  1  0  0  0  0
 22 11  2  0  0  0  0
 23  2  1  0  0  0  0
 24 31  1  0  0  0  0
 24 25  1  0  0  0  0
 25 27  1  1  0  0  0
 25 28  1  0  0  0  0
 26 29  1  0  0  0  0
 28 29  1  0  0  0  0
 30 26  1  0  0  0  0
 31  3  1  1  0  0  0
 31 30  1  0  0  0  0
 32 33  1  0  0  0  0
 34 33  2  0  0  0  0
 35 36  1  0  0  0  0
 36 39  1  0  0  0  0
 37 41  2  0  0  0  0
 37 40  1  0  0  0  0
 38 36  1  0  0  0  0
 38 37  1  0  0  0  0
 39 40  2  0  0  0  0
 40 43  1  0  0  0  0
 43 44  1  0  0  0  0
 43 42  1  6  0  0  0
 45 44  1  0  0  0  0
 46 45  1  6  0  0  0
 46 68  1  0  0  0  0
 47 46  1  1  0  0  0
 48 47  1  0  0  0  0
 49 48  1  6  0  0  0
 49 47  1  0  0  0  0
 52 56  1  0  0  0  0
 52 51  1  0  0  0  0
 54 59  1  0  0  0  0
 54 60  1  0  0  0  0
 55 57  1  0  0  0  0
 56 51  1  0  0  0  0
 57 64  1  1  0  0  0
 58 53  1  0  0  0  0
 59 50  1  1  0  0  0
 59 62  1  0  0  0  0
 60 58  1  0  0  0  0
 61 53  1  6  0  0  0
 61 49  1  0  0  0  0
 61 52  1  0  0  0  0
 62 55  1  0  0  0  0
 63 57  1  0  0  0  0
 63 52  1  0  0  0  0
 64 66  2  0  0  0  0
 64 65  1  0  0  0  0
 68 67  1  0  0  0  0
M  END
>  <MODEL>
3

>  <REMARK>
 VINA RESULT:      -7.4      3.460      7.691
  Name = 
  12 active torsions:
  status: ('A' for Active; 'I' for Inactive)
    1  A    between atoms: N_2  and  C_56
    2  A    between atoms: N_2  and  N_68
    3  A    between atoms: C_3  and  C_30
    4  A    between atoms: N_5  and  O_53
    5  A    between atoms: C_6  and  O_53
    6  A    between atoms: C_9  and  C_66
    7  A    between atoms: C_11  and  C_60
    8  A    between atoms: C_25  and  C_34
    9  A    between atoms: C_48  and  C_56
   10  A    between atoms: C_51  and  C_61
   11  A    between atoms: O_63  and  C_66
   12  A    between atoms: C_66  and  N_68
                            x       y       z     vdW  Elec       q    Type
                         _______ _______ _______ _____ _____    ______ ____

>  <TORSDO>
F 12

$$$$
=
 OpenBabel11042417353D

 68 74  0  0  1  0  0  0  0  0999 V2000
  191.0650  170.0970  141.5210 C   0  0  0  0  0  0  0  0  0  0  0  0
  191.2400  171.8750  137.5900 C   0  0  0  0  0  2  0  0  0  0  0  0
  193.8550  172.3500  135.9070 C   0  0  0  0  0  0  0  0  0  0  0  0
  194.8000  171.3610  139.9140 O   0  0  0  0  0  0  0  0  0  0  0  0
  190.5040  170.5930  137.9370 C   0  0  0  0  0  2  0  0  0  0  0  0
  195.5960  170.3860  139.9850 C   0  0  0  0  0  0  0  0  0  0  0  0
  194.5660  171.2280  135.7760 C   0  0  0  0  0  3  0  0  0  0  0  0
  194.8610  170.2810  136.8940 C   0  0  0  0  0  2  0  0  0  0  0  0
  196.1970  170.6490  137.5430 C   0  0  1  0  0  3  0  0  0  0  0  0
  193.4440  170.0560  141.8790 N   0  0  0  0  0  2  0  0  0  0  0  0
  195.7840  169.6620  141.2580 C   0  0  0  0  0  0  0  0  0  0  0  0
  194.9920  168.8200  143.3950 C   0  0  0  0  0  0  0  0  0  0  0  0
  196.3380  169.9890  138.8320 N   0  0  0  0  0  2  0  0  0  0  0  0
  197.2360  168.3770  142.6370 C   0  0  0  0  0  3  0  0  0  0  0  0
  193.2000  172.7030  137.1350 N   0  0  0  0  0  2  0  0  0  0  0  0
  192.1810  169.4600  142.2830 C   0  0  0  0  0  2  0  0  0  0  0  0
  191.0920  170.0310  140.2280 N   0  0  0  0  0  0  0  0  0  0  0  0
  190.0580  170.6120  139.3860 C   0  0  0  0  0  2  0  0  0  0  0  0
  194.7370  169.5250  142.1970 C   0  0  0  0  0  0  0  0  0  0  0  0
  193.9800  168.6950  144.4830 C   0  0  0  0  0  1  0  0  0  0  0  0
  196.2460  168.2490  143.6080 C   0  0  0  0  0  3  0  0  0  0  0  0
  196.9860  169.0700  141.4980 N   0  0  0  0  0  0  0  0  0  0  0  0
  192.5940  171.7810  137.9250 O   0  0  0  0  0  0  0  0  0  0  0  0
  192.5240  174.0900  134.5690 C   0  0  0  0  0  2  0  0  0  0  0  0
  192.1260  174.9930  135.7460 C   0  0  2  0  0  3  0  0  0  0  0  0
  195.2510  175.2450  135.5400 C   0  0  0  0  0  2  0  0  0  0  0  0
  191.1120  175.8580  135.3380 O   0  0  0  0  0  1  0  0  0  0  0  0
  193.2750  175.8050  136.3500 C   0  0  0  0  0  2  0  0  0  0  0  0
  194.2130  176.1670  135.3770 O   0  0  0  0  0  0  0  0  0  0  0  0
  195.1050  174.1040  134.5400 C   0  0  0  0  0  2  0  0  0  0  0  0
  193.8220  173.2900  134.7410 C   0  0  1  0  0  3  0  0  0  0  0  0
  197.7750  168.9140  136.5810 N   0  0  0  0  0  1  0  0  0  0  0  0
  197.3390  170.2670  136.6580 C   0  0  0  0  0  0  0  0  0  0  0  0
  197.9130  171.1480  135.9660 O   0  0  0  0  0  0  0  0  0  0  0  0
  190.0220  170.7830  142.1720 O   0  0  0  0  0  0  0  0  0  0  0  0
  189.7860  172.1400  142.0370 N   0  0  0  0  0  0  0  0  0  0  0  0
  190.1200  174.1870  141.6230 C   0  0  0  0  0  0  0  0  0  0  0  0
  190.7080  172.9800  141.5910 N   0  0  0  0  0  2  0  0  0  0  0  0
  188.6420  172.7420  142.3400 N   0  0  0  0  0  0  0  0  0  0  0  0
  188.8220  174.0480  142.0680 C   0  0  0  0  0  0  0  0  0  0  0  0
  190.6990  175.2610  141.3150 O   0  0  0  0  0  0  0  0  0  0  0  0
  187.5060  175.8720  141.2600 O   0  0  0  0  0  1  0  0  0  0  0  0
  187.8190  175.1200  142.3950 C   0  0  2  0  0  3  0  0  0  0  0  0
  188.2550  175.9940  143.4840 N   0  0  0  0  0  2  0  0  0  0  0  0
  188.5650  175.2070  144.6080 N   0  0  0  0  0  2  0  0  0  0  0  0
  189.6730  175.8610  145.2970 C   0  0  2  0  0  3  0  0  0  0  0  0
  191.0140  175.2860  144.8550 C   0  0  2  0  0  3  0  0  0  0  0  0
  191.9060  175.1150  146.0660 C   0  0  0  0  0  2  0  0  0  0  0  0
  192.1290  176.2870  145.1300 C   0  0  1  0  0  3  0  0  0  0  0  0
  196.9350  174.8360  141.2160 C   0  0  0  0  0  1  0  0  0  0  0  0
  194.6350  176.0150  146.6540 C   0  0  0  0  0  2  0  0  0  0  0  0
  194.6610  175.8870  145.1380 C   0  0  0  0  0  0  0  0  0  0  0  0
  193.5870  177.0150  143.2870 O   0  0  0  0  0  0  0  0  0  0  0  0
  194.5140  175.1560  139.9450 S   0  0  0  0  0  0  0  0  0  0  0  0
  195.8230  173.1780  143.3390 C   0  0  0  0  0  2  0  0  0  0  0  0
  195.0800  177.1870  145.7970 C   0  0  0  0  0  2  0  0  0  0  0  0
  195.5350  173.8530  144.6720 C   0  0  2  0  0  3  0  0  0  0  0  0
  193.3000  176.3700  142.0800 C   0  0  0  0  0  2  0  0  0  0  0  0
  195.6110  174.1180  140.9790 C   0  0  2  0  0  3  0  0  0  0  0  0
  194.4470  176.5620  141.1080 C   0  0  0  0  0  2  0  0  0  0  0  0
  193.3890  176.0390  144.2770 C   0  0  2  0  0  3  0  0  0  0  0  0
  194.8930  173.7390  142.2750 C   0  0  0  0  0  2  0  0  0  0  0  0
  195.7740  175.2360  144.5780 O   0  0  0  0  0  0  0  0  0  0  0  0
  196.4030  173.2470  145.7300 C   0  0  0  0  0  0  0  0  0  0  0  0
  197.2020  174.0660  146.5160 O   0  0  0  0  0  1  0  0  0  0  0  0
  196.3860  172.0040  145.9360 O   0  0  0  0  0  0  0  0  0  0  0  0
  188.2290  175.6550  146.9330 O   0  0  0  0  0  1  0  0  0  0  0  0
  189.5210  175.7950  146.6970 O   0  0  0  0  0  0  0  0  0  0  0  0
  1 35  1  0  0  0  0
  1 16  1  0  0  0  0
  2 23  1  0  0  0  0
  2  5  1  0  0  0  0
  3 15  1  0  0  0  0
  4  6  2  0  0  0  0
  5 18  1  0  0  0  0
  6 11  1  0  0  0  0
  7  3  2  0  0  0  0
  7  8  1  0  0  0  0
  8  9  1  0  0  0  0
  9 33  1  6  0  0  0
  9 13  1  0  0  0  0
 10 19  1  0  0  0  0
 10 16  1  0  0  0  0
 11 22  2  0  0  0  0
 11 19  1  0  0  0  0
 12 21  1  0  0  0  0
 12 20  1  0  0  0  0
 13  6  1  0  0  0  0
 14 21  2  0  0  0  0
 15 23  1  0  0  0  0
 17  1  2  0  0  0  0
 18 17  1  0  0  0  0
 19 12  2  0  0  0  0
 22 14  1  0  0  0  0
 24 31  1  0  0  0  0
 24 25  1  0  0  0  0
 25 27  1  6  0  0  0
 25 28  1  0  0  0  0
 29 26  1  0  0  0  0
 29 28  1  0  0  0  0
 30 31  1  0  0  0  0
 30 26  1  0  0  0  0
 31  3  1  1  0  0  0
 32 33  1  0  0  0  0
 34 33  2  0  0  0  0
 36 35  1  0  0  0  0
 36 39  1  0  0  0  0
 37 40  1  0  0  0  0
 38 37  1  0  0  0  0
 38 36  1  0  0  0  0
 40 39  2  0  0  0  0
 40 43  1  0  0  0  0
 41 37  2  0  0  0  0
 43 42  1  6  0  0  0
 43 44  1  0  0  0  0
 44 45  1  0  0  0  0
 46 45  1  6  0  0  0
 46 68  1  0  0  0  0
 47 49  1  0  0  0  0
 47 46  1  1  0  0  0
 47 48  1  0  0  0  0
 49 48  1  1  0  0  0
 52 56  1  0  0  0  0
 52 51  1  0  0  0  0
 54 59  1  0  0  0  0
 54 60  1  0  0  0  0
 55 57  1  0  0  0  0
 56 51  1  0  0  0  0
 57 64  1  1  0  0  0
 58 53  1  0  0  0  0
 59 50  1  1  0  0  0
 59 62  1  0  0  0  0
 60 58  1  0  0  0  0
 61 53  1  6  0  0  0
 61 49  1  0  0  0  0
 61 52  1  0  0  0  0
 62 55  1  0  0  0  0
 63 57  1  0  0  0  0
 63 52  1  0  0  0  0
 64 66  2  0  0  0  0
 64 65  1  0  0  0  0
 68 67  1  0  0  0  0
M  END
>  <MODEL>
4

>  <REMARK>
 VINA RESULT:      -6.7      3.109      8.004
  Name = 
  12 active torsions:
  status: ('A' for Active; 'I' for Inactive)
    1  A    between atoms: N_2  and  C_56
    2  A    between atoms: N_2  and  N_68
    3  A    between atoms: C_3  and  C_30
    4  A    between atoms: N_5  and  O_53
    5  A    between atoms: C_6  and  O_53
    6  A    between atoms: C_9  and  C_66
    7  A    between atoms: C_11  and  C_60
    8  A    between atoms: C_25  and  C_34
    9  A    between atoms: C_48  and  C_56
   10  A    between atoms: C_51  and  C_61
   11  A    between atoms: O_63  and  C_66
   12  A    between atoms: C_66  and  N_68
                            x       y       z     vdW  Elec       q    Type
                         _______ _______ _______ _____ _____    ______ ____

>  <TORSDO>
F 12

$$$$
=
 OpenBabel11042417353D

 68 74  0  0  1  0  0  0  0  0999 V2000
  190.4870  173.3580  139.2000 C   0  0  0  0  0  0  0  0  0  0  0  0
  193.7860  173.1490  141.9790 C   0  0  0  0  0  2  0  0  0  0  0  0
  196.2600  171.2200  141.7460 C   0  0  0  0  0  0  0  0  0  0  0  0
  193.2020  170.0810  139.0490 O   0  0  0  0  0  0  0  0  0  0  0  0
  193.4040  174.3730  141.1670 C   0  0  0  0  0  2  0  0  0  0  0  0
  193.6260  169.9900  137.8650 C   0  0  0  0  0  0  0  0  0  0  0  0
  196.8580  171.3280  140.5580 C   0  0  0  0  0  3  0  0  0  0  0  0
  196.1340  171.3660  139.2510 C   0  0  0  0  0  2  0  0  0  0  0  0
  196.0180  169.9500  138.6840 C   0  0  1  0  0  3  0  0  0  0  0  0
  191.1210  171.4210  137.9200 N   0  0  0  0  0  2  0  0  0  0  0  0
  192.6820  169.9500  136.7310 C   0  0  0  0  0  0  0  0  0  0  0  0
  190.5900  170.5410  135.6470 C   0  0  0  0  0  0  0  0  0  0  0  0
  195.0290  169.9060  137.6170 N   0  0  0  0  0  2  0  0  0  0  0  0
  192.2440  169.2050  134.5140 C   0  0  0  0  0  3  0  0  0  0  0  0
  194.8310  171.2430  141.8910 N   0  0  0  0  0  2  0  0  0  0  0  0
  190.3580  172.6590  137.8860 C   0  0  0  0  0  2  0  0  0  0  0  0
  191.6750  173.6830  139.6050 N   0  0  0  0  0  0  0  0  0  0  0  0
  191.9190  174.3680  140.8640 C   0  0  0  0  0  2  0  0  0  0  0  0
  191.4430  170.6280  136.7700 C   0  0  0  0  0  0  0  0  0  0  0  0
  189.2280  171.1500  135.6250 C   0  0  0  0  0  1  0  0  0  0  0  0
  190.9980  169.8270  134.5220 C   0  0  0  0  0  3  0  0  0  0  0  0
  193.0480  169.2810  135.6030 N   0  0  0  0  0  0  0  0  0  0  0  0
  194.0400  172.0550  141.1470 O   0  0  0  0  0  0  0  0  0  0  0  0
  197.9350  172.2080  143.4230 C   0  0  0  0  0  2  0  0  0  0  0  0
  197.1140  173.4400  143.8300 C   0  0  2  0  0  3  0  0  0  0  0  0
  195.4660  170.9770  144.8730 C   0  0  0  0  0  2  0  0  0  0  0  0
  197.9390  174.3380  144.5060 O   0  0  0  0  0  1  0  0  0  0  0  0
  195.8820  173.1370  144.6880 C   0  0  0  0  0  2  0  0  0  0  0  0
  196.1000  172.0390  145.5260 O   0  0  0  0  0  0  0  0  0  0  0  0
  196.4790  170.1750  144.0640 C   0  0  0  0  0  2  0  0  0  0  0  0
  197.1330  170.9910  142.9430 C   0  0  1  0  0  3  0  0  0  0  0  0
  197.9390  168.2960  138.6800 N   0  0  0  0  0  1  0  0  0  0  0  0
  197.3370  169.4780  138.1630 C   0  0  0  0  0  0  0  0  0  0  0  0
  197.9140  170.1240  137.2510 O   0  0  0  0  0  0  0  0  0  0  0  0
  189.3660  173.6350  140.0040 O   0  0  0  0  0  0  0  0  0  0  0  0
  188.4390  174.6240  139.7230 N   0  0  0  0  0  0  0  0  0  0  0  0
  187.2430  175.9770  138.6220 C   0  0  0  0  0  0  0  0  0  0  0  0
  188.1520  174.9980  138.4850 N   0  0  0  0  0  2  0  0  0  0  0  0
  187.7560  175.3010  140.6390 N   0  0  0  0  0  0  0  0  0  0  0  0
  186.9710  176.1600  139.9620 C   0  0  0  0  0  0  0  0  0  0  0  0
  186.7550  176.6250  137.6600 O   0  0  0  0  0  0  0  0  0  0  0  0
  186.6040  178.4970  140.3040 O   0  0  0  0  0  1  0  0  0  0  0  0
  186.1270  177.2210  140.6150 C   0  0  2  0  0  3  0  0  0  0  0  0
  186.0230  177.0520  142.0640 N   0  0  0  0  0  2  0  0  0  0  0  0
  185.4940  178.2280  142.6260 N   0  0  0  0  0  2  0  0  0  0  0  0
  186.3910  178.6300  143.7050 C   0  0  2  0  0  3  0  0  0  0  0  0
  187.2480  177.4600  144.1740 C   0  0  2  0  0  3  0  0  0  0  0  0
  188.0090  177.8680  145.4180 C   0  0  0  0  0  2  0  0  0  0  0  0
  188.7240  177.8230  144.0810 C   0  0  1  0  0  3  0  0  0  0  0  0
  192.1320  172.4530  144.3580 C   0  0  0  0  0  1  0  0  0  0  0  0
  191.5940  178.4240  143.7980 C   0  0  0  0  0  2  0  0  0  0  0  0
  191.1370  176.9760  143.8990 C   0  0  0  0  0  0  0  0  0  0  0  0
  189.2940  175.6780  143.0190 O   0  0  0  0  0  0  0  0  0  0  0  0
  189.4170  172.0670  144.5790 S   0  0  0  0  0  0  0  0  0  0  0  0
  192.1690  174.6690  146.2510 C   0  0  0  0  0  2  0  0  0  0  0  0
  191.4700  177.5740  142.5450 C   0  0  0  0  0  2  0  0  0  0  0  0
  192.2100  176.0770  145.6760 C   0  0  2  0  0  3  0  0  0  0  0  0
  188.7620  174.5780  143.6980 C   0  0  0  0  0  2  0  0  0  0  0  0
  190.9880  172.5960  145.3550 C   0  0  2  0  0  3  0  0  0  0  0  0
  189.4500  173.3080  143.2390 C   0  0  0  0  0  2  0  0  0  0  0  0
  189.6480  176.5900  144.0270 C   0  0  2  0  0  3  0  0  0  0  0  0
  190.8410  174.0160  145.9020 C   0  0  0  0  0  2  0  0  0  0  0  0
  192.1080  176.0310  144.2740 O   0  0  0  0  0  0  0  0  0  0  0  0
  193.4870  176.7400  146.0840 C   0  0  0  0  0  0  0  0  0  0  0  0
  194.3830  177.1620  145.1110 O   0  0  0  0  0  0  0  0  0  0  0  0
  193.7390  176.9500  147.3000 O   0  0  0  0  0  1  0  0  0  0  0  0
  184.7730  180.0090  144.2430 O   0  0  0  0  0  1  0  0  0  0  0  0
  185.6810  179.2110  144.7760 O   0  0  0  0  0  0  0  0  0  0  0  0
  1 17  2  0  0  0  0
  1 35  1  0  0  0  0
  3 15  1  0  0  0  0
  5  2  1  0  0  0  0
  6  4  2  0  0  0  0
  7  3  2  0  0  0  0
  8  7  1  0  0  0  0
  9 33  1  6  0  0  0
  9  8  1  0  0  0  0
 11 19  1  0  0  0  0
 11  6  1  0  0  0  0
 12 19  2  0  0  0  0
 13  6  1  0  0  0  0
 13  9  1  0  0  0  0
 14 21  2  0  0  0  0
 14 22  1  0  0  0  0
 16 10  1  0  0  0  0
 16  1  1  0  0  0  0
 17 18  1  0  0  0  0
 18  5  1  0  0  0  0
 19 10  1  0  0  0  0
 20 12  1  0  0  0  0
 21 12  1  0  0  0  0
 22 11  2  0  0  0  0
 23 15  1  0  0  0  0
 23  2  1  0  0  0  0
 24 25  1  0  0  0  0
 25 27  1  1  0  0  0
 25 28  1  0  0  0  0
 26 29  1  0  0  0  0
 28 29  1  0  0  0  0
 30 26  1  0  0  0  0
 31  3  1  6  0  0  0
 31 24  1  0  0  0  0
 31 30  1  0  0  0  0
 33 32  1  0  0  0  0
 34 33  2  0  0  0  0
 36 35  1  0  0  0  0
 36 39  1  0  0  0  0
 37 40  1  0  0  0  0
 38 37  1  0  0  0  0
 38 36  1  0  0  0  0
 40 43  1  0  0  0  0
 40 39  2  0  0  0  0
 41 37  2  0  0  0  0
 43 42  1  1  0  0  0
 43 44  1  0  0  0  0
 44 45  1  0  0  0  0
 46 45  1  6  0  0  0
 46 68  1  0  0  0  0
 47 46  1  6  0  0  0
 47 48  1  0  0  0  0
 49 47  1  0  0  0  0
 49 48  1  1  0  0  0
 51 52  1  0  0  0  0
 52 61  1  0  0  0  0
 52 63  1  0  0  0  0
 53 58  1  0  0  0  0
 54 59  1  0  0  0  0
 56 51  1  0  0  0  0
 56 52  1  0  0  0  0
 57 64  1  6  0  0  0
 57 55  1  0  0  0  0
 59 50  1  6  0  0  0
 59 62  1  0  0  0  0
 60 58  1  0  0  0  0
 60 54  1  0  0  0  0
 61 53  1  6  0  0  0
 61 49  1  0  0  0  0
 62 55  1  0  0  0  0
 63 57  1  0  0  0  0
 64 66  1  0  0  0  0
 65 64  2  0  0  0  0
 67 68  1  0  0  0  0
M  END
>  <MODEL>
5

>  <REMARK>
 VINA RESULT:      -6.5      3.114      7.462
  Name = 
  12 active torsions:
  status: ('A' for Active; 'I' for Inactive)
    1  A    between atoms: N_2  and  C_56
    2  A    between atoms: N_2  and  N_68
    3  A    between atoms: C_3  and  C_30
    4  A    between atoms: N_5  and  O_53
    5  A    between atoms: C_6  and  O_53
    6  A    between atoms: C_9  and  C_66
    7  A    between atoms: C_11  and  C_60
    8  A    between atoms: C_25  and  C_34
    9  A    between atoms: C_48  and  C_56
   10  A    between atoms: C_51  and  C_61
   11  A    between atoms: O_63  and  C_66
   12  A    between atoms: C_66  and  N_68
                            x       y       z     vdW  Elec       q    Type
                         _______ _______ _______ _____ _____    ______ ____

>  <TORSDO>
F 12

$$$$
=
 OpenBabel11042417353D

 68 74  0  0  1  0  0  0  0  0999 V2000
  189.4460  175.0720  143.5860 C   0  0  0  0  0  0  0  0  0  0  0  0
  191.4720  171.4580  142.3680 C   0  0  0  0  0  2  0  0  0  0  0  0
  191.2420  170.0900  139.5450 C   0  0  0  0  0  0  0  0  0  0  0  0
  188.2550  173.0510  140.0330 O   0  0  0  0  0  0  0  0  0  0  0  0
  192.1590  172.7450  142.7920 C   0  0  0  0  0  2  0  0  0  0  0  0
  188.2650  173.8910  139.0930 C   0  0  0  0  0  0  0  0  0  0  0  0
  191.5110  170.9480  138.5590 C   0  0  0  0  0  3  0  0  0  0  0  0
  190.9700  172.3390  138.4800 C   0  0  0  0  0  2  0  0  0  0  0  0
  189.6720  172.3430  137.6720 C   0  0  1  0  0  3  0  0  0  0  0  0
  188.0470  175.2390  141.6350 N   0  0  0  0  0  2  0  0  0  0  0  0
  187.5590  175.1800  139.2320 C   0  0  0  0  0  0  0  0  0  0  0  0
  186.7370  177.0570  140.5380 C   0  0  0  0  0  0  0  0  0  0  0  0
  188.9470  173.5890  137.8760 N   0  0  0  0  0  2  0  0  0  0  0  0
  186.4190  176.9670  138.1510 C   0  0  0  0  0  3  0  0  0  0  0  0
  190.4820  170.4670  140.7040 N   0  0  0  0  0  2  0  0  0  0  0  0
  188.6320  175.9910  142.7340 C   0  0  0  0  0  2  0  0  0  0  0  0
  190.4270  174.4330  143.0300 N   0  0  0  0  0  0  0  0  0  0  0  0
  191.2870  173.5170  143.7620 C   0  0  0  0  0  2  0  0  0  0  0  0
  187.4290  175.8250  140.4820 C   0  0  0  0  0  0  0  0  0  0  0  0
  186.4740  177.7710  141.8200 C   0  0  0  0  0  1  0  0  0  0  0  0
  186.2350  177.6210  139.3670 C   0  0  0  0  0  3  0  0  0  0  0  0
  187.0700  175.7780  138.1110 N   0  0  0  0  0  0  0  0  0  0  0  0
  190.6110  171.6830  141.2910 O   0  0  0  0  0  0  0  0  0  0  0  0
  191.7590  168.1660  137.9250 C   0  0  0  0  0  2  0  0  0  0  0  0
  192.6920  168.9390  136.9810 C   0  0  2  0  0  3  0  0  0  0  0  0
  194.2160  168.8290  139.7260 C   0  0  0  0  0  2  0  0  0  0  0  0
  192.8680  168.2050  135.8080 O   0  0  0  0  0  1  0  0  0  0  0  0
  194.0600  169.2890  137.5720 C   0  0  0  0  0  2  0  0  0  0  0  0
  194.5010  168.3040  138.4610 O   0  0  0  0  0  0  0  0  0  0  0  0
  192.8930  168.2740  140.2420 C   0  0  0  0  0  2  0  0  0  0  0  0
  191.6950  168.6720  139.3730 C   0  0  1  0  0  3  0  0  0  0  0  0
  190.5490  173.2090  135.4570 N   0  0  0  0  0  1  0  0  0  0  0  0
  189.9540  172.1620  136.2150 C   0  0  0  0  0  0  0  0  0  0  0  0
  189.6730  171.0690  135.6580 O   0  0  0  0  0  0  0  0  0  0  0  0
  189.1510  174.8690  144.9460 O   0  0  0  0  0  0  0  0  0  0  0  0
  189.5160  175.7430  145.9560 N   0  0  0  0  0  0  0  0  0  0  0  0
  189.4970  177.4280  147.2350 C   0  0  0  0  0  0  0  0  0  0  0  0
  188.8290  176.8430  146.2270 N   0  0  0  0  0  2  0  0  0  0  0  0
  190.5750  175.5890  146.7420 N   0  0  0  0  0  0  0  0  0  0  0  0
  190.5770  176.6420  147.5800 C   0  0  0  0  0  0  0  0  0  0  0  0
  189.1760  178.5330  147.7440 O   0  0  0  0  0  0  0  0  0  0  0  0
  191.2440  177.8050  149.5590 O   0  0  0  0  0  1  0  0  0  0  0  0
  191.6850  176.9410  148.5530 C   0  0  2  0  0  3  0  0  0  0  0  0
  192.8820  177.4760  147.9060 N   0  0  0  0  0  2  0  0  0  0  0  0
  193.4750  176.4640  147.1300 N   0  0  0  0  0  2  0  0  0  0  0  0
  193.9710  177.0940  145.9100 C   0  0  2  0  0  3  0  0  0  0  0  0
  194.2880  176.0540  144.8410 C   0  0  2  0  0  3  0  0  0  0  0  0
  194.1790  174.6700  145.4460 C   0  0  0  0  0  2  0  0  0  0  0  0
  195.5470  175.2850  145.2180 C   0  0  1  0  0  3  0  0  0  0  0  0
  197.8320  172.7570  139.8400 C   0  0  0  0  0  1  0  0  0  0  0  0
  196.6140  172.5880  145.7340 C   0  0  0  0  0  2  0  0  0  0  0  0
  196.7430  173.1930  144.3440 C   0  0  0  0  0  0  0  0  0  0  0  0
  197.2550  175.3810  143.4490 O   0  0  0  0  0  0  0  0  0  0  0  0
  196.8180  175.2970  139.5400 S   0  0  0  0  0  0  0  0  0  0  0  0
  195.5570  171.8230  141.4040 C   0  0  0  0  0  2  0  0  0  0  0  0
  197.9260  173.2120  145.2930 C   0  0  0  0  0  2  0  0  0  0  0  0
  195.7280  171.7620  142.9150 C   0  0  2  0  0  3  0  0  0  0  0  0
  196.7460  175.8280  142.2260 C   0  0  0  0  0  2  0  0  0  0  0  0
  196.5070  173.5050  139.7430 C   0  0  2  0  0  3  0  0  0  0  0  0
  197.7210  175.5040  141.1130 C   0  0  0  0  0  2  0  0  0  0  0  0
  196.2260  174.6070  144.0100 C   0  0  2  0  0  3  0  0  0  0  0  0
  195.5950  173.2720  140.9470 C   0  0  0  0  0  2  0  0  0  0  0  0
  196.9750  172.2970  143.2850 O   0  0  0  0  0  0  0  0  0  0  0  0
  195.6170  170.3400  143.3680 C   0  0  0  0  0  0  0  0  0  0  0  0
  194.4720  169.9160  144.0280 O   0  0  0  0  0  1  0  0  0  0  0  0
  196.5400  169.5180  143.1230 O   0  0  0  0  0  0  0  0  0  0  0  0
  195.6050  178.2380  145.0010 O   0  0  0  0  0  1  0  0  0  0  0  0
  195.0830  177.9190  146.1710 O   0  0  0  0  0  0  0  0  0  0  0  0
  1 35  1  0  0  0  0
  2  5  1  0  0  0  0
  3 15  1  0  0  0  0
  5 18  1  0  0  0  0
  6 11  1  0  0  0  0
  6  4  2  0  0  0  0
  7  3  2  0  0  0  0
  8  7  1  0  0  0  0
  9 33  1  6  0  0  0
  9 13  1  0  0  0  0
  9  8  1  0  0  0  0
 10 16  1  0  0  0  0
 11 19  1  0  0  0  0
 12 20  1  0  0  0  0
 13  6  1  0  0  0  0
 14 21  2  0  0  0  0
 15 23  1  0  0  0  0
 16  1  1  0  0  0  0
 17  1  2  0  0  0  0
 17 18  1  0  0  0  0
 19 12  2  0  0  0  0
 19 10  1  0  0  0  0
 21 12  1  0  0  0  0
 22 14  1  0  0  0  0
 22 11  2  0  0  0  0
 23  2  1  0  0  0  0
 24 31  1  0  0  0  0
 25 27  1  6  0  0  0
 25 28  1  0  0  0  0
 25 24  1  0  0  0  0
 26 30  1  0  0  0  0
 28 29  1  0  0  0  0
 29 26  1  0  0  0  0
 31  3  1  6  0  0  0
 31 30  1  0  0  0  0
 32 33  1  0  0  0  0
 34 33  2  0  0  0  0
 35 36  1  0  0  0  0
 36 38  1  0  0  0  0
 36 39  1  0  0  0  0
 37 40  1  0  0  0  0
 37 41  2  0  0  0  0
 38 37  1  0  0  0  0
 39 40  2  0  0  0  0
 40 43  1  0  0  0  0
 43 42  1  1  0  0  0
 44 43  1  0  0  0  0
 45 44  1  0  0  0  0
 46 68  1  1  0  0  0
 46 45  1  0  0  0  0
 47 49  1  0  0  0  0
 47 48  1  0  0  0  0
 47 46  1  1  0  0  0
 49 48  1  1  0  0  0
 52 56  1  0  0  0  0
 52 51  1  0  0  0  0
 54 59  1  0  0  0  0
 54 60  1  0  0  0  0
 55 57  1  0  0  0  0
 56 51  1  0  0  0  0
 57 63  1  0  0  0  0
 57 64  1  6  0  0  0
 58 53  1  0  0  0  0
 59 50  1  1  0  0  0
 59 62  1  0  0  0  0
 60 58  1  0  0  0  0
 61 53  1  1  0  0  0
 61 52  1  0  0  0  0
 61 49  1  0  0  0  0
 62 55  1  0  0  0  0
 63 52  1  0  0  0  0
 64 65  1  0  0  0  0
 66 64  2  0  0  0  0
 67 68  1  0  0  0  0
M  END
>  <MODEL>
6

>  <REMARK>
 VINA RESULT:      -6.4      3.620      7.980
  Name = 
  12 active torsions:
  status: ('A' for Active; 'I' for Inactive)
    1  A    between atoms: N_2  and  C_56
    2  A    between atoms: N_2  and  N_68
    3  A    between atoms: C_3  and  C_30
    4  A    between atoms: N_5  and  O_53
    5  A    between atoms: C_6  and  O_53
    6  A    between atoms: C_9  and  C_66
    7  A    between atoms: C_11  and  C_60
    8  A    between atoms: C_25  and  C_34
    9  A    between atoms: C_48  and  C_56
   10  A    between atoms: C_51  and  C_61
   11  A    between atoms: O_63  and  C_66
   12  A    between atoms: C_66  and  N_68
                            x       y       z     vdW  Elec       q    Type
                         _______ _______ _______ _____ _____    ______ ____

>  <TORSDO>
F 12

$$$$
=
 OpenBabel11042417353D

 68 74  0  0  1  0  0  0  0  0999 V2000
  197.0700  173.6260  140.4890 C   0  0  0  0  0  0  0  0  0  0  0  0
  193.5800  171.7210  142.1740 C   0  0  0  0  0  2  0  0  0  0  0  0
  190.7360  171.5910  140.8340 C   0  0  0  0  0  0  0  0  0  0  0  0
  193.2210  174.3710  138.8290 O   0  0  0  0  0  0  0  0  0  0  0  0
  194.8750  171.0140  141.8190 C   0  0  0  0  0  2  0  0  0  0  0  0
  193.2870  174.1390  137.5920 C   0  0  0  0  0  0  0  0  0  0  0  0
  190.7980  171.0940  139.5970 C   0  0  0  0  0  3  0  0  0  0  0  0
  191.8090  171.5020  138.5740 C   0  0  0  0  0  2  0  0  0  0  0  0
  191.2510  172.6440  137.7240 C   0  0  1  0  0  3  0  0  0  0  0  0
  195.9200  174.6650  138.6490 N   0  0  0  0  0  2  0  0  0  0  0  0
  194.3480  174.7530  136.7680 C   0  0  0  0  0  0  0  0  0  0  0  0
  196.5920  175.6260  136.4480 C   0  0  0  0  0  0  0  0  0  0  0  0
  192.3180  173.2910  136.9740 N   0  0  0  0  0  2  0  0  0  0  0  0
  195.0140  175.5520  134.6280 C   0  0  0  0  0  3  0  0  0  0  0  0
  191.7240  172.4980  141.3460 N   0  0  0  0  0  2  0  0  0  0  0  0
  197.2180  174.2120  139.1230 C   0  0  0  0  0  2  0  0  0  0  0  0
  196.2660  172.6210  140.6390 N   0  0  0  0  0  0  0  0  0  0  0  0
  196.0480  171.9690  141.9210 C   0  0  0  0  0  2  0  0  0  0  0  0
  195.6270  175.0360  137.2950 C   0  0  0  0  0  0  0  0  0  0  0  0
  197.9400  176.0400  136.9330 C   0  0  0  0  0  1  0  0  0  0  0  0
  196.2770  175.8820  135.1140 C   0  0  0  0  0  3  0  0  0  0  0  0
  194.0900  175.0010  135.4550 N   0  0  0  0  0  0  0  0  0  0  0  0
  193.0440  172.3720  141.0590 O   0  0  0  0  0  0  0  0  0  0  0  0
  189.7050  171.4310  143.1800 C   0  0  0  0  0  2  0  0  0  0  0  0
  190.0240  172.8600  143.6410 C   0  0  2  0  0  3  0  0  0  0  0  0
  187.9670  173.1990  141.2910 C   0  0  0  0  0  2  0  0  0  0  0  0
  189.8530  172.9450  145.0230 O   0  0  0  0  0  1  0  0  0  0  0  0
  189.1990  173.9550  142.9590 C   0  0  0  0  0  2  0  0  0  0  0  0
  187.9090  173.5090  142.6540 O   0  0  0  0  0  0  0  0  0  0  0  0
  188.2010  171.7050  141.0990 C   0  0  0  0  0  2  0  0  0  0  0  0
  189.5440  171.2300  141.6670 C   0  0  1  0  0  3  0  0  0  0  0  0
  189.0390  172.9070  136.5140 N   0  0  0  0  0  1  0  0  0  0  0  0
  190.2090  172.1410  136.7770 C   0  0  0  0  0  0  0  0  0  0  0  0
  190.3750  171.0350  136.2000 O   0  0  0  0  0  0  0  0  0  0  0  0
  197.7520  174.1570  141.6000 O   0  0  0  0  0  0  0  0  0  0  0  0
  197.1730  175.0020  142.5310 N   0  0  0  0  0  0  0  0  0  0  0  0
  196.7530  176.7530  143.6400 C   0  0  0  0  0  0  0  0  0  0  0  0
  197.4950  176.2840  142.6240 N   0  0  0  0  0  2  0  0  0  0  0  0
  196.2610  174.6330  143.4230 N   0  0  0  0  0  0  0  0  0  0  0  0
  195.9620  175.7360  144.1320 C   0  0  0  0  0  0  0  0  0  0  0  0
  196.8140  177.9350  144.0690 O   0  0  0  0  0  0  0  0  0  0  0  0
  195.6210  174.9710  146.3710 O   0  0  0  0  0  1  0  0  0  0  0  0
  195.0700  175.7400  145.3430 C   0  0  2  0  0  3  0  0  0  0  0  0
  193.7070  175.2990  145.0470 N   0  0  0  0  0  2  0  0  0  0  0  0
  192.8220  176.3730  145.2530 N   0  0  0  0  0  2  0  0  0  0  0  0
  192.7330  177.1030  143.9920 C   0  0  2  0  0  3  0  0  0  0  0  0
  191.2990  177.1410  143.4760 C   0  0  2  0  0  3  0  0  0  0  0  0
  190.9770  178.5430  143.0040 C   0  0  0  0  0  2  0  0  0  0  0  0
  190.4560  178.0640  144.3450 C   0  0  1  0  0  3  0  0  0  0  0  0
  184.1670  177.4750  143.5510 C   0  0  0  0  0  1  0  0  0  0  0  0
  189.2130  177.0200  146.8040 C   0  0  0  0  0  2  0  0  0  0  0  0
  188.3540  177.2530  145.5690 C   0  0  0  0  0  0  0  0  0  0  0  0
  188.6160  176.9090  143.1890 O   0  0  0  0  0  0  0  0  0  0  0  0
  185.4920  178.4150  141.3300 S   0  0  0  0  0  0  0  0  0  0  0  0
  185.5560  179.2680  145.3800 C   0  0  0  0  0  2  0  0  0  0  0  0
  188.8320  175.8540  145.9090 C   0  0  0  0  0  2  0  0  0  0  0  0
  186.7150  178.6890  146.1780 C   0  0  2  0  0  3  0  0  0  0  0  0
  187.9790  177.7160  142.2410 C   0  0  0  0  0  2  0  0  0  0  0  0
  184.8170  178.7390  143.0000 C   0  0  2  0  0  3  0  0  0  0  0  0
  186.6490  177.1030  141.8540 C   0  0  0  0  0  2  0  0  0  0  0  0
  188.9440  177.7770  144.2430 C   0  0  2  0  0  3  0  0  0  0  0  0
  185.9180  179.2920  143.9040 C   0  0  0  0  0  2  0  0  0  0  0  0
  186.9680  177.3650  145.7760 O   0  0  0  0  0  0  0  0  0  0  0  0
  186.3820  178.7350  147.6370 C   0  0  0  0  0  0  0  0  0  0  0  0
  186.1640  177.5520  148.3290 O   0  0  0  0  0  1  0  0  0  0  0  0
  186.3350  179.8360  148.2470 O   0  0  0  0  0  0  0  0  0  0  0  0
  192.8650  176.0060  142.0980 O   0  0  0  0  0  1  0  0  0  0  0  0
  193.6140  176.5730  143.0270 O   0  0  0  0  0  0  0  0  0  0  0  0
  1 17  2  0  0  0  0
  1 35  1  0  0  0  0
  3 15  1  0  0  0  0
  5 18  1  0  0  0  0
  5  2  1  0  0  0  0
  6  4  2  0  0  0  0
  7  3  2  0  0  0  0
  8  7  1  0  0  0  0
  9 33  1  6  0  0  0
  9  8  1  0  0  0  0
 10 16  1  0  0  0  0
 11 19  1  0  0  0  0
 11  6  1  0  0  0  0
 12 20  1  0  0  0  0
 12 19  2  0  0  0  0
 13  6  1  0  0  0  0
 13  9  1  0  0  0  0
 14 21  2  0  0  0  0
 14 22  1  0  0  0  0
 16  1  1  0  0  0  0
 17 18  1  0  0  0  0
 19 10  1  0  0  0  0
 21 12  1  0  0  0  0
 22 11  2  0  0  0  0
 23 15  1  0  0  0  0
 23  2  1  0  0  0  0
 24 25  1  0  0  0  0
 25 27  1  1  0  0  0
 26 29  1  0  0  0  0
 28 25  1  0  0  0  0
 29 28  1  0  0  0  0
 30 26  1  0  0  0  0
 30 31  1  0  0  0  0
 31  3  1  6  0  0  0
 31 24  1  0  0  0  0
 32 33  1  0  0  0  0
 34 33  2  0  0  0  0
 35 36  1  0  0  0  0
 36 38  1  0  0  0  0
 36 39  1  0  0  0  0
 37 41  2  0  0  0  0
 37 40  1  0  0  0  0
 38 37  1  0  0  0  0
 39 40  2  0  0  0  0
 40 43  1  0  0  0  0
 43 42  1  1  0  0  0
 44 45  1  0  0  0  0
 44 43  1  0  0  0  0
 46 68  1  6  0  0  0
 46 45  1  0  0  0  0
 47 46  1  1  0  0  0
 47 49  1  0  0  0  0
 48 47  1  0  0  0  0
 49 48  1  6  0  0  0
 52 63  1  0  0  0  0
 52 56  1  0  0  0  0
 52 51  1  0  0  0  0
 54 60  1  0  0  0  0
 54 59  1  0  0  0  0
 55 57  1  0  0  0  0
 56 51  1  0  0  0  0
 57 64  1  1  0  0  0
 58 53  1  0  0  0  0
 59 50  1  1  0  0  0
 59 62  1  0  0  0  0
 60 58  1  0  0  0  0
 61 53  1  6  0  0  0
 61 49  1  0  0  0  0
 61 52  1  0  0  0  0
 62 55  1  0  0  0  0
 63 57  1  0  0  0  0
 64 66  2  0  0  0  0
 64 65  1  0  0  0  0
 67 68  1  0  0  0  0
M  END
>  <MODEL>
7

>  <REMARK>
 VINA RESULT:      -6.0      1.629      2.633
  Name = 
  12 active torsions:
  status: ('A' for Active; 'I' for Inactive)
    1  A    between atoms: N_2  and  C_56
    2  A    between atoms: N_2  and  N_68
    3  A    between atoms: C_3  and  C_30
    4  A    between atoms: N_5  and  O_53
    5  A    between atoms: C_6  and  O_53
    6  A    between atoms: C_9  and  C_66
    7  A    between atoms: C_11  and  C_60
    8  A    between atoms: C_25  and  C_34
    9  A    between atoms: C_48  and  C_56
   10  A    between atoms: C_51  and  C_61
   11  A    between atoms: O_63  and  C_66
   12  A    between atoms: C_66  and  N_68
                            x       y       z     vdW  Elec       q    Type
                         _______ _______ _______ _____ _____    ______ ____

>  <TORSDO>
F 12

$$$$
=
 OpenBabel11042417353D

 68 74  0  0  1  0  0  0  0  0999 V2000
  193.0200  170.4140  139.9000 C   0  0  0  0  0  0  0  0  0  0  0  0
  189.6970  171.7020  137.4620 C   0  0  0  0  0  2  0  0  0  0  0  0
  189.4540  174.4870  136.0180 C   0  0  0  0  0  0  0  0  0  0  0  0
  192.6290  174.5130  138.8170 O   0  0  0  0  0  0  0  0  0  0  0  0
  190.5860  170.5080  137.1670 C   0  0  0  0  0  2  0  0  0  0  0  0
  193.7170  174.8760  138.2940 C   0  0  0  0  0  0  0  0  0  0  0  0
  190.5190  174.7390  135.2550 C   0  0  0  0  0  3  0  0  0  0  0  0
  191.9340  174.5270  135.6860 C   0  0  0  0  0  2  0  0  0  0  0  0
  192.4870  175.8160  136.2950 C   0  0  1  0  0  3  0  0  0  0  0  0
  194.1320  172.5470  139.9460 N   0  0  0  0  0  2  0  0  0  0  0  0
  195.0000  174.6290  138.9820 C   0  0  0  0  0  0  0  0  0  0  0  0
  196.4480  173.3330  140.4410 C   0  0  0  0  0  0  0  0  0  0  0  0
  193.7120  175.5480  137.0340 N   0  0  0  0  0  2  0  0  0  0  0  0
  197.2460  175.3250  139.3440 C   0  0  0  0  0  3  0  0  0  0  0  0
  189.5650  173.8680  137.3090 N   0  0  0  0  0  2  0  0  0  0  0  0
  194.3230  171.1140  140.1070 C   0  0  0  0  0  2  0  0  0  0  0  0
  192.4170  170.5680  138.7640 N   0  0  0  0  0  0  0  0  0  0  0  0
  191.1470  169.9320  138.4520 C   0  0  0  0  0  2  0  0  0  0  0  0
  195.1930  173.5030  139.8130 C   0  0  0  0  0  0  0  0  0  0  0  0
  196.7210  172.2260  141.4020 C   0  0  0  0  0  1  0  0  0  0  0  0
  197.4700  174.2500  140.2010 C   0  0  0  0  0  3  0  0  0  0  0  0
  196.0330  175.4870  138.7610 N   0  0  0  0  0  0  0  0  0  0  0  0
  190.4520  172.8740  137.5640 O   0  0  0  0  0  0  0  0  0  0  0  0
  187.0160  175.0650  136.5770 C   0  0  0  0  0  2  0  0  0  0  0  0
  187.2950  176.0340  137.7350 C   0  0  2  0  0  3  0  0  0  0  0  0
  188.4580  177.4490  135.1810 C   0  0  0  0  0  2  0  0  0  0  0  0
  186.1150  176.2560  138.4430 O   0  0  0  0  0  1  0  0  0  0  0  0
  187.8970  177.3790  137.3150 C   0  0  0  0  0  2  0  0  0  0  0  0
  187.4240  177.7830  136.0630 O   0  0  0  0  0  0  0  0  0  0  0  0
  188.1730  176.1060  134.5180 C   0  0  0  0  0  2  0  0  0  0  0  0
  188.1170  174.9440  135.5160 C   0  0  1  0  0  3  0  0  0  0  0  0
  194.0930  177.1270  134.8360 N   0  0  0  0  0  1  0  0  0  0  0  0
  192.7580  176.8320  135.2310 C   0  0  0  0  0  0  0  0  0  0  0  0
  191.7960  177.4210  134.6740 O   0  0  0  0  0  0  0  0  0  0  0  0
  192.4320  169.6320  140.9120 O   0  0  0  0  0  0  0  0  0  0  0  0
  192.9980  169.4280  142.1590 N   0  0  0  0  0  0  0  0  0  0  0  0
  193.2530  168.7300  144.1390 C   0  0  0  0  0  0  0  0  0  0  0  0
  192.4320  168.6610  143.0790 N   0  0  0  0  0  2  0  0  0  0  0  0
  194.1380  169.9710  142.5700 N   0  0  0  0  0  0  0  0  0  0  0  0
  194.3330  169.5280  143.8250 C   0  0  0  0  0  0  0  0  0  0  0  0
  193.0290  168.1660  145.2420 O   0  0  0  0  0  0  0  0  0  0  0  0
  195.7590  169.0410  145.6810 O   0  0  0  0  0  1  0  0  0  0  0  0
  195.4420  170.0070  144.7230 C   0  0  2  0  0  3  0  0  0  0  0  0
  195.1400  171.2860  145.3660 N   0  0  0  0  0  2  0  0  0  0  0  0
  195.7780  172.3190  144.6550 N   0  0  0  0  0  2  0  0  0  0  0  0
  195.3110  173.5810  145.2200 C   0  0  2  0  0  3  0  0  0  0  0  0
  194.0390  174.0570  144.5280 C   0  0  2  0  0  3  0  0  0  0  0  0
  193.6060  175.3750  145.1340 C   0  0  0  0  0  2  0  0  0  0  0  0
  192.8860  174.0970  145.5220 C   0  0  1  0  0  3  0  0  0  0  0  0
  187.5120  173.8690  142.1170 C   0  0  0  0  0  1  0  0  0  0  0  0
  190.8830  175.9350  146.6580 C   0  0  0  0  0  2  0  0  0  0  0  0
  190.5090  175.0540  145.4750 C   0  0  0  0  0  0  0  0  0  0  0  0
  190.9400  172.7670  144.8140 O   0  0  0  0  0  0  0  0  0  0  0  0
  189.4870  172.1830  141.2050 S   0  0  0  0  0  0  0  0  0  0  0  0
  189.3160  176.1370  142.4210 C   0  0  0  0  0  2  0  0  0  0  0  0
  190.0920  174.6580  146.8790 C   0  0  0  0  0  2  0  0  0  0  0  0
  189.8270  176.4400  143.8220 C   0  0  2  0  0  3  0  0  0  0  0  0
  191.0100  172.3750  143.4750 C   0  0  0  0  0  2  0  0  0  0  0  0
  188.8220  173.8840  141.3380 C   0  0  2  0  0  3  0  0  0  0  0  0
  189.6470  171.9100  143.0030 C   0  0  0  0  0  2  0  0  0  0  0  0
  191.5010  174.0540  144.8450 C   0  0  2  0  0  3  0  0  0  0  0  0
  189.8770  174.8030  141.9530 C   0  0  0  0  0  2  0  0  0  0  0  0
  189.3900  175.4510  144.7210 O   0  0  0  0  0  0  0  0  0  0  0  0
  189.3310  177.7860  144.2480 C   0  0  0  0  0  0  0  0  0  0  0  0
  188.0400  177.9180  144.7410 O   0  0  0  0  0  1  0  0  0  0  0  0
  190.0880  178.7920  144.1960 O   0  0  0  0  0  0  0  0  0  0  0  0
  196.9950  174.4630  146.3110 O   0  0  0  0  0  1  0  0  0  0  0  0
  196.3180  174.5660  145.1820 O   0  0  0  0  0  0  0  0  0  0  0  0
  1 16  1  0  0  0  0
  1 35  1  0  0  0  0
  2 23  1  0  0  0  0
  3 15  1  0  0  0  0
  5  2  1  0  0  0  0
  5 18  1  0  0  0  0
  6  4  2  0  0  0  0
  6 11  1  0  0  0  0
  7  8  1  0  0  0  0
  7  3  2  0  0  0  0
  8  9  1  0  0  0  0
  9 33  1  6  0  0  0
  9 13  1  0  0  0  0
 10 16  1  0  0  0  0
 11 19  1  0  0  0  0
 12 20  1  0  0  0  0
 13  6  1  0  0  0  0
 14 21  2  0  0  0  0
 15 23  1  0  0  0  0
 17  1  2  0  0  0  0
 18 17  1  0  0  0  0
 19 10  1  0  0  0  0
 19 12  2  0  0  0  0
 21 12  1  0  0  0  0
 22 11  2  0  0  0  0
 22 14  1  0  0  0  0
 24 25  1  0  0  0  0
 25 27  1  6  0  0  0
 26 29  1  0  0  0  0
 28 25  1  0  0  0  0
 29 28  1  0  0  0  0
 30 26  1  0  0  0  0
 30 31  1  0  0  0  0
 31  3  1  1  0  0  0
 31 24  1  0  0  0  0
 32 33  1  0  0  0  0
 34 33  2  0  0  0  0
 35 36  1  0  0  0  0
 36 39  1  0  0  0  0
 36 38  1  0  0  0  0
 37 41  2  0  0  0  0
 38 37  1  0  0  0  0
 39 40  2  0  0  0  0
 40 37  1  0  0  0  0
 40 43  1  0  0  0  0
 43 44  1  0  0  0  0
 43 42  1  1  0  0  0
 45 44  1  0  0  0  0
 46 45  1  6  0  0  0
 47 48  1  0  0  0  0
 47 46  1  1  0  0  0
 47 49  1  0  0  0  0
 49 48  1  6  0  0  0
 51 56  1  0  0  0  0
 52 51  1  0  0  0  0
 52 56  1  0  0  0  0
 54 59  1  0  0  0  0
 54 60  1  0  0  0  0
 55 57  1  0  0  0  0
 57 64  1  1  0  0  0
 57 63  1  0  0  0  0
 58 53  1  0  0  0  0
 59 62  1  0  0  0  0
 59 50  1  1  0  0  0
 60 58  1  0  0  0  0
 61 53  1  1  0  0  0
 61 52  1  0  0  0  0
 61 49  1  0  0  0  0
 62 55  1  0  0  0  0
 63 52  1  0  0  0  0
 64 65  1  0  0  0  0
 66 64  2  0  0  0  0
 68 46  1  0  0  0  0
 68 67  1  0  0  0  0
M  END
>  <MODEL>
8

>  <REMARK>
 VINA RESULT:      -5.9      2.729      5.334
  Name = 
  12 active torsions:
  status: ('A' for Active; 'I' for Inactive)
    1  A    between atoms: N_2  and  C_56
    2  A    between atoms: N_2  and  N_68
    3  A    between atoms: C_3  and  C_30
    4  A    between atoms: N_5  and  O_53
    5  A    between atoms: C_6  and  O_53
    6  A    between atoms: C_9  and  C_66
    7  A    between atoms: C_11  and  C_60
    8  A    between atoms: C_25  and  C_34
    9  A    between atoms: C_48  and  C_56
   10  A    between atoms: C_51  and  C_61
   11  A    between atoms: O_63  and  C_66
   12  A    between atoms: C_66  and  N_68
                            x       y       z     vdW  Elec       q    Type
                         _______ _______ _______ _____ _____    ______ ____

>  <TORSDO>
F 12

$$$$
=
 OpenBabel11042417353D

 68 74  0  0  1  0  0  0  0  0999 V2000
  191.3710  175.7490  142.2770 C   0  0  0  0  0  0  0  0  0  0  0  0
  190.5100  173.8610  138.4900 C   0  0  0  0  0  2  0  0  0  0  0  0
  192.6490  172.9010  136.3920 C   0  0  0  0  0  0  0  0  0  0  0  0
  194.4290  175.3640  139.3400 O   0  0  0  0  0  0  0  0  0  0  0  0
  190.1360  173.3010  139.8500 C   0  0  0  0  0  2  0  0  0  0  0  0
  195.4170  174.8050  139.8880 C   0  0  0  0  0  0  0  0  0  0  0  0
  193.5530  172.0920  136.9470 C   0  0  0  0  0  3  0  0  0  0  0  0
  194.2250  172.3510  138.2570 C   0  0  0  0  0  2  0  0  0  0  0  0
  195.5370  173.1010  138.0230 C   0  0  1  0  0  3  0  0  0  0  0  0
  193.7280  176.0260  141.8840 N   0  0  0  0  0  2  0  0  0  0  0  0
  195.9630  175.3240  141.1570 C   0  0  0  0  0  0  0  0  0  0  0  0
  195.7340  176.4210  143.3130 C   0  0  0  0  0  0  0  0  0  0  0  0
  196.0280  173.6730  139.2680 N   0  0  0  0  0  2  0  0  0  0  0  0
  197.8650  175.5820  142.5640 C   0  0  0  0  0  3  0  0  0  0  0  0
  192.1430  174.0630  137.0670 N   0  0  0  0  0  2  0  0  0  0  0  0
  192.7070  175.9410  142.9160 C   0  0  0  0  0  2  0  0  0  0  0  0
  191.1990  174.7120  141.5200 N   0  0  0  0  0  0  0  0  0  0  0  0
  189.9400  174.4230  140.8510 C   0  0  0  0  0  2  0  0  0  0  0  0
  195.1400  175.9470  142.1210 C   0  0  0  0  0  0  0  0  0  0  0  0
  194.9660  177.1670  144.3510 C   0  0  0  0  0  1  0  0  0  0  0  0
  197.0990  176.2350  143.5270 C   0  0  0  0  0  3  0  0  0  0  0  0
  197.2880  175.1460  141.4170 N   0  0  0  0  0  0  0  0  0  0  0  0
  191.8880  174.0760  138.3990 O   0  0  0  0  0  0  0  0  0  0  0  0
  192.2360  171.1210  134.5880 C   0  0  0  0  0  2  0  0  0  0  0  0
  191.3430  170.1900  135.4200 C   0  0  2  0  0  3  0  0  0  0  0  0
  189.6850  172.8390  135.0960 C   0  0  0  0  0  2  0  0  0  0  0  0
  191.2340  168.9600  134.7720 O   0  0  0  0  0  1  0  0  0  0  0  0
  189.9430  170.7350  135.7140 C   0  0  0  0  0  2  0  0  0  0  0  0
  189.4700  171.5260  134.6630 O   0  0  0  0  0  0  0  0  0  0  0  0
  190.9870  173.3790  134.5160 C   0  0  0  0  0  2  0  0  0  0  0  0
  192.2220  172.6030  134.9860 C   0  0  1  0  0  3  0  0  0  0  0  0
  197.2530  172.5320  136.2460 N   0  0  0  0  0  1  0  0  0  0  0  0
  196.5740  172.1900  137.4490 C   0  0  0  0  0  0  0  0  0  0  0  0
  196.8570  171.1170  138.0430 O   0  0  0  0  0  0  0  0  0  0  0  0
  190.3260  176.6750  142.4550 O   0  0  0  0  0  0  0  0  0  0  0  0
  189.4610  176.6680  143.5350 N   0  0  0  0  0  0  0  0  0  0  0  0
  187.8770  177.2260  144.8210 C   0  0  0  0  0  0  0  0  0  0  0  0
  188.4620  177.5310  143.6520 N   0  0  0  0  0  2  0  0  0  0  0  0
  189.5370  175.8250  144.5590 N   0  0  0  0  0  0  0  0  0  0  0  0
  188.5260  176.1480  145.3860 C   0  0  0  0  0  0  0  0  0  0  0  0
  186.9070  177.8620  145.3100 O   0  0  0  0  0  0  0  0  0  0  0  0
  187.5120  176.3460  147.5420 O   0  0  0  0  0  1  0  0  0  0  0  0
  188.3210  175.5320  146.7430 C   0  0  2  0  0  3  0  0  0  0  0  0
  189.5790  175.2310  147.4270 N   0  0  0  0  0  2  0  0  0  0  0  0
  190.3130  174.3140  146.6540 N   0  0  0  0  0  2  0  0  0  0  0  0
  191.6550  174.8660  146.4940 C   0  0  2  0  0  3  0  0  0  0  0  0
  192.6960  173.7580  146.3740 C   0  0  2  0  0  3  0  0  0  0  0  0
  193.9950  174.3480  145.8690 C   0  0  0  0  0  2  0  0  0  0  0  0
  193.1010  173.5770  144.9170 C   0  0  1  0  0  3  0  0  0  0  0  0
  196.2580  168.2080  143.6010 C   0  0  0  0  0  1  0  0  0  0  0  0
  191.3790  171.7290  143.4010 C   0  0  0  0  0  2  0  0  0  0  0  0
  192.7740  171.2860  143.8160 C   0  0  0  0  0  0  0  0  0  0  0  0
  194.1540  171.5300  145.7880 O   0  0  0  0  0  0  0  0  0  0  0  0
  197.7190  170.0400  145.0450 S   0  0  0  0  0  0  0  0  0  0  0  0
  195.2780  170.1910  141.7050 C   0  0  0  0  0  2  0  0  0  0  0  0
  191.5660  170.8350  144.6150 C   0  0  0  0  0  2  0  0  0  0  0  0
  193.8680  170.7220  141.9170 C   0  0  2  0  0  3  0  0  0  0  0  0
  195.5500  171.5690  145.7250 C   0  0  0  0  0  2  0  0  0  0  0  0
  197.0230  169.5160  143.4350 C   0  0  2  0  0  3  0  0  0  0  0  0
  196.1130  170.1730  145.9020 C   0  0  0  0  0  2  0  0  0  0  0  0
  193.7200  172.1940  144.6290 C   0  0  2  0  0  3  0  0  0  0  0  0
  196.1680  170.6410  142.8520 C   0  0  0  0  0  2  0  0  0  0  0  0
  193.3290  170.2040  143.1080 O   0  0  0  0  0  0  0  0  0  0  0  0
  193.0140  170.3370  140.7500 C   0  0  0  0  0  0  0  0  0  0  0  0
  193.4330  169.3250  139.8960 O   0  0  0  0  0  0  0  0  0  0  0  0
  191.9030  170.8990  140.5580 O   0  0  0  0  0  1  0  0  0  0  0  0
  192.8420  176.6240  147.0450 O   0  0  0  0  0  1  0  0  0  0  0  0
  191.9720  175.7600  147.5360 O   0  0  0  0  0  0  0  0  0  0  0  0
  1 35  1  0  0  0  0
  1 16  1  0  0  0  0
  2  5  1  0  0  0  0
  3  7  2  0  0  0  0
  3 15  1  0  0  0  0
  4  6  2  0  0  0  0
  5 18  1  0  0  0  0
  6 11  1  0  0  0  0
  7  8  1  0  0  0  0
  9 33  1  1  0  0  0
  9  8  1  0  0  0  0
  9 13  1  0  0  0  0
 10 19  1  0  0  0  0
 10 16  1  0  0  0  0
 11 22  2  0  0  0  0
 11 19  1  0  0  0  0
 12 21  1  0  0  0  0
 12 20  1  0  0  0  0
 13  6  1  0  0  0  0
 14 21  2  0  0  0  0
 15 23  1  0  0  0  0
 17  1  2  0  0  0  0
 18 17  1  0  0  0  0
 19 12  2  0  0  0  0
 22 14  1  0  0  0  0
 23  2  1  0  0  0  0
 24 31  1  0  0  0  0
 24 25  1  0  0  0  0
 25 27  1  6  0  0  0
 25 28  1  0  0  0  0
 29 26  1  0  0  0  0
 29 28  1  0  0  0  0
 30 31  1  0  0  0  0
 30 26  1  0  0  0  0
 31  3  1  1  0  0  0
 32 33  1  0  0  0  0
 33 34  2  0  0  0  0
 35 36  1  0  0  0  0
 36 38  1  0  0  0  0
 36 39  1  0  0  0  0
 37 41  2  0  0  0  0
 37 40  1  0  0  0  0
 38 37  1  0  0  0  0
 39 40  2  0  0  0  0
 40 43  1  0  0  0  0
 43 44  1  0  0  0  0
 43 42  1  1  0  0  0
 45 44  1  0  0  0  0
 46 45  1  1  0  0  0
 46 68  1  0  0  0  0
 47 46  1  6  0  0  0
 48 47  1  0  0  0  0
 49 48  1  1  0  0  0
 49 47  1  0  0  0  0
 51 52  1  0  0  0  0
 51 56  1  0  0  0  0
 52 56  1  0  0  0  0
 52 61  1  0  0  0  0
 54 60  1  0  0  0  0
 55 57  1  0  0  0  0
 55 62  1  0  0  0  0
 57 64  1  6  0  0  0
 57 63  1  0  0  0  0
 58 53  1  0  0  0  0
 58 60  1  0  0  0  0
 59 50  1  1  0  0  0
 59 54  1  0  0  0  0
 61 49  1  0  0  0  0
 61 53  1  1  0  0  0
 62 59  1  0  0  0  0
 63 52  1  0  0  0  0
 65 64  2  0  0  0  0
 66 64  1  0  0  0  0
 67 68  1  0  0  0  0
M  END
>  <MODEL>
9

>  <REMARK>
 VINA RESULT:      -5.7      3.234      7.753
  Name = 
  12 active torsions:
  status: ('A' for Active; 'I' for Inactive)
    1  A    between atoms: N_2  and  C_56
    2  A    between atoms: N_2  and  N_68
    3  A    between atoms: C_3  and  C_30
    4  A    between atoms: N_5  and  O_53
    5  A    between atoms: C_6  and  O_53
    6  A    between atoms: C_9  and  C_66
    7  A    between atoms: C_11  and  C_60
    8  A    between atoms: C_25  and  C_34
    9  A    between atoms: C_48  and  C_56
   10  A    between atoms: C_51  and  C_61
   11  A    between atoms: O_63  and  C_66
   12  A    between atoms: C_66  and  N_68
                            x       y       z     vdW  Elec       q    Type
                         _______ _______ _______ _____ _____    ______ ____

>  <TORSDO>
F 12

$$$$
