=
 OpenBabel11042418283D

 30 34  0  0  1  0  0  0  0  0999 V2000
  184.4190  178.1890  146.0290 C   0  0  0  0  0  2  0  0  0  0  0  0
  187.6230  176.9230  146.8680 C   0  0  1  0  0  3  0  0  0  0  0  0
  184.3210  179.8340  144.3220 O   0  0  0  0  0  0  0  0  0  0  0  0
  185.5280  178.0940  147.0750 C   0  0  0  0  0  2  0  0  0  0  0  0
  186.9080  176.8480  145.5620 N   0  0  0  0  0  0  0  0  0  0  0  0
  185.9050  178.1650  143.8410 C   0  0  0  0  0  3  0  0  0  0  0  0
  186.2550  176.7770  146.8940 C   0  0  1  0  0  3  0  0  0  0  0  0
  184.8840  178.7810  144.7220 C   0  0  0  0  0  0  0  0  0  0  0  0
  186.8060  177.2420  144.2010 C   0  0  0  0  0  0  0  0  0  0  0  0
  189.1540  177.5210  143.4770 C   0  0  2  0  0  3  0  0  0  0  0  0
  187.8400  176.7930  143.2190 C   0  0  2  0  0  3  0  0  0  0  0  0
  188.2600  177.9440  142.3290 C   0  0  0  0  0  2  0  0  0  0  0  0
  191.2360  174.7550  141.8890 C   0  0  0  0  0  0  0  0  0  0  0  0
  190.1360  175.4910  142.3360 C   0  0  0  0  0  3  0  0  0  0  0  0
  191.6210  177.2230  143.1500 C   0  0  0  0  0  3  0  0  0  0  0  0
  192.5340  175.2530  142.0760 C   0  0  0  0  0  0  0  0  0  0  0  0
  193.7180  174.4840  141.6050 C   0  0  0  0  0  1  0  0  0  0  0  0
  190.3210  176.7380  142.9540 C   0  0  0  0  0  0  0  0  0  0  0  0
  191.0340  173.5610  141.2770 F   0  0  0  0  0  0  0  0  0  0  0  0
  192.7230  176.4850  142.7100 C   0  0  0  0  0  3  0  0  0  0  0  0
  188.2580  175.6420  147.1370 N   0  0  0  0  0  2  0  0  0  0  0  0
  191.9470  175.5380  146.3760 C   0  0  0  0  0  0  0  0  0  0  0  0
  193.2010  176.2990  146.6280 C   0  0  0  0  0  1  0  0  0  0  0  0
  190.6990  177.1000  147.6700 F   0  0  0  0  0  0  0  0  0  0  0  0
  190.8340  173.6540  145.3440 C   0  0  0  0  0  0  0  0  0  0  0  0
  190.7240  175.9750  146.9070 C   0  0  0  0  0  0  0  0  0  0  0  0
  189.6150  174.0850  145.8660 C   0  0  0  0  0  3  0  0  0  0  0  0
  190.8940  172.4220  144.5160 C   0  0  0  0  0  1  0  0  0  0  0  0
  191.9980  174.3810  145.5960 C   0  0  0  0  0  3  0  0  0  0  0  0
  189.5430  175.2440  146.6430 C   0  0  0  0  0  0  0  0  0  0  0  0
  1  4  1  0  0  0  0
  2  7  1  0  0  0  0
  2 21  1  6  0  0  0
  3  8  2  0  0  0  0
  5  2  1  0  0  0  0
  5  7  1  0  0  0  0
  6  9  2  0  0  0  0
  6  8  1  0  0  0  0
  7  4  1  1  0  0  0
  8  1  1  0  0  0  0
  9  5  1  0  0  0  0
 10 18  1  6  0  0  0
 11 10  1  0  0  0  0
 11  9  1  1  0  0  0
 12 11  1  0  0  0  0
 12 10  1  0  0  0  0
 13 16  2  0  0  0  0
 13 14  1  0  0  0  0
 14 18  2  0  0  0  0
 16 20  1  0  0  0  0
 17 16  1  0  0  0  0
 18 15  1  0  0  0  0
 19 13  1  0  0  0  0
 20 15  2  0  0  0  0
 22 23  1  0  0  0  0
 22 26  1  0  0  0  0
 25 29  1  0  0  0  0
 25 27  2  0  0  0  0
 26 24  1  0  0  0  0
 27 30  1  0  0  0  0
 28 25  1  0  0  0  0
 29 22  2  0  0  0  0
 30 26  2  0  0  0  0
 30 21  1  0  0  0  0
M  END
>  <MODEL>
1

>  <REMARK>
 VINA RESULT:      -8.1      0.000      0.000
  Name = 
  4 active torsions:
  status: ('A' for Active; 'I' for Inactive)
    1  A    between atoms: C_3  and  N_23
    2  A    between atoms: C_13  and  C_16
    3  A    between atoms: C_22  and  C_24
    4  A    between atoms: N_23  and  C_30
                            x       y       z     vdW  Elec       q    Type
                         _______ _______ _______ _____ _____    ______ ____

>  <TORSDO>
F 4

$$$$
=
 OpenBabel11042418283D

 30 34  0  0  1  0  0  0  0  0999 V2000
  184.0910  179.1030  144.0680 C   0  0  0  0  0  2  0  0  0  0  0  0
  186.3260  176.8290  142.5160 C   0  0  1  0  0  3  0  0  0  0  0  0
  183.6630  178.7890  146.3810 O   0  0  0  0  0  0  0  0  0  0  0  0
  184.2750  177.9690  143.0610 C   0  0  0  0  0  2  0  0  0  0  0  0
  186.5940  177.7770  143.6360 N   0  0  0  0  0  0  0  0  0  0  0  0
  185.9160  178.3860  145.8430 C   0  0  0  0  0  3  0  0  0  0  0  0
  185.6790  178.0440  142.4970 C   0  0  1  0  0  3  0  0  0  0  0  0
  184.5260  178.7340  145.4640 C   0  0  0  0  0  0  0  0  0  0  0  0
  186.8870  177.9940  145.0090 C   0  0  0  0  0  0  0  0  0  0  0  0
  188.1690  176.1100  145.9730 C   0  0  2  0  0  3  0  0  0  0  0  0
  188.2130  177.5760  145.5590 C   0  0  2  0  0  3  0  0  0  0  0  0
  188.0860  177.2020  147.0210 C   0  0  0  0  0  2  0  0  0  0  0  0
  191.9190  175.6440  146.4430 C   0  0  0  0  0  0  0  0  0  0  0  0
  190.6410  176.2060  146.4850 C   0  0  0  0  0  3  0  0  0  0  0  0
  189.7370  174.2460  145.3890 C   0  0  0  0  0  3  0  0  0  0  0  0
  192.1080  174.3780  145.8690 C   0  0  0  0  0  0  0  0  0  0  0  0
  193.4610  173.7620  145.8170 C   0  0  0  0  0  1  0  0  0  0  0  0
  189.5390  175.5030  145.9730 C   0  0  0  0  0  0  0  0  0  0  0  0
  192.9670  176.3330  146.9610 F   0  0  0  0  0  0  0  0  0  0  0  0
  191.0160  173.6840  145.3400 C   0  0  0  0  0  3  0  0  0  0  0  0
  187.4490  176.8570  141.5910 N   0  0  0  0  0  2  0  0  0  0  0  0
  191.0360  176.2540  142.5730 C   0  0  0  0  0  0  0  0  0  0  0  0
  192.2100  176.9610  143.1550 C   0  0  0  0  0  1  0  0  0  0  0  0
  189.7120  178.2240  142.7650 F   0  0  0  0  0  0  0  0  0  0  0  0
  190.0770  174.2320  141.6540 C   0  0  0  0  0  0  0  0  0  0  0  0
  189.8150  176.9220  142.3900 C   0  0  0  0  0  0  0  0  0  0  0  0
  188.8620  174.8900  141.4680 C   0  0  0  0  0  3  0  0  0  0  0  0
  190.2160  172.8050  141.2660 C   0  0  0  0  0  1  0  0  0  0  0  0
  191.1630  174.9130  142.2040 C   0  0  0  0  0  3  0  0  0  0  0  0
  188.7180  176.2340  141.8240 C   0  0  0  0  0  0  0  0  0  0  0  0
  1  8  1  0  0  0  0
  2 21  1  6  0  0  0
  2  5  1  0  0  0  0
  4  1  1  0  0  0  0
  5  9  1  0  0  0  0
  7  2  1  0  0  0  0
  7  4  1  1  0  0  0
  7  5  1  0  0  0  0
  8  6  1  0  0  0  0
  8  3  2  0  0  0  0
  9  6  2  0  0  0  0
 10 18  1  1  0  0  0
 10 12  1  0  0  0  0
 11  9  1  6  0  0  0
 11 10  1  0  0  0  0
 11 12  1  0  0  0  0
 13 14  1  0  0  0  0
 13 19  1  0  0  0  0
 15 18  1  0  0  0  0
 16 13  2  0  0  0  0
 17 16  1  0  0  0  0
 18 14  2  0  0  0  0
 20 15  2  0  0  0  0
 20 16  1  0  0  0  0
 21 30  1  0  0  0  0
 22 23  1  0  0  0  0
 25 29  1  0  0  0  0
 26 22  1  0  0  0  0
 26 24  1  0  0  0  0
 27 25  2  0  0  0  0
 27 30  1  0  0  0  0
 28 25  1  0  0  0  0
 29 22  2  0  0  0  0
 30 26  2  0  0  0  0
M  END
>  <MODEL>
2

>  <REMARK>
 VINA RESULT:      -8.0      1.808      3.986
  Name = 
  4 active torsions:
  status: ('A' for Active; 'I' for Inactive)
    1  A    between atoms: C_3  and  N_23
    2  A    between atoms: C_13  and  C_16
    3  A    between atoms: C_22  and  C_24
    4  A    between atoms: N_23  and  C_30
                            x       y       z     vdW  Elec       q    Type
                         _______ _______ _______ _____ _____    ______ ____

>  <TORSDO>
F 4

$$$$
=
 OpenBabel11042418283D

 30 34  0  0  1  0  0  0  0  0999 V2000
  185.1340  178.4290  146.0410 C   0  0  0  0  0  2  0  0  0  0  0  0
  188.3540  177.1520  146.7950 C   0  0  1  0  0  3  0  0  0  0  0  0
  184.9810  179.9930  144.2630 O   0  0  0  0  0  0  0  0  0  0  0  0
  186.2880  178.3650  147.0400 C   0  0  0  0  0  2  0  0  0  0  0  0
  187.5790  177.0260  145.5280 N   0  0  0  0  0  0  0  0  0  0  0  0
  186.5180  178.2770  143.7920 C   0  0  0  0  0  3  0  0  0  0  0  0
  186.9870  177.0300  146.8890 C   0  0  1  0  0  3  0  0  0  0  0  0
  185.5470  178.9510  144.6880 C   0  0  0  0  0  0  0  0  0  0  0  0
  187.4210  177.3580  144.1550 C   0  0  0  0  0  0  0  0  0  0  0  0
  189.7930  177.3930  143.4550 C   0  0  2  0  0  3  0  0  0  0  0  0
  188.4040  176.8470  143.1510 C   0  0  2  0  0  3  0  0  0  0  0  0
  188.9680  177.9900  142.3330 C   0  0  0  0  0  2  0  0  0  0  0  0
  193.1980  176.0540  142.3960 C   0  0  0  0  0  0  0  0  0  0  0  0
  192.2160  176.8710  142.9620 C   0  0  0  0  0  3  0  0  0  0  0  0
  190.5000  175.3340  142.2150 C   0  0  0  0  0  3  0  0  0  0  0  0
  192.8290  174.8740  141.7330 C   0  0  0  0  0  0  0  0  0  0  0  0
  193.8600  173.9900  141.1260 C   0  0  0  0  0  1  0  0  0  0  0  0
  190.8620  176.5070  142.8900 C   0  0  0  0  0  0  0  0  0  0  0  0
  194.5020  176.4150  142.4950 F   0  0  0  0  0  0  0  0  0  0  0  0
  191.4800  174.5190  141.6420 C   0  0  0  0  0  3  0  0  0  0  0  0
  188.9820  175.8740  147.0960 N   0  0  0  0  0  2  0  0  0  0  0  0
  191.7590  173.9410  145.4380 C   0  0  0  0  0  0  0  0  0  0  0  0
  191.9920  172.7070  144.6380 C   0  0  0  0  0  1  0  0  0  0  0  0
  189.4200  173.5000  145.5030 F   0  0  0  0  0  0  0  0  0  0  0  0
  192.6540  175.9050  146.5300 C   0  0  0  0  0  0  0  0  0  0  0  0
  190.4660  174.2940  145.8530 C   0  0  0  0  0  0  0  0  0  0  0  0
  191.3720  176.2600  146.9480 C   0  0  0  0  0  3  0  0  0  0  0  0
  193.8150  176.7600  146.8880 C   0  0  0  0  0  1  0  0  0  0  0  0
  192.8480  174.7470  145.7790 C   0  0  0  0  0  3  0  0  0  0  0  0
  190.2710  175.4630  146.6230 C   0  0  0  0  0  0  0  0  0  0  0  0
  1  4  1  0  0  0  0
  2  7  1  0  0  0  0
  2 21  1  1  0  0  0
  3  8  2  0  0  0  0
  5  2  1  0  0  0  0
  5  7  1  0  0  0  0
  6  9  2  0  0  0  0
  6  8  1  0  0  0  0
  7  4  1  6  0  0  0
  8  1  1  0  0  0  0
  9  5  1  0  0  0  0
 10 18  1  6  0  0  0
 11 10  1  0  0  0  0
 11  9  1  1  0  0  0
 12 11  1  0  0  0  0
 12 10  1  0  0  0  0
 13 19  1  0  0  0  0
 13 14  1  0  0  0  0
 15 18  1  0  0  0  0
 16 13  2  0  0  0  0
 17 16  1  0  0  0  0
 18 14  2  0  0  0  0
 20 16  1  0  0  0  0
 20 15  2  0  0  0  0
 22 29  2  0  0  0  0
 22 26  1  0  0  0  0
 23 22  1  0  0  0  0
 24 26  1  0  0  0  0
 25 28  1  0  0  0  0
 25 27  2  0  0  0  0
 26 30  2  0  0  0  0
 29 25  1  0  0  0  0
 30 27  1  0  0  0  0
 30 21  1  0  0  0  0
M  END
>  <MODEL>
3

>  <REMARK>
 VINA RESULT:      -7.8      1.356      2.253
  Name = 
  4 active torsions:
  status: ('A' for Active; 'I' for Inactive)
    1  A    between atoms: C_3  and  N_23
    2  A    between atoms: C_13  and  C_16
    3  A    between atoms: C_22  and  C_24
    4  A    between atoms: N_23  and  C_30
                            x       y       z     vdW  Elec       q    Type
                         _______ _______ _______ _____ _____    ______ ____

>  <TORSDO>
F 4

$$$$
=
 OpenBabel11042418283D

 30 34  0  0  1  0  0  0  0  0999 V2000
  191.5990  171.0150  141.1500 C   0  0  0  0  0  2  0  0  0  0  0  0
  190.4820  172.6990  144.0640 C   0  0  1  0  0  3  0  0  0  0  0  0
  190.0590  170.8260  139.3550 O   0  0  0  0  0  0  0  0  0  0  0  0
  191.2220  170.9130  142.6270 C   0  0  0  0  0  2  0  0  0  0  0  0
  190.6190  173.2320  142.6780 N   0  0  0  0  0  0  0  0  0  0  0  0
  189.9120  172.9170  140.4190 C   0  0  0  0  0  3  0  0  0  0  0  0
  191.5280  172.2360  143.2990 C   0  0  1  0  0  3  0  0  0  0  0  0
  190.4850  171.5560  140.2880 C   0  0  0  0  0  0  0  0  0  0  0  0
  190.0080  173.7150  141.4900 C   0  0  0  0  0  0  0  0  0  0  0  0
  187.8460  174.8190  141.9660 C   0  0  2  0  0  3  0  0  0  0  0  0
  189.2850  175.0240  141.5070 C   0  0  2  0  0  3  0  0  0  0  0  0
  188.1560  175.0180  140.4960 C   0  0  0  0  0  2  0  0  0  0  0  0
  185.8120  177.2160  144.1150 C   0  0  0  0  0  0  0  0  0  0  0  0
  186.3660  176.0360  143.6120 C   0  0  0  0  0  3  0  0  0  0  0  0
  187.5960  177.3120  141.9620 C   0  0  0  0  0  3  0  0  0  0  0  0
  186.1490  178.4490  143.5370 C   0  0  0  0  0  0  0  0  0  0  0  0
  185.5710  179.7160  144.0600 C   0  0  0  0  0  1  0  0  0  0  0  0
  187.2750  176.0780  142.5430 C   0  0  0  0  0  0  0  0  0  0  0  0
  184.9510  177.1540  145.1620 F   0  0  0  0  0  0  0  0  0  0  0  0
  187.0380  178.4930  142.4590 C   0  0  0  0  0  3  0  0  0  0  0  0
  190.9680  173.6950  145.0070 N   0  0  0  0  0  2  0  0  0  0  0  0
  188.7760  176.4760  146.2950 C   0  0  0  0  0  0  0  0  0  0  0  0
  187.6660  176.7230  147.2570 C   0  0  0  0  0  1  0  0  0  0  0  0
  188.8440  174.1770  146.9110 F   0  0  0  0  0  0  0  0  0  0  0  0
  190.2990  177.3290  144.6200 C   0  0  0  0  0  0  0  0  0  0  0  0
  189.3270  175.1940  146.1500 C   0  0  0  0  0  0  0  0  0  0  0  0
  190.8490  176.0570  144.4690 C   0  0  0  0  0  3  0  0  0  0  0  0
  190.8150  178.4630  143.8110 C   0  0  0  0  0  1  0  0  0  0  0  0
  189.2620  177.5380  145.5300 C   0  0  0  0  0  3  0  0  0  0  0  0
  190.3710  174.9800  145.2210 C   0  0  0  0  0  0  0  0  0  0  0  0
  1  4  1  0  0  0  0
  2 21  1  1  0  0  0
  3  8  2  0  0  0  0
  5  7  1  0  0  0  0
  5  2  1  0  0  0  0
  6  9  2  0  0  0  0
  7  4  1  6  0  0  0
  7  2  1  0  0  0  0
  8  6  1  0  0  0  0
  8  1  1  0  0  0  0
  9  5  1  0  0  0  0
 10 18  1  1  0  0  0
 11  9  1  6  0  0  0
 11 10  1  0  0  0  0
 12 11  1  0  0  0  0
 12 10  1  0  0  0  0
 13 19  1  0  0  0  0
 14 13  1  0  0  0  0
 15 20  2  0  0  0  0
 15 18  1  0  0  0  0
 16 17  1  0  0  0  0
 16 13  2  0  0  0  0
 18 14  2  0  0  0  0
 20 16  1  0  0  0  0
 21 30  1  0  0  0  0
 22 23  1  0  0  0  0
 25 29  1  0  0  0  0
 26 22  1  0  0  0  0
 26 24  1  0  0  0  0
 27 25  2  0  0  0  0
 27 30  1  0  0  0  0
 28 25  1  0  0  0  0
 29 22  2  0  0  0  0
 30 26  2  0  0  0  0
M  END
>  <MODEL>
4

>  <REMARK>
 VINA RESULT:      -7.6      3.283      6.352
  Name = 
  4 active torsions:
  status: ('A' for Active; 'I' for Inactive)
    1  A    between atoms: C_3  and  N_23
    2  A    between atoms: C_13  and  C_16
    3  A    between atoms: C_22  and  C_24
    4  A    between atoms: N_23  and  C_30
                            x       y       z     vdW  Elec       q    Type
                         _______ _______ _______ _____ _____    ______ ____

>  <TORSDO>
F 4

$$$$
=
 OpenBabel11042418283D

 30 34  0  0  1  0  0  0  0  0999 V2000
  191.0900  171.0720  140.9720 C   0  0  0  0  0  2  0  0  0  0  0  0
  189.9020  172.6110  143.9380 C   0  0  1  0  0  3  0  0  0  0  0  0
  189.6480  171.1030  139.0870 O   0  0  0  0  0  0  0  0  0  0  0  0
  190.6230  170.8890  142.4150 C   0  0  0  0  0  2  0  0  0  0  0  0
  190.1490  173.2310  142.6040 N   0  0  0  0  0  0  0  0  0  0  0  0
  189.5570  173.1190  140.2930 C   0  0  0  0  0  3  0  0  0  0  0  0
  190.9630  172.1400  143.1970 C   0  0  1  0  0  3  0  0  0  0  0  0
  190.0600  171.7380  140.0940 C   0  0  0  0  0  0  0  0  0  0  0  0
  189.6360  173.8320  141.4230 C   0  0  0  0  0  0  0  0  0  0  0  0
  187.5420  175.0350  141.9620 C   0  0  2  0  0  3  0  0  0  0  0  0
  188.9870  175.1770  141.4980 C   0  0  2  0  0  3  0  0  0  0  0  0
  187.8530  175.2740  140.4980 C   0  0  0  0  0  2  0  0  0  0  0  0
  185.6230  177.4580  144.1860 C   0  0  0  0  0  0  0  0  0  0  0  0
  186.1050  176.2690  143.6330 C   0  0  0  0  0  3  0  0  0  0  0  0
  187.4750  177.5360  142.0890 C   0  0  0  0  0  3  0  0  0  0  0  0
  186.0660  178.6920  143.6860 C   0  0  0  0  0  0  0  0  0  0  0  0
  185.5660  179.9690  144.2630 C   0  0  0  0  0  1  0  0  0  0  0  0
  187.0470  176.3010  142.5930 C   0  0  0  0  0  0  0  0  0  0  0  0
  184.7280  177.4050  145.2040 F   0  0  0  0  0  0  0  0  0  0  0  0
  186.9890  178.7270  142.6360 C   0  0  0  0  0  3  0  0  0  0  0  0
  190.3880  173.5070  144.9750 N   0  0  0  0  0  2  0  0  0  0  0  0
  190.1730  177.2550  144.6480 C   0  0  0  0  0  0  0  0  0  0  0  0
  190.8170  178.3920  143.9360 C   0  0  0  0  0  1  0  0  0  0  0  0
  191.6130  175.7080  143.5530 F   0  0  0  0  0  0  0  0  0  0  0  0
  188.5160  176.4640  146.2230 C   0  0  0  0  0  0  0  0  0  0  0  0
  190.6040  175.9370  144.4330 C   0  0  0  0  0  0  0  0  0  0  0  0
  188.9410  175.1520  146.0160 C   0  0  0  0  0  3  0  0  0  0  0  0
  187.4070  176.7430  147.1710 C   0  0  0  0  0  1  0  0  0  0  0  0
  189.1310  177.5140  145.5430 C   0  0  0  0  0  3  0  0  0  0  0  0
  189.9870  174.8740  145.1310 C   0  0  0  0  0  0  0  0  0  0  0  0
  1  4  1  0  0  0  0
  2 21  1  1  0  0  0
  3  8  2  0  0  0  0
  5  7  1  0  0  0  0
  5  2  1  0  0  0  0
  6  9  2  0  0  0  0
  7  4  1  6  0  0  0
  7  2  1  0  0  0  0
  8  6  1  0  0  0  0
  8  1  1  0  0  0  0
  9  5  1  0  0  0  0
 10 18  1  1  0  0  0
 11  9  1  6  0  0  0
 11 10  1  0  0  0  0
 12 11  1  0  0  0  0
 12 10  1  0  0  0  0
 13 19  1  0  0  0  0
 14 13  2  0  0  0  0
 15 18  2  0  0  0  0
 15 20  1  0  0  0  0
 16 13  1  0  0  0  0
 16 17  1  0  0  0  0
 18 14  1  0  0  0  0
 20 16  2  0  0  0  0
 21 30  1  0  0  0  0
 22 29  1  0  0  0  0
 23 22  1  0  0  0  0
 24 26  1  0  0  0  0
 25 28  1  0  0  0  0
 26 22  2  0  0  0  0
 26 30  1  0  0  0  0
 27 25  1  0  0  0  0
 29 25  2  0  0  0  0
 30 27  2  0  0  0  0
M  END
>  <MODEL>
5

>  <REMARK>
 VINA RESULT:      -7.6      3.257      6.270
  Name = 
  4 active torsions:
  status: ('A' for Active; 'I' for Inactive)
    1  A    between atoms: C_3  and  N_23
    2  A    between atoms: C_13  and  C_16
    3  A    between atoms: C_22  and  C_24
    4  A    between atoms: N_23  and  C_30
                            x       y       z     vdW  Elec       q    Type
                         _______ _______ _______ _____ _____    ______ ____

>  <TORSDO>
F 4

$$$$
=
 OpenBabel11042418283D

 30 34  0  0  1  0  0  0  0  0999 V2000
  184.0590  178.2770  143.0990 C   0  0  0  0  0  2  0  0  0  0  0  0
  186.7150  178.2470  145.4470 C   0  0  1  0  0  3  0  0  0  0  0  0
  184.6400  178.5530  140.8150 O   0  0  0  0  0  0  0  0  0  0  0  0
  184.7540  178.9860  144.2600 C   0  0  0  0  0  2  0  0  0  0  0  0
  186.4640  177.3070  144.3170 N   0  0  0  0  0  0  0  0  0  0  0  0
  186.1750  177.1810  141.9500 C   0  0  0  0  0  3  0  0  0  0  0  0
  185.4080  177.9440  145.1430 C   0  0  1  0  0  3  0  0  0  0  0  0
  184.9660  178.0400  141.9180 C   0  0  0  0  0  0  0  0  0  0  0  0
  186.8420  176.7970  143.0450 C   0  0  0  0  0  0  0  0  0  0  0  0
  189.2590  176.9430  142.5440 C   0  0  2  0  0  3  0  0  0  0  0  0
  188.1070  176.0140  142.9070 C   0  0  2  0  0  3  0  0  0  0  0  0
  188.6150  176.0760  141.4800 C   0  0  0  0  0  2  0  0  0  0  0  0
  192.1290  174.4900  143.0450 C   0  0  0  0  0  0  0  0  0  0  0  0
  190.9130  175.0340  142.6260 C   0  0  0  0  0  3  0  0  0  0  0  0
  191.4600  177.1200  143.7280 C   0  0  0  0  0  3  0  0  0  0  0  0
  193.0140  175.2630  143.8110 C   0  0  0  0  0  0  0  0  0  0  0  0
  194.3150  174.7020  144.2650 C   0  0  0  0  0  1  0  0  0  0  0  0
  190.5780  176.3580  142.9500 C   0  0  0  0  0  0  0  0  0  0  0  0
  192.4410  173.2140  142.7040 F   0  0  0  0  0  0  0  0  0  0  0  0
  192.6750  176.5760  144.1540 C   0  0  0  0  0  3  0  0  0  0  0  0
  187.1370  177.4850  146.6130 N   0  0  0  0  0  2  0  0  0  0  0  0
  190.7010  176.5650  147.4170 C   0  0  0  0  0  0  0  0  0  0  0  0
  191.9180  177.1170  148.0730 C   0  0  0  0  0  1  0  0  0  0  0  0
  189.4840  178.5450  147.9310 F   0  0  0  0  0  0  0  0  0  0  0  0
  189.6270  174.7550  146.2240 C   0  0  0  0  0  0  0  0  0  0  0  0
  189.5140  177.3120  147.3630 C   0  0  0  0  0  0  0  0  0  0  0  0
  188.4450  175.4930  146.1650 C   0  0  0  0  0  3  0  0  0  0  0  0
  189.6860  173.3980  145.6220 C   0  0  0  0  0  1  0  0  0  0  0  0
  190.7540  175.2910  146.8470 C   0  0  0  0  0  3  0  0  0  0  0  0
  188.3750  176.7730  146.7230 C   0  0  0  0  0  0  0  0  0  0  0  0
  1  4  1  0  0  0  0
  2 21  1  1  0  0  0
  3  8  2  0  0  0  0
  5  7  1  0  0  0  0
  5  2  1  0  0  0  0
  6  9  2  0  0  0  0
  7  4  1  6  0  0  0
  7  2  1  0  0  0  0
  8  6  1  0  0  0  0
  8  1  1  0  0  0  0
  9  5  1  0  0  0  0
 10 11  1  0  0  0  0
 10 18  1  1  0  0  0
 11  9  1  6  0  0  0
 12 10  1  0  0  0  0
 12 11  1  0  0  0  0
 13 16  1  0  0  0  0
 14 18  1  0  0  0  0
 14 13  2  0  0  0  0
 15 20  1  0  0  0  0
 16 20  2  0  0  0  0
 16 17  1  0  0  0  0
 18 15  2  0  0  0  0
 19 13  1  0  0  0  0
 21 30  1  0  0  0  0
 22 23  1  0  0  0  0
 25 29  1  0  0  0  0
 26 22  1  0  0  0  0
 26 24  1  0  0  0  0
 27 25  2  0  0  0  0
 27 30  1  0  0  0  0
 28 25  1  0  0  0  0
 29 22  2  0  0  0  0
 30 26  2  0  0  0  0
M  END
>  <MODEL>
6

>  <REMARK>
 VINA RESULT:      -7.4      1.584      2.030
  Name = 
  4 active torsions:
  status: ('A' for Active; 'I' for Inactive)
    1  A    between atoms: C_3  and  N_23
    2  A    between atoms: C_13  and  C_16
    3  A    between atoms: C_22  and  C_24
    4  A    between atoms: N_23  and  C_30
                            x       y       z     vdW  Elec       q    Type
                         _______ _______ _______ _____ _____    ______ ____

>  <TORSDO>
F 4

$$$$
=
 OpenBabel11042418283D

 30 34  0  0  1  0  0  0  0  0999 V2000
  185.8060  177.8770  145.6510 C   0  0  0  0  0  2  0  0  0  0  0  0
  188.0010  175.9220  143.6680 C   0  0  1  0  0  3  0  0  0  0  0  0
  185.9630  177.6240  148.0050 O   0  0  0  0  0  0  0  0  0  0  0  0
  185.9560  176.7350  144.6470 C   0  0  0  0  0  2  0  0  0  0  0  0
  188.3420  176.9610  144.6820 N   0  0  0  0  0  0  0  0  0  0  0  0
  188.0750  177.5700  146.9760 C   0  0  0  0  0  3  0  0  0  0  0  0
  187.1660  177.0100  143.7780 C   0  0  1  0  0  3  0  0  0  0  0  0
  186.5960  177.6630  146.9180 C   0  0  0  0  0  0  0  0  0  0  0  0
  188.8900  177.2980  145.9490 C   0  0  0  0  0  0  0  0  0  0  0  0
  190.6670  175.6940  146.5700 C   0  0  2  0  0  3  0  0  0  0  0  0
  190.3570  177.1360  146.1890 C   0  0  2  0  0  3  0  0  0  0  0  0
  190.6190  176.7710  147.6360 C   0  0  0  0  0  2  0  0  0  0  0  0
  193.7660  173.7570  145.4950 C   0  0  0  0  0  0  0  0  0  0  0  0
  192.4300  174.0840  145.7430 C   0  0  0  0  0  3  0  0  0  0  0  0
  193.1080  176.2610  146.5590 C   0  0  0  0  0  3  0  0  0  0  0  0
  194.7770  174.6860  145.7830 C   0  0  0  0  0  0  0  0  0  0  0  0
  196.2050  174.3580  145.5250 C   0  0  0  0  0  1  0  0  0  0  0  0
  192.0910  175.3440  146.2600 C   0  0  0  0  0  0  0  0  0  0  0  0
  194.0690  172.5410  144.9760 F   0  0  0  0  0  0  0  0  0  0  0  0
  194.4450  175.9340  146.3180 C   0  0  0  0  0  3  0  0  0  0  0  0
  188.8690  176.0830  142.5120 N   0  0  0  0  0  2  0  0  0  0  0  0
  192.6070  175.6130  142.4680 C   0  0  0  0  0  0  0  0  0  0  0  0
  193.8700  176.3610  142.7180 C   0  0  0  0  0  1  0  0  0  0  0  0
  191.3170  177.5290  143.0440 F   0  0  0  0  0  0  0  0  0  0  0  0
  191.5050  173.5600  141.8140 C   0  0  0  0  0  0  0  0  0  0  0  0
  191.3600  176.2340  142.6360 C   0  0  0  0  0  0  0  0  0  0  0  0
  190.2630  174.1730  141.9770 C   0  0  0  0  0  3  0  0  0  0  0  0
  191.5830  172.1420  141.3810 C   0  0  0  0  0  1  0  0  0  0  0  0
  192.6750  174.2790  142.0570 C   0  0  0  0  0  3  0  0  0  0  0  0
  190.1740  175.5080  142.3800 C   0  0  0  0  0  0  0  0  0  0  0  0
  1  8  1  0  0  0  0
  2 21  1  6  0  0  0
  2  7  1  0  0  0  0
  2  5  1  0  0  0  0
  4  1  1  0  0  0  0
  5  9  1  0  0  0  0
  7  4  1  1  0  0  0
  7  5  1  0  0  0  0
  8  6  1  0  0  0  0
  8  3  2  0  0  0  0
  9  6  2  0  0  0  0
 10 18  1  6  0  0  0
 10 12  1  0  0  0  0
 11  9  1  1  0  0  0
 11 10  1  0  0  0  0
 11 12  1  0  0  0  0
 13 14  2  0  0  0  0
 13 16  1  0  0  0  0
 14 18  1  0  0  0  0
 16 20  2  0  0  0  0
 17 16  1  0  0  0  0
 18 15  2  0  0  0  0
 19 13  1  0  0  0  0
 20 15  1  0  0  0  0
 22 26  1  0  0  0  0
 22 23  1  0  0  0  0
 25 27  2  0  0  0  0
 25 29  1  0  0  0  0
 26 24  1  0  0  0  0
 27 30  1  0  0  0  0
 28 25  1  0  0  0  0
 29 22  2  0  0  0  0
 30 21  1  0  0  0  0
 30 26  2  0  0  0  0
M  END
>  <MODEL>
7

>  <REMARK>
 VINA RESULT:      -7.4      2.099      3.951
  Name = 
  4 active torsions:
  status: ('A' for Active; 'I' for Inactive)
    1  A    between atoms: C_3  and  N_23
    2  A    between atoms: C_13  and  C_16
    3  A    between atoms: C_22  and  C_24
    4  A    between atoms: N_23  and  C_30
                            x       y       z     vdW  Elec       q    Type
                         _______ _______ _______ _____ _____    ______ ____

>  <TORSDO>
F 4

$$$$
=
 OpenBabel11042418283D

 30 34  0  0  1  0  0  0  0  0999 V2000
  185.3340  179.2380  145.7720 C   0  0  0  0  0  2  0  0  0  0  0  0
  187.1380  177.3340  143.3860 C   0  0  1  0  0  3  0  0  0  0  0  0
  184.8050  178.1740  147.8260 O   0  0  0  0  0  0  0  0  0  0  0  0
  185.3250  178.5440  144.4120 C   0  0  0  0  0  2  0  0  0  0  0  0
  187.5540  177.7350  144.7610 N   0  0  0  0  0  0  0  0  0  0  0  0
  186.9540  177.5960  147.0680 C   0  0  0  0  0  3  0  0  0  0  0  0
  186.7300  178.5650  143.8460 C   0  0  1  0  0  3  0  0  0  0  0  0
  185.6620  178.3070  146.9130 C   0  0  0  0  0  0  0  0  0  0  0  0
  187.8530  177.3710  146.1020 C   0  0  0  0  0  0  0  0  0  0  0  0
  188.8300  175.1030  145.9660 C   0  0  2  0  0  3  0  0  0  0  0  0
  189.0650  176.5460  146.3940 C   0  0  2  0  0  3  0  0  0  0  0  0
  188.7480  175.4870  147.4300 C   0  0  0  0  0  2  0  0  0  0  0  0
  192.5480  174.2930  145.8260 C   0  0  0  0  0  0  0  0  0  0  0  0
  191.3460  174.9410  146.1210 C   0  0  0  0  0  3  0  0  0  0  0  0
  190.1220  173.2180  144.9390 C   0  0  0  0  0  3  0  0  0  0  0  0
  192.5380  173.1040  145.0820 C   0  0  0  0  0  0  0  0  0  0  0  0
  193.8070  172.3990  144.7600 C   0  0  0  0  0  1  0  0  0  0  0  0
  190.1240  174.3980  145.6940 C   0  0  0  0  0  0  0  0  0  0  0  0
  193.7170  174.8250  146.2660 F   0  0  0  0  0  0  0  0  0  0  0  0
  191.3240  172.5720  144.6370 C   0  0  0  0  0  3  0  0  0  0  0  0
  188.2660  177.4970  142.4820 N   0  0  0  0  0  2  0  0  0  0  0  0
  190.1670  174.3780  141.5590 C   0  0  0  0  0  0  0  0  0  0  0  0
  189.9630  173.0400  140.9390 C   0  0  0  0  0  1  0  0  0  0  0  0
  187.8710  174.9180  141.2340 F   0  0  0  0  0  0  0  0  0  0  0  0
  191.6530  175.9760  142.6030 C   0  0  0  0  0  0  0  0  0  0  0  0
  189.0990  175.2780  141.6920 C   0  0  0  0  0  0  0  0  0  0  0  0
  190.5950  176.8740  142.7400 C   0  0  0  0  0  3  0  0  0  0  0  0
  193.0090  176.3470  143.0830 C   0  0  0  0  0  1  0  0  0  0  0  0
  191.4400  174.7300  142.0150 C   0  0  0  0  0  3  0  0  0  0  0  0
  189.3130  176.5380  142.2960 C   0  0  0  0  0  0  0  0  0  0  0  0
  1  8  1  0  0  0  0
  2 21  1  6  0  0  0
  2  7  1  0  0  0  0
  2  5  1  0  0  0  0
  4  1  1  0  0  0  0
  5  9  1  0  0  0  0
  7  4  1  1  0  0  0
  7  5  1  0  0  0  0
  8  6  1  0  0  0  0
  8  3  2  0  0  0  0
  9  6  2  0  0  0  0
 10 18  1  1  0  0  0
 10 11  1  0  0  0  0
 10 12  1  0  0  0  0
 11  9  1  6  0  0  0
 11 12  1  0  0  0  0
 13 14  1  0  0  0  0
 13 19  1  0  0  0  0
 15 18  1  0  0  0  0
 16 13  2  0  0  0  0
 17 16  1  0  0  0  0
 18 14  2  0  0  0  0
 20 15  2  0  0  0  0
 20 16  1  0  0  0  0
 22 26  2  0  0  0  0
 22 29  1  0  0  0  0
 23 22  1  0  0  0  0
 24 26  1  0  0  0  0
 25 27  1  0  0  0  0
 25 28  1  0  0  0  0
 26 30  1  0  0  0  0
 29 25  2  0  0  0  0
 30 21  1  0  0  0  0
 30 27  2  0  0  0  0
M  END
>  <MODEL>
8

>  <REMARK>
 VINA RESULT:      -7.3      1.742      4.318
  Name = 
  4 active torsions:
  status: ('A' for Active; 'I' for Inactive)
    1  A    between atoms: C_3  and  N_23
    2  A    between atoms: C_13  and  C_16
    3  A    between atoms: C_22  and  C_24
    4  A    between atoms: N_23  and  C_30
                            x       y       z     vdW  Elec       q    Type
                         _______ _______ _______ _____ _____    ______ ____

>  <TORSDO>
F 4

$$$$
=
 OpenBabel11042418283D

 30 34  0  0  1  0  0  0  0  0999 V2000
  184.6850  178.6820  143.0080 C   0  0  0  0  0  2  0  0  0  0  0  0
  187.0020  176.0440  142.5160 C   0  0  1  0  0  3  0  0  0  0  0  0
  184.1060  179.2070  145.2490 O   0  0  0  0  0  0  0  0  0  0  0  0
  184.9270  177.2670  142.4870 C   0  0  0  0  0  2  0  0  0  0  0  0
  187.2020  177.3330  143.2370 N   0  0  0  0  0  0  0  0  0  0  0  0
  186.3870  178.6780  145.0340 C   0  0  0  0  0  3  0  0  0  0  0  0
  186.3650  177.1600  142.0230 C   0  0  1  0  0  3  0  0  0  0  0  0
  185.0260  178.8440  144.4680 C   0  0  0  0  0  0  0  0  0  0  0  0
  187.4070  178.0310  144.4580 C   0  0  0  0  0  0  0  0  0  0  0  0
  189.0060  176.3780  145.3690 C   0  0  2  0  0  3  0  0  0  0  0  0
  188.6920  177.8600  145.2030 C   0  0  2  0  0  3  0  0  0  0  0  0
  188.4470  177.1750  146.5310 C   0  0  0  0  0  2  0  0  0  0  0  0
  192.7620  176.2610  144.7500 C   0  0  0  0  0  0  0  0  0  0  0  0
  191.4000  176.5130  144.5710 C   0  0  0  0  0  3  0  0  0  0  0  0
  190.9260  175.5060  146.7220 C   0  0  0  0  0  3  0  0  0  0  0  0
  193.2080  175.6250  145.9180 C   0  0  0  0  0  0  0  0  0  0  0  0
  194.6550  175.3500  146.1280 C   0  0  0  0  0  1  0  0  0  0  0  0
  190.4750  176.1520  145.5640 C   0  0  0  0  0  0  0  0  0  0  0  0
  193.6410  176.6350  143.7860 F   0  0  0  0  0  0  0  0  0  0  0  0
  192.2880  175.2470  146.9000 C   0  0  0  0  0  3  0  0  0  0  0  0
  188.1820  175.7590  141.7140 N   0  0  0  0  0  2  0  0  0  0  0  0
  189.9470  172.5990  140.6650 C   0  0  0  0  0  0  0  0  0  0  0  0
  190.3000  171.8220  139.4460 C   0  0  0  0  0  1  0  0  0  0  0  0
  188.9050  174.2780  139.3370 F   0  0  0  0  0  0  0  0  0  0  0  0
  189.9940  172.8140  143.0750 C   0  0  0  0  0  0  0  0  0  0  0  0
  189.2470  173.8110  140.5660 C   0  0  0  0  0  0  0  0  0  0  0  0
  189.2960  174.0180  142.9830 C   0  0  0  0  0  3  0  0  0  0  0  0
  190.3920  172.2860  144.4050 C   0  0  0  0  0  1  0  0  0  0  0  0
  190.3170  172.1050  141.9190 C   0  0  0  0  0  3  0  0  0  0  0  0
  188.9110  174.5260  141.7390 C   0  0  0  0  0  0  0  0  0  0  0  0
  1  8  1  0  0  0  0
  2 21  1  6  0  0  0
  2  5  1  0  0  0  0
  4  1  1  0  0  0  0
  5  9  1  0  0  0  0
  7  4  1  1  0  0  0
  7  2  1  0  0  0  0
  7  5  1  0  0  0  0
  8  6  1  0  0  0  0
  8  3  2  0  0  0  0
  9  6  2  0  0  0  0
 10 18  1  1  0  0  0
 10 12  1  0  0  0  0
 11  9  1  6  0  0  0
 11 10  1  0  0  0  0
 11 12  1  0  0  0  0
 13 16  1  0  0  0  0
 14 13  2  0  0  0  0
 14 18  1  0  0  0  0
 15 20  1  0  0  0  0
 16 17  1  0  0  0  0
 16 20  2  0  0  0  0
 18 15  2  0  0  0  0
 19 13  1  0  0  0  0
 21 30  1  0  0  0  0
 22 29  1  0  0  0  0
 23 22  1  0  0  0  0
 24 26  1  0  0  0  0
 25 28  1  0  0  0  0
 26 22  2  0  0  0  0
 26 30  1  0  0  0  0
 27 25  1  0  0  0  0
 29 25  2  0  0  0  0
 30 27  2  0  0  0  0
M  END
>  <MODEL>
9

>  <REMARK>
 VINA RESULT:      -7.0      2.165      4.404
  Name = 
  4 active torsions:
  status: ('A' for Active; 'I' for Inactive)
    1  A    between atoms: C_3  and  N_23
    2  A    between atoms: C_13  and  C_16
    3  A    between atoms: C_22  and  C_24
    4  A    between atoms: N_23  and  C_30
                            x       y       z     vdW  Elec       q    Type
                         _______ _______ _______ _____ _____    ______ ____

>  <TORSDO>
F 4

$$$$
