=
 OpenBabel11042414363D

 46 51  0  0  1  0  0  0  0  0999 V2000
  187.3410  175.5270  139.1750 O   0  0  0  0  0  1  0  0  0  0  0  0
  188.0320  175.2670  140.3580 C   0  0  0  0  0  0  0  0  0  0  0  0
  190.2250  174.3530  143.9560 C   0  0  0  0  0  2  0  0  0  0  0  0
  187.9440  176.1490  141.4610 C   0  0  0  0  0  0  0  0  0  0  0  0
  188.8190  174.1080  140.4480 C   0  0  0  0  0  0  0  0  0  0  0  0
  191.4200  175.0980  143.9350 O   0  0  0  0  0  0  0  0  0  0  0  0
  190.4870  177.7330  145.2500 C   0  0  0  0  0  2  0  0  0  0  0  0
  188.6430  175.8500  142.6490 C   0  0  0  0  0  0  0  0  0  0  0  0
  190.6520  176.3700  145.9190 C   0  0  0  0  0  2  0  0  0  0  0  0
  188.6340  176.8270  143.8060 C   0  0  2  0  0  3  0  0  0  0  0  0
  187.4660  177.7680  143.8010 C   0  0  0  0  0  3  0  0  0  0  0  0
  189.9350  177.6210  143.8300 C   0  0  0  0  0  2  0  0  0  0  0  0
  189.5080  173.8230  141.6370 C   0  0  0  0  0  3  0  0  0  0  0  0
  186.7850  178.0620  142.6910 C   0  0  0  0  0  0  0  0  0  0  0  0
  189.4210  174.6770  142.7330 C   0  0  0  0  0  0  0  0  0  0  0  0
  186.6280  177.8050  140.3450 O   0  0  0  0  0  0  0  0  0  0  0  0
  191.7450  175.5200  145.2470 C   0  0  1  0  0  3  0  0  0  0  0  0
  187.0900  177.3640  141.4290 C   0  0  0  0  0  0  0  0  0  0  0  0
  188.9240  173.2310  139.3200 N   0  0  0  0  0  2  0  0  0  0  0  0
  189.9410  173.3880  138.2870 C   0  0  0  0  0  1  0  0  0  0  0  0
  185.6900  179.0750  142.7660 C   0  0  0  0  0  2  0  0  0  0  0  0
  184.7750  178.7680  143.9390 C   0  0  0  0  0  2  0  0  0  0  0  0
  185.4600  179.1070  145.1860 N   0  0  0  0  0  2  0  0  0  0  0  0
  185.0630  176.9880  146.4310 C   0  0  0  0  0  2  0  0  0  0  0  0
  187.1910  177.8710  147.0690 O   0  0  0  0  0  0  0  0  0  0  0  0
  186.3540  176.7520  147.2190 C   0  0  0  0  0  2  0  0  0  0  0  0
  185.2070  179.1300  147.5410 O   0  0  0  0  0  0  0  0  0  0  0  0
  186.6000  178.9430  147.7990 C   0  0  0  0  0  2  0  0  0  0  0  0
  183.4060  178.6880  146.2220 O   0  0  0  0  0  1  0  0  0  0  0  0
  184.7810  178.4970  146.3450 C   0  0  1  0  0  0  0  0  0  0  0  0
  192.1950  174.3540  146.1320 C   0  0  0  0  0  2  0  0  0  0  0  0
  194.4040  176.6680  146.7660 Cl  0  0  0  0  0  0  0  0  0  0  0  0
  194.4240  175.3820  145.5300 C   0  0  2  0  0  3  0  0  0  0  0  0
  193.6970  174.1270  146.0270 C   0  0  2  0  0  3  0  0  0  0  0  0
  193.9300  172.9730  145.0890 C   0  0  0  0  0  3  0  0  0  0  0  0
  194.9510  172.9500  144.2230 C   0  0  0  0  0  3  0  0  0  0  0  0
  195.8180  175.0720  145.2050 N   0  0  0  0  0  2  0  0  0  0  0  0
  195.9140  174.1060  144.0960 C   0  0  2  0  0  3  0  0  0  0  0  0
  195.8890  174.7400  142.6940 C   0  0  1  0  0  3  0  0  0  0  0  0
  197.9400  174.3710  141.3000 O   0  0  0  0  0  0  0  0  0  0  0  0
  197.2340  175.1760  142.1920 C   0  0  0  0  0  0  0  0  0  0  0  0
  197.7050  176.3020  142.5430 O   0  0  0  0  0  1  0  0  0  0  0  0
  195.2900  173.8640  141.7820 O   0  0  0  0  0  0  0  0  0  0  0  0
  193.1260  174.3040  140.9150 C   0  0  0  0  0  2  0  0  0  0  0  0
  193.5980  175.5350  141.6750 C   0  0  0  0  0  2  0  0  0  0  0  0
  194.5900  174.6930  140.8920 C   0  0  0  0  0  3  0  0  0  0  0  0
  1  2  1  0  0  0  0
  2  5  2  0  0  0  0
  2  4  1  0  0  0  0
  4  8  2  0  0  0  0
  5 13  1  0  0  0  0
  6  3  1  0  0  0  0
  6 17  1  0  0  0  0
  7  9  1  0  0  0  0
  8 15  1  0  0  0  0
  8 10  1  0  0  0  0
 10 11  1  6  0  0  0
 10 12  1  0  0  0  0
 12  7  1  0  0  0  0
 13 15  2  0  0  0  0
 14 21  1  0  0  0  0
 14 11  2  0  0  0  0
 15  3  1  0  0  0  0
 16 18  2  0  0  0  0
 17  9  1  0  0  0  0
 17 31  1  1  0  0  0
 18  4  1  0  0  0  0
 18 14  1  0  0  0  0
 19  5  1  0  0  0  0
 20 19  1  0  0  0  0
 21 22  1  0  0  0  0
 22 23  1  0  0  0  0
 23 30  1  0  0  0  0
 24 26  1  0  0  0  0
 25 26  1  0  0  0  0
 25 28  1  0  0  0  0
 27 28  1  0  0  0  0
 30 29  1  6  0  0  0
 30 24  1  0  0  0  0
 30 27  1  0  0  0  0
 33 34  1  0  0  0  0
 33 32  1  1  0  0  0
 34 31  1  6  0  0  0
 35 34  1  0  0  0  0
 36 35  2  0  0  0  0
 37 33  1  0  0  0  0
 38 39  1  6  0  0  0
 38 36  1  0  0  0  0
 38 37  1  0  0  0  0
 39 43  1  6  0  0  0
 40 41  2  0  0  0  0
 41 42  1  0  0  0  0
 41 39  1  0  0  0  0
 44 45  1  0  0  0  0
 46 44  1  0  0  0  0
 46 45  1  0  0  0  0
 46 43  1  0  0  0  0
M  END
>  <MODEL>
1

>  <REMARK>
 VINA RESULT:      -8.1      0.000      0.000
  Name = 
  11 active torsions:
  status: ('A' for Active; 'I' for Inactive)
    1  A    between atoms: N_2  and  C_12
    2  A    between atoms: O_4  and  C_36
    3  A    between atoms: O_4  and  C_46
    4  A    between atoms: C_5  and  C_27
    5  A    between atoms: C_5  and  C_38
    6  A    between atoms: N_15  and  C_38
    7  A    between atoms: N_15  and  C_43
    8  A    between atoms: C_28  and  C_30
    9  A    between atoms: C_30  and  C_33
   10  A    between atoms: C_32  and  C_46
   11  A    between atoms: C_45  and  C_46
                            x       y       z     vdW  Elec       q    Type
                         _______ _______ _______ _____ _____    ______ ____

>  <TORSDO>
F 11

$$$$
=
 OpenBabel11042414363D

 46 51  0  0  1  0  0  0  0  0999 V2000
  186.6850  176.7180  139.1380 O   0  0  0  0  0  1  0  0  0  0  0  0
  187.0120  176.3440  140.4410 C   0  0  0  0  0  0  0  0  0  0  0  0
  188.1240  175.1100  144.4200 C   0  0  0  0  0  2  0  0  0  0  0  0
  186.3430  176.9130  141.5510 C   0  0  0  0  0  0  0  0  0  0  0  0
  188.0160  175.3840  140.6440 C   0  0  0  0  0  0  0  0  0  0  0  0
  189.0130  176.0710  144.9380 O   0  0  0  0  0  0  0  0  0  0  0  0
  187.0300  178.0860  146.1870 C   0  0  0  0  0  2  0  0  0  0  0  0
  186.6880  176.5040  142.8560 C   0  0  0  0  0  0  0  0  0  0  0  0
  187.3430  176.6710  146.6690 C   0  0  0  0  0  2  0  0  0  0  0  0
  186.0480  177.1670  144.0570 C   0  0  2  0  0  3  0  0  0  0  0  0
  184.7300  177.8220  143.7630 C   0  0  0  0  0  3  0  0  0  0  0  0
  187.0060  178.1880  144.6620 C   0  0  0  0  0  2  0  0  0  0  0  0
  188.3460  174.9850  141.9480 C   0  0  0  0  0  3  0  0  0  0  0  0
  184.3800  178.2130  142.5370 C   0  0  0  0  0  0  0  0  0  0  0  0
  187.6890  175.5300  143.0490 C   0  0  0  0  0  0  0  0  0  0  0  0
  185.0450  178.4700  140.2810 O   0  0  0  0  0  0  0  0  0  0  0  0
  188.7800  176.2420  146.3250 C   0  0  1  0  0  3  0  0  0  0  0  0
  185.2450  177.8990  141.3850 C   0  0  0  0  0  0  0  0  0  0  0  0
  188.7060  174.8290  139.5190 N   0  0  0  0  0  2  0  0  0  0  0  0
  188.3540  173.5400  138.9330 C   0  0  0  0  0  1  0  0  0  0  0  0
  183.0840  178.9320  142.3540 C   0  0  0  0  0  2  0  0  0  0  0  0
  182.2280  178.2120  141.3270 C   0  0  0  0  0  2  0  0  0  0  0  0
  180.8710  178.0650  141.8500 N   0  0  0  0  0  2  0  0  0  0  0  0
  179.3300  177.9600  139.8970 C   0  0  0  0  0  2  0  0  0  0  0  0
  178.2480  176.9770  141.7870 O   0  0  0  0  0  0  0  0  0  0  0  0
  178.1100  177.1900  140.4050 C   0  0  0  0  0  2  0  0  0  0  0  0
  178.8470  179.2960  141.8520 O   0  0  0  0  0  0  0  0  0  0  0  0
  178.0800  178.2380  142.4300 C   0  0  0  0  0  2  0  0  0  0  0  0
  180.5440  179.9290  140.4740 O   0  0  0  0  0  1  0  0  0  0  0  0
  179.9040  178.8230  141.0330 C   0  0  1  0  0  0  0  0  0  0  0  0
  189.2300  175.0240  147.1380 C   0  0  0  0  0  2  0  0  0  0  0  0
  191.2680  177.1960  148.4660 Cl  0  0  0  0  0  0  0  0  0  0  0  0
  191.4470  176.2280  146.9780 C   0  0  2  0  0  3  0  0  0  0  0  0
  190.7450  174.8720  147.1140 C   0  0  2  0  0  3  0  0  0  0  0  0
  191.1050  173.9710  145.9640 C   0  0  0  0  0  3  0  0  0  0  0  0
  192.1900  174.1770  145.2070 C   0  0  0  0  0  3  0  0  0  0  0  0
  192.8750  176.0420  146.7130 N   0  0  0  0  0  2  0  0  0  0  0  0
  193.1030  175.3590  145.4280 C   0  0  2  0  0  3  0  0  0  0  0  0
  193.1560  176.2960  144.2080 C   0  0  1  0  0  3  0  0  0  0  0  0
  195.4950  176.5200  143.3350 O   0  0  0  0  0  1  0  0  0  0  0  0
  194.2280  175.9540  143.2150 C   0  0  0  0  0  0  0  0  0  0  0  0
  193.9900  175.1110  142.2950 O   0  0  0  0  0  0  0  0  0  0  0  0
  191.9060  176.3370  143.5800 O   0  0  0  0  0  0  0  0  0  0  0  0
  190.3560  177.9340  142.7580 C   0  0  0  0  0  2  0  0  0  0  0  0
  191.0190  178.5050  144.0030 C   0  0  0  0  0  2  0  0  0  0  0  0
  191.8130  177.6320  143.0480 C   0  0  0  0  0  3  0  0  0  0  0  0
  1  2  1  0  0  0  0
  2  5  2  0  0  0  0
  2  4  1  0  0  0  0
  3  6  1  0  0  0  0
  4  8  2  0  0  0  0
  5 13  1  0  0  0  0
  6 17  1  0  0  0  0
  7  9  1  0  0  0  0
  8 15  1  0  0  0  0
  8 10  1  0  0  0  0
 10 11  1  6  0  0  0
 10 12  1  0  0  0  0
 12  7  1  0  0  0  0
 13 15  2  0  0  0  0
 14 11  2  0  0  0  0
 15  3  1  0  0  0  0
 16 18  2  0  0  0  0
 17  9  1  0  0  0  0
 17 31  1  1  0  0  0
 18  4  1  0  0  0  0
 18 14  1  0  0  0  0
 19  5  1  0  0  0  0
 20 19  1  0  0  0  0
 21 14  1  0  0  0  0
 22 23  1  0  0  0  0
 22 21  1  0  0  0  0
 24 26  1  0  0  0  0
 24 30  1  0  0  0  0
 25 28  1  0  0  0  0
 26 25  1  0  0  0  0
 27 28  1  0  0  0  0
 30 29  1  6  0  0  0
 30 23  1  0  0  0  0
 30 27  1  0  0  0  0
 33 34  1  0  0  0  0
 33 32  1  1  0  0  0
 34 31  1  6  0  0  0
 35 34  1  0  0  0  0
 36 38  1  0  0  0  0
 36 35  2  0  0  0  0
 37 33  1  0  0  0  0
 38 39  1  6  0  0  0
 38 37  1  0  0  0  0
 39 41  1  6  0  0  0
 41 40  1  0  0  0  0
 42 41  2  0  0  0  0
 43 39  1  0  0  0  0
 44 46  1  0  0  0  0
 44 45  1  0  0  0  0
 46 43  1  0  0  0  0
 46 45  1  0  0  0  0
M  END
>  <MODEL>
2

>  <REMARK>
 VINA RESULT:      -7.8      3.235      4.573
  Name = 
  11 active torsions:
  status: ('A' for Active; 'I' for Inactive)
    1  A    between atoms: N_2  and  C_12
    2  A    between atoms: O_4  and  C_36
    3  A    between atoms: O_4  and  C_46
    4  A    between atoms: C_5  and  C_27
    5  A    between atoms: C_5  and  C_38
    6  A    between atoms: N_15  and  C_38
    7  A    between atoms: N_15  and  C_43
    8  A    between atoms: C_28  and  C_30
    9  A    between atoms: C_30  and  C_33
   10  A    between atoms: C_32  and  C_46
   11  A    between atoms: C_45  and  C_46
                            x       y       z     vdW  Elec       q    Type
                         _______ _______ _______ _____ _____    ______ ____

>  <TORSDO>
F 11

$$$$
=
 OpenBabel11042414363D

 46 51  0  0  1  0  0  0  0  0999 V2000
  188.2800  173.6670  138.9430 O   0  0  0  0  0  1  0  0  0  0  0  0
  188.8880  173.8800  140.1810 C   0  0  0  0  0  0  0  0  0  0  0  0
  190.8470  174.4270  143.9820 C   0  0  0  0  0  2  0  0  0  0  0  0
  188.5580  175.0070  140.9700 C   0  0  0  0  0  0  0  0  0  0  0  0
  189.8360  172.9530  140.6430 C   0  0  0  0  0  0  0  0  0  0  0  0
  191.9070  175.3360  143.7960 O   0  0  0  0  0  0  0  0  0  0  0  0
  190.4500  178.0260  144.2320 C   0  0  0  0  0  2  0  0  0  0  0  0
  189.1810  175.1870  142.2220 C   0  0  0  0  0  0  0  0  0  0  0  0
  190.7640  176.9600  145.2800 C   0  0  0  0  0  2  0  0  0  0  0  0
  188.9080  176.4330  143.0380 C   0  0  2  0  0  3  0  0  0  0  0  0
  187.6120  177.1110  142.7030 C   0  0  0  0  0  3  0  0  0  0  0  0
  190.0600  177.4200  142.8840 C   0  0  0  0  0  2  0  0  0  0  0  0
  190.4450  173.1440  141.8930 C   0  0  0  0  0  3  0  0  0  0  0  0
  187.0020  176.9520  141.5270 C   0  0  0  0  0  0  0  0  0  0  0  0
  190.1220  174.2440  142.6840 C   0  0  0  0  0  0  0  0  0  0  0  0
  187.1090  176.0180  139.3570 O   0  0  0  0  0  0  0  0  0  0  0  0
  192.0360  176.1640  144.9380 C   0  0  1  0  0  3  0  0  0  0  0  0
  187.5300  175.9910  140.5420 C   0  0  0  0  0  0  0  0  0  0  0  0
  190.1830  171.8270  139.8310 N   0  0  0  0  0  2  0  0  0  0  0  0
  191.3140  171.8340  138.9090 C   0  0  0  0  0  1  0  0  0  0  0  0
  185.7590  177.7330  141.2510 C   0  0  0  0  0  2  0  0  0  0  0  0
  185.5650  178.7980  142.3160 C   0  0  0  0  0  2  0  0  0  0  0  0
  185.0130  178.1800  143.5210 N   0  0  0  0  0  2  0  0  0  0  0  0
  183.9880  178.9320  145.6610 C   0  0  0  0  0  2  0  0  0  0  0  0
  185.0930  176.8440  146.0260 O   0  0  0  0  0  0  0  0  0  0  0  0
  184.2560  177.7890  146.6430 C   0  0  0  0  0  2  0  0  0  0  0  0
  186.3800  178.7560  145.3680 O   0  0  0  0  0  0  0  0  0  0  0  0
  186.3860  177.4340  145.9120 C   0  0  0  0  0  2  0  0  0  0  0  0
  185.2490  180.3880  144.2570 O   0  0  0  0  0  1  0  0  0  0  0  0
  185.1730  179.0650  144.6910 C   0  0  1  0  0  0  0  0  0  0  0  0
  192.5780  175.3960  146.1470 C   0  0  0  0  0  2  0  0  0  0  0  0
  194.8930  177.6660  145.7990 Cl  0  0  0  0  0  0  0  0  0  0  0  0
  194.7510  176.0590  145.0390 C   0  0  2  0  0  3  0  0  0  0  0  0
  194.0540  175.0640  145.9750 C   0  0  2  0  0  3  0  0  0  0  0  0
  194.1590  173.6640  145.4340 C   0  0  0  0  0  3  0  0  0  0  0  0
  195.0790  173.3150  144.5260 C   0  0  0  0  0  3  0  0  0  0  0  0
  196.0940  175.5860  144.6970 N   0  0  0  0  0  2  0  0  0  0  0  0
  196.0480  174.3180  143.9470 C   0  0  2  0  0  3  0  0  0  0  0  0
  195.8850  174.4820  142.4260 C   0  0  1  0  0  3  0  0  0  0  0  0
  197.9350  175.5450  141.4490 O   0  0  0  0  0  0  0  0  0  0  0  0
  196.6070  175.6670  141.8540 C   0  0  0  0  0  0  0  0  0  0  0  0
  195.9910  176.7660  141.6960 O   0  0  0  0  0  1  0  0  0  0  0  0
  196.2810  173.3090  141.7720 O   0  0  0  0  0  0  0  0  0  0  0  0
  194.5290  172.0220  140.8220 C   0  0  0  0  0  2  0  0  0  0  0  0
  194.0020  173.4230  141.0940 C   0  0  0  0  0  2  0  0  0  0  0  0
  195.4400  173.2210  140.6520 C   0  0  0  0  0  3  0  0  0  0  0  0
  1  2  1  0  0  0  0
  2  5  2  0  0  0  0
  2  4  1  0  0  0  0
  4  8  2  0  0  0  0
  5 13  1  0  0  0  0
  6  3  1  0  0  0  0
  6 17  1  0  0  0  0
  7  9  1  0  0  0  0
  8 15  1  0  0  0  0
  8 10  1  0  0  0  0
 10 11  1  6  0  0  0
 12 10  1  0  0  0  0
 12  7  1  0  0  0  0
 13 15  2  0  0  0  0
 14 11  2  0  0  0  0
 15  3  1  0  0  0  0
 16 18  2  0  0  0  0
 17  9  1  0  0  0  0
 17 31  1  1  0  0  0
 18  4  1  0  0  0  0
 18 14  1  0  0  0  0
 19  5  1  0  0  0  0
 20 19  1  0  0  0  0
 21 14  1  0  0  0  0
 21 22  1  0  0  0  0
 22 23  1  0  0  0  0
 23 30  1  0  0  0  0
 24 26  1  0  0  0  0
 25 26  1  0  0  0  0
 27 28  1  0  0  0  0
 28 25  1  0  0  0  0
 30 29  1  6  0  0  0
 30 27  1  0  0  0  0
 30 24  1  0  0  0  0
 33 32  1  1  0  0  0
 33 34  1  0  0  0  0
 34 31  1  6  0  0  0
 35 34  1  0  0  0  0
 36 35  2  0  0  0  0
 37 33  1  0  0  0  0
 38 39  1  6  0  0  0
 38 36  1  0  0  0  0
 38 37  1  0  0  0  0
 39 43  1  6  0  0  0
 40 41  2  0  0  0  0
 41 39  1  0  0  0  0
 42 41  1  0  0  0  0
 44 45  1  0  0  0  0
 46 44  1  0  0  0  0
 46 45  1  0  0  0  0
 46 43  1  0  0  0  0
M  END
>  <MODEL>
3

>  <REMARK>
 VINA RESULT:      -7.7      1.340      1.637
  Name = 
  11 active torsions:
  status: ('A' for Active; 'I' for Inactive)
    1  A    between atoms: N_2  and  C_12
    2  A    between atoms: O_4  and  C_36
    3  A    between atoms: O_4  and  C_46
    4  A    between atoms: C_5  and  C_27
    5  A    between atoms: C_5  and  C_38
    6  A    between atoms: N_15  and  C_38
    7  A    between atoms: N_15  and  C_43
    8  A    between atoms: C_28  and  C_30
    9  A    between atoms: C_30  and  C_33
   10  A    between atoms: C_32  and  C_46
   11  A    between atoms: C_45  and  C_46
                            x       y       z     vdW  Elec       q    Type
                         _______ _______ _______ _____ _____    ______ ____

>  <TORSDO>
F 11

$$$$
=
 OpenBabel11042414363D

 46 51  0  0  1  0  0  0  0  0999 V2000
  187.4400  175.2540  139.1800 O   0  0  0  0  0  1  0  0  0  0  0  0
  188.1930  174.9490  140.3140 C   0  0  0  0  0  0  0  0  0  0  0  0
  190.5650  173.8950  143.7560 C   0  0  0  0  0  2  0  0  0  0  0  0
  188.2690  175.8520  141.4010 C   0  0  0  0  0  0  0  0  0  0  0  0
  188.8790  173.7260  140.3690 C   0  0  0  0  0  0  0  0  0  0  0  0
  191.8170  174.5280  143.6300 O   0  0  0  0  0  0  0  0  0  0  0  0
  191.2250  177.2570  144.9540 C   0  0  0  0  0  2  0  0  0  0  0  0
  189.0280  175.5090  142.5390 C   0  0  0  0  0  0  0  0  0  0  0  0
  191.3190  175.8940  145.6380 C   0  0  0  0  0  2  0  0  0  0  0  0
  189.1940  176.5000  143.6730 C   0  0  2  0  0  3  0  0  0  0  0  0
  188.1170  177.5430  143.7340 C   0  0  0  0  0  3  0  0  0  0  0  0
  190.5590  177.1740  143.5810 C   0  0  0  0  0  2  0  0  0  0  0  0
  189.6280  173.3970  141.5100 C   0  0  0  0  0  3  0  0  0  0  0  0
  187.3820  177.8810  142.6730 C   0  0  0  0  0  0  0  0  0  0  0  0
  189.7020  174.2720  142.5900 C   0  0  0  0  0  0  0  0  0  0  0  0
  187.0240  177.6040  140.3510 O   0  0  0  0  0  0  0  0  0  0  0  0
  192.2780  174.9390  144.9040 C   0  0  1  0  0  3  0  0  0  0  0  0
  187.5260  177.1390  141.4070 C   0  0  0  0  0  0  0  0  0  0  0  0
  188.8180  172.8270  139.2560 N   0  0  0  0  0  2  0  0  0  0  0  0
  189.6690  171.6470  139.1450 C   0  0  0  0  0  1  0  0  0  0  0  0
  186.3910  178.9890  142.8080 C   0  0  0  0  0  2  0  0  0  0  0  0
  185.2930  178.5910  143.7790 C   0  0  0  0  0  2  0  0  0  0  0  0
  185.5340  179.2360  145.0690 N   0  0  0  0  0  2  0  0  0  0  0  0
  185.1730  177.0160  146.1370 C   0  0  0  0  0  2  0  0  0  0  0  0
  187.2500  177.9150  146.9060 O   0  0  0  0  0  0  0  0  0  0  0  0
  186.4470  176.7620  146.9440 C   0  0  0  0  0  2  0  0  0  0  0  0
  185.2110  179.0700  147.4100 O   0  0  0  0  0  0  0  0  0  0  0  0
  186.6020  178.9080  147.6970 C   0  0  0  0  0  2  0  0  0  0  0  0
  183.4650  178.6740  146.0050 O   0  0  0  0  0  1  0  0  0  0  0  0
  184.8420  178.5180  146.1560 C   0  0  1  0  0  0  0  0  0  0  0  0
  192.6890  173.7500  145.7780 C   0  0  0  0  0  2  0  0  0  0  0  0
  194.9130  176.0440  146.4320 Cl  0  0  0  0  0  0  0  0  0  0  0  0
  194.9430  174.7430  145.2100 C   0  0  2  0  0  3  0  0  0  0  0  0
  194.1900  173.5030  145.7060 C   0  0  2  0  0  3  0  0  0  0  0  0
  194.4270  172.3360  144.7870 C   0  0  0  0  0  3  0  0  0  0  0  0
  195.4650  172.2900  143.9420 C   0  0  0  0  0  3  0  0  0  0  0  0
  196.3390  174.4120  144.9170 N   0  0  0  0  0  2  0  0  0  0  0  0
  196.4450  173.4330  143.8220 C   0  0  2  0  0  3  0  0  0  0  0  0
  196.4560  174.0510  142.4130 C   0  0  1  0  0  3  0  0  0  0  0  0
  197.9230  174.1060  140.3800 O   0  0  0  0  0  0  0  0  0  0  0  0
  197.4070  173.3890  141.4580 C   0  0  0  0  0  0  0  0  0  0  0  0
  197.7750  172.1920  141.6620 O   0  0  0  0  0  1  0  0  0  0  0  0
  195.1610  174.0600  141.8820 O   0  0  0  0  0  0  0  0  0  0  0  0
  193.9480  176.0890  141.6880 C   0  0  0  0  0  2  0  0  0  0  0  0
  195.3870  176.4230  142.0540 C   0  0  0  0  0  2  0  0  0  0  0  0
  195.0840  175.2490  141.1400 C   0  0  0  0  0  3  0  0  0  0  0  0
  1  2  1  0  0  0  0
  2  5  2  0  0  0  0
  2  4  1  0  0  0  0
  4 18  1  0  0  0  0
  4  8  2  0  0  0  0
  5 13  1  0  0  0  0
  6  3  1  0  0  0  0
  6 17  1  0  0  0  0
  7  9  1  0  0  0  0
  8 15  1  0  0  0  0
  8 10  1  0  0  0  0
 10 12  1  6  0  0  0
 10 11  1  0  0  0  0
 12  7  1  0  0  0  0
 13 15  2  0  0  0  0
 14 21  1  0  0  0  0
 14 11  2  0  0  0  0
 15  3  1  0  0  0  0
 16 18  2  0  0  0  0
 17  9  1  0  0  0  0
 17 31  1  1  0  0  0
 18 14  1  0  0  0  0
 19  5  1  0  0  0  0
 20 19  1  0  0  0  0
 21 22  1  0  0  0  0
 22 23  1  0  0  0  0
 23 30  1  0  0  0  0
 24 30  1  0  0  0  0
 24 26  1  0  0  0  0
 25 26  1  0  0  0  0
 25 28  1  0  0  0  0
 27 28  1  0  0  0  0
 30 29  1  6  0  0  0
 30 27  1  0  0  0  0
 33 34  1  0  0  0  0
 33 32  1  1  0  0  0
 34 31  1  6  0  0  0
 35 34  1  0  0  0  0
 36 35  2  0  0  0  0
 37 33  1  0  0  0  0
 38 39  1  6  0  0  0
 38 36  1  0  0  0  0
 38 37  1  0  0  0  0
 39 41  1  6  0  0  0
 40 41  2  0  0  0  0
 41 42  1  0  0  0  0
 43 39  1  0  0  0  0
 44 45  1  0  0  0  0
 46 44  1  0  0  0  0
 46 43  1  0  0  0  0
 46 45  1  0  0  0  0
M  END
>  <MODEL>
4

>  <REMARK>
 VINA RESULT:      -7.7      0.896      1.051
  Name = 
  11 active torsions:
  status: ('A' for Active; 'I' for Inactive)
    1  A    between atoms: N_2  and  C_12
    2  A    between atoms: O_4  and  C_36
    3  A    between atoms: O_4  and  C_46
    4  A    between atoms: C_5  and  C_27
    5  A    between atoms: C_5  and  C_38
    6  A    between atoms: N_15  and  C_38
    7  A    between atoms: N_15  and  C_43
    8  A    between atoms: C_28  and  C_30
    9  A    between atoms: C_30  and  C_33
   10  A    between atoms: C_32  and  C_46
   11  A    between atoms: C_45  and  C_46
                            x       y       z     vdW  Elec       q    Type
                         _______ _______ _______ _____ _____    ______ ____

>  <TORSDO>
F 11

$$$$
=
 OpenBabel11042414363D

 46 51  0  0  1  0  0  0  0  0999 V2000
  184.0690  178.9860  146.1660 O   0  0  0  0  0  1  0  0  0  0  0  0
  185.2900  178.4950  145.7030 C   0  0  0  0  0  0  0  0  0  0  0  0
  189.1100  176.9810  144.4000 C   0  0  0  0  0  2  0  0  0  0  0  0
  185.4600  178.1320  144.3460 C   0  0  0  0  0  0  0  0  0  0  0  0
  186.3600  178.3680  146.6030 C   0  0  0  0  0  0  0  0  0  0  0  0
  189.0330  175.5750  144.3780 O   0  0  0  0  0  0  0  0  0  0  0  0
  187.9440  175.0960  141.5260 C   0  0  0  0  0  2  0  0  0  0  0  0
  186.7110  177.6510  143.9060 C   0  0  0  0  0  0  0  0  0  0  0  0
  189.3300  175.6050  141.9170 C   0  0  0  0  0  2  0  0  0  0  0  0
  186.8860  177.1720  142.4800 C   0  0  2  0  0  3  0  0  0  0  0  0
  185.8800  177.7360  141.5190 C   0  0  0  0  0  3  0  0  0  0  0  0
  186.8440  175.6480  142.4320 C   0  0  0  0  0  2  0  0  0  0  0  0
  187.5990  177.8920  146.1500 C   0  0  0  0  0  3  0  0  0  0  0  0
  184.6930  178.2010  141.9120 C   0  0  0  0  0  0  0  0  0  0  0  0
  187.7830  177.5400  144.8140 C   0  0  0  0  0  0  0  0  0  0  0  0
  183.1820  178.4900  143.7090 O   0  0  0  0  0  0  0  0  0  0  0  0
  189.7830  175.0700  143.2870 C   0  0  1  0  0  3  0  0  0  0  0  0
  184.3710  178.2890  143.3480 C   0  0  0  0  0  0  0  0  0  0  0  0
  186.1750  178.7160  147.9800 N   0  0  0  0  0  2  0  0  0  0  0  0
  187.1870  179.4160  148.7620 C   0  0  0  0  0  1  0  0  0  0  0  0
  183.7240  178.6660  140.8760 C   0  0  0  0  0  2  0  0  0  0  0  0
  182.4100  177.9160  141.0160 C   0  0  0  0  0  2  0  0  0  0  0  0
  181.3760  178.6130  140.2520 N   0  0  0  0  0  2  0  0  0  0  0  0
  179.5140  180.2410  140.5320 C   0  0  0  0  0  2  0  0  0  0  0  0
  178.7960  178.4920  139.0690 O   0  0  0  0  0  0  0  0  0  0  0  0
  178.4120  179.7360  139.5970 C   0  0  0  0  0  2  0  0  0  0  0  0
  179.3710  177.9660  141.3350 O   0  0  0  0  0  0  0  0  0  0  0  0
  178.7310  177.5420  140.1300 C   0  0  0  0  0  2  0  0  0  0  0  0
  180.7880  179.4150  142.3690 O   0  0  0  0  0  1  0  0  0  0  0  0
  180.2700  179.0430  141.1290 C   0  0  1  0  0  0  0  0  0  0  0  0
  191.2910  175.2330  143.5000 C   0  0  0  0  0  2  0  0  0  0  0  0
  191.7950  175.3590  146.7200 Cl  0  0  0  0  0  0  0  0  0  0  0  0
  192.7600  174.5650  145.4460 C   0  0  2  0  0  3  0  0  0  0  0  0
  191.8650  174.0730  144.3020 C   0  0  2  0  0  3  0  0  0  0  0  0
  192.6440  173.1950  143.3610 C   0  0  0  0  0  3  0  0  0  0  0  0
  193.7910  172.6040  143.7170 C   0  0  0  0  0  3  0  0  0  0  0  0
  193.4890  173.4450  146.0450 N   0  0  0  0  0  2  0  0  0  0  0  0
  194.4070  172.8180  145.0780 C   0  0  2  0  0  3  0  0  0  0  0  0
  195.7950  173.4780  144.9980 C   0  0  1  0  0  3  0  0  0  0  0  0
  196.8840  171.5290  146.1380 O   0  0  0  0  0  1  0  0  0  0  0  0
  196.9420  172.5240  145.1650 C   0  0  0  0  0  0  0  0  0  0  0  0
  197.9410  172.5950  144.3850 O   0  0  0  0  0  0  0  0  0  0  0  0
  195.9210  174.1840  143.7960 O   0  0  0  0  0  0  0  0  0  0  0  0
  196.9200  176.2350  143.1450 C   0  0  0  0  0  2  0  0  0  0  0  0
  195.4090  176.4150  143.1430 C   0  0  0  0  0  2  0  0  0  0  0  0
  196.0710  175.5250  144.1800 C   0  0  0  0  0  3  0  0  0  0  0  0
  2  1  1  0  0  0  0
  2  5  1  0  0  0  0
  3 15  1  0  0  0  0
  4  2  2  0  0  0  0
  5 19  1  0  0  0  0
  6  3  1  0  0  0  0
  7  9  1  0  0  0  0
  7 12  1  0  0  0  0
  8  4  1  0  0  0  0
  8 15  2  0  0  0  0
  9 17  1  0  0  0  0
 10 11  1  6  0  0  0
 10  8  1  0  0  0  0
 11 14  2  0  0  0  0
 12 10  1  0  0  0  0
 13  5  2  0  0  0  0
 14 18  1  0  0  0  0
 15 13  1  0  0  0  0
 17 31  1  1  0  0  0
 17  6  1  0  0  0  0
 18 16  2  0  0  0  0
 18  4  1  0  0  0  0
 19 20  1  0  0  0  0
 21 22  1  0  0  0  0
 21 14  1  0  0  0  0
 23 22  1  0  0  0  0
 23 30  1  0  0  0  0
 24 30  1  0  0  0  0
 25 26  1  0  0  0  0
 25 28  1  0  0  0  0
 26 24  1  0  0  0  0
 28 27  1  0  0  0  0
 30 27  1  0  0  0  0
 30 29  1  1  0  0  0
 33 37  1  0  0  0  0
 33 32  1  1  0  0  0
 34 31  1  6  0  0  0
 34 33  1  0  0  0  0
 35 36  2  0  0  0  0
 35 34  1  0  0  0  0
 36 38  1  0  0  0  0
 38 39  1  6  0  0  0
 38 37  1  0  0  0  0
 39 43  1  6  0  0  0
 39 41  1  0  0  0  0
 41 40  1  0  0  0  0
 42 41  2  0  0  0  0
 43 46  1  0  0  0  0
 44 46  1  0  0  0  0
 45 44  1  0  0  0  0
 45 46  1  0  0  0  0
M  END
>  <MODEL>
5

>  <REMARK>
 VINA RESULT:      -7.2      3.309      5.719
  Name = 
  11 active torsions:
  status: ('A' for Active; 'I' for Inactive)
    1  A    between atoms: N_2  and  C_12
    2  A    between atoms: O_4  and  C_36
    3  A    between atoms: O_4  and  C_46
    4  A    between atoms: C_5  and  C_27
    5  A    between atoms: C_5  and  C_38
    6  A    between atoms: N_15  and  C_38
    7  A    between atoms: N_15  and  C_43
    8  A    between atoms: C_28  and  C_30
    9  A    between atoms: C_30  and  C_33
   10  A    between atoms: C_32  and  C_46
   11  A    between atoms: C_45  and  C_46
                            x       y       z     vdW  Elec       q    Type
                         _______ _______ _______ _____ _____    ______ ____

>  <TORSDO>
F 11

$$$$
=
 OpenBabel11042414363D

 46 51  0  0  1  0  0  0  0  0999 V2000
  188.1550  175.2620  140.7640 O   0  0  0  0  0  1  0  0  0  0  0  0
  189.0870  174.6420  141.5950 C   0  0  0  0  0  0  0  0  0  0  0  0
  191.9970  172.6350  144.0640 C   0  0  0  0  0  2  0  0  0  0  0  0
  189.4020  175.1810  142.8650 C   0  0  0  0  0  0  0  0  0  0  0  0
  189.7130  173.4640  141.1590 C   0  0  0  0  0  0  0  0  0  0  0  0
  193.2320  173.2900  143.8960 O   0  0  0  0  0  0  0  0  0  0  0  0
  193.0210  175.4960  146.0490 C   0  0  0  0  0  2  0  0  0  0  0  0
  190.3400  174.5230  143.6870 C   0  0  0  0  0  0  0  0  0  0  0  0
  193.1750  173.9930  146.2720 C   0  0  0  0  0  2  0  0  0  0  0  0
  190.7570  175.1340  145.0090 C   0  0  2  0  0  3  0  0  0  0  0  0
  189.7600  176.1010  145.5760 C   0  0  0  0  0  3  0  0  0  0  0  0
  192.1120  175.8180  144.8640 C   0  0  0  0  0  2  0  0  0  0  0  0
  190.6420  172.8190  141.9890 C   0  0  0  0  0  3  0  0  0  0  0  0
  188.8600  176.7320  144.8190 C   0  0  0  0  0  0  0  0  0  0  0  0
  190.9540  173.3340  143.2450 C   0  0  0  0  0  0  0  0  0  0  0  0
  188.0700  177.1540  142.6300 O   0  0  0  0  0  0  0  0  0  0  0  0
  193.9370  173.3080  145.1240 C   0  0  1  0  0  3  0  0  0  0  0  0
  188.7350  176.4010  143.3880 C   0  0  0  0  0  0  0  0  0  0  0  0
  189.4080  172.9350  139.8630 N   0  0  0  0  0  2  0  0  0  0  0  0
  190.0660  173.3960  138.6460 C   0  0  0  0  0  1  0  0  0  0  0  0
  187.9630  177.7400  145.4580 C   0  0  0  0  0  2  0  0  0  0  0  0
  186.7670  177.0500  146.0890 C   0  0  0  0  0  2  0  0  0  0  0  0
  185.6430  177.0850  145.1550 N   0  0  0  0  0  2  0  0  0  0  0  0
  185.4570  179.5220  145.6230 C   0  0  0  0  0  2  0  0  0  0  0  0
  185.5710  179.1970  143.2580 O   0  0  0  0  0  0  0  0  0  0  0  0
  185.5660  180.1910  144.2510 C   0  0  0  0  0  2  0  0  0  0  0  0
  183.7190  178.2910  144.4800 O   0  0  0  0  0  0  0  0  0  0  0  0
  184.2580  178.6450  143.2040 C   0  0  0  0  0  2  0  0  0  0  0  0
  184.0780  177.8980  146.6920 O   0  0  0  0  0  1  0  0  0  0  0  0
  184.7150  178.1830  145.4850 C   0  0  1  0  0  0  0  0  0  0  0  0
  194.4450  171.9170  145.5160 C   0  0  0  0  0  2  0  0  0  0  0  0
  197.1900  173.4150  146.4400 Cl  0  0  0  0  0  0  0  0  0  0  0  0
  196.6690  172.8920  144.8160 C   0  0  2  0  0  3  0  0  0  0  0  0
  195.8040  171.6280  144.8940 C   0  0  2  0  0  3  0  0  0  0  0  0
  195.5770  171.0560  143.5210 C   0  0  0  0  0  3  0  0  0  0  0  0
  196.3640  171.3580  142.4810 C   0  0  0  0  0  3  0  0  0  0  0  0
  197.8620  172.6470  144.0020 N   0  0  0  0  0  2  0  0  0  0  0  0
  197.5090  172.3340  142.6060 C   0  0  2  0  0  3  0  0  0  0  0  0
  197.3320  173.5660  141.7010 C   0  0  1  0  0  3  0  0  0  0  0  0
  197.1350  174.2530  139.2980 O   0  0  0  0  0  0  0  0  0  0  0  0
  197.4710  173.2780  140.2340 C   0  0  0  0  0  0  0  0  0  0  0  0
  197.9410  172.1620  139.8520 O   0  0  0  0  0  1  0  0  0  0  0  0
  196.1010  174.1790  141.9620 O   0  0  0  0  0  0  0  0  0  0  0  0
  195.3780  176.4190  141.6650 C   0  0  0  0  0  2  0  0  0  0  0  0
  195.3190  176.0880  143.1490 C   0  0  0  0  0  2  0  0  0  0  0  0
  196.4210  175.5080  142.2800 C   0  0  0  0  0  3  0  0  0  0  0  0
  1  2  1  0  0  0  0
  2  4  1  0  0  0  0
  4 18  1  0  0  0  0
  4  8  2  0  0  0  0
  5  2  2  0  0  0  0
  5 13  1  0  0  0  0
  6  3  1  0  0  0  0
  6 17  1  0  0  0  0
  7  9  1  0  0  0  0
  8 10  1  0  0  0  0
 10 12  1  6  0  0  0
 10 11  1  0  0  0  0
 12  7  1  0  0  0  0
 13 15  2  0  0  0  0
 14 21  1  0  0  0  0
 14 11  2  0  0  0  0
 15  8  1  0  0  0  0
 15  3  1  0  0  0  0
 16 18  2  0  0  0  0
 17 31  1  1  0  0  0
 17  9  1  0  0  0  0
 18 14  1  0  0  0  0
 19  5  1  0  0  0  0
 20 19  1  0  0  0  0
 21 22  1  0  0  0  0
 23 30  1  0  0  0  0
 23 22  1  0  0  0  0
 25 26  1  0  0  0  0
 26 24  1  0  0  0  0
 27 30  1  0  0  0  0
 28 25  1  0  0  0  0
 28 27  1  0  0  0  0
 30 24  1  0  0  0  0
 30 29  1  1  0  0  0
 33 34  1  0  0  0  0
 33 32  1  1  0  0  0
 34 31  1  6  0  0  0
 35 34  1  0  0  0  0
 36 38  1  0  0  0  0
 36 35  2  0  0  0  0
 37 33  1  0  0  0  0
 38 39  1  6  0  0  0
 38 37  1  0  0  0  0
 39 41  1  6  0  0  0
 39 43  1  0  0  0  0
 40 41  2  0  0  0  0
 42 41  1  0  0  0  0
 43 46  1  0  0  0  0
 44 46  1  0  0  0  0
 44 45  1  0  0  0  0
 46 45  1  0  0  0  0
M  END
>  <MODEL>
6

>  <REMARK>
 VINA RESULT:      -7.0      1.846      2.945
  Name = 
  11 active torsions:
  status: ('A' for Active; 'I' for Inactive)
    1  A    between atoms: N_2  and  C_12
    2  A    between atoms: O_4  and  C_36
    3  A    between atoms: O_4  and  C_46
    4  A    between atoms: C_5  and  C_27
    5  A    between atoms: C_5  and  C_38
    6  A    between atoms: N_15  and  C_38
    7  A    between atoms: N_15  and  C_43
    8  A    between atoms: C_28  and  C_30
    9  A    between atoms: C_30  and  C_33
   10  A    between atoms: C_32  and  C_46
   11  A    between atoms: C_45  and  C_46
                            x       y       z     vdW  Elec       q    Type
                         _______ _______ _______ _____ _____    ______ ____

>  <TORSDO>
F 11

$$$$
=
 OpenBabel11042414363D

 46 51  0  0  1  0  0  0  0  0999 V2000
  186.8750  178.2940  145.6740 O   0  0  0  0  0  1  0  0  0  0  0  0
  187.0740  177.2880  144.7290 C   0  0  0  0  0  0  0  0  0  0  0  0
  187.5820  174.2260  141.7370 C   0  0  0  0  0  2  0  0  0  0  0  0
  188.1960  176.4290  144.8060 C   0  0  0  0  0  0  0  0  0  0  0  0
  186.1410  177.1310  143.6920 C   0  0  0  0  0  0  0  0  0  0  0  0
  188.4900  174.7080  140.7740 O   0  0  0  0  0  0  0  0  0  0  0  0
  191.1800  173.8430  142.0240 C   0  0  0  0  0  2  0  0  0  0  0  0
  188.3620  175.4130  143.8430 C   0  0  0  0  0  0  0  0  0  0  0  0
  190.1040  172.9410  141.4220 C   0  0  0  0  0  2  0  0  0  0  0  0
  189.6020  174.5430  143.8570 C   0  0  2  0  0  3  0  0  0  0  0  0
  190.2860  174.4780  145.1900 C   0  0  0  0  0  3  0  0  0  0  0  0
  190.5870  175.0210  142.7950 C   0  0  0  0  0  2  0  0  0  0  0  0
  186.3180  176.1140  142.7420 C   0  0  0  0  0  3  0  0  0  0  0  0
  190.1400  175.4240  146.1200 C   0  0  0  0  0  0  0  0  0  0  0  0
  187.4130  175.2550  142.8130 C   0  0  0  0  0  0  0  0  0  0  0  0
  189.2250  177.5370  146.6590 O   0  0  0  0  0  0  0  0  0  0  0  0
  189.3070  173.6480  140.3110 C   0  0  1  0  0  3  0  0  0  0  0  0
  189.1860  176.5280  145.9090 C   0  0  0  0  0  0  0  0  0  0  0  0
  185.0200  178.0190  143.6040 N   0  0  0  0  0  2  0  0  0  0  0  0
  184.2010  178.1430  142.4040 C   0  0  0  0  0  1  0  0  0  0  0  0
  190.9270  175.3170  147.3850 C   0  0  0  0  0  2  0  0  0  0  0  0
  192.4130  175.2930  147.0750 C   0  0  0  0  0  2  0  0  0  0  0  0
  192.7040  176.2780  146.0330 N   0  0  0  0  0  2  0  0  0  0  0  0
  194.9420  175.1940  146.1540 C   0  0  0  0  0  2  0  0  0  0  0  0
  193.9600  174.7040  144.0300 O   0  0  0  0  0  0  0  0  0  0  0  0
  195.0610  174.4020  144.8500 C   0  0  0  0  0  2  0  0  0  0  0  0
  194.4540  176.9790  144.6000 O   0  0  0  0  0  0  0  0  0  0  0  0
  194.1300  176.0420  143.5700 C   0  0  0  0  0  2  0  0  0  0  0  0
  194.5670  177.4510  146.8230 O   0  0  0  0  0  1  0  0  0  0  0  0
  194.1580  176.4910  145.8980 C   0  0  1  0  0  0  0  0  0  0  0  0
  188.5260  172.6570  139.4420 C   0  0  0  0  0  2  0  0  0  0  0  0
  189.6930  169.9660  138.0150 Cl  0  0  0  0  0  0  0  0  0  0  0  0
  190.2370  171.6600  137.8710 C   0  0  2  0  0  3  0  0  0  0  0  0
  189.0600  172.6320  138.0160 C   0  0  2  0  0  3  0  0  0  0  0  0
  189.4790  174.0290  137.6500 C   0  0  0  0  0  3  0  0  0  0  0  0
  190.5660  174.2800  136.9090 C   0  0  0  0  0  3  0  0  0  0  0  0
  190.8850  171.8300  136.5690 N   0  0  0  0  0  2  0  0  0  0  0  0
  191.4740  173.1740  136.4290 C   0  0  2  0  0  3  0  0  0  0  0  0
  192.9030  173.3040  136.9850 C   0  0  1  0  0  3  0  0  0  0  0  0
  194.8240  172.0380  135.9860 O   0  0  0  0  0  1  0  0  0  0  0  0
  193.9820  173.1480  135.9530 C   0  0  0  0  0  0  0  0  0  0  0  0
  194.0940  174.0050  135.0230 O   0  0  0  0  0  0  0  0  0  0  0  0
  193.0470  174.5220  137.6580 O   0  0  0  0  0  0  0  0  0  0  0  0
  193.8380  174.9220  139.8590 C   0  0  0  0  0  2  0  0  0  0  0  0
  193.7750  173.4180  139.6370 C   0  0  0  0  0  2  0  0  0  0  0  0
  194.1590  174.3430  138.4950 C   0  0  0  0  0  3  0  0  0  0  0  0
  2  4  1  0  0  0  0
  2  1  1  0  0  0  0
  3 15  1  0  0  0  0
  4 18  1  0  0  0  0
  5  2  2  0  0  0  0
  6  3  1  0  0  0  0
  7 12  1  0  0  0  0
  8 10  1  0  0  0  0
  8  4  2  0  0  0  0
  9  7  1  0  0  0  0
 10 12  1  6  0  0  0
 10 11  1  0  0  0  0
 11 14  2  0  0  0  0
 13 15  2  0  0  0  0
 13  5  1  0  0  0  0
 14 21  1  0  0  0  0
 15  8  1  0  0  0  0
 17 31  1  1  0  0  0
 17  6  1  0  0  0  0
 17  9  1  0  0  0  0
 18 14  1  0  0  0  0
 18 16  2  0  0  0  0
 19  5  1  0  0  0  0
 20 19  1  0  0  0  0
 22 21  1  0  0  0  0
 23 22  1  0  0  0  0
 25 26  1  0  0  0  0
 26 24  1  0  0  0  0
 27 30  1  0  0  0  0
 28 25  1  0  0  0  0
 28 27  1  0  0  0  0
 30 23  1  0  0  0  0
 30 24  1  0  0  0  0
 30 29  1  1  0  0  0
 33 32  1  6  0  0  0
 33 34  1  0  0  0  0
 34 31  1  1  0  0  0
 35 34  1  0  0  0  0
 36 35  2  0  0  0  0
 37 33  1  0  0  0  0
 38 37  1  0  0  0  0
 38 36  1  0  0  0  0
 38 39  1  1  0  0  0
 39 41  1  6  0  0  0
 39 43  1  0  0  0  0
 41 40  1  0  0  0  0
 42 41  2  0  0  0  0
 43 46  1  0  0  0  0
 45 44  1  0  0  0  0
 46 45  1  0  0  0  0
 46 44  1  0  0  0  0
M  END
>  <MODEL>
7

>  <REMARK>
 VINA RESULT:      -7.0      3.085      7.160
  Name = 
  11 active torsions:
  status: ('A' for Active; 'I' for Inactive)
    1  A    between atoms: N_2  and  C_12
    2  A    between atoms: O_4  and  C_36
    3  A    between atoms: O_4  and  C_46
    4  A    between atoms: C_5  and  C_27
    5  A    between atoms: C_5  and  C_38
    6  A    between atoms: N_15  and  C_38
    7  A    between atoms: N_15  and  C_43
    8  A    between atoms: C_28  and  C_30
    9  A    between atoms: C_30  and  C_33
   10  A    between atoms: C_32  and  C_46
   11  A    between atoms: C_45  and  C_46
                            x       y       z     vdW  Elec       q    Type
                         _______ _______ _______ _____ _____    ______ ____

>  <TORSDO>
F 11

$$$$
=
 OpenBabel11042414363D

 46 51  0  0  1  0  0  0  0  0999 V2000
  186.7460  176.4410  139.2370 O   0  0  0  0  0  1  0  0  0  0  0  0
  187.3540  176.0290  140.4230 C   0  0  0  0  0  0  0  0  0  0  0  0
  189.3140  174.6730  144.0160 C   0  0  0  0  0  2  0  0  0  0  0  0
  187.0410  176.6510  141.6550 C   0  0  0  0  0  0  0  0  0  0  0  0
  188.2860  174.9800  140.3840 C   0  0  0  0  0  0  0  0  0  0  0  0
  190.3880  175.5450  144.2780 O   0  0  0  0  0  0  0  0  0  0  0  0
  188.9740  177.7260  145.9500 C   0  0  0  0  0  2  0  0  0  0  0  0
  187.6630  176.2030  142.8390 C   0  0  0  0  0  0  0  0  0  0  0  0
  189.2690  176.2850  146.3630 C   0  0  0  0  0  2  0  0  0  0  0  0
  187.4090  176.9150  144.1510 C   0  0  2  0  0  3  0  0  0  0  0  0
  186.1250  177.6910  144.1860 C   0  0  0  0  0  3  0  0  0  0  0  0
  188.5780  177.8390  144.4780 C   0  0  0  0  0  2  0  0  0  0  0  0
  188.8950  174.5440  141.5700 C   0  0  0  0  0  3  0  0  0  0  0  0
  185.5150  178.1210  143.0800 C   0  0  0  0  0  0  0  0  0  0  0  0
  188.5880  175.1400  142.7910 C   0  0  0  0  0  0  0  0  0  0  0  0
  185.6120  178.3300  140.7260 O   0  0  0  0  0  0  0  0  0  0  0  0
  190.5280  175.7270  145.6750 C   0  0  1  0  0  3  0  0  0  0  0  0
  186.0300  177.7360  141.7530 C   0  0  0  0  0  0  0  0  0  0  0  0
  188.6160  174.3700  139.1310 N   0  0  0  0  0  2  0  0  0  0  0  0
  188.2450  173.0000  138.7950 C   0  0  0  0  0  1  0  0  0  0  0  0
  184.2860  178.9570  143.2160 C   0  0  0  0  0  2  0  0  0  0  0  0
  183.0780  178.2000  142.6910 C   0  0  0  0  0  2  0  0  0  0  0  0
  182.0680  179.1580  142.2420 N   0  0  0  0  0  2  0  0  0  0  0  0
  180.3700  177.5510  141.3870 C   0  0  0  0  0  2  0  0  0  0  0  0
  179.2440  179.4530  142.2950 O   0  0  0  0  0  0  0  0  0  0  0  0
  179.0230  178.1710  141.7650 C   0  0  0  0  0  2  0  0  0  0  0  0
  180.6890  179.7350  140.4040 O   0  0  0  0  0  0  0  0  0  0  0  0
  179.6550  180.2920  141.2190 C   0  0  0  0  0  2  0  0  0  0  0  0
  182.3080  178.1590  140.1400 O   0  0  0  0  0  1  0  0  0  0  0  0
  181.3700  178.6650  141.0390 C   0  0  1  0  0  0  0  0  0  0  0  0
  191.0550  174.4680  146.3710 C   0  0  0  0  0  2  0  0  0  0  0  0
  192.5810  177.1530  147.4190 Cl  0  0  0  0  0  0  0  0  0  0  0  0
  193.1120  175.9310  146.2330 C   0  0  2  0  0  3  0  0  0  0  0  0
  192.5610  174.5440  146.5850 C   0  0  2  0  0  3  0  0  0  0  0  0
  193.2070  173.4850  145.7340 C   0  0  0  0  0  3  0  0  0  0  0  0
  194.3700  173.6870  145.1010 C   0  0  0  0  0  3  0  0  0  0  0  0
  194.5760  175.9090  146.2120 N   0  0  0  0  0  2  0  0  0  0  0  0
  195.0900  175.0120  145.1620 C   0  0  2  0  0  3  0  0  0  0  0  0
  195.2320  175.6680  143.7770 C   0  0  1  0  0  3  0  0  0  0  0  0
  197.6180  175.3050  143.0990 O   0  0  0  0  0  0  0  0  0  0  0  0
  196.6090  176.1870  143.4800 C   0  0  0  0  0  0  0  0  0  0  0  0
  196.8380  177.4350  143.5290 O   0  0  0  0  0  1  0  0  0  0  0  0
  194.8240  174.7750  142.7800 O   0  0  0  0  0  0  0  0  0  0  0  0
  192.6920  175.1260  141.7990 C   0  0  0  0  0  2  0  0  0  0  0  0
  193.0820  176.3830  142.5640 C   0  0  0  0  0  2  0  0  0  0  0  0
  194.1410  175.5670  141.8440 C   0  0  0  0  0  3  0  0  0  0  0  0
  1  2  1  0  0  0  0
  2  4  1  0  0  0  0
  3  6  1  0  0  0  0
  4 18  1  0  0  0  0
  4  8  2  0  0  0  0
  5  2  2  0  0  0  0
  5 13  1  0  0  0  0
  6 17  1  0  0  0  0
  7  9  1  0  0  0  0
  8 10  1  0  0  0  0
 10 11  1  6  0  0  0
 10 12  1  0  0  0  0
 12  7  1  0  0  0  0
 13 15  2  0  0  0  0
 14 21  1  0  0  0  0
 14 11  2  0  0  0  0
 15  8  1  0  0  0  0
 15  3  1  0  0  0  0
 16 18  2  0  0  0  0
 17  9  1  0  0  0  0
 17 31  1  1  0  0  0
 18 14  1  0  0  0  0
 19  5  1  0  0  0  0
 20 19  1  0  0  0  0
 22 21  1  0  0  0  0
 23 22  1  0  0  0  0
 24 26  1  0  0  0  0
 26 25  1  0  0  0  0
 27 30  1  0  0  0  0
 27 28  1  0  0  0  0
 28 25  1  0  0  0  0
 30 29  1  6  0  0  0
 30 24  1  0  0  0  0
 30 23  1  0  0  0  0
 33 34  1  0  0  0  0
 33 32  1  1  0  0  0
 34 31  1  6  0  0  0
 35 34  1  0  0  0  0
 36 38  1  0  0  0  0
 36 35  2  0  0  0  0
 37 33  1  0  0  0  0
 38 39  1  6  0  0  0
 38 37  1  0  0  0  0
 39 43  1  6  0  0  0
 40 41  2  0  0  0  0
 41 42  1  0  0  0  0
 41 39  1  0  0  0  0
 44 46  1  0  0  0  0
 44 45  1  0  0  0  0
 46 45  1  0  0  0  0
 46 43  1  0  0  0  0
M  END
>  <MODEL>
8

>  <REMARK>
 VINA RESULT:      -6.8      2.524      3.496
  Name = 
  11 active torsions:
  status: ('A' for Active; 'I' for Inactive)
    1  A    between atoms: N_2  and  C_12
    2  A    between atoms: O_4  and  C_36
    3  A    between atoms: O_4  and  C_46
    4  A    between atoms: C_5  and  C_27
    5  A    between atoms: C_5  and  C_38
    6  A    between atoms: N_15  and  C_38
    7  A    between atoms: N_15  and  C_43
    8  A    between atoms: C_28  and  C_30
    9  A    between atoms: C_30  and  C_33
   10  A    between atoms: C_32  and  C_46
   11  A    between atoms: C_45  and  C_46
                            x       y       z     vdW  Elec       q    Type
                         _______ _______ _______ _____ _____    ______ ____

>  <TORSDO>
F 11

$$$$
=
 OpenBabel11042414363D

 46 51  0  0  1  0  0  0  0  0999 V2000
  183.8860  179.0840  146.0660 O   0  0  0  0  0  1  0  0  0  0  0  0
  185.1210  178.5910  145.6420 C   0  0  0  0  0  0  0  0  0  0  0  0
  188.9800  177.0730  144.4640 C   0  0  0  0  0  2  0  0  0  0  0  0
  185.3250  178.1980  144.2980 C   0  0  0  0  0  0  0  0  0  0  0  0
  186.1700  178.4910  146.5690 C   0  0  0  0  0  0  0  0  0  0  0  0
  188.9120  175.6660  144.4710 O   0  0  0  0  0  0  0  0  0  0  0  0
  187.8930  175.1170  141.6060 C   0  0  0  0  0  2  0  0  0  0  0  0
  186.5890  177.7170  143.8980 C   0  0  0  0  0  0  0  0  0  0  0  0
  189.2660  175.6440  142.0170 C   0  0  0  0  0  2  0  0  0  0  0  0
  186.8000  177.2070  142.4880 C   0  0  2  0  0  3  0  0  0  0  0  0
  185.8140  177.7420  141.4920 C   0  0  0  0  0  3  0  0  0  0  0  0
  186.7690  175.6820  142.4740 C   0  0  0  0  0  2  0  0  0  0  0  0
  187.4230  178.0130  146.1560 C   0  0  0  0  0  3  0  0  0  0  0  0
  184.6150  178.2080  141.8460 C   0  0  0  0  0  0  0  0  0  0  0  0
  187.6400  177.6320  144.8340 C   0  0  0  0  0  0  0  0  0  0  0  0
  183.0610  178.5280  143.6000 O   0  0  0  0  0  0  0  0  0  0  0  0
  189.6900  175.1430  143.4100 C   0  0  1  0  0  3  0  0  0  0  0  0
  184.2590  178.3260  143.2720 C   0  0  0  0  0  0  0  0  0  0  0  0
  185.9510  178.8680  147.9330 N   0  0  0  0  0  2  0  0  0  0  0  0
  186.9960  179.4430  148.7730 C   0  0  0  0  0  1  0  0  0  0  0  0
  183.6680  178.6430  140.7770 C   0  0  0  0  0  2  0  0  0  0  0  0
  182.3370  177.9290  140.9360 C   0  0  0  0  0  2  0  0  0  0  0  0
  181.3040  178.6680  140.2120 N   0  0  0  0  0  2  0  0  0  0  0  0
  179.4140  180.2540  140.5390 C   0  0  0  0  0  2  0  0  0  0  0  0
  178.7010  178.4930  139.0890 O   0  0  0  0  0  0  0  0  0  0  0  0
  178.3020  179.7270  139.6290 C   0  0  0  0  0  2  0  0  0  0  0  0
  179.3400  177.9760  141.3410 O   0  0  0  0  0  0  0  0  0  0  0  0
  178.6810  177.5400  140.1490 C   0  0  0  0  0  2  0  0  0  0  0  0
  180.7490  179.4540  142.3440 O   0  0  0  0  0  1  0  0  0  0  0  0
  180.2110  179.0730  141.1160 C   0  0  1  0  0  0  0  0  0  0  0  0
  191.1910  175.3200  143.6540 C   0  0  0  0  0  2  0  0  0  0  0  0
  194.2770  174.4490  143.0580 Cl  0  0  0  0  0  0  0  0  0  0  0  0
  192.8150  173.4370  143.2000 C   0  0  2  0  0  3  0  0  0  0  0  0
  191.8190  174.0420  144.1960 C   0  0  2  0  0  3  0  0  0  0  0  0
  190.7110  173.0690  144.4950 C   0  0  0  0  0  3  0  0  0  0  0  0
  190.8310  171.7550  144.2660 C   0  0  0  0  0  3  0  0  0  0  0  0
  193.2180  172.0960  143.6300 N   0  0  0  0  0  2  0  0  0  0  0  0
  192.0750  171.1660  143.6460 C   0  0  2  0  0  3  0  0  0  0  0  0
  191.7910  170.4810  142.2970 C   0  0  1  0  0  3  0  0  0  0  0  0
  193.4260  168.6000  142.5720 O   0  0  0  0  0  1  0  0  0  0  0  0
  192.1330  169.0200  142.2650 C   0  0  0  0  0  0  0  0  0  0  0  0
  191.2310  168.1660  142.0040 O   0  0  0  0  0  0  0  0  0  0  0  0
  190.4540  170.6760  141.9330 O   0  0  0  0  0  0  0  0  0  0  0  0
  189.4310  172.1040  140.3390 C   0  0  0  0  0  2  0  0  0  0  0  0
  190.8850  172.5250  140.4980 C   0  0  0  0  0  2  0  0  0  0  0  0
  190.5010  171.0580  140.5840 C   0  0  0  0  0  3  0  0  0  0  0  0
  2  1  1  0  0  0  0
  2  5  1  0  0  0  0
  3  6  1  0  0  0  0
  3 15  1  0  0  0  0
  4  2  2  0  0  0  0
  5 19  1  0  0  0  0
  7  9  1  0  0  0  0
  7 12  1  0  0  0  0
  8  4  1  0  0  0  0
  8 15  2  0  0  0  0
  9 17  1  0  0  0  0
 10 11  1  6  0  0  0
 10  8  1  0  0  0  0
 11 14  2  0  0  0  0
 12 10  1  0  0  0  0
 13  5  2  0  0  0  0
 14 18  1  0  0  0  0
 15 13  1  0  0  0  0
 17 31  1  1  0  0  0
 17  6  1  0  0  0  0
 18 16  2  0  0  0  0
 18  4  1  0  0  0  0
 19 20  1  0  0  0  0
 21 22  1  0  0  0  0
 21 14  1  0  0  0  0
 23 22  1  0  0  0  0
 23 30  1  0  0  0  0
 24 30  1  0  0  0  0
 25 26  1  0  0  0  0
 25 28  1  0  0  0  0
 26 24  1  0  0  0  0
 28 27  1  0  0  0  0
 30 27  1  0  0  0  0
 30 29  1  1  0  0  0
 33 32  1  1  0  0  0
 33 37  1  0  0  0  0
 33 34  1  0  0  0  0
 34 31  1  6  0  0  0
 34 35  1  0  0  0  0
 36 35  2  0  0  0  0
 37 38  1  0  0  0  0
 38 39  1  6  0  0  0
 38 36  1  0  0  0  0
 39 43  1  1  0  0  0
 41 39  1  0  0  0  0
 41 40  1  0  0  0  0
 42 41  2  0  0  0  0
 44 45  1  0  0  0  0
 44 46  1  0  0  0  0
 45 46  1  0  0  0  0
 46 43  1  0  0  0  0
M  END
>  <MODEL>
9

>  <REMARK>
 VINA RESULT:      -6.7      3.781      6.321
  Name = 
  11 active torsions:
  status: ('A' for Active; 'I' for Inactive)
    1  A    between atoms: N_2  and  C_12
    2  A    between atoms: O_4  and  C_36
    3  A    between atoms: O_4  and  C_46
    4  A    between atoms: C_5  and  C_27
    5  A    between atoms: C_5  and  C_38
    6  A    between atoms: N_15  and  C_38
    7  A    between atoms: N_15  and  C_43
    8  A    between atoms: C_28  and  C_30
    9  A    between atoms: C_30  and  C_33
   10  A    between atoms: C_32  and  C_46
   11  A    between atoms: C_45  and  C_46
                            x       y       z     vdW  Elec       q    Type
                         _______ _______ _______ _____ _____    ______ ____

>  <TORSDO>
F 11

$$$$
