=
 OpenBabel11042417583D

 36 41  0  0  1  0  0  0  0  0999 V2000
  188.5000  176.5230  144.2250 C   0  0  0  0  0  0  0  0  0  0  0  0
  190.0880  174.2020  141.4350 C   0  0  0  0  0  0  0  0  0  0  0  0
  187.3250  177.1430  143.9380 N   0  0  0  0  0  0  0  0  0  0  0  0
  186.8820  177.6780  145.0980 C   0  0  0  0  0  0  0  0  0  0  0  0
  191.1830  175.8220  145.7470 C   0  0  0  0  0  0  0  0  0  0  0  0
  191.5590  175.8920  144.3600 N   0  0  0  0  0  0  0  0  0  0  0  0
  193.2170  176.4350  142.7850 O   0  0  0  0  0  0  0  0  0  0  0  0
  192.8740  176.3670  143.9950 C   0  0  0  0  0  0  0  0  0  0  0  0
  192.0210  175.4640  146.7390 N   0  0  0  0  0  0  0  0  0  0  0  0
  191.2810  175.6240  147.8590 C   0  0  0  0  0  3  0  0  0  0  0  0
  187.5770  177.9600  147.4610 C   0  0  0  0  0  3  0  0  0  0  0  0
  190.6580  175.3980  143.3460 C   0  0  0  0  0  0  0  0  0  0  0  0
  185.7200  178.6100  145.2870 C   0  0  0  0  0  2  0  0  0  0  0  0
  185.2630  178.5890  146.7600 C   0  0  0  0  0  2  0  0  0  0  0  0
  189.9800  176.1930  146.2860 C   0  0  0  0  0  0  0  0  0  0  0  0
  190.0690  176.0620  147.5850 O   0  0  0  0  0  0  0  0  0  0  0  0
  189.2920  175.7090  143.2720 C   0  0  0  0  0  0  0  0  0  0  0  0
  191.1070  174.5790  142.2930 C   0  0  0  0  0  3  0  0  0  0  0  0
  193.7910  176.8140  144.9920 N   0  0  0  0  0  1  0  0  0  0  0  0
  187.7620  177.4160  146.1110 C   0  0  0  0  0  0  0  0  0  0  0  0
  188.6620  174.9570  141.9010 S   0  0  0  0  0  0  0  0  0  0  0  0
  188.8020  176.6890  145.5720 C   0  0  0  0  0  0  0  0  0  0  0  0
  186.4140  178.5590  147.7500 C   0  0  0  0  0  3  0  0  0  0  0  0
  190.6080  170.5210  138.2900 C   0  0  0  0  0  3  0  0  0  0  0  0
  190.7980  168.9120  141.5740 C   0  0  0  0  0  1  0  0  0  0  0  0
  190.5700  171.2720  140.9440 C   0  0  0  0  0  0  0  0  0  0  0  0
  190.6370  171.5790  142.1650 O   0  0  0  0  0  0  0  0  0  0  0  0
  190.6960  169.6050  139.2850 N   0  0  0  0  0  0  0  0  0  0  0  0
  190.3050  173.5440  140.1810 N   0  0  0  0  0  2  0  0  0  0  0  0
  190.4340  172.2660  139.9430 C   0  0  0  0  0  0  0  0  0  0  0  0
  190.6770  169.9590  140.5710 N   0  0  0  0  0  0  0  0  0  0  0  0
  190.4810  171.8670  138.6100 C   0  0  0  0  0  3  0  0  0  0  0  0
  187.2030  178.5660  141.9400 C   0  0  0  0  0  1  0  0  0  0  0  0
  186.7160  177.2950  142.6150 C   0  0  2  0  0  3  0  0  0  0  0  0
  185.1980  177.2730  142.7090 C   0  0  0  0  0  2  0  0  0  0  0  0
  184.6710  178.4190  142.1440 F   0  0  0  0  0  0  0  0  0  0  0  0
  1 22  2  0  0  0  0
  2 21  1  0  0  0  0
  2 18  2  0  0  0  0
  3  1  1  0  0  0  0
  3  4  1  0  0  0  0
  4 13  1  0  0  0  0
  4 20  2  0  0  0  0
  5 15  2  0  0  0  0
  5  9  1  0  0  0  0
  6  5  1  0  0  0  0
  7  8  2  0  0  0  0
  8  6  1  0  0  0  0
  8 19  1  0  0  0  0
  9 10  2  0  0  0  0
 11 23  2  0  0  0  0
 12  6  1  0  0  0  0
 13 14  1  0  0  0  0
 14 23  1  0  0  0  0
 15 16  1  0  0  0  0
 16 10  1  0  0  0  0
 17 12  2  0  0  0  0
 17  1  1  0  0  0  0
 18 12  1  0  0  0  0
 20 11  1  0  0  0  0
 21 17  1  0  0  0  0
 22 20  1  0  0  0  0
 22 15  1  0  0  0  0
 24 32  1  0  0  0  0
 24 28  2  0  0  0  0
 26 27  2  0  0  0  0
 28 31  1  0  0  0  0
 29  2  1  0  0  0  0
 30 29  1  0  0  0  0
 30 26  1  0  0  0  0
 31 26  1  0  0  0  0
 31 25  1  0  0  0  0
 32 30  2  0  0  0  0
 34 33  1  1  0  0  0
 34 35  1  0  0  0  0
 34  3  1  0  0  0  0
 36 35  1  0  0  0  0
M  END
>  <MODEL>
1

>  <REMARK>
 VINA RESULT:      -8.7      0.000      0.000
  Name = 
  3 active torsions:
  status: ('A' for Active; 'I' for Inactive)
    1  A    between atoms: C_3  and  N_23
    2  A    between atoms: N_6  and  C_31
    3  A    between atoms: C_20  and  C_31
                            x       y       z     vdW  Elec       q    Type
                         _______ _______ _______ _____ _____    ______ ____

>  <TORSDO>
F 3

$$$$
=
 OpenBabel11042417583D

 36 41  0  0  1  0  0  0  0  0999 V2000
  189.1980  175.5890  144.3300 C   0  0  0  0  0  0  0  0  0  0  0  0
  192.5860  173.8270  143.2790 C   0  0  0  0  0  0  0  0  0  0  0  0
  189.0190  175.8830  145.6450 N   0  0  0  0  0  0  0  0  0  0  0  0
  187.9190  176.6660  145.7150 C   0  0  0  0  0  0  0  0  0  0  0  0
  188.5080  175.1520  141.2730 C   0  0  0  0  0  0  0  0  0  0  0  0
  189.2930  174.0030  141.6380 N   0  0  0  0  0  0  0  0  0  0  0  0
  189.7060  171.7100  141.3250 O   0  0  0  0  0  0  0  0  0  0  0  0
  189.0270  172.7260  141.0160 C   0  0  0  0  0  0  0  0  0  0  0  0
  188.0720  175.4040  140.0240 N   0  0  0  0  0  0  0  0  0  0  0  0
  187.3150  176.5150  140.1650 C   0  0  0  0  0  3  0  0  0  0  0  0
  186.1400  177.5980  144.2620 C   0  0  0  0  0  3  0  0  0  0  0  0
  190.4030  174.1510  142.5490 C   0  0  0  0  0  0  0  0  0  0  0  0
  187.1990  177.1170  146.9530 C   0  0  0  0  0  2  0  0  0  0  0  0
  186.3300  178.3510  146.6360 C   0  0  0  0  0  2  0  0  0  0  0  0
  188.0010  176.0980  142.1260 C   0  0  0  0  0  0  0  0  0  0  0  0
  187.2710  176.9220  141.4180 O   0  0  0  0  0  0  0  0  0  0  0  0
  190.3460  174.8380  143.7710 C   0  0  0  0  0  0  0  0  0  0  0  0
  191.6530  173.5570  142.2930 C   0  0  0  0  0  3  0  0  0  0  0  0
  187.9630  172.5770  140.0790 N   0  0  0  0  0  1  0  0  0  0  0  0
  187.3920  176.8630  144.4690 C   0  0  0  0  0  0  0  0  0  0  0  0
  191.8530  174.7000  144.5130 S   0  0  0  0  0  0  0  0  0  0  0  0
  188.1880  176.1780  143.5750 C   0  0  0  0  0  0  0  0  0  0  0  0
  185.6120  178.2590  145.3010 C   0  0  0  0  0  3  0  0  0  0  0  0
  197.4170  173.4030  143.7320 C   0  0  0  0  0  3  0  0  0  0  0  0
  196.8960  176.9750  143.1160 C   0  0  0  0  0  1  0  0  0  0  0  0
  195.3110  175.1050  143.2050 C   0  0  0  0  0  0  0  0  0  0  0  0
  194.3890  175.9030  142.8850 O   0  0  0  0  0  0  0  0  0  0  0  0
  197.6090  174.7340  143.5610 N   0  0  0  0  0  0  0  0  0  0  0  0
  193.8630  173.1840  143.3660 N   0  0  0  0  0  0  0  0  0  0  0  0
  195.0490  173.7280  143.4170 C   0  0  0  0  0  0  0  0  0  0  0  0
  196.5960  175.5640  143.3070 N   0  0  0  0  0  0  0  0  0  0  0  0
  196.1300  172.8840  143.6570 C   0  0  0  0  0  2  0  0  0  0  0  0
  188.9410  174.4820  147.6610 C   0  0  0  0  0  1  0  0  0  0  0  0
  189.7990  175.3670  146.7710 C   0  0  2  0  0  3  0  0  0  0  0  0
  190.4240  176.5020  147.5680 C   0  0  0  0  0  2  0  0  0  0  0  0
  191.3460  175.9990  148.4660 F   0  0  0  0  0  0  0  0  0  0  0  0
  1  3  1  0  0  0  0
  2 29  1  0  0  0  0
  2 21  1  0  0  0  0
  3  4  1  0  0  0  0
  3 34  1  0  0  0  0
  4 13  1  0  0  0  0
  5  6  1  0  0  0  0
  5 15  2  0  0  0  0
  6 12  1  0  0  0  0
  8  7  2  0  0  0  0
  8  6  1  0  0  0  0
  9 10  2  0  0  0  0
  9  5  1  0  0  0  0
 10 16  1  0  0  0  0
 11 20  1  0  0  0  0
 11 23  2  0  0  0  0
 12 17  2  0  0  0  0
 14 13  1  0  0  0  0
 15 22  1  0  0  0  0
 16 15  1  0  0  0  0
 17  1  1  0  0  0  0
 17 21  1  0  0  0  0
 18 12  1  0  0  0  0
 18  2  2  0  0  0  0
 19  8  1  0  0  0  0
 20  4  2  0  0  0  0
 22  1  2  0  0  0  0
 22 20  1  0  0  0  0
 23 14  1  0  0  0  0
 25 31  1  0  0  0  0
 26 31  1  0  0  0  0
 26 30  1  0  0  0  0
 27 26  2  0  0  0  0
 28 24  2  0  0  0  0
 29 30  2  0  0  0  0
 30 32  1  0  0  0  0
 31 28  1  0  0  0  0
 32 24  1  0  0  0  0
 34 35  1  0  0  0  0
 34 33  1  1  0  0  0
 35 36  1  0  0  0  0
M  END
>  <MODEL>
2

>  <REMARK>
 VINA RESULT:      -8.6      3.117      5.891
  Name = 
  3 active torsions:
  status: ('A' for Active; 'I' for Inactive)
    1  A    between atoms: C_3  and  N_23
    2  A    between atoms: N_6  and  C_31
    3  A    between atoms: C_20  and  C_31
                            x       y       z     vdW  Elec       q    Type
                         _______ _______ _______ _____ _____    ______ ____

>  <TORSDO>
F 3

$$$$
=
 OpenBabel11042417583D

 36 41  0  0  1  0  0  0  0  0999 V2000
  188.9020  176.8680  144.5100 C   0  0  0  0  0  0  0  0  0  0  0  0
  192.5500  176.1380  143.1510 C   0  0  0  0  0  0  0  0  0  0  0  0
  188.7580  177.0980  145.8430 N   0  0  0  0  0  0  0  0  0  0  0  0
  187.4910  177.5370  146.0190 C   0  0  0  0  0  0  0  0  0  0  0  0
  188.1120  176.2590  141.5080 C   0  0  0  0  0  0  0  0  0  0  0  0
  189.2160  175.3780  141.7800 N   0  0  0  0  0  0  0  0  0  0  0  0
  190.2310  173.2960  141.3790 O   0  0  0  0  0  0  0  0  0  0  0  0
  189.2710  174.0790  141.1500 C   0  0  0  0  0  0  0  0  0  0  0  0
  187.5200  176.3790  140.3040 N   0  0  0  0  0  0  0  0  0  0  0  0
  186.4950  177.2300  140.5320 C   0  0  0  0  0  3  0  0  0  0  0  0
  185.4070  177.9300  144.7350 C   0  0  0  0  0  3  0  0  0  0  0  0
  190.3110  175.8320  142.6040 C   0  0  0  0  0  0  0  0  0  0  0  0
  186.7790  177.7650  147.3210 C   0  0  0  0  0  2  0  0  0  0  0  0
  185.5740  178.7030  147.1050 C   0  0  0  0  0  2  0  0  0  0  0  0
  187.4320  177.0210  142.4210 C   0  0  0  0  0  0  0  0  0  0  0  0
  186.4430  177.6060  141.7940 O   0  0  0  0  0  0  0  0  0  0  0  0
  190.1650  176.4730  143.8430 C   0  0  0  0  0  0  0  0  0  0  0  0
  191.6520  175.6170  142.2350 C   0  0  0  0  0  3  0  0  0  0  0  0
  188.2170  173.6360  140.2970 N   0  0  0  0  0  1  0  0  0  0  0  0
  186.8290  177.5790  144.8240 C   0  0  0  0  0  0  0  0  0  0  0  0
  191.7060  176.7670  144.4600 S   0  0  0  0  0  0  0  0  0  0  0  0
  187.7080  177.1490  143.8530 C   0  0  0  0  0  0  0  0  0  0  0  0
  184.8030  178.4140  145.8290 C   0  0  0  0  0  3  0  0  0  0  0  0
  196.7120  173.6670  143.6890 C   0  0  0  0  0  3  0  0  0  0  0  0
  194.2440  171.6450  145.4880 C   0  0  0  0  0  1  0  0  0  0  0  0
  194.0320  173.7980  144.3290 C   0  0  0  0  0  0  0  0  0  0  0  0
  192.8320  173.8560  144.7100 O   0  0  0  0  0  0  0  0  0  0  0  0
  196.1050  172.6820  144.3960 N   0  0  0  0  0  0  0  0  0  0  0  0
  193.9590  175.8820  143.1200 N   0  0  0  0  0  0  0  0  0  0  0  0
  194.6080  174.8350  143.5540 C   0  0  0  0  0  0  0  0  0  0  0  0
  194.8090  172.7370  144.7090 N   0  0  0  0  0  0  0  0  0  0  0  0
  195.9680  174.7610  143.2640 C   0  0  0  0  0  2  0  0  0  0  0  0
  189.4940  175.4600  147.5170 C   0  0  0  0  0  1  0  0  0  0  0  0
  189.7420  176.8210  146.8900 C   0  0  2  0  0  3  0  0  0  0  0  0
  189.7390  177.9180  147.9440 C   0  0  0  0  0  2  0  0  0  0  0  0
  190.9110  177.8740  148.6770 F   0  0  0  0  0  0  0  0  0  0  0  0
  1  3  1  0  0  0  0
  2 21  1  0  0  0  0
  3  4  1  0  0  0  0
  3 34  1  0  0  0  0
  4 13  1  0  0  0  0
  5  6  1  0  0  0  0
  5 15  2  0  0  0  0
  6 12  1  0  0  0  0
  8  7  2  0  0  0  0
  8  6  1  0  0  0  0
  9 10  2  0  0  0  0
  9  5  1  0  0  0  0
 10 16  1  0  0  0  0
 11 20  1  0  0  0  0
 11 23  2  0  0  0  0
 12 17  2  0  0  0  0
 14 13  1  0  0  0  0
 15 22  1  0  0  0  0
 16 15  1  0  0  0  0
 17 21  1  0  0  0  0
 17  1  1  0  0  0  0
 18 12  1  0  0  0  0
 18  2  2  0  0  0  0
 19  8  1  0  0  0  0
 20  4  2  0  0  0  0
 22  1  2  0  0  0  0
 22 20  1  0  0  0  0
 23 14  1  0  0  0  0
 24 28  2  0  0  0  0
 26 31  1  0  0  0  0
 26 27  2  0  0  0  0
 28 31  1  0  0  0  0
 29  2  1  0  0  0  0
 29 30  2  0  0  0  0
 30 26  1  0  0  0  0
 31 25  1  0  0  0  0
 32 30  1  0  0  0  0
 32 24  1  0  0  0  0
 34 33  1  1  0  0  0
 34 35  1  0  0  0  0
 35 36  1  0  0  0  0
M  END
>  <MODEL>
3

>  <REMARK>
 VINA RESULT:      -8.5      3.080      5.350
  Name = 
  3 active torsions:
  status: ('A' for Active; 'I' for Inactive)
    1  A    between atoms: C_3  and  N_23
    2  A    between atoms: N_6  and  C_31
    3  A    between atoms: C_20  and  C_31
                            x       y       z     vdW  Elec       q    Type
                         _______ _______ _______ _____ _____    ______ ____

>  <TORSDO>
F 3

$$$$
=
 OpenBabel11042417583D

 36 41  0  0  1  0  0  0  0  0999 V2000
  187.6250  176.5800  144.2970 C   0  0  0  0  0  0  0  0  0  0  0  0
  191.2480  175.0250  144.6860 C   0  0  0  0  0  0  0  0  0  0  0  0
  187.0410  177.1090  145.4050 N   0  0  0  0  0  0  0  0  0  0  0  0
  185.9380  177.7650  144.9800 C   0  0  0  0  0  0  0  0  0  0  0  0
  187.9190  175.4710  141.3490 C   0  0  0  0  0  0  0  0  0  0  0  0
  188.6060  174.5100  142.1700 N   0  0  0  0  0  0  0  0  0  0  0  0
  189.1960  172.2600  142.5080 O   0  0  0  0  0  0  0  0  0  0  0  0
  188.6000  173.1130  141.7990 C   0  0  0  0  0  0  0  0  0  0  0  0
  187.8740  175.4200  140.0040 N   0  0  0  0  0  0  0  0  0  0  0  0
  187.0600  176.4470  139.6690 C   0  0  0  0  0  3  0  0  0  0  0  0
  184.6460  178.1890  142.9060 C   0  0  0  0  0  3  0  0  0  0  0  0
  189.3780  174.9560  143.3050 C   0  0  0  0  0  0  0  0  0  0  0  0
  184.8570  178.3720  145.8250 C   0  0  0  0  0  2  0  0  0  0  0  0
  184.0710  179.4160  145.0050 C   0  0  0  0  0  2  0  0  0  0  0  0
  187.1350  176.5060  141.7860 C   0  0  0  0  0  0  0  0  0  0  0  0
  186.6200  177.0870  140.7330 O   0  0  0  0  0  0  0  0  0  0  0  0
  188.9210  175.8630  144.2740 C   0  0  0  0  0  0  0  0  0  0  0  0
  190.6720  174.4640  143.5590 C   0  0  0  0  0  3  0  0  0  0  0  0
  187.8790  172.6660  140.6530 N   0  0  0  0  0  1  0  0  0  0  0  0
  185.8080  177.6510  143.6230 C   0  0  0  0  0  0  0  0  0  0  0  0
  190.1350  176.0410  145.4290 S   0  0  0  0  0  0  0  0  0  0  0  0
  186.8680  176.8930  143.1720 C   0  0  0  0  0  0  0  0  0  0  0  0
  183.7990  178.9820  143.5750 C   0  0  0  0  0  3  0  0  0  0  0  0
  196.0390  174.6080  145.4480 C   0  0  0  0  0  3  0  0  0  0  0  0
  195.8040  176.4290  142.2800 C   0  0  0  0  0  1  0  0  0  0  0  0
  194.0660  175.4880  143.7340 C   0  0  0  0  0  0  0  0  0  0  0  0
  193.2010  175.8380  142.8860 O   0  0  0  0  0  0  0  0  0  0  0  0
  196.3390  175.2910  144.3170 N   0  0  0  0  0  0  0  0  0  0  0  0
  192.4650  174.5560  145.2770 N   0  0  0  0  0  0  0  0  0  0  0  0
  193.6950  174.8140  144.9250 C   0  0  0  0  0  0  0  0  0  0  0  0
  195.3910  175.7220  143.4830 N   0  0  0  0  0  0  0  0  0  0  0  0
  194.7090  174.3570  145.7630 C   0  0  0  0  0  2  0  0  0  0  0  0
  186.3170  176.3830  147.6370 C   0  0  0  0  0  1  0  0  0  0  0  0
  187.4640  176.9150  146.7930 C   0  0  2  0  0  3  0  0  0  0  0  0
  188.0200  178.2040  147.3780 C   0  0  0  0  0  2  0  0  0  0  0  0
  187.0980  178.7720  148.2370 F   0  0  0  0  0  0  0  0  0  0  0  0
  1  3  1  0  0  0  0
  2 29  1  0  0  0  0
  2 21  1  0  0  0  0
  3 34  1  0  0  0  0
  4  3  1  0  0  0  0
  4 13  1  0  0  0  0
  5 15  2  0  0  0  0
  5  6  1  0  0  0  0
  6 12  1  0  0  0  0
  8  6  1  0  0  0  0
  8  7  2  0  0  0  0
  9  5  1  0  0  0  0
 10  9  2  0  0  0  0
 10 16  1  0  0  0  0
 11 23  2  0  0  0  0
 11 20  1  0  0  0  0
 12 18  1  0  0  0  0
 12 17  2  0  0  0  0
 14 13  1  0  0  0  0
 15 22  1  0  0  0  0
 16 15  1  0  0  0  0
 17  1  1  0  0  0  0
 17 21  1  0  0  0  0
 18  2  2  0  0  0  0
 19  8  1  0  0  0  0
 20  4  2  0  0  0  0
 22 20  1  0  0  0  0
 22  1  2  0  0  0  0
 23 14  1  0  0  0  0
 24 32  1  0  0  0  0
 25 31  1  0  0  0  0
 26 30  1  0  0  0  0
 27 26  2  0  0  0  0
 28 24  2  0  0  0  0
 30 29  2  0  0  0  0
 30 32  1  0  0  0  0
 31 26  1  0  0  0  0
 31 28  1  0  0  0  0
 34 35  1  0  0  0  0
 34 33  1  1  0  0  0
 35 36  1  0  0  0  0
M  END
>  <MODEL>
4

>  <REMARK>
 VINA RESULT:      -8.2      2.732      5.802
  Name = 
  3 active torsions:
  status: ('A' for Active; 'I' for Inactive)
    1  A    between atoms: C_3  and  N_23
    2  A    between atoms: N_6  and  C_31
    3  A    between atoms: C_20  and  C_31
                            x       y       z     vdW  Elec       q    Type
                         _______ _______ _______ _____ _____    ______ ____

>  <TORSDO>
F 3

$$$$
=
 OpenBabel11042417583D

 36 41  0  0  1  0  0  0  0  0999 V2000
  189.7570  175.2690  143.8480 C   0  0  0  0  0  0  0  0  0  0  0  0
  193.5990  174.3270  143.6450 C   0  0  0  0  0  0  0  0  0  0  0  0
  189.2990  175.8120  145.0080 N   0  0  0  0  0  0  0  0  0  0  0  0
  188.0450  176.2480  144.7560 C   0  0  0  0  0  0  0  0  0  0  0  0
  189.7040  173.9260  140.9840 C   0  0  0  0  0  0  0  0  0  0  0  0
  190.6760  173.1680  141.7240 N   0  0  0  0  0  0  0  0  0  0  0  0
  191.6850  171.0780  142.1010 O   0  0  0  0  0  0  0  0  0  0  0  0
  190.8380  171.7560  141.4610 C   0  0  0  0  0  0  0  0  0  0  0  0
  189.4290  173.7340  139.6800 N   0  0  0  0  0  0  0  0  0  0  0  0
  188.4090  174.5880  139.4360 C   0  0  0  0  0  3  0  0  0  0  0  0
  186.3520  176.2610  142.9440 C   0  0  0  0  0  3  0  0  0  0  0  0
  191.5520  173.8370  142.6560 C   0  0  0  0  0  0  0  0  0  0  0  0
  187.0440  176.7660  145.7480 C   0  0  0  0  0  2  0  0  0  0  0  0
  185.9620  177.5920  145.0220 C   0  0  0  0  0  2  0  0  0  0  0  0
  188.8480  174.8700  141.4900 C   0  0  0  0  0  0  0  0  0  0  0  0
  188.0640  175.2580  140.5160 O   0  0  0  0  0  0  0  0  0  0  0  0
  191.1300  174.7570  143.6280 C   0  0  0  0  0  0  0  0  0  0  0  0
  192.9350  173.5740  142.6910 C   0  0  0  0  0  3  0  0  0  0  0  0
  190.0100  171.0920  140.5090 N   0  0  0  0  0  1  0  0  0  0  0  0
  187.6960  175.9800  143.4610 C   0  0  0  0  0  0  0  0  0  0  0  0
  192.4830  175.2320  144.5140 S   0  0  0  0  0  0  0  0  0  0  0  0
  188.7710  175.3490  142.8700 C   0  0  0  0  0  0  0  0  0  0  0  0
  185.5170  176.9800  143.7050 C   0  0  0  0  0  3  0  0  0  0  0  0
  197.5000  171.9510  145.3350 C   0  0  0  0  0  3  0  0  0  0  0  0
  194.6810  169.8180  146.2930 C   0  0  0  0  0  1  0  0  0  0  0  0
  194.7470  171.9940  145.1630 C   0  0  0  0  0  0  0  0  0  0  0  0
  193.4860  172.0120  145.1770 O   0  0  0  0  0  0  0  0  0  0  0  0
  196.7460  170.9320  145.8140 N   0  0  0  0  0  0  0  0  0  0  0  0
  194.9630  174.1080  144.0240 N   0  0  0  0  0  0  0  0  0  0  0  0
  195.4900  173.0670  144.6100 C   0  0  0  0  0  0  0  0  0  0  0  0
  195.4140  170.9440  145.7340 N   0  0  0  0  0  0  0  0  0  0  0  0
  196.8770  173.0360  144.7300 C   0  0  0  0  0  2  0  0  0  0  0  0
  189.3770  174.8050  147.2460 C   0  0  0  0  0  1  0  0  0  0  0  0
  189.9880  175.8250  146.2990 C   0  0  2  0  0  3  0  0  0  0  0  0
  189.9720  177.2170  146.9120 C   0  0  0  0  0  2  0  0  0  0  0  0
  190.7950  177.2560  148.0220 F   0  0  0  0  0  0  0  0  0  0  0  0
  1  3  1  0  0  0  0
  2 29  1  0  0  0  0
  2 21  1  0  0  0  0
  3 34  1  0  0  0  0
  4  3  1  0  0  0  0
  4 13  1  0  0  0  0
  5 15  2  0  0  0  0
  5  6  1  0  0  0  0
  6 12  1  0  0  0  0
  8  6  1  0  0  0  0
  8  7  2  0  0  0  0
  9  5  1  0  0  0  0
 10  9  2  0  0  0  0
 10 16  1  0  0  0  0
 11 20  1  0  0  0  0
 11 23  2  0  0  0  0
 12 18  1  0  0  0  0
 12 17  2  0  0  0  0
 14 13  1  0  0  0  0
 15 22  1  0  0  0  0
 16 15  1  0  0  0  0
 17  1  1  0  0  0  0
 17 21  1  0  0  0  0
 18  2  2  0  0  0  0
 19  8  1  0  0  0  0
 20  4  2  0  0  0  0
 22 20  1  0  0  0  0
 22  1  2  0  0  0  0
 23 14  1  0  0  0  0
 24 28  2  0  0  0  0
 26 27  2  0  0  0  0
 26 31  1  0  0  0  0
 29 30  2  0  0  0  0
 30 32  1  0  0  0  0
 30 26  1  0  0  0  0
 31 28  1  0  0  0  0
 31 25  1  0  0  0  0
 32 24  1  0  0  0  0
 34 35  1  0  0  0  0
 34 33  1  1  0  0  0
 35 36  1  0  0  0  0
M  END
>  <MODEL>
5

>  <REMARK>
 VINA RESULT:      -8.0      3.407      5.787
  Name = 
  3 active torsions:
  status: ('A' for Active; 'I' for Inactive)
    1  A    between atoms: C_3  and  N_23
    2  A    between atoms: N_6  and  C_31
    3  A    between atoms: C_20  and  C_31
                            x       y       z     vdW  Elec       q    Type
                         _______ _______ _______ _____ _____    ______ ____

>  <TORSDO>
F 3

$$$$
=
 OpenBabel11042417583D

 36 41  0  0  1  0  0  0  0  0999 V2000
  191.2850  174.4460  143.2500 C   0  0  0  0  0  0  0  0  0  0  0  0
  188.7710  177.5070  143.2940 C   0  0  0  0  0  0  0  0  0  0  0  0
  190.9400  173.3540  142.5160 N   0  0  0  0  0  0  0  0  0  0  0  0
  192.0330  172.5600  142.4760 C   0  0  0  0  0  0  0  0  0  0  0  0
  192.8490  176.2370  145.3370 C   0  0  0  0  0  0  0  0  0  0  0  0
  191.4590  176.4970  145.6020 N   0  0  0  0  0  0  0  0  0  0  0  0
  189.8120  177.0070  147.2000 O   0  0  0  0  0  0  0  0  0  0  0  0
  191.0260  176.7770  146.9520 C   0  0  0  0  0  0  0  0  0  0  0  0
  193.8660  176.8660  145.9560 N   0  0  0  0  0  0  0  0  0  0  0  0
  194.9680  176.2510  145.4690 C   0  0  0  0  0  3  0  0  0  0  0  0
  194.3390  172.4340  143.3790 C   0  0  0  0  0  3  0  0  0  0  0  0
  190.5200  176.5730  144.5080 C   0  0  0  0  0  0  0  0  0  0  0  0
  192.1240  171.1610  141.9390 C   0  0  0  0  0  2  0  0  0  0  0  0
  193.5940  170.8090  141.6330 C   0  0  0  0  0  2  0  0  0  0  0  0
  193.3540  175.2660  144.5120 C   0  0  0  0  0  0  0  0  0  0  0  0
  194.6580  175.2970  144.6150 O   0  0  0  0  0  0  0  0  0  0  0  0
  190.4260  175.6330  143.4710 C   0  0  0  0  0  0  0  0  0  0  0  0
  189.5670  177.6050  144.4220 C   0  0  0  0  0  3  0  0  0  0  0  0
  191.9520  176.7510  148.0360 N   0  0  0  0  0  1  0  0  0  0  0  0
  193.0610  173.1250  143.1790 C   0  0  0  0  0  0  0  0  0  0  0  0
  189.1610  176.1010  142.4600 S   0  0  0  0  0  0  0  0  0  0  0  0
  192.6000  174.3220  143.6860 C   0  0  0  0  0  0  0  0  0  0  0  0
  194.5680  171.3110  142.6850 C   0  0  0  0  0  3  0  0  0  0  0  0
  184.4230  179.5090  144.1890 C   0  0  0  0  0  3  0  0  0  0  0  0
  184.7380  176.9010  146.7410 C   0  0  0  0  0  1  0  0  0  0  0  0
  186.2220  177.5400  144.8950 C   0  0  0  0  0  0  0  0  0  0  0  0
  186.9770  176.5790  145.2020 O   0  0  0  0  0  0  0  0  0  0  0  0
  184.2010  178.6960  145.2510 N   0  0  0  0  0  0  0  0  0  0  0  0
  187.6020  178.3040  143.0710 N   0  0  0  0  0  0  0  0  0  0  0  0
  186.5220  178.3900  143.8000 C   0  0  0  0  0  0  0  0  0  0  0  0
  185.0660  177.7420  145.6000 N   0  0  0  0  0  0  0  0  0  0  0  0
  185.5880  179.3610  143.4470 C   0  0  0  0  0  2  0  0  0  0  0  0
  188.9380  171.9560  142.7830 C   0  0  0  0  0  1  0  0  0  0  0  0
  189.6160  173.0490  141.9720 C   0  0  2  0  0  3  0  0  0  0  0  0
  189.7060  172.6640  140.5040 C   0  0  0  0  0  2  0  0  0  0  0  0
  190.3490  173.6580  139.7910 F   0  0  0  0  0  0  0  0  0  0  0  0
  1 17  1  0  0  0  0
  1 22  2  0  0  0  0
  2 18  2  0  0  0  0
  3  1  1  0  0  0  0
  4  3  1  0  0  0  0
  4 20  2  0  0  0  0
  5  6  1  0  0  0  0
  5  9  1  0  0  0  0
  6  8  1  0  0  0  0
  8  7  2  0  0  0  0
  8 19  1  0  0  0  0
 10  9  2  0  0  0  0
 12  6  1  0  0  0  0
 13  4  1  0  0  0  0
 14 13  1  0  0  0  0
 14 23  1  0  0  0  0
 15 16  1  0  0  0  0
 15  5  2  0  0  0  0
 16 10  1  0  0  0  0
 17 12  2  0  0  0  0
 18 12  1  0  0  0  0
 20 11  1  0  0  0  0
 20 22  1  0  0  0  0
 21  2  1  0  0  0  0
 21 17  1  0  0  0  0
 22 15  1  0  0  0  0
 23 11  2  0  0  0  0
 24 28  2  0  0  0  0
 26 27  2  0  0  0  0
 26 31  1  0  0  0  0
 28 31  1  0  0  0  0
 29  2  1  0  0  0  0
 29 30  2  0  0  0  0
 30 26  1  0  0  0  0
 31 25  1  0  0  0  0
 32 30  1  0  0  0  0
 32 24  1  0  0  0  0
 34  3  1  0  0  0  0
 34 33  1  1  0  0  0
 35 34  1  0  0  0  0
 36 35  1  0  0  0  0
M  END
>  <MODEL>
6

>  <REMARK>
 VINA RESULT:      -8.0      2.570      7.311
  Name = 
  3 active torsions:
  status: ('A' for Active; 'I' for Inactive)
    1  A    between atoms: C_3  and  N_23
    2  A    between atoms: N_6  and  C_31
    3  A    between atoms: C_20  and  C_31
                            x       y       z     vdW  Elec       q    Type
                         _______ _______ _______ _____ _____    ______ ____

>  <TORSDO>
F 3

$$$$
=
 OpenBabel11042417583D

 36 41  0  0  1  0  0  0  0  0999 V2000
  192.9930  174.0660  144.1740 C   0  0  0  0  0  0  0  0  0  0  0  0
  189.5860  175.8860  143.2990 C   0  0  0  0  0  0  0  0  0  0  0  0
  193.9660  174.8010  144.7780 N   0  0  0  0  0  0  0  0  0  0  0  0
  194.9170  173.9240  145.1720 C   0  0  0  0  0  0  0  0  0  0  0  0
  191.6130  171.6550  142.6620 C   0  0  0  0  0  0  0  0  0  0  0  0
  191.1560  172.8300  141.9690 N   0  0  0  0  0  0  0  0  0  0  0  0
  190.5030  173.7930  139.9260 O   0  0  0  0  0  0  0  0  0  0  0  0
  190.9020  172.7720  140.5470 C   0  0  0  0  0  0  0  0  0  0  0  0
  191.1950  170.4050  142.3860 N   0  0  0  0  0  0  0  0  0  0  0  0
  191.9410  169.6280  143.2030 C   0  0  0  0  0  3  0  0  0  0  0  0
  195.4640  171.5100  145.0430 C   0  0  0  0  0  3  0  0  0  0  0  0
  190.8610  174.0330  142.7100 C   0  0  0  0  0  0  0  0  0  0  0  0
  196.2740  174.2430  145.7290 C   0  0  0  0  0  2  0  0  0  0  0  0
  196.8320  173.0210  146.4880 C   0  0  0  0  0  2  0  0  0  0  0  0
  192.5940  171.6010  143.6170 C   0  0  0  0  0  0  0  0  0  0  0  0
  192.7750  170.3430  143.9300 O   0  0  0  0  0  0  0  0  0  0  0  0
  191.7040  174.6000  143.6780 C   0  0  0  0  0  0  0  0  0  0  0  0
  189.6890  174.7760  142.4780 C   0  0  0  0  0  3  0  0  0  0  0  0
  191.1460  171.5750  139.8100 N   0  0  0  0  0  1  0  0  0  0  0  0
  194.5690  172.6500  144.8200 C   0  0  0  0  0  0  0  0  0  0  0  0
  190.9760  176.0160  144.2330 S   0  0  0  0  0  0  0  0  0  0  0  0
  193.3510  172.7220  144.1760 C   0  0  0  0  0  0  0  0  0  0  0  0
  196.5600  171.7000  145.7890 C   0  0  0  0  0  3  0  0  0  0  0  0
  186.0630  179.0190  144.5200 C   0  0  0  0  0  3  0  0  0  0  0  0
  186.3050  176.7880  147.4140 C   0  0  0  0  0  1  0  0  0  0  0  0
  187.4870  176.7760  145.2640 C   0  0  0  0  0  0  0  0  0  0  0  0
  188.0570  175.7070  145.6110 O   0  0  0  0  0  0  0  0  0  0  0  0
  185.8870  178.4400  145.7330 N   0  0  0  0  0  0  0  0  0  0  0  0
  188.6020  176.9130  143.1310 N   0  0  0  0  0  0  0  0  0  0  0  0
  187.7390  177.3660  144.0000 C   0  0  0  0  0  0  0  0  0  0  0  0
  186.5720  177.3560  146.1010 N   0  0  0  0  0  0  0  0  0  0  0  0
  186.9920  178.4830  143.6350 C   0  0  0  0  0  2  0  0  0  0  0  0
  195.2440  176.8050  144.1600 C   0  0  0  0  0  1  0  0  0  0  0  0
  194.0230  176.2590  144.8820 C   0  0  2  0  0  3  0  0  0  0  0  0
  194.0040  176.7030  146.3360 C   0  0  0  0  0  2  0  0  0  0  0  0
  193.0740  175.9660  147.0450 F   0  0  0  0  0  0  0  0  0  0  0  0
  1 22  2  0  0  0  0
  1  3  1  0  0  0  0
  2 21  1  0  0  0  0
  3 34  1  0  0  0  0
  3  4  1  0  0  0  0
  4 13  1  0  0  0  0
  5 15  2  0  0  0  0
  6  5  1  0  0  0  0
  6 12  1  0  0  0  0
  7  8  2  0  0  0  0
  8  6  1  0  0  0  0
  9  5  1  0  0  0  0
  9 10  2  0  0  0  0
 10 16  1  0  0  0  0
 11 23  2  0  0  0  0
 12 17  2  0  0  0  0
 13 14  1  0  0  0  0
 15 16  1  0  0  0  0
 15 22  1  0  0  0  0
 17  1  1  0  0  0  0
 17 21  1  0  0  0  0
 18 12  1  0  0  0  0
 18  2  2  0  0  0  0
 19  8  1  0  0  0  0
 20 11  1  0  0  0  0
 20  4  2  0  0  0  0
 22 20  1  0  0  0  0
 23 14  1  0  0  0  0
 24 28  2  0  0  0  0
 26 27  2  0  0  0  0
 26 31  1  0  0  0  0
 28 31  1  0  0  0  0
 29  2  1  0  0  0  0
 29 30  2  0  0  0  0
 30 26  1  0  0  0  0
 31 25  1  0  0  0  0
 32 30  1  0  0  0  0
 32 24  1  0  0  0  0
 34 33  1  1  0  0  0
 34 35  1  0  0  0  0
 35 36  1  0  0  0  0
M  END
>  <MODEL>
7

>  <REMARK>
 VINA RESULT:      -7.8      3.280      7.932
  Name = 
  3 active torsions:
  status: ('A' for Active; 'I' for Inactive)
    1  A    between atoms: C_3  and  N_23
    2  A    between atoms: N_6  and  C_31
    3  A    between atoms: C_20  and  C_31
                            x       y       z     vdW  Elec       q    Type
                         _______ _______ _______ _____ _____    ______ ____

>  <TORSDO>
F 3

$$$$
=
 OpenBabel11042417583D

 36 41  0  0  1  0  0  0  0  0999 V2000
  190.5230  175.6600  143.3070 C   0  0  0  0  0  0  0  0  0  0  0  0
  191.4160  173.4170  140.1670 C   0  0  0  0  0  0  0  0  0  0  0  0
  189.2670  176.1770  143.3790 N   0  0  0  0  0  0  0  0  0  0  0  0
  189.1400  176.6990  144.6200 C   0  0  0  0  0  0  0  0  0  0  0  0
  193.5820  175.2100  143.9760 C   0  0  0  0  0  0  0  0  0  0  0  0
  193.5290  175.2810  142.5400 N   0  0  0  0  0  0  0  0  0  0  0  0
  194.6050  175.9230  140.5510 O   0  0  0  0  0  0  0  0  0  0  0  0
  194.6370  175.8530  141.8080 C   0  0  0  0  0  0  0  0  0  0  0  0
  194.7000  174.9430  144.6780 N   0  0  0  0  0  0  0  0  0  0  0  0
  194.3080  175.0660  145.9660 C   0  0  0  0  0  3  0  0  0  0  0  0
  190.4670  177.0850  146.6780 C   0  0  0  0  0  3  0  0  0  0  0  0
  192.4160  174.6950  141.8320 C   0  0  0  0  0  0  0  0  0  0  0  0
  188.0090  177.5370  145.1430 C   0  0  0  0  0  2  0  0  0  0  0  0
  188.0050  177.5100  146.6860 C   0  0  0  0  0  2  0  0  0  0  0  0
  192.5620  175.4940  144.8450 C   0  0  0  0  0  0  0  0  0  0  0  0
  193.0370  175.3990  146.0610 O   0  0  0  0  0  0  0  0  0  0  0  0
  191.0670  174.8930  142.1620 C   0  0  0  0  0  0  0  0  0  0  0  0
  192.6060  173.8930  140.6910 C   0  0  0  0  0  3  0  0  0  0  0  0
  195.7640  176.3940  142.4950 N   0  0  0  0  0  1  0  0  0  0  0  0
  190.2950  176.5300  145.3310 C   0  0  0  0  0  0  0  0  0  0  0  0
  190.1300  174.0640  141.0330 S   0  0  0  0  0  0  0  0  0  0  0  0
  191.1900  175.8780  144.5090 C   0  0  0  0  0  0  0  0  0  0  0  0
  189.3930  177.5950  147.2960 C   0  0  0  0  0  3  0  0  0  0  0  0
  190.4990  169.8270  137.0070 C   0  0  0  0  0  3  0  0  0  0  0  0
  190.4480  168.1670  140.2710 C   0  0  0  0  0  1  0  0  0  0  0  0
  190.9180  170.4930  139.6510 C   0  0  0  0  0  0  0  0  0  0  0  0
  191.1770  170.7380  140.8600 O   0  0  0  0  0  0  0  0  0  0  0  0
  190.3790  168.9070  137.9950 N   0  0  0  0  0  0  0  0  0  0  0  0
  191.3120  172.7520  138.9030 N   0  0  0  0  0  2  0  0  0  0  0  0
  191.0160  171.5030  138.6600 C   0  0  0  0  0  0  0  0  0  0  0  0
  190.5780  169.2210  139.2770 N   0  0  0  0  0  0  0  0  0  0  0  0
  190.8250  171.1390  137.3300 C   0  0  0  0  0  3  0  0  0  0  0  0
  188.1720  177.6720  141.7680 C   0  0  0  0  0  1  0  0  0  0  0  0
  188.2890  176.2510  142.2930 C   0  0  2  0  0  3  0  0  0  0  0  0
  186.9360  175.7210  142.7420 C   0  0  0  0  0  2  0  0  0  0  0  0
  185.9380  176.6100  142.3900 F   0  0  0  0  0  0  0  0  0  0  0  0
  1  3  1  0  0  0  0
  1 22  2  0  0  0  0
  2 18  2  0  0  0  0
  2 21  1  0  0  0  0
  3  4  1  0  0  0  0
  4 13  1  0  0  0  0
  4 20  2  0  0  0  0
  5  9  1  0  0  0  0
  5 15  2  0  0  0  0
  6  5  1  0  0  0  0
  7  8  2  0  0  0  0
  8 19  1  0  0  0  0
  8  6  1  0  0  0  0
  9 10  2  0  0  0  0
 10 16  1  0  0  0  0
 11 23  2  0  0  0  0
 12 17  2  0  0  0  0
 12  6  1  0  0  0  0
 13 14  1  0  0  0  0
 14 23  1  0  0  0  0
 15 16  1  0  0  0  0
 17  1  1  0  0  0  0
 18 12  1  0  0  0  0
 20 11  1  0  0  0  0
 21 17  1  0  0  0  0
 22 15  1  0  0  0  0
 22 20  1  0  0  0  0
 24 32  1  0  0  0  0
 24 28  2  0  0  0  0
 26 27  2  0  0  0  0
 28 31  1  0  0  0  0
 29  2  1  0  0  0  0
 30 29  1  0  0  0  0
 30 26  1  0  0  0  0
 31 26  1  0  0  0  0
 31 25  1  0  0  0  0
 32 30  2  0  0  0  0
 34 33  1  1  0  0  0
 34 35  1  0  0  0  0
 34  3  1  0  0  0  0
 36 35  1  0  0  0  0
M  END
>  <MODEL>
8

>  <REMARK>
 VINA RESULT:      -7.7      1.810      2.456
  Name = 
  3 active torsions:
  status: ('A' for Active; 'I' for Inactive)
    1  A    between atoms: C_3  and  N_23
    2  A    between atoms: N_6  and  C_31
    3  A    between atoms: C_20  and  C_31
                            x       y       z     vdW  Elec       q    Type
                         _______ _______ _______ _____ _____    ______ ____

>  <TORSDO>
F 3

$$$$
=
 OpenBabel11042417583D

 36 41  0  0  1  0  0  0  0  0999 V2000
  190.5550  174.6070  144.3570 C   0  0  0  0  0  0  0  0  0  0  0  0
  193.4410  171.9750  145.0130 C   0  0  0  0  0  0  0  0  0  0  0  0
  189.7170  174.3800  143.3100 N   0  0  0  0  0  0  0  0  0  0  0  0
  188.7060  175.2690  143.4310 C   0  0  0  0  0  0  0  0  0  0  0  0
  191.9840  176.1410  146.7260 C   0  0  0  0  0  0  0  0  0  0  0  0
  193.0540  175.5010  146.0080 N   0  0  0  0  0  0  0  0  0  0  0  0
  195.2950  175.5920  145.3030 O   0  0  0  0  0  0  0  0  0  0  0  0
  194.3480  176.1390  145.9290 C   0  0  0  0  0  0  0  0  0  0  0  0
  192.1510  176.8390  147.8660 N   0  0  0  0  0  0  0  0  0  0  0  0
  190.9170  177.3270  148.1280 C   0  0  0  0  0  3  0  0  0  0  0  0
  187.9950  177.1770  144.8460 C   0  0  0  0  0  3  0  0  0  0  0  0
  192.8590  174.1830  145.4530 C   0  0  0  0  0  0  0  0  0  0  0  0
  187.6150  175.5480  142.4370 C   0  0  0  0  0  2  0  0  0  0  0  0
  186.4290  176.2410  143.1390 C   0  0  0  0  0  2  0  0  0  0  0  0
  190.6750  176.2330  146.3300 C   0  0  0  0  0  0  0  0  0  0  0  0
  190.0440  176.9680  147.2090 O   0  0  0  0  0  0  0  0  0  0  0  0
  191.7490  173.7960  144.6870 C   0  0  0  0  0  0  0  0  0  0  0  0
  193.8220  173.1670  145.6060 C   0  0  0  0  0  3  0  0  0  0  0  0
  194.5660  177.4220  146.5130 N   0  0  0  0  0  1  0  0  0  0  0  0
  188.8940  176.0620  144.5280 C   0  0  0  0  0  0  0  0  0  0  0  0
  191.9800  172.1940  144.2130 S   0  0  0  0  0  0  0  0  0  0  0  0
  190.0700  175.6610  145.1260 C   0  0  0  0  0  0  0  0  0  0  0  0
  186.8540  177.2890  144.1530 C   0  0  0  0  0  3  0  0  0  0  0  0
  197.2510  169.4090  143.3930 C   0  0  0  0  0  3  0  0  0  0  0  0
  197.2240  172.3910  141.2670 C   0  0  0  0  0  1  0  0  0  0  0  0
  195.7010  171.6660  143.0480 C   0  0  0  0  0  0  0  0  0  0  0  0
  194.9780  172.6690  142.8050 O   0  0  0  0  0  0  0  0  0  0  0  0
  197.5660  170.3490  142.4690 N   0  0  0  0  0  0  0  0  0  0  0  0
  194.3160  170.8530  144.8470 N   0  0  0  0  0  2  0  0  0  0  0  0
  195.3490  170.7340  144.0570 C   0  0  0  0  0  0  0  0  0  0  0  0
  196.8230  171.4440  142.2960 N   0  0  0  0  0  0  0  0  0  0  0  0
  196.1320  169.5910  144.1970 C   0  0  0  0  0  3  0  0  0  0  0  0
  190.0390  174.1660  140.8850 C   0  0  0  0  0  1  0  0  0  0  0  0
  189.9250  173.4340  142.2130 C   0  0  2  0  0  3  0  0  0  0  0  0
  188.8160  172.3950  142.1710 C   0  0  0  0  0  2  0  0  0  0  0  0
  188.5660  171.9160  143.4430 F   0  0  0  0  0  0  0  0  0  0  0  0
  1 17  1  0  0  0  0
  1 22  2  0  0  0  0
  2 18  2  0  0  0  0
  3  4  1  0  0  0  0
  3  1  1  0  0  0  0
  4 20  2  0  0  0  0
  5  9  1  0  0  0  0
  6  5  1  0  0  0  0
  7  8  2  0  0  0  0
  8  6  1  0  0  0  0
  8 19  1  0  0  0  0
  9 10  2  0  0  0  0
 12 18  1  0  0  0  0
 12  6  1  0  0  0  0
 13 14  1  0  0  0  0
 13  4  1  0  0  0  0
 14 23  1  0  0  0  0
 15  5  2  0  0  0  0
 15 16  1  0  0  0  0
 16 10  1  0  0  0  0
 17 12  2  0  0  0  0
 20 11  1  0  0  0  0
 20 22  1  0  0  0  0
 21 17  1  0  0  0  0
 21  2  1  0  0  0  0
 22 15  1  0  0  0  0
 23 11  2  0  0  0  0
 24 32  1  0  0  0  0
 25 31  1  0  0  0  0
 26 30  1  0  0  0  0
 27 26  2  0  0  0  0
 28 24  2  0  0  0  0
 29  2  1  0  0  0  0
 30 32  2  0  0  0  0
 30 29  1  0  0  0  0
 31 28  1  0  0  0  0
 31 26  1  0  0  0  0
 34 33  1  6  0  0  0
 34  3  1  0  0  0  0
 35 34  1  0  0  0  0
 35 36  1  0  0  0  0
M  END
>  <MODEL>
9

>  <REMARK>
 VINA RESULT:      -7.6      3.762      4.774
  Name = 
  3 active torsions:
  status: ('A' for Active; 'I' for Inactive)
    1  A    between atoms: C_3  and  N_23
    2  A    between atoms: N_6  and  C_31
    3  A    between atoms: C_20  and  C_31
                            x       y       z     vdW  Elec       q    Type
                         _______ _______ _______ _____ _____    ______ ____

>  <TORSDO>
F 3

$$$$
