=
 OpenBabel11042414093D

 49 54  0  0  1  0  0  0  0  0999 V2000
  188.7240  174.2400  140.4930 N   0  0  0  0  0  0  0  0  0  0  0  0
  188.7140  172.2740  138.6220 O   0  0  0  0  0  0  0  0  0  0  0  0
  189.9500  173.8760  140.7380 C   0  0  0  0  0  0  0  0  0  0  0  0
  190.5440  172.8130  139.9860 N   0  0  0  0  0  2  0  0  0  0  0  0
  189.9080  172.0500  138.9540 C   0  0  0  0  0  0  0  0  0  0  0  0
  190.6740  170.9530  138.2940 C   0  0  2  0  0  3  0  0  0  0  0  0
  189.7300  169.8640  137.7560 C   0  0  0  0  0  2  0  0  0  0  0  0
  191.8090  168.4150  137.8040 C   0  0  0  0  0  2  0  0  0  0  0  0
  190.2930  168.4620  138.0110 C   0  0  0  0  0  2  0  0  0  0  0  0
  191.6210  170.4180  139.1830 O   0  0  0  0  0  0  0  0  0  0  0  0
  192.5030  169.6540  138.3940 C   0  0  0  0  0  2  0  0  0  0  0  0
  187.9550  175.2790  141.1210 C   0  0  0  0  0  0  0  0  0  0  0  0
  187.7580  175.3030  142.3630 O   0  0  0  0  0  0  0  0  0  0  0  0
  187.3890  176.3700  140.2800 C   0  0  0  0  0  2  0  0  0  0  0  0
  186.9340  177.8010  141.3060 S   0  0  0  0  0  0  0  0  0  0  0  0
  185.2790  177.9750  140.5660 C   0  0  0  0  0  2  0  0  0  0  0  0
  184.2320  178.2220  141.6360 C   0  0  0  0  0  2  0  0  0  0  0  0
  184.7330  177.7940  142.9320 N   0  0  0  0  0  2  0  0  0  0  0  0
  184.2700  178.7670  143.9030 C   0  0  0  0  0  2  0  0  0  0  0  0
  189.8350  177.5330  145.1740 C   0  0  0  0  0  2  0  0  0  0  0  0
  186.2820  177.8650  144.9110 N   0  0  0  0  0  0  0  0  0  0  0  0
  185.1780  176.8180  146.6470 C   0  0  0  0  0  3  0  0  0  0  0  0
  187.6480  176.5090  145.9380 C   0  0  0  0  0  0  0  0  0  0  0  0
  186.3350  176.8490  145.7440 C   0  0  0  0  0  0  0  0  0  0  0  0
  188.2760  175.5820  146.9320 C   0  0  0  0  0  2  0  0  0  0  0  0
  188.3460  177.3830  145.1230 C   0  0  0  0  0  0  0  0  0  0  0  0
  189.7360  175.9880  147.1840 C   0  0  0  0  0  2  0  0  0  0  0  0
  185.1140  178.6710  145.1610 C   0  0  2  0  0  3  0  0  0  0  0  0
  190.4670  176.3180  145.8720 C   0  0  0  0  0  2  0  0  0  0  0  0
  187.4930  178.2680  144.5620 N   0  0  0  0  0  0  0  0  0  0  0  0
  184.3600  177.9710  146.2230 N   0  0  0  0  0  0  0  0  0  0  0  0
  190.9460  174.6320  142.0300 S   0  0  0  0  0  0  0  0  0  0  0  0
  190.5510  173.3230  143.2200 C   0  0  0  0  0  2  0  0  0  0  0  0
  191.6240  172.2520  143.1590 C   0  0  0  0  0  2  0  0  0  0  0  0
  192.4190  173.2910  145.1180 O   0  0  0  0  0  0  0  0  0  0  0  0
  192.6230  172.4560  144.2520 C   0  0  0  0  0  0  0  0  0  0  0  0
  193.8980  171.6800  144.2620 C   0  0  0  0  0  2  0  0  0  0  0  0
  195.8090  171.0830  145.6000 O   0  0  0  0  0  0  0  0  0  0  0  0
  194.5650  171.7430  145.6370 C   0  0  1  0  0  3  0  0  0  0  0  0
  195.8610  172.4870  145.6850 C   0  0  2  0  0  3  0  0  0  0  0  0
  196.3520  173.0490  144.3540 C   0  0  0  0  0  2  0  0  0  0  0  0
  195.6360  174.9240  145.5690 C   0  0  0  0  0  2  0  0  0  0  0  0
  194.1400  176.2120  144.0980 C   0  0  0  0  0  0  0  0  0  0  0  0
  194.9630  176.2820  145.3560 C   0  0  1  0  0  3  0  0  0  0  0  0
  196.0890  175.0550  143.1280 C   0  0  0  0  0  2  0  0  0  0  0  0
  194.1000  176.5920  146.5680 C   0  0  0  0  0  1  0  0  0  0  0  0
  193.1260  176.8790  143.9630 O   0  0  0  0  0  0  0  0  0  0  0  0
  196.4750  174.4940  144.4370 N   0  0  0  0  0  0  0  0  0  0  0  0
  194.5880  175.3140  142.9900 C   0  0  0  0  0  2  0  0  0  0  0  0
  1  3  2  0  0  0  0
  1 12  1  0  0  0  0
  2  5  2  0  0  0  0
  3 32  1  0  0  0  0
  4  3  1  0  0  0  0
  5  4  1  0  0  0  0
  6  5  1  1  0  0  0
  6 10  1  0  0  0  0
  7  9  1  0  0  0  0
  7  6  1  0  0  0  0
  8  9  1  0  0  0  0
  8 11  1  0  0  0  0
 11 10  1  0  0  0  0
 12 13  2  0  0  0  0
 14 12  1  0  0  0  0
 14 15  1  0  0  0  0
 16 15  1  0  0  0  0
 16 17  1  0  0  0  0
 17 18  1  0  0  0  0
 18 19  1  0  0  0  0
 20 29  1  0  0  0  0
 21 28  1  0  0  0  0
 21 24  1  0  0  0  0
 23 25  1  0  0  0  0
 24 23  2  0  0  0  0
 24 22  1  0  0  0  0
 25 27  1  0  0  0  0
 26 20  1  0  0  0  0
 26 23  1  0  0  0  0
 28 19  1  6  0  0  0
 28 31  1  0  0  0  0
 29 27  1  0  0  0  0
 30 21  1  0  0  0  0
 30 26  2  0  0  0  0
 31 22  2  0  0  0  0
 32 33  1  0  0  0  0
 34 33  1  0  0  0  0
 34 36  1  0  0  0  0
 36 37  1  0  0  0  0
 36 35  2  0  0  0  0
 38 39  1  0  0  0  0
 38 40  1  0  0  0  0
 39 37  1  6  0  0  0
 39 40  1  0  0  0  0
 40 41  1  6  0  0  0
 41 48  1  0  0  0  0
 43 44  1  0  0  0  0
 44 42  1  0  0  0  0
 44 46  1  1  0  0  0
 45 48  1  0  0  0  0
 47 43  2  0  0  0  0
 48 42  1  0  0  0  0
 49 45  1  0  0  0  0
 49 43  1  0  0  0  0
M  END
>  <MODEL>
1

>  <REMARK>
 VINA RESULT:      -7.1      0.000      0.000
  Name = 
  17 active torsions:
  status: ('A' for Active; 'I' for Inactive)
    1  A    between atoms: C_2  and  C_48
    2  A    between atoms: N_3  and  C_22
    3  A    between atoms: S_8  and  C_16
    4  A    between atoms: S_8  and  C_27
    5  A    between atoms: C_15  and  S_25
    6  A    between atoms: C_16  and  C_43
    7  A    between atoms: C_17  and  S_25
    8  A    between atoms: C_17  and  C_31
    9  A    between atoms: C_21  and  N_30
   10  A    between atoms: C_21  and  C_45
   11  A    between atoms: C_22  and  C_27
   12  A    between atoms: C_23  and  N_36
   13  A    between atoms: C_23  and  C_42
   14  A    between atoms: N_30  and  C_43
   15  A    between atoms: C_31  and  C_41
   16  A    between atoms: C_32  and  C_44
   17  A    between atoms: C_41  and  C_44
                            x       y       z     vdW  Elec       q    Type
                         _______ _______ _______ _____ _____    ______ ____

>  <TORSDO>
F 17

$$$$
=
 OpenBabel11042414093D

 49 54  0  0  1  0  0  0  0  0999 V2000
  190.4960  171.5970  139.8670 N   0  0  0  0  0  0  0  0  0  0  0  0
  191.0880  170.1740  142.1020 O   0  0  0  0  0  0  0  0  0  0  0  0
  191.6960  172.0930  139.9750 C   0  0  0  0  0  0  0  0  0  0  0  0
  192.5520  171.6670  141.0400 N   0  0  0  0  0  2  0  0  0  0  0  0
  192.2210  170.7220  142.0630 C   0  0  0  0  0  0  0  0  0  0  0  0
  193.2330  170.4160  143.1160 C   0  0  2  0  0  3  0  0  0  0  0  0
  193.2520  168.9140  143.4480 C   0  0  0  0  0  2  0  0  0  0  0  0
  194.3570  169.6750  145.5980 C   0  0  0  0  0  2  0  0  0  0  0  0
  193.3910  168.6770  144.9550 C   0  0  0  0  0  2  0  0  0  0  0  0
  192.9910  171.1920  144.2630 O   0  0  0  0  0  0  0  0  0  0  0  0
  194.1580  171.0970  145.0460 C   0  0  0  0  0  2  0  0  0  0  0  0
  189.4950  171.8830  138.8770 C   0  0  0  0  0  0  0  0  0  0  0  0
  189.6460  171.5690  137.6680 O   0  0  0  0  0  0  0  0  0  0  0  0
  188.2340  172.5560  139.2960 C   0  0  0  0  0  2  0  0  0  0  0  0
  188.5280  174.3180  139.6360 S   0  0  0  0  0  0  0  0  0  0  0  0
  188.4500  174.1200  141.4440 C   0  0  0  0  0  2  0  0  0  0  0  0
  189.7810  174.4700  142.0830 C   0  0  0  0  0  2  0  0  0  0  0  0
  189.5740  175.3670  143.2090 N   0  0  0  0  0  2  0  0  0  0  0  0
  190.2270  176.6180  142.8750 C   0  0  0  0  0  2  0  0  0  0  0  0
  186.1540  178.1040  146.7880 C   0  0  0  0  0  2  0  0  0  0  0  0
  188.1750  177.3610  143.9300 N   0  0  0  0  0  0  0  0  0  0  0  0
  187.1640  178.0050  141.9570 C   0  0  0  0  0  3  0  0  0  0  0  0
  186.0560  177.7480  144.2820 C   0  0  0  0  0  0  0  0  0  0  0  0
  187.0140  177.5100  143.3310 C   0  0  0  0  0  0  0  0  0  0  0  0
  184.6340  178.1910  144.1400 C   0  0  0  0  0  2  0  0  0  0  0  0
  186.7490  177.6870  145.4790 C   0  0  0  0  0  0  0  0  0  0  0  0
  184.1730  178.9060  145.4200 C   0  0  0  0  0  2  0  0  0  0  0  0
  189.2530  177.7670  143.0640 C   0  0  2  0  0  3  0  0  0  0  0  0
  184.6220  178.1520  146.6830 C   0  0  0  0  0  2  0  0  0  0  0  0
  188.0700  177.5310  145.2380 N   0  0  0  0  0  0  0  0  0  0  0  0
  188.6240  178.1130  141.7710 N   0  0  0  0  0  0  0  0  0  0  0  0
  192.3320  173.3460  138.8540 S   0  0  0  0  0  0  0  0  0  0  0  0
  193.1590  174.2480  140.1910 C   0  0  0  0  0  2  0  0  0  0  0  0
  194.1910  175.1880  139.5950 C   0  0  0  0  0  2  0  0  0  0  0  0
  196.5460  175.2230  139.5950 O   0  0  0  0  0  0  0  0  0  0  0  0
  195.5300  174.9450  140.2110 C   0  0  0  0  0  0  0  0  0  0  0  0
  195.6360  174.3120  141.5590 C   0  0  0  0  0  2  0  0  0  0  0  0
  195.8630  176.4780  142.5870 O   0  0  0  0  0  0  0  0  0  0  0  0
  196.4390  175.1950  142.5160 C   0  0  1  0  0  3  0  0  0  0  0  0
  195.6970  175.6660  143.7250 C   0  0  2  0  0  3  0  0  0  0  0  0
  194.2380  175.2300  143.8180 C   0  0  0  0  0  2  0  0  0  0  0  0
  192.4930  174.7080  145.2980 C   0  0  0  0  0  2  0  0  0  0  0  0
  192.5950  176.3380  147.1410 C   0  0  0  0  0  0  0  0  0  0  0  0
  192.0250  175.0080  146.7230 C   0  0  1  0  0  3  0  0  0  0  0  0
  194.6890  175.5320  146.1200 C   0  0  0  0  0  2  0  0  0  0  0  0
  190.5050  175.0240  146.7430 C   0  0  0  0  0  1  0  0  0  0  0  0
  192.0080  177.0620  147.9300 O   0  0  0  0  0  0  0  0  0  0  0  0
  193.9580  174.7030  145.1430 N   0  0  0  0  0  0  0  0  0  0  0  0
  193.9130  176.7660  146.5820 C   0  0  0  0  0  2  0  0  0  0  0  0
  1  3  2  0  0  0  0
  3  4  1  0  0  0  0
  4  5  1  0  0  0  0
  5  2  2  0  0  0  0
  6  5  1  6  0  0  0
  6  7  1  0  0  0  0
  6 10  1  0  0  0  0
  7  9  1  0  0  0  0
  9  8  1  0  0  0  0
 10 11  1  0  0  0  0
 11  8  1  0  0  0  0
 12 14  1  0  0  0  0
 12  1  1  0  0  0  0
 13 12  2  0  0  0  0
 14 15  1  0  0  0  0
 15 16  1  0  0  0  0
 16 17  1  0  0  0  0
 17 18  1  0  0  0  0
 19 18  1  0  0  0  0
 21 30  1  0  0  0  0
 22 24  1  0  0  0  0
 23 26  1  0  0  0  0
 24 21  1  0  0  0  0
 24 23  2  0  0  0  0
 25 23  1  0  0  0  0
 25 27  1  0  0  0  0
 26 20  1  0  0  0  0
 27 29  1  0  0  0  0
 28 19  1  6  0  0  0
 28 21  1  0  0  0  0
 29 20  1  0  0  0  0
 30 26  2  0  0  0  0
 31 22  2  0  0  0  0
 31 28  1  0  0  0  0
 32  3  1  0  0  0  0
 32 33  1  0  0  0  0
 34 33  1  0  0  0  0
 34 36  1  0  0  0  0
 35 36  2  0  0  0  0
 36 37  1  0  0  0  0
 38 40  1  0  0  0  0
 39 37  1  6  0  0  0
 39 38  1  0  0  0  0
 39 40  1  0  0  0  0
 40 41  1  6  0  0  0
 41 48  1  0  0  0  0
 42 44  1  0  0  0  0
 43 47  2  0  0  0  0
 44 46  1  6  0  0  0
 44 43  1  0  0  0  0
 45 49  1  0  0  0  0
 48 42  1  0  0  0  0
 48 45  1  0  0  0  0
 49 43  1  0  0  0  0
M  END
>  <MODEL>
2

>  <REMARK>
 VINA RESULT:      -7.0      2.380      4.857
  Name = 
  17 active torsions:
  status: ('A' for Active; 'I' for Inactive)
    1  A    between atoms: C_2  and  C_48
    2  A    between atoms: N_3  and  C_22
    3  A    between atoms: S_8  and  C_16
    4  A    between atoms: S_8  and  C_27
    5  A    between atoms: C_15  and  S_25
    6  A    between atoms: C_16  and  C_43
    7  A    between atoms: C_17  and  S_25
    8  A    between atoms: C_17  and  C_31
    9  A    between atoms: C_21  and  N_30
   10  A    between atoms: C_21  and  C_45
   11  A    between atoms: C_22  and  C_27
   12  A    between atoms: C_23  and  N_36
   13  A    between atoms: C_23  and  C_42
   14  A    between atoms: N_30  and  C_43
   15  A    between atoms: C_31  and  C_41
   16  A    between atoms: C_32  and  C_44
   17  A    between atoms: C_41  and  C_44
                            x       y       z     vdW  Elec       q    Type
                         _______ _______ _______ _____ _____    ______ ____

>  <TORSDO>
F 17

$$$$
=
 OpenBabel11042414093D

 49 54  0  0  1  0  0  0  0  0999 V2000
  195.2100  174.7620  145.6470 N   0  0  0  0  0  0  0  0  0  0  0  0
  193.6810  176.6020  146.9290 O   0  0  0  0  0  0  0  0  0  0  0  0
  194.0920  174.1400  145.3990 C   0  0  0  0  0  0  0  0  0  0  0  0
  192.8520  174.6930  145.8490 N   0  0  0  0  0  2  0  0  0  0  0  0
  192.6880  175.9040  146.5960 C   0  0  0  0  0  0  0  0  0  0  0  0
  191.3140  176.3150  147.0090 C   0  0  2  0  0  3  0  0  0  0  0  0
  190.5270  175.1250  147.5850 C   0  0  0  0  0  2  0  0  0  0  0  0
  188.5010  176.5490  147.0490 C   0  0  0  0  0  2  0  0  0  0  0  0
  189.0740  175.1310  147.1020 C   0  0  0  0  0  2  0  0  0  0  0  0
  190.6370  176.9020  145.9260 O   0  0  0  0  0  0  0  0  0  0  0  0
  189.5170  177.5530  146.4780 C   0  0  0  0  0  2  0  0  0  0  0  0
  196.5460  174.3840  145.2790 C   0  0  0  0  0  0  0  0  0  0  0  0
  197.2220  173.5730  145.9630 O   0  0  0  0  0  0  0  0  0  0  0  0
  197.1450  174.9550  144.0400 C   0  0  0  0  0  2  0  0  0  0  0  0
  196.3520  176.5350  143.6140 S   0  0  0  0  0  0  0  0  0  0  0  0
  196.6320  176.3460  141.8240 C   0  0  0  0  0  2  0  0  0  0  0  0
  195.3140  176.2370  141.0800 C   0  0  0  0  0  2  0  0  0  0  0  0
  194.4890  175.2000  141.6760 N   0  0  0  0  0  2  0  0  0  0  0  0
  194.9690  173.9330  141.1590 C   0  0  0  0  0  2  0  0  0  0  0  0
  189.7060  173.4910  138.6680 C   0  0  0  0  0  2  0  0  0  0  0  0
  193.0840  173.2160  139.8150 N   0  0  0  0  0  0  0  0  0  0  0  0
  194.2760  171.6280  138.6370 C   0  0  0  0  0  3  0  0  0  0  0  0
  191.7080  171.9410  138.7000 C   0  0  0  0  0  0  0  0  0  0  0  0
  192.9850  172.0690  139.1790 C   0  0  0  0  0  0  0  0  0  0  0  0
  191.1230  170.9490  137.7430 C   0  0  0  0  0  2  0  0  0  0  0  0
  191.0670  173.0860  139.1410 C   0  0  0  0  0  0  0  0  0  0  0  0
  189.8940  171.5510  137.0450 C   0  0  0  0  0  2  0  0  0  0  0  0
  194.4330  173.7190  139.7550 C   0  0  2  0  0  3  0  0  0  0  0  0
  188.9830  172.2890  138.0390 C   0  0  0  0  0  2  0  0  0  0  0  0
  191.9540  173.9010  139.7540 N   0  0  0  0  0  0  0  0  0  0  0  0
  195.2230  172.6760  139.0660 N   0  0  0  0  0  0  0  0  0  0  0  0
  194.0300  172.5660  144.5330 S   0  0  0  0  0  0  0  0  0  0  0  0
  192.2190  172.5160  144.5710 C   0  0  0  0  0  2  0  0  0  0  0  0
  191.6840  172.7590  143.1720 C   0  0  0  0  0  2  0  0  0  0  0  0
  189.3870  172.2780  142.9620 O   0  0  0  0  0  0  0  0  0  0  0  0
  190.2340  173.1160  143.2270 C   0  0  0  0  0  0  0  0  0  0  0  0
  189.8130  174.5110  143.5530 C   0  0  0  0  0  2  0  0  0  0  0  0
  188.8620  175.3320  141.4990 O   0  0  0  0  0  0  0  0  0  0  0  0
  189.9850  175.4300  142.3430 C   0  0  1  0  0  3  0  0  0  0  0  0
  188.9780  176.5300  142.2280 C   0  0  2  0  0  3  0  0  0  0  0  0
  187.9040  176.5600  143.3120 C   0  0  0  0  0  2  0  0  0  0  0  0
  186.3730  177.8550  144.5300 C   0  0  0  0  0  2  0  0  0  0  0  0
  184.5050  178.3830  143.0150 C   0  0  0  0  0  0  0  0  0  0  0  0
  185.1630  178.7670  144.3130 C   0  0  1  0  0  3  0  0  0  0  0  0
  186.7990  178.2770  142.1170 C   0  0  0  0  0  2  0  0  0  0  0  0
  184.2140  178.6030  145.4880 C   0  0  0  0  0  1  0  0  0  0  0  0
  183.3040  178.5230  142.8450 O   0  0  0  0  0  0  0  0  0  0  0  0
  187.3530  177.9000  143.4310 N   0  0  0  0  0  0  0  0  0  0  0  0
  185.3500  177.8320  141.9120 C   0  0  0  0  0  2  0  0  0  0  0  0
  3  1  2  0  0  0  0
  3  4  1  0  0  0  0
  4  5  1  0  0  0  0
  5  2  2  0  0  0  0
  6  5  1  6  0  0  0
  6  7  1  0  0  0  0
  8  9  1  0  0  0  0
  9  7  1  0  0  0  0
 10 11  1  0  0  0  0
 10  6  1  0  0  0  0
 11  8  1  0  0  0  0
 12  1  1  0  0  0  0
 12 13  2  0  0  0  0
 14 12  1  0  0  0  0
 15 14  1  0  0  0  0
 16 15  1  0  0  0  0
 17 18  1  0  0  0  0
 17 16  1  0  0  0  0
 19 18  1  0  0  0  0
 20 26  1  0  0  0  0
 22 31  2  0  0  0  0
 22 24  1  0  0  0  0
 23 26  1  0  0  0  0
 23 24  2  0  0  0  0
 24 21  1  0  0  0  0
 25 23  1  0  0  0  0
 26 30  2  0  0  0  0
 27 25  1  0  0  0  0
 27 29  1  0  0  0  0
 28 21  1  0  0  0  0
 28 19  1  1  0  0  0
 29 20  1  0  0  0  0
 30 21  1  0  0  0  0
 31 28  1  0  0  0  0
 32 33  1  0  0  0  0
 32  3  1  0  0  0  0
 34 36  1  0  0  0  0
 34 33  1  0  0  0  0
 35 36  2  0  0  0  0
 36 37  1  0  0  0  0
 38 40  1  0  0  0  0
 38 39  1  0  0  0  0
 39 37  1  1  0  0  0
 40 39  1  0  0  0  0
 40 41  1  1  0  0  0
 41 48  1  0  0  0  0
 43 44  1  0  0  0  0
 44 42  1  0  0  0  0
 44 46  1  1  0  0  0
 45 48  1  0  0  0  0
 47 43  2  0  0  0  0
 48 42  1  0  0  0  0
 49 45  1  0  0  0  0
 49 43  1  0  0  0  0
M  END
>  <MODEL>
3

>  <REMARK>
 VINA RESULT:      -7.0      2.596      9.538
  Name = 
  17 active torsions:
  status: ('A' for Active; 'I' for Inactive)
    1  A    between atoms: C_2  and  C_48
    2  A    between atoms: N_3  and  C_22
    3  A    between atoms: S_8  and  C_16
    4  A    between atoms: S_8  and  C_27
    5  A    between atoms: C_15  and  S_25
    6  A    between atoms: C_16  and  C_43
    7  A    between atoms: C_17  and  S_25
    8  A    between atoms: C_17  and  C_31
    9  A    between atoms: C_21  and  N_30
   10  A    between atoms: C_21  and  C_45
   11  A    between atoms: C_22  and  C_27
   12  A    between atoms: C_23  and  N_36
   13  A    between atoms: C_23  and  C_42
   14  A    between atoms: N_30  and  C_43
   15  A    between atoms: C_31  and  C_41
   16  A    between atoms: C_32  and  C_44
   17  A    between atoms: C_41  and  C_44
                            x       y       z     vdW  Elec       q    Type
                         _______ _______ _______ _____ _____    ______ ____

>  <TORSDO>
F 17

$$$$
=
 OpenBabel11042414093D

 49 54  0  0  1  0  0  0  0  0999 V2000
  191.9610  176.7490  146.1080 N   0  0  0  0  0  0  0  0  0  0  0  0
  189.7200  176.7330  147.6390 O   0  0  0  0  0  0  0  0  0  0  0  0
  191.2280  177.3310  145.2010 C   0  0  0  0  0  0  0  0  0  0  0  0
  189.8530  177.6200  145.4730 N   0  0  0  0  0  2  0  0  0  0  0  0
  189.1470  177.3150  146.6800 C   0  0  0  0  0  0  0  0  0  0  0  0
  187.7000  177.6660  146.7780 C   0  0  2  0  0  3  0  0  0  0  0  0
  186.8550  176.4380  147.1590 C   0  0  0  0  0  2  0  0  0  0  0  0
  184.9420  177.7890  146.1920 C   0  0  0  0  0  2  0  0  0  0  0  0
  185.5470  176.3940  146.3650 C   0  0  0  0  0  2  0  0  0  0  0  0
  187.2580  178.2410  145.5750 O   0  0  0  0  0  0  0  0  0  0  0  0
  186.0170  178.8400  145.8660 C   0  0  0  0  0  2  0  0  0  0  0  0
  193.3490  176.3840  146.0380 C   0  0  0  0  0  0  0  0  0  0  0  0
  194.1990  176.8410  146.8440 O   0  0  0  0  0  0  0  0  0  0  0  0
  193.7930  175.4230  144.9890 C   0  0  0  0  0  2  0  0  0  0  0  0
  195.2330  174.4710  145.5600 S   0  0  0  0  0  0  0  0  0  0  0  0
  196.3720  175.2120  144.3470 C   0  0  0  0  0  2  0  0  0  0  0  0
  195.6360  176.1780  143.4360 C   0  0  0  0  0  2  0  0  0  0  0  0
  196.2810  176.2250  142.1340 N   0  0  0  0  0  2  0  0  0  0  0  0
  196.0430  174.9420  141.5010 C   0  0  0  0  0  2  0  0  0  0  0  0
  192.1830  170.8060  142.9490 C   0  0  0  0  0  2  0  0  0  0  0  0
  194.2380  173.3240  141.4540 N   0  0  0  0  0  0  0  0  0  0  0  0
  193.4770  173.9410  139.3630 C   0  0  0  0  0  3  0  0  0  0  0  0
  192.8090  171.8450  140.7260 C   0  0  0  0  0  0  0  0  0  0  0  0
  193.6250  172.8880  140.3760 C   0  0  0  0  0  0  0  0  0  0  0  0
  191.7480  171.1350  139.9440 C   0  0  0  0  0  2  0  0  0  0  0  0
  193.0270  171.6880  142.0840 C   0  0  0  0  0  0  0  0  0  0  0  0
  190.7190  170.5080  140.8980 C   0  0  0  0  0  2  0  0  0  0  0  0
  194.5500  174.7260  141.3330 C   0  0  2  0  0  3  0  0  0  0  0  0
  191.4010  169.8050  142.0830 C   0  0  0  0  0  2  0  0  0  0  0  0
  193.8470  172.6640  142.5320 N   0  0  0  0  0  0  0  0  0  0  0  0
  194.1330  175.1170  139.9690 N   0  0  0  0  0  0  0  0  0  0  0  0
  191.8580  177.7600  143.5740 S   0  0  0  0  0  0  0  0  0  0  0  0
  190.6710  176.6790  142.7320 C   0  0  0  0  0  2  0  0  0  0  0  0
  191.3240  175.3360  142.4620 C   0  0  0  0  0  2  0  0  0  0  0  0
  190.8240  173.9100  144.2690 O   0  0  0  0  0  0  0  0  0  0  0  0
  190.5520  174.2430  143.1270 C   0  0  0  0  0  0  0  0  0  0  0  0
  189.4840  173.5130  142.3820 C   0  0  0  0  0  2  0  0  0  0  0  0
  188.1650  173.5850  140.3680 O   0  0  0  0  0  0  0  0  0  0  0  0
  189.3710  174.0280  140.9460 C   0  0  1  0  0  3  0  0  0  0  0  0
  188.2260  174.9540  140.6870 C   0  0  2  0  0  3  0  0  0  0  0  0
  187.3150  175.2290  141.8800 C   0  0  0  0  0  2  0  0  0  0  0  0
  185.8560  176.8870  142.6730 C   0  0  0  0  0  2  0  0  0  0  0  0
  185.1250  178.2020  140.7240 C   0  0  0  0  0  0  0  0  0  0  0  0
  185.2050  178.1980  142.2270 C   0  0  1  0  0  3  0  0  0  0  0  0
  187.4310  177.3310  140.8020 C   0  0  0  0  0  2  0  0  0  0  0  0
  183.8250  178.2950  142.8570 C   0  0  0  0  0  1  0  0  0  0  0  0
  184.2320  178.7910  140.1360 O   0  0  0  0  0  0  0  0  0  0  0  0
  187.1910  176.6620  142.0940 N   0  0  0  0  0  0  0  0  0  0  0  0
  186.1730  177.4760  139.9430 C   0  0  0  0  0  2  0  0  0  0  0  0
  3  4  1  0  0  0  0
  3  1  2  0  0  0  0
  4  5  1  0  0  0  0
  5  2  2  0  0  0  0
  6  5  1  6  0  0  0
  6  7  1  0  0  0  0
  8  9  1  0  0  0  0
  9  7  1  0  0  0  0
 10 11  1  0  0  0  0
 10  6  1  0  0  0  0
 11  8  1  0  0  0  0
 12  1  1  0  0  0  0
 12 13  2  0  0  0  0
 14 15  1  0  0  0  0
 14 12  1  0  0  0  0
 16 15  1  0  0  0  0
 17 16  1  0  0  0  0
 18 17  1  0  0  0  0
 19 18  1  0  0  0  0
 21 30  1  0  0  0  0
 22 31  2  0  0  0  0
 22 24  1  0  0  0  0
 23 26  1  0  0  0  0
 24 23  2  0  0  0  0
 24 21  1  0  0  0  0
 25 23  1  0  0  0  0
 25 27  1  0  0  0  0
 26 30  2  0  0  0  0
 26 20  1  0  0  0  0
 27 29  1  0  0  0  0
 28 21  1  0  0  0  0
 28 19  1  6  0  0  0
 29 20  1  0  0  0  0
 31 28  1  0  0  0  0
 32  3  1  0  0  0  0
 33 32  1  0  0  0  0
 34 33  1  0  0  0  0
 34 36  1  0  0  0  0
 36 35  2  0  0  0  0
 37 36  1  0  0  0  0
 38 40  1  0  0  0  0
 38 39  1  0  0  0  0
 39 37  1  1  0  0  0
 40 39  1  0  0  0  0
 40 41  1  1  0  0  0
 41 48  1  0  0  0  0
 43 44  1  0  0  0  0
 44 42  1  0  0  0  0
 44 46  1  1  0  0  0
 45 48  1  0  0  0  0
 47 43  2  0  0  0  0
 48 42  1  0  0  0  0
 49 43  1  0  0  0  0
 49 45  1  0  0  0  0
M  END
>  <MODEL>
4

>  <REMARK>
 VINA RESULT:      -6.9      2.634      9.455
  Name = 
  17 active torsions:
  status: ('A' for Active; 'I' for Inactive)
    1  A    between atoms: C_2  and  C_48
    2  A    between atoms: N_3  and  C_22
    3  A    between atoms: S_8  and  C_16
    4  A    between atoms: S_8  and  C_27
    5  A    between atoms: C_15  and  S_25
    6  A    between atoms: C_16  and  C_43
    7  A    between atoms: C_17  and  S_25
    8  A    between atoms: C_17  and  C_31
    9  A    between atoms: C_21  and  N_30
   10  A    between atoms: C_21  and  C_45
   11  A    between atoms: C_22  and  C_27
   12  A    between atoms: C_23  and  N_36
   13  A    between atoms: C_23  and  C_42
   14  A    between atoms: N_30  and  C_43
   15  A    between atoms: C_31  and  C_41
   16  A    between atoms: C_32  and  C_44
   17  A    between atoms: C_41  and  C_44
                            x       y       z     vdW  Elec       q    Type
                         _______ _______ _______ _____ _____    ______ ____

>  <TORSDO>
F 17

$$$$
=
 OpenBabel11042414093D

 49 54  0  0  1  0  0  0  0  0999 V2000
  188.9170  177.3210  142.2460 N   0  0  0  0  0  0  0  0  0  0  0  0
  191.5070  177.9180  142.7940 O   0  0  0  0  0  0  0  0  0  0  0  0
  189.2470  176.0830  142.4810 C   0  0  0  0  0  0  0  0  0  0  0  0
  190.5880  175.7620  142.8630 N   0  0  0  0  0  2  0  0  0  0  0  0
  191.6700  176.6880  143.0090 C   0  0  0  0  0  0  0  0  0  0  0  0
  193.0170  176.1690  143.3890 C   0  0  2  0  0  3  0  0  0  0  0  0
  193.0040  174.6370  143.5250 C   0  0  0  0  0  2  0  0  0  0  0  0
  195.0940  175.0080  144.9070 C   0  0  0  0  0  2  0  0  0  0  0  0
  193.8210  174.1770  144.7350 C   0  0  0  0  0  2  0  0  0  0  0  0
  193.4580  176.7850  144.5730 O   0  0  0  0  0  0  0  0  0  0  0  0
  194.8350  176.5050  144.6640 C   0  0  0  0  0  2  0  0  0  0  0  0
  187.6370  177.8490  141.8630 C   0  0  0  0  0  0  0  0  0  0  0  0
  187.2790  177.9220  140.6590 O   0  0  0  0  0  0  0  0  0  0  0  0
  186.6970  178.3090  142.9240 C   0  0  0  0  0  2  0  0  0  0  0  0
  184.9870  177.8490  142.5090 S   0  0  0  0  0  0  0  0  0  0  0  0
  184.2430  179.0440  143.6640 C   0  0  0  0  0  2  0  0  0  0  0  0
  185.2250  179.4180  144.7600 C   0  0  0  0  0  2  0  0  0  0  0  0
  184.7430  178.9420  146.0460 N   0  0  0  0  0  2  0  0  0  0  0  0
  185.7890  179.2150  147.0130 C   0  0  0  0  0  2  0  0  0  0  0  0
  191.1810  177.4350  148.3820 C   0  0  0  0  0  2  0  0  0  0  0  0
  187.8550  177.9560  147.1680 N   0  0  0  0  0  0  0  0  0  0  0  0
  187.0630  176.1360  145.9890 C   0  0  0  0  0  3  0  0  0  0  0  0
  189.5150  176.6380  146.6480 C   0  0  0  0  0  0  0  0  0  0  0  0
  188.2110  176.9630  146.3830 C   0  0  0  0  0  0  0  0  0  0  0  0
  190.3360  175.4690  146.2020 C   0  0  0  0  0  2  0  0  0  0  0  0
  189.8960  177.5460  147.6210 C   0  0  0  0  0  0  0  0  0  0  0  0
  191.4670  175.2030  147.2080 C   0  0  0  0  0  2  0  0  0  0  0  0
  186.4400  177.9120  147.4400 C   0  0  2  0  0  3  0  0  0  0  0  0
  192.1570  176.5070  147.6400 C   0  0  0  0  0  2  0  0  0  0  0  0
  188.8340  178.2960  147.9900 N   0  0  0  0  0  0  0  0  0  0  0  0
  185.9080  176.7930  146.6320 N   0  0  0  0  0  0  0  0  0  0  0  0
  188.0890  174.7200  142.3050 S   0  0  0  0  0  0  0  0  0  0  0  0
  189.1900  173.5590  143.1550 C   0  0  0  0  0  2  0  0  0  0  0  0
  189.1530  172.2210  142.4400 C   0  0  0  0  0  2  0  0  0  0  0  0
  190.9720  170.9320  143.2000 O   0  0  0  0  0  0  0  0  0  0  0  0
  190.5320  171.6580  142.3240 C   0  0  0  0  0  0  0  0  0  0  0  0
  191.4010  172.0220  141.1650 C   0  0  0  0  0  2  0  0  0  0  0  0
  190.6410  173.4790  139.4040 O   0  0  0  0  0  0  0  0  0  0  0  0
  190.5750  172.1570  139.8840 C   0  0  1  0  0  3  0  0  0  0  0  0
  191.3510  172.5180  138.6590 C   0  0  2  0  0  3  0  0  0  0  0  0
  192.8470  172.7360  138.8630 C   0  0  0  0  0  2  0  0  0  0  0  0
  193.9540  174.2160  137.4170 C   0  0  0  0  0  2  0  0  0  0  0  0
  195.9620  175.0130  138.5980 C   0  0  0  0  0  0  0  0  0  0  0  0
  195.0460  175.2880  137.4360 C   0  0  1  0  0  3  0  0  0  0  0  0
  193.8930  174.6010  139.8720 C   0  0  0  0  0  2  0  0  0  0  0  0
  195.7940  175.2430  136.1140 C   0  0  0  0  0  1  0  0  0  0  0  0
  197.1440  175.3190  138.5610 O   0  0  0  0  0  0  0  0  0  0  0  0
  193.1790  174.1370  138.6680 N   0  0  0  0  0  0  0  0  0  0  0  0
  195.4030  174.3630  139.8220 C   0  0  0  0  0  2  0  0  0  0  0  0
  1  3  2  0  0  0  0
  2  5  2  0  0  0  0
  3  4  1  0  0  0  0
  4  5  1  0  0  0  0
  6  5  1  1  0  0  0
  6  7  1  0  0  0  0
  6 10  1  0  0  0  0
  7  9  1  0  0  0  0
  9  8  1  0  0  0  0
 10 11  1  0  0  0  0
 11  8  1  0  0  0  0
 12  1  1  0  0  0  0
 12 14  1  0  0  0  0
 13 12  2  0  0  0  0
 15 14  1  0  0  0  0
 15 16  1  0  0  0  0
 16 17  1  0  0  0  0
 17 18  1  0  0  0  0
 18 19  1  0  0  0  0
 21 28  1  0  0  0  0
 21 30  1  0  0  0  0
 22 24  1  0  0  0  0
 22 31  2  0  0  0  0
 23 26  1  0  0  0  0
 24 23  2  0  0  0  0
 24 21  1  0  0  0  0
 25 23  1  0  0  0  0
 25 27  1  0  0  0  0
 26 30  2  0  0  0  0
 26 20  1  0  0  0  0
 27 29  1  0  0  0  0
 28 19  1  6  0  0  0
 29 20  1  0  0  0  0
 31 28  1  0  0  0  0
 32  3  1  0  0  0  0
 32 33  1  0  0  0  0
 34 33  1  0  0  0  0
 36 34  1  0  0  0  0
 36 35  2  0  0  0  0
 37 36  1  0  0  0  0
 38 39  1  0  0  0  0
 39 37  1  1  0  0  0
 40 41  1  1  0  0  0
 40 38  1  0  0  0  0
 40 39  1  0  0  0  0
 42 44  1  0  0  0  0
 42 48  1  0  0  0  0
 43 49  1  0  0  0  0
 44 46  1  6  0  0  0
 44 43  1  0  0  0  0
 47 43  2  0  0  0  0
 48 41  1  0  0  0  0
 48 45  1  0  0  0  0
 49 45  1  0  0  0  0
M  END
>  <MODEL>
5

>  <REMARK>
 VINA RESULT:      -6.7      2.783      5.476
  Name = 
  17 active torsions:
  status: ('A' for Active; 'I' for Inactive)
    1  A    between atoms: C_2  and  C_48
    2  A    between atoms: N_3  and  C_22
    3  A    between atoms: S_8  and  C_16
    4  A    between atoms: S_8  and  C_27
    5  A    between atoms: C_15  and  S_25
    6  A    between atoms: C_16  and  C_43
    7  A    between atoms: C_17  and  S_25
    8  A    between atoms: C_17  and  C_31
    9  A    between atoms: C_21  and  N_30
   10  A    between atoms: C_21  and  C_45
   11  A    between atoms: C_22  and  C_27
   12  A    between atoms: C_23  and  N_36
   13  A    between atoms: C_23  and  C_42
   14  A    between atoms: N_30  and  C_43
   15  A    between atoms: C_31  and  C_41
   16  A    between atoms: C_32  and  C_44
   17  A    between atoms: C_41  and  C_44
                            x       y       z     vdW  Elec       q    Type
                         _______ _______ _______ _____ _____    ______ ____

>  <TORSDO>
F 17

$$$$
=
 OpenBabel11042414093D

 49 54  0  0  1  0  0  0  0  0999 V2000
  190.5820  173.2110  140.3550 N   0  0  0  0  0  0  0  0  0  0  0  0
  188.1930  174.2460  139.5860 O   0  0  0  0  0  0  0  0  0  0  0  0
  190.9040  173.2540  139.0940 C   0  0  0  0  0  0  0  0  0  0  0  0
  189.9730  173.7660  138.1360 N   0  0  0  0  0  2  0  0  0  0  0  0
  188.6520  174.2460  138.4140 C   0  0  0  0  0  0  0  0  0  0  0  0
  187.8040  174.7200  137.2810 C   0  0  2  0  0  3  0  0  0  0  0  0
  188.6520  174.9760  136.0220 C   0  0  0  0  0  2  0  0  0  0  0  0
  186.6840  176.4070  135.3150 C   0  0  0  0  0  2  0  0  0  0  0  0
  188.2070  176.2510  135.3000 C   0  0  0  0  0  2  0  0  0  0  0  0
  187.0870  175.8680  137.6580 O   0  0  0  0  0  0  0  0  0  0  0  0
  186.0860  176.0360  136.6820 C   0  0  0  0  0  2  0  0  0  0  0  0
  191.3680  172.7460  141.4640 C   0  0  0  0  0  0  0  0  0  0  0  0
  191.4250  171.5290  141.7770 O   0  0  0  0  0  0  0  0  0  0  0  0
  192.1510  173.7320  142.2600 C   0  0  0  0  0  2  0  0  0  0  0  0
  191.0930  175.1090  142.7990 S   0  0  0  0  0  0  0  0  0  0  0  0
  189.9010  174.0320  143.6570 C   0  0  0  0  0  2  0  0  0  0  0  0
  190.4470  173.5850  145.0000 C   0  0  0  0  0  2  0  0  0  0  0  0
  190.8650  174.7390  145.7790 N   0  0  0  0  0  2  0  0  0  0  0  0
  189.8260  174.9810  146.7620 C   0  0  0  0  0  2  0  0  0  0  0  0
  184.7520  177.8690  146.6440 C   0  0  0  0  0  2  0  0  0  0  0  0
  188.0370  176.5200  146.2080 N   0  0  0  0  0  0  0  0  0  0  0  0
  189.2990  177.7620  144.7280 C   0  0  0  0  0  3  0  0  0  0  0  0
  186.7360  177.8510  145.0700 C   0  0  0  0  0  0  0  0  0  0  0  0
  187.9760  177.2720  145.1320 C   0  0  0  0  0  0  0  0  0  0  0  0
  186.2140  178.9400  144.1860 C   0  0  0  0  0  2  0  0  0  0  0  0
  186.0730  177.3440  146.1750 C   0  0  0  0  0  0  0  0  0  0  0  0
  185.0420  179.6600  144.8710 C   0  0  0  0  0  2  0  0  0  0  0  0
  189.3900  176.4330  146.6960 C   0  0  2  0  0  3  0  0  0  0  0  0
  184.0670  178.6640  145.5210 C   0  0  0  0  0  2  0  0  0  0  0  0
  186.9190  176.5920  146.9130 N   0  0  0  0  0  0  0  0  0  0  0  0
  190.2200  177.1650  145.7150 N   0  0  0  0  0  0  0  0  0  0  0  0
  192.4800  172.6510  138.4740 S   0  0  0  0  0  0  0  0  0  0  0  0
  193.0520  174.3180  138.0530 C   0  0  0  0  0  2  0  0  0  0  0  0
  194.1610  174.2200  137.0220 C   0  0  0  0  0  2  0  0  0  0  0  0
  196.1670  173.0550  137.4360 O   0  0  0  0  0  0  0  0  0  0  0  0
  195.4810  174.0310  137.6970 C   0  0  0  0  0  0  0  0  0  0  0  0
  195.9440  175.0010  138.7320 C   0  0  0  0  0  2  0  0  0  0  0  0
  197.9400  175.8680  139.7630 O   0  0  0  0  0  0  0  0  0  0  0  0
  197.4030  174.7420  139.1100 C   0  0  1  0  0  3  0  0  0  0  0  0
  197.6940  174.7460  140.5760 C   0  0  2  0  0  3  0  0  0  0  0  0
  196.5050  175.0400  141.4860 C   0  0  0  0  0  2  0  0  0  0  0  0
  197.0590  174.2750  143.6350 C   0  0  0  0  0  2  0  0  0  0  0  0
  195.3210  175.1050  145.1690 C   0  0  0  0  0  0  0  0  0  0  0  0
  196.7080  174.5250  145.1030 C   0  0  1  0  0  3  0  0  0  0  0  0
  196.0390  176.5140  143.2770 C   0  0  0  0  0  2  0  0  0  0  0  0
  196.7960  173.2080  145.8550 C   0  0  0  0  0  1  0  0  0  0  0  0
  194.5940  174.9080  146.1300 O   0  0  0  0  0  0  0  0  0  0  0  0
  196.9720  175.4800  142.7910 N   0  0  0  0  0  0  0  0  0  0  0  0
  194.8360  175.9490  144.0340 C   0  0  0  0  0  2  0  0  0  0  0  0
  1 12  1  0  0  0  0
  3  1  2  0  0  0  0
  4  5  1  0  0  0  0
  4  3  1  0  0  0  0
  5  2  2  0  0  0  0
  6 10  1  0  0  0  0
  6  5  1  1  0  0  0
  7  6  1  0  0  0  0
  8 11  1  0  0  0  0
  9  8  1  0  0  0  0
  9  7  1  0  0  0  0
 11 10  1  0  0  0  0
 12 13  2  0  0  0  0
 12 14  1  0  0  0  0
 14 15  1  0  0  0  0
 15 16  1  0  0  0  0
 16 17  1  0  0  0  0
 17 18  1  0  0  0  0
 18 19  1  0  0  0  0
 21 28  1  0  0  0  0
 21 30  1  0  0  0  0
 22 24  1  0  0  0  0
 22 31  2  0  0  0  0
 23 24  2  0  0  0  0
 23 26  1  0  0  0  0
 24 21  1  0  0  0  0
 25 27  1  0  0  0  0
 25 23  1  0  0  0  0
 26 20  1  0  0  0  0
 26 30  2  0  0  0  0
 27 29  1  0  0  0  0
 28 19  1  6  0  0  0
 29 20  1  0  0  0  0
 31 28  1  0  0  0  0
 32  3  1  0  0  0  0
 33 32  1  0  0  0  0
 34 36  1  0  0  0  0
 34 33  1  0  0  0  0
 35 36  2  0  0  0  0
 36 37  1  0  0  0  0
 38 40  1  0  0  0  0
 39 37  1  1  0  0  0
 39 38  1  0  0  0  0
 39 40  1  0  0  0  0
 40 41  1  1  0  0  0
 41 48  1  0  0  0  0
 42 44  1  0  0  0  0
 43 47  2  0  0  0  0
 44 43  1  0  0  0  0
 44 46  1  1  0  0  0
 45 49  1  0  0  0  0
 48 45  1  0  0  0  0
 48 42  1  0  0  0  0
 49 43  1  0  0  0  0
M  END
>  <MODEL>
6

>  <REMARK>
 VINA RESULT:      -6.7      2.992      5.462
  Name = 
  17 active torsions:
  status: ('A' for Active; 'I' for Inactive)
    1  A    between atoms: C_2  and  C_48
    2  A    between atoms: N_3  and  C_22
    3  A    between atoms: S_8  and  C_16
    4  A    between atoms: S_8  and  C_27
    5  A    between atoms: C_15  and  S_25
    6  A    between atoms: C_16  and  C_43
    7  A    between atoms: C_17  and  S_25
    8  A    between atoms: C_17  and  C_31
    9  A    between atoms: C_21  and  N_30
   10  A    between atoms: C_21  and  C_45
   11  A    between atoms: C_22  and  C_27
   12  A    between atoms: C_23  and  N_36
   13  A    between atoms: C_23  and  C_42
   14  A    between atoms: N_30  and  C_43
   15  A    between atoms: C_31  and  C_41
   16  A    between atoms: C_32  and  C_44
   17  A    between atoms: C_41  and  C_44
                            x       y       z     vdW  Elec       q    Type
                         _______ _______ _______ _____ _____    ______ ____

>  <TORSDO>
F 17

$$$$
=
 OpenBabel11042414093D

 49 54  0  0  1  0  0  0  0  0999 V2000
  192.9680  172.0600  142.0680 N   0  0  0  0  0  0  0  0  0  0  0  0
  193.1450  170.5370  144.3080 O   0  0  0  0  0  0  0  0  0  0  0  0
  194.1900  171.6800  141.8230 C   0  0  0  0  0  0  0  0  0  0  0  0
  194.8540  170.7840  142.7200 N   0  0  0  0  0  2  0  0  0  0  0  0
  194.3100  170.2420  143.9280 C   0  0  0  0  0  0  0  0  0  0  0  0
  195.1590  169.3410  144.7610 C   0  0  2  0  0  3  0  0  0  0  0  0
  195.1090  169.7450  146.2450 C   0  0  0  0  0  2  0  0  0  0  0  0
  197.2710  168.4320  146.3990 C   0  0  0  0  0  2  0  0  0  0  0  0
  196.4930  169.6530  146.8950 C   0  0  0  0  0  2  0  0  0  0  0  0
  196.4780  169.3330  144.2760 O   0  0  0  0  0  0  0  0  0  0  0  0
  197.1060  168.2280  144.8830 C   0  0  0  0  0  2  0  0  0  0  0  0
  192.1320  172.9370  141.2970 C   0  0  0  0  0  0  0  0  0  0  0  0
  192.5420  174.0510  140.8780 O   0  0  0  0  0  0  0  0  0  0  0  0
  190.7430  172.5110  140.9690 C   0  0  0  0  0  2  0  0  0  0  0  0
  190.0110  171.5880  142.3540 S   0  0  0  0  0  0  0  0  0  0  0  0
  188.3870  172.4000  142.2120 C   0  0  0  0  0  2  0  0  0  0  0  0
  188.4430  173.5500  141.2230 C   0  0  0  0  0  2  0  0  0  0  0  0
  187.9210  174.7610  141.8350 N   0  0  0  0  0  2  0  0  0  0  0  0
  189.0420  175.6680  141.9950 C   0  0  0  0  0  2  0  0  0  0  0  0
  185.7330  177.1670  146.5670 C   0  0  0  0  0  2  0  0  0  0  0  0
  187.3920  176.7150  143.4300 N   0  0  0  0  0  0  0  0  0  0  0  0
  186.7390  178.2810  141.8650 C   0  0  0  0  0  3  0  0  0  0  0  0
  185.5650  177.7020  144.0970 C   0  0  0  0  0  0  0  0  0  0  0  0
  186.3850  177.4570  143.0280 C   0  0  0  0  0  0  0  0  0  0  0  0
  184.4140  178.6480  144.2450 C   0  0  0  0  0  2  0  0  0  0  0  0
  186.1570  177.0110  145.1410 C   0  0  0  0  0  0  0  0  0  0  0  0
  184.2250  179.0250  145.7220 C   0  0  0  0  0  2  0  0  0  0  0  0
  188.5630  176.9620  142.6260 C   0  0  2  0  0  3  0  0  0  0  0  0
  184.3310  177.7950  146.6380 C   0  0  0  0  0  2  0  0  0  0  0  0
  187.3300  176.4780  144.7300 N   0  0  0  0  0  0  0  0  0  0  0  0
  188.1380  177.9100  141.5740 N   0  0  0  0  0  0  0  0  0  0  0  0
  195.1230  172.2690  140.4030 S   0  0  0  0  0  0  0  0  0  0  0  0
  196.3660  173.0780  141.4450 C   0  0  0  0  0  2  0  0  0  0  0  0
  197.5100  173.5610  140.5720 C   0  0  0  0  0  2  0  0  0  0  0  0
  197.8420  175.4900  139.2610 O   0  0  0  0  0  0  0  0  0  0  0  0
  197.3560  175.0180  140.2760 C   0  0  0  0  0  0  0  0  0  0  0  0
  196.6560  175.9130  141.2440 C   0  0  0  0  0  2  0  0  0  0  0  0
  197.0590  177.1820  143.2510 O   0  0  0  0  0  0  0  0  0  0  0  0
  197.4350  176.0160  142.5560 C   0  0  1  0  0  3  0  0  0  0  0  0
  196.6050  175.9670  143.7980 C   0  0  2  0  0  3  0  0  0  0  0  0
  195.0980  175.8560  143.5830 C   0  0  0  0  0  2  0  0  0  0  0  0
  193.0700  174.9380  144.3240 C   0  0  0  0  0  2  0  0  0  0  0  0
  192.6940  175.7670  146.6120 C   0  0  0  0  0  0  0  0  0  0  0  0
  192.2730  174.7230  145.6130 C   0  0  1  0  0  3  0  0  0  0  0  0
  194.9900  175.2620  145.8700 C   0  0  0  0  0  2  0  0  0  0  0  0
  190.7920  174.8250  145.2920 C   0  0  0  0  0  1  0  0  0  0  0  0
  191.9190  176.1860  147.4580 O   0  0  0  0  0  0  0  0  0  0  0  0
  194.5300  174.8980  144.5170 N   0  0  0  0  0  0  0  0  0  0  0  0
  194.0940  176.2870  146.5680 C   0  0  0  0  0  2  0  0  0  0  0  0
  3  1  2  0  0  0  0
  3  4  1  0  0  0  0
  4  5  1  0  0  0  0
  5  2  2  0  0  0  0
  6  5  1  6  0  0  0
  6  7  1  0  0  0  0
  7  9  1  0  0  0  0
  8  9  1  0  0  0  0
 10  6  1  0  0  0  0
 10 11  1  0  0  0  0
 11  8  1  0  0  0  0
 12  1  1  0  0  0  0
 13 12  2  0  0  0  0
 14 12  1  0  0  0  0
 14 15  1  0  0  0  0
 16 15  1  0  0  0  0
 17 18  1  0  0  0  0
 17 16  1  0  0  0  0
 18 19  1  0  0  0  0
 20 29  1  0  0  0  0
 21 30  1  0  0  0  0
 22 24  1  0  0  0  0
 23 25  1  0  0  0  0
 23 26  1  0  0  0  0
 24 21  1  0  0  0  0
 24 23  2  0  0  0  0
 25 27  1  0  0  0  0
 26 20  1  0  0  0  0
 27 29  1  0  0  0  0
 28 19  1  6  0  0  0
 28 21  1  0  0  0  0
 30 26  2  0  0  0  0
 31 22  2  0  0  0  0
 31 28  1  0  0  0  0
 32 33  1  0  0  0  0
 32  3  1  0  0  0  0
 34 33  1  0  0  0  0
 35 36  2  0  0  0  0
 36 34  1  0  0  0  0
 36 37  1  0  0  0  0
 38 40  1  0  0  0  0
 39 37  1  6  0  0  0
 39 38  1  0  0  0  0
 39 40  1  0  0  0  0
 40 41  1  6  0  0  0
 41 48  1  0  0  0  0
 42 48  1  0  0  0  0
 42 44  1  0  0  0  0
 43 47  2  0  0  0  0
 44 46  1  6  0  0  0
 44 43  1  0  0  0  0
 45 49  1  0  0  0  0
 48 45  1  0  0  0  0
 49 43  1  0  0  0  0
M  END
>  <MODEL>
7

>  <REMARK>
 VINA RESULT:      -6.7      2.882      5.787
  Name = 
  17 active torsions:
  status: ('A' for Active; 'I' for Inactive)
    1  A    between atoms: C_2  and  C_48
    2  A    between atoms: N_3  and  C_22
    3  A    between atoms: S_8  and  C_16
    4  A    between atoms: S_8  and  C_27
    5  A    between atoms: C_15  and  S_25
    6  A    between atoms: C_16  and  C_43
    7  A    between atoms: C_17  and  S_25
    8  A    between atoms: C_17  and  C_31
    9  A    between atoms: C_21  and  N_30
   10  A    between atoms: C_21  and  C_45
   11  A    between atoms: C_22  and  C_27
   12  A    between atoms: C_23  and  N_36
   13  A    between atoms: C_23  and  C_42
   14  A    between atoms: N_30  and  C_43
   15  A    between atoms: C_31  and  C_41
   16  A    between atoms: C_32  and  C_44
   17  A    between atoms: C_41  and  C_44
                            x       y       z     vdW  Elec       q    Type
                         _______ _______ _______ _____ _____    ______ ____

>  <TORSDO>
F 17

$$$$
=
 OpenBabel11042414093D

 49 54  0  0  1  0  0  0  0  0999 V2000
  194.4950  175.6930  144.8110 N   0  0  0  0  0  0  0  0  0  0  0  0
  194.3510  176.2030  142.1490 O   0  0  0  0  0  0  0  0  0  0  0  0
  195.5310  174.9580  144.5210 C   0  0  0  0  0  0  0  0  0  0  0  0
  195.9760  174.8520  143.1660 N   0  0  0  0  0  2  0  0  0  0  0  0
  195.3740  175.4790  142.0280 C   0  0  0  0  0  0  0  0  0  0  0  0
  195.9580  175.2340  140.6770 C   0  0  2  0  0  3  0  0  0  0  0  0
  194.8840  175.3400  139.5800 C   0  0  0  0  0  2  0  0  0  0  0  0
  196.5340  173.9930  138.2070 C   0  0  0  0  0  2  0  0  0  0  0  0
  195.0570  174.2470  138.5220 C   0  0  0  0  0  2  0  0  0  0  0  0
  196.6020  173.9850  140.6450 O   0  0  0  0  0  0  0  0  0  0  0  0
  197.3950  173.9890  139.4820 C   0  0  0  0  0  2  0  0  0  0  0  0
  193.9010  175.9350  146.0960 C   0  0  0  0  0  0  0  0  0  0  0  0
  194.3050  176.8530  146.8550 O   0  0  0  0  0  0  0  0  0  0  0  0
  192.7610  175.0840  146.5390 C   0  0  0  0  0  2  0  0  0  0  0  0
  191.3020  176.1050  146.9060 S   0  0  0  0  0  0  0  0  0  0  0  0
  191.1950  176.7950  145.2240 C   0  0  0  0  0  2  0  0  0  0  0  0
  190.9340  175.6990  144.2070 C   0  0  0  0  0  2  0  0  0  0  0  0
  190.9380  176.2520  142.8630 N   0  0  0  0  0  2  0  0  0  0  0  0
  189.5610  176.2560  142.4070 C   0  0  0  0  0  2  0  0  0  0  0  0
  185.8300  177.4370  146.7420 C   0  0  0  0  0  2  0  0  0  0  0  0
  187.6950  177.0960  143.7070 N   0  0  0  0  0  0  0  0  0  0  0  0
  186.8810  178.4530  142.0270 C   0  0  0  0  0  3  0  0  0  0  0  0
  185.7030  177.8080  144.2390 C   0  0  0  0  0  0  0  0  0  0  0  0
  186.6040  177.6440  143.2210 C   0  0  0  0  0  0  0  0  0  0  0  0
  184.4100  178.5620  144.2830 C   0  0  0  0  0  2  0  0  0  0  0  0
  186.3450  177.2770  145.3450 C   0  0  0  0  0  0  0  0  0  0  0  0
  184.0900  178.9800  145.7260 C   0  0  0  0  0  2  0  0  0  0  0  0
  188.8510  177.4870  142.9400 C   0  0  2  0  0  3  0  0  0  0  0  0
  184.3450  177.8320  146.7170 C   0  0  0  0  0  2  0  0  0  0  0  0
  187.6060  176.9200  145.0160 N   0  0  0  0  0  0  0  0  0  0  0  0
  188.3340  178.2980  141.8170 N   0  0  0  0  0  0  0  0  0  0  0  0
  196.4280  174.0140  145.7610 S   0  0  0  0  0  0  0  0  0  0  0  0
  196.2860  172.4730  144.8180 C   0  0  0  0  0  2  0  0  0  0  0  0
  196.2230  171.3020  145.7810 C   0  0  0  0  0  2  0  0  0  0  0  0
  194.5780  169.7840  146.5170 O   0  0  0  0  0  0  0  0  0  0  0  0
  194.8890  170.6330  145.6970 C   0  0  0  0  0  0  0  0  0  0  0  0
  193.9510  170.9590  144.5820 C   0  0  0  0  0  2  0  0  0  0  0  0
  192.7670  168.9500  143.9810 O   0  0  0  0  0  0  0  0  0  0  0  0
  193.8360  169.7860  143.6060 C   0  0  1  0  0  3  0  0  0  0  0  0
  192.5610  169.7280  142.8260 C   0  0  2  0  0  3  0  0  0  0  0  0
  191.5440  170.8210  143.1370 C   0  0  0  0  0  2  0  0  0  0  0  0
  191.0480  170.2750  140.9100 C   0  0  0  0  0  2  0  0  0  0  0  0
  190.6290  172.3900  139.7220 C   0  0  0  0  0  0  0  0  0  0  0  0
  190.4490  170.8980  139.6470 C   0  0  1  0  0  3  0  0  0  0  0  0
  189.9110  172.1570  142.0680 C   0  0  0  0  0  2  0  0  0  0  0  0
  191.1520  170.3120  138.4340 C   0  0  0  0  0  1  0  0  0  0  0  0
  190.7580  173.0660  138.7130 O   0  0  0  0  0  0  0  0  0  0  0  0
  190.4680  170.7950  142.1600 N   0  0  0  0  0  0  0  0  0  0  0  0
  190.6360  173.0510  141.0620 C   0  0  0  0  0  2  0  0  0  0  0  0
  1 12  1  0  0  0  0
  3  1  2  0  0  0  0
  3 32  1  0  0  0  0
  4  3  1  0  0  0  0
  5  2  2  0  0  0  0
  5  4  1  0  0  0  0
  6  5  1  1  0  0  0
  7  6  1  0  0  0  0
  8  9  1  0  0  0  0
  8 11  1  0  0  0  0
  9  7  1  0  0  0  0
 10  6  1  0  0  0  0
 11 10  1  0  0  0  0
 12 14  1  0  0  0  0
 12 13  2  0  0  0  0
 14 15  1  0  0  0  0
 16 15  1  0  0  0  0
 17 16  1  0  0  0  0
 18 17  1  0  0  0  0
 19 18  1  0  0  0  0
 21 30  1  0  0  0  0
 22 24  1  0  0  0  0
 23 25  1  0  0  0  0
 23 26  1  0  0  0  0
 24 21  1  0  0  0  0
 24 23  2  0  0  0  0
 25 27  1  0  0  0  0
 26 20  1  0  0  0  0
 27 29  1  0  0  0  0
 28 19  1  6  0  0  0
 28 21  1  0  0  0  0
 29 20  1  0  0  0  0
 30 26  2  0  0  0  0
 31 22  2  0  0  0  0
 31 28  1  0  0  0  0
 33 32  1  0  0  0  0
 33 34  1  0  0  0  0
 36 34  1  0  0  0  0
 36 35  2  0  0  0  0
 37 36  1  0  0  0  0
 39 38  1  0  0  0  0
 39 37  1  1  0  0  0
 40 41  1  1  0  0  0
 40 39  1  0  0  0  0
 40 38  1  0  0  0  0
 42 48  1  0  0  0  0
 43 49  1  0  0  0  0
 44 46  1  6  0  0  0
 44 43  1  0  0  0  0
 44 42  1  0  0  0  0
 45 48  1  0  0  0  0
 47 43  2  0  0  0  0
 48 41  1  0  0  0  0
 49 45  1  0  0  0  0
M  END
>  <MODEL>
8

>  <REMARK>
 VINA RESULT:      -6.6      2.633      6.302
  Name = 
  17 active torsions:
  status: ('A' for Active; 'I' for Inactive)
    1  A    between atoms: C_2  and  C_48
    2  A    between atoms: N_3  and  C_22
    3  A    between atoms: S_8  and  C_16
    4  A    between atoms: S_8  and  C_27
    5  A    between atoms: C_15  and  S_25
    6  A    between atoms: C_16  and  C_43
    7  A    between atoms: C_17  and  S_25
    8  A    between atoms: C_17  and  C_31
    9  A    between atoms: C_21  and  N_30
   10  A    between atoms: C_21  and  C_45
   11  A    between atoms: C_22  and  C_27
   12  A    between atoms: C_23  and  N_36
   13  A    between atoms: C_23  and  C_42
   14  A    between atoms: N_30  and  C_43
   15  A    between atoms: C_31  and  C_41
   16  A    between atoms: C_32  and  C_44
   17  A    between atoms: C_41  and  C_44
                            x       y       z     vdW  Elec       q    Type
                         _______ _______ _______ _____ _____    ______ ____

>  <TORSDO>
F 17

$$$$
=
 OpenBabel11042414093D

 49 54  0  0  1  0  0  0  0  0999 V2000
  187.8660  175.3480  141.4060 N   0  0  0  0  0  0  0  0  0  0  0  0
  185.9240  176.5210  142.8970 O   0  0  0  0  0  0  0  0  0  0  0  0
  188.6940  175.7630  142.3220 C   0  0  0  0  0  0  0  0  0  0  0  0
  188.2010  176.4840  143.4560 N   0  0  0  0  0  2  0  0  0  0  0  0
  186.8360  176.8360  143.7060 C   0  0  0  0  0  0  0  0  0  0  0  0
  186.5070  177.6180  144.9330 C   0  0  2  0  0  3  0  0  0  0  0  0
  186.1930  176.6870  146.1180 C   0  0  0  0  0  2  0  0  0  0  0  0
  185.0340  178.7300  147.0700 C   0  0  0  0  0  2  0  0  0  0  0  0
  185.0050  177.2050  146.9350 C   0  0  0  0  0  2  0  0  0  0  0  0
  185.4420  178.4990  144.6760 O   0  0  0  0  0  0  0  0  0  0  0  0
  185.4290  179.4120  145.7490 C   0  0  0  0  0  2  0  0  0  0  0  0
  188.1540  174.6090  140.2080 C   0  0  0  0  0  0  0  0  0  0  0  0
  187.8820  175.0600  139.0650 O   0  0  0  0  0  0  0  0  0  0  0  0
  188.8080  173.2750  140.3200 C   0  0  0  0  0  2  0  0  0  0  0  0
  189.8800  172.9640  138.8850 S   0  0  0  0  0  0  0  0  0  0  0  0
  190.8090  171.6270  139.7000 C   0  0  0  0  0  2  0  0  0  0  0  0
  191.7400  172.1850  140.7610 C   0  0  0  0  0  2  0  0  0  0  0  0
  191.9650  171.1930  141.8000 N   0  0  0  0  0  2  0  0  0  0  0  0
  190.7760  171.1760  142.6290 C   0  0  0  0  0  2  0  0  0  0  0  0
  189.2130  174.9450  146.8080 C   0  0  0  0  0  2  0  0  0  0  0  0
  190.8070  172.7820  144.4450 N   0  0  0  0  0  0  0  0  0  0  0  0
  193.0820  172.6260  144.8040 C   0  0  0  0  0  3  0  0  0  0  0  0
  191.4550  174.3930  145.7660 C   0  0  0  0  0  0  0  0  0  0  0  0
  191.8630  173.4410  144.8700 C   0  0  0  0  0  0  0  0  0  0  0  0
  192.2490  175.2610  146.6930 C   0  0  0  0  0  2  0  0  0  0  0  0
  190.0770  174.2580  145.7970 C   0  0  0  0  0  0  0  0  0  0  0  0
  191.3860  175.6810  147.8930 C   0  0  0  0  0  2  0  0  0  0  0  0
  191.1600  171.4350  144.0750 C   0  0  2  0  0  3  0  0  0  0  0  0
  189.9770  176.1130  147.4530 C   0  0  0  0  0  2  0  0  0  0  0  0
  189.7030  173.2030  145.0410 N   0  0  0  0  0  0  0  0  0  0  0  0
  192.6280  171.3440  144.2310 N   0  0  0  0  0  0  0  0  0  0  0  0
  190.4690  175.5070  142.2130 S   0  0  0  0  0  0  0  0  0  0  0  0
  190.8350  177.2090  142.7170 C   0  0  0  0  0  2  0  0  0  0  0  0
  191.9930  177.2010  143.6980 C   0  0  0  0  0  2  0  0  0  0  0  0
  193.2960  176.6680  141.8090 O   0  0  0  0  0  0  0  0  0  0  0  0
  193.2370  176.7150  143.0270 C   0  0  0  0  0  0  0  0  0  0  0  0
  194.3920  176.2320  143.8400 C   0  0  0  0  0  2  0  0  0  0  0  0
  196.7220  176.8350  143.9270 O   0  0  0  0  0  0  0  0  0  0  0  0
  195.7040  176.3810  143.0670 C   0  0  1  0  0  3  0  0  0  0  0  0
  196.8160  175.4910  143.5210 C   0  0  2  0  0  3  0  0  0  0  0  0
  196.5000  174.5870  144.7080 C   0  0  0  0  0  2  0  0  0  0  0  0
  197.5880  172.8030  143.6400 C   0  0  0  0  0  2  0  0  0  0  0  0
  196.9420  170.7460  144.8280 C   0  0  0  0  0  0  0  0  0  0  0  0
  197.9390  171.3310  143.8640 C   0  0  1  0  0  3  0  0  0  0  0  0
  197.2550  172.8330  146.1030 C   0  0  0  0  0  2  0  0  0  0  0  0
  197.9040  170.6140  142.5250 C   0  0  0  0  0  1  0  0  0  0  0  0
  196.6300  169.5660  144.7820 O   0  0  0  0  0  0  0  0  0  0  0  0
  197.5530  173.6000  144.8790 N   0  0  0  0  0  0  0  0  0  0  0  0
  196.3370  171.6330  145.8680 C   0  0  0  0  0  2  0  0  0  0  0  0
  1  3  2  0  0  0  0
  2  5  2  0  0  0  0
  3  4  1  0  0  0  0
  4  5  1  0  0  0  0
  6  5  1  6  0  0  0
  6  7  1  0  0  0  0
  7  9  1  0  0  0  0
  9  8  1  0  0  0  0
 10  6  1  0  0  0  0
 10 11  1  0  0  0  0
 11  8  1  0  0  0  0
 12 14  1  0  0  0  0
 12  1  1  0  0  0  0
 13 12  2  0  0  0  0
 15 16  1  0  0  0  0
 15 14  1  0  0  0  0
 16 17  1  0  0  0  0
 17 18  1  0  0  0  0
 18 19  1  0  0  0  0
 20 29  1  0  0  0  0
 21 24  1  0  0  0  0
 21 30  1  0  0  0  0
 22 24  1  0  0  0  0
 23 26  1  0  0  0  0
 23 25  1  0  0  0  0
 24 23  2  0  0  0  0
 25 27  1  0  0  0  0
 26 20  1  0  0  0  0
 28 19  1  6  0  0  0
 28 31  1  0  0  0  0
 28 21  1  0  0  0  0
 29 27  1  0  0  0  0
 30 26  2  0  0  0  0
 31 22  2  0  0  0  0
 32  3  1  0  0  0  0
 32 33  1  0  0  0  0
 33 34  1  0  0  0  0
 35 36  2  0  0  0  0
 36 34  1  0  0  0  0
 36 37  1  0  0  0  0
 39 40  1  0  0  0  0
 39 37  1  1  0  0  0
 39 38  1  0  0  0  0
 40 38  1  0  0  0  0
 40 41  1  1  0  0  0
 41 48  1  0  0  0  0
 42 44  1  0  0  0  0
 42 48  1  0  0  0  0
 43 49  1  0  0  0  0
 44 46  1  6  0  0  0
 44 43  1  0  0  0  0
 47 43  2  0  0  0  0
 48 45  1  0  0  0  0
 49 45  1  0  0  0  0
M  END
>  <MODEL>
9

>  <REMARK>
 VINA RESULT:      -6.6      2.462      7.115
  Name = 
  17 active torsions:
  status: ('A' for Active; 'I' for Inactive)
    1  A    between atoms: C_2  and  C_48
    2  A    between atoms: N_3  and  C_22
    3  A    between atoms: S_8  and  C_16
    4  A    between atoms: S_8  and  C_27
    5  A    between atoms: C_15  and  S_25
    6  A    between atoms: C_16  and  C_43
    7  A    between atoms: C_17  and  S_25
    8  A    between atoms: C_17  and  C_31
    9  A    between atoms: C_21  and  N_30
   10  A    between atoms: C_21  and  C_45
   11  A    between atoms: C_22  and  C_27
   12  A    between atoms: C_23  and  N_36
   13  A    between atoms: C_23  and  C_42
   14  A    between atoms: N_30  and  C_43
   15  A    between atoms: C_31  and  C_41
   16  A    between atoms: C_32  and  C_44
   17  A    between atoms: C_41  and  C_44
                            x       y       z     vdW  Elec       q    Type
                         _______ _______ _______ _____ _____    ______ ____

>  <TORSDO>
F 17

$$$$
