=
 OpenBabel11042413473D

 30 32  0  0  1  0  0  0  0  0999 V2000
  189.2670  175.1950  143.6680 C   0  0  1  0  0  3  0  0  0  0  0  0
  189.3210  175.6880  145.0340 N   0  0  0  0  0  2  0  0  0  0  0  0
  189.7840  174.6030  145.8790 C   0  0  0  0  0  2  0  0  0  0  0  0
  189.6210  175.0000  147.3310 C   0  0  0  0  0  2  0  0  0  0  0  0
  191.2810  176.7500  147.8770 C   0  0  0  0  0  1  0  0  0  0  0  0
  190.9810  175.2670  147.9430 C   0  0  0  0  0  2  0  0  0  0  0  0
  188.3390  176.0850  142.8450 C   0  0  0  0  0  2  0  0  0  0  0  0
  186.9780  175.8260  143.1730 O   0  0  0  0  0  0  0  0  0  0  0  0
  185.5660  177.2700  144.6440 C   0  0  0  0  0  0  0  0  0  0  0  0
  186.1190  176.8040  145.8470 C   0  0  0  0  0  3  0  0  0  0  0  0
  184.0270  178.7700  143.5580 N   0  0  0  0  0  0  0  0  0  0  0  0
  184.1250  178.7590  145.9380 C   0  0  0  0  0  3  0  0  0  0  0  0
  184.6750  178.2660  147.1220 C   0  0  0  0  0  3  0  0  0  0  0  0
  185.4060  177.3460  142.2290 C   0  0  0  0  0  3  0  0  0  0  0  0
  184.5670  178.2750  144.7030 C   0  0  0  0  0  0  0  0  0  0  0  0
  184.4240  178.3310  142.3370 C   0  0  0  0  0  3  0  0  0  0  0  0
  185.6760  177.2930  147.0770 C   0  0  0  0  0  3  0  0  0  0  0  0
  185.9880  176.8000  143.3740 C   0  0  0  0  0  0  0  0  0  0  0  0
  190.6700  175.1680  143.0690 C   0  0  0  0  0  2  0  0  0  0  0  0
  191.1840  176.4630  142.9790 O   0  0  0  0  0  0  0  0  0  0  0  0
  192.5710  176.3000  143.0140 C   0  0  0  0  0  2  0  0  0  0  0  0
  193.0800  176.5290  144.4250 C   0  0  0  0  0  2  0  0  0  0  0  0
  194.0140  175.4740  144.7940 N   0  0  0  0  0  0  0  0  0  0  0  0
  195.4170  175.5820  144.4890 C   0  0  0  0  0  0  0  0  0  0  0  0
  193.4900  174.2940  145.4800 C   0  0  0  0  0  2  0  0  0  0  0  0
  197.6800  174.4920  144.3720 C   0  0  0  0  0  1  0  0  0  0  0  0
  195.8710  176.6190  143.9320 O   0  0  0  0  0  0  0  0  0  0  0  0
  196.2900  174.4870  144.8030 N   0  0  0  0  0  0  0  0  0  0  0  0
  194.3360  173.0600  145.1770 C   0  0  0  0  0  2  0  0  0  0  0  0
  195.7870  173.3400  145.5500 C   0  0  0  0  0  2  0  0  0  0  0  0
  1  7  1  6  0  0  0
  1  2  1  0  0  0  0
  2  3  1  0  0  0  0
  3  4  1  0  0  0  0
  4  6  1  0  0  0  0
  5  6  1  0  0  0  0
  7  8  1  0  0  0  0
  8 18  1  0  0  0  0
  9 15  1  0  0  0  0
  9 10  2  0  0  0  0
 10 17  1  0  0  0  0
 11 15  1  0  0  0  0
 12 13  1  0  0  0  0
 14 16  1  0  0  0  0
 14 18  2  0  0  0  0
 15 12  2  0  0  0  0
 16 11  2  0  0  0  0
 17 13  2  0  0  0  0
 18  9  1  0  0  0  0
 19  1  1  0  0  0  0
 20 21  1  0  0  0  0
 20 19  1  0  0  0  0
 21 22  1  0  0  0  0
 22 23  1  0  0  0  0
 23 25  1  0  0  0  0
 24 23  1  0  0  0  0
 24 28  1  0  0  0  0
 26 28  1  0  0  0  0
 27 24  2  0  0  0  0
 28 30  1  0  0  0  0
 29 25  1  0  0  0  0
 29 30  1  0  0  0  0
M  END
>  <MODEL>
1

>  <REMARK>
 VINA RESULT:      -6.5      0.000      0.000
  Name = 
  12 active torsions:
  status: ('A' for Active; 'I' for Inactive)
    1  A    between atoms: C_3  and  N_19
    2  A    between atoms: C_3  and  C_20
    3  A    between atoms: N_4  and  C_24
    4  A    between atoms: O_5  and  C_13
    5  A    between atoms: O_5  and  C_26
    6  A    between atoms: C_10  and  N_19
    7  A    between atoms: C_10  and  C_22
    8  A    between atoms: C_10  and  C_26
    9  A    between atoms: C_13  and  C_24
   10  A    between atoms: C_18  and  C_20
   11  A    between atoms: C_22  and  O_29
   12  A    between atoms: O_29  and  C_30
                            x       y       z     vdW  Elec       q    Type
                         _______ _______ _______ _____ _____    ______ ____

>  <TORSDO>
F 12

$$$$
=
 OpenBabel11042413473D

 30 32  0  0  1  0  0  0  0  0999 V2000
  188.4570  175.9890  141.8730 C   0  0  1  0  0  3  0  0  0  0  0  0
  188.1700  174.8160  142.6820 N   0  0  0  0  0  2  0  0  0  0  0  0
  188.1870  173.6580  141.8060 C   0  0  0  0  0  2  0  0  0  0  0  0
  188.7480  172.4720  142.5620 C   0  0  0  0  0  2  0  0  0  0  0  0
  189.7710  172.3070  144.8080 C   0  0  0  0  0  1  0  0  0  0  0  0
  189.9060  172.9210  143.4300 C   0  0  0  0  0  2  0  0  0  0  0  0
  187.2100  176.8620  141.7860 C   0  0  0  0  0  2  0  0  0  0  0  0
  186.2240  176.4200  142.7140 O   0  0  0  0  0  0  0  0  0  0  0  0
  185.6960  177.3450  144.9750 C   0  0  0  0  0  0  0  0  0  0  0  0
  186.6940  176.6190  145.6450 C   0  0  0  0  0  3  0  0  0  0  0  0
  183.9310  178.9770  145.1070 N   0  0  0  0  0  0  0  0  0  0  0  0
  185.0680  178.3590  147.1070 C   0  0  0  0  0  3  0  0  0  0  0  0
  186.0520  177.6110  147.7550 C   0  0  0  0  0  3  0  0  0  0  0  0
  184.4930  178.0330  142.9890 C   0  0  0  0  0  3  0  0  0  0  0  0
  184.8890  178.2380  145.7250 C   0  0  0  0  0  0  0  0  0  0  0  0
  183.7220  178.8940  143.7690 C   0  0  0  0  0  3  0  0  0  0  0  0
  186.8690  176.7460  147.0240 C   0  0  0  0  0  3  0  0  0  0  0  0
  185.4860  177.2460  143.5750 C   0  0  0  0  0  0  0  0  0  0  0  0
  189.6250  176.7630  142.4770 C   0  0  0  0  0  2  0  0  0  0  0  0
  189.1580  177.7070  143.3940 O   0  0  0  0  0  0  0  0  0  0  0  0
  190.0790  177.6740  144.4430 C   0  0  0  0  0  2  0  0  0  0  0  0
  191.4890  177.7650  143.8910 C   0  0  0  0  0  2  0  0  0  0  0  0
  192.3310  176.7480  144.5060 N   0  0  0  0  0  0  0  0  0  0  0  0
  193.3490  176.0670  143.7490 C   0  0  0  0  0  0  0  0  0  0  0  0
  192.1140  176.4290  145.9160 C   0  0  0  0  0  2  0  0  0  0  0  0
  195.0310  174.2040  143.6010 C   0  0  0  0  0  1  0  0  0  0  0  0
  193.5590  176.3730  142.5430 O   0  0  0  0  0  0  0  0  0  0  0  0
  194.1050  175.0190  144.3730 N   0  0  0  0  0  0  0  0  0  0  0  0
  192.4960  174.9830  146.2190 C   0  0  0  0  0  2  0  0  0  0  0  0
  193.9420  174.7460  145.7970 C   0  0  0  0  0  2  0  0  0  0  0  0
  1  7  1  1  0  0  0
  1 19  1  0  0  0  0
  1  2  1  0  0  0  0
  3  4  1  0  0  0  0
  3  2  1  0  0  0  0
  4  6  1  0  0  0  0
  6  5  1  0  0  0  0
  7  8  1  0  0  0  0
  8 18  1  0  0  0  0
  9 10  2  0  0  0  0
  9 15  1  0  0  0  0
 10 17  1  0  0  0  0
 11 15  1  0  0  0  0
 12 13  1  0  0  0  0
 14 18  2  0  0  0  0
 14 16  1  0  0  0  0
 15 12  2  0  0  0  0
 16 11  2  0  0  0  0
 17 13  2  0  0  0  0
 18  9  1  0  0  0  0
 19 20  1  0  0  0  0
 20 21  1  0  0  0  0
 22 21  1  0  0  0  0
 22 23  1  0  0  0  0
 23 25  1  0  0  0  0
 24 28  1  0  0  0  0
 24 23  1  0  0  0  0
 25 29  1  0  0  0  0
 26 28  1  0  0  0  0
 27 24  2  0  0  0  0
 28 30  1  0  0  0  0
 30 29  1  0  0  0  0
M  END
>  <MODEL>
2

>  <REMARK>
 VINA RESULT:      -6.4      1.757      2.679
  Name = 
  12 active torsions:
  status: ('A' for Active; 'I' for Inactive)
    1  A    between atoms: C_3  and  N_19
    2  A    between atoms: C_3  and  C_20
    3  A    between atoms: N_4  and  C_24
    4  A    between atoms: O_5  and  C_13
    5  A    between atoms: O_5  and  C_26
    6  A    between atoms: C_10  and  N_19
    7  A    between atoms: C_10  and  C_22
    8  A    between atoms: C_10  and  C_26
    9  A    between atoms: C_13  and  C_24
   10  A    between atoms: C_18  and  C_20
   11  A    between atoms: C_22  and  O_29
   12  A    between atoms: O_29  and  C_30
                            x       y       z     vdW  Elec       q    Type
                         _______ _______ _______ _____ _____    ______ ____

>  <TORSDO>
F 12

$$$$
=
 OpenBabel11042413473D

 30 32  0  0  1  0  0  0  0  0999 V2000
  188.0970  177.5060  141.9450 C   0  0  1  0  0  3  0  0  0  0  0  0
  187.0860  178.2920  142.6320 N   0  0  0  0  0  2  0  0  0  0  0  0
  185.9060  177.4610  142.7860 C   0  0  0  0  0  2  0  0  0  0  0  0
  185.2430  177.7790  144.1100 C   0  0  0  0  0  2  0  0  0  0  0  0
  185.5230  179.1190  146.1710 C   0  0  0  0  0  1  0  0  0  0  0  0
  185.8490  179.0400  144.6940 C   0  0  0  0  0  2  0  0  0  0  0  0
  189.4230  177.6270  142.6880 C   0  0  0  0  0  2  0  0  0  0  0  0
  189.2010  177.8780  144.0720 O   0  0  0  0  0  0  0  0  0  0  0  0
  190.7210  176.5440  145.5400 C   0  0  0  0  0  0  0  0  0  0  0  0
  191.9070  177.0150  144.9550 C   0  0  0  0  0  3  0  0  0  0  0  0
  189.6890  175.1760  147.2320 N   0  0  0  0  0  0  0  0  0  0  0  0
  192.0650  175.1920  147.0670 C   0  0  0  0  0  3  0  0  0  0  0  0
  193.2310  175.6570  146.4560 C   0  0  0  0  0  3  0  0  0  0  0  0
  188.3110  176.4740  145.7780 C   0  0  0  0  0  3  0  0  0  0  0  0
  190.8150  175.6330  146.6230 C   0  0  0  0  0  0  0  0  0  0  0  0
  188.4540  175.5750  146.8360 C   0  0  0  0  0  3  0  0  0  0  0  0
  193.1520  176.5730  145.4040 C   0  0  0  0  0  3  0  0  0  0  0  0
  189.4350  176.9680  145.1140 C   0  0  0  0  0  0  0  0  0  0  0  0
  187.6510  176.0490  141.8570 C   0  0  0  0  0  2  0  0  0  0  0  0
  187.8720  175.5510  140.5720 O   0  0  0  0  0  0  0  0  0  0  0  0
  188.8410  174.5590  140.7340 C   0  0  0  0  0  2  0  0  0  0  0  0
  188.2890  173.4360  141.5910 C   0  0  0  0  0  2  0  0  0  0  0  0
  189.3390  172.9030  142.4480 N   0  0  0  0  0  0  0  0  0  0  0  0
  190.1780  171.8170  142.0110 C   0  0  0  0  0  0  0  0  0  0  0  0
  189.5190  173.4950  143.7720 C   0  0  0  0  0  2  0  0  0  0  0  0
  191.9060  170.0780  142.5680 C   0  0  0  0  0  1  0  0  0  0  0  0
  190.0440  171.3340  140.8520 O   0  0  0  0  0  0  0  0  0  0  0  0
  191.1500  171.2720  142.9140 N   0  0  0  0  0  0  0  0  0  0  0  0
  190.0810  172.4760  144.7600 C   0  0  0  0  0  2  0  0  0  0  0  0
  191.3830  171.9040  144.2080 C   0  0  0  0  0  2  0  0  0  0  0  0
  1 19  1  1  0  0  0
  1  2  1  0  0  0  0
  1  7  1  0  0  0  0
  2  3  1  0  0  0  0
  3  4  1  0  0  0  0
  4  6  1  0  0  0  0
  6  5  1  0  0  0  0
  7  8  1  0  0  0  0
  8 18  1  0  0  0  0
  9 15  1  0  0  0  0
 10 17  2  0  0  0  0
 10  9  1  0  0  0  0
 13 12  2  0  0  0  0
 14 16  2  0  0  0  0
 15 12  1  0  0  0  0
 15 11  2  0  0  0  0
 16 11  1  0  0  0  0
 17 13  1  0  0  0  0
 18  9  2  0  0  0  0
 18 14  1  0  0  0  0
 20 21  1  0  0  0  0
 20 19  1  0  0  0  0
 21 22  1  0  0  0  0
 22 23  1  0  0  0  0
 23 25  1  0  0  0  0
 24 23  1  0  0  0  0
 24 28  1  0  0  0  0
 25 29  1  0  0  0  0
 26 28  1  0  0  0  0
 27 24  2  0  0  0  0
 28 30  1  0  0  0  0
 30 29  1  0  0  0  0
M  END
>  <MODEL>
3

>  <REMARK>
 VINA RESULT:      -6.4      2.847      5.983
  Name = 
  12 active torsions:
  status: ('A' for Active; 'I' for Inactive)
    1  A    between atoms: C_3  and  N_19
    2  A    between atoms: C_3  and  C_20
    3  A    between atoms: N_4  and  C_24
    4  A    between atoms: O_5  and  C_13
    5  A    between atoms: O_5  and  C_26
    6  A    between atoms: C_10  and  N_19
    7  A    between atoms: C_10  and  C_22
    8  A    between atoms: C_10  and  C_26
    9  A    between atoms: C_13  and  C_24
   10  A    between atoms: C_18  and  C_20
   11  A    between atoms: C_22  and  O_29
   12  A    between atoms: O_29  and  C_30
                            x       y       z     vdW  Elec       q    Type
                         _______ _______ _______ _____ _____    ______ ____

>  <TORSDO>
F 12

$$$$
=
 OpenBabel11042413473D

 30 32  0  0  1  0  0  0  0  0999 V2000
  189.2270  174.8610  143.5700 C   0  0  1  0  0  3  0  0  0  0  0  0
  189.9700  175.1540  144.7840 N   0  0  0  0  0  2  0  0  0  0  0  0
  189.5540  174.2030  145.7990 C   0  0  0  0  0  2  0  0  0  0  0  0
  189.2250  174.9490  147.0750 C   0  0  0  0  0  2  0  0  0  0  0  0
  191.2830  175.9790  147.9840 C   0  0  0  0  0  1  0  0  0  0  0  0
  190.0440  176.2230  147.1470 C   0  0  0  0  0  2  0  0  0  0  0  0
  188.4340  176.0950  143.1510 C   0  0  0  0  0  2  0  0  0  0  0  0
  187.0360  175.8310  143.1980 O   0  0  0  0  0  0  0  0  0  0  0  0
  185.6200  177.2580  144.6830 C   0  0  0  0  0  0  0  0  0  0  0  0
  186.2010  176.8080  145.8800 C   0  0  0  0  0  3  0  0  0  0  0  0
  184.0380  178.7230  143.6120 N   0  0  0  0  0  0  0  0  0  0  0  0
  184.1730  178.7280  145.9900 C   0  0  0  0  0  3  0  0  0  0  0  0
  184.7500  178.2520  147.1680 C   0  0  0  0  0  3  0  0  0  0  0  0
  185.4230  177.3170  142.2690 C   0  0  0  0  0  3  0  0  0  0  0  0
  184.6040  178.2450  144.7510 C   0  0  0  0  0  0  0  0  0  0  0  0
  184.4240  178.2850  142.3880 C   0  0  0  0  0  3  0  0  0  0  0  0
  185.7670  177.2960  147.1130 C   0  0  0  0  0  3  0  0  0  0  0  0
  186.0320  176.7880  143.4090 C   0  0  0  0  0  0  0  0  0  0  0  0
  190.1870  174.4280  142.4660 C   0  0  0  0  0  2  0  0  0  0  0  0
  191.0170  173.4010  142.9210 O   0  0  0  0  0  0  0  0  0  0  0  0
  192.2190  173.5810  142.2340 C   0  0  0  0  0  2  0  0  0  0  0  0
  193.3830  173.1750  143.1180 C   0  0  0  0  0  2  0  0  0  0  0  0
  193.9640  174.3520  143.7480 N   0  0  0  0  0  0  0  0  0  0  0  0
  195.0370  175.0800  143.1190 C   0  0  0  0  0  0  0  0  0  0  0  0
  193.4350  174.7780  145.0420 C   0  0  0  0  0  2  0  0  0  0  0  0
  196.8140  176.8510  143.2800 C   0  0  0  0  0  1  0  0  0  0  0  0
  195.4640  174.7320  141.9840 O   0  0  0  0  0  0  0  0  0  0  0  0
  195.6300  176.1900  143.8080 N   0  0  0  0  0  0  0  0  0  0  0  0
  194.5030  175.4910  145.8670 C   0  0  0  0  0  2  0  0  0  0  0  0
  195.0600  176.6620  145.0650 C   0  0  0  0  0  2  0  0  0  0  0  0
  1 19  1  6  0  0  0
  1  2  1  0  0  0  0
  2  3  1  0  0  0  0
  3  4  1  0  0  0  0
  4  6  1  0  0  0  0
  6  5  1  0  0  0  0
  7  8  1  0  0  0  0
  7  1  1  0  0  0  0
  8 18  1  0  0  0  0
  9 15  1  0  0  0  0
  9 10  2  0  0  0  0
 10 17  1  0  0  0  0
 11 15  1  0  0  0  0
 12 13  1  0  0  0  0
 14 16  1  0  0  0  0
 14 18  2  0  0  0  0
 15 12  2  0  0  0  0
 16 11  2  0  0  0  0
 17 13  2  0  0  0  0
 18  9  1  0  0  0  0
 19 20  1  0  0  0  0
 21 20  1  0  0  0  0
 21 22  1  0  0  0  0
 22 23  1  0  0  0  0
 23 25  1  0  0  0  0
 24 23  1  0  0  0  0
 24 28  1  0  0  0  0
 25 29  1  0  0  0  0
 26 28  1  0  0  0  0
 27 24  2  0  0  0  0
 28 30  1  0  0  0  0
 30 29  1  0  0  0  0
M  END
>  <MODEL>
4

>  <REMARK>
 VINA RESULT:      -6.4      1.389      1.621
  Name = 
  12 active torsions:
  status: ('A' for Active; 'I' for Inactive)
    1  A    between atoms: C_3  and  N_19
    2  A    between atoms: C_3  and  C_20
    3  A    between atoms: N_4  and  C_24
    4  A    between atoms: O_5  and  C_13
    5  A    between atoms: O_5  and  C_26
    6  A    between atoms: C_10  and  N_19
    7  A    between atoms: C_10  and  C_22
    8  A    between atoms: C_10  and  C_26
    9  A    between atoms: C_13  and  C_24
   10  A    between atoms: C_18  and  C_20
   11  A    between atoms: C_22  and  O_29
   12  A    between atoms: O_29  and  C_30
                            x       y       z     vdW  Elec       q    Type
                         _______ _______ _______ _____ _____    ______ ____

>  <TORSDO>
F 12

$$$$
=
 OpenBabel11042413473D

 30 32  0  0  1  0  0  0  0  0999 V2000
  189.9550  175.1120  146.4840 C   0  0  1  0  0  3  0  0  0  0  0  0
  191.3320  175.5710  146.4200 N   0  0  0  0  0  2  0  0  0  0  0  0
  191.3380  176.8670  145.7660 C   0  0  0  0  0  2  0  0  0  0  0  0
  192.3130  176.8360  144.6080 C   0  0  0  0  0  2  0  0  0  0  0  0
  190.3520  177.9410  143.5820 C   0  0  0  0  0  1  0  0  0  0  0  0
  191.5720  177.0860  143.3100 C   0  0  0  0  0  2  0  0  0  0  0  0
  189.0430  176.2910  146.8110 C   0  0  0  0  0  2  0  0  0  0  0  0
  187.6770  175.9280  146.6400 O   0  0  0  0  0  0  0  0  0  0  0  0
  186.0750  177.1250  145.1400 C   0  0  0  0  0  0  0  0  0  0  0  0
  186.5490  176.5380  143.9560 C   0  0  0  0  0  3  0  0  0  0  0  0
  184.4870  178.6010  146.1870 N   0  0  0  0  0  0  0  0  0  0  0  0
  184.4320  178.3570  143.8180 C   0  0  0  0  0  3  0  0  0  0  0  0
  184.9330  177.7780  142.6520 C   0  0  0  0  0  3  0  0  0  0  0  0
  186.0600  177.4260  147.5440 C   0  0  0  0  0  3  0  0  0  0  0  0
  184.9890  178.0330  145.0590 C   0  0  0  0  0  0  0  0  0  0  0  0
  184.9940  178.3170  147.4130 C   0  0  0  0  0  3  0  0  0  0  0  0
  185.9870  176.8640  142.7210 C   0  0  0  0  0  3  0  0  0  0  0  0
  186.6180  176.8210  146.4160 C   0  0  0  0  0  0  0  0  0  0  0  0
  189.5600  174.4670  145.1590 C   0  0  0  0  0  2  0  0  0  0  0  0
  189.6770  173.0770  145.2430 O   0  0  0  0  0  0  0  0  0  0  0  0
  190.2990  172.6980  144.0520 C   0  0  0  0  0  2  0  0  0  0  0  0
  189.3290  171.9070  143.1950 C   0  0  0  0  0  2  0  0  0  0  0  0
  189.0970  172.6010  141.9360 N   0  0  0  0  0  0  0  0  0  0  0  0
  189.8380  172.2590  140.7490 C   0  0  0  0  0  0  0  0  0  0  0  0
  188.0920  173.6620  141.9050 C   0  0  0  0  0  2  0  0  0  0  0  0
  190.4700  172.8080  138.3780 C   0  0  0  0  0  1  0  0  0  0  0  0
  190.6770  171.3170  140.7710 O   0  0  0  0  0  0  0  0  0  0  0  0
  189.6320  173.0180  139.5490 N   0  0  0  0  0  0  0  0  0  0  0  0
  188.4300  174.7110  140.8480 C   0  0  0  0  0  2  0  0  0  0  0  0
  188.5820  174.0290  139.4930 C   0  0  0  0  0  2  0  0  0  0  0  0
  1 19  1  6  0  0  0
  1  7  1  0  0  0  0
  2  1  1  0  0  0  0
  3  2  1  0  0  0  0
  4  3  1  0  0  0  0
  6  5  1  0  0  0  0
  6  4  1  0  0  0  0
  8  7  1  0  0  0  0
  9 18  1  0  0  0  0
 10  9  1  0  0  0  0
 11 16  2  0  0  0  0
 12 15  1  0  0  0  0
 13 17  1  0  0  0  0
 13 12  2  0  0  0  0
 15  9  2  0  0  0  0
 15 11  1  0  0  0  0
 16 14  1  0  0  0  0
 17 10  2  0  0  0  0
 18  8  1  0  0  0  0
 18 14  2  0  0  0  0
 19 20  1  0  0  0  0
 21 20  1  0  0  0  0
 22 21  1  0  0  0  0
 23 22  1  0  0  0  0
 24 27  2  0  0  0  0
 24 23  1  0  0  0  0
 25 23  1  0  0  0  0
 26 28  1  0  0  0  0
 28 24  1  0  0  0  0
 29 25  1  0  0  0  0
 30 28  1  0  0  0  0
 30 29  1  0  0  0  0
M  END
>  <MODEL>
5

>  <REMARK>
 VINA RESULT:      -6.3      2.954      5.262
  Name = 
  12 active torsions:
  status: ('A' for Active; 'I' for Inactive)
    1  A    between atoms: C_3  and  N_19
    2  A    between atoms: C_3  and  C_20
    3  A    between atoms: N_4  and  C_24
    4  A    between atoms: O_5  and  C_13
    5  A    between atoms: O_5  and  C_26
    6  A    between atoms: C_10  and  N_19
    7  A    between atoms: C_10  and  C_22
    8  A    between atoms: C_10  and  C_26
    9  A    between atoms: C_13  and  C_24
   10  A    between atoms: C_18  and  C_20
   11  A    between atoms: C_22  and  O_29
   12  A    between atoms: O_29  and  C_30
                            x       y       z     vdW  Elec       q    Type
                         _______ _______ _______ _____ _____    ______ ____

>  <TORSDO>
F 12

$$$$
=
 OpenBabel11042413473D

 30 32  0  0  1  0  0  0  0  0999 V2000
  190.5880  174.9470  144.8370 C   0  0  1  0  0  3  0  0  0  0  0  0
  191.5990  174.9180  145.8810 N   0  0  0  0  0  2  0  0  0  0  0  0
  191.3230  176.0100  146.7970 C   0  0  0  0  0  2  0  0  0  0  0  0
  192.6290  176.5240  147.3650 C   0  0  0  0  0  2  0  0  0  0  0  0
  194.5550  177.2100  145.9720 C   0  0  0  0  0  1  0  0  0  0  0  0
  193.7840  176.0260  146.5190 C   0  0  0  0  0  2  0  0  0  0  0  0
  189.6170  176.0930  145.1050 C   0  0  0  0  0  2  0  0  0  0  0  0
  188.3680  175.8490  144.4650 O   0  0  0  0  0  0  0  0  0  0  0  0
  186.3860  177.3640  144.6210 C   0  0  0  0  0  0  0  0  0  0  0  0
  186.0160  176.9540  145.9120 C   0  0  0  0  0  3  0  0  0  0  0  0
  185.9620  178.8110  142.7450 N   0  0  0  0  0  0  0  0  0  0  0  0
  184.4990  178.9140  144.6220 C   0  0  0  0  0  3  0  0  0  0  0  0
  184.1370  178.4770  145.8970 C   0  0  0  0  0  3  0  0  0  0  0  0
  187.8280  177.3250  142.6750 C   0  0  0  0  0  3  0  0  0  0  0  0
  185.6180  178.3710  143.9840 C   0  0  0  0  0  0  0  0  0  0  0  0
  187.0390  178.3140  142.0870 C   0  0  0  0  0  3  0  0  0  0  0  0
  184.8990  177.5020  146.5450 C   0  0  0  0  0  3  0  0  0  0  0  0
  187.5140  176.8330  143.9440 C   0  0  0  0  0  0  0  0  0  0  0  0
  191.2540  175.1020  143.4740 C   0  0  0  0  0  2  0  0  0  0  0  0
  191.4100  176.4540  143.1610 O   0  0  0  0  0  0  0  0  0  0  0  0
  192.7430  176.5790  142.7640 C   0  0  0  0  0  2  0  0  0  0  0  0
  193.3770  175.2050  142.6540 C   0  0  0  0  0  2  0  0  0  0  0  0
  194.8130  175.3010  142.8740 N   0  0  0  0  0  0  0  0  0  0  0  0
  195.4930  174.3920  143.7610 C   0  0  0  0  0  0  0  0  0  0  0  0
  195.5530  176.3490  142.1750 C   0  0  0  0  0  2  0  0  0  0  0  0
  197.5830  173.7720  145.0130 C   0  0  0  0  0  1  0  0  0  0  0  0
  194.8570  173.4630  144.3330 O   0  0  0  0  0  0  0  0  0  0  0  0
  196.8950  174.5680  144.0080 N   0  0  0  0  0  0  0  0  0  0  0  0
  196.7800  176.7840  142.9720 C   0  0  0  0  0  2  0  0  0  0  0  0
  197.6510  175.5660  143.2590 C   0  0  0  0  0  2  0  0  0  0  0  0
  1 19  1  6  0  0  0
  1  7  1  0  0  0  0
  1  2  1  0  0  0  0
  2  3  1  0  0  0  0
  3  4  1  0  0  0  0
  5  6  1  0  0  0  0
  6  4  1  0  0  0  0
  8  7  1  0  0  0  0
  9 10  2  0  0  0  0
 10 17  1  0  0  0  0
 11 15  1  0  0  0  0
 12 13  1  0  0  0  0
 13 17  2  0  0  0  0
 14 18  2  0  0  0  0
 15  9  1  0  0  0  0
 15 12  2  0  0  0  0
 16 14  1  0  0  0  0
 16 11  2  0  0  0  0
 18  8  1  0  0  0  0
 18  9  1  0  0  0  0
 20 19  1  0  0  0  0
 21 20  1  0  0  0  0
 22 21  1  0  0  0  0
 22 23  1  0  0  0  0
 23 24  1  0  0  0  0
 24 28  1  0  0  0  0
 24 27  2  0  0  0  0
 25 23  1  0  0  0  0
 25 29  1  0  0  0  0
 28 26  1  0  0  0  0
 29 30  1  0  0  0  0
 30 28  1  0  0  0  0
M  END
>  <MODEL>
6

>  <REMARK>
 VINA RESULT:      -6.1      1.633      2.391
  Name = 
  12 active torsions:
  status: ('A' for Active; 'I' for Inactive)
    1  A    between atoms: C_3  and  N_19
    2  A    between atoms: C_3  and  C_20
    3  A    between atoms: N_4  and  C_24
    4  A    between atoms: O_5  and  C_13
    5  A    between atoms: O_5  and  C_26
    6  A    between atoms: C_10  and  N_19
    7  A    between atoms: C_10  and  C_22
    8  A    between atoms: C_10  and  C_26
    9  A    between atoms: C_13  and  C_24
   10  A    between atoms: C_18  and  C_20
   11  A    between atoms: C_22  and  O_29
   12  A    between atoms: O_29  and  C_30
                            x       y       z     vdW  Elec       q    Type
                         _______ _______ _______ _____ _____    ______ ____

>  <TORSDO>
F 12

$$$$
=
 OpenBabel11042413473D

 30 32  0  0  1  0  0  0  0  0999 V2000
  189.1580  176.5470  142.3760 C   0  0  1  0  0  3  0  0  0  0  0  0
  188.1660  177.3910  141.7310 N   0  0  0  0  0  2  0  0  0  0  0  0
  187.4260  176.5680  140.7920 C   0  0  0  0  0  2  0  0  0  0  0  0
  186.4030  177.4260  140.0770 C   0  0  0  0  0  2  0  0  0  0  0  0
  184.1300  178.2820  140.5450 C   0  0  0  0  0  1  0  0  0  0  0  0
  185.5340  178.1390  141.0940 C   0  0  0  0  0  2  0  0  0  0  0  0
  189.7410  177.2810  143.5790 C   0  0  0  0  0  2  0  0  0  0  0  0
  188.7530  178.1050  144.1900 O   0  0  0  0  0  0  0  0  0  0  0  0
  186.5450  178.1440  145.3610 C   0  0  0  0  0  0  0  0  0  0  0  0
  185.9330  179.0160  144.4450 C   0  0  0  0  0  3  0  0  0  0  0  0
  186.3270  176.7870  147.3370 N   0  0  0  0  0  0  0  0  0  0  0  0
  184.4500  178.0600  146.6120 C   0  0  0  0  0  3  0  0  0  0  0  0
  183.8670  178.9430  145.7010 C   0  0  0  0  0  3  0  0  0  0  0  0
  188.4050  176.8160  146.1630 C   0  0  0  0  0  3  0  0  0  0  0  0
  185.7770  177.6530  146.4460 C   0  0  0  0  0  0  0  0  0  0  0  0
  187.6110  176.3640  147.2170 C   0  0  0  0  0  3  0  0  0  0  0  0
  184.6070  179.4170  144.6150 C   0  0  0  0  0  3  0  0  0  0  0  0
  187.8900  177.7120  145.2240 C   0  0  0  0  0  0  0  0  0  0  0  0
  188.5210  175.2260  142.7970 C   0  0  0  0  0  2  0  0  0  0  0  0
  189.1780  174.1550  142.1860 O   0  0  0  0  0  0  0  0  0  0  0  0
  190.5240  174.5230  142.1690 C   0  0  0  0  0  2  0  0  0  0  0  0
  191.3090  173.6460  143.1260 C   0  0  0  0  0  2  0  0  0  0  0  0
  191.9850  174.4720  144.1170 N   0  0  0  0  0  0  0  0  0  0  0  0
  193.2310  175.1280  143.8150 C   0  0  0  0  0  0  0  0  0  0  0  0
  191.3680  174.6160  145.4340 C   0  0  0  0  0  2  0  0  0  0  0  0
  195.2320  176.4160  144.6260 C   0  0  0  0  0  1  0  0  0  0  0  0
  193.7400  175.0320  142.6640 O   0  0  0  0  0  0  0  0  0  0  0  0
  193.9000  175.8710  144.8430 N   0  0  0  0  0  0  0  0  0  0  0  0
  192.4220  174.8580  146.5120 C   0  0  0  0  0  2  0  0  0  0  0  0
  193.2570  176.0780  146.1360 C   0  0  0  0  0  2  0  0  0  0  0  0
  1 19  1  1  0  0  0
  1  7  1  0  0  0  0
  2  1  1  0  0  0  0
  3  2  1  0  0  0  0
  4  3  1  0  0  0  0
  4  6  1  0  0  0  0
  5  6  1  0  0  0  0
  7  8  1  0  0  0  0
  8 18  1  0  0  0  0
  9 15  1  0  0  0  0
 10 17  2  0  0  0  0
 10  9  1  0  0  0  0
 13 12  2  0  0  0  0
 14 16  2  0  0  0  0
 15 12  1  0  0  0  0
 15 11  2  0  0  0  0
 16 11  1  0  0  0  0
 17 13  1  0  0  0  0
 18  9  2  0  0  0  0
 18 14  1  0  0  0  0
 20 19  1  0  0  0  0
 21 20  1  0  0  0  0
 21 22  1  0  0  0  0
 22 23  1  0  0  0  0
 23 25  1  0  0  0  0
 24 23  1  0  0  0  0
 24 28  1  0  0  0  0
 25 29  1  0  0  0  0
 26 28  1  0  0  0  0
 27 24  2  0  0  0  0
 28 30  1  0  0  0  0
 30 29  1  0  0  0  0
M  END
>  <MODEL>
7

>  <REMARK>
 VINA RESULT:      -6.1      2.168      4.292
  Name = 
  12 active torsions:
  status: ('A' for Active; 'I' for Inactive)
    1  A    between atoms: C_3  and  N_19
    2  A    between atoms: C_3  and  C_20
    3  A    between atoms: N_4  and  C_24
    4  A    between atoms: O_5  and  C_13
    5  A    between atoms: O_5  and  C_26
    6  A    between atoms: C_10  and  N_19
    7  A    between atoms: C_10  and  C_22
    8  A    between atoms: C_10  and  C_26
    9  A    between atoms: C_13  and  C_24
   10  A    between atoms: C_18  and  C_20
   11  A    between atoms: C_22  and  O_29
   12  A    between atoms: O_29  and  C_30
                            x       y       z     vdW  Elec       q    Type
                         _______ _______ _______ _____ _____    ______ ____

>  <TORSDO>
F 12

$$$$
=
 OpenBabel11042413473D

 30 32  0  0  1  0  0  0  0  0999 V2000
  188.7390  175.5020  142.3890 C   0  0  1  0  0  3  0  0  0  0  0  0
  189.6970  176.5640  142.1330 N   0  0  0  0  0  2  0  0  0  0  0  0
  190.0230  177.1840  143.4040 C   0  0  0  0  0  2  0  0  0  0  0  0
  191.5280  177.3050  143.5260 C   0  0  0  0  0  2  0  0  0  0  0  0
  193.7000  176.4170  142.7440 C   0  0  0  0  0  1  0  0  0  0  0  0
  192.1960  176.2530  142.6650 C   0  0  0  0  0  2  0  0  0  0  0  0
  187.3420  175.9750  142.0000 C   0  0  0  0  0  2  0  0  0  0  0  0
  186.4510  175.8670  143.1060 O   0  0  0  0  0  0  0  0  0  0  0  0
  185.7700  177.3600  144.9910 C   0  0  0  0  0  0  0  0  0  0  0  0
  186.6450  176.7870  145.9280 C   0  0  0  0  0  3  0  0  0  0  0  0
  184.1160  179.0430  144.5140 N   0  0  0  0  0  0  0  0  0  0  0  0
  185.0060  178.9080  146.7190 C   0  0  0  0  0  3  0  0  0  0  0  0
  185.8690  178.3100  147.6390 C   0  0  0  0  0  3  0  0  0  0  0  0
  184.8160  177.5670  142.7740 C   0  0  0  0  0  3  0  0  0  0  0  0
  184.9560  178.4460  145.4000 C   0  0  0  0  0  0  0  0  0  0  0  0
  184.0320  178.6300  143.2240 C   0  0  0  0  0  3  0  0  0  0  0  0
  186.6920  177.2540  147.2420 C   0  0  0  0  0  3  0  0  0  0  0  0
  185.6910  176.9150  143.6460 C   0  0  0  0  0  0  0  0  0  0  0  0
  189.1290  174.2510  141.6080 C   0  0  0  0  0  2  0  0  0  0  0  0
  189.9960  173.4580  142.3630 O   0  0  0  0  0  0  0  0  0  0  0  0
  189.2290  173.0180  143.4430 C   0  0  0  0  0  2  0  0  0  0  0  0
  190.1380  172.6130  144.5880 C   0  0  0  0  0  2  0  0  0  0  0  0
  190.5350  173.7900  145.3480 N   0  0  0  0  0  0  0  0  0  0  0  0
  191.9190  174.1760  145.4560 C   0  0  0  0  0  0  0  0  0  0  0  0
  189.4910  174.5730  146.0070 C   0  0  0  0  0  2  0  0  0  0  0  0
  193.6670  175.6250  146.5350 C   0  0  0  0  0  1  0  0  0  0  0  0
  192.8120  173.5200  144.8530 O   0  0  0  0  0  0  0  0  0  0  0  0
  192.2730  175.2990  146.2750 N   0  0  0  0  0  0  0  0  0  0  0  0
  190.0290  175.2680  147.2560 C   0  0  0  0  0  2  0  0  0  0  0  0
  191.2320  176.1250  146.8770 C   0  0  0  0  0  2  0  0  0  0  0  0
  1 19  1  6  0  0  0
  2  1  1  0  0  0  0
  2  3  1  0  0  0  0
  3  4  1  0  0  0  0
  6  5  1  0  0  0  0
  6  4  1  0  0  0  0
  7  1  1  0  0  0  0
  7  8  1  0  0  0  0
  8 18  1  0  0  0  0
  9 15  1  0  0  0  0
  9 10  2  0  0  0  0
 10 17  1  0  0  0  0
 11 15  1  0  0  0  0
 12 13  1  0  0  0  0
 14 16  1  0  0  0  0
 14 18  2  0  0  0  0
 15 12  2  0  0  0  0
 16 11  2  0  0  0  0
 17 13  2  0  0  0  0
 18  9  1  0  0  0  0
 19 20  1  0  0  0  0
 20 21  1  0  0  0  0
 21 22  1  0  0  0  0
 22 23  1  0  0  0  0
 23 24  1  0  0  0  0
 23 25  1  0  0  0  0
 24 28  1  0  0  0  0
 25 29  1  0  0  0  0
 27 24  2  0  0  0  0
 28 26  1  0  0  0  0
 28 30  1  0  0  0  0
 30 29  1  0  0  0  0
M  END
>  <MODEL>
8

>  <REMARK>
 VINA RESULT:      -6.1      2.075      3.407
  Name = 
  12 active torsions:
  status: ('A' for Active; 'I' for Inactive)
    1  A    between atoms: C_3  and  N_19
    2  A    between atoms: C_3  and  C_20
    3  A    between atoms: N_4  and  C_24
    4  A    between atoms: O_5  and  C_13
    5  A    between atoms: O_5  and  C_26
    6  A    between atoms: C_10  and  N_19
    7  A    between atoms: C_10  and  C_22
    8  A    between atoms: C_10  and  C_26
    9  A    between atoms: C_13  and  C_24
   10  A    between atoms: C_18  and  C_20
   11  A    between atoms: C_22  and  O_29
   12  A    between atoms: O_29  and  C_30
                            x       y       z     vdW  Elec       q    Type
                         _______ _______ _______ _____ _____    ______ ____

>  <TORSDO>
F 12

$$$$
=
 OpenBabel11042413473D

 30 32  0  0  1  0  0  0  0  0999 V2000
  189.3280  174.9760  143.5990 C   0  0  1  0  0  3  0  0  0  0  0  0
  188.9050  174.9420  144.9890 N   0  0  0  0  0  2  0  0  0  0  0  0
  190.0400  174.5180  145.7880 C   0  0  0  0  0  2  0  0  0  0  0  0
  189.8860  175.0560  147.1950 C   0  0  0  0  0  2  0  0  0  0  0  0
  191.9550  176.4130  147.1790 C   0  0  0  0  0  1  0  0  0  0  0  0
  190.4440  176.4640  147.2670 C   0  0  0  0  0  2  0  0  0  0  0  0
  188.2960  175.7400  142.7750 C   0  0  0  0  0  2  0  0  0  0  0  0
  187.9640  176.9720  143.4070 O   0  0  0  0  0  0  0  0  0  0  0  0
  186.0710  177.7800  144.8250 C   0  0  0  0  0  0  0  0  0  0  0  0
  186.7440  177.6050  146.0450 C   0  0  0  0  0  3  0  0  0  0  0  0
  184.0830  178.5170  143.6840 N   0  0  0  0  0  0  0  0  0  0  0  0
  184.1370  178.6130  146.0630 C   0  0  0  0  0  3  0  0  0  0  0  0
  184.8180  178.4110  147.2650 C   0  0  0  0  0  3  0  0  0  0  0  0
  185.9340  177.7190  142.4070 C   0  0  0  0  0  3  0  0  0  0  0  0
  184.7550  178.3090  144.8470 C   0  0  0  0  0  0  0  0  0  0  0  0
  184.6410  178.2360  142.4800 C   0  0  0  0  0  3  0  0  0  0  0  0
  186.1220  177.9130  147.2560 C   0  0  0  0  0  3  0  0  0  0  0  0
  186.6660  177.4800  143.5720 C   0  0  0  0  0  0  0  0  0  0  0  0
  190.7030  175.6270  143.4910 C   0  0  0  0  0  2  0  0  0  0  0  0
  191.2480  175.4010  142.2250 O   0  0  0  0  0  0  0  0  0  0  0  0
  192.5540  174.9700  142.4690 C   0  0  0  0  0  2  0  0  0  0  0  0
  193.1490  175.7600  143.6200 C   0  0  0  0  0  2  0  0  0  0  0  0
  194.5720  175.4750  143.7350 N   0  0  0  0  0  0  0  0  0  0  0  0
  195.0860  174.6630  144.8080 C   0  0  0  0  0  0  0  0  0  0  0  0
  195.4740  176.0400  142.7330 C   0  0  0  0  0  2  0  0  0  0  0  0
  197.0700  173.7890  146.0800 C   0  0  0  0  0  1  0  0  0  0  0  0
  194.2990  174.1450  145.6480 O   0  0  0  0  0  0  0  0  0  0  0  0
  196.5020  174.4690  144.9260 N   0  0  0  0  0  0  0  0  0  0  0  0
  196.8650  176.2770  143.3150 C   0  0  0  0  0  2  0  0  0  0  0  0
  197.4000  174.9700  143.8920 C   0  0  0  0  0  2  0  0  0  0  0  0
  1  7  1  6  0  0  0
  1  2  1  0  0  0  0
  2  3  1  0  0  0  0
  3  4  1  0  0  0  0
  4  6  1  0  0  0  0
  5  6  1  0  0  0  0
  7  8  1  0  0  0  0
  8 18  1  0  0  0  0
  9 15  1  0  0  0  0
  9 10  2  0  0  0  0
 10 17  1  0  0  0  0
 11 15  1  0  0  0  0
 12 13  1  0  0  0  0
 14 16  1  0  0  0  0
 14 18  2  0  0  0  0
 15 12  2  0  0  0  0
 16 11  2  0  0  0  0
 17 13  2  0  0  0  0
 18  9  1  0  0  0  0
 19  1  1  0  0  0  0
 20 21  1  0  0  0  0
 20 19  1  0  0  0  0
 21 22  1  0  0  0  0
 22 23  1  0  0  0  0
 23 24  1  0  0  0  0
 24 28  1  0  0  0  0
 24 27  2  0  0  0  0
 25 29  1  0  0  0  0
 25 23  1  0  0  0  0
 28 26  1  0  0  0  0
 29 30  1  0  0  0  0
 30 28  1  0  0  0  0
M  END
>  <MODEL>
9

>  <REMARK>
 VINA RESULT:      -6.1      1.137      1.598
  Name = 
  12 active torsions:
  status: ('A' for Active; 'I' for Inactive)
    1  A    between atoms: C_3  and  N_19
    2  A    between atoms: C_3  and  C_20
    3  A    between atoms: N_4  and  C_24
    4  A    between atoms: O_5  and  C_13
    5  A    between atoms: O_5  and  C_26
    6  A    between atoms: C_10  and  N_19
    7  A    between atoms: C_10  and  C_22
    8  A    between atoms: C_10  and  C_26
    9  A    between atoms: C_13  and  C_24
   10  A    between atoms: C_18  and  C_20
   11  A    between atoms: C_22  and  O_29
   12  A    between atoms: O_29  and  C_30
                            x       y       z     vdW  Elec       q    Type
                         _______ _______ _______ _____ _____    ______ ____

>  <TORSDO>
F 12

$$$$
