=
 OpenBabel11042416203D

 66 72  0  0  1  0  0  0  0  0999 V2000
  191.6890  175.2420  146.1360 N   0  0  0  0  0  0  0  0  0  0  0  0
  189.6770  174.7350  144.1800 N   0  0  0  0  0  0  0  0  0  0  0  0
  190.1220  176.0700  144.4130 C   0  0  0  0  0  0  0  0  0  0  0  0
  190.2510  173.7070  144.7300 C   0  0  0  0  0  0  0  0  0  0  0  0
  191.4080  176.2970  145.1460 C   0  0  2  0  0  3  0  0  0  0  0  0
  192.6560  173.1760  145.1880 C   0  0  0  0  0  1  0  0  0  0  0  0
  191.4010  173.8590  145.7000 C   0  0  1  0  0  3  0  0  0  0  0  0
  189.4120  177.1150  143.9840 C   0  0  0  0  0  3  0  0  0  0  0  0
  192.5930  176.5980  144.2040 C   0  0  2  0  0  3  0  0  0  0  0  0
  192.5040  175.8900  142.8540 C   0  0  0  0  0  1  0  0  0  0  0  0
  193.9580  176.4290  144.8850 C   0  0  2  0  0  3  0  0  0  0  0  0
  194.2130  177.5610  145.8680 C   0  0  0  0  0  1  0  0  0  0  0  0
  195.0310  176.3630  143.8950 N   0  0  0  0  0  2  0  0  0  0  0  0
  195.8990  174.7460  145.4720 C   0  0  0  0  0  1  0  0  0  0  0  0
  195.7190  175.0820  144.0040 C   0  0  2  0  0  3  0  0  0  0  0  0
  197.3450  175.1550  143.1740 S   0  0  0  0  0  0  0  0  0  0  0  0
  197.4700  174.8970  140.2900 C   0  0  1  0  0  3  0  0  0  0  0  0
  193.1750  169.2650  139.5070 C   0  0  0  0  0  0  0  0  0  0  0  0
  196.2650  172.0980  142.4510 C   0  0  0  0  0  2  0  0  0  0  0  0
  193.0770  169.7650  137.1440 O   0  0  0  0  0  1  0  0  0  0  0  0
  195.9160  173.1940  141.4640 C   0  0  1  0  0  3  0  0  0  0  0  0
  194.7590  171.1300  142.7350 S   0  0  0  0  0  0  0  0  0  0  0  0
  197.1780  171.9790  139.6300 C   0  0  0  0  0  1  0  0  0  0  0  0
  196.7830  174.4660  141.5710 C   0  0  1  0  0  0  0  0  0  0  0  0
  196.4600  176.8540  140.9350 O   0  0  0  0  0  1  0  0  0  0  0  0
  192.4040  168.1660  139.3270 F   0  0  0  0  0  0  0  0  0  0  0  0
  193.6110  169.5970  140.7900 C   0  0  0  0  0  3  0  0  0  0  0  0
  194.7810  171.5480  139.9050 C   0  0  0  0  0  0  0  0  0  0  0  0
  194.3300  171.1920  138.6210 C   0  0  0  0  0  3  0  0  0  0  0  0
  196.3850  175.0890  139.2360 C   0  0  1  0  0  3  0  0  0  0  0  0
  194.4030  170.7300  141.0080 C   0  0  0  0  0  0  0  0  0  0  0  0
  195.8450  172.6280  140.0170 C   0  0  1  0  0  0  0  0  0  0  0  0
  195.5650  173.7910  139.0130 C   0  0  0  0  0  2  0  0  0  0  0  0
  196.1500  175.5180  140.6680 C   0  0  1  0  0  0  0  0  0  0  0  0
  193.5200  170.0750  138.4230 C   0  0  0  0  0  0  0  0  0  0  0  0
  191.3910  174.7460  148.4000 O   0  0  0  0  0  1  0  0  0  0  0  0
  190.9030  175.5120  147.3360 C   0  0  0  0  0  2  0  0  0  0  0  0
  189.8170  172.4150  144.4270 O   0  0  0  0  0  0  0  0  0  0  0  0
  189.4820  172.0160  143.1020 C   0  0  0  0  0  2  0  0  0  0  0  0
  190.3790  172.7270  142.0990 C   0  0  0  0  0  2  0  0  0  0  0  0
  191.3370  172.7090  139.9340 C   0  0  0  0  0  2  0  0  0  0  0  0
  189.8860  172.6430  139.8030 C   0  0  2  0  0  3  0  0  0  0  0  0
  190.5500  171.9190  140.8970 N   0  0  0  0  0  0  0  0  0  0  0  0
  189.5040  171.6500  138.7170 C   0  0  2  0  0  3  0  0  0  0  0  0
  189.9730  170.3740  139.0470 O   0  0  0  0  0  1  0  0  0  0  0  0
  189.4660  173.3100  136.9950 O   0  0  0  0  0  1  0  0  0  0  0  0
  189.7740  171.0600  136.2700 C   0  0  0  0  0  1  0  0  0  0  0  0
  190.0420  172.0930  137.3550 C   0  0  2  0  0  3  0  0  0  0  0  0
  188.1100  176.9690  143.2610 C   0  0  0  0  0  2  0  0  0  0  0  0
  189.0220  178.3150  141.5190 O   0  0  0  0  0  0  0  0  0  0  0  0
  187.9950  177.9690  142.1620 C   0  0  0  0  0  0  0  0  0  0  0  0
  186.7440  178.5060  141.8590 O   0  0  0  0  0  0  0  0  0  0  0  0
  185.5540  177.7270  141.9070 C   0  0  1  0  0  3  0  0  0  0  0  0
  184.7150  178.0940  143.1330 C   0  0  1  0  0  3  0  0  0  0  0  0
  184.8170  177.0980  144.1070 O   0  0  0  0  0  1  0  0  0  0  0  0
  185.0970  179.4540  143.7260 C   0  0  0  0  0  2  0  0  0  0  0  0
  185.3180  179.4120  145.2400 C   0  0  2  0  0  3  0  0  0  0  0  0
  186.4250  178.6200  145.5560 O   0  0  0  0  0  1  0  0  0  0  0  0
  184.4260  178.2920  147.2260 N   0  0  0  0  0  1  0  0  0  0  0  0
  184.0760  178.8880  145.9470 C   0  0  0  0  0  2  0  0  0  0  0  0
  184.7590  177.8810  140.6090 C   0  0  0  0  0  2  0  0  0  0  0  0
  183.7030  178.8790  140.7480 N   0  0  0  0  0  2  0  0  0  0  0  0
  182.4790  178.2480  140.4740 N   0  0  0  0  0  2  0  0  0  0  0  0
  180.9710  179.0700  142.5280 S   0  0  0  0  0  0  0  0  0  0  0  0
  180.1940  179.0340  139.9990 N   0  0  0  0  0  1  0  0  0  0  0  0
  181.2280  178.7620  140.9380 C   0  0  0  0  0  0  0  0  0  0  0  0
  1 37  1  0  0  0  0
  2  3  1  0  0  0  0
  2  4  2  0  0  0  0
  3  5  1  0  0  0  0
  4  7  1  0  0  0  0
  5  9  1  6  0  0  0
  5  1  1  0  0  0  0
  7  6  1  6  0  0  0
  7  1  1  0  0  0  0
  8  3  2  0  0  0  0
  9 10  1  6  0  0  0
  9 11  1  0  0  0  0
 11 12  1  1  0  0  0
 13 15  1  0  0  0  0
 13 11  1  0  0  0  0
 15 14  1  1  0  0  0
 16 15  1  0  0  0  0
 17 34  1  0  0  0  0
 17 24  1  0  0  0  0
 18 27  1  0  0  0  0
 19 22  1  0  0  0  0
 20 35  1  0  0  0  0
 21 24  1  0  0  0  0
 21 19  1  0  0  0  0
 23 32  1  0  0  0  0
 24 16  1  0  0  0  0
 26 18  1  0  0  0  0
 27 31  2  0  0  0  0
 28 32  1  0  0  0  0
 28 31  1  0  0  0  0
 29 28  2  0  0  0  0
 30 17  1  0  0  0  0
 30 34  1  0  0  0  0
 31 22  1  0  0  0  0
 32 21  1  0  0  0  0
 33 30  1  0  0  0  0
 33 32  1  0  0  0  0
 34 25  1  0  0  0  0
 34 24  1  0  0  0  0
 35 29  1  0  0  0  0
 35 18  2  0  0  0  0
 37 36  1  0  0  0  0
 38  4  1  0  0  0  0
 39 38  1  0  0  0  0
 40 39  1  0  0  0  0
 41 43  1  0  0  0  0
 42 41  1  0  0  0  0
 42 43  1  0  0  0  0
 43 40  1  0  0  0  0
 44 45  1  0  0  0  0
 44 42  1  0  0  0  0
 46 48  1  0  0  0  0
 47 48  1  0  0  0  0
 48 44  1  0  0  0  0
 49  8  1  0  0  0  0
 50 51  2  0  0  0  0
 51 49  1  0  0  0  0
 52 53  1  0  0  0  0
 52 51  1  0  0  0  0
 53 54  1  0  0  0  0
 54 56  1  0  0  0  0
 54 55  1  0  0  0  0
 56 57  1  0  0  0  0
 57 58  1  0  0  0  0
 57 60  1  0  0  0  0
 60 59  1  0  0  0  0
 61 62  1  0  0  0  0
 61 53  1  0  0  0  0
 63 62  1  0  0  0  0
 63 66  1  0  0  0  0
 65 66  1  0  0  0  0
 66 64  2  0  0  0  0
M  END
>  <MODEL>
1

>  <REMARK>
 VINA RESULT:      -5.9      0.000      0.000
  Name = 
  25 active torsions:
  status: ('A' for Active; 'I' for Inactive)
    1  A    between atoms: C_1  and  C_5
    2  A    between atoms: C_1  and  C_20
    3  A    between atoms: C_2  and  C_35
    4  A    between atoms: C_2  and  C_64
    5  A    between atoms: N_3  and  C_60
    6  A    between atoms: C_5  and  C_53
    7  A    between atoms: C_5  and  O_58
    8  A    between atoms: S_9  and  C_23
    9  A    between atoms: S_9  and  C_28
   10  A    between atoms: C_10  and  O_32
   11  A    between atoms: C_10  and  C_54
   12  A    between atoms: C_13  and  C_20
   13  A    between atoms: C_13  and  C_48
   14  A    between atoms: C_19  and  N_40
   15  A    between atoms: C_19  and  C_43
   16  A    between atoms: C_23  and  N_40
   17  A    between atoms: C_27  and  C_49
   18  A    between atoms: C_27  and  C_51
   19  A    between atoms: C_31  and  O_32
   20  A    between atoms: C_35  and  O_58
   21  A    between atoms: C_37  and  C_43
   22  A    between atoms: N_41  and  C_53
   23  A    between atoms: N_41  and  N_59
   24  A    between atoms: C_47  and  N_59
   25  A    between atoms: C_54  and  N_62
                            x       y       z     vdW  Elec       q    Type
                         _______ _______ _______ _____ _____    ______ ____

>  <TORSDO>
F 25

$$$$
=
 OpenBabel11042416203D

 66 72  0  0  1  0  0  0  0  0999 V2000
  191.8520  174.7240  146.0420 N   0  0  0  0  0  0  0  0  0  0  0  0
  191.3170  175.5930  143.3790 N   0  0  0  0  0  0  0  0  0  0  0  0
  192.5140  174.8710  143.6640 C   0  0  0  0  0  0  0  0  0  0  0  0
  190.3790  175.7580  144.2630 C   0  0  0  0  0  0  0  0  0  0  0  0
  192.6200  174.1050  144.9460 C   0  0  2  0  0  3  0  0  0  0  0  0
  189.4330  174.2290  146.0080 C   0  0  0  0  0  1  0  0  0  0  0  0
  190.5160  175.2400  145.6780 C   0  0  1  0  0  3  0  0  0  0  0  0
  193.5340  174.8670  142.8050 C   0  0  0  0  0  3  0  0  0  0  0  0
  192.3460  172.5970  144.7700 C   0  0  2  0  0  3  0  0  0  0  0  0
  193.5440  171.7090  145.1000 C   0  0  0  0  0  1  0  0  0  0  0  0
  191.7000  172.2580  143.4190 C   0  0  2  0  0  3  0  0  0  0  0  0
  190.2330  171.8950  143.6010 C   0  0  0  0  0  1  0  0  0  0  0  0
  192.4140  171.1700  142.7560 N   0  0  0  0  0  2  0  0  0  0  0  0
  191.7850  172.7310  141.0180 C   0  0  0  0  0  1  0  0  0  0  0  0
  192.5980  171.4940  141.3460 C   0  0  2  0  0  3  0  0  0  0  0  0
  192.0650  170.0980  140.2940 S   0  0  0  0  0  0  0  0  0  0  0  0
  192.4370  170.6560  137.4750 C   0  0  1  0  0  3  0  0  0  0  0  0
  187.4440  175.6790  136.6850 C   0  0  0  0  0  0  0  0  0  0  0  0
  189.3280  171.6810  139.2740 C   0  0  0  0  0  2  0  0  0  0  0  0
  188.4560  176.2430  134.5620 O   0  0  0  0  0  1  0  0  0  0  0  0
  190.6370  172.1050  138.6380 C   0  0  1  0  0  3  0  0  0  0  0  0
  188.4340  173.1930  139.7250 S   0  0  0  0  0  0  0  0  0  0  0  0
  189.7640  171.4470  136.3490 C   0  0  0  0  0  1  0  0  0  0  0  0
  191.7870  171.0860  138.7750 C   0  0  1  0  0  0  0  0  0  0  0  0
  194.2730  171.2470  138.7170 O   0  0  0  0  0  1  0  0  0  0  0  0
  186.4700  176.6000  136.4880 F   0  0  0  0  0  0  0  0  0  0  0  0
  187.4540  174.9280  137.8610 C   0  0  0  0  0  3  0  0  0  0  0  0
  189.4610  173.7560  137.1150 C   0  0  0  0  0  0  0  0  0  0  0  0
  189.4290  174.5240  135.9360 C   0  0  0  0  0  3  0  0  0  0  0  0
  192.9340  171.9190  136.7770 C   0  0  1  0  0  3  0  0  0  0  0  0
  188.4500  173.9750  138.0940 C   0  0  0  0  0  0  0  0  0  0  0  0
  190.4090  172.5690  137.1700 C   0  0  1  0  0  0  0  0  0  0  0  0
  191.7810  172.9210  136.5130 C   0  0  0  0  0  2  0  0  0  0  0  0
  193.0550  171.7710  138.2790 C   0  0  1  0  0  0  0  0  0  0  0  0
  188.4450  175.4890  135.7290 C   0  0  0  0  0  0  0  0  0  0  0  0
  191.9560  176.3960  147.6710 O   0  0  0  0  0  1  0  0  0  0  0  0
  192.6330  175.8320  146.5850 C   0  0  0  0  0  2  0  0  0  0  0  0
  189.1990  176.4220  143.9210 O   0  0  0  0  0  0  0  0  0  0  0  0
  189.1870  177.5540  143.0590 C   0  0  0  0  0  2  0  0  0  0  0  0
  187.7580  177.8970  142.6660 C   0  0  0  0  0  2  0  0  0  0  0  0
  185.4700  177.6530  143.2250 C   0  0  0  0  0  2  0  0  0  0  0  0
  186.2270  177.8960  144.4480 C   0  0  2  0  0  3  0  0  0  0  0  0
  186.8090  177.0590  143.3890 N   0  0  0  0  0  0  0  0  0  0  0  0
  185.7200  176.9950  145.5640 C   0  0  2  0  0  3  0  0  0  0  0  0
  184.5770  177.5500  146.1470 O   0  0  0  0  0  1  0  0  0  0  0  0
  186.2220  176.5780  147.8660 O   0  0  0  0  0  1  0  0  0  0  0  0
  187.8050  177.9040  146.6750 C   0  0  0  0  0  1  0  0  0  0  0  0
  186.8070  176.7570  146.6130 C   0  0  2  0  0  3  0  0  0  0  0  0
  193.5090  175.6230  141.5130 C   0  0  0  0  0  2  0  0  0  0  0  0
  195.0060  176.1380  139.7320 O   0  0  0  0  0  0  0  0  0  0  0  0
  194.8050  175.4850  140.7900 C   0  0  0  0  0  0  0  0  0  0  0  0
  195.7810  174.6300  141.3010 O   0  0  0  0  0  0  0  0  0  0  0  0
  197.1650  174.9660  141.2850 C   0  0  1  0  0  3  0  0  0  0  0  0
  197.7420  174.9550  142.7030 C   0  0  1  0  0  3  0  0  0  0  0  0
  197.8660  176.2590  143.1870 O   0  0  0  0  0  1  0  0  0  0  0  0
  196.9100  174.1080  143.6730 C   0  0  0  0  0  2  0  0  0  0  0  0
  197.2400  172.6160  143.6080 C   0  0  2  0  0  3  0  0  0  0  0  0
  196.1590  171.8930  143.0950 O   0  0  0  0  0  1  0  0  0  0  0  0
  196.8170  172.7320  146.0180 N   0  0  0  0  0  1  0  0  0  0  0  0
  197.6180  172.0910  144.9860 C   0  0  0  0  0  2  0  0  0  0  0  0
  197.9350  174.0290  140.3530 C   0  0  0  0  0  2  0  0  0  0  0  0
  197.1210  172.8820  139.9620 N   0  0  0  0  0  2  0  0  0  0  0  0
  197.8950  172.0820  139.1050 N   0  0  0  0  0  2  0  0  0  0  0  0
  197.4200  169.6570  140.1360 S   0  0  0  0  0  0  0  0  0  0  0  0
  197.4730  170.2180  137.5510 N   0  0  0  0  0  1  0  0  0  0  0  0
  197.6130  170.6970  138.8840 C   0  0  0  0  0  0  0  0  0  0  0  0
  1 37  1  0  0  0  0
  2  3  1  0  0  0  0
  2  4  2  0  0  0  0
  3  5  1  0  0  0  0
  4  7  1  0  0  0  0
  5  9  1  6  0  0  0
  5  1  1  0  0  0  0
  7  6  1  6  0  0  0
  7  1  1  0  0  0  0
  8  3  2  0  0  0  0
  9 10  1  6  0  0  0
 11 12  1  1  0  0  0
 11  9  1  0  0  0  0
 13 11  1  0  0  0  0
 15 14  1  6  0  0  0
 15 13  1  0  0  0  0
 16 15  1  0  0  0  0
 17 34  1  0  0  0  0
 17 24  1  0  0  0  0
 18 27  1  0  0  0  0
 19 22  1  0  0  0  0
 20 35  1  0  0  0  0
 21 24  1  0  0  0  0
 21 19  1  0  0  0  0
 23 32  1  0  0  0  0
 24 16  1  0  0  0  0
 26 18  1  0  0  0  0
 27 31  2  0  0  0  0
 28 32  1  0  0  0  0
 28 31  1  0  0  0  0
 29 28  2  0  0  0  0
 30 17  1  0  0  0  0
 30 34  1  0  0  0  0
 31 22  1  0  0  0  0
 32 21  1  0  0  0  0
 33 30  1  0  0  0  0
 33 32  1  0  0  0  0
 34 25  1  0  0  0  0
 34 24  1  0  0  0  0
 35 29  1  0  0  0  0
 35 18  2  0  0  0  0
 37 36  1  0  0  0  0
 38  4  1  0  0  0  0
 39 38  1  0  0  0  0
 40 39  1  0  0  0  0
 40 43  1  0  0  0  0
 41 43  1  0  0  0  0
 41 42  1  0  0  0  0
 42 44  1  0  0  0  0
 43 42  1  0  0  0  0
 44 45  1  0  0  0  0
 44 48  1  0  0  0  0
 48 47  1  0  0  0  0
 48 46  1  0  0  0  0
 49  8  1  0  0  0  0
 50 51  2  0  0  0  0
 51 52  1  0  0  0  0
 51 49  1  0  0  0  0
 53 52  1  0  0  0  0
 53 54  1  0  0  0  0
 54 55  1  0  0  0  0
 54 56  1  0  0  0  0
 57 56  1  0  0  0  0
 57 60  1  0  0  0  0
 58 57  1  0  0  0  0
 60 59  1  0  0  0  0
 61 53  1  0  0  0  0
 62 61  1  0  0  0  0
 63 62  1  0  0  0  0
 65 66  1  0  0  0  0
 66 63  1  0  0  0  0
 66 64  2  0  0  0  0
M  END
>  <MODEL>
2

>  <REMARK>
 VINA RESULT:      -5.3      3.183      9.271
  Name = 
  25 active torsions:
  status: ('A' for Active; 'I' for Inactive)
    1  A    between atoms: C_1  and  C_5
    2  A    between atoms: C_1  and  C_20
    3  A    between atoms: C_2  and  C_35
    4  A    between atoms: C_2  and  C_64
    5  A    between atoms: N_3  and  C_60
    6  A    between atoms: C_5  and  C_53
    7  A    between atoms: C_5  and  O_58
    8  A    between atoms: S_9  and  C_23
    9  A    between atoms: S_9  and  C_28
   10  A    between atoms: C_10  and  O_32
   11  A    between atoms: C_10  and  C_54
   12  A    between atoms: C_13  and  C_20
   13  A    between atoms: C_13  and  C_48
   14  A    between atoms: C_19  and  N_40
   15  A    between atoms: C_19  and  C_43
   16  A    between atoms: C_23  and  N_40
   17  A    between atoms: C_27  and  C_49
   18  A    between atoms: C_27  and  C_51
   19  A    between atoms: C_31  and  O_32
   20  A    between atoms: C_35  and  O_58
   21  A    between atoms: C_37  and  C_43
   22  A    between atoms: N_41  and  C_53
   23  A    between atoms: N_41  and  N_59
   24  A    between atoms: C_47  and  N_59
   25  A    between atoms: C_54  and  N_62
                            x       y       z     vdW  Elec       q    Type
                         _______ _______ _______ _____ _____    ______ ____

>  <TORSDO>
F 25

$$$$
=
 OpenBabel11042416203D

 66 72  0  0  1  0  0  0  0  0999 V2000
  191.8350  174.4570  145.1100 N   0  0  0  0  0  0  0  0  0  0  0  0
  191.6630  175.4070  142.4270 N   0  0  0  0  0  0  0  0  0  0  0  0
  192.7340  174.5460  142.8080 C   0  0  0  0  0  0  0  0  0  0  0  0
  190.6700  175.6730  143.2220 C   0  0  0  0  0  0  0  0  0  0  0  0
  192.6270  173.7620  144.0790 C   0  0  2  0  0  3  0  0  0  0  0  0
  189.3890  174.2510  144.8390 C   0  0  0  0  0  1  0  0  0  0  0  0
  190.6090  175.1300  144.6320 C   0  0  1  0  0  3  0  0  0  0  0  0
  193.8250  174.4290  142.0490 C   0  0  0  0  0  3  0  0  0  0  0  0
  192.1970  172.2970  143.8480 C   0  0  2  0  0  3  0  0  0  0  0  0
  190.9390  171.8940  144.6140 C   0  0  0  0  0  1  0  0  0  0  0  0
  193.3520  171.3000  144.0170 C   0  0  2  0  0  3  0  0  0  0  0  0
  194.5260  171.9530  144.7310 C   0  0  0  0  0  1  0  0  0  0  0  0
  193.7750  170.7660  142.7250 N   0  0  0  0  0  2  0  0  0  0  0  0
  192.7600  168.8270  143.7560 C   0  0  0  0  0  1  0  0  0  0  0  0
  193.0520  169.5310  142.4460 C   0  0  2  0  0  3  0  0  0  0  0  0
  194.0370  168.4440  141.3560 S   0  0  0  0  0  0  0  0  0  0  0  0
  193.9330  168.5760  138.4640 C   0  0  1  0  0  3  0  0  0  0  0  0
  188.7080  173.3750  137.7750 C   0  0  0  0  0  0  0  0  0  0  0  0
  191.1200  169.8300  140.5790 C   0  0  0  0  0  2  0  0  0  0  0  0
  189.3470  173.6230  135.4560 O   0  0  0  0  0  1  0  0  0  0  0  0
  192.2940  170.1660  139.6810 C   0  0  1  0  0  3  0  0  0  0  0  0
  190.2590  171.3830  140.9430 S   0  0  0  0  0  0  0  0  0  0  0  0
  191.0880  169.1630  137.6880 C   0  0  0  0  0  1  0  0  0  0  0  0
  193.4850  169.1900  139.7750 C   0  0  1  0  0  0  0  0  0  0  0  0
  195.9230  169.3650  139.2880 O   0  0  0  0  0  1  0  0  0  0  0  0
  187.6850  174.2460  137.6080 F   0  0  0  0  0  0  0  0  0  0  0  0
  188.9330  172.8090  139.0310 C   0  0  0  0  0  3  0  0  0  0  0  0
  190.8330  171.5570  138.1460 C   0  0  0  0  0  0  0  0  0  0  0  0
  190.5860  172.1390  136.8890 C   0  0  0  0  0  3  0  0  0  0  0  0
  194.2670  169.7240  137.5170 C   0  0  1  0  0  3  0  0  0  0  0  0
  189.9860  171.9110  139.2350 C   0  0  0  0  0  0  0  0  0  0  0  0
  191.8170  170.4020  138.2190 C   0  0  1  0  0  0  0  0  0  0  0  0
  193.0530  170.6650  137.3010 C   0  0  0  0  0  2  0  0  0  0  0  0
  194.6330  169.8050  138.9830 C   0  0  1  0  0  0  0  0  0  0  0  0
  189.5490  173.0530  136.7060 C   0  0  0  0  0  0  0  0  0  0  0  0
  192.0620  175.9350  146.9050 O   0  0  0  0  0  1  0  0  0  0  0  0
  192.6840  175.4600  145.7460 C   0  0  0  0  0  2  0  0  0  0  0  0
  189.6140  176.4750  142.7830 O   0  0  0  0  0  0  0  0  0  0  0  0
  189.4980  177.8460  143.1470 C   0  0  0  0  0  2  0  0  0  0  0  0
  188.2150  178.4320  142.5770 C   0  0  0  0  0  2  0  0  0  0  0  0
  185.8680  178.1820  142.3940 C   0  0  0  0  0  2  0  0  0  0  0  0
  186.1660  178.9210  143.6160 C   0  0  2  0  0  3  0  0  0  0  0  0
  187.0480  177.8200  143.2000 N   0  0  0  0  0  0  0  0  0  0  0  0
  185.2750  178.4360  144.7490 C   0  0  2  0  0  3  0  0  0  0  0  0
  184.6430  179.5220  145.3620 O   0  0  0  0  0  1  0  0  0  0  0  0
  185.6940  176.2870  145.7160 O   0  0  0  0  0  1  0  0  0  0  0  0
  185.9020  178.1530  147.1850 C   0  0  0  0  0  1  0  0  0  0  0  0
  186.0790  177.6260  145.7690 C   0  0  2  0  0  3  0  0  0  0  0  0
  194.0130  175.1940  140.7770 C   0  0  0  0  0  2  0  0  0  0  0  0
  193.9250  173.1800  139.5070 O   0  0  0  0  0  0  0  0  0  0  0  0
  194.4780  174.2990  139.6800 C   0  0  0  0  0  0  0  0  0  0  0  0
  195.5220  174.7180  138.8560 O   0  0  0  0  0  0  0  0  0  0  0  0
  196.8180  174.1310  138.9190 C   0  0  1  0  0  3  0  0  0  0  0  0
  197.1810  173.7710  140.3610 C   0  0  1  0  0  3  0  0  0  0  0  0
  197.9240  172.5880  140.3950 O   0  0  0  0  0  1  0  0  0  0  0  0
  197.9410  174.8930  141.0780 C   0  0  0  0  0  2  0  0  0  0  0  0
  197.3620  175.2320  142.4520 C   0  0  2  0  0  3  0  0  0  0  0  0
  197.8130  176.4820  142.8840 O   0  0  0  0  0  1  0  0  0  0  0  0
  197.1490  174.4590  144.7670 N   0  0  0  0  0  1  0  0  0  0  0  0
  197.7320  174.1600  143.4680 C   0  0  0  0  0  2  0  0  0  0  0  0
  196.9030  172.9170  137.9930 C   0  0  0  0  0  2  0  0  0  0  0  0
  196.4190  173.2350  136.6530 N   0  0  0  0  0  2  0  0  0  0  0  0
  197.2400  174.2500  136.1330 N   0  0  0  0  0  2  0  0  0  0  0  0
  195.1360  175.6990  135.3330 S   0  0  0  0  0  0  0  0  0  0  0  0
  197.6250  176.0650  134.5140 N   0  0  0  0  0  1  0  0  0  0  0  0
  196.7290  175.3130  135.3240 C   0  0  0  0  0  0  0  0  0  0  0  0
  1 37  1  0  0  0  0
  2  3  1  0  0  0  0
  2  4  2  0  0  0  0
  3  5  1  0  0  0  0
  4  7  1  0  0  0  0
  5  9  1  6  0  0  0
  5  1  1  0  0  0  0
  7  6  1  6  0  0  0
  7  1  1  0  0  0  0
  8  3  2  0  0  0  0
  9 11  1  0  0  0  0
  9 10  1  1  0  0  0
 11 12  1  6  0  0  0
 13 11  1  0  0  0  0
 15 13  1  0  0  0  0
 15 14  1  1  0  0  0
 16 15  1  0  0  0  0
 17 34  1  0  0  0  0
 17 24  1  0  0  0  0
 18 27  1  0  0  0  0
 19 22  1  0  0  0  0
 20 35  1  0  0  0  0
 21 24  1  0  0  0  0
 21 19  1  0  0  0  0
 23 32  1  0  0  0  0
 24 16  1  0  0  0  0
 26 18  1  0  0  0  0
 27 31  2  0  0  0  0
 28 32  1  0  0  0  0
 28 31  1  0  0  0  0
 29 28  2  0  0  0  0
 30 17  1  0  0  0  0
 30 34  1  0  0  0  0
 31 22  1  0  0  0  0
 32 21  1  0  0  0  0
 33 30  1  0  0  0  0
 33 32  1  0  0  0  0
 34 25  1  0  0  0  0
 34 24  1  0  0  0  0
 35 29  1  0  0  0  0
 35 18  2  0  0  0  0
 37 36  1  0  0  0  0
 38 39  1  0  0  0  0
 38  4  1  0  0  0  0
 40 39  1  0  0  0  0
 40 43  1  0  0  0  0
 41 43  1  0  0  0  0
 41 42  1  0  0  0  0
 42 44  1  0  0  0  0
 43 42  1  0  0  0  0
 44 45  1  0  0  0  0
 44 48  1  0  0  0  0
 46 48  1  0  0  0  0
 48 47  1  0  0  0  0
 49  8  1  0  0  0  0
 50 51  2  0  0  0  0
 51 49  1  0  0  0  0
 52 53  1  0  0  0  0
 52 51  1  0  0  0  0
 53 54  1  0  0  0  0
 54 55  1  0  0  0  0
 54 56  1  0  0  0  0
 56 57  1  0  0  0  0
 57 58  1  0  0  0  0
 57 60  1  0  0  0  0
 60 59  1  0  0  0  0
 61 53  1  0  0  0  0
 62 61  1  0  0  0  0
 63 62  1  0  0  0  0
 65 66  1  0  0  0  0
 66 64  2  0  0  0  0
 66 63  1  0  0  0  0
M  END
>  <MODEL>
3

>  <REMARK>
 VINA RESULT:      -5.1      3.202      8.876
  Name = 
  25 active torsions:
  status: ('A' for Active; 'I' for Inactive)
    1  A    between atoms: C_1  and  C_5
    2  A    between atoms: C_1  and  C_20
    3  A    between atoms: C_2  and  C_35
    4  A    between atoms: C_2  and  C_64
    5  A    between atoms: N_3  and  C_60
    6  A    between atoms: C_5  and  C_53
    7  A    between atoms: C_5  and  O_58
    8  A    between atoms: S_9  and  C_23
    9  A    between atoms: S_9  and  C_28
   10  A    between atoms: C_10  and  O_32
   11  A    between atoms: C_10  and  C_54
   12  A    between atoms: C_13  and  C_20
   13  A    between atoms: C_13  and  C_48
   14  A    between atoms: C_19  and  N_40
   15  A    between atoms: C_19  and  C_43
   16  A    between atoms: C_23  and  N_40
   17  A    between atoms: C_27  and  C_49
   18  A    between atoms: C_27  and  C_51
   19  A    between atoms: C_31  and  O_32
   20  A    between atoms: C_35  and  O_58
   21  A    between atoms: C_37  and  C_43
   22  A    between atoms: N_41  and  C_53
   23  A    between atoms: N_41  and  N_59
   24  A    between atoms: C_47  and  N_59
   25  A    between atoms: C_54  and  N_62
                            x       y       z     vdW  Elec       q    Type
                         _______ _______ _______ _____ _____    ______ ____

>  <TORSDO>
F 25

$$$$
=
 OpenBabel11042416203D

 66 72  0  0  1  0  0  0  0  0999 V2000
  191.9100  169.8900  138.7020 N   0  0  0  0  0  0  0  0  0  0  0  0
  190.1350  172.0490  138.1390 N   0  0  0  0  0  0  0  0  0  0  0  0
  190.9270  172.0710  139.3250 C   0  0  0  0  0  0  0  0  0  0  0  0
  190.2870  171.1430  137.2200 C   0  0  0  0  0  0  0  0  0  0  0  0
  192.1040  171.1530  139.4370 C   0  0  2  0  0  3  0  0  0  0  0  0
  192.3280  170.0420  136.2720 C   0  0  0  0  0  1  0  0  0  0  0  0
  191.2800  170.0130  137.3700 C   0  0  1  0  0  3  0  0  0  0  0  0
  190.6350  172.8980  140.3300 C   0  0  0  0  0  3  0  0  0  0  0  0
  193.4450  171.8520  139.1290 C   0  0  2  0  0  3  0  0  0  0  0  0
  194.3610  171.0530  138.2050 C   0  0  0  0  0  1  0  0  0  0  0  0
  194.1580  172.3640  140.3890 C   0  0  2  0  0  3  0  0  0  0  0  0
  194.6070  173.8060  140.2050 C   0  0  0  0  0  1  0  0  0  0  0  0
  195.2980  171.5150  140.7250 N   0  0  0  0  0  2  0  0  0  0  0  0
  197.4830  171.8610  141.7060 C   0  0  0  0  0  1  0  0  0  0  0  0
  195.9910  172.0650  141.8850 C   0  0  2  0  0  3  0  0  0  0  0  0
  195.4260  171.2430  143.4170 S   0  0  0  0  0  0  0  0  0  0  0  0
  195.8960  173.9450  144.3540 C   0  0  1  0  0  3  0  0  0  0  0  0
  189.2720  175.5480  146.4400 C   0  0  0  0  0  0  0  0  0  0  0  0
  192.4520  172.7130  143.5950 C   0  0  0  0  0  2  0  0  0  0  0  0
  190.1870  177.4500  147.6190 O   0  0  0  0  0  1  0  0  0  0  0  0
  193.4670  173.1020  144.6500 C   0  0  1  0  0  3  0  0  0  0  0  0
  190.8800  172.4100  144.4460 S   0  0  0  0  0  0  0  0  0  0  0  0
  193.3780  175.5170  143.8800 C   0  0  0  0  0  1  0  0  0  0  0  0
  194.9330  172.7750  144.2950 C   0  0  1  0  0  0  0  0  0  0  0  0
  197.0040  172.3900  145.6250 O   0  0  0  0  0  1  0  0  0  0  0  0
  188.0160  175.9030  146.7990 F   0  0  0  0  0  0  0  0  0  0  0  0
  189.4710  174.3970  145.6750 C   0  0  0  0  0  3  0  0  0  0  0  0
  191.8800  174.7900  145.6790 C   0  0  0  0  0  0  0  0  0  0  0  0
  191.6550  175.9460  146.4480 C   0  0  0  0  0  3  0  0  0  0  0  0
  195.8140  174.5280  145.7610 C   0  0  1  0  0  3  0  0  0  0  0  0
  190.7570  174.0030  145.2940 C   0  0  0  0  0  0  0  0  0  0  0  0
  193.2650  174.5810  145.0880 C   0  0  1  0  0  0  0  0  0  0  0  0
  194.3730  174.9800  146.1130 C   0  0  0  0  0  2  0  0  0  0  0  0
  195.7660  173.0310  145.5450 C   0  0  1  0  0  0  0  0  0  0  0  0
  190.3690  176.3130  146.8430 C   0  0  0  0  0  0  0  0  0  0  0  0
  190.3090  168.1890  138.6820 O   0  0  0  0  0  1  0  0  0  0  0  0
  191.0820  169.0040  139.5140 C   0  0  0  0  0  2  0  0  0  0  0  0
  189.5280  171.1970  136.0490 O   0  0  0  0  0  0  0  0  0  0  0  0
  189.8340  172.0920  134.9850 C   0  0  0  0  0  2  0  0  0  0  0  0
  189.7710  173.5300  135.4760 C   0  0  0  0  0  2  0  0  0  0  0  0
  192.1310  173.6990  135.5750 C   0  0  0  0  0  2  0  0  0  0  0  0
  191.5510  174.8990  136.1680 C   0  0  2  0  0  3  0  0  0  0  0  0
  190.9150  174.2920  134.9890 N   0  0  0  0  0  0  0  0  0  0  0  0
  192.3310  176.1280  135.7260 C   0  0  2  0  0  3  0  0  0  0  0  0
  191.7620  176.6660  134.5670 O   0  0  0  0  0  1  0  0  0  0  0  0
  194.4560  175.6860  136.7330 O   0  0  0  0  0  1  0  0  0  0  0  0
  194.5070  176.8310  134.6420 C   0  0  0  0  0  1  0  0  0  0  0  0
  193.8060  175.7910  135.5040 C   0  0  2  0  0  3  0  0  0  0  0  0
  189.4660  173.8310  140.3000 C   0  0  0  0  0  2  0  0  0  0  0  0
  187.6040  172.3450  140.2740 O   0  0  0  0  0  0  0  0  0  0  0  0
  188.2650  173.2010  140.9180 C   0  0  0  0  0  0  0  0  0  0  0  0
  187.8930  173.5710  142.2110 O   0  0  0  0  0  0  0  0  0  0  0  0
  187.9130  174.9260  142.6460 C   0  0  1  0  0  3  0  0  0  0  0  0
  188.6930  175.8000  141.6610 C   0  0  1  0  0  3  0  0  0  0  0  0
  187.8320  176.6850  141.0070 O   0  0  0  0  0  1  0  0  0  0  0  0
  189.8340  176.5740  142.3320 C   0  0  0  0  0  2  0  0  0  0  0  0
  189.4060  177.9450  142.8580 C   0  0  2  0  0  3  0  0  0  0  0  0
  189.5140  178.9140  141.8560 O   0  0  0  0  0  1  0  0  0  0  0  0
  191.5880  178.7240  143.6550 N   0  0  0  0  0  1  0  0  0  0  0  0
  190.2450  178.3410  144.0650 C   0  0  0  0  0  2  0  0  0  0  0  0
  186.4890  175.4440  142.8580 C   0  0  0  0  0  2  0  0  0  0  0  0
  186.4200  176.3590  143.9920 N   0  0  0  0  0  2  0  0  0  0  0  0
  185.6900  177.4890  143.5860 N   0  0  0  0  0  2  0  0  0  0  0  0
  184.8570  178.1490  146.0430 S   0  0  0  0  0  0  0  0  0  0  0  0
  185.2630  179.8650  144.0710 N   0  0  0  0  0  1  0  0  0  0  0  0
  185.2800  178.5090  144.5010 C   0  0  0  0  0  0  0  0  0  0  0  0
  1  5  1  0  0  0  0
  1 37  1  0  0  0  0
  2  3  1  0  0  0  0
  3  5  1  0  0  0  0
  3  8  2  0  0  0  0
  4  7  1  0  0  0  0
  4  2  2  0  0  0  0
  5  9  1  6  0  0  0
  7  6  1  6  0  0  0
  7  1  1  0  0  0  0
  9 10  1  1  0  0  0
  9 11  1  0  0  0  0
 11 12  1  6  0  0  0
 11 13  1  0  0  0  0
 13 15  1  0  0  0  0
 15 14  1  6  0  0  0
 15 16  1  0  0  0  0
 16 24  1  0  0  0  0
 17 34  1  0  0  0  0
 17 30  1  0  0  0  0
 18 26  1  0  0  0  0
 18 35  1  0  0  0  0
 19 22  1  0  0  0  0
 19 21  1  0  0  0  0
 21 32  1  0  0  0  0
 22 31  1  0  0  0  0
 23 32  1  0  0  0  0
 24 17  1  0  0  0  0
 24 21  1  0  0  0  0
 24 34  1  0  0  0  0
 27 18  2  0  0  0  0
 28 29  1  0  0  0  0
 29 35  2  0  0  0  0
 30 33  1  0  0  0  0
 31 27  1  0  0  0  0
 31 28  2  0  0  0  0
 32 28  1  0  0  0  0
 32 33  1  0  0  0  0
 34 25  1  0  0  0  0
 34 30  1  0  0  0  0
 35 20  1  0  0  0  0
 36 37  1  0  0  0  0
 38  4  1  0  0  0  0
 39 40  1  0  0  0  0
 39 38  1  0  0  0  0
 41 42  1  0  0  0  0
 43 40  1  0  0  0  0
 43 41  1  0  0  0  0
 43 42  1  0  0  0  0
 44 42  1  0  0  0  0
 45 44  1  0  0  0  0
 47 48  1  0  0  0  0
 48 44  1  0  0  0  0
 48 46  1  0  0  0  0
 49  8  1  0  0  0  0
 49 51  1  0  0  0  0
 50 51  2  0  0  0  0
 51 52  1  0  0  0  0
 52 53  1  0  0  0  0
 53 61  1  0  0  0  0
 54 56  1  0  0  0  0
 54 53  1  0  0  0  0
 55 54  1  0  0  0  0
 56 57  1  0  0  0  0
 57 60  1  0  0  0  0
 58 57  1  0  0  0  0
 59 60  1  0  0  0  0
 61 62  1  0  0  0  0
 63 62  1  0  0  0  0
 63 66  1  0  0  0  0
 65 66  1  0  0  0  0
 66 64  2  0  0  0  0
M  END
>  <MODEL>
4

>  <REMARK>
 VINA RESULT:      -5.0      3.130      6.887
  Name = 
  25 active torsions:
  status: ('A' for Active; 'I' for Inactive)
    1  A    between atoms: C_1  and  C_5
    2  A    between atoms: C_1  and  C_20
    3  A    between atoms: C_2  and  C_35
    4  A    between atoms: C_2  and  C_64
    5  A    between atoms: N_3  and  C_60
    6  A    between atoms: C_5  and  C_53
    7  A    between atoms: C_5  and  O_58
    8  A    between atoms: S_9  and  C_23
    9  A    between atoms: S_9  and  C_28
   10  A    between atoms: C_10  and  O_32
   11  A    between atoms: C_10  and  C_54
   12  A    between atoms: C_13  and  C_20
   13  A    between atoms: C_13  and  C_48
   14  A    between atoms: C_19  and  N_40
   15  A    between atoms: C_19  and  C_43
   16  A    between atoms: C_23  and  N_40
   17  A    between atoms: C_27  and  C_49
   18  A    between atoms: C_27  and  C_51
   19  A    between atoms: C_31  and  O_32
   20  A    between atoms: C_35  and  O_58
   21  A    between atoms: C_37  and  C_43
   22  A    between atoms: N_41  and  C_53
   23  A    between atoms: N_41  and  N_59
   24  A    between atoms: C_47  and  N_59
   25  A    between atoms: C_54  and  N_62
                            x       y       z     vdW  Elec       q    Type
                         _______ _______ _______ _____ _____    ______ ____

>  <TORSDO>
F 25

$$$$
=
 OpenBabel11042416203D

 66 72  0  0  1  0  0  0  0  0999 V2000
  193.0320  175.2020  145.0380 N   0  0  0  0  0  0  0  0  0  0  0  0
  190.6170  174.6370  143.6330 N   0  0  0  0  0  0  0  0  0  0  0  0
  191.3600  175.8130  143.3210 C   0  0  0  0  0  0  0  0  0  0  0  0
  191.0650  173.7260  144.4440 C   0  0  0  0  0  0  0  0  0  0  0  0
  192.7830  175.9210  143.7750 C   0  0  2  0  0  3  0  0  0  0  0  0
  193.3540  172.7660  144.7860 C   0  0  0  0  0  1  0  0  0  0  0  0
  192.3890  173.8770  145.1600 C   0  0  1  0  0  3  0  0  0  0  0  0
  190.8090  176.8120  142.6310 C   0  0  0  0  0  3  0  0  0  0  0  0
  193.7980  175.5890  142.6600 C   0  0  2  0  0  3  0  0  0  0  0  0
  193.3090  174.5270  141.6780 C   0  0  0  0  0  1  0  0  0  0  0  0
  195.2090  175.3110  143.1970 C   0  0  2  0  0  3  0  0  0  0  0  0
  195.6650  176.4320  144.1190 C   0  0  0  0  0  1  0  0  0  0  0  0
  196.1590  175.1360  142.1010 N   0  0  0  0  0  2  0  0  0  0  0  0
  196.4940  172.9850  143.1570 C   0  0  0  0  0  1  0  0  0  0  0  0
  196.3440  173.7130  141.8360 C   0  0  2  0  0  3  0  0  0  0  0  0
  197.8240  173.4410  140.7990 S   0  0  0  0  0  0  0  0  0  0  0  0
  197.4750  173.7710  137.9410 C   0  0  1  0  0  3  0  0  0  0  0  0
  192.2000  169.0850  136.9330 C   0  0  0  0  0  0  0  0  0  0  0  0
  196.1350  170.7830  139.7400 C   0  0  0  0  0  2  0  0  0  0  0  0
  191.8430  170.0730  134.7550 O   0  0  0  0  0  1  0  0  0  0  0  0
  195.8400  172.0980  139.0460 C   0  0  1  0  0  3  0  0  0  0  0  0
  194.5430  170.0000  140.1090 S   0  0  0  0  0  0  0  0  0  0  0  0
  196.5870  171.1230  136.8270 C   0  0  0  0  0  1  0  0  0  0  0  0
  196.9200  173.1850  139.2240 C   0  0  1  0  0  0  0  0  0  0  0  0
  196.9260  175.6740  139.0980 O   0  0  0  0  0  1  0  0  0  0  0  0
  191.2330  168.1670  136.6980 F   0  0  0  0  0  0  0  0  0  0  0  0
  192.8720  169.0800  138.1560 C   0  0  0  0  0  3  0  0  0  0  0  0
  194.2190  170.9870  137.4440 C   0  0  0  0  0  0  0  0  0  0  0  0
  193.5290  170.9720  136.2170 C   0  0  0  0  0  3  0  0  0  0  0  0
  196.2960  174.3270  137.1490 C   0  0  1  0  0  3  0  0  0  0  0  0
  193.8710  170.0200  138.4300 C   0  0  0  0  0  0  0  0  0  0  0  0
  195.4580  171.8590  137.5570 C   0  0  1  0  0  0  0  0  0  0  0  0
  195.2400  173.2330  136.8460 C   0  0  0  0  0  2  0  0  0  0  0  0
  196.3530  174.4800  138.6540 C   0  0  1  0  0  0  0  0  0  0  0  0
  192.5170  170.0460  135.9690 C   0  0  0  0  0  0  0  0  0  0  0  0
  193.4800  177.0710  146.3680 O   0  0  0  0  0  1  0  0  0  0  0  0
  192.5670  176.0350  146.1430 C   0  0  0  0  0  2  0  0  0  0  0  0
  190.3260  172.5640  144.6730 O   0  0  0  0  0  0  0  0  0  0  0  0
  189.6470  171.8760  143.6280 C   0  0  0  0  0  2  0  0  0  0  0  0
  190.6520  171.1960  142.7100 C   0  0  0  0  0  2  0  0  0  0  0  0
  191.2130  171.5740  140.4410 C   0  0  0  0  0  2  0  0  0  0  0  0
  190.1510  172.4990  140.8210 C   0  0  2  0  0  3  0  0  0  0  0  0
  190.1400  171.1260  141.3470 N   0  0  0  0  0  0  0  0  0  0  0  0
  189.1260  172.6050  139.7020 C   0  0  2  0  0  3  0  0  0  0  0  0
  189.5760  171.9130  138.5730 O   0  0  0  0  0  1  0  0  0  0  0  0
  188.0940  174.6510  140.3930 O   0  0  0  0  0  1  0  0  0  0  0  0
  188.0790  174.2110  138.0500 C   0  0  0  0  0  1  0  0  0  0  0  0
  188.8320  174.0680  139.3630 C   0  0  2  0  0  3  0  0  0  0  0  0
  189.3890  176.7850  142.1600 C   0  0  0  0  0  2  0  0  0  0  0  0
  189.3610  179.0720  141.4920 O   0  0  0  0  0  0  0  0  0  0  0  0
  188.8030  178.1550  142.1520 C   0  0  0  0  0  0  0  0  0  0  0  0
  187.6380  178.4020  142.8790 O   0  0  0  0  0  0  0  0  0  0  0  0
  186.4500  177.6420  142.6840 C   0  0  1  0  0  3  0  0  0  0  0  0
  185.8010  177.2990  144.0270 C   0  0  1  0  0  3  0  0  0  0  0  0
  186.3070  176.0920  144.5170 O   0  0  0  0  0  1  0  0  0  0  0  0
  185.9760  178.4080  145.0700 C   0  0  0  0  0  2  0  0  0  0  0  0
  185.0880  178.2230  146.3030 C   0  0  2  0  0  3  0  0  0  0  0  0
  183.9810  179.0740  146.2460 O   0  0  0  0  0  1  0  0  0  0  0  0
  187.2090  177.8860  147.4820 N   0  0  0  0  0  1  0  0  0  0  0  0
  185.8830  178.4760  147.5760 C   0  0  0  0  0  2  0  0  0  0  0  0
  185.4830  178.3850  141.7610 C   0  0  0  0  0  2  0  0  0  0  0  0
  184.1430  177.8080  141.8200 N   0  0  0  0  0  2  0  0  0  0  0  0
  183.3180  178.5560  140.9650 N   0  0  0  0  0  2  0  0  0  0  0  0
  181.7710  177.0850  139.3480 S   0  0  0  0  0  0  0  0  0  0  0  0
  180.8830  178.5900  141.3340 N   0  0  0  0  0  1  0  0  0  0  0  0
  182.0050  178.1250  140.5930 C   0  0  0  0  0  0  0  0  0  0  0  0
  1  7  1  0  0  0  0
  1 37  1  0  0  0  0
  2  4  2  0  0  0  0
  3  2  1  0  0  0  0
  3  5  1  0  0  0  0
  4 38  1  0  0  0  0
  4  7  1  0  0  0  0
  5  9  1  6  0  0  0
  5  1  1  0  0  0  0
  7  6  1  6  0  0  0
  8  3  2  0  0  0  0
  9 10  1  1  0  0  0
  9 11  1  0  0  0  0
 11 12  1  1  0  0  0
 13 11  1  0  0  0  0
 15 13  1  0  0  0  0
 15 14  1  1  0  0  0
 16 15  1  0  0  0  0
 17 34  1  0  0  0  0
 17 24  1  0  0  0  0
 18 27  1  0  0  0  0
 19 22  1  0  0  0  0
 20 35  1  0  0  0  0
 21 24  1  0  0  0  0
 21 19  1  0  0  0  0
 23 32  1  0  0  0  0
 24 16  1  0  0  0  0
 26 18  1  0  0  0  0
 27 31  2  0  0  0  0
 28 32  1  0  0  0  0
 28 31  1  0  0  0  0
 29 28  2  0  0  0  0
 30 17  1  0  0  0  0
 30 34  1  0  0  0  0
 31 22  1  0  0  0  0
 32 21  1  0  0  0  0
 33 30  1  0  0  0  0
 33 32  1  0  0  0  0
 34 25  1  0  0  0  0
 34 24  1  0  0  0  0
 35 29  1  0  0  0  0
 35 18  2  0  0  0  0
 37 36  1  0  0  0  0
 39 38  1  0  0  0  0
 40 39  1  0  0  0  0
 41 42  1  0  0  0  0
 41 43  1  0  0  0  0
 42 43  1  0  0  0  0
 43 40  1  0  0  0  0
 44 42  1  0  0  0  0
 45 44  1  0  0  0  0
 47 48  1  0  0  0  0
 48 44  1  0  0  0  0
 48 46  1  0  0  0  0
 49  8  1  0  0  0  0
 50 51  2  0  0  0  0
 51 49  1  0  0  0  0
 51 52  1  0  0  0  0
 53 52  1  0  0  0  0
 53 54  1  0  0  0  0
 54 55  1  0  0  0  0
 54 56  1  0  0  0  0
 56 57  1  0  0  0  0
 57 60  1  0  0  0  0
 58 57  1  0  0  0  0
 59 60  1  0  0  0  0
 61 62  1  0  0  0  0
 61 53  1  0  0  0  0
 63 62  1  0  0  0  0
 64 66  2  0  0  0  0
 66 63  1  0  0  0  0
 66 65  1  0  0  0  0
M  END
>  <MODEL>
5

>  <REMARK>
 VINA RESULT:      -5.0      1.869      2.260
  Name = 
  25 active torsions:
  status: ('A' for Active; 'I' for Inactive)
    1  A    between atoms: C_1  and  C_5
    2  A    between atoms: C_1  and  C_20
    3  A    between atoms: C_2  and  C_35
    4  A    between atoms: C_2  and  C_64
    5  A    between atoms: N_3  and  C_60
    6  A    between atoms: C_5  and  C_53
    7  A    between atoms: C_5  and  O_58
    8  A    between atoms: S_9  and  C_23
    9  A    between atoms: S_9  and  C_28
   10  A    between atoms: C_10  and  O_32
   11  A    between atoms: C_10  and  C_54
   12  A    between atoms: C_13  and  C_20
   13  A    between atoms: C_13  and  C_48
   14  A    between atoms: C_19  and  N_40
   15  A    between atoms: C_19  and  C_43
   16  A    between atoms: C_23  and  N_40
   17  A    between atoms: C_27  and  C_49
   18  A    between atoms: C_27  and  C_51
   19  A    between atoms: C_31  and  O_32
   20  A    between atoms: C_35  and  O_58
   21  A    between atoms: C_37  and  C_43
   22  A    between atoms: N_41  and  C_53
   23  A    between atoms: N_41  and  N_59
   24  A    between atoms: C_47  and  N_59
   25  A    between atoms: C_54  and  N_62
                            x       y       z     vdW  Elec       q    Type
                         _______ _______ _______ _____ _____    ______ ____

>  <TORSDO>
F 25

$$$$
=
 OpenBabel11042416203D

 66 72  0  0  1  0  0  0  0  0999 V2000
  192.2490  170.4900  141.1140 N   0  0  0  0  0  0  0  0  0  0  0  0
  190.5610  171.7330  139.1810 N   0  0  0  0  0  0  0  0  0  0  0  0
  190.8720  172.4130  140.3960 C   0  0  0  0  0  0  0  0  0  0  0  0
  191.1290  170.6130  138.8480 C   0  0  0  0  0  0  0  0  0  0  0  0
  192.0270  171.9420  141.2240 C   0  0  2  0  0  3  0  0  0  0  0  0
  193.4830  169.7900  139.0920 C   0  0  0  0  0  1  0  0  0  0  0  0
  192.1240  169.9220  139.7550 C   0  0  1  0  0  3  0  0  0  0  0  0
  190.1520  173.4610  140.8000 C   0  0  0  0  0  3  0  0  0  0  0  0
  193.3030  172.7850  141.0110 C   0  0  2  0  0  3  0  0  0  0  0  0
  194.5770  171.9530  140.8810 C   0  0  0  0  0  1  0  0  0  0  0  0
  193.4350  173.9360  142.0180 C   0  0  2  0  0  3  0  0  0  0  0  0
  194.7190  174.7160  141.7760 C   0  0  0  0  0  1  0  0  0  0  0  0
  193.3940  173.4380  143.3910 N   0  0  0  0  0  2  0  0  0  0  0  0
  195.5720  173.5300  144.4410 C   0  0  0  0  0  1  0  0  0  0  0  0
  194.2570  174.2570  144.2340 C   0  0  2  0  0  3  0  0  0  0  0  0
  193.4580  174.5790  145.8460 S   0  0  0  0  0  0  0  0  0  0  0  0
  192.4530  176.4540  143.8780 C   0  0  1  0  0  3  0  0  0  0  0  0
  185.9130  177.4310  146.5360 C   0  0  0  0  0  0  0  0  0  0  0  0
  190.1490  174.5780  146.1420 C   0  0  0  0  0  2  0  0  0  0  0  0
  185.6970  179.3560  145.0890 O   0  0  0  0  0  1  0  0  0  0  0  0
  190.8000  175.9000  145.7900 C   0  0  1  0  0  3  0  0  0  0  0  0
  188.9430  174.9040  147.4550 S   0  0  0  0  0  0  0  0  0  0  0  0
  189.4940  175.9920  143.6180 C   0  0  0  0  0  1  0  0  0  0  0  0
  192.2310  175.7900  145.2230 C   0  0  1  0  0  0  0  0  0  0  0  0
  194.1810  177.3370  145.1030 O   0  0  0  0  0  1  0  0  0  0  0  0
  184.6470  177.6010  146.9850 F   0  0  0  0  0  0  0  0  0  0  0  0
  186.6890  176.3870  147.0410 C   0  0  0  0  0  3  0  0  0  0  0  0
  188.5520  177.0590  145.6140 C   0  0  0  0  0  0  0  0  0  0  0  0
  187.7500  178.1030  145.1180 C   0  0  0  0  0  3  0  0  0  0  0  0
  192.0580  177.9200  144.0250 C   0  0  1  0  0  3  0  0  0  0  0  0
  188.0020  176.1910  146.6000 C   0  0  0  0  0  0  0  0  0  0  0  0
  189.8570  176.7560  144.8960 C   0  0  1  0  0  0  0  0  0  0  0  0
  190.5830  178.0740  144.4810 C   0  0  0  0  0  2  0  0  0  0  0  0
  192.7910  177.2050  145.1400 C   0  0  1  0  0  0  0  0  0  0  0  0
  186.4520  178.3030  145.5860 C   0  0  0  0  0  0  0  0  0  0  0  0
  190.5170  168.9250  141.2200 O   0  0  0  0  0  1  0  0  0  0  0  0
  191.2910  169.8080  141.9790 C   0  0  0  0  0  2  0  0  0  0  0  0
  190.8350  170.0130  137.6220 O   0  0  0  0  0  0  0  0  0  0  0  0
  191.2440  170.5800  136.3810 C   0  0  0  0  0  2  0  0  0  0  0  0
  190.2810  171.6810  135.9660 C   0  0  0  0  0  2  0  0  0  0  0  0
  191.3520  173.2130  134.5130 C   0  0  0  0  0  2  0  0  0  0  0  0
  192.3360  172.7020  135.4600 C   0  0  2  0  0  3  0  0  0  0  0  0
  190.9630  172.9690  135.9130 N   0  0  0  0  0  0  0  0  0  0  0  0
  193.2380  173.8300  135.9360 C   0  0  2  0  0  3  0  0  0  0  0  0
  194.3760  173.9080  135.1260 O   0  0  0  0  0  1  0  0  0  0  0  0
  192.9520  174.5730  138.1930 O   0  0  0  0  0  1  0  0  0  0  0  0
  195.1250  173.7750  137.6220 C   0  0  0  0  0  1  0  0  0  0  0  0
  193.6260  173.6410  137.4030 C   0  0  2  0  0  3  0  0  0  0  0  0
  188.9730  173.9780  140.0360 C   0  0  0  0  0  2  0  0  0  0  0  0
  187.4520  174.1290  141.8640 O   0  0  0  0  0  0  0  0  0  0  0  0
  188.0470  174.7290  140.9290 C   0  0  0  0  0  0  0  0  0  0  0  0
  187.8550  176.0940  140.7170 O   0  0  0  0  0  0  0  0  0  0  0  0
  186.5560  176.6740  140.6460 C   0  0  1  0  0  3  0  0  0  0  0  0
  186.2430  177.4600  141.9220 C   0  0  1  0  0  3  0  0  0  0  0  0
  186.9750  178.6500  141.9510 O   0  0  0  0  0  1  0  0  0  0  0  0
  184.7480  177.7550  142.0830 C   0  0  0  0  0  2  0  0  0  0  0  0
  184.0440  178.0510  140.7580 C   0  0  2  0  0  3  0  0  0  0  0  0
  184.2530  179.3780  140.3730 O   0  0  0  0  0  1  0  0  0  0  0  0
  181.7940  179.0020  140.9280 N   0  0  0  0  0  1  0  0  0  0  0  0
  182.5540  177.7630  140.8680 C   0  0  0  0  0  2  0  0  0  0  0  0
  186.4240  177.5460  139.3960 C   0  0  0  0  0  2  0  0  0  0  0  0
  187.2940  177.0720  138.3250 N   0  0  0  0  0  2  0  0  0  0  0  0
  186.4930  176.3890  137.3940 N   0  0  0  0  0  2  0  0  0  0  0  0
  186.1590  176.3990  134.7380 S   0  0  0  0  0  0  0  0  0  0  0  0
  188.1940  175.2780  136.0030 N   0  0  0  0  0  1  0  0  0  0  0  0
  186.9730  176.0010  136.1040 C   0  0  0  0  0  0  0  0  0  0  0  0
  1  5  1  0  0  0  0
  1 37  1  0  0  0  0
  2  3  1  0  0  0  0
  3  8  2  0  0  0  0
  3  5  1  0  0  0  0
  4  2  2  0  0  0  0
  4  7  1  0  0  0  0
  5  9  1  6  0  0  0
  7  6  1  6  0  0  0
  7  1  1  0  0  0  0
  9 10  1  1  0  0  0
  9 11  1  0  0  0  0
 11 12  1  6  0  0  0
 11 13  1  0  0  0  0
 13 15  1  0  0  0  0
 15 14  1  1  0  0  0
 15 16  1  0  0  0  0
 17 30  1  0  0  0  0
 17 34  1  0  0  0  0
 17 24  1  0  0  0  0
 18 26  1  0  0  0  0
 18 27  1  0  0  0  0
 19 22  1  0  0  0  0
 20 35  1  0  0  0  0
 21 19  1  0  0  0  0
 23 32  1  0  0  0  0
 24 21  1  0  0  0  0
 24 16  1  0  0  0  0
 25 34  1  0  0  0  0
 28 31  1  0  0  0  0
 29 35  1  0  0  0  0
 29 28  2  0  0  0  0
 30 33  1  0  0  0  0
 30 34  1  0  0  0  0
 31 27  2  0  0  0  0
 31 22  1  0  0  0  0
 32 28  1  0  0  0  0
 32 21  1  0  0  0  0
 33 32  1  0  0  0  0
 34 24  1  0  0  0  0
 35 18  2  0  0  0  0
 36 37  1  0  0  0  0
 38  4  1  0  0  0  0
 39 38  1  0  0  0  0
 40 39  1  0  0  0  0
 41 42  1  0  0  0  0
 41 43  1  0  0  0  0
 42 43  1  0  0  0  0
 42 44  1  0  0  0  0
 43 40  1  0  0  0  0
 44 48  1  0  0  0  0
 45 44  1  0  0  0  0
 48 47  1  0  0  0  0
 48 46  1  0  0  0  0
 49  8  1  0  0  0  0
 49 51  1  0  0  0  0
 51 50  2  0  0  0  0
 52 51  1  0  0  0  0
 53 52  1  0  0  0  0
 53 54  1  0  0  0  0
 54 55  1  0  0  0  0
 54 56  1  0  0  0  0
 57 60  1  0  0  0  0
 57 56  1  0  0  0  0
 58 57  1  0  0  0  0
 60 59  1  0  0  0  0
 61 53  1  0  0  0  0
 62 61  1  0  0  0  0
 63 62  1  0  0  0  0
 64 66  2  0  0  0  0
 65 66  1  0  0  0  0
 66 63  1  0  0  0  0
M  END
>  <MODEL>
6

>  <REMARK>
 VINA RESULT:      -4.8      3.527      7.085
  Name = 
  25 active torsions:
  status: ('A' for Active; 'I' for Inactive)
    1  A    between atoms: C_1  and  C_5
    2  A    between atoms: C_1  and  C_20
    3  A    between atoms: C_2  and  C_35
    4  A    between atoms: C_2  and  C_64
    5  A    between atoms: N_3  and  C_60
    6  A    between atoms: C_5  and  C_53
    7  A    between atoms: C_5  and  O_58
    8  A    between atoms: S_9  and  C_23
    9  A    between atoms: S_9  and  C_28
   10  A    between atoms: C_10  and  O_32
   11  A    between atoms: C_10  and  C_54
   12  A    between atoms: C_13  and  C_20
   13  A    between atoms: C_13  and  C_48
   14  A    between atoms: C_19  and  N_40
   15  A    between atoms: C_19  and  C_43
   16  A    between atoms: C_23  and  N_40
   17  A    between atoms: C_27  and  C_49
   18  A    between atoms: C_27  and  C_51
   19  A    between atoms: C_31  and  O_32
   20  A    between atoms: C_35  and  O_58
   21  A    between atoms: C_37  and  C_43
   22  A    between atoms: N_41  and  C_53
   23  A    between atoms: N_41  and  N_59
   24  A    between atoms: C_47  and  N_59
   25  A    between atoms: C_54  and  N_62
                            x       y       z     vdW  Elec       q    Type
                         _______ _______ _______ _____ _____    ______ ____

>  <TORSDO>
F 25

$$$$
=
 OpenBabel11042416203D

 66 72  0  0  1  0  0  0  0  0999 V2000
  190.0900  176.4230  145.8240 N   0  0  0  0  0  0  0  0  0  0  0  0
  190.5580  177.1290  143.1010 N   0  0  0  0  0  0  0  0  0  0  0  0
  191.4860  176.2920  143.7870 C   0  0  0  0  0  0  0  0  0  0  0  0
  189.4210  177.4800  143.6250 C   0  0  0  0  0  0  0  0  0  0  0  0
  191.0690  175.6260  145.0620 C   0  0  2  0  0  3  0  0  0  0  0  0
  187.7620  176.2270  145.0220 C   0  0  0  0  0  1  0  0  0  0  0  0
  189.0260  177.0670  145.0250 C   0  0  1  0  0  3  0  0  0  0  0  0
  192.7150  176.0920  143.3090 C   0  0  0  0  0  3  0  0  0  0  0  0
  190.6530  174.1530  144.8640 C   0  0  2  0  0  3  0  0  0  0  0  0
  189.4550  173.7300  145.7110 C   0  0  0  0  0  1  0  0  0  0  0  0
  191.8350  173.1780  144.9630 C   0  0  2  0  0  3  0  0  0  0  0  0
  192.9700  173.7900  145.7710 C   0  0  0  0  0  1  0  0  0  0  0  0
  192.3060  172.7920  143.6350 N   0  0  0  0  0  2  0  0  0  0  0  0
  190.5600  171.2100  144.1880 C   0  0  0  0  0  1  0  0  0  0  0  0
  191.4130  171.7850  143.0740 C   0  0  2  0  0  3  0  0  0  0  0  0
  192.3730  170.4540  142.2700 S   0  0  0  0  0  0  0  0  0  0  0  0
  192.7840  170.2940  139.4060 C   0  0  1  0  0  3  0  0  0  0  0  0
  187.8310  174.9770  137.3250 C   0  0  0  0  0  0  0  0  0  0  0  0
  189.6590  171.7420  140.8520 C   0  0  0  0  0  2  0  0  0  0  0  0
  188.8740  174.9930  135.1440 O   0  0  0  0  0  1  0  0  0  0  0  0
  190.9780  171.9910  140.1480 C   0  0  1  0  0  3  0  0  0  0  0  0
  188.7690  173.3210  140.9010 S   0  0  0  0  0  0  0  0  0  0  0  0
  190.1300  170.7880  138.0830 C   0  0  0  0  0  1  0  0  0  0  0  0
  192.1200  171.0350  140.5500 C   0  0  1  0  0  0  0  0  0  0  0  0
  194.6080  171.1690  140.4880 O   0  0  0  0  0  1  0  0  0  0  0  0
  186.8660  175.8230  136.8930 F   0  0  0  0  0  0  0  0  0  0  0  0
  187.8220  174.5420  138.6510 C   0  0  0  0  0  3  0  0  0  0  0  0
  189.8310  173.2150  138.2470 C   0  0  0  0  0  0  0  0  0  0  0  0
  189.8190  173.6660  136.9140 C   0  0  0  0  0  3  0  0  0  0  0  0
  193.2970  171.3420  138.4240 C   0  0  1  0  0  3  0  0  0  0  0  0
  188.8100  173.6730  139.1280 C   0  0  0  0  0  0  0  0  0  0  0  0
  190.7710  172.0770  138.6080 C   0  0  1  0  0  0  0  0  0  0  0  0
  192.1530  172.2510  137.9030 C   0  0  0  0  0  2  0  0  0  0  0  0
  193.3990  171.5710  139.9170 C   0  0  1  0  0  0  0  0  0  0  0  0
  188.8430  174.5530  136.4600 C   0  0  0  0  0  0  0  0  0  0  0  0
  190.0400  177.8960  147.6370 O   0  0  0  0  0  1  0  0  0  0  0  0
  190.8070  177.4670  146.5490 C   0  0  0  0  0  2  0  0  0  0  0  0
  188.5190  178.2530  142.8910 O   0  0  0  0  0  0  0  0  0  0  0  0
  188.0020  177.8310  141.6340 C   0  0  0  0  0  2  0  0  0  0  0  0
  186.5810  177.3160  141.7980 C   0  0  0  0  0  2  0  0  0  0  0  0
  185.4790  178.7150  143.3580 C   0  0  0  0  0  2  0  0  0  0  0  0
  184.4790  177.9110  142.6630 C   0  0  2  0  0  3  0  0  0  0  0  0
  185.6410  178.4240  141.9220 N   0  0  0  0  0  0  0  0  0  0  0  0
  183.2660  178.7650  142.3250 C   0  0  2  0  0  3  0  0  0  0  0  0
  182.5330  179.0380  143.4850 O   0  0  0  0  0  1  0  0  0  0  0  0
  183.1210  177.8870  140.1030 O   0  0  0  0  0  1  0  0  0  0  0  0
  181.1330  178.8810  140.9670 C   0  0  0  0  0  1  0  0  0  0  0  0
  182.3900  178.0800  141.2750 C   0  0  2  0  0  3  0  0  0  0  0  0
  193.2100  176.7360  142.0520 C   0  0  0  0  0  2  0  0  0  0  0  0
  193.4820  174.5570  141.1290 O   0  0  0  0  0  0  0  0  0  0  0  0
  193.8990  175.7440  141.1800 C   0  0  0  0  0  0  0  0  0  0  0  0
  195.0020  176.1500  140.4280 O   0  0  0  0  0  0  0  0  0  0  0  0
  195.9130  175.2170  139.8560 C   0  0  1  0  0  3  0  0  0  0  0  0
  196.3920  174.2130  140.9080 C   0  0  1  0  0  3  0  0  0  0  0  0
  197.1670  173.2160  140.3110 O   0  0  0  0  0  1  0  0  0  0  0  0
  197.1730  174.8770  142.0480 C   0  0  0  0  0  2  0  0  0  0  0  0
  196.6730  174.4750  143.4370 C   0  0  2  0  0  3  0  0  0  0  0  0
  195.6020  173.5830  143.3370 O   0  0  0  0  0  1  0  0  0  0  0  0
  196.5540  176.9210  143.4910 N   0  0  0  0  0  1  0  0  0  0  0  0
  196.2610  175.7050  144.2330 C   0  0  0  0  0  2  0  0  0  0  0  0
  195.2820  174.5180  138.6520 C   0  0  0  0  0  2  0  0  0  0  0  0
  195.4850  175.2840  137.4260 N   0  0  0  0  0  2  0  0  0  0  0  0
  194.9760  174.5260  136.3590 N   0  0  0  0  0  2  0  0  0  0  0  0
  193.1240  176.3870  135.8350 S   0  0  0  0  0  0  0  0  0  0  0  0
  193.2350  174.0000  134.6980 N   0  0  0  0  0  1  0  0  0  0  0  0
  193.8050  174.9100  135.6330 C   0  0  0  0  0  0  0  0  0  0  0  0
  1 37  1  0  0  0  0
  2  4  2  0  0  0  0
  2  3  1  0  0  0  0
  3  5  1  0  0  0  0
  4  7  1  0  0  0  0
  5  9  1  6  0  0  0
  5  1  1  0  0  0  0
  7  6  1  6  0  0  0
  7  1  1  0  0  0  0
  8  3  2  0  0  0  0
  9 11  1  0  0  0  0
  9 10  1  1  0  0  0
 11 12  1  1  0  0  0
 13 11  1  0  0  0  0
 15 13  1  0  0  0  0
 15 14  1  1  0  0  0
 16 15  1  0  0  0  0
 17 34  1  0  0  0  0
 17 24  1  0  0  0  0
 18 27  1  0  0  0  0
 19 22  1  0  0  0  0
 20 35  1  0  0  0  0
 21 24  1  0  0  0  0
 21 19  1  0  0  0  0
 23 32  1  0  0  0  0
 24 16  1  0  0  0  0
 26 18  1  0  0  0  0
 27 31  2  0  0  0  0
 28 32  1  0  0  0  0
 28 31  1  0  0  0  0
 29 28  2  0  0  0  0
 30 17  1  0  0  0  0
 30 34  1  0  0  0  0
 31 22  1  0  0  0  0
 32 21  1  0  0  0  0
 33 30  1  0  0  0  0
 33 32  1  0  0  0  0
 34 25  1  0  0  0  0
 34 24  1  0  0  0  0
 35 29  1  0  0  0  0
 35 18  2  0  0  0  0
 37 36  1  0  0  0  0
 38  4  1  0  0  0  0
 39 40  1  0  0  0  0
 39 38  1  0  0  0  0
 40 43  1  0  0  0  0
 42 41  1  0  0  0  0
 43 42  1  0  0  0  0
 43 41  1  0  0  0  0
 44 42  1  0  0  0  0
 44 45  1  0  0  0  0
 46 48  1  0  0  0  0
 47 48  1  0  0  0  0
 48 44  1  0  0  0  0
 49  8  1  0  0  0  0
 50 51  2  0  0  0  0
 51 49  1  0  0  0  0
 52 51  1  0  0  0  0
 53 52  1  0  0  0  0
 53 54  1  0  0  0  0
 54 56  1  0  0  0  0
 55 54  1  0  0  0  0
 56 57  1  0  0  0  0
 57 60  1  0  0  0  0
 58 57  1  0  0  0  0
 59 60  1  0  0  0  0
 61 53  1  0  0  0  0
 62 61  1  0  0  0  0
 63 62  1  0  0  0  0
 65 66  1  0  0  0  0
 66 64  2  0  0  0  0
 66 63  1  0  0  0  0
M  END
>  <MODEL>
7

>  <REMARK>
 VINA RESULT:      -4.8      3.049      8.284
  Name = 
  25 active torsions:
  status: ('A' for Active; 'I' for Inactive)
    1  A    between atoms: C_1  and  C_5
    2  A    between atoms: C_1  and  C_20
    3  A    between atoms: C_2  and  C_35
    4  A    between atoms: C_2  and  C_64
    5  A    between atoms: N_3  and  C_60
    6  A    between atoms: C_5  and  C_53
    7  A    between atoms: C_5  and  O_58
    8  A    between atoms: S_9  and  C_23
    9  A    between atoms: S_9  and  C_28
   10  A    between atoms: C_10  and  O_32
   11  A    between atoms: C_10  and  C_54
   12  A    between atoms: C_13  and  C_20
   13  A    between atoms: C_13  and  C_48
   14  A    between atoms: C_19  and  N_40
   15  A    between atoms: C_19  and  C_43
   16  A    between atoms: C_23  and  N_40
   17  A    between atoms: C_27  and  C_49
   18  A    between atoms: C_27  and  C_51
   19  A    between atoms: C_31  and  O_32
   20  A    between atoms: C_35  and  O_58
   21  A    between atoms: C_37  and  C_43
   22  A    between atoms: N_41  and  C_53
   23  A    between atoms: N_41  and  N_59
   24  A    between atoms: C_47  and  N_59
   25  A    between atoms: C_54  and  N_62
                            x       y       z     vdW  Elec       q    Type
                         _______ _______ _______ _____ _____    ______ ____

>  <TORSDO>
F 25

$$$$
=
 OpenBabel11042416203D

 66 72  0  0  1  0  0  0  0  0999 V2000
  197.1590  174.5970  142.2760 N   0  0  0  0  0  0  0  0  0  0  0  0
  195.9760  173.2810  140.0400 N   0  0  0  0  0  0  0  0  0  0  0  0
  195.2750  173.3410  141.2810 C   0  0  0  0  0  0  0  0  0  0  0  0
  197.0860  173.9250  139.8370 C   0  0  0  0  0  0  0  0  0  0  0  0
  195.7110  174.3280  142.3200 C   0  0  2  0  0  3  0  0  0  0  0  0
  197.8520  176.2060  140.5350 C   0  0  0  0  0  1  0  0  0  0  0  0
  197.7440  174.7430  140.9260 C   0  0  1  0  0  3  0  0  0  0  0  0
  194.2400  172.5370  141.5250 C   0  0  0  0  0  3  0  0  0  0  0  0
  194.8410  175.6030  142.3400 C   0  0  2  0  0  3  0  0  0  0  0  0
  195.0850  176.5360  141.1560 C   0  0  0  0  0  1  0  0  0  0  0  0
  194.8710  176.3280  143.6930 C   0  0  2  0  0  3  0  0  0  0  0  0
  196.2560  176.8970  143.9680 C   0  0  0  0  0  1  0  0  0  0  0  0
  194.4660  175.4320  144.7750 N   0  0  0  0  0  2  0  0  0  0  0  0
  193.0490  175.8180  146.6980 C   0  0  0  0  0  1  0  0  0  0  0  0
  193.1020  175.7470  145.1840 C   0  0  2  0  0  3  0  0  0  0  0  0
  191.9400  174.4740  144.5750 S   0  0  0  0  0  0  0  0  0  0  0  0
  190.3740  174.9170  146.9730 C   0  0  1  0  0  3  0  0  0  0  0  0
  185.5330  179.4150  144.3040 C   0  0  0  0  0  0  0  0  0  0  0  0
  190.1580  177.2270  144.0450 C   0  0  0  0  0  2  0  0  0  0  0  0
  184.2040  179.0400  146.2880 O   0  0  0  0  0  1  0  0  0  0  0  0
  189.4990  176.1370  144.8660 C   0  0  1  0  0  3  0  0  0  0  0  0
  188.9410  177.7960  142.8280 S   0  0  0  0  0  0  0  0  0  0  0  0
  189.2880  177.7170  146.8390 C   0  0  0  0  0  1  0  0  0  0  0  0
  190.4690  175.1010  145.4710 C   0  0  1  0  0  0  0  0  0  0  0  0
  190.2390  172.7450  146.2480 O   0  0  0  0  0  1  0  0  0  0  0  0
  184.6280  180.3100  143.8420 F   0  0  0  0  0  0  0  0  0  0  0  0
  186.6640  179.1230  143.5400 C   0  0  0  0  0  3  0  0  0  0  0  0
  187.4320  177.5550  145.2470 C   0  0  0  0  0  0  0  0  0  0  0  0
  186.2840  177.8670  145.9990 C   0  0  0  0  0  3  0  0  0  0  0  0
  188.9320  174.5350  147.2920 C   0  0  1  0  0  3  0  0  0  0  0  0
  187.6130  178.1980  143.9890 C   0  0  0  0  0  0  0  0  0  0  0  0
  188.5320  176.7520  145.9190 C   0  0  1  0  0  0  0  0  0  0  0  0
  187.9310  175.6140  146.8040 C   0  0  0  0  0  2  0  0  0  0  0  0
  189.6200  173.9820  146.0630 C   0  0  1  0  0  0  0  0  0  0  0  0
  185.3340  178.7710  145.5270 C   0  0  0  0  0  0  0  0  0  0  0  0
  197.7920  173.6980  144.3370 O   0  0  0  0  0  1  0  0  0  0  0  0
  197.8530  173.5060  142.9540 C   0  0  0  0  0  2  0  0  0  0  0  0
  197.7050  173.8810  138.5870 O   0  0  0  0  0  0  0  0  0  0  0  0
  197.3540  172.9210  137.5970 C   0  0  0  0  0  2  0  0  0  0  0  0
  197.9400  171.5630  137.9540 C   0  0  0  0  0  2  0  0  0  0  0  0
  197.6720  169.2300  137.6590 C   0  0  0  0  0  2  0  0  0  0  0  0
  197.2120  169.9090  136.4530 C   0  0  2  0  0  3  0  0  0  0  0  0
  196.9500  170.5090  137.7690 N   0  0  0  0  0  0  0  0  0  0  0  0
  195.9330  169.2620  135.9450 C   0  0  2  0  0  3  0  0  0  0  0  0
  196.1660  168.6370  134.7150 O   0  0  0  0  0  1  0  0  0  0  0  0
  193.5790  169.6360  135.7260 O   0  0  0  0  0  1  0  0  0  0  0  0
  194.9950  171.2140  134.6340 C   0  0  0  0  0  1  0  0  0  0  0  0
  194.8060  170.2900  135.8280 C   0  0  2  0  0  3  0  0  0  0  0  0
  193.7590  171.5140  140.5450 C   0  0  0  0  0  2  0  0  0  0  0  0
  193.1720  172.6280  138.5220 O   0  0  0  0  0  0  0  0  0  0  0  0
  192.7730  172.1060  139.5970 C   0  0  0  0  0  0  0  0  0  0  0  0
  191.4160  172.0700  139.9170 O   0  0  0  0  0  0  0  0  0  0  0  0
  190.7050  170.8450  140.0660 C   0  0  1  0  0  3  0  0  0  0  0  0
  190.2930  170.6320  141.5240 C   0  0  1  0  0  3  0  0  0  0  0  0
  190.9130  169.4920  142.0430 O   0  0  0  0  0  1  0  0  0  0  0  0
  190.5960  171.8460  142.4080 C   0  0  0  0  0  2  0  0  0  0  0  0
  189.4040  172.7930  142.5630 C   0  0  2  0  0  3  0  0  0  0  0  0
  188.2020  172.0810  142.5390 O   0  0  0  0  0  1  0  0  0  0  0  0
  188.0600  174.1370  141.0180 N   0  0  0  0  0  1  0  0  0  0  0  0
  189.4140  173.8480  141.4660 C   0  0  0  0  0  2  0  0  0  0  0  0
  189.5010  170.8040  139.1240 C   0  0  0  0  0  2  0  0  0  0  0  0
  189.7360  171.6050  137.9270 N   0  0  0  0  0  2  0  0  0  0  0  0
  188.8150  172.6660  137.9350 N   0  0  0  0  0  2  0  0  0  0  0  0
  190.1230  173.9450  135.9800 S   0  0  0  0  0  0  0  0  0  0  0  0
  188.2530  175.0250  137.5080 N   0  0  0  0  0  1  0  0  0  0  0  0
  189.0270  173.8730  137.1960 C   0  0  0  0  0  0  0  0  0  0  0  0
  1  5  1  0  0  0  0
  1 37  1  0  0  0  0
  2  3  1  0  0  0  0
  3  8  2  0  0  0  0
  3  5  1  0  0  0  0
  4  2  2  0  0  0  0
  4  7  1  0  0  0  0
  5  9  1  6  0  0  0
  7  6  1  6  0  0  0
  7  1  1  0  0  0  0
  9 10  1  6  0  0  0
  9 11  1  0  0  0  0
 11 12  1  1  0  0  0
 11 13  1  0  0  0  0
 13 15  1  0  0  0  0
 15 14  1  1  0  0  0
 16 15  1  0  0  0  0
 16 24  1  0  0  0  0
 17 30  1  0  0  0  0
 18 35  1  0  0  0  0
 19 21  1  0  0  0  0
 21 24  1  0  0  0  0
 21 32  1  0  0  0  0
 22 31  1  0  0  0  0
 22 19  1  0  0  0  0
 24 34  1  0  0  0  0
 24 17  1  0  0  0  0
 26 18  1  0  0  0  0
 27 31  1  0  0  0  0
 27 18  2  0  0  0  0
 28 32  1  0  0  0  0
 28 29  1  0  0  0  0
 31 28  2  0  0  0  0
 32 33  1  0  0  0  0
 32 23  1  0  0  0  0
 33 30  1  0  0  0  0
 34 25  1  0  0  0  0
 34 17  1  0  0  0  0
 34 30  1  0  0  0  0
 35 29  2  0  0  0  0
 35 20  1  0  0  0  0
 37 36  1  0  0  0  0
 38  4  1  0  0  0  0
 39 40  1  0  0  0  0
 39 38  1  0  0  0  0
 41 43  1  0  0  0  0
 42 41  1  0  0  0  0
 42 43  1  0  0  0  0
 43 40  1  0  0  0  0
 44 42  1  0  0  0  0
 45 44  1  0  0  0  0
 46 48  1  0  0  0  0
 47 48  1  0  0  0  0
 48 44  1  0  0  0  0
 49  8  1  0  0  0  0
 50 51  2  0  0  0  0
 51 52  1  0  0  0  0
 51 49  1  0  0  0  0
 52 53  1  0  0  0  0
 53 54  1  0  0  0  0
 54 55  1  0  0  0  0
 54 56  1  0  0  0  0
 56 57  1  0  0  0  0
 58 57  1  0  0  0  0
 59 60  1  0  0  0  0
 60 57  1  0  0  0  0
 61 53  1  0  0  0  0
 62 63  1  0  0  0  0
 62 61  1  0  0  0  0
 64 66  2  0  0  0  0
 66 65  1  0  0  0  0
 66 63  1  0  0  0  0
M  END
>  <MODEL>
8

>  <REMARK>
 VINA RESULT:      -4.6      3.747      8.843
  Name = 
  25 active torsions:
  status: ('A' for Active; 'I' for Inactive)
    1  A    between atoms: C_1  and  C_5
    2  A    between atoms: C_1  and  C_20
    3  A    between atoms: C_2  and  C_35
    4  A    between atoms: C_2  and  C_64
    5  A    between atoms: N_3  and  C_60
    6  A    between atoms: C_5  and  C_53
    7  A    between atoms: C_5  and  O_58
    8  A    between atoms: S_9  and  C_23
    9  A    between atoms: S_9  and  C_28
   10  A    between atoms: C_10  and  O_32
   11  A    between atoms: C_10  and  C_54
   12  A    between atoms: C_13  and  C_20
   13  A    between atoms: C_13  and  C_48
   14  A    between atoms: C_19  and  N_40
   15  A    between atoms: C_19  and  C_43
   16  A    between atoms: C_23  and  N_40
   17  A    between atoms: C_27  and  C_49
   18  A    between atoms: C_27  and  C_51
   19  A    between atoms: C_31  and  O_32
   20  A    between atoms: C_35  and  O_58
   21  A    between atoms: C_37  and  C_43
   22  A    between atoms: N_41  and  C_53
   23  A    between atoms: N_41  and  N_59
   24  A    between atoms: C_47  and  N_59
   25  A    between atoms: C_54  and  N_62
                            x       y       z     vdW  Elec       q    Type
                         _______ _______ _______ _____ _____    ______ ____

>  <TORSDO>
F 25

$$$$
=
 OpenBabel11042416203D

 66 72  0  0  1  0  0  0  0  0999 V2000
  191.9850  170.2950  139.7520 N   0  0  0  0  0  0  0  0  0  0  0  0
  190.0930  172.2560  138.9150 N   0  0  0  0  0  0  0  0  0  0  0  0
  190.8240  172.4450  140.1250 C   0  0  0  0  0  0  0  0  0  0  0  0
  190.3510  171.2840  138.0930 C   0  0  0  0  0  0  0  0  0  0  0  0
  192.0550  171.6300  140.3720 C   0  0  2  0  0  3  0  0  0  0  0  0
  192.5070  170.2540  137.3390 C   0  0  0  0  0  1  0  0  0  0  0  0
  191.4130  170.2480  138.3900 C   0  0  1  0  0  3  0  0  0  0  0  0
  190.4270  173.3370  141.0350 C   0  0  0  0  0  3  0  0  0  0  0  0
  193.3570  172.3960  140.0540 C   0  0  2  0  0  3  0  0  0  0  0  0
  193.8190  172.2550  138.6050 C   0  0  0  0  0  1  0  0  0  0  0  0
  194.4750  172.1260  141.0720 C   0  0  2  0  0  3  0  0  0  0  0  0
  195.7050  172.9630  140.7530 C   0  0  0  0  0  1  0  0  0  0  0  0
  194.8200  170.7070  141.1050 N   0  0  0  0  0  2  0  0  0  0  0  0
  196.8420  169.4710  141.5960 C   0  0  0  0  0  1  0  0  0  0  0  0
  195.8350  170.4740  142.1260 C   0  0  2  0  0  3  0  0  0  0  0  0
  195.0680  169.8420  143.6590 S   0  0  0  0  0  0  0  0  0  0  0  0
  195.9110  172.5060  144.4280 C   0  0  1  0  0  3  0  0  0  0  0  0
  189.5790  175.1400  146.3700 C   0  0  0  0  0  0  0  0  0  0  0  0
  192.3270  171.7180  143.7270 C   0  0  0  0  0  2  0  0  0  0  0  0
  190.7520  176.9680  147.4330 O   0  0  0  0  0  1  0  0  0  0  0  0
  193.3890  172.0280  144.7620 C   0  0  1  0  0  3  0  0  0  0  0  0
  190.7310  171.6900  144.5860 S   0  0  0  0  0  0  0  0  0  0  0  0
  193.6340  174.3790  143.8410 C   0  0  0  0  0  1  0  0  0  0  0  0
  194.7940  171.4800  144.4360 C   0  0  1  0  0  0  0  0  0  0  0  0
  196.7960  170.8950  145.8010 O   0  0  0  0  0  1  0  0  0  0  0  0
  188.3860  175.6880  146.6990 F   0  0  0  0  0  0  0  0  0  0  0  0
  189.6140  173.9270  145.6800 C   0  0  0  0  0  3  0  0  0  0  0  0
  192.0540  173.9810  145.6730 C   0  0  0  0  0  0  0  0  0  0  0  0
  191.9940  175.2040  146.3670 C   0  0  0  0  0  3  0  0  0  0  0  0
  195.9150  173.1820  145.7950 C   0  0  1  0  0  3  0  0  0  0  0  0
  190.8320  173.3350  145.3320 C   0  0  0  0  0  0  0  0  0  0  0  0
  193.3950  173.5460  145.1050 C   0  0  1  0  0  0  0  0  0  0  0  0
  194.5510  173.8510  146.1090 C   0  0  0  0  0  2  0  0  0  0  0  0
  195.6590  171.6950  145.6730 C   0  0  1  0  0  0  0  0  0  0  0  0
  190.7730  175.7700  146.7310 C   0  0  0  0  0  0  0  0  0  0  0  0
  192.0250  168.6530  141.4150 O   0  0  0  0  0  1  0  0  0  0  0  0
  191.1830  169.4280  140.6110 C   0  0  0  0  0  2  0  0  0  0  0  0
  189.6480  171.1730  136.8920 O   0  0  0  0  0  0  0  0  0  0  0  0
  189.8970  172.0300  135.7830 C   0  0  0  0  0  2  0  0  0  0  0  0
  189.0910  173.3120  135.9200 C   0  0  0  0  0  2  0  0  0  0  0  0
  190.1060  175.2550  135.0260 C   0  0  0  0  0  2  0  0  0  0  0  0
  191.1530  174.3060  135.3900 C   0  0  2  0  0  3  0  0  0  0  0  0
  189.9610  174.4370  136.2430 N   0  0  0  0  0  0  0  0  0  0  0  0
  192.3120  175.0360  136.0510 C   0  0  2  0  0  3  0  0  0  0  0  0
  192.2650  176.3980  135.7340 O   0  0  0  0  0  1  0  0  0  0  0  0
  194.5230  175.4350  135.2290 O   0  0  0  0  0  1  0  0  0  0  0  0
  193.4950  173.4030  134.5230 C   0  0  0  0  0  1  0  0  0  0  0  0
  193.6520  174.4260  135.6380 C   0  0  2  0  0  3  0  0  0  0  0  0
  189.1980  174.1740  140.8680 C   0  0  0  0  0  2  0  0  0  0  0  0
  187.9240  172.8610  142.3940 O   0  0  0  0  0  0  0  0  0  0  0  0
  188.2820  174.0140  142.0310 C   0  0  0  0  0  0  0  0  0  0  0  0
  187.8330  175.1490  142.7060 O   0  0  0  0  0  0  0  0  0  0  0  0
  187.5970  176.3830  142.0370 C   0  0  1  0  0  3  0  0  0  0  0  0
  186.4200  177.1280  142.6720 C   0  0  1  0  0  3  0  0  0  0  0  0
  185.3570  177.2160  141.7710 O   0  0  0  0  0  1  0  0  0  0  0  0
  185.9500  176.4840  143.9810 C   0  0  0  0  0  2  0  0  0  0  0  0
  185.9070  177.4640  145.1550 C   0  0  2  0  0  3  0  0  0  0  0  0
  185.6460  176.7910  146.3520 O   0  0  0  0  0  1  0  0  0  0  0  0
  185.4710  179.7550  144.4050 N   0  0  0  0  0  1  0  0  0  0  0  0
  184.8560  178.5390  144.9150 C   0  0  0  0  0  2  0  0  0  0  0  0
  188.8660  177.2380  142.0200 C   0  0  0  0  0  2  0  0  0  0  0  0
  189.7030  176.9670  143.1840 N   0  0  0  0  0  2  0  0  0  0  0  0
  190.7790  177.8690  143.1550 N   0  0  0  0  0  2  0  0  0  0  0  0
  193.0290  176.9130  142.0640 S   0  0  0  0  0  0  0  0  0  0  0  0
  192.7310  177.5310  144.6190 N   0  0  0  0  0  1  0  0  0  0  0  0
  192.1370  177.4530  143.3290 C   0  0  0  0  0  0  0  0  0  0  0  0
  1  5  1  0  0  0  0
  1 37  1  0  0  0  0
  2  3  1  0  0  0  0
  3  5  1  0  0  0  0
  3  8  2  0  0  0  0
  4  7  1  0  0  0  0
  4  2  2  0  0  0  0
  5  9  1  6  0  0  0
  7  6  1  6  0  0  0
  7  1  1  0  0  0  0
  9 10  1  6  0  0  0
  9 11  1  0  0  0  0
 11 12  1  6  0  0  0
 11 13  1  0  0  0  0
 13 15  1  0  0  0  0
 15 14  1  6  0  0  0
 15 16  1  0  0  0  0
 16 24  1  0  0  0  0
 17 24  1  0  0  0  0
 17 34  1  0  0  0  0
 17 30  1  0  0  0  0
 18 26  1  0  0  0  0
 18 35  1  0  0  0  0
 19 22  1  0  0  0  0
 19 21  1  0  0  0  0
 21 32  1  0  0  0  0
 22 31  1  0  0  0  0
 23 32  1  0  0  0  0
 24 21  1  0  0  0  0
 24 34  1  0  0  0  0
 27 18  2  0  0  0  0
 28 29  1  0  0  0  0
 29 35  2  0  0  0  0
 30 33  1  0  0  0  0
 31 28  2  0  0  0  0
 31 27  1  0  0  0  0
 32 28  1  0  0  0  0
 32 33  1  0  0  0  0
 34 30  1  0  0  0  0
 34 25  1  0  0  0  0
 35 20  1  0  0  0  0
 37 36  1  0  0  0  0
 38  4  1  0  0  0  0
 39 40  1  0  0  0  0
 39 38  1  0  0  0  0
 40 43  1  0  0  0  0
 41 42  1  0  0  0  0
 41 43  1  0  0  0  0
 42 44  1  0  0  0  0
 42 43  1  0  0  0  0
 45 44  1  0  0  0  0
 46 48  1  0  0  0  0
 47 48  1  0  0  0  0
 48 44  1  0  0  0  0
 49  8  1  0  0  0  0
 49 51  1  0  0  0  0
 51 50  2  0  0  0  0
 51 52  1  0  0  0  0
 53 54  1  0  0  0  0
 53 52  1  0  0  0  0
 54 56  1  0  0  0  0
 55 54  1  0  0  0  0
 56 57  1  0  0  0  0
 57 58  1  0  0  0  0
 59 60  1  0  0  0  0
 60 57  1  0  0  0  0
 61 53  1  0  0  0  0
 61 62  1  0  0  0  0
 63 62  1  0  0  0  0
 63 66  1  0  0  0  0
 64 66  2  0  0  0  0
 66 65  1  0  0  0  0
M  END
>  <MODEL>
9

>  <REMARK>
 VINA RESULT:      -4.6      3.250      6.798
  Name = 
  25 active torsions:
  status: ('A' for Active; 'I' for Inactive)
    1  A    between atoms: C_1  and  C_5
    2  A    between atoms: C_1  and  C_20
    3  A    between atoms: C_2  and  C_35
    4  A    between atoms: C_2  and  C_64
    5  A    between atoms: N_3  and  C_60
    6  A    between atoms: C_5  and  C_53
    7  A    between atoms: C_5  and  O_58
    8  A    between atoms: S_9  and  C_23
    9  A    between atoms: S_9  and  C_28
   10  A    between atoms: C_10  and  O_32
   11  A    between atoms: C_10  and  C_54
   12  A    between atoms: C_13  and  C_20
   13  A    between atoms: C_13  and  C_48
   14  A    between atoms: C_19  and  N_40
   15  A    between atoms: C_19  and  C_43
   16  A    between atoms: C_23  and  N_40
   17  A    between atoms: C_27  and  C_49
   18  A    between atoms: C_27  and  C_51
   19  A    between atoms: C_31  and  O_32
   20  A    between atoms: C_35  and  O_58
   21  A    between atoms: C_37  and  C_43
   22  A    between atoms: N_41  and  C_53
   23  A    between atoms: N_41  and  N_59
   24  A    between atoms: C_47  and  N_59
   25  A    between atoms: C_54  and  N_62
                            x       y       z     vdW  Elec       q    Type
                         _______ _______ _______ _____ _____    ______ ____

>  <TORSDO>
F 25

$$$$
