=
 OpenBabel11042418263D

 28 32  0  0  1  0  0  0  0  0999 V2000
  189.3380  175.3040  146.9180 C   0  0  0  0  0  3  0  0  0  0  0  0
  186.5540  176.1610  143.3480 C   0  0  0  0  0  3  0  0  0  0  0  0
  193.8970  174.5300  144.5830 N   0  0  0  0  0  0  0  0  0  0  0  0
  188.2030  175.9020  147.4530 C   0  0  0  0  0  3  0  0  0  0  0  0
  191.5950  175.1810  144.6680 C   0  0  0  0  0  0  0  0  0  0  0  0
  188.1750  176.0450  145.2220 C   0  0  0  0  0  0  0  0  0  0  0  0
  191.9900  176.5380  144.6520 C   0  0  0  0  0  0  0  0  0  0  0  0
  190.2140  174.8080  144.6980 N   0  0  0  0  0  2  0  0  0  0  0  0
  192.2170  172.8100  144.5740 N   0  0  0  0  0  1  0  0  0  0  0  0
  186.6690  177.6840  139.6180 Cl  0  0  0  0  0  0  0  0  0  0  0  0
  186.1960  176.5390  142.0510 C   0  0  0  0  0  3  0  0  0  0  0  0
  193.3530  176.8520  144.6430 C   0  0  0  0  0  3  0  0  0  0  0  0
  194.2990  175.8270  144.6120 C   0  0  0  0  0  3  0  0  0  0  0  0
  188.7600  177.1250  143.0240 C   0  0  0  0  0  0  0  0  0  0  0  0
  187.8350  176.4390  143.8420 C   0  0  0  0  0  0  0  0  0  0  0  0
  190.9930  177.6630  144.6230 C   0  0  2  0  0  3  0  0  0  0  0  0
  189.3040  175.4120  145.5770 N   0  0  0  0  0  0  0  0  0  0  0  0
  190.0520  177.4940  143.5080 N   0  0  0  0  0  0  0  0  0  0  0  0
  191.1520  178.3620  143.5340 O   0  0  0  0  0  0  0  0  0  0  0  0
  192.5810  174.1870  144.5990 C   0  0  0  0  0  0  0  0  0  0  0  0
  187.1170  177.2070  141.2410 C   0  0  0  0  0  0  0  0  0  0  0  0
  187.4780  176.3680  146.3680 C   0  0  0  0  0  0  0  0  0  0  0  0
  188.3910  177.5060  141.7290 C   0  0  0  0  0  3  0  0  0  0  0  0
  186.1770  177.0930  146.4500 C   0  0  0  0  0  2  0  0  0  0  0  0
  185.4400  180.2650  144.3630 C   0  0  0  0  0  1  0  0  0  0  0  0
  184.1920  178.2910  144.8070 O   0  0  0  0  0  0  0  0  0  0  0  0
  185.2600  178.9320  144.9940 C   0  0  0  0  0  0  0  0  0  0  0  0
  186.3000  178.3910  145.8080 N   0  0  0  0  0  2  0  0  0  0  0  0
  1  4  2  0  0  0  0
  2 15  1  0  0  0  0
  3 20  2  0  0  0  0
  3 13  1  0  0  0  0
  5  8  1  0  0  0  0
  6 17  1  0  0  0  0
  6 22  2  0  0  0  0
  7  5  2  0  0  0  0
  8 17  1  0  0  0  0
  9 20  1  0  0  0  0
 10 21  1  0  0  0  0
 11  2  2  0  0  0  0
 12  7  1  0  0  0  0
 13 12  2  0  0  0  0
 14 18  1  0  0  0  0
 14 15  2  0  0  0  0
 15  6  1  0  0  0  0
 16 19  1  6  0  0  0
 16  7  1  0  0  0  0
 17  1  1  0  0  0  0
 18 19  1  0  0  0  0
 18 16  1  0  0  0  0
 20  5  1  0  0  0  0
 21 23  2  0  0  0  0
 21 11  1  0  0  0  0
 22 24  1  0  0  0  0
 22  4  1  0  0  0  0
 23 14  1  0  0  0  0
 25 27  1  0  0  0  0
 26 27  2  0  0  0  0
 27 28  1  0  0  0  0
 28 24  1  0  0  0  0
M  END
>  <MODEL>
1

>  <REMARK>
 VINA RESULT:      -7.7      0.000      0.000
  Name = 
  2 active torsions:
  status: ('A' for Active; 'I' for Inactive)
    1  A    between atoms: C_18  and  C_26
    2  A    between atoms: C_18  and  N_28
                            x       y       z     vdW  Elec       q    Type
                         _______ _______ _______ _____ _____    ______ ____

>  <TORSDO>
F 2

$$$$
=
 OpenBabel11042418263D

 28 32  0  0  1  0  0  0  0  0999 V2000
  188.8570  177.4830  144.9730 C   0  0  0  0  0  3  0  0  0  0  0  0
  188.1600  173.9390  142.1110 C   0  0  0  0  0  3  0  0  0  0  0  0
  193.4370  176.2950  147.0820 N   0  0  0  0  0  0  0  0  0  0  0  0
  187.8680  177.8940  144.0870 C   0  0  0  0  0  3  0  0  0  0  0  0
  191.6420  176.0280  145.5200 C   0  0  0  0  0  0  0  0  0  0  0  0
  188.7720  175.9700  143.3970 C   0  0  0  0  0  0  0  0  0  0  0  0
  192.4320  176.6440  144.5240 C   0  0  0  0  0  0  0  0  0  0  0  0
  190.3230  175.5530  145.2360 N   0  0  0  0  0  2  0  0  0  0  0  0
  191.4340  175.1840  147.8140 N   0  0  0  0  0  1  0  0  0  0  0  0
  190.2320  171.2620  139.9230 Cl  0  0  0  0  0  0  0  0  0  0  0  0
  188.4890  172.8470  141.3040 C   0  0  0  0  0  3  0  0  0  0  0  0
  193.7080  177.1100  144.8570 C   0  0  0  0  0  3  0  0  0  0  0  0
  194.1960  176.9280  146.1510 C   0  0  0  0  0  3  0  0  0  0  0  0
  190.4970  174.5970  142.1790 C   0  0  0  0  0  0  0  0  0  0  0  0
  189.1550  174.8150  142.5620 C   0  0  0  0  0  0  0  0  0  0  0  0
  191.9580  176.7980  143.1050 C   0  0  2  0  0  3  0  0  0  0  0  0
  189.3930  176.3300  144.5310 N   0  0  0  0  0  0  0  0  0  0  0  0
  191.5360  175.5020  142.5560 N   0  0  0  0  0  0  0  0  0  0  0  0
  192.7540  176.1470  142.3040 O   0  0  0  0  0  0  0  0  0  0  0  0
  192.1890  175.8350  146.7970 C   0  0  0  0  0  0  0  0  0  0  0  0
  189.8190  172.6280  140.9360 C   0  0  0  0  0  0  0  0  0  0  0  0
  187.8280  176.9290  143.0930 C   0  0  0  0  0  0  0  0  0  0  0  0
  190.8170  173.5050  141.3660 C   0  0  0  0  0  3  0  0  0  0  0  0
  186.9170  176.9470  141.9130 C   0  0  0  0  0  2  0  0  0  0  0  0
  183.2920  178.2890  142.0550 C   0  0  0  0  0  1  0  0  0  0  0  0
  185.0380  178.5030  140.4560 O   0  0  0  0  0  0  0  0  0  0  0  0
  184.6690  178.0270  141.5620 C   0  0  0  0  0  0  0  0  0  0  0  0
  185.5610  177.2350  142.3470 N   0  0  0  0  0  2  0  0  0  0  0  0
  2 15  1  0  0  0  0
  4  1  2  0  0  0  0
  5 20  2  0  0  0  0
  6 17  1  0  0  0  0
  7 12  2  0  0  0  0
  7  5  1  0  0  0  0
  8  5  1  0  0  0  0
 10 21  1  0  0  0  0
 11  2  2  0  0  0  0
 12 13  1  0  0  0  0
 13  3  2  0  0  0  0
 14 18  1  0  0  0  0
 14 15  2  0  0  0  0
 15  6  1  0  0  0  0
 16 19  1  6  0  0  0
 16  7  1  0  0  0  0
 17  1  1  0  0  0  0
 17  8  1  0  0  0  0
 18 16  1  0  0  0  0
 19 18  1  0  0  0  0
 20  3  1  0  0  0  0
 20  9  1  0  0  0  0
 21 11  1  0  0  0  0
 21 23  2  0  0  0  0
 22  6  2  0  0  0  0
 22  4  1  0  0  0  0
 23 14  1  0  0  0  0
 24 28  1  0  0  0  0
 24 22  1  0  0  0  0
 26 27  2  0  0  0  0
 27 25  1  0  0  0  0
 27 28  1  0  0  0  0
M  END
>  <MODEL>
2

>  <REMARK>
 VINA RESULT:      -7.5      2.929      3.443
  Name = 
  2 active torsions:
  status: ('A' for Active; 'I' for Inactive)
    1  A    between atoms: C_18  and  C_26
    2  A    between atoms: C_18  and  N_28
                            x       y       z     vdW  Elec       q    Type
                         _______ _______ _______ _____ _____    ______ ____

>  <TORSDO>
F 2

$$$$
=
 OpenBabel11042418263D

 28 32  0  0  1  0  0  0  0  0999 V2000
  190.1490  178.2470  143.7070 C   0  0  0  0  0  3  0  0  0  0  0  0
  191.1720  174.2020  141.7510 C   0  0  0  0  0  3  0  0  0  0  0  0
  185.4980  177.3060  145.7860 N   0  0  0  0  0  0  0  0  0  0  0  0
  191.5180  178.2720  143.4680 C   0  0  0  0  0  3  0  0  0  0  0  0
  187.5490  176.6960  144.7120 C   0  0  0  0  0  0  0  0  0  0  0  0
  190.7100  176.2160  143.1230 C   0  0  0  0  0  0  0  0  0  0  0  0
  188.0310  176.1940  145.9410 C   0  0  0  0  0  0  0  0  0  0  0  0
  188.3370  176.6270  143.5190 N   0  0  0  0  0  2  0  0  0  0  0  0
  185.7190  177.7030  143.4250 N   0  0  0  0  0  1  0  0  0  0  0  0
  190.4360  170.2640  142.1960 Cl  0  0  0  0  0  0  0  0  0  0  0  0
  191.1140  172.8240  141.5290 C   0  0  0  0  0  3  0  0  0  0  0  0
  187.2310  176.3030  147.0830 C   0  0  0  0  0  3  0  0  0  0  0  0
  185.9600  176.8680  146.9860 C   0  0  0  0  0  3  0  0  0  0  0  0
  190.0110  173.9130  143.8650 C   0  0  0  0  0  0  0  0  0  0  0  0
  190.6160  174.7600  142.9090 C   0  0  0  0  0  0  0  0  0  0  0  0
  189.3720  175.5240  146.0630 C   0  0  2  0  0  3  0  0  0  0  0  0
  189.6880  176.9980  143.5030 N   0  0  0  0  0  0  0  0  0  0  0  0
  189.4940  174.4270  145.0930 N   0  0  0  0  0  0  0  0  0  0  0  0
  189.2110  174.2920  146.4590 O   0  0  0  0  0  0  0  0  0  0  0  0
  186.2510  177.2230  144.6560 C   0  0  0  0  0  0  0  0  0  0  0  0
  190.5060  171.9910  142.4710 C   0  0  0  0  0  0  0  0  0  0  0  0
  191.8600  176.9800  143.1030 C   0  0  0  0  0  0  0  0  0  0  0  0
  189.9640  172.5340  143.6380 C   0  0  0  0  0  3  0  0  0  0  0  0
  193.2350  176.5190  142.7560 C   0  0  0  0  0  2  0  0  0  0  0  0
  195.0630  175.2380  145.9140 C   0  0  0  0  0  1  0  0  0  0  0  0
  193.6680  174.1780  144.3080 O   0  0  0  0  0  0  0  0  0  0  0  0
  194.2200  175.2440  144.6910 C   0  0  0  0  0  0  0  0  0  0  0  0
  194.0470  176.4570  143.9590 N   0  0  0  0  0  2  0  0  0  0  0  0
  2 15  1  0  0  0  0
  3 13  1  0  0  0  0
  4  1  2  0  0  0  0
  5  7  2  0  0  0  0
  6 17  1  0  0  0  0
  7 12  1  0  0  0  0
  8  5  1  0  0  0  0
  9 20  1  0  0  0  0
 10 21  1  0  0  0  0
 11  2  2  0  0  0  0
 11 21  1  0  0  0  0
 13 12  2  0  0  0  0
 14 18  1  0  0  0  0
 15  6  1  0  0  0  0
 15 14  2  0  0  0  0
 16  7  1  6  0  0  0
 16 19  1  0  0  0  0
 17  8  1  0  0  0  0
 17  1  1  0  0  0  0
 18 16  1  0  0  0  0
 18 19  1  0  0  0  0
 20  5  1  0  0  0  0
 20  3  2  0  0  0  0
 21 23  2  0  0  0  0
 22  6  2  0  0  0  0
 22  4  1  0  0  0  0
 23 14  1  0  0  0  0
 24 22  1  0  0  0  0
 24 28  1  0  0  0  0
 26 27  2  0  0  0  0
 27 25  1  0  0  0  0
 28 27  1  0  0  0  0
M  END
>  <MODEL>
3

>  <REMARK>
 VINA RESULT:      -7.4      2.875      6.548
  Name = 
  2 active torsions:
  status: ('A' for Active; 'I' for Inactive)
    1  A    between atoms: C_18  and  C_26
    2  A    between atoms: C_18  and  N_28
                            x       y       z     vdW  Elec       q    Type
                         _______ _______ _______ _____ _____    ______ ____

>  <TORSDO>
F 2

$$$$
=
 OpenBabel11042418263D

 28 32  0  0  1  0  0  0  0  0999 V2000
  188.1740  174.7170  141.6430 C   0  0  0  0  0  3  0  0  0  0  0  0
  191.2130  176.7720  144.4310 C   0  0  0  0  0  3  0  0  0  0  0  0
  191.0560  171.0340  139.4140 N   0  0  0  0  0  0  0  0  0  0  0  0
  187.4230  175.4450  142.5580 C   0  0  0  0  0  3  0  0  0  0  0  0
  190.6180  172.7690  141.0050 C   0  0  0  0  0  0  0  0  0  0  0  0
  189.5680  175.3960  143.1830 C   0  0  0  0  0  0  0  0  0  0  0  0
  190.4070  171.7880  142.0000 C   0  0  0  0  0  0  0  0  0  0  0  0
  190.5240  174.1650  141.3040 N   0  0  0  0  0  2  0  0  0  0  0  0
  191.2350  173.3220  138.6960 N   0  0  0  0  0  1  0  0  0  0  0  0
  194.5650  175.9500  146.5120 Cl  0  0  0  0  0  0  0  0  0  0  0  0
  192.3680  176.9080  145.2040 C   0  0  0  0  0  3  0  0  0  0  0  0
  190.4900  170.4360  141.6530 C   0  0  0  0  0  3  0  0  0  0  0  0
  190.8150  170.0750  140.3460 C   0  0  0  0  0  3  0  0  0  0  0  0
  191.5600  174.3690  144.3330 C   0  0  0  0  0  0  0  0  0  0  0  0
  190.8040  175.5100  143.9810 C   0  0  0  0  0  0  0  0  0  0  0  0
  190.1160  172.1470  143.4310 C   0  0  2  0  0  3  0  0  0  0  0  0
  189.4580  174.6920  142.0460 N   0  0  0  0  0  0  0  0  0  0  0  0
  191.1440  173.0560  143.9570 N   0  0  0  0  0  0  0  0  0  0  0  0
  191.0580  171.6780  144.2010 O   0  0  0  0  0  0  0  0  0  0  0  0
  190.9770  172.3590  139.7130 C   0  0  0  0  0  0  0  0  0  0  0  0
  193.1190  175.7800  145.5410 C   0  0  0  0  0  0  0  0  0  0  0  0
  188.3170  175.8660  143.5280 C   0  0  0  0  0  0  0  0  0  0  0  0
  192.7120  174.5150  145.1120 C   0  0  0  0  0  3  0  0  0  0  0  0
  187.9670  176.6810  144.7270 C   0  0  0  0  0  2  0  0  0  0  0  0
  185.5680  179.6440  144.0750 C   0  0  0  0  0  1  0  0  0  0  0  0
  185.2780  177.5210  145.1040 O   0  0  0  0  0  0  0  0  0  0  0  0
  186.0650  178.3190  144.5270 C   0  0  0  0  0  0  0  0  0  0  0  0
  187.4290  177.9630  144.3040 N   0  0  0  0  0  2  0  0  0  0  0  0
  1 17  1  0  0  0  0
  1  4  2  0  0  0  0
  2 11  1  0  0  0  0
  3 20  2  0  0  0  0
  3 13  1  0  0  0  0
  4 22  1  0  0  0  0
  5  8  1  0  0  0  0
  5  7  2  0  0  0  0
  6 22  2  0  0  0  0
  6 15  1  0  0  0  0
  8 17  1  0  0  0  0
  9 20  1  0  0  0  0
 11 21  2  0  0  0  0
 12  7  1  0  0  0  0
 13 12  2  0  0  0  0
 14 23  2  0  0  0  0
 15 14  1  0  0  0  0
 15  2  2  0  0  0  0
 16  7  1  6  0  0  0
 16 18  1  0  0  0  0
 16 19  1  0  0  0  0
 17  6  1  0  0  0  0
 18 19  1  0  0  0  0
 18 14  1  0  0  0  0
 20  5  1  0  0  0  0
 21 10  1  0  0  0  0
 22 24  1  0  0  0  0
 23 21  1  0  0  0  0
 25 27  1  0  0  0  0
 27 26  2  0  0  0  0
 28 27  1  0  0  0  0
 28 24  1  0  0  0  0
M  END
>  <MODEL>
4

>  <REMARK>
 VINA RESULT:      -7.0      3.855      5.348
  Name = 
  2 active torsions:
  status: ('A' for Active; 'I' for Inactive)
    1  A    between atoms: C_18  and  C_26
    2  A    between atoms: C_18  and  N_28
                            x       y       z     vdW  Elec       q    Type
                         _______ _______ _______ _____ _____    ______ ____

>  <TORSDO>
F 2

$$$$
=
 OpenBabel11042418263D

 28 32  0  0  1  0  0  0  0  0999 V2000
  192.6800  175.1080  146.8950 C   0  0  0  0  0  3  0  0  0  0  0  0
  189.7010  173.0080  144.0750 C   0  0  0  0  0  3  0  0  0  0  0  0
  197.1380  174.6650  144.2940 N   0  0  0  0  0  0  0  0  0  0  0  0
  191.4140  175.5120  147.3050 C   0  0  0  0  0  3  0  0  0  0  0  0
  194.7640  174.5090  144.5560 C   0  0  0  0  0  0  0  0  0  0  0  0
  191.2850  174.4230  145.3570 C   0  0  0  0  0  0  0  0  0  0  0  0
  194.6120  175.6890  143.7940 C   0  0  0  0  0  0  0  0  0  0  0  0
  193.6290  173.8030  145.0680 N   0  0  0  0  0  2  0  0  0  0  0  0
  196.2370  172.7880  145.4960 N   0  0  0  0  0  1  0  0  0  0  0  0
  189.1460  172.2460  140.1570 Cl  0  0  0  0  0  0  0  0  0  0  0  0
  189.1980  172.5010  142.8750 C   0  0  0  0  0  3  0  0  0  0  0  0
  195.7530  176.3530  143.3320 C   0  0  0  0  0  3  0  0  0  0  0  0
  197.0170  175.8250  143.5970 C   0  0  0  0  0  3  0  0  0  0  0  0
  191.3660  174.2770  142.8440 C   0  0  0  0  0  0  0  0  0  0  0  0
  190.7900  173.8890  144.0740 C   0  0  0  0  0  0  0  0  0  0  0  0
  193.2620  176.2490  143.4400 C   0  0  2  0  0  3  0  0  0  0  0  0
  192.5770  174.4650  145.7170 N   0  0  0  0  0  0  0  0  0  0  0  0
  192.4320  175.2270  142.7880 N   0  0  0  0  0  0  0  0  0  0  0  0
  193.1200  176.2640  142.1440 O   0  0  0  0  0  0  0  0  0  0  0  0
  196.0520  173.9960  144.7650 C   0  0  0  0  0  0  0  0  0  0  0  0
  189.7770  172.8790  141.6610 C   0  0  0  0  0  0  0  0  0  0  0  0
  190.5420  175.0740  146.3210 C   0  0  0  0  0  0  0  0  0  0  0  0
  190.8520  173.7700  141.6470 C   0  0  0  0  0  3  0  0  0  0  0  0
  189.0660  175.2830  146.3240 C   0  0  0  0  0  2  0  0  0  0  0  0
  187.1300  178.1000  144.5150 C   0  0  0  0  0  1  0  0  0  0  0  0
  186.5010  176.4940  146.1500 O   0  0  0  0  0  0  0  0  0  0  0  0
  187.4180  176.9590  145.4200 C   0  0  0  0  0  0  0  0  0  0  0  0
  188.7300  176.3990  145.4560 N   0  0  0  0  0  2  0  0  0  0  0  0
  1  4  2  0  0  0  0
  3 20  1  0  0  0  0
  5 20  2  0  0  0  0
  5  8  1  0  0  0  0
  6 17  1  0  0  0  0
  6 22  2  0  0  0  0
  7  5  1  0  0  0  0
  8 17  1  0  0  0  0
 10 21  1  0  0  0  0
 11  2  2  0  0  0  0
 12 13  1  0  0  0  0
 12  7  2  0  0  0  0
 13  3  2  0  0  0  0
 14 15  2  0  0  0  0
 15  2  1  0  0  0  0
 15  6  1  0  0  0  0
 16 19  1  6  0  0  0
 16  7  1  0  0  0  0
 17  1  1  0  0  0  0
 18 14  1  0  0  0  0
 18 16  1  0  0  0  0
 19 18  1  0  0  0  0
 20  9  1  0  0  0  0
 21 11  1  0  0  0  0
 22 24  1  0  0  0  0
 22  4  1  0  0  0  0
 23 21  2  0  0  0  0
 23 14  1  0  0  0  0
 25 27  1  0  0  0  0
 27 28  1  0  0  0  0
 27 26  2  0  0  0  0
 28 24  1  0  0  0  0
M  END
>  <MODEL>
5

>  <REMARK>
 VINA RESULT:      -6.9      2.612      3.690
  Name = 
  2 active torsions:
  status: ('A' for Active; 'I' for Inactive)
    1  A    between atoms: C_18  and  C_26
    2  A    between atoms: C_18  and  N_28
                            x       y       z     vdW  Elec       q    Type
                         _______ _______ _______ _____ _____    ______ ____

>  <TORSDO>
F 2

$$$$
=
 OpenBabel11042418263D

 28 32  0  0  1  0  0  0  0  0999 V2000
  191.1690  173.7310  142.9400 C   0  0  0  0  0  3  0  0  0  0  0  0
  187.6460  176.3270  141.4970 C   0  0  0  0  0  3  0  0  0  0  0  0
  193.0010  176.4970  146.9190 N   0  0  0  0  0  0  0  0  0  0  0  0
  190.3840  172.9040  142.1460 C   0  0  0  0  0  3  0  0  0  0  0  0
  191.4150  175.9600  145.2090 C   0  0  0  0  0  0  0  0  0  0  0  0
  189.3190  174.8270  142.5490 C   0  0  0  0  0  0  0  0  0  0  0  0
  190.5650  175.3980  146.1880 C   0  0  0  0  0  0  0  0  0  0  0  0
  191.0370  175.9970  143.8290 N   0  0  0  0  0  2  0  0  0  0  0  0
  193.4880  177.1480  144.6570 N   0  0  0  0  0  1  0  0  0  0  0  0
  184.9630  178.9820  142.9110 Cl  0  0  0  0  0  0  0  0  0  0  0  0
  186.6350  177.2880  141.5720 C   0  0  0  0  0  3  0  0  0  0  0  0
  190.9880  175.3670  147.5210 C   0  0  0  0  0  3  0  0  0  0  0  0
  192.2190  175.9220  147.8700 C   0  0  0  0  0  3  0  0  0  0  0  0
  187.8500  176.3490  143.9180 C   0  0  0  0  0  0  0  0  0  0  0  0
  188.2680  175.8570  142.6610 C   0  0  0  0  0  0  0  0  0  0  0  0
  189.2070  174.8480  145.8520 C   0  0  2  0  0  3  0  0  0  0  0  0
  190.5030  174.8770  143.1780 N   0  0  0  0  0  0  0  0  0  0  0  0
  188.4050  175.8480  145.1350 N   0  0  0  0  0  0  0  0  0  0  0  0
  188.2910  175.5190  146.4920 O   0  0  0  0  0  0  0  0  0  0  0  0
  192.6260  176.5380  145.6120 C   0  0  0  0  0  0  0  0  0  0  0  0
  186.2320  177.7800  142.8160 C   0  0  0  0  0  0  0  0  0  0  0  0
  189.2150  173.6090  141.9090 C   0  0  0  0  0  0  0  0  0  0  0  0
  186.8330  177.3060  143.9840 C   0  0  0  0  0  3  0  0  0  0  0  0
  188.0610  173.1170  141.1040 C   0  0  0  0  0  2  0  0  0  0  0  0
  188.9900  172.8210  137.3600 C   0  0  0  0  0  1  0  0  0  0  0  0
  188.0220  174.5620  138.6570 O   0  0  0  0  0  0  0  0  0  0  0  0
  188.4870  173.3920  138.6370 C   0  0  0  0  0  0  0  0  0  0  0  0
  188.5380  172.6080  139.8290 N   0  0  0  0  0  2  0  0  0  0  0  0
  1 17  1  0  0  0  0
  2 11  2  0  0  0  0
  2 15  1  0  0  0  0
  3 13  1  0  0  0  0
  4  1  2  0  0  0  0
  5 20  1  0  0  0  0
  5  7  2  0  0  0  0
  6 15  1  0  0  0  0
  6 17  1  0  0  0  0
  7 12  1  0  0  0  0
  8  5  1  0  0  0  0
  9 20  1  0  0  0  0
 11 21  1  0  0  0  0
 12 13  2  0  0  0  0
 14 23  1  0  0  0  0
 14 18  1  0  0  0  0
 15 14  2  0  0  0  0
 16  7  1  1  0  0  0
 16 19  1  0  0  0  0
 17  8  1  0  0  0  0
 18 16  1  0  0  0  0
 18 19  1  0  0  0  0
 20  3  2  0  0  0  0
 21 10  1  0  0  0  0
 21 23  2  0  0  0  0
 22  4  1  0  0  0  0
 22  6  2  0  0  0  0
 24 22  1  0  0  0  0
 25 27  1  0  0  0  0
 27 26  2  0  0  0  0
 27 28  1  0  0  0  0
 28 24  1  0  0  0  0
M  END
>  <MODEL>
6

>  <REMARK>
 VINA RESULT:      -6.8      3.180      4.849
  Name = 
  2 active torsions:
  status: ('A' for Active; 'I' for Inactive)
    1  A    between atoms: C_18  and  C_26
    2  A    between atoms: C_18  and  N_28
                            x       y       z     vdW  Elec       q    Type
                         _______ _______ _______ _____ _____    ______ ____

>  <TORSDO>
F 2

$$$$
=
 OpenBabel11042418263D

 28 32  0  0  1  0  0  0  0  0999 V2000
  188.6930  174.8540  140.9230 C   0  0  0  0  0  3  0  0  0  0  0  0
  189.5140  177.2630  144.7640 C   0  0  0  0  0  3  0  0  0  0  0  0
  192.5950  171.4460  140.9200 N   0  0  0  0  0  0  0  0  0  0  0  0
  187.5090  175.5180  141.2190 C   0  0  0  0  0  3  0  0  0  0  0  0
  191.2190  173.1560  141.8770 C   0  0  0  0  0  0  0  0  0  0  0  0
  188.9450  175.7020  142.9220 C   0  0  0  0  0  0  0  0  0  0  0  0
  190.5670  172.1780  142.6610 C   0  0  0  0  0  0  0  0  0  0  0  0
  190.8710  174.5400  141.9730 N   0  0  0  0  0  2  0  0  0  0  0  0
  192.9680  173.7250  140.2540 N   0  0  0  0  0  1  0  0  0  0  0  0
  191.2020  176.8310  148.3980 Cl  0  0  0  0  0  0  0  0  0  0  0  0
  190.0330  177.5330  146.0330 C   0  0  0  0  0  3  0  0  0  0  0  0
  190.9290  170.8350  142.5160 C   0  0  0  0  0  3  0  0  0  0  0  0
  191.9500  170.4850  141.6330 C   0  0  0  0  0  3  0  0  0  0  0  0
  190.0360  174.9080  145.0480 C   0  0  0  0  0  0  0  0  0  0  0  0
  189.5190  175.9580  144.2570 C   0  0  0  0  0  0  0  0  0  0  0  0
  189.5060  172.5320  143.6660 C   0  0  2  0  0  3  0  0  0  0  0  0
  189.5360  174.9700  141.9660 N   0  0  0  0  0  0  0  0  0  0  0  0
  189.9990  173.5520  144.6020 N   0  0  0  0  0  0  0  0  0  0  0  0
  189.8960  172.1770  144.8580 O   0  0  0  0  0  0  0  0  0  0  0  0
  192.2640  172.7610  141.0290 C   0  0  0  0  0  0  0  0  0  0  0  0
  190.5540  176.4940  146.8080 C   0  0  0  0  0  0  0  0  0  0  0  0
  187.6810  176.0480  142.4870 C   0  0  0  0  0  0  0  0  0  0  0  0
  190.5480  175.1860  146.3190 C   0  0  0  0  0  3  0  0  0  0  0  0
  186.6650  176.8450  143.2330 C   0  0  0  0  0  2  0  0  0  0  0  0
  183.3780  178.3190  141.8260 C   0  0  0  0  0  1  0  0  0  0  0  0
  184.3570  178.3180  143.9920 O   0  0  0  0  0  0  0  0  0  0  0  0
  184.4530  177.9620  142.7870 C   0  0  0  0  0  0  0  0  0  0  0  0
  185.5850  177.2200  142.3360 N   0  0  0  0  0  2  0  0  0  0  0  0
  1  4  2  0  0  0  0
  1 17  1  0  0  0  0
  2 11  1  0  0  0  0
  3 20  2  0  0  0  0
  3 13  1  0  0  0  0
  4 22  1  0  0  0  0
  5  8  1  0  0  0  0
  5  7  2  0  0  0  0
  6 15  1  0  0  0  0
  9 20  1  0  0  0  0
 11 21  2  0  0  0  0
 12  7  1  0  0  0  0
 13 12  2  0  0  0  0
 14 23  2  0  0  0  0
 15  2  2  0  0  0  0
 15 14  1  0  0  0  0
 16  7  1  6  0  0  0
 16 18  1  0  0  0  0
 16 19  1  0  0  0  0
 17  8  1  0  0  0  0
 17  6  1  0  0  0  0
 18 19  1  0  0  0  0
 18 14  1  0  0  0  0
 20  5  1  0  0  0  0
 21 10  1  0  0  0  0
 22  6  2  0  0  0  0
 22 24  1  0  0  0  0
 23 21  1  0  0  0  0
 25 27  1  0  0  0  0
 27 26  2  0  0  0  0
 28 27  1  0  0  0  0
 28 24  1  0  0  0  0
M  END
>  <MODEL>
7

>  <REMARK>
 VINA RESULT:      -6.7      3.514      4.887
  Name = 
  2 active torsions:
  status: ('A' for Active; 'I' for Inactive)
    1  A    between atoms: C_18  and  C_26
    2  A    between atoms: C_18  and  N_28
                            x       y       z     vdW  Elec       q    Type
                         _______ _______ _______ _____ _____    ______ ____

>  <TORSDO>
F 2

$$$$
=
 OpenBabel11042418263D

 28 32  0  0  1  0  0  0  0  0999 V2000
  187.7750  174.9860  141.9010 C   0  0  0  0  0  3  0  0  0  0  0  0
  191.0010  177.5490  143.9640 C   0  0  0  0  0  3  0  0  0  0  0  0
  190.5620  171.0680  139.9750 N   0  0  0  0  0  0  0  0  0  0  0  0
  187.0940  175.8340  142.7680 C   0  0  0  0  0  3  0  0  0  0  0  0
  190.2200  173.0260  141.3090 C   0  0  0  0  0  0  0  0  0  0  0  0
  189.2950  175.9450  143.1450 C   0  0  0  0  0  0  0  0  0  0  0  0
  190.1620  172.2160  142.4650 C   0  0  0  0  0  0  0  0  0  0  0  0
  190.0970  174.4490  141.3900 N   0  0  0  0  0  2  0  0  0  0  0  0
  190.5600  173.2110  138.8860 N   0  0  0  0  0  1  0  0  0  0  0  0
  194.5910  177.1680  145.7560 Cl  0  0  0  0  0  0  0  0  0  0  0  0
  192.2260  177.8410  144.5700 C   0  0  0  0  0  3  0  0  0  0  0  0
  190.2670  170.8280  142.3310 C   0  0  0  0  0  3  0  0  0  0  0  0
  190.4660  170.2670  141.0690 C   0  0  0  0  0  3  0  0  0  0  0  0
  191.4420  175.1730  144.2110 C   0  0  0  0  0  0  0  0  0  0  0  0
  190.6030  176.2200  143.7700 C   0  0  0  0  0  0  0  0  0  0  0  0
  190.0110  172.7960  143.8440 C   0  0  2  0  0  3  0  0  0  0  0  0
  189.0940  175.0620  142.1550 N   0  0  0  0  0  0  0  0  0  0  0  0
  191.0480  173.8050  144.0990 N   0  0  0  0  0  0  0  0  0  0  0  0
  191.0500  172.4840  144.5670 O   0  0  0  0  0  0  0  0  0  0  0  0
  190.4570  172.4200  140.0670 C   0  0  0  0  0  0  0  0  0  0  0  0
  193.0580  176.8030  144.9940 C   0  0  0  0  0  0  0  0  0  0  0  0
  188.0690  176.4320  143.5510 C   0  0  0  0  0  0  0  0  0  0  0  0
  192.6640  175.4740  144.8220 C   0  0  0  0  0  3  0  0  0  0  0  0
  187.8130  177.4210  144.6360 C   0  0  0  0  0  2  0  0  0  0  0  0
  184.4400  177.6720  146.5120 C   0  0  0  0  0  1  0  0  0  0  0  0
  185.9390  179.3020  145.6500 O   0  0  0  0  0  0  0  0  0  0  0  0
  185.6850  178.0790  145.8120 C   0  0  0  0  0  0  0  0  0  0  0  0
  186.5820  177.0790  145.3280 N   0  0  0  0  0  2  0  0  0  0  0  0
  1 17  1  0  0  0  0
  1  4  2  0  0  0  0
  2 11  1  0  0  0  0
  3 20  2  0  0  0  0
  3 13  1  0  0  0  0
  4 22  1  0  0  0  0
  5  8  1  0  0  0  0
  5  7  2  0  0  0  0
  6 22  2  0  0  0  0
  6 15  1  0  0  0  0
  8 17  1  0  0  0  0
  9 20  1  0  0  0  0
 11 21  2  0  0  0  0
 12  7  1  0  0  0  0
 13 12  2  0  0  0  0
 14 23  2  0  0  0  0
 15  2  2  0  0  0  0
 15 14  1  0  0  0  0
 16  7  1  6  0  0  0
 16 18  1  0  0  0  0
 16 19  1  0  0  0  0
 17  6  1  0  0  0  0
 18 14  1  0  0  0  0
 18 19  1  0  0  0  0
 20  5  1  0  0  0  0
 21 10  1  0  0  0  0
 22 24  1  0  0  0  0
 23 21  1  0  0  0  0
 24 28  1  0  0  0  0
 26 27  2  0  0  0  0
 27 25  1  0  0  0  0
 28 27  1  0  0  0  0
M  END
>  <MODEL>
8

>  <REMARK>
 VINA RESULT:      -6.7      3.635      5.074
  Name = 
  2 active torsions:
  status: ('A' for Active; 'I' for Inactive)
    1  A    between atoms: C_18  and  C_26
    2  A    between atoms: C_18  and  N_28
                            x       y       z     vdW  Elec       q    Type
                         _______ _______ _______ _____ _____    ______ ____

>  <TORSDO>
F 2

$$$$
=
 OpenBabel11042418263D

 28 32  0  0  1  0  0  0  0  0999 V2000
  192.7600  174.4790  141.4430 C   0  0  0  0  0  3  0  0  0  0  0  0
  189.9530  176.9670  144.1200 C   0  0  0  0  0  3  0  0  0  0  0  0
  197.3160  175.0110  143.8500 N   0  0  0  0  0  0  0  0  0  0  0  0
  191.4680  174.0850  141.1140 C   0  0  0  0  0  3  0  0  0  0  0  0
  194.9410  175.2320  143.6450 C   0  0  0  0  0  0  0  0  0  0  0  0
  191.4430  175.3700  142.9430 C   0  0  0  0  0  0  0  0  0  0  0  0
  194.7740  174.1420  144.5280 C   0  0  0  0  0  0  0  0  0  0  0  0
  193.8160  175.9250  143.0970 N   0  0  0  0  0  2  0  0  0  0  0  0
  196.4420  176.7910  142.4900 N   0  0  0  0  0  1  0  0  0  0  0  0
  189.5570  178.1430  147.9540 Cl  0  0  0  0  0  0  0  0  0  0  0  0
  189.5090  177.6120  145.2770 C   0  0  0  0  0  3  0  0  0  0  0  0
  195.9060  173.4840  145.0210 C   0  0  0  0  0  3  0  0  0  0  0  0
  197.1780  173.9340  144.6660 C   0  0  0  0  0  3  0  0  0  0  0  0
  191.6140  175.7660  145.4240 C   0  0  0  0  0  0  0  0  0  0  0  0
  191.0100  176.0500  144.1790 C   0  0  0  0  0  0  0  0  0  0  0  0
  193.4180  173.6730  144.9770 C   0  0  2  0  0  3  0  0  0  0  0  0
  192.7200  175.2410  142.5510 N   0  0  0  0  0  0  0  0  0  0  0  0
  192.6470  174.7870  145.5450 N   0  0  0  0  0  0  0  0  0  0  0  0
  193.3190  173.7940  146.2720 O   0  0  0  0  0  0  0  0  0  0  0  0
  196.2390  175.6710  143.3460 C   0  0  0  0  0  0  0  0  0  0  0  0
  190.1150  177.3370  146.5050 C   0  0  0  0  0  0  0  0  0  0  0  0
  190.6460  174.6530  142.0740 C   0  0  0  0  0  0  0  0  0  0  0  0
  191.1590  176.4120  146.5780 C   0  0  0  0  0  3  0  0  0  0  0  0
  189.1640  174.5020  142.1360 C   0  0  0  0  0  2  0  0  0  0  0  0
  186.7530  177.1700  140.7120 C   0  0  0  0  0  1  0  0  0  0  0  0
  186.8100  175.9670  142.7620 O   0  0  0  0  0  0  0  0  0  0  0  0
  187.3520  176.1790  141.6440 C   0  0  0  0  0  0  0  0  0  0  0  0
  188.5360  175.4800  141.2640 N   0  0  0  0  0  2  0  0  0  0  0  0
  1 17  1  0  0  0  0
  2 15  2  0  0  0  0
  2 11  1  0  0  0  0
  3 13  1  0  0  0  0
  4  1  2  0  0  0  0
  4 22  1  0  0  0  0
  5  7  2  0  0  0  0
  6 15  1  0  0  0  0
  7 12  1  0  0  0  0
  8  5  1  0  0  0  0
  9 20  1  0  0  0  0
 11 21  2  0  0  0  0
 13 12  2  0  0  0  0
 14 18  1  0  0  0  0
 14 23  2  0  0  0  0
 15 14  1  0  0  0  0
 16  7  1  1  0  0  0
 16 18  1  0  0  0  0
 16 19  1  0  0  0  0
 17  6  1  0  0  0  0
 17  8  1  0  0  0  0
 18 19  1  0  0  0  0
 20  5  1  0  0  0  0
 20  3  2  0  0  0  0
 21 23  1  0  0  0  0
 21 10  1  0  0  0  0
 22 24  1  0  0  0  0
 22  6  2  0  0  0  0
 25 27  1  0  0  0  0
 27 26  2  0  0  0  0
 28 27  1  0  0  0  0
 28 24  1  0  0  0  0
M  END
>  <MODEL>
9

>  <REMARK>
 VINA RESULT:      -6.6      3.262      5.069
  Name = 
  2 active torsions:
  status: ('A' for Active; 'I' for Inactive)
    1  A    between atoms: C_18  and  C_26
    2  A    between atoms: C_18  and  N_28
                            x       y       z     vdW  Elec       q    Type
                         _______ _______ _______ _____ _____    ______ ____

>  <TORSDO>
F 2

$$$$
