=
 OpenBabel11042418333D

 37 41  0  0  1  0  0  0  0  0999 V2000
  192.4200  176.5150  144.2340 C   0  0  0  0  0  0  0  0  0  0  0  0
  185.9290  176.3660  143.4310 C   0  0  0  0  0  3  0  0  0  0  0  0
  192.9230  175.6960  143.2290 C   0  0  0  0  0  3  0  0  0  0  0  0
  190.7400  175.2190  142.4260 C   0  0  0  0  0  0  0  0  0  0  0  0
  186.5780  175.5790  142.4780 C   0  0  0  0  0  3  0  0  0  0  0  0
  188.7390  176.1580  143.4540 C   0  0  0  0  0  0  0  0  0  0  0  0
  186.6680  177.0570  144.3980 C   0  0  0  0  0  0  0  0  0  0  0  0
  191.0180  176.6470  144.3790 C   0  0  0  0  0  0  0  0  0  0  0  0
  188.5790  174.7040  141.5450 N   0  0  0  0  0  0  0  0  0  0  0  0
  188.0640  176.9480  144.3980 C   0  0  0  0  0  3  0  0  0  0  0  0
  189.9280  174.5600  141.4920 C   0  0  0  0  0  0  0  0  0  0  0  0
  192.0890  175.0690  142.3650 N   0  0  0  0  0  0  0  0  0  0  0  0
  187.9710  175.4720  142.4820 C   0  0  0  0  0  0  0  0  0  0  0  0
  190.1550  176.0300  143.4310 C   0  0  0  0  0  0  0  0  0  0  0  0
  184.4430  179.0200  146.3370 N   0  0  0  0  0  0  0  0  0  0  0  0
  186.5060  178.2690  146.5620 C   0  0  0  0  0  3  0  0  0  0  0  0
  186.0010  177.8610  145.3810 N   0  0  0  0  0  0  0  0  0  0  0  0
  185.5060  179.0090  147.1680 C   0  0  0  0  0  3  0  0  0  0  0  0
  184.7680  178.3190  145.2650 N   0  0  0  0  0  0  0  0  0  0  0  0
  190.5220  173.7370  140.4840 N   0  0  0  0  0  2  0  0  0  0  0  0
  190.2470  172.3130  140.3840 C   0  0  0  0  0  2  0  0  0  0  0  0
  188.2340  172.4100  139.1090 O   0  0  0  0  0  1  0  0  0  0  0  0
  189.5690  172.0090  139.0620 C   0  0  0  0  0  2  0  0  0  0  0  0
  193.3660  177.2290  145.0440 N   0  0  0  0  0  2  0  0  0  0  0  0
  194.7440  176.8200  145.2810 C   0  0  0  0  0  2  0  0  0  0  0  0
  194.7860  175.7070  146.3140 C   0  0  0  0  0  2  0  0  0  0  0  0
  196.2500  175.0720  144.5980 C   0  0  0  0  0  2  0  0  0  0  0  0
  195.6620  174.6410  145.8570 N   0  0  0  0  0  0  0  0  0  0  0  0
  194.8110  173.5070  145.5250 C   0  0  0  0  0  2  0  0  0  0  0  0
  195.2850  172.9230  144.2080 C   0  0  2  0  0  3  0  0  0  0  0  0
  195.8750  171.5460  144.4410 C   0  0  0  0  0  1  0  0  0  0  0  0
  196.3610  173.8540  143.7140 C   0  0  0  0  0  2  0  0  0  0  0  0
  190.4820  177.3510  145.4630 O   0  0  0  0  0  0  0  0  0  0  0  0
  190.6320  176.9030  146.8080 C   0  0  0  0  0  2  0  0  0  0  0  0
  190.6300  175.3840  146.8730 C   0  0  0  0  0  3  0  0  0  0  0  0
  189.2380  174.9020  147.2190 C   0  0  0  0  0  1  0  0  0  0  0  0
  191.6000  174.9010  147.9340 C   0  0  0  0  0  1  0  0  0  0  0  0
  1  8  1  0  0  0  0
  1 24  1  0  0  0  0
  2  7  1  0  0  0  0
  3  1  2  0  0  0  0
  4 14  1  0  0  0  0
  5 13  1  0  0  0  0
  5  2  2  0  0  0  0
  6 10  1  0  0  0  0
  7 17  1  0  0  0  0
  8 33  1  0  0  0  0
  9 13  1  0  0  0  0
 10  7  2  0  0  0  0
 11  9  2  0  0  0  0
 11  4  1  0  0  0  0
 12  4  2  0  0  0  0
 12  3  1  0  0  0  0
 13  6  2  0  0  0  0
 14  6  1  0  0  0  0
 14  8  2  0  0  0  0
 15 18  1  0  0  0  0
 16 18  2  0  0  0  0
 17 16  1  0  0  0  0
 19 17  1  0  0  0  0
 19 15  2  0  0  0  0
 20 11  1  0  0  0  0
 21 20  1  0  0  0  0
 23 22  1  0  0  0  0
 23 21  1  0  0  0  0
 24 25  1  0  0  0  0
 25 26  1  0  0  0  0
 27 28  1  0  0  0  0
 28 26  1  0  0  0  0
 29 28  1  0  0  0  0
 30 31  1  1  0  0  0
 30 29  1  0  0  0  0
 32 30  1  0  0  0  0
 32 27  1  0  0  0  0
 33 34  1  0  0  0  0
 34 35  1  0  0  0  0
 35 36  1  0  0  0  0
 35 37  1  0  0  0  0
M  END
>  <MODEL>
1

>  <REMARK>
 VINA RESULT:      -6.5      0.000      0.000
  Name = 
  11 active torsions:
  status: ('A' for Active; 'I' for Inactive)
    1  A    between atoms: C_1  and  C_2
    2  A    between atoms: C_1  and  O_32
    3  A    between atoms: C_3  and  N_26
    4  A    between atoms: C_6  and  N_19
    5  A    between atoms: C_6  and  C_36
    6  A    between atoms: C_12  and  N_21
    7  A    between atoms: C_13  and  O_32
    8  A    between atoms: N_14  and  C_37
    9  A    between atoms: N_19  and  C_24
   10  A    between atoms: N_26  and  C_28
   11  A    between atoms: C_28  and  C_37
                            x       y       z     vdW  Elec       q    Type
                         _______ _______ _______ _____ _____    ______ ____

>  <TORSDO>
F 11

$$$$
=
 OpenBabel11042418333D

 37 41  0  0  1  0  0  0  0  0999 V2000
  189.1680  174.5240  141.2270 C   0  0  0  0  0  0  0  0  0  0  0  0
  188.7690  177.2680  147.1530 C   0  0  0  0  0  3  0  0  0  0  0  0
  190.4930  174.1150  141.1120 C   0  0  0  0  0  3  0  0  0  0  0  0
  191.0130  174.9470  143.2740 C   0  0  0  0  0  0  0  0  0  0  0  0
  190.0590  176.8030  146.8940 C   0  0  0  0  0  3  0  0  0  0  0  0
  189.3510  176.0320  144.6880 C   0  0  0  0  0  0  0  0  0  0  0  0
  187.7590  177.1220  146.1950 C   0  0  0  0  0  0  0  0  0  0  0  0
  188.7620  175.2250  142.3880 C   0  0  0  0  0  0  0  0  0  0  0  0
  191.6150  175.7410  145.4460 N   0  0  0  0  0  0  0  0  0  0  0  0
  188.0600  176.5040  144.9740 C   0  0  0  0  0  3  0  0  0  0  0  0
  191.9660  175.1320  144.2850 C   0  0  0  0  0  0  0  0  0  0  0  0
  191.3750  174.3370  142.1150 N   0  0  0  0  0  0  0  0  0  0  0  0
  190.3550  176.1880  145.6740 C   0  0  0  0  0  0  0  0  0  0  0  0
  189.6830  175.4010  143.4580 C   0  0  0  0  0  0  0  0  0  0  0  0
  184.2800  177.7790  146.3550 N   0  0  0  0  0  0  0  0  0  0  0  0
  186.0970  178.6010  147.3010 C   0  0  0  0  0  3  0  0  0  0  0  0
  186.4340  177.6050  146.4590 N   0  0  0  0  0  0  0  0  0  0  0  0
  184.7190  178.7080  147.2310 C   0  0  0  0  0  3  0  0  0  0  0  0
  185.3360  177.1260  145.9030 N   0  0  0  0  0  0  0  0  0  0  0  0
  193.3100  174.6800  144.0920 N   0  0  0  0  0  2  0  0  0  0  0  0
  194.4460  175.5850  144.1220 C   0  0  0  0  0  2  0  0  0  0  0  0
  194.8140  176.0240  146.4380 O   0  0  0  0  0  1  0  0  0  0  0  0
  195.2980  175.3050  145.3450 C   0  0  0  0  0  2  0  0  0  0  0  0
  188.2670  174.1610  140.1700 N   0  0  0  0  0  2  0  0  0  0  0  0
  188.2410  172.8700  139.4980 C   0  0  0  0  0  2  0  0  0  0  0  0
  188.5500  173.0460  138.0200 C   0  0  0  0  0  2  0  0  0  0  0  0
  189.6180  171.9520  136.2450 C   0  0  0  0  0  2  0  0  0  0  0  0
  189.7200  172.2620  137.6630 N   0  0  0  0  0  0  0  0  0  0  0  0
  189.6010  170.9850  138.3530 C   0  0  0  0  0  2  0  0  0  0  0  0
  189.9650  169.8800  137.3800 C   0  0  2  0  0  3  0  0  0  0  0  0
  191.2610  169.2230  137.8120 C   0  0  0  0  0  1  0  0  0  0  0  0
  190.1630  170.5580  136.0500 C   0  0  0  0  0  2  0  0  0  0  0  0
  187.4750  175.7690  142.4720 O   0  0  0  0  0  0  0  0  0  0  0  0
  187.0570  176.8580  141.6530 C   0  0  0  0  0  2  0  0  0  0  0  0
  185.8640  177.5700  142.2720 C   0  0  0  0  0  3  0  0  0  0  0  0
  184.8560  177.8870  141.1890 C   0  0  0  0  0  1  0  0  0  0  0  0
  186.3060  178.8620  142.9310 C   0  0  0  0  0  1  0  0  0  0  0  0
  1  8  1  0  0  0  0
  3  1  2  0  0  0  0
  3 12  1  0  0  0  0
  4 14  1  0  0  0  0
  4 11  1  0  0  0  0
  5  2  1  0  0  0  0
  6 10  2  0  0  0  0
  6 13  1  0  0  0  0
  7 17  1  0  0  0  0
  7  2  2  0  0  0  0
  8 33  1  0  0  0  0
  8 14  2  0  0  0  0
  9 13  1  0  0  0  0
 10  7  1  0  0  0  0
 11  9  2  0  0  0  0
 12  4  2  0  0  0  0
 13  5  2  0  0  0  0
 14  6  1  0  0  0  0
 15 18  1  0  0  0  0
 17 16  1  0  0  0  0
 18 16  2  0  0  0  0
 19 15  2  0  0  0  0
 19 17  1  0  0  0  0
 20 21  1  0  0  0  0
 20 11  1  0  0  0  0
 21 23  1  0  0  0  0
 23 22  1  0  0  0  0
 24  1  1  0  0  0  0
 25 24  1  0  0  0  0
 26 25  1  0  0  0  0
 27 28  1  0  0  0  0
 28 26  1  0  0  0  0
 28 29  1  0  0  0  0
 30 31  1  1  0  0  0
 30 29  1  0  0  0  0
 32 27  1  0  0  0  0
 32 30  1  0  0  0  0
 34 35  1  0  0  0  0
 34 33  1  0  0  0  0
 35 37  1  0  0  0  0
 36 35  1  0  0  0  0
M  END
>  <MODEL>
2

>  <REMARK>
 VINA RESULT:      -6.5      2.073      6.404
  Name = 
  11 active torsions:
  status: ('A' for Active; 'I' for Inactive)
    1  A    between atoms: C_1  and  C_2
    2  A    between atoms: C_1  and  O_32
    3  A    between atoms: C_3  and  N_26
    4  A    between atoms: C_6  and  N_19
    5  A    between atoms: C_6  and  C_36
    6  A    between atoms: C_12  and  N_21
    7  A    between atoms: C_13  and  O_32
    8  A    between atoms: N_14  and  C_37
    9  A    between atoms: N_19  and  C_24
   10  A    between atoms: N_26  and  C_28
   11  A    between atoms: C_28  and  C_37
                            x       y       z     vdW  Elec       q    Type
                         _______ _______ _______ _____ _____    ______ ____

>  <TORSDO>
F 11

$$$$
=
 OpenBabel11042418333D

 37 41  0  0  1  0  0  0  0  0999 V2000
  189.2410  175.8920  146.4500 C   0  0  0  0  0  0  0  0  0  0  0  0
  187.6570  175.7320  140.1040 C   0  0  0  0  0  3  0  0  0  0  0  0
  188.4960  176.9420  146.9770 C   0  0  0  0  0  3  0  0  0  0  0  0
  187.5330  177.4170  144.8600 C   0  0  0  0  0  0  0  0  0  0  0  0
  186.9760  176.7490  140.7730 C   0  0  0  0  0  3  0  0  0  0  0  0
  188.0830  176.1360  142.8610 C   0  0  0  0  0  0  0  0  0  0  0  0
  188.5510  174.9060  140.7970 C   0  0  0  0  0  0  0  0  0  0  0  0
  189.1750  175.6300  145.0600 C   0  0  0  0  0  0  0  0  0  0  0  0
  186.5050  177.9490  142.7680 N   0  0  0  0  0  0  0  0  0  0  0  0
  188.7530  175.1150  142.1670 C   0  0  0  0  0  3  0  0  0  0  0  0
  186.6570  178.1990  144.0950 C   0  0  0  0  0  0  0  0  0  0  0  0
  187.6780  177.6760  146.1850 N   0  0  0  0  0  0  0  0  0  0  0  0
  187.1810  176.9560  142.1400 C   0  0  0  0  0  0  0  0  0  0  0  0
  188.2690  176.3690  144.2500 C   0  0  0  0  0  0  0  0  0  0  0  0
  189.5990  172.1130  138.8840 N   0  0  0  0  0  0  0  0  0  0  0  0
  190.5910  173.6860  140.0720 C   0  0  0  0  0  3  0  0  0  0  0  0
  189.2560  173.8630  140.1080 N   0  0  0  0  0  0  0  0  0  0  0  0
  190.8050  172.5650  139.2880 C   0  0  0  0  0  3  0  0  0  0  0  0
  188.6800  172.9140  139.3920 N   0  0  0  0  0  0  0  0  0  0  0  0
  185.9220  179.2600  144.7110 N   0  0  0  0  0  2  0  0  0  0  0  0
  184.4890  179.1810  144.9410 C   0  0  0  0  0  2  0  0  0  0  0  0
  184.3160  177.3640  146.4770 O   0  0  0  0  0  1  0  0  0  0  0  0
  184.2180  178.7510  146.3700 C   0  0  0  0  0  2  0  0  0  0  0  0
  190.0040  175.0930  147.3670 N   0  0  0  0  0  2  0  0  0  0  0  0
  191.3790  175.3590  147.7670 C   0  0  0  0  0  2  0  0  0  0  0  0
  191.9230  176.5520  146.9990 C   0  0  0  0  0  2  0  0  0  0  0  0
  193.1600  176.7850  145.0220 C   0  0  0  0  0  2  0  0  0  0  0  0
  193.1740  176.1940  146.3520 N   0  0  0  0  0  0  0  0  0  0  0  0
  193.1440  174.7530  146.1410 C   0  0  0  0  0  2  0  0  0  0  0  0
  193.6470  174.4650  144.7400 C   0  0  2  0  0  3  0  0  0  0  0  0
  194.9790  173.7450  144.8120 C   0  0  0  0  0  1  0  0  0  0  0  0
  193.8370  175.8110  144.0900 C   0  0  0  0  0  2  0  0  0  0  0  0
  190.0150  174.6730  144.4800 O   0  0  0  0  0  0  0  0  0  0  0  0
  189.8850  173.2810  144.7560 C   0  0  0  0  0  2  0  0  0  0  0  0
  190.5390  172.4510  143.6620 C   0  0  0  0  0  3  0  0  0  0  0  0
  189.4800  171.6380  142.9530 C   0  0  0  0  0  1  0  0  0  0  0  0
  191.5690  171.5110  144.2590 C   0  0  0  0  0  1  0  0  0  0  0  0
  1  3  1  0  0  0  0
  1 24  1  0  0  0  0
  2  5  2  0  0  0  0
  2  7  1  0  0  0  0
  4 12  1  0  0  0  0
  5 13  1  0  0  0  0
  6 14  1  0  0  0  0
  7 10  2  0  0  0  0
  8  1  2  0  0  0  0
  9 11  2  0  0  0  0
 10  6  1  0  0  0  0
 11 20  1  0  0  0  0
 11  4  1  0  0  0  0
 12  3  2  0  0  0  0
 13  9  1  0  0  0  0
 13  6  2  0  0  0  0
 14  4  2  0  0  0  0
 14  8  1  0  0  0  0
 15 18  1  0  0  0  0
 15 19  2  0  0  0  0
 16 17  1  0  0  0  0
 17  7  1  0  0  0  0
 18 16  2  0  0  0  0
 19 17  1  0  0  0  0
 20 21  1  0  0  0  0
 21 23  1  0  0  0  0
 23 22  1  0  0  0  0
 24 25  1  0  0  0  0
 26 25  1  0  0  0  0
 27 28  1  0  0  0  0
 28 26  1  0  0  0  0
 29 28  1  0  0  0  0
 30 31  1  1  0  0  0
 30 29  1  0  0  0  0
 32 30  1  0  0  0  0
 32 27  1  0  0  0  0
 33 34  1  0  0  0  0
 33  8  1  0  0  0  0
 35 37  1  0  0  0  0
 35 34  1  0  0  0  0
 36 35  1  0  0  0  0
M  END
>  <MODEL>
3

>  <REMARK>
 VINA RESULT:      -6.5      2.277      5.894
  Name = 
  11 active torsions:
  status: ('A' for Active; 'I' for Inactive)
    1  A    between atoms: C_1  and  C_2
    2  A    between atoms: C_1  and  O_32
    3  A    between atoms: C_3  and  N_26
    4  A    between atoms: C_6  and  N_19
    5  A    between atoms: C_6  and  C_36
    6  A    between atoms: C_12  and  N_21
    7  A    between atoms: C_13  and  O_32
    8  A    between atoms: N_14  and  C_37
    9  A    between atoms: N_19  and  C_24
   10  A    between atoms: N_26  and  C_28
   11  A    between atoms: C_28  and  C_37
                            x       y       z     vdW  Elec       q    Type
                         _______ _______ _______ _____ _____    ______ ____

>  <TORSDO>
F 11

$$$$
=
 OpenBabel11042418333D

 37 41  0  0  1  0  0  0  0  0999 V2000
  187.9740  175.7530  142.0180 C   0  0  0  0  0  0  0  0  0  0  0  0
  191.8660  176.6280  147.2030 C   0  0  0  0  0  3  0  0  0  0  0  0
  186.6970  176.0710  142.4710 C   0  0  0  0  0  3  0  0  0  0  0  0
  187.5140  176.5510  144.6490 C   0  0  0  0  0  0  0  0  0  0  0  0
  190.5360  176.9140  147.5110 C   0  0  0  0  0  3  0  0  0  0  0  0
  189.8730  176.3550  145.2290 C   0  0  0  0  0  0  0  0  0  0  0  0
  192.2180  176.2080  145.9140 C   0  0  0  0  0  0  0  0  0  0  0  0
  189.0560  175.7790  142.9300 C   0  0  0  0  0  0  0  0  0  0  0  0
  188.2570  177.0690  146.8610 N   0  0  0  0  0  0  0  0  0  0  0  0
  191.2190  176.0780  144.9420 C   0  0  0  0  0  3  0  0  0  0  0  0
  187.2450  176.9650  145.9610 C   0  0  0  0  0  0  0  0  0  0  0  0
  186.4950  176.4480  143.7570 N   0  0  0  0  0  0  0  0  0  0  0  0
  189.5410  176.7830  146.5380 C   0  0  0  0  0  0  0  0  0  0  0  0
  188.8400  176.2320  144.2610 C   0  0  0  0  0  0  0  0  0  0  0  0
  195.5770  175.0840  145.7880 N   0  0  0  0  0  0  0  0  0  0  0  0
  194.2600  176.3000  144.5010 C   0  0  0  0  0  3  0  0  0  0  0  0
  193.5850  175.9070  145.5990 N   0  0  0  0  0  0  0  0  0  0  0  0
  195.5330  175.7710  144.6270 C   0  0  0  0  0  3  0  0  0  0  0  0
  194.3880  175.1820  146.3560 N   0  0  0  0  0  0  0  0  0  0  0  0
  185.9050  177.2780  146.3510 N   0  0  0  0  0  2  0  0  0  0  0  0
  185.4450  178.6470  146.5190 C   0  0  0  0  0  2  0  0  0  0  0  0
  184.9760  179.6110  144.3890 O   0  0  0  0  0  1  0  0  0  0  0  0
  184.3890  178.9680  145.4780 C   0  0  0  0  0  2  0  0  0  0  0  0
  188.1280  175.4650  140.6200 N   0  0  0  0  0  2  0  0  0  0  0  0
  188.0620  174.1370  140.0260 C   0  0  0  0  0  2  0  0  0  0  0  0
  188.3060  174.2240  138.5280 C   0  0  0  0  0  2  0  0  0  0  0  0
  188.9730  172.0370  139.0410 C   0  0  0  0  0  2  0  0  0  0  0  0
  189.1660  173.1330  138.1030 N   0  0  0  0  0  0  0  0  0  0  0  0
  190.5400  173.5760  138.2960 C   0  0  0  0  0  2  0  0  0  0  0  0
  191.3230  172.4440  138.9310 C   0  0  2  0  0  3  0  0  0  0  0  0
  192.3470  171.9140  137.9480 C   0  0  0  0  0  1  0  0  0  0  0  0
  190.3120  171.3680  139.2330 C   0  0  0  0  0  2  0  0  0  0  0  0
  190.3230  175.3320  142.5370 O   0  0  0  0  0  0  0  0  0  0  0  0
  190.5990  173.9550  142.2910 C   0  0  0  0  0  2  0  0  0  0  0  0
  190.0240  173.0840  143.3970 C   0  0  0  0  0  3  0  0  0  0  0  0
  191.1570  172.4470  144.1700 C   0  0  0  0  0  1  0  0  0  0  0  0
  189.1520  171.9930  142.8070 C   0  0  0  0  0  1  0  0  0  0  0  0
  1  3  2  0  0  0  0
  1  8  1  0  0  0  0
  2  5  1  0  0  0  0
  3 12  1  0  0  0  0
  4 11  1  0  0  0  0
  6 13  1  0  0  0  0
  7  2  2  0  0  0  0
  8 14  2  0  0  0  0
 10  6  2  0  0  0  0
 10  7  1  0  0  0  0
 11 20  1  0  0  0  0
 11  9  2  0  0  0  0
 12  4  2  0  0  0  0
 13  9  1  0  0  0  0
 13  5  2  0  0  0  0
 14  4  1  0  0  0  0
 14  6  1  0  0  0  0
 15 19  2  0  0  0  0
 16 18  2  0  0  0  0
 16 17  1  0  0  0  0
 17  7  1  0  0  0  0
 17 19  1  0  0  0  0
 18 15  1  0  0  0  0
 20 21  1  0  0  0  0
 22 23  1  0  0  0  0
 23 21  1  0  0  0  0
 24  1  1  0  0  0  0
 25 24  1  0  0  0  0
 26 25  1  0  0  0  0
 27 32  1  0  0  0  0
 28 29  1  0  0  0  0
 28 26  1  0  0  0  0
 28 27  1  0  0  0  0
 29 30  1  0  0  0  0
 30 31  1  6  0  0  0
 30 32  1  0  0  0  0
 33  8  1  0  0  0  0
 34 33  1  0  0  0  0
 34 35  1  0  0  0  0
 35 36  1  0  0  0  0
 37 35  1  0  0  0  0
M  END
>  <MODEL>
4

>  <REMARK>
 VINA RESULT:      -6.4      2.039      7.361
  Name = 
  11 active torsions:
  status: ('A' for Active; 'I' for Inactive)
    1  A    between atoms: C_1  and  C_2
    2  A    between atoms: C_1  and  O_32
    3  A    between atoms: C_3  and  N_26
    4  A    between atoms: C_6  and  N_19
    5  A    between atoms: C_6  and  C_36
    6  A    between atoms: C_12  and  N_21
    7  A    between atoms: C_13  and  O_32
    8  A    between atoms: N_14  and  C_37
    9  A    between atoms: N_19  and  C_24
   10  A    between atoms: N_26  and  C_28
   11  A    between atoms: C_28  and  C_37
                            x       y       z     vdW  Elec       q    Type
                         _______ _______ _______ _____ _____    ______ ____

>  <TORSDO>
F 11

$$$$
=
 OpenBabel11042418333D

 37 41  0  0  1  0  0  0  0  0999 V2000
  189.0550  173.3620  141.7500 C   0  0  0  0  0  0  0  0  0  0  0  0
  188.3630  177.4100  146.8430 C   0  0  0  0  0  3  0  0  0  0  0  0
  190.2860  172.7450  141.9490 C   0  0  0  0  0  3  0  0  0  0  0  0
  190.6510  173.9600  143.9560 C   0  0  0  0  0  0  0  0  0  0  0  0
  189.5690  176.7110  146.9080 C   0  0  0  0  0  3  0  0  0  0  0  0
  189.0380  175.5730  144.8150 C   0  0  0  0  0  0  0  0  0  0  0  0
  187.4820  177.2000  145.7740 C   0  0  0  0  0  0  0  0  0  0  0  0
  188.6290  174.3600  142.6580 C   0  0  0  0  0  0  0  0  0  0  0  0
  191.0870  175.1300  145.9940 N   0  0  0  0  0  0  0  0  0  0  0  0
  187.8280  176.2840  144.7740 C   0  0  0  0  0  3  0  0  0  0  0  0
  191.4760  174.2270  145.0570 C   0  0  0  0  0  0  0  0  0  0  0  0
  191.0500  173.0560  143.0230 N   0  0  0  0  0  0  0  0  0  0  0  0
  189.9110  175.7980  145.9070 C   0  0  0  0  0  0  0  0  0  0  0  0
  189.4130  174.6370  143.8130 C   0  0  0  0  0  0  0  0  0  0  0  0
  184.2180  178.5250  146.1640 N   0  0  0  0  0  0  0  0  0  0  0  0
  185.9550  178.9380  144.8680 C   0  0  0  0  0  3  0  0  0  0  0  0
  186.2450  177.9230  145.7040 N   0  0  0  0  0  0  0  0  0  0  0  0
  184.6590  179.3190  145.1660 C   0  0  0  0  0  3  0  0  0  0  0  0
  185.1950  177.6900  146.4710 N   0  0  0  0  0  0  0  0  0  0  0  0
  192.7280  173.5480  145.1940 N   0  0  0  0  0  2  0  0  0  0  0  0
  193.9610  174.2500  145.5110 C   0  0  0  0  0  2  0  0  0  0  0  0
  195.6620  175.6100  144.5390 O   0  0  0  0  0  1  0  0  0  0  0  0
  194.3630  175.1390  144.3500 C   0  0  0  0  0  2  0  0  0  0  0  0
  188.2550  172.9050  140.6490 N   0  0  0  0  0  2  0  0  0  0  0  0
  188.7340  172.7110  139.2880 C   0  0  0  0  0  2  0  0  0  0  0  0
  188.9890  174.0570  138.6290 C   0  0  0  0  0  2  0  0  0  0  0  0
  189.0980  174.4470  136.3210 C   0  0  0  0  0  2  0  0  0  0  0  0
  188.1870  174.1760  137.4230 N   0  0  0  0  0  0  0  0  0  0  0  0
  187.3800  175.3800  137.5690 C   0  0  0  0  0  2  0  0  0  0  0  0
  187.4190  176.1440  136.2590 C   0  0  2  0  0  3  0  0  0  0  0  0
  186.0490  176.1210  135.6120 C   0  0  0  0  0  1  0  0  0  0  0  0
  188.4010  175.4070  135.3870 C   0  0  0  0  0  2  0  0  0  0  0  0
  187.4640  175.0940  142.4090 O   0  0  0  0  0  0  0  0  0  0  0  0
  187.3230  175.9260  141.2600 C   0  0  0  0  0  2  0  0  0  0  0  0
  186.9940  177.3540  141.6670 C   0  0  0  0  0  3  0  0  0  0  0  0
  186.0770  177.9680  140.6320 C   0  0  0  0  0  1  0  0  0  0  0  0
  188.2620  178.1800  141.7580 C   0  0  0  0  0  1  0  0  0  0  0  0
  1  3  2  0  0  0  0
  1  8  1  0  0  0  0
  2  5  1  0  0  0  0
  3 12  1  0  0  0  0
  4 11  1  0  0  0  0
  6 13  1  0  0  0  0
  7  2  2  0  0  0  0
  8 14  2  0  0  0  0
 10  6  2  0  0  0  0
 10  7  1  0  0  0  0
 11 20  1  0  0  0  0
 11  9  2  0  0  0  0
 12  4  2  0  0  0  0
 13  9  1  0  0  0  0
 13  5  2  0  0  0  0
 14  4  1  0  0  0  0
 14  6  1  0  0  0  0
 15 19  2  0  0  0  0
 16 18  2  0  0  0  0
 16 17  1  0  0  0  0
 17  7  1  0  0  0  0
 17 19  1  0  0  0  0
 18 15  1  0  0  0  0
 20 21  1  0  0  0  0
 23 22  1  0  0  0  0
 23 21  1  0  0  0  0
 24  1  1  0  0  0  0
 25 24  1  0  0  0  0
 26 25  1  0  0  0  0
 27 28  1  0  0  0  0
 28 29  1  0  0  0  0
 28 26  1  0  0  0  0
 30 31  1  6  0  0  0
 30 29  1  0  0  0  0
 32 30  1  0  0  0  0
 32 27  1  0  0  0  0
 33  8  1  0  0  0  0
 34 35  1  0  0  0  0
 34 33  1  0  0  0  0
 35 37  1  0  0  0  0
 36 35  1  0  0  0  0
M  END
>  <MODEL>
5

>  <REMARK>
 VINA RESULT:      -6.4      2.844      6.850
  Name = 
  11 active torsions:
  status: ('A' for Active; 'I' for Inactive)
    1  A    between atoms: C_1  and  C_2
    2  A    between atoms: C_1  and  O_32
    3  A    between atoms: C_3  and  N_26
    4  A    between atoms: C_6  and  N_19
    5  A    between atoms: C_6  and  C_36
    6  A    between atoms: C_12  and  N_21
    7  A    between atoms: C_13  and  O_32
    8  A    between atoms: N_14  and  C_37
    9  A    between atoms: N_19  and  C_24
   10  A    between atoms: N_26  and  C_28
   11  A    between atoms: C_28  and  C_37
                            x       y       z     vdW  Elec       q    Type
                         _______ _______ _______ _____ _____    ______ ____

>  <TORSDO>
F 11

$$$$
=
 OpenBabel11042418333D

 37 41  0  0  1  0  0  0  0  0999 V2000
  187.9310  177.2130  141.8160 C   0  0  0  0  0  0  0  0  0  0  0  0
  192.8840  173.2870  143.5050 C   0  0  0  0  0  3  0  0  0  0  0  0
  187.2750  176.5400  140.7900 C   0  0  0  0  0  3  0  0  0  0  0  0
  188.8090  174.7310  140.9010 C   0  0  0  0  0  0  0  0  0  0  0  0
  192.1250  172.7340  142.4720 C   0  0  0  0  0  3  0  0  0  0  0  0
  190.6620  174.6880  142.4830 C   0  0  0  0  0  0  0  0  0  0  0  0
  192.5450  174.5350  144.0400 C   0  0  0  0  0  0  0  0  0  0  0  0
  189.1070  176.6520  142.3680 C   0  0  0  0  0  0  0  0  0  0  0  0
  190.2990  172.8630  140.9590 N   0  0  0  0  0  0  0  0  0  0  0  0
  191.4380  175.2210  143.5250 C   0  0  0  0  0  3  0  0  0  0  0  0
  189.2140  173.4780  140.4210 C   0  0  0  0  0  0  0  0  0  0  0  0
  187.7230  175.3380  140.3550 N   0  0  0  0  0  0  0  0  0  0  0  0
  191.0210  173.4220  141.9600 C   0  0  0  0  0  0  0  0  0  0  0  0
  189.5340  175.3630  141.9430 C   0  0  0  0  0  0  0  0  0  0  0  0
  193.8150  176.2270  146.8830 N   0  0  0  0  0  0  0  0  0  0  0  0
  194.6550  174.9670  145.2780 C   0  0  0  0  0  3  0  0  0  0  0  0
  193.3280  175.1070  145.0970 N   0  0  0  0  0  0  0  0  0  0  0  0
  194.9610  175.6850  146.4210 C   0  0  0  0  0  3  0  0  0  0  0  0
  192.8430  175.8630  146.0650 N   0  0  0  0  0  0  0  0  0  0  0  0
  188.4850  172.8470  139.3650 N   0  0  0  0  0  2  0  0  0  0  0  0
  189.1320  172.0200  138.3600 C   0  0  0  0  0  2  0  0  0  0  0  0
  190.1870  173.8640  137.2760 O   0  0  0  0  0  1  0  0  0  0  0  0
  189.3020  172.8060  137.0740 C   0  0  0  0  0  2  0  0  0  0  0  0
  187.3390  178.4300  142.2960 N   0  0  0  0  0  2  0  0  0  0  0  0
  185.9160  178.7390  142.2630 C   0  0  0  0  0  2  0  0  0  0  0  0
  185.4910  179.3750  143.5770 C   0  0  0  0  0  2  0  0  0  0  0  0
  185.1520  177.4370  144.8520 C   0  0  0  0  0  2  0  0  0  0  0  0
  186.0120  178.6010  144.6910 N   0  0  0  0  0  0  0  0  0  0  0  0
  185.8130  179.4030  145.8910 C   0  0  0  0  0  2  0  0  0  0  0  0
  185.2770  178.5000  146.9860 C   0  0  2  0  0  3  0  0  0  0  0  0
  186.3170  178.3470  148.0790 C   0  0  0  0  0  1  0  0  0  0  0  0
  185.0350  177.1650  146.3310 C   0  0  0  0  0  2  0  0  0  0  0  0
  189.8630  177.3690  143.3010 O   0  0  0  0  0  0  0  0  0  0  0  0
  189.3050  177.8540  144.5190 C   0  0  0  0  0  2  0  0  0  0  0  0
  189.5590  176.8750  145.6560 C   0  0  0  0  0  3  0  0  0  0  0  0
  188.3560  175.9710  145.8120 C   0  0  0  0  0  1  0  0  0  0  0  0
  189.7880  177.6240  146.9540 C   0  0  0  0  0  1  0  0  0  0  0  0
  1 24  1  0  0  0  0
  1  8  1  0  0  0  0
  2  7  1  0  0  0  0
  3  1  2  0  0  0  0
  4 14  1  0  0  0  0
  5  2  2  0  0  0  0
  6 10  1  0  0  0  0
  7 17  1  0  0  0  0
  8 33  1  0  0  0  0
  9 13  1  0  0  0  0
 10  7  2  0  0  0  0
 11  4  1  0  0  0  0
 11  9  2  0  0  0  0
 12  3  1  0  0  0  0
 12  4  2  0  0  0  0
 13  5  1  0  0  0  0
 13  6  2  0  0  0  0
 14  8  2  0  0  0  0
 14  6  1  0  0  0  0
 16 18  2  0  0  0  0
 17 16  1  0  0  0  0
 17 19  1  0  0  0  0
 18 15  1  0  0  0  0
 19 15  2  0  0  0  0
 20 11  1  0  0  0  0
 21 20  1  0  0  0  0
 23 22  1  0  0  0  0
 23 21  1  0  0  0  0
 25 24  1  0  0  0  0
 25 26  1  0  0  0  0
 26 28  1  0  0  0  0
 27 32  1  0  0  0  0
 28 27  1  0  0  0  0
 28 29  1  0  0  0  0
 29 30  1  0  0  0  0
 30 31  1  1  0  0  0
 32 30  1  0  0  0  0
 33 34  1  0  0  0  0
 34 35  1  0  0  0  0
 35 36  1  0  0  0  0
 35 37  1  0  0  0  0
M  END
>  <MODEL>
6

>  <REMARK>
 VINA RESULT:      -6.3      1.901      6.956
  Name = 
  11 active torsions:
  status: ('A' for Active; 'I' for Inactive)
    1  A    between atoms: C_1  and  C_2
    2  A    between atoms: C_1  and  O_32
    3  A    between atoms: C_3  and  N_26
    4  A    between atoms: C_6  and  N_19
    5  A    between atoms: C_6  and  C_36
    6  A    between atoms: C_12  and  N_21
    7  A    between atoms: C_13  and  O_32
    8  A    between atoms: N_14  and  C_37
    9  A    between atoms: N_19  and  C_24
   10  A    between atoms: N_26  and  C_28
   11  A    between atoms: C_28  and  C_37
                            x       y       z     vdW  Elec       q    Type
                         _______ _______ _______ _____ _____    ______ ____

>  <TORSDO>
F 11

$$$$
=
 OpenBabel11042418333D

 37 41  0  0  1  0  0  0  0  0999 V2000
  190.7470  173.3610  143.5940 C   0  0  0  0  0  0  0  0  0  0  0  0
  185.9250  177.7400  142.9810 C   0  0  0  0  0  3  0  0  0  0  0  0
  190.9510  172.8720  142.3080 C   0  0  0  0  0  3  0  0  0  0  0  0
  189.2370  174.2620  141.4310 C   0  0  0  0  0  0  0  0  0  0  0  0
  186.2440  177.1590  141.7530 C   0  0  0  0  0  3  0  0  0  0  0  0
  187.9500  175.7860  142.8320 C   0  0  0  0  0  0  0  0  0  0  0  0
  186.6100  177.3600  144.1420 C   0  0  0  0  0  0  0  0  0  0  0  0
  189.7090  174.2960  143.8200 C   0  0  0  0  0  0  0  0  0  0  0  0
  187.5400  175.6410  140.4660 N   0  0  0  0  0  0  0  0  0  0  0  0
  187.6150  176.3890  144.0540 C   0  0  0  0  0  3  0  0  0  0  0  0
  188.5060  174.6980  140.3170 C   0  0  0  0  0  0  0  0  0  0  0  0
  190.2000  173.3170  141.2720 N   0  0  0  0  0  0  0  0  0  0  0  0
  187.2470  176.1890  141.6700 C   0  0  0  0  0  0  0  0  0  0  0  0
  188.9660  174.7990  142.7150 C   0  0  0  0  0  0  0  0  0  0  0  0
  185.5840  179.4170  146.8390 N   0  0  0  0  0  0  0  0  0  0  0  0
  186.4050  177.3810  146.6180 C   0  0  0  0  0  3  0  0  0  0  0  0
  186.2780  177.9530  145.4060 N   0  0  0  0  0  0  0  0  0  0  0  0
  185.9600  178.3210  147.5310 C   0  0  0  0  0  3  0  0  0  0  0  0
  185.7860  179.1690  145.5570 N   0  0  0  0  0  0  0  0  0  0  0  0
  188.7770  174.1490  139.0240 N   0  0  0  0  0  2  0  0  0  0  0  0
  188.0340  174.5480  137.8400 C   0  0  0  0  0  2  0  0  0  0  0  0
  188.3890  175.2570  135.5910 O   0  0  0  0  0  1  0  0  0  0  0  0
  188.9370  174.4960  136.6230 C   0  0  0  0  0  2  0  0  0  0  0  0
  191.6490  172.9220  144.6210 N   0  0  0  0  0  2  0  0  0  0  0  0
  192.7680  172.0120  144.4210 C   0  0  0  0  0  2  0  0  0  0  0  0
  194.0810  172.7460  144.6360 C   0  0  0  0  0  2  0  0  0  0  0  0
  194.6270  174.7210  143.5000 C   0  0  0  0  0  2  0  0  0  0  0  0
  193.8550  174.1810  144.6090 N   0  0  0  0  0  0  0  0  0  0  0  0
  194.4660  174.7270  145.8130 C   0  0  0  0  0  2  0  0  0  0  0  0
  195.2290  175.9830  145.4360 C   0  0  2  0  0  3  0  0  0  0  0  0
  194.5530  177.1950  146.0430 C   0  0  0  0  0  1  0  0  0  0  0  0
  195.1560  176.0660  143.9330 C   0  0  0  0  0  2  0  0  0  0  0  0
  189.3900  174.7000  145.1210 O   0  0  0  0  0  0  0  0  0  0  0  0
  190.0870  175.7540  145.7800 C   0  0  0  0  0  2  0  0  0  0  0  0
  189.9420  175.6350  147.2900 C   0  0  0  0  0  3  0  0  0  0  0  0
  191.2870  175.2960  147.8940 C   0  0  0  0  0  1  0  0  0  0  0  0
  188.9520  174.5410  147.6390 C   0  0  0  0  0  1  0  0  0  0  0  0
  1  8  1  0  0  0  0
  1 24  1  0  0  0  0
  2  7  1  0  0  0  0
  3  1  2  0  0  0  0
  4 14  1  0  0  0  0
  5  2  2  0  0  0  0
  6 10  1  0  0  0  0
  7 17  1  0  0  0  0
  8 33  1  0  0  0  0
  9 13  1  0  0  0  0
 10  7  2  0  0  0  0
 11  9  2  0  0  0  0
 11  4  1  0  0  0  0
 12  4  2  0  0  0  0
 12  3  1  0  0  0  0
 13  5  1  0  0  0  0
 13  6  2  0  0  0  0
 14  6  1  0  0  0  0
 14  8  2  0  0  0  0
 15 18  1  0  0  0  0
 16 18  2  0  0  0  0
 17 19  1  0  0  0  0
 17 16  1  0  0  0  0
 19 15  2  0  0  0  0
 20 11  1  0  0  0  0
 21 20  1  0  0  0  0
 22 23  1  0  0  0  0
 23 21  1  0  0  0  0
 25 24  1  0  0  0  0
 25 26  1  0  0  0  0
 27 32  1  0  0  0  0
 27 28  1  0  0  0  0
 28 26  1  0  0  0  0
 28 29  1  0  0  0  0
 30 29  1  0  0  0  0
 30 31  1  1  0  0  0
 32 30  1  0  0  0  0
 33 34  1  0  0  0  0
 34 35  1  0  0  0  0
 35 37  1  0  0  0  0
 35 36  1  0  0  0  0
M  END
>  <MODEL>
7

>  <REMARK>
 VINA RESULT:      -6.3      1.862      2.720
  Name = 
  11 active torsions:
  status: ('A' for Active; 'I' for Inactive)
    1  A    between atoms: C_1  and  C_2
    2  A    between atoms: C_1  and  O_32
    3  A    between atoms: C_3  and  N_26
    4  A    between atoms: C_6  and  N_19
    5  A    between atoms: C_6  and  C_36
    6  A    between atoms: C_12  and  N_21
    7  A    between atoms: C_13  and  O_32
    8  A    between atoms: N_14  and  C_37
    9  A    between atoms: N_19  and  C_24
   10  A    between atoms: N_26  and  C_28
   11  A    between atoms: C_28  and  C_37
                            x       y       z     vdW  Elec       q    Type
                         _______ _______ _______ _____ _____    ______ ____

>  <TORSDO>
F 11

$$$$
=
 OpenBabel11042418333D

 37 41  0  0  1  0  0  0  0  0999 V2000
  189.4400  174.0110  141.7860 C   0  0  0  0  0  0  0  0  0  0  0  0
  188.9690  177.5500  147.2680 C   0  0  0  0  0  3  0  0  0  0  0  0
  190.7890  173.6860  141.6850 C   0  0  0  0  0  3  0  0  0  0  0  0
  191.2940  174.8590  143.6870 C   0  0  0  0  0  0  0  0  0  0  0  0
  190.2840  177.1470  147.0340 C   0  0  0  0  0  3  0  0  0  0  0  0
  189.5860  176.0140  144.9870 C   0  0  0  0  0  0  0  0  0  0  0  0
  187.9510  177.1920  146.3750 C   0  0  0  0  0  0  0  0  0  0  0  0
  189.0080  174.8410  142.8480 C   0  0  0  0  0  0  0  0  0  0  0  0
  191.8830  176.0030  145.7020 N   0  0  0  0  0  0  0  0  0  0  0  0
  188.2700  176.4270  145.2470 C   0  0  0  0  0  3  0  0  0  0  0  0
  192.2530  175.2590  144.6280 C   0  0  0  0  0  0  0  0  0  0  0  0
  191.6750  174.1160  142.6160 N   0  0  0  0  0  0  0  0  0  0  0  0
  190.5980  176.3840  145.9060 C   0  0  0  0  0  0  0  0  0  0  0  0
  189.9370  175.2370  143.8500 C   0  0  0  0  0  0  0  0  0  0  0  0
  184.9200  178.6200  147.5310 N   0  0  0  0  0  0  0  0  0  0  0  0
  185.5130  177.2600  145.8980 C   0  0  0  0  0  3  0  0  0  0  0  0
  186.5990  177.6120  146.6120 N   0  0  0  0  0  0  0  0  0  0  0  0
  184.4420  177.9070  146.4890 C   0  0  0  0  0  3  0  0  0  0  0  0
  186.2250  178.4250  147.5840 N   0  0  0  0  0  0  0  0  0  0  0  0
  193.6230  174.8820  144.4560 N   0  0  0  0  0  2  0  0  0  0  0  0
  194.6320  175.8170  143.9880 C   0  0  0  0  0  2  0  0  0  0  0  0
  194.3940  176.3830  141.6830 O   0  0  0  0  0  1  0  0  0  0  0  0
  195.0150  175.4910  142.5570 C   0  0  0  0  0  2  0  0  0  0  0  0
  188.5450  173.4330  140.8230 N   0  0  0  0  0  2  0  0  0  0  0  0
  188.5730  173.6950  139.3910 C   0  0  0  0  0  2  0  0  0  0  0  0
  188.6810  172.3870  138.6250 C   0  0  0  0  0  2  0  0  0  0  0  0
  190.9060  171.6600  138.5000 C   0  0  0  0  0  2  0  0  0  0  0  0
  189.8720  172.4000  137.7920 N   0  0  0  0  0  0  0  0  0  0  0  0
  190.3400  173.7780  137.7440 C   0  0  0  0  0  2  0  0  0  0  0  0
  191.8450  173.7790  137.9270 C   0  0  2  0  0  3  0  0  0  0  0  0
  192.5180  174.2190  136.6420 C   0  0  0  0  0  1  0  0  0  0  0  0
  192.2190  172.3510  138.2290 C   0  0  0  0  0  2  0  0  0  0  0  0
  187.6860  175.2960  142.8970 O   0  0  0  0  0  0  0  0  0  0  0  0
  187.1340  176.1350  141.8860 C   0  0  0  0  0  2  0  0  0  0  0  0
  187.1400  177.5900  142.3290 C   0  0  0  0  0  3  0  0  0  0  0  0
  185.9490  178.3000  141.7250 C   0  0  0  0  0  1  0  0  0  0  0  0
  188.4120  178.2750  141.8700 C   0  0  0  0  0  1  0  0  0  0  0  0
  1  8  1  0  0  0  0
  3  1  2  0  0  0  0
  3 12  1  0  0  0  0
  4 14  1  0  0  0  0
  4 11  1  0  0  0  0
  5  2  1  0  0  0  0
  6 10  2  0  0  0  0
  6 13  1  0  0  0  0
  7 17  1  0  0  0  0
  7  2  2  0  0  0  0
  8 33  1  0  0  0  0
  8 14  2  0  0  0  0
  9 13  1  0  0  0  0
 10  7  1  0  0  0  0
 11  9  2  0  0  0  0
 12  4  2  0  0  0  0
 13  5  2  0  0  0  0
 14  6  1  0  0  0  0
 15 19  2  0  0  0  0
 16 18  2  0  0  0  0
 16 17  1  0  0  0  0
 17 19  1  0  0  0  0
 18 15  1  0  0  0  0
 20 11  1  0  0  0  0
 21 20  1  0  0  0  0
 22 23  1  0  0  0  0
 23 21  1  0  0  0  0
 24  1  1  0  0  0  0
 25 24  1  0  0  0  0
 26 25  1  0  0  0  0
 28 27  1  0  0  0  0
 28 26  1  0  0  0  0
 29 28  1  0  0  0  0
 29 30  1  0  0  0  0
 30 31  1  6  0  0  0
 30 32  1  0  0  0  0
 32 27  1  0  0  0  0
 34 35  1  0  0  0  0
 34 33  1  0  0  0  0
 36 35  1  0  0  0  0
 37 35  1  0  0  0  0
M  END
>  <MODEL>
8

>  <REMARK>
 VINA RESULT:      -6.2      2.220      5.875
  Name = 
  11 active torsions:
  status: ('A' for Active; 'I' for Inactive)
    1  A    between atoms: C_1  and  C_2
    2  A    between atoms: C_1  and  O_32
    3  A    between atoms: C_3  and  N_26
    4  A    between atoms: C_6  and  N_19
    5  A    between atoms: C_6  and  C_36
    6  A    between atoms: C_12  and  N_21
    7  A    between atoms: C_13  and  O_32
    8  A    between atoms: N_14  and  C_37
    9  A    between atoms: N_19  and  C_24
   10  A    between atoms: N_26  and  C_28
   11  A    between atoms: C_28  and  C_37
                            x       y       z     vdW  Elec       q    Type
                         _______ _______ _______ _____ _____    ______ ____

>  <TORSDO>
F 11

$$$$
=
 OpenBabel11042418333D

 37 41  0  0  1  0  0  0  0  0999 V2000
  189.3660  174.8760  143.7590 C   0  0  0  0  0  0  0  0  0  0  0  0
  189.1350  172.6760  137.6020 C   0  0  0  0  0  3  0  0  0  0  0  0
  189.9590  173.8480  144.4840 C   0  0  0  0  0  3  0  0  0  0  0  0
  190.1640  172.5000  142.5390 C   0  0  0  0  0  0  0  0  0  0  0  0
  189.7160  171.7380  138.4560 C   0  0  0  0  0  3  0  0  0  0  0  0
  189.4010  173.2480  140.3490 C   0  0  0  0  0  0  0  0  0  0  0  0
  188.6860  173.9040  138.1020 C   0  0  0  0  0  0  0  0  0  0  0  0
  189.1070  174.6880  142.3800 C   0  0  0  0  0  0  0  0  0  0  0  0
  190.4220  171.0880  140.6280 N   0  0  0  0  0  0  0  0  0  0  0  0
  188.8260  174.1770  139.4680 C   0  0  0  0  0  3  0  0  0  0  0  0
  190.5870  171.2960  141.9600 C   0  0  0  0  0  0  0  0  0  0  0  0
  190.3320  172.6970  143.8730 N   0  0  0  0  0  0  0  0  0  0  0  0
  189.8520  172.0140  139.8190 C   0  0  0  0  0  0  0  0  0  0  0  0
  189.5560  173.5000  141.7390 C   0  0  0  0  0  0  0  0  0  0  0  0
  187.7320  176.0530  135.4490 N   0  0  0  0  0  0  0  0  0  0  0  0
  187.0210  175.6470  137.4990 C   0  0  0  0  0  3  0  0  0  0  0  0
  188.0840  174.8670  137.2250 N   0  0  0  0  0  0  0  0  0  0  0  0
  186.8000  176.4030  136.3610 C   0  0  0  0  0  3  0  0  0  0  0  0
  188.4950  175.1230  135.9960 N   0  0  0  0  0  0  0  0  0  0  0  0
  191.1930  170.2860  142.7730 N   0  0  0  0  0  2  0  0  0  0  0  0
  192.5660  169.8520  142.5770 C   0  0  0  0  0  2  0  0  0  0  0  0
  193.7770  171.4630  143.8520 O   0  0  0  0  0  1  0  0  0  0  0  0
  193.3790  170.1270  143.8270 C   0  0  0  0  0  2  0  0  0  0  0  0
  189.0950  176.1050  144.4500 N   0  0  0  0  0  2  0  0  0  0  0  0
  189.1700  176.2880  145.8930 C   0  0  0  0  0  2  0  0  0  0  0  0
  187.7790  176.2140  146.5010 C   0  0  0  0  0  2  0  0  0  0  0  0
  186.6660  178.0500  147.4400 C   0  0  0  0  0  2  0  0  0  0  0  0
  187.0350  177.4200  146.1810 N   0  0  0  0  0  0  0  0  0  0  0  0
  185.7800  176.9940  145.5750 C   0  0  0  0  0  2  0  0  0  0  0  0
  184.6560  177.8180  146.1730 C   0  0  2  0  0  3  0  0  0  0  0  0
  184.0740  178.7340  145.1150 C   0  0  0  0  0  1  0  0  0  0  0  0
  185.2910  178.6450  147.2610 C   0  0  0  0  0  2  0  0  0  0  0  0
  188.3880  175.6470  141.6570 O   0  0  0  0  0  0  0  0  0  0  0  0
  187.0630  176.0300  142.0140 C   0  0  0  0  0  2  0  0  0  0  0  0
  186.8560  177.5210  141.7970 C   0  0  0  0  0  3  0  0  0  0  0  0
  186.0340  177.7330  140.5450 C   0  0  0  0  0  1  0  0  0  0  0  0
  188.1920  178.2210  141.6390 C   0  0  0  0  0  1  0  0  0  0  0  0
  1 24  1  0  0  0  0
  1  3  1  0  0  0  0
  2  7  2  0  0  0  0
  2  5  1  0  0  0  0
  4 12  1  0  0  0  0
  5 13  2  0  0  0  0
  6 14  1  0  0  0  0
  7 10  1  0  0  0  0
  8  1  2  0  0  0  0
  9 11  2  0  0  0  0
 10  6  2  0  0  0  0
 11  4  1  0  0  0  0
 11 20  1  0  0  0  0
 12  3  2  0  0  0  0
 13  6  1  0  0  0  0
 13  9  1  0  0  0  0
 14  8  1  0  0  0  0
 14  4  2  0  0  0  0
 15 19  2  0  0  0  0
 15 18  1  0  0  0  0
 17 16  1  0  0  0  0
 17  7  1  0  0  0  0
 18 16  2  0  0  0  0
 19 17  1  0  0  0  0
 21 20  1  0  0  0  0
 21 23  1  0  0  0  0
 23 22  1  0  0  0  0
 24 25  1  0  0  0  0
 25 26  1  0  0  0  0
 28 26  1  0  0  0  0
 28 27  1  0  0  0  0
 29 30  1  0  0  0  0
 29 28  1  0  0  0  0
 30 31  1  6  0  0  0
 30 32  1  0  0  0  0
 32 27  1  0  0  0  0
 33 34  1  0  0  0  0
 33  8  1  0  0  0  0
 35 34  1  0  0  0  0
 36 35  1  0  0  0  0
 37 35  1  0  0  0  0
M  END
>  <MODEL>
9

>  <REMARK>
 VINA RESULT:      -6.1      3.173      7.526
  Name = 
  11 active torsions:
  status: ('A' for Active; 'I' for Inactive)
    1  A    between atoms: C_1  and  C_2
    2  A    between atoms: C_1  and  O_32
    3  A    between atoms: C_3  and  N_26
    4  A    between atoms: C_6  and  N_19
    5  A    between atoms: C_6  and  C_36
    6  A    between atoms: C_12  and  N_21
    7  A    between atoms: C_13  and  O_32
    8  A    between atoms: N_14  and  C_37
    9  A    between atoms: N_19  and  C_24
   10  A    between atoms: N_26  and  C_28
   11  A    between atoms: C_28  and  C_37
                            x       y       z     vdW  Elec       q    Type
                         _______ _______ _______ _____ _____    ______ ____

>  <TORSDO>
F 11

$$$$
