=
 OpenBabel11042415513D

 34 37  0  0  0  0  0  0  0  0999 V2000
  184.6170  178.2710  143.5430 C   0  0  0  0  0  0  0  0  0  0  0  0
  188.1050  177.5230  145.7670 C   0  0  0  0  0  0  0  0  0  0  0  0
  185.8010  177.5180  141.5540 C   0  0  0  0  0  3  0  0  0  0  0  0
  184.6560  177.7560  140.7880 C   0  0  0  0  0  3  0  0  0  0  0  0
  186.9140  178.2560  147.7490 C   0  0  0  0  0  3  0  0  0  0  0  0
  183.4930  178.2450  141.3930 C   0  0  0  0  0  0  0  0  0  0  0  0
  185.7850  178.2710  145.6640 C   0  0  0  0  0  0  0  0  0  0  0  0
  183.4760  178.5070  142.7670 C   0  0  0  0  0  3  0  0  0  0  0  0
  184.6240  178.5210  144.9210 C   0  0  0  0  0  0  0  0  0  0  0  0
  185.7870  177.7720  142.9280 C   0  0  0  0  0  0  0  0  0  0  0  0
  185.8050  178.4950  147.0050 N   0  0  0  0  0  0  0  0  0  0  0  0
  186.9010  177.5400  143.6700 N   0  0  0  0  0  0  0  0  0  0  0  0
  183.4840  179.0100  145.5540 O   0  0  0  0  0  1  0  0  0  0  0  0
  186.9390  177.7790  145.0110 C   0  0  0  0  0  0  0  0  0  0  0  0
  188.0740  177.7710  147.1460 C   0  0  0  0  0  3  0  0  0  0  0  0
  191.3340  176.9130  143.9480 C   0  0  0  0  0  0  0  0  0  0  0  0
  191.1330  175.7310  144.5060 C   0  0  0  0  0  2  0  0  0  0  0  0
  189.8920  175.8180  145.2590 C   0  0  0  0  0  0  0  0  0  0  0  0
  190.2410  177.8760  144.2650 C   0  0  0  0  0  3  0  0  0  0  0  0
  189.3610  177.0360  145.1350 C   0  0  0  0  0  0  0  0  0  0  0  0
  189.3130  174.6710  146.0210 C   0  0  0  0  0  2  0  0  0  0  0  0
  189.7610  174.7290  147.4690 C   0  0  0  0  0  1  0  0  0  0  0  0
  192.4950  177.2330  143.0690 C   0  0  0  0  0  2  0  0  0  0  0  0
  193.7140  175.6920  141.8000 C   0  0  0  0  0  1  0  0  0  0  0  0
  193.4950  176.1800  143.1510 N   0  0  0  0  0  2  0  0  0  0  0  0
  182.2850  178.5200  140.5690 C   0  0  0  0  0  2  0  0  0  0  0  0
  179.7940  178.2580  140.8600 C   0  0  0  0  0  0  0  0  0  0  0  0
  181.1330  177.8470  141.1460 N   0  0  0  0  0  2  0  0  0  0  0  0
  179.5790  179.2310  140.0880 O   0  0  0  0  0  0  0  0  0  0  0  0
  178.6660  177.5460  141.4680 C   0  0  0  0  0  0  0  0  0  0  0  0
  177.9330  176.8070  140.7550 O   0  0  0  0  0  0  0  0  0  0  0  0
  178.4100  177.6950  142.8330 O   0  0  0  0  0  0  0  0  0  0  0  0
  178.4060  178.8180  144.9480 C   0  0  0  0  0  1  0  0  0  0  0  0
  178.3230  178.9730  143.4450 C   0  0  0  0  0  2  0  0  0  0  0  0
  1  9  2  0  0  0  0
  2 15  1  0  0  0  0
  3 10  1  0  0  0  0
  4  6  1  0  0  0  0
  4  3  2  0  0  0  0
  6  8  2  0  0  0  0
  7 11  2  0  0  0  0
  8  1  1  0  0  0  0
  9 13  1  0  0  0  0
  9  7  1  0  0  0  0
 10  1  1  0  0  0  0
 10 12  2  0  0  0  0
 11  5  1  0  0  0  0
 12 14  1  0  0  0  0
 14  7  1  0  0  0  0
 14  2  2  0  0  0  0
 15  5  2  0  0  0  0
 16 19  2  0  0  0  0
 16 17  1  0  0  0  0
 17 18  1  0  0  0  0
 18 21  1  0  0  0  0
 19 20  1  0  0  0  0
 20 18  2  0  0  0  0
 20  2  1  0  0  0  0
 21 22  1  0  0  0  0
 23 25  1  0  0  0  0
 23 16  1  0  0  0  0
 24 25  1  0  0  0  0
 26 28  1  0  0  0  0
 26  6  1  0  0  0  0
 27 28  1  0  0  0  0
 27 30  1  0  0  0  0
 29 27  2  0  0  0  0
 30 32  1  0  0  0  0
 31 30  2  0  0  0  0
 32 34  1  0  0  0  0
 34 33  1  0  0  0  0
M  END
>  <MODEL>
1

>  <REMARK>
 VINA RESULT:      -7.6      0.000      0.000
  Name = 
  9 active torsions:
  status: ('A' for Active; 'I' for Inactive)
    1  A    between atoms: C_1  and  C_11
    2  A    between atoms: C_2  and  C_20
    3  A    between atoms: C_4  and  C_8
    4  A    between atoms: C_7  and  C_30
    5  A    between atoms: C_11  and  N_21
    6  A    between atoms: C_12  and  N_15
    7  A    between atoms: C_12  and  C_17
    8  A    between atoms: C_13  and  O_27
    9  A    between atoms: C_20  and  O_27
                            x       y       z     vdW  Elec       q    Type
                         _______ _______ _______ _____ _____    ______ ____

>  <TORSDO>
F 9

$$$$
=
 OpenBabel11042415513D

 34 37  0  0  0  0  0  0  0  0999 V2000
  185.4400  177.5160  143.2770 C   0  0  0  0  0  0  0  0  0  0  0  0
  188.8050  175.7000  145.0220 C   0  0  0  0  0  0  0  0  0  0  0  0
  186.4550  177.1530  141.0950 C   0  0  0  0  0  3  0  0  0  0  0  0
  185.3490  177.7520  140.4850 C   0  0  0  0  0  3  0  0  0  0  0  0
  187.7790  176.0470  147.1940 C   0  0  0  0  0  3  0  0  0  0  0  0
  184.2870  178.2280  141.2630 C   0  0  0  0  0  0  0  0  0  0  0  0
  186.6300  176.7810  145.2530 C   0  0  0  0  0  0  0  0  0  0  0  0
  184.3360  178.1150  142.6560 C   0  0  0  0  0  3  0  0  0  0  0  0
  185.5090  177.3870  144.6700 C   0  0  0  0  0  0  0  0  0  0  0  0
  186.5050  177.0320  142.4860 C   0  0  0  0  0  0  0  0  0  0  0  0
  186.7080  176.6350  146.6020 N   0  0  0  0  0  0  0  0  0  0  0  0
  187.5820  176.4500  143.0760 N   0  0  0  0  0  0  0  0  0  0  0  0
  184.4720  177.8520  145.4740 O   0  0  0  0  0  1  0  0  0  0  0  0
  187.6810  176.3160  144.4280 C   0  0  0  0  0  0  0  0  0  0  0  0
  188.8370  175.5740  146.4180 C   0  0  0  0  0  3  0  0  0  0  0  0
  191.3410  173.9510  142.8750 C   0  0  0  0  0  0  0  0  0  0  0  0
  191.9600  175.0950  143.1130 C   0  0  0  0  0  3  0  0  0  0  0  0
  191.0790  175.8930  143.9510 C   0  0  0  0  0  0  0  0  0  0  0  0
  190.0110  173.8820  143.5450 C   0  0  0  0  0  2  0  0  0  0  0  0
  189.9570  175.2190  144.2140 C   0  0  0  0  0  0  0  0  0  0  0  0
  191.4340  177.2550  144.4510 C   0  0  0  0  0  2  0  0  0  0  0  0
  190.9650  178.3090  143.4670 C   0  0  0  0  0  1  0  0  0  0  0  0
  191.9230  172.8410  142.0660 C   0  0  0  0  0  2  0  0  0  0  0  0
  190.6370  172.1800  140.2290 C   0  0  0  0  0  1  0  0  0  0  0  0
  190.8770  171.9260  141.6390 N   0  0  0  0  0  2  0  0  0  0  0  0
  183.1240  178.8870  140.6110 C   0  0  0  0  0  2  0  0  0  0  0  0
  180.6160  178.7050  140.7920 C   0  0  0  0  0  0  0  0  0  0  0  0
  181.9160  178.1190  140.8710 N   0  0  0  0  0  2  0  0  0  0  0  0
  180.4840  179.9230  140.4910 O   0  0  0  0  0  0  0  0  0  0  0  0
  179.4280  177.8890  141.0620 C   0  0  0  0  0  0  0  0  0  0  0  0
  178.5500  177.7430  140.1690 O   0  0  0  0  0  0  0  0  0  0  0  0
  179.2790  177.2810  142.3110 O   0  0  0  0  0  0  0  0  0  0  0  0
  178.4260  178.8630  143.8940 C   0  0  0  0  0  1  0  0  0  0  0  0
  178.1740  177.5650  143.1560 C   0  0  0  0  0  2  0  0  0  0  0  0
  1  9  2  0  0  0  0
  2 15  1  0  0  0  0
  3 10  1  0  0  0  0
  4  3  2  0  0  0  0
  4  6  1  0  0  0  0
  6  8  2  0  0  0  0
  7 11  2  0  0  0  0
  8  1  1  0  0  0  0
  9  7  1  0  0  0  0
  9 13  1  0  0  0  0
 10 12  2  0  0  0  0
 10  1  1  0  0  0  0
 11  5  1  0  0  0  0
 12 14  1  0  0  0  0
 14  2  2  0  0  0  0
 14  7  1  0  0  0  0
 15  5  2  0  0  0  0
 16 17  2  0  0  0  0
 16 19  1  0  0  0  0
 17 18  1  0  0  0  0
 18 20  2  0  0  0  0
 18 21  1  0  0  0  0
 19 20  1  0  0  0  0
 20  2  1  0  0  0  0
 22 21  1  0  0  0  0
 23 16  1  0  0  0  0
 24 25  1  0  0  0  0
 25 23  1  0  0  0  0
 26 28  1  0  0  0  0
 26  6  1  0  0  0  0
 27 28  1  0  0  0  0
 27 30  1  0  0  0  0
 29 27  2  0  0  0  0
 30 32  1  0  0  0  0
 31 30  2  0  0  0  0
 32 34  1  0  0  0  0
 34 33  1  0  0  0  0
M  END
>  <MODEL>
2

>  <REMARK>
 VINA RESULT:      -7.3      1.839      2.442
  Name = 
  9 active torsions:
  status: ('A' for Active; 'I' for Inactive)
    1  A    between atoms: C_1  and  C_11
    2  A    between atoms: C_2  and  C_20
    3  A    between atoms: C_4  and  C_8
    4  A    between atoms: C_7  and  C_30
    5  A    between atoms: C_11  and  N_21
    6  A    between atoms: C_12  and  N_15
    7  A    between atoms: C_12  and  C_17
    8  A    between atoms: C_13  and  O_27
    9  A    between atoms: C_20  and  O_27
                            x       y       z     vdW  Elec       q    Type
                         _______ _______ _______ _____ _____    ______ ____

>  <TORSDO>
F 9

$$$$
=
 OpenBabel11042415513D

 34 37  0  0  0  0  0  0  0  0999 V2000
  189.9360  176.1440  145.0320 C   0  0  0  0  0  0  0  0  0  0  0  0
  193.5190  174.2960  143.8420 C   0  0  0  0  0  0  0  0  0  0  0  0
  189.7860  174.5360  146.8530 C   0  0  0  0  0  3  0  0  0  0  0  0
  188.5920  175.1300  147.2730 C   0  0  0  0  0  3  0  0  0  0  0  0
  193.6730  175.9140  142.0410 C   0  0  0  0  0  3  0  0  0  0  0  0
  188.0710  176.2290  146.5830 C   0  0  0  0  0  0  0  0  0  0  0  0
  191.8210  176.0170  143.5180 C   0  0  0  0  0  0  0  0  0  0  0  0
  188.7390  176.7310  145.4610 C   0  0  0  0  0  3  0  0  0  0  0  0
  190.6260  176.6320  143.9150 C   0  0  0  0  0  0  0  0  0  0  0  0
  190.4600  175.0380  145.7370 C   0  0  0  0  0  0  0  0  0  0  0  0
  192.5100  176.4870  142.4440 N   0  0  0  0  0  0  0  0  0  0  0  0
  191.6200  174.4590  145.3300 N   0  0  0  0  0  0  0  0  0  0  0  0
  190.1340  177.7230  143.2030 O   0  0  0  0  0  1  0  0  0  0  0  0
  192.3100  174.9070  144.2440 C   0  0  0  0  0  0  0  0  0  0  0  0
  194.1920  174.8170  142.7280 C   0  0  0  0  0  3  0  0  0  0  0  0
  194.4480  170.9540  145.2800 C   0  0  0  0  0  0  0  0  0  0  0  0
  195.3640  171.7290  145.8360 C   0  0  0  0  0  2  0  0  0  0  0  0
  195.1240  173.0830  145.3620 C   0  0  0  0  0  0  0  0  0  0  0  0
  193.5160  171.7230  144.4080 C   0  0  0  0  0  3  0  0  0  0  0  0
  194.0700  173.1050  144.5430 C   0  0  0  0  0  0  0  0  0  0  0  0
  195.9460  174.2570  145.7830 C   0  0  0  0  0  2  0  0  0  0  0  0
  197.1890  173.7870  146.5130 C   0  0  0  0  0  1  0  0  0  0  0  0
  194.3340  169.4880  145.5300 C   0  0  0  0  0  2  0  0  0  0  0  0
  196.0310  168.1880  146.4780 C   0  0  0  0  0  1  0  0  0  0  0  0
  194.9780  169.1390  146.7860 N   0  0  0  0  0  2  0  0  0  0  0  0
  186.7880  176.8420  147.0190 C   0  0  0  0  0  2  0  0  0  0  0  0
  185.3740  178.2980  145.5230 C   0  0  0  0  0  0  0  0  0  0  0  0
  185.9140  177.0220  145.8710 N   0  0  0  0  0  2  0  0  0  0  0  0
  185.6490  179.3150  146.2160 O   0  0  0  0  0  0  0  0  0  0  0  0
  184.4970  178.4270  144.3550 C   0  0  0  0  0  0  0  0  0  0  0  0
  183.6510  179.3610  144.3060 O   0  0  0  0  0  0  0  0  0  0  0  0
  184.6060  177.5130  143.3060 O   0  0  0  0  0  0  0  0  0  0  0  0
  186.5830  176.6390  142.2730 C   0  0  0  0  0  1  0  0  0  0  0  0
  185.5130  177.7090  142.2310 C   0  0  0  0  0  2  0  0  0  0  0  0
  1  8  2  0  0  0  0
  1 10  1  0  0  0  0
  2 14  1  0  0  0  0
  2 20  1  0  0  0  0
  3  4  1  0  0  0  0
  5 11  2  0  0  0  0
  5 15  1  0  0  0  0
  6 26  1  0  0  0  0
  6  4  2  0  0  0  0
  7  9  2  0  0  0  0
  7 14  1  0  0  0  0
  8  6  1  0  0  0  0
  9  1  1  0  0  0  0
 10  3  2  0  0  0  0
 11  7  1  0  0  0  0
 12 10  1  0  0  0  0
 13  9  1  0  0  0  0
 14 12  2  0  0  0  0
 15  2  2  0  0  0  0
 16 23  1  0  0  0  0
 16 17  1  0  0  0  0
 18 21  1  0  0  0  0
 18 17  1  0  0  0  0
 19 20  1  0  0  0  0
 19 16  2  0  0  0  0
 20 18  2  0  0  0  0
 21 22  1  0  0  0  0
 23 25  1  0  0  0  0
 24 25  1  0  0  0  0
 27 28  1  0  0  0  0
 27 29  2  0  0  0  0
 28 26  1  0  0  0  0
 30 27  1  0  0  0  0
 31 30  2  0  0  0  0
 32 30  1  0  0  0  0
 34 33  1  0  0  0  0
 34 32  1  0  0  0  0
M  END
>  <MODEL>
3

>  <REMARK>
 VINA RESULT:      -7.1      3.807      7.237
  Name = 
  9 active torsions:
  status: ('A' for Active; 'I' for Inactive)
    1  A    between atoms: C_1  and  C_11
    2  A    between atoms: C_2  and  C_20
    3  A    between atoms: C_4  and  C_8
    4  A    between atoms: C_7  and  C_30
    5  A    between atoms: C_11  and  N_21
    6  A    between atoms: C_12  and  N_15
    7  A    between atoms: C_12  and  C_17
    8  A    between atoms: C_13  and  O_27
    9  A    between atoms: C_20  and  O_27
                            x       y       z     vdW  Elec       q    Type
                         _______ _______ _______ _____ _____    ______ ____

>  <TORSDO>
F 9

$$$$
=
 OpenBabel11042415513D

 34 37  0  0  0  0  0  0  0  0999 V2000
  190.5390  176.3760  145.2310 C   0  0  0  0  0  0  0  0  0  0  0  0
  193.6390  173.8800  143.8810 C   0  0  0  0  0  0  0  0  0  0  0  0
  189.7690  174.5490  146.6430 C   0  0  0  0  0  3  0  0  0  0  0  0
  188.7280  175.3550  147.1110 C   0  0  0  0  0  3  0  0  0  0  0  0
  194.4130  175.7110  142.4900 C   0  0  0  0  0  3  0  0  0  0  0  0
  188.5910  176.6680  146.6480 C   0  0  0  0  0  0  0  0  0  0  0  0
  192.4900  176.0310  143.8400 C   0  0  0  0  0  0  0  0  0  0  0  0
  189.4910  177.1750  145.7060 C   0  0  0  0  0  3  0  0  0  0  0  0
  191.4560  176.8620  144.2910 C   0  0  0  0  0  0  0  0  0  0  0  0
  190.6750  175.0530  145.7070 C   0  0  0  0  0  0  0  0  0  0  0  0
  193.3980  176.4920  142.9390 N   0  0  0  0  0  0  0  0  0  0  0  0
  191.6860  174.2670  145.2530 N   0  0  0  0  0  0  0  0  0  0  0  0
  191.3470  178.1630  143.8070 O   0  0  0  0  0  1  0  0  0  0  0  0
  192.5900  174.7090  144.3340 C   0  0  0  0  0  0  0  0  0  0  0  0
  194.5480  174.4010  142.9500 C   0  0  0  0  0  3  0  0  0  0  0  0
  194.3630  170.5770  145.5150 C   0  0  0  0  0  0  0  0  0  0  0  0
  193.5610  170.2000  144.5330 C   0  0  0  0  0  3  0  0  0  0  0  0
  193.1920  171.4000  143.7980 C   0  0  0  0  0  0  0  0  0  0  0  0
  194.6080  172.0470  145.5080 C   0  0  0  0  0  2  0  0  0  0  0  0
  193.7800  172.4700  144.3360 C   0  0  0  0  0  0  0  0  0  0  0  0
  192.3040  171.3840  142.5980 C   0  0  0  0  0  2  0  0  0  0  0  0
  190.8520  171.4910  143.0220 C   0  0  0  0  0  1  0  0  0  0  0  0
  194.9840  169.6360  146.4920 C   0  0  0  0  0  2  0  0  0  0  0  0
  197.1200  169.2480  145.6240 C   0  0  0  0  0  1  0  0  0  0  0  0
  196.3930  169.9480  146.6680 N   0  0  0  0  0  2  0  0  0  0  0  0
  187.4660  177.5140  147.1310 C   0  0  0  0  0  2  0  0  0  0  0  0
  185.4290  177.6040  145.6470 C   0  0  0  0  0  0  0  0  0  0  0  0
  186.7380  178.0580  145.9960 N   0  0  0  0  0  2  0  0  0  0  0  0
  184.8660  176.7040  146.3280 O   0  0  0  0  0  0  0  0  0  0  0  0
  184.7370  178.1840  144.4930 C   0  0  0  0  0  0  0  0  0  0  0  0
  183.7380  178.9330  144.6710 O   0  0  0  0  0  0  0  0  0  0  0  0
  185.1900  177.9010  143.2030 O   0  0  0  0  0  0  0  0  0  0  0  0
  187.3150  177.0170  142.5410 C   0  0  0  0  0  1  0  0  0  0  0  0
  185.8790  176.6980  142.8970 C   0  0  0  0  0  2  0  0  0  0  0  0
  1  8  2  0  0  0  0
  1 10  1  0  0  0  0
  2 14  1  0  0  0  0
  2 20  1  0  0  0  0
  3  4  1  0  0  0  0
  5 11  2  0  0  0  0
  5 15  1  0  0  0  0
  6  4  2  0  0  0  0
  6 26  1  0  0  0  0
  7  9  2  0  0  0  0
  7 14  1  0  0  0  0
  8  6  1  0  0  0  0
  9  1  1  0  0  0  0
 10  3  2  0  0  0  0
 11  7  1  0  0  0  0
 12 10  1  0  0  0  0
 13  9  1  0  0  0  0
 14 12  2  0  0  0  0
 15  2  2  0  0  0  0
 16 23  1  0  0  0  0
 17 16  2  0  0  0  0
 18 20  2  0  0  0  0
 18 17  1  0  0  0  0
 19 16  1  0  0  0  0
 20 19  1  0  0  0  0
 21 22  1  0  0  0  0
 21 18  1  0  0  0  0
 23 25  1  0  0  0  0
 24 25  1  0  0  0  0
 27 28  1  0  0  0  0
 27 29  2  0  0  0  0
 28 26  1  0  0  0  0
 30 31  2  0  0  0  0
 30 27  1  0  0  0  0
 32 30  1  0  0  0  0
 33 34  1  0  0  0  0
 34 32  1  0  0  0  0
M  END
>  <MODEL>
4

>  <REMARK>
 VINA RESULT:      -6.9      3.799      7.403
  Name = 
  9 active torsions:
  status: ('A' for Active; 'I' for Inactive)
    1  A    between atoms: C_1  and  C_11
    2  A    between atoms: C_2  and  C_20
    3  A    between atoms: C_4  and  C_8
    4  A    between atoms: C_7  and  C_30
    5  A    between atoms: C_11  and  N_21
    6  A    between atoms: C_12  and  N_15
    7  A    between atoms: C_12  and  C_17
    8  A    between atoms: C_13  and  O_27
    9  A    between atoms: C_20  and  O_27
                            x       y       z     vdW  Elec       q    Type
                         _______ _______ _______ _____ _____    ______ ____

>  <TORSDO>
F 9

$$$$
=
 OpenBabel11042415513D

 34 37  0  0  0  0  0  0  0  0999 V2000
  190.0130  175.2680  144.4800 C   0  0  0  0  0  0  0  0  0  0  0  0
  193.6640  173.5510  143.3000 C   0  0  0  0  0  0  0  0  0  0  0  0
  190.6600  174.8960  146.7960 C   0  0  0  0  0  3  0  0  0  0  0  0
  189.4540  175.4630  147.2200 C   0  0  0  0  0  3  0  0  0  0  0  0
  193.0220  173.9420  140.9930 C   0  0  0  0  0  3  0  0  0  0  0  0
  188.5310  175.9360  146.2810 C   0  0  0  0  0  0  0  0  0  0  0  0
  191.5320  174.5870  142.7220 C   0  0  0  0  0  0  0  0  0  0  0  0
  188.8080  175.8330  144.9140 C   0  0  0  0  0  3  0  0  0  0  0  0
  190.3160  175.1580  143.1160 C   0  0  0  0  0  0  0  0  0  0  0  0
  190.9440  174.7970  145.4320 C   0  0  0  0  0  0  0  0  0  0  0  0
  191.8480  174.4860  141.4040 N   0  0  0  0  0  0  0  0  0  0  0  0
  192.1160  174.2450  145.0240 N   0  0  0  0  0  0  0  0  0  0  0  0
  189.4180  175.6170  142.1560 O   0  0  0  0  0  1  0  0  0  0  0  0
  192.4360  174.1200  143.7050 C   0  0  0  0  0  0  0  0  0  0  0  0
  193.9420  173.4680  141.9290 C   0  0  0  0  0  3  0  0  0  0  0  0
  195.8980  171.5970  145.6010 C   0  0  0  0  0  0  0  0  0  0  0  0
  196.3240  172.8290  145.8250 C   0  0  0  0  0  2  0  0  0  0  0  0
  195.5320  173.7150  144.9850 C   0  0  0  0  0  0  0  0  0  0  0  0
  194.7830  171.5590  144.6130 C   0  0  0  0  0  3  0  0  0  0  0  0
  194.6420  173.0110  144.2820 C   0  0  0  0  0  0  0  0  0  0  0  0
  195.7040  175.1980  144.9680 C   0  0  0  0  0  2  0  0  0  0  0  0
  194.9410  175.8250  146.1190 C   0  0  0  0  0  1  0  0  0  0  0  0
  196.4410  170.3900  146.2890 C   0  0  0  0  0  2  0  0  0  0  0  0
  197.9410  168.5990  146.1800 C   0  0  0  0  0  1  0  0  0  0  0  0
  197.3270  169.6580  145.3980 N   0  0  0  0  0  2  0  0  0  0  0  0
  187.2390  176.5160  146.7360 C   0  0  0  0  0  2  0  0  0  0  0  0
  185.9200  178.4160  145.7320 C   0  0  0  0  0  0  0  0  0  0  0  0
  186.5600  177.1440  145.6140 N   0  0  0  0  0  2  0  0  0  0  0  0
  185.9290  179.0330  146.8320 O   0  0  0  0  0  0  0  0  0  0  0  0
  185.2490  179.0080  144.5710 C   0  0  0  0  0  0  0  0  0  0  0  0
  185.4740  180.2100  144.2610 O   0  0  0  0  0  0  0  0  0  0  0  0
  184.3640  178.2350  143.8180 O   0  0  0  0  0  0  0  0  0  0  0  0
  185.8470  177.3870  142.1390 C   0  0  0  0  0  1  0  0  0  0  0  0
  184.5220  178.0640  142.4170 C   0  0  0  0  0  2  0  0  0  0  0  0
  1  8  2  0  0  0  0
  1 10  1  0  0  0  0
  2 14  1  0  0  0  0
  2 20  1  0  0  0  0
  3  4  1  0  0  0  0
  5 11  2  0  0  0  0
  5 15  1  0  0  0  0
  6 26  1  0  0  0  0
  6  4  2  0  0  0  0
  7  9  2  0  0  0  0
  7 14  1  0  0  0  0
  8  6  1  0  0  0  0
  9  1  1  0  0  0  0
 10  3  2  0  0  0  0
 11  7  1  0  0  0  0
 12 10  1  0  0  0  0
 13  9  1  0  0  0  0
 14 12  2  0  0  0  0
 15  2  2  0  0  0  0
 16 17  1  0  0  0  0
 16 23  1  0  0  0  0
 18 17  1  0  0  0  0
 19 16  2  0  0  0  0
 20 19  1  0  0  0  0
 20 18  2  0  0  0  0
 21 18  1  0  0  0  0
 21 22  1  0  0  0  0
 25 24  1  0  0  0  0
 25 23  1  0  0  0  0
 27 29  2  0  0  0  0
 28 27  1  0  0  0  0
 28 26  1  0  0  0  0
 30 27  1  0  0  0  0
 31 30  2  0  0  0  0
 32 30  1  0  0  0  0
 33 34  1  0  0  0  0
 34 32  1  0  0  0  0
M  END
>  <MODEL>
5

>  <REMARK>
 VINA RESULT:      -6.9      3.844      7.543
  Name = 
  9 active torsions:
  status: ('A' for Active; 'I' for Inactive)
    1  A    between atoms: C_1  and  C_11
    2  A    between atoms: C_2  and  C_20
    3  A    between atoms: C_4  and  C_8
    4  A    between atoms: C_7  and  C_30
    5  A    between atoms: C_11  and  N_21
    6  A    between atoms: C_12  and  N_15
    7  A    between atoms: C_12  and  C_17
    8  A    between atoms: C_13  and  O_27
    9  A    between atoms: C_20  and  O_27
                            x       y       z     vdW  Elec       q    Type
                         _______ _______ _______ _____ _____    ______ ____

>  <TORSDO>
F 9

$$$$
=
 OpenBabel11042415513D

 34 37  0  0  0  0  0  0  0  0999 V2000
  189.2580  175.0340  142.4410 C   0  0  0  0  0  0  0  0  0  0  0  0
  192.6120  172.9390  143.8650 C   0  0  0  0  0  0  0  0  0  0  0  0
  190.4580  177.1100  142.8560 C   0  0  0  0  0  3  0  0  0  0  0  0
  189.3580  177.8350  142.3880 C   0  0  0  0  0  3  0  0  0  0  0  0
  191.4180  170.8720  143.4310 C   0  0  0  0  0  3  0  0  0  0  0  0
  188.2130  177.1670  141.9410 C   0  0  0  0  0  0  0  0  0  0  0  0
  190.3500  172.9350  142.9520 C   0  0  0  0  0  0  0  0  0  0  0  0
  188.1610  175.7690  141.9740 C   0  0  0  0  0  3  0  0  0  0  0  0
  189.2320  173.6340  142.4790 C   0  0  0  0  0  0  0  0  0  0  0  0
  190.4140  175.7140  142.8840 C   0  0  0  0  0  0  0  0  0  0  0  0
  190.3470  171.5760  142.9820 N   0  0  0  0  0  0  0  0  0  0  0  0
  191.4840  175.0130  143.3410 N   0  0  0  0  0  0  0  0  0  0  0  0
  188.1070  172.9380  142.0450 O   0  0  0  0  0  1  0  0  0  0  0  0
  191.4860  173.6510  143.3950 C   0  0  0  0  0  0  0  0  0  0  0  0
  192.5590  171.5390  143.8770 C   0  0  0  0  0  3  0  0  0  0  0  0
  195.9520  174.4970  144.5860 C   0  0  0  0  0  0  0  0  0  0  0  0
  195.2640  174.8760  145.6500 C   0  0  0  0  0  2  0  0  0  0  0  0
  193.9220  174.3340  145.5070 C   0  0  0  0  0  0  0  0  0  0  0  0
  195.1380  173.6610  143.6590 C   0  0  0  0  0  3  0  0  0  0  0  0
  193.8250  173.6330  144.3750 C   0  0  0  0  0  0  0  0  0  0  0  0
  192.8450  174.5320  146.5230 C   0  0  0  0  0  2  0  0  0  0  0  0
  192.5310  176.0080  146.6690 C   0  0  0  0  0  1  0  0  0  0  0  0
  197.3880  174.8300  144.3610 C   0  0  0  0  0  2  0  0  0  0  0  0
  197.0390  176.7800  143.1190 C   0  0  0  0  0  1  0  0  0  0  0  0
  197.5670  175.4290  143.0480 N   0  0  0  0  0  2  0  0  0  0  0  0
  187.0360  177.9430  141.4670 C   0  0  0  0  0  2  0  0  0  0  0  0
  185.2850  178.5310  143.1840 C   0  0  0  0  0  0  0  0  0  0  0  0
  186.5370  178.7840  142.5430 N   0  0  0  0  0  2  0  0  0  0  0  0
  184.5730  177.5540  142.8240 O   0  0  0  0  0  0  0  0  0  0  0  0
  184.8250  179.4090  144.2640 C   0  0  0  0  0  0  0  0  0  0  0  0
  185.1530  180.6270  144.2660 O   0  0  0  0  0  0  0  0  0  0  0  0
  184.0280  178.8870  145.2850 O   0  0  0  0  0  0  0  0  0  0  0  0
  185.0780  178.6650  147.4270 C   0  0  0  0  0  1  0  0  0  0  0  0
  184.5280  177.9400  146.2170 C   0  0  0  0  0  2  0  0  0  0  0  0
  1  9  2  0  0  0  0
  1 10  1  0  0  0  0
  2 15  1  0  0  0  0
  2 20  1  0  0  0  0
  3 10  1  0  0  0  0
  4  3  2  0  0  0  0
  5 15  2  0  0  0  0
  6  8  2  0  0  0  0
  6  4  1  0  0  0  0
  7 11  2  0  0  0  0
  7 14  1  0  0  0  0
  8  1  1  0  0  0  0
  9  7  1  0  0  0  0
 10 12  2  0  0  0  0
 11  5  1  0  0  0  0
 12 14  1  0  0  0  0
 13  9  1  0  0  0  0
 14  2  2  0  0  0  0
 16 17  1  0  0  0  0
 18 17  1  0  0  0  0
 18 21  1  0  0  0  0
 19 20  1  0  0  0  0
 19 16  2  0  0  0  0
 20 18  2  0  0  0  0
 21 22  1  0  0  0  0
 23 16  1  0  0  0  0
 25 24  1  0  0  0  0
 25 23  1  0  0  0  0
 26  6  1  0  0  0  0
 26 28  1  0  0  0  0
 27 30  1  0  0  0  0
 28 27  1  0  0  0  0
 29 27  2  0  0  0  0
 30 31  2  0  0  0  0
 30 32  1  0  0  0  0
 32 34  1  0  0  0  0
 34 33  1  0  0  0  0
M  END
>  <MODEL>
6

>  <REMARK>
 VINA RESULT:      -6.9      3.748      6.222
  Name = 
  9 active torsions:
  status: ('A' for Active; 'I' for Inactive)
    1  A    between atoms: C_1  and  C_11
    2  A    between atoms: C_2  and  C_20
    3  A    between atoms: C_4  and  C_8
    4  A    between atoms: C_7  and  C_30
    5  A    between atoms: C_11  and  N_21
    6  A    between atoms: C_12  and  N_15
    7  A    between atoms: C_12  and  C_17
    8  A    between atoms: C_13  and  O_27
    9  A    between atoms: C_20  and  O_27
                            x       y       z     vdW  Elec       q    Type
                         _______ _______ _______ _____ _____    ______ ____

>  <TORSDO>
F 9

$$$$
=
 OpenBabel11042415513D

 34 37  0  0  0  0  0  0  0  0999 V2000
  191.7890  176.0230  145.0630 C   0  0  0  0  0  0  0  0  0  0  0  0
  194.7630  173.3660  143.7360 C   0  0  0  0  0  0  0  0  0  0  0  0
  191.8930  174.9500  147.2450 C   0  0  0  0  0  3  0  0  0  0  0  0
  190.9050  175.8200  147.7150 C   0  0  0  0  0  3  0  0  0  0  0  0
  194.6690  174.4540  141.5690 C   0  0  0  0  0  3  0  0  0  0  0  0
  190.3620  176.7930  146.8690 C   0  0  0  0  0  0  0  0  0  0  0  0
  193.2390  175.2200  143.2980 C   0  0  0  0  0  0  0  0  0  0  0  0
  190.8000  176.8900  145.5440 C   0  0  0  0  0  3  0  0  0  0  0  0
  192.2470  176.1050  143.7420 C   0  0  0  0  0  0  0  0  0  0  0  0
  192.3380  175.0470  145.9240 C   0  0  0  0  0  0  0  0  0  0  0  0
  193.7050  175.2940  142.0230 N   0  0  0  0  0  0  0  0  0  0  0  0
  193.2970  174.2000  145.4690 N   0  0  0  0  0  0  0  0  0  0  0  0
  191.7260  177.0600  142.8730 O   0  0  0  0  0  1  0  0  0  0  0  0
  193.7580  174.2510  144.1880 C   0  0  0  0  0  0  0  0  0  0  0  0
  195.2090  173.4830  142.4120 C   0  0  0  0  0  3  0  0  0  0  0  0
  195.7860  170.2780  145.6110 C   0  0  0  0  0  0  0  0  0  0  0  0
  196.5840  171.1790  146.1590 C   0  0  0  0  0  2  0  0  0  0  0  0
  196.2940  172.4520  145.5180 C   0  0  0  0  0  0  0  0  0  0  0  0
  194.8910  170.8730  144.5790 C   0  0  0  0  0  3  0  0  0  0  0  0
  195.3270  172.3030  144.6110 C   0  0  0  0  0  0  0  0  0  0  0  0
  196.9840  173.7270  145.8790 C   0  0  0  0  0  2  0  0  0  0  0  0
  197.9410  174.1320  144.7760 C   0  0  0  0  0  1  0  0  0  0  0  0
  195.7550  168.8410  146.0100 C   0  0  0  0  0  2  0  0  0  0  0  0
  195.8390  168.1680  148.2480 C   0  0  0  0  0  1  0  0  0  0  0  0
  194.9530  168.6680  147.2110 N   0  0  0  0  0  2  0  0  0  0  0  0
  189.2940  177.7000  147.3680 C   0  0  0  0  0  2  0  0  0  0  0  0
  186.8020  177.9910  147.1130 C   0  0  0  0  0  0  0  0  0  0  0  0
  188.0290  177.3630  146.7340 N   0  0  0  0  0  2  0  0  0  0  0  0
  186.7890  178.8660  148.0210 O   0  0  0  0  0  0  0  0  0  0  0  0
  185.5530  177.6170  146.4440 C   0  0  0  0  0  0  0  0  0  0  0  0
  185.1870  176.4100  146.4260 O   0  0  0  0  0  0  0  0  0  0  0  0
  184.7780  178.6020  145.8290 O   0  0  0  0  0  0  0  0  0  0  0  0
  185.5300  179.7600  143.8720 C   0  0  0  0  0  1  0  0  0  0  0  0
  184.6330  178.6700  144.4180 C   0  0  0  0  0  2  0  0  0  0  0  0
  1  8  2  0  0  0  0
  1 10  1  0  0  0  0
  2 14  1  0  0  0  0
  2 20  1  0  0  0  0
  3  4  1  0  0  0  0
  5 11  2  0  0  0  0
  5 15  1  0  0  0  0
  6 26  1  0  0  0  0
  6  4  2  0  0  0  0
  7  9  2  0  0  0  0
  7 14  1  0  0  0  0
  8  6  1  0  0  0  0
  9  1  1  0  0  0  0
 10  3  2  0  0  0  0
 11  7  1  0  0  0  0
 12 10  1  0  0  0  0
 13  9  1  0  0  0  0
 14 12  2  0  0  0  0
 15  2  2  0  0  0  0
 16 23  1  0  0  0  0
 16 17  1  0  0  0  0
 18 21  1  0  0  0  0
 18 17  1  0  0  0  0
 19 20  1  0  0  0  0
 19 16  2  0  0  0  0
 20 18  2  0  0  0  0
 22 21  1  0  0  0  0
 23 25  1  0  0  0  0
 25 24  1  0  0  0  0
 27 29  2  0  0  0  0
 28 27  1  0  0  0  0
 28 26  1  0  0  0  0
 30 27  1  0  0  0  0
 31 30  2  0  0  0  0
 32 30  1  0  0  0  0
 33 34  1  0  0  0  0
 34 32  1  0  0  0  0
M  END
>  <MODEL>
7

>  <REMARK>
 VINA RESULT:      -6.8      4.367      8.589
  Name = 
  9 active torsions:
  status: ('A' for Active; 'I' for Inactive)
    1  A    between atoms: C_1  and  C_11
    2  A    between atoms: C_2  and  C_20
    3  A    between atoms: C_4  and  C_8
    4  A    between atoms: C_7  and  C_30
    5  A    between atoms: C_11  and  N_21
    6  A    between atoms: C_12  and  N_15
    7  A    between atoms: C_12  and  C_17
    8  A    between atoms: C_13  and  O_27
    9  A    between atoms: C_20  and  O_27
                            x       y       z     vdW  Elec       q    Type
                         _______ _______ _______ _____ _____    ______ ____

>  <TORSDO>
F 9

$$$$
=
 OpenBabel11042415513D

 34 37  0  0  0  0  0  0  0  0999 V2000
  190.1170  175.9850  144.1740 C   0  0  0  0  0  0  0  0  0  0  0  0
  194.2470  175.4270  144.7220 C   0  0  0  0  0  0  0  0  0  0  0  0
  190.3020  174.7990  142.0560 C   0  0  0  0  0  3  0  0  0  0  0  0
  188.9310  174.9690  141.8460 C   0  0  0  0  0  3  0  0  0  0  0  0
  194.0520  176.5920  146.8410 C   0  0  0  0  0  3  0  0  0  0  0  0
  188.1500  175.6380  142.7950 C   0  0  0  0  0  0  0  0  0  0  0  0
  192.1100  176.2980  145.5120 C   0  0  0  0  0  0  0  0  0  0  0  0
  188.7430  176.1500  143.9530 C   0  0  0  0  0  3  0  0  0  0  0  0
  190.7330  176.4840  145.3280 C   0  0  0  0  0  0  0  0  0  0  0  0
  190.8980  175.3030  143.2150 C   0  0  0  0  0  0  0  0  0  0  0  0
  192.7210  176.7630  146.6340 N   0  0  0  0  0  0  0  0  0  0  0  0
  192.2320  175.1380  143.4160 N   0  0  0  0  0  0  0  0  0  0  0  0
  189.9860  177.1570  146.2910 O   0  0  0  0  0  1  0  0  0  0  0  0
  192.8600  175.6170  144.5260 C   0  0  0  0  0  0  0  0  0  0  0  0
  194.8300  175.9270  145.8940 C   0  0  0  0  0  3  0  0  0  0  0  0
  196.4290  174.3090  141.8770 C   0  0  0  0  0  0  0  0  0  0  0  0
  196.3350  173.1890  142.5760 C   0  0  0  0  0  2  0  0  0  0  0  0
  195.5000  173.4760  143.7320 C   0  0  0  0  0  0  0  0  0  0  0  0
  195.6560  175.4230  142.4950 C   0  0  0  0  0  3  0  0  0  0  0  0
  195.0980  174.7480  143.7080 C   0  0  0  0  0  0  0  0  0  0  0  0
  195.1440  172.4520  144.7590 C   0  0  0  0  0  2  0  0  0  0  0  0
  196.3150  172.2230  145.6950 C   0  0  0  0  0  1  0  0  0  0  0  0
  197.1850  174.4310  140.5980 C   0  0  0  0  0  2  0  0  0  0  0  0
  197.1640  175.1830  138.3840 C   0  0  0  0  0  1  0  0  0  0  0  0
  196.4180  175.1990  139.6300 N   0  0  0  0  0  2  0  0  0  0  0  0
  186.6960  175.8380  142.5550 C   0  0  0  0  0  2  0  0  0  0  0  0
  185.8550  178.1160  143.2340 C   0  0  0  0  0  0  0  0  0  0  0  0
  186.1550  176.7550  143.5460 N   0  0  0  0  0  2  0  0  0  0  0  0
  186.0560  178.5610  142.0710 O   0  0  0  0  0  0  0  0  0  0  0  0
  185.3110  179.0010  144.2680 C   0  0  0  0  0  0  0  0  0  0  0  0
  185.5140  180.2440  144.2020 O   0  0  0  0  0  0  0  0  0  0  0  0
  184.5730  178.4580  145.3220 O   0  0  0  0  0  0  0  0  0  0  0  0
  186.2850  178.0290  146.9420 C   0  0  0  0  0  1  0  0  0  0  0  0
  184.9380  178.6670  146.6780 C   0  0  0  0  0  2  0  0  0  0  0  0
  1  9  2  0  0  0  0
  2 15  1  0  0  0  0
  3 10  1  0  0  0  0
  4  3  2  0  0  0  0
  4  6  1  0  0  0  0
  6  8  2  0  0  0  0
  7 11  2  0  0  0  0
  8  1  1  0  0  0  0
  9  7  1  0  0  0  0
  9 13  1  0  0  0  0
 10 12  2  0  0  0  0
 10  1  1  0  0  0  0
 11  5  1  0  0  0  0
 12 14  1  0  0  0  0
 14  2  2  0  0  0  0
 14  7  1  0  0  0  0
 15  5  2  0  0  0  0
 16 19  2  0  0  0  0
 16 17  1  0  0  0  0
 17 18  1  0  0  0  0
 18 21  1  0  0  0  0
 19 20  1  0  0  0  0
 20 18  2  0  0  0  0
 20  2  1  0  0  0  0
 21 22  1  0  0  0  0
 23 16  1  0  0  0  0
 24 25  1  0  0  0  0
 25 23  1  0  0  0  0
 26  6  1  0  0  0  0
 26 28  1  0  0  0  0
 27 28  1  0  0  0  0
 27 30  1  0  0  0  0
 29 27  2  0  0  0  0
 30 32  1  0  0  0  0
 31 30  2  0  0  0  0
 32 34  1  0  0  0  0
 34 33  1  0  0  0  0
M  END
>  <MODEL>
8

>  <REMARK>
 VINA RESULT:      -6.7      3.839      6.447
  Name = 
  9 active torsions:
  status: ('A' for Active; 'I' for Inactive)
    1  A    between atoms: C_1  and  C_11
    2  A    between atoms: C_2  and  C_20
    3  A    between atoms: C_4  and  C_8
    4  A    between atoms: C_7  and  C_30
    5  A    between atoms: C_11  and  N_21
    6  A    between atoms: C_12  and  N_15
    7  A    between atoms: C_12  and  C_17
    8  A    between atoms: C_13  and  O_27
    9  A    between atoms: C_20  and  O_27
                            x       y       z     vdW  Elec       q    Type
                         _______ _______ _______ _____ _____    ______ ____

>  <TORSDO>
F 9

$$$$
=
 OpenBabel11042415513D

 34 37  0  0  0  0  0  0  0  0999 V2000
  190.3540  175.7540  143.9180 C   0  0  0  0  0  0  0  0  0  0  0  0
  194.0940  174.4120  145.2880 C   0  0  0  0  0  0  0  0  0  0  0  0
  190.1150  173.6550  142.7090 C   0  0  0  0  0  3  0  0  0  0  0  0
  188.8680  174.0730  142.2370 C   0  0  0  0  0  3  0  0  0  0  0  0
  194.3180  176.4980  146.5070 C   0  0  0  0  0  3  0  0  0  0  0  0
  188.3590  175.3240  142.6050 C   0  0  0  0  0  0  0  0  0  0  0  0
  192.3630  176.1290  145.2160 C   0  0  0  0  0  0  0  0  0  0  0  0
  189.1030  176.1640  143.4390 C   0  0  0  0  0  3  0  0  0  0  0  0
  191.1160  176.5750  144.7580 C   0  0  0  0  0  0  0  0  0  0  0  0
  190.8600  174.4880  143.5470 C   0  0  0  0  0  0  0  0  0  0  0  0
  193.1100  176.9070  146.0430 N   0  0  0  0  0  0  0  0  0  0  0  0
  192.0730  174.0790  144.0030 N   0  0  0  0  0  0  0  0  0  0  0  0
  190.6410  177.8260  145.1420 O   0  0  0  0  0  1  0  0  0  0  0  0
  192.8400  174.8580  144.8170 C   0  0  0  0  0  0  0  0  0  0  0  0
  194.8260  175.2520  146.1380 C   0  0  0  0  0  3  0  0  0  0  0  0
  195.1880  170.8580  144.7600 C   0  0  0  0  0  0  0  0  0  0  0  0
  195.7930  171.4590  143.7490 C   0  0  0  0  0  3  0  0  0  0  0  0
  195.4540  172.8710  143.8260 C   0  0  0  0  0  0  0  0  0  0  0  0
  194.4140  171.8150  145.6010 C   0  0  0  0  0  2  0  0  0  0  0  0
  194.6670  173.1010  144.8790 C   0  0  0  0  0  0  0  0  0  0  0  0
  195.9630  173.8900  142.8600 C   0  0  0  0  0  2  0  0  0  0  0  0
  197.3110  174.4140  143.3180 C   0  0  0  0  0  1  0  0  0  0  0  0
  195.3010  169.4000  145.0500 C   0  0  0  0  0  2  0  0  0  0  0  0
  195.6220  168.6920  147.2560 C   0  0  0  0  0  1  0  0  0  0  0  0
  194.6100  169.0760  146.2880 N   0  0  0  0  0  2  0  0  0  0  0  0
  187.0420  175.7740  142.0810 C   0  0  0  0  0  2  0  0  0  0  0  0
  186.0860  177.9390  142.9520 C   0  0  0  0  0  0  0  0  0  0  0  0
  186.3430  176.5410  143.1000 N   0  0  0  0  0  2  0  0  0  0  0  0
  186.4650  178.5500  141.9160 O   0  0  0  0  0  0  0  0  0  0  0  0
  185.3780  178.6680  144.0090 C   0  0  0  0  0  0  0  0  0  0  0  0
  185.6060  179.8960  144.1850 O   0  0  0  0  0  0  0  0  0  0  0  0
  184.4570  177.9940  144.8130 O   0  0  0  0  0  0  0  0  0  0  0  0
  185.7330  177.1650  146.6630 C   0  0  0  0  0  1  0  0  0  0  0  0
  184.5500  178.0050  146.2300 C   0  0  0  0  0  2  0  0  0  0  0  0
  1  9  2  0  0  0  0
  2 15  1  0  0  0  0
  3 10  1  0  0  0  0
  4  6  1  0  0  0  0
  4  3  2  0  0  0  0
  6  8  2  0  0  0  0
  7 11  2  0  0  0  0
  8  1  1  0  0  0  0
  9 13  1  0  0  0  0
  9  7  1  0  0  0  0
 10  1  1  0  0  0  0
 10 12  2  0  0  0  0
 11  5  1  0  0  0  0
 12 14  1  0  0  0  0
 14  7  1  0  0  0  0
 14  2  2  0  0  0  0
 15  5  2  0  0  0  0
 16 23  1  0  0  0  0
 16 19  1  0  0  0  0
 17 18  1  0  0  0  0
 17 16  2  0  0  0  0
 18 20  2  0  0  0  0
 20  2  1  0  0  0  0
 20 19  1  0  0  0  0
 21 22  1  0  0  0  0
 21 18  1  0  0  0  0
 23 25  1  0  0  0  0
 25 24  1  0  0  0  0
 26  6  1  0  0  0  0
 26 28  1  0  0  0  0
 27 28  1  0  0  0  0
 27 30  1  0  0  0  0
 29 27  2  0  0  0  0
 30 31  2  0  0  0  0
 30 32  1  0  0  0  0
 32 34  1  0  0  0  0
 34 33  1  0  0  0  0
M  END
>  <MODEL>
9

>  <REMARK>
 VINA RESULT:      -6.7      3.954      7.031
  Name = 
  9 active torsions:
  status: ('A' for Active; 'I' for Inactive)
    1  A    between atoms: C_1  and  C_11
    2  A    between atoms: C_2  and  C_20
    3  A    between atoms: C_4  and  C_8
    4  A    between atoms: C_7  and  C_30
    5  A    between atoms: C_11  and  N_21
    6  A    between atoms: C_12  and  N_15
    7  A    between atoms: C_12  and  C_17
    8  A    between atoms: C_13  and  O_27
    9  A    between atoms: C_20  and  O_27
                            x       y       z     vdW  Elec       q    Type
                         _______ _______ _______ _____ _____    ______ ____

>  <TORSDO>
F 9

$$$$
