=
 OpenBabel11042418353D

 37 38  0  0  1  0  0  0  0  0999 V2000
  189.6990  176.8630  142.8610 N   0  0  0  0  0  0  0  0  0  0  0  0
  190.8890  177.2190  143.5870 C   0  0  0  0  0  0  0  0  0  0  0  0
  191.1580  178.4390  143.7660 O   0  0  0  0  0  0  0  0  0  0  0  0
  192.6500  174.7610  146.0480 C   0  0  0  0  0  3  0  0  0  0  0  0
  191.8190  176.1880  144.1090 C   0  0  0  0  0  0  0  0  0  0  0  0
  192.8100  175.6890  143.3410 C   0  0  0  0  0  0  0  0  0  0  0  0
  193.7230  174.6660  143.8760 C   0  0  0  0  0  0  0  0  0  0  0  0
  191.5510  175.6290  145.4920 C   0  0  0  0  0  2  0  0  0  0  0  0
  194.5960  174.1430  143.1340 O   0  0  0  0  0  0  0  0  0  0  0  0
  193.0110  176.1540  142.0440 O   0  0  0  0  0  1  0  0  0  0  0  0
  193.6360  174.2860  145.2910 C   0  0  0  0  0  0  0  0  0  0  0  0
  194.5890  173.4430  145.8520 O   0  0  0  0  0  1  0  0  0  0  0  0
  188.9440  177.8680  142.2300 N   0  0  0  0  0  2  0  0  0  0  0  0
  187.5350  177.5590  142.4340 C   0  0  1  0  0  3  0  0  0  0  0  0
  186.9670  178.4750  143.5060 C   0  0  0  0  0  2  0  0  0  0  0  0
  186.4540  177.6790  144.6950 C   0  0  0  0  0  3  0  0  0  0  0  0
  185.3170  178.4230  145.3960 C   0  0  0  0  0  2  0  0  0  0  0  0
  187.6030  177.4460  145.6720 C   0  0  0  0  0  2  0  0  0  0  0  0
  184.8300  177.6290  146.6050 C   0  0  0  0  0  2  0  0  0  0  0  0
  185.9810  177.3970  147.5790 C   0  0  0  0  0  2  0  0  0  0  0  0
  187.1160  176.6520  146.8820 C   0  0  0  0  0  2  0  0  0  0  0  0
  186.7700  177.7570  141.1320 C   0  0  0  0  0  2  0  0  0  0  0  0
  185.6910  178.6200  141.3330 O   0  0  0  0  0  0  0  0  0  0  0  0
  184.7270  178.2110  140.4110 C   0  0  0  0  0  2  0  0  0  0  0  0
  183.3950  178.1730  141.0720 C   0  0  0  0  0  0  0  0  0  0  0  0
  183.3010  178.3040  142.4510 O   0  0  0  0  0  1  0  0  0  0  0  0
  182.3480  178.0590  140.3800 O   0  0  0  0  0  0  0  0  0  0  0  0
  189.1600  175.5080  142.9290 C   0  0  0  0  0  2  0  0  0  0  0  0
  189.3450  174.8000  141.5990 C   0  0  0  0  0  2  0  0  0  0  0  0
  190.3190  173.6400  141.7610 C   0  0  2  0  0  3  0  0  0  0  0  0
  190.4780  173.4360  139.5550 C   0  0  0  0  0  1  0  0  0  0  0  0
  191.2390  173.6540  140.7050 O   0  0  0  0  0  0  0  0  0  0  0  0
  189.5560  172.3160  141.7760 C   0  0  2  0  0  3  0  0  0  0  0  0
  188.1970  172.5590  141.9970 O   0  0  0  0  0  1  0  0  0  0  0  0
  190.0910  171.4130  142.8820 C   0  0  0  0  0  2  0  0  0  0  0  0
  189.7500  172.4190  145.0250 O   0  0  0  0  0  1  0  0  0  0  0  0
  190.6920  172.2290  144.0140 C   0  0  0  0  0  2  0  0  0  0  0  0
  1 28  1  0  0  0  0
  1  2  1  0  0  0  0
  2  3  2  0  0  0  0
  2  5  1  0  0  0  0
  5  8  1  0  0  0  0
  6  7  1  0  0  0  0
  6  5  2  0  0  0  0
  7 11  1  0  0  0  0
  8  4  1  0  0  0  0
  9  7  2  0  0  0  0
 10  6  1  0  0  0  0
 11 12  1  0  0  0  0
 11  4  2  0  0  0  0
 13 14  1  0  0  0  0
 13  1  1  0  0  0  0
 14 22  1  6  0  0  0
 14 15  1  0  0  0  0
 15 16  1  0  0  0  0
 16 17  1  0  0  0  0
 16 18  1  0  0  0  0
 17 19  1  0  0  0  0
 18 21  1  0  0  0  0
 19 20  1  0  0  0  0
 21 20  1  0  0  0  0
 22 23  1  0  0  0  0
 24 25  1  0  0  0  0
 24 23  1  0  0  0  0
 25 26  1  0  0  0  0
 27 25  2  0  0  0  0
 29 28  1  0  0  0  0
 30 29  1  6  0  0  0
 30 33  1  0  0  0  0
 31 32  1  0  0  0  0
 32 30  1  0  0  0  0
 33 34  1  1  0  0  0
 33 35  1  0  0  0  0
 35 37  1  0  0  0  0
 37 36  1  0  0  0  0
M  END
>  <MODEL>
1

>  <REMARK>
 VINA RESULT:      -6.2      0.000      0.000
  Name = 
  16 active torsions:
  status: ('A' for Active; 'I' for Inactive)
    1  A    between atoms: C_1  and  C_22
    2  A    between atoms: C_1  and  C_25
    3  A    between atoms: C_2  and  C_37
    4  A    between atoms: N_3  and  C_4
    5  A    between atoms: N_3  and  N_31
    6  A    between atoms: C_4  and  C_28
    7  A    between atoms: C_5  and  C_19
    8  A    between atoms: C_9  and  C_20
    9  A    between atoms: C_11  and  C_22
   10  A    between atoms: C_11  and  C_28
   11  A    between atoms: C_11  and  O_35
   12  A    between atoms: O_15  and  C_19
   13  A    between atoms: O_15  and  C_21
   14  A    between atoms: C_21  and  C_32
   15  A    between atoms: N_31  and  C_32
   16  A    between atoms: C_32  and  C_37
                            x       y       z     vdW  Elec       q    Type
                         _______ _______ _______ _____ _____    ______ ____

>  <TORSDO>
F 16

$$$$
=
 OpenBabel11042418353D

 37 38  0  0  1  0  0  0  0  0999 V2000
  189.8020  176.6610  142.9520 N   0  0  0  0  0  0  0  0  0  0  0  0
  190.8600  177.4180  143.5680 C   0  0  0  0  0  0  0  0  0  0  0  0
  190.8460  178.6770  143.4830 O   0  0  0  0  0  0  0  0  0  0  0  0
  193.0660  176.0260  146.4640 C   0  0  0  0  0  3  0  0  0  0  0  0
  191.9790  176.7530  144.2800 C   0  0  0  0  0  0  0  0  0  0  0  0
  193.0610  176.3030  143.6120 C   0  0  0  0  0  0  0  0  0  0  0  0
  194.1620  175.6450  144.3360 C   0  0  0  0  0  0  0  0  0  0  0  0
  191.8180  176.4920  145.7640 C   0  0  0  0  0  2  0  0  0  0  0  0
  195.1340  175.1540  143.7030 O   0  0  0  0  0  0  0  0  0  0  0  0
  193.1760  176.4810  142.2360 O   0  0  0  0  0  1  0  0  0  0  0  0
  194.1390  175.5990  145.8030 C   0  0  0  0  0  0  0  0  0  0  0  0
  195.2410  175.1280  146.5070 O   0  0  0  0  0  1  0  0  0  0  0  0
  188.8640  177.3180  142.1370 N   0  0  0  0  0  2  0  0  0  0  0  0
  187.5420  177.0850  142.7050 C   0  0  1  0  0  3  0  0  0  0  0  0
  187.2020  178.2110  143.6680 C   0  0  0  0  0  2  0  0  0  0  0  0
  186.5270  177.6760  144.9220 C   0  0  0  0  0  3  0  0  0  0  0  0
  185.6370  178.7450  145.5560 C   0  0  0  0  0  2  0  0  0  0  0  0
  187.6000  177.2370  145.9160 C   0  0  0  0  0  2  0  0  0  0  0  0
  184.9890  178.2080  146.8290 C   0  0  0  0  0  2  0  0  0  0  0  0
  186.0630  177.7690  147.8190 C   0  0  0  0  0  2  0  0  0  0  0  0
  186.9520  176.7000  147.1900 C   0  0  0  0  0  2  0  0  0  0  0  0
  186.5050  177.0310  141.5920 C   0  0  0  0  0  2  0  0  0  0  0  0
  185.3230  177.6490  142.0040 O   0  0  0  0  0  0  0  0  0  0  0  0
  184.7850  178.2080  140.8440 C   0  0  0  0  0  2  0  0  0  0  0  0
  183.3050  178.0660  140.8660 C   0  0  0  0  0  0  0  0  0  0  0  0
  182.5850  178.4810  141.9790 O   0  0  0  0  0  1  0  0  0  0  0  0
  182.6980  177.6050  139.8630 O   0  0  0  0  0  0  0  0  0  0  0  0
  189.5760  175.2650  143.3120 C   0  0  0  0  0  2  0  0  0  0  0  0
  190.2290  174.3460  142.2940 C   0  0  0  0  0  2  0  0  0  0  0  0
  189.4260  173.0570  142.1690 C   0  0  2  0  0  3  0  0  0  0  0  0
  190.4970  171.1380  142.4900 C   0  0  0  0  0  1  0  0  0  0  0  0
  190.1990  172.0910  141.5140 O   0  0  0  0  0  0  0  0  0  0  0  0
  188.1380  173.3180  141.3900 C   0  0  2  0  0  3  0  0  0  0  0  0
  187.1030  172.5410  141.9170 O   0  0  0  0  0  1  0  0  0  0  0  0
  188.3330  172.9660  139.9200 C   0  0  0  0  0  2  0  0  0  0  0  0
  188.0850  173.9190  137.7400 O   0  0  0  0  0  1  0  0  0  0  0  0
  188.4150  174.2180  139.0620 C   0  0  0  0  0  2  0  0  0  0  0  0
  1 28  1  0  0  0  0
  1  2  1  0  0  0  0
  2  5  1  0  0  0  0
  3  2  2  0  0  0  0
  5  8  1  0  0  0  0
  6  5  2  0  0  0  0
  6  7  1  0  0  0  0
  7 11  1  0  0  0  0
  8  4  1  0  0  0  0
  9  7  2  0  0  0  0
 10  6  1  0  0  0  0
 11  4  2  0  0  0  0
 11 12  1  0  0  0  0
 13 14  1  0  0  0  0
 13  1  1  0  0  0  0
 14 22  1  6  0  0  0
 14 15  1  0  0  0  0
 15 16  1  0  0  0  0
 16 17  1  0  0  0  0
 16 18  1  0  0  0  0
 17 19  1  0  0  0  0
 18 21  1  0  0  0  0
 19 20  1  0  0  0  0
 21 20  1  0  0  0  0
 22 23  1  0  0  0  0
 24 25  1  0  0  0  0
 24 23  1  0  0  0  0
 25 26  1  0  0  0  0
 27 25  2  0  0  0  0
 29 28  1  0  0  0  0
 30 29  1  6  0  0  0
 32 30  1  0  0  0  0
 32 31  1  0  0  0  0
 33 34  1  1  0  0  0
 33 30  1  0  0  0  0
 35 33  1  0  0  0  0
 36 37  1  0  0  0  0
 37 35  1  0  0  0  0
M  END
>  <MODEL>
2

>  <REMARK>
 VINA RESULT:      -6.1      1.260      2.018
  Name = 
  16 active torsions:
  status: ('A' for Active; 'I' for Inactive)
    1  A    between atoms: C_1  and  C_22
    2  A    between atoms: C_1  and  C_25
    3  A    between atoms: C_2  and  C_37
    4  A    between atoms: N_3  and  C_4
    5  A    between atoms: N_3  and  N_31
    6  A    between atoms: C_4  and  C_28
    7  A    between atoms: C_5  and  C_19
    8  A    between atoms: C_9  and  C_20
    9  A    between atoms: C_11  and  C_22
   10  A    between atoms: C_11  and  C_28
   11  A    between atoms: C_11  and  O_35
   12  A    between atoms: O_15  and  C_19
   13  A    between atoms: O_15  and  C_21
   14  A    between atoms: C_21  and  C_32
   15  A    between atoms: N_31  and  C_32
   16  A    between atoms: C_32  and  C_37
                            x       y       z     vdW  Elec       q    Type
                         _______ _______ _______ _____ _____    ______ ____

>  <TORSDO>
F 16

$$$$
=
 OpenBabel11042418353D

 37 38  0  0  1  0  0  0  0  0999 V2000
  190.6120  176.3930  143.3200 N   0  0  0  0  0  0  0  0  0  0  0  0
  191.7740  177.0870  143.8100 C   0  0  0  0  0  0  0  0  0  0  0  0
  191.7640  178.3480  143.8550 O   0  0  0  0  0  0  0  0  0  0  0  0
  194.4510  175.4360  146.1130 C   0  0  0  0  0  3  0  0  0  0  0  0
  192.9920  176.3560  144.2410 C   0  0  0  0  0  0  0  0  0  0  0  0
  193.9200  175.9590  143.3460 C   0  0  0  0  0  0  0  0  0  0  0  0
  195.1220  175.2350  143.7920 C   0  0  0  0  0  0  0  0  0  0  0  0
  193.1040  175.9690  145.7020 C   0  0  0  0  0  2  0  0  0  0  0  0
  195.9480  174.7950  142.9490 O   0  0  0  0  0  0  0  0  0  0  0  0
  193.7800  176.2550  141.9930 O   0  0  0  0  0  1  0  0  0  0  0  0
  195.3720  175.0630  145.2290 C   0  0  0  0  0  0  0  0  0  0  0  0
  196.5760  174.5260  145.6720 O   0  0  0  0  0  1  0  0  0  0  0  0
  189.5540  177.1260  142.7550 N   0  0  0  0  0  2  0  0  0  0  0  0
  188.3280  176.7330  143.4370 C   0  0  1  0  0  3  0  0  0  0  0  0
  187.9870  177.7660  144.4990 C   0  0  0  0  0  2  0  0  0  0  0  0
  186.5160  177.7040  144.8750 C   0  0  0  0  0  3  0  0  0  0  0  0
  185.9270  179.1090  145.0000 C   0  0  0  0  0  2  0  0  0  0  0  0
  186.3710  176.9610  146.2010 C   0  0  0  0  0  2  0  0  0  0  0  0
  184.4580  179.0350  145.4080 C   0  0  0  0  0  2  0  0  0  0  0  0
  184.3180  178.2920  146.7320 C   0  0  0  0  0  2  0  0  0  0  0  0
  184.9020  176.8860  146.6090 C   0  0  0  0  0  2  0  0  0  0  0  0
  187.1880  176.6350  142.4320 C   0  0  0  0  0  2  0  0  0  0  0  0
  187.3810  177.5470  141.3930 O   0  0  0  0  0  0  0  0  0  0  0  0
  186.1920  178.2750  141.3270 C   0  0  0  0  0  2  0  0  0  0  0  0
  185.3860  177.8030  140.1700 C   0  0  0  0  0  0  0  0  0  0  0  0
  184.0260  178.0780  140.1150 O   0  0  0  0  0  1  0  0  0  0  0  0
  185.9410  177.1870  139.2220 O   0  0  0  0  0  0  0  0  0  0  0  0
  190.4320  174.9670  143.5730 C   0  0  0  0  0  2  0  0  0  0  0  0
  190.8590  174.1590  142.3600 C   0  0  0  0  0  2  0  0  0  0  0  0
  190.1890  172.7910  142.3870 C   0  0  2  0  0  3  0  0  0  0  0  0
  188.0390  172.8440  141.8310 C   0  0  0  0  0  1  0  0  0  0  0  0
  188.9030  172.9140  142.9250 O   0  0  0  0  0  0  0  0  0  0  0  0
  191.0200  171.8190  143.2230 C   0  0  2  0  0  3  0  0  0  0  0  0
  190.5870  171.8520  144.5520 O   0  0  0  0  0  1  0  0  0  0  0  0
  192.4940  172.2040  143.1660 C   0  0  0  0  0  2  0  0  0  0  0  0
  194.5250  171.8430  144.3770 O   0  0  0  0  0  1  0  0  0  0  0  0
  193.1540  172.0530  144.5260 C   0  0  0  0  0  2  0  0  0  0  0  0
  1 28  1  0  0  0  0
  1  2  1  0  0  0  0
  2  3  2  0  0  0  0
  2  5  1  0  0  0  0
  5  8  1  0  0  0  0
  6  7  1  0  0  0  0
  6  5  2  0  0  0  0
  7 11  1  0  0  0  0
  8  4  1  0  0  0  0
  9  7  2  0  0  0  0
 10  6  1  0  0  0  0
 11 12  1  0  0  0  0
 11  4  2  0  0  0  0
 13  1  1  0  0  0  0
 13 14  1  0  0  0  0
 14 22  1  6  0  0  0
 14 15  1  0  0  0  0
 15 16  1  0  0  0  0
 16 17  1  0  0  0  0
 16 18  1  0  0  0  0
 17 19  1  0  0  0  0
 18 21  1  0  0  0  0
 19 20  1  0  0  0  0
 21 20  1  0  0  0  0
 23 22  1  0  0  0  0
 24 23  1  0  0  0  0
 25 24  1  0  0  0  0
 26 25  1  0  0  0  0
 27 25  2  0  0  0  0
 29 28  1  0  0  0  0
 30 29  1  1  0  0  0
 30 32  1  0  0  0  0
 30 33  1  0  0  0  0
 31 32  1  0  0  0  0
 33 34  1  1  0  0  0
 35 33  1  0  0  0  0
 35 37  1  0  0  0  0
 36 37  1  0  0  0  0
M  END
>  <MODEL>
3

>  <REMARK>
 VINA RESULT:      -6.0      1.492      2.120
  Name = 
  16 active torsions:
  status: ('A' for Active; 'I' for Inactive)
    1  A    between atoms: C_1  and  C_22
    2  A    between atoms: C_1  and  C_25
    3  A    between atoms: C_2  and  C_37
    4  A    between atoms: N_3  and  C_4
    5  A    between atoms: N_3  and  N_31
    6  A    between atoms: C_4  and  C_28
    7  A    between atoms: C_5  and  C_19
    8  A    between atoms: C_9  and  C_20
    9  A    between atoms: C_11  and  C_22
   10  A    between atoms: C_11  and  C_28
   11  A    between atoms: C_11  and  O_35
   12  A    between atoms: O_15  and  C_19
   13  A    between atoms: O_15  and  C_21
   14  A    between atoms: C_21  and  C_32
   15  A    between atoms: N_31  and  C_32
   16  A    between atoms: C_32  and  C_37
                            x       y       z     vdW  Elec       q    Type
                         _______ _______ _______ _____ _____    ______ ____

>  <TORSDO>
F 16

$$$$
=
 OpenBabel11042418353D

 37 38  0  0  1  0  0  0  0  0999 V2000
  190.8120  176.3130  143.3130 N   0  0  0  0  0  0  0  0  0  0  0  0
  191.9470  176.9990  143.8730 C   0  0  0  0  0  0  0  0  0  0  0  0
  191.8810  178.2440  144.0620 O   0  0  0  0  0  0  0  0  0  0  0  0
  194.7830  175.3340  145.9650 C   0  0  0  0  0  3  0  0  0  0  0  0
  193.2010  176.2800  144.2090 C   0  0  0  0  0  0  0  0  0  0  0  0
  194.0820  175.9280  143.2510 C   0  0  0  0  0  0  0  0  0  0  0  0
  195.3210  175.2160  143.6050 C   0  0  0  0  0  0  0  0  0  0  0  0
  193.4050  175.8520  145.6490 C   0  0  0  0  0  2  0  0  0  0  0  0
  196.1040  174.8170  142.7020 O   0  0  0  0  0  0  0  0  0  0  0  0
  193.8580  176.2620  141.9180 O   0  0  0  0  0  1  0  0  0  0  0  0
  195.6580  175.0060  145.0180 C   0  0  0  0  0  0  0  0  0  0  0  0
  196.8940  174.4790  145.3740 O   0  0  0  0  0  1  0  0  0  0  0  0
  189.7160  177.0570  142.8420 N   0  0  0  0  0  2  0  0  0  0  0  0
  188.5270  176.5900  143.5440 C   0  0  1  0  0  3  0  0  0  0  0  0
  188.1350  177.6070  144.6040 C   0  0  0  0  0  2  0  0  0  0  0  0
  186.6370  177.5820  144.8610 C   0  0  0  0  0  3  0  0  0  0  0  0
  186.0470  178.9890  144.7680 C   0  0  0  0  0  2  0  0  0  0  0  0
  186.3790  177.0020  146.2500 C   0  0  0  0  0  2  0  0  0  0  0  0
  184.5490  178.9570  145.0580 C   0  0  0  0  0  2  0  0  0  0  0  0
  184.2960  178.3760  146.4460 C   0  0  0  0  0  2  0  0  0  0  0  0
  184.8810  176.9700  146.5410 C   0  0  0  0  0  2  0  0  0  0  0  0
  187.3830  176.4100  142.5570 C   0  0  0  0  0  2  0  0  0  0  0  0
  187.7800  176.8090  141.2790 O   0  0  0  0  0  0  0  0  0  0  0  0
  187.0130  177.9410  141.0000 C   0  0  0  0  0  2  0  0  0  0  0  0
  186.0000  177.6090  139.9640 C   0  0  0  0  0  0  0  0  0  0  0  0
  186.3870  176.9630  138.7970 O   0  0  0  0  0  0  0  0  0  0  0  0
  184.7850  177.8800  140.1580 O   0  0  0  0  0  1  0  0  0  0  0  0
  190.6980  174.8610  143.4020 C   0  0  0  0  0  2  0  0  0  0  0  0
  190.8320  174.2370  142.0250 C   0  0  0  0  0  2  0  0  0  0  0  0
  189.5690  173.4580  141.6830 C   0  0  2  0  0  3  0  0  0  0  0  0
  189.0690  171.8230  143.1010 C   0  0  0  0  0  1  0  0  0  0  0  0
  189.7800  172.0960  141.9310 O   0  0  0  0  0  0  0  0  0  0  0  0
  189.2040  173.6740  140.2150 C   0  0  2  0  0  3  0  0  0  0  0  0
  188.1370  172.8410  139.8670 O   0  0  0  0  0  1  0  0  0  0  0  0
  190.4000  173.3580  139.3240 C   0  0  0  0  0  2  0  0  0  0  0  0
  191.3040  171.4510  138.1980 O   0  0  0  0  0  1  0  0  0  0  0  0
  190.1230  172.1530  138.4410 C   0  0  0  0  0  2  0  0  0  0  0  0
  1 28  1  0  0  0  0
  1  2  1  0  0  0  0
  2  3  2  0  0  0  0
  2  5  1  0  0  0  0
  5  8  1  0  0  0  0
  6  7  1  0  0  0  0
  6  5  2  0  0  0  0
  7 11  1  0  0  0  0
  8  4  1  0  0  0  0
  9  7  2  0  0  0  0
 10  6  1  0  0  0  0
 11 12  1  0  0  0  0
 11  4  2  0  0  0  0
 13  1  1  0  0  0  0
 13 14  1  0  0  0  0
 14 22  1  6  0  0  0
 14 15  1  0  0  0  0
 15 16  1  0  0  0  0
 16 18  1  0  0  0  0
 17 16  1  0  0  0  0
 17 19  1  0  0  0  0
 18 21  1  0  0  0  0
 19 20  1  0  0  0  0
 20 21  1  0  0  0  0
 23 22  1  0  0  0  0
 24 23  1  0  0  0  0
 25 27  1  0  0  0  0
 25 24  1  0  0  0  0
 26 25  2  0  0  0  0
 29 28  1  0  0  0  0
 30 32  1  0  0  0  0
 30 29  1  6  0  0  0
 32 31  1  0  0  0  0
 33 34  1  6  0  0  0
 33 30  1  0  0  0  0
 35 33  1  0  0  0  0
 36 37  1  0  0  0  0
 37 35  1  0  0  0  0
M  END
>  <MODEL>
4

>  <REMARK>
 VINA RESULT:      -5.9      1.580      2.612
  Name = 
  16 active torsions:
  status: ('A' for Active; 'I' for Inactive)
    1  A    between atoms: C_1  and  C_22
    2  A    between atoms: C_1  and  C_25
    3  A    between atoms: C_2  and  C_37
    4  A    between atoms: N_3  and  C_4
    5  A    between atoms: N_3  and  N_31
    6  A    between atoms: C_4  and  C_28
    7  A    between atoms: C_5  and  C_19
    8  A    between atoms: C_9  and  C_20
    9  A    between atoms: C_11  and  C_22
   10  A    between atoms: C_11  and  C_28
   11  A    between atoms: C_11  and  O_35
   12  A    between atoms: O_15  and  C_19
   13  A    between atoms: O_15  and  C_21
   14  A    between atoms: C_21  and  C_32
   15  A    between atoms: N_31  and  C_32
   16  A    between atoms: C_32  and  C_37
                            x       y       z     vdW  Elec       q    Type
                         _______ _______ _______ _____ _____    ______ ____

>  <TORSDO>
F 16

$$$$
=
 OpenBabel11042418353D

 37 38  0  0  1  0  0  0  0  0999 V2000
  190.9070  176.2120  143.1110 N   0  0  0  0  0  0  0  0  0  0  0  0
  192.0300  176.9360  143.6460 C   0  0  0  0  0  0  0  0  0  0  0  0
  191.9350  178.1830  143.8130 O   0  0  0  0  0  0  0  0  0  0  0  0
  194.9060  175.3410  145.7390 C   0  0  0  0  0  3  0  0  0  0  0  0
  193.3050  176.2560  143.9830 C   0  0  0  0  0  0  0  0  0  0  0  0
  194.2040  175.9460  143.0270 C   0  0  0  0  0  0  0  0  0  0  0  0
  195.4640  175.2710  143.3810 C   0  0  0  0  0  0  0  0  0  0  0  0
  193.5140  175.8170  145.4180 C   0  0  0  0  0  2  0  0  0  0  0  0
  196.2660  174.9090  142.4790 O   0  0  0  0  0  0  0  0  0  0  0  0
  193.9780  176.2880  141.6960 O   0  0  0  0  0  1  0  0  0  0  0  0
  195.7980  175.0540  144.7940 C   0  0  0  0  0  0  0  0  0  0  0  0
  197.0490  174.5650  145.1520 O   0  0  0  0  0  1  0  0  0  0  0  0
  189.7880  176.9190  142.6380 N   0  0  0  0  0  2  0  0  0  0  0  0
  188.6480  176.5520  143.4670 C   0  0  1  0  0  3  0  0  0  0  0  0
  188.4850  177.5720  144.5820 C   0  0  0  0  0  2  0  0  0  0  0  0
  188.8120  176.9630  145.9360 C   0  0  0  0  0  3  0  0  0  0  0  0
  190.1860  177.4250  146.4220 C   0  0  0  0  0  2  0  0  0  0  0  0
  188.7880  175.4410  145.8170 C   0  0  0  0  0  2  0  0  0  0  0  0
  190.5170  176.7840  147.7670 C   0  0  0  0  0  2  0  0  0  0  0  0
  190.4900  175.2640  147.6440 C   0  0  0  0  0  2  0  0  0  0  0  0
  189.1180  174.8000  147.1620 C   0  0  0  0  0  2  0  0  0  0  0  0
  187.3840  176.5140  142.6180 C   0  0  0  0  0  2  0  0  0  0  0  0
  186.6830  177.7150  142.7430 O   0  0  0  0  0  0  0  0  0  0  0  0
  186.2600  178.0210  141.4490 C   0  0  0  0  0  2  0  0  0  0  0  0
  184.7840  178.2090  141.4420 C   0  0  0  0  0  0  0  0  0  0  0  0
  184.0540  178.0010  142.6050 O   0  0  0  0  0  1  0  0  0  0  0  0
  184.2000  178.5920  140.3940 O   0  0  0  0  0  0  0  0  0  0  0  0
  190.8310  174.7590  143.2280 C   0  0  0  0  0  2  0  0  0  0  0  0
  191.1040  174.1080  141.8840 C   0  0  0  0  0  2  0  0  0  0  0  0
  189.8290  173.4670  141.3500 C   0  0  2  0  0  3  0  0  0  0  0  0
  187.7580  172.8690  141.8840 C   0  0  0  0  0  1  0  0  0  0  0  0
  189.0320  173.0550  142.4240 O   0  0  0  0  0  0  0  0  0  0  0  0
  190.1770  172.2730  140.4630 C   0  0  2  0  0  3  0  0  0  0  0  0
  191.3970  171.7240  140.8690 O   0  0  0  0  0  1  0  0  0  0  0  0
  190.2850  172.7140  139.0070 C   0  0  0  0  0  2  0  0  0  0  0  0
  188.2220  173.2230  137.9090 O   0  0  0  0  0  1  0  0  0  0  0  0
  189.2480  173.7740  138.6770 C   0  0  0  0  0  2  0  0  0  0  0  0
  1 28  1  0  0  0  0
  1  2  1  0  0  0  0
  2  3  2  0  0  0  0
  2  5  1  0  0  0  0
  5  8  1  0  0  0  0
  6  7  1  0  0  0  0
  6  5  2  0  0  0  0
  7 11  1  0  0  0  0
  8  4  1  0  0  0  0
  9  7  2  0  0  0  0
 10  6  1  0  0  0  0
 11 12  1  0  0  0  0
 11  4  2  0  0  0  0
 13  1  1  0  0  0  0
 13 14  1  0  0  0  0
 14 22  1  6  0  0  0
 14 15  1  0  0  0  0
 15 16  1  0  0  0  0
 16 17  1  0  0  0  0
 17 19  1  0  0  0  0
 18 16  1  0  0  0  0
 18 21  1  0  0  0  0
 20 19  1  0  0  0  0
 21 20  1  0  0  0  0
 22 23  1  0  0  0  0
 24 23  1  0  0  0  0
 25 24  1  0  0  0  0
 25 26  1  0  0  0  0
 27 25  2  0  0  0  0
 29 28  1  0  0  0  0
 30 29  1  1  0  0  0
 30 32  1  0  0  0  0
 31 32  1  0  0  0  0
 33 34  1  1  0  0  0
 33 30  1  0  0  0  0
 35 33  1  0  0  0  0
 36 37  1  0  0  0  0
 37 35  1  0  0  0  0
M  END
>  <MODEL>
5

>  <REMARK>
 VINA RESULT:      -5.8      1.857      2.936
  Name = 
  16 active torsions:
  status: ('A' for Active; 'I' for Inactive)
    1  A    between atoms: C_1  and  C_22
    2  A    between atoms: C_1  and  C_25
    3  A    between atoms: C_2  and  C_37
    4  A    between atoms: N_3  and  C_4
    5  A    between atoms: N_3  and  N_31
    6  A    between atoms: C_4  and  C_28
    7  A    between atoms: C_5  and  C_19
    8  A    between atoms: C_9  and  C_20
    9  A    between atoms: C_11  and  C_22
   10  A    between atoms: C_11  and  C_28
   11  A    between atoms: C_11  and  O_35
   12  A    between atoms: O_15  and  C_19
   13  A    between atoms: O_15  and  C_21
   14  A    between atoms: C_21  and  C_32
   15  A    between atoms: N_31  and  C_32
   16  A    between atoms: C_32  and  C_37
                            x       y       z     vdW  Elec       q    Type
                         _______ _______ _______ _____ _____    ______ ____

>  <TORSDO>
F 16

$$$$
=
 OpenBabel11042418353D

 37 38  0  0  1  0  0  0  0  0999 V2000
  191.5150  176.1160  145.1060 N   0  0  0  0  0  0  0  0  0  0  0  0
  192.5540  175.7930  146.0480 C   0  0  0  0  0  0  0  0  0  0  0  0
  192.4810  176.2450  147.2240 O   0  0  0  0  0  0  0  0  0  0  0  0
  194.8350  172.6770  145.5170 C   0  0  0  0  0  3  0  0  0  0  0  0
  193.7210  174.9620  145.6630 C   0  0  0  0  0  0  0  0  0  0  0  0
  194.8560  175.5250  145.1990 C   0  0  0  0  0  0  0  0  0  0  0  0
  196.0040  174.6840  144.8220 C   0  0  0  0  0  0  0  0  0  0  0  0
  193.5590  173.4560  145.6980 C   0  0  0  0  0  2  0  0  0  0  0  0
  197.0330  175.2040  144.3140 O   0  0  0  0  0  0  0  0  0  0  0  0
  194.9780  176.9090  145.1010 O   0  0  0  0  0  1  0  0  0  0  0  0
  195.9580  173.2390  145.0770 C   0  0  0  0  0  0  0  0  0  0  0  0
  197.0880  172.4540  144.8770 O   0  0  0  0  0  1  0  0  0  0  0  0
  190.5260  177.0520  145.4590 N   0  0  0  0  0  2  0  0  0  0  0  0
  189.3270  176.7400  144.6920 C   0  0  1  0  0  3  0  0  0  0  0  0
  188.2250  176.2920  145.6390 C   0  0  0  0  0  2  0  0  0  0  0  0
  187.1630  177.3690  145.7960 C   0  0  0  0  0  3  0  0  0  0  0  0
  187.1150  177.8760  147.2380 C   0  0  0  0  0  2  0  0  0  0  0  0
  185.8060  176.7920  145.4030 C   0  0  0  0  0  2  0  0  0  0  0  0
  186.0260  178.9350  147.3910 C   0  0  0  0  0  2  0  0  0  0  0  0
  184.6720  178.3550  146.9960 C   0  0  0  0  0  2  0  0  0  0  0  0
  184.7160  177.8500  145.5570 C   0  0  0  0  0  2  0  0  0  0  0  0
  188.8720  177.9720  143.9220 C   0  0  0  0  0  2  0  0  0  0  0  0
  189.0500  177.7760  142.5510 O   0  0  0  0  0  0  0  0  0  0  0  0
  187.7940  178.0040  141.9880 C   0  0  0  0  0  2  0  0  0  0  0  0
  187.2670  176.7340  141.4220 C   0  0  0  0  0  0  0  0  0  0  0  0
  186.8200  175.7300  142.2710 O   0  0  0  0  0  1  0  0  0  0  0  0
  187.1900  176.5820  140.1740 O   0  0  0  0  0  0  0  0  0  0  0  0
  191.3620  175.3520  143.8720 C   0  0  0  0  0  2  0  0  0  0  0  0
  192.1550  175.9990  142.7500 C   0  0  0  0  0  2  0  0  0  0  0  0
  193.1760  175.0110  142.2010 C   0  0  2  0  0  3  0  0  0  0  0  0
  194.7350  176.3020  141.2860 C   0  0  0  0  0  1  0  0  0  0  0  0
  193.6560  175.4740  140.9710 O   0  0  0  0  0  0  0  0  0  0  0  0
  192.5320  173.6350  142.0320 C   0  0  2  0  0  3  0  0  0  0  0  0
  193.4920  172.6390  142.2270 O   0  0  0  0  0  1  0  0  0  0  0  0
  191.9450  173.5000  140.6310 C   0  0  0  0  0  2  0  0  0  0  0  0
  189.6720  174.2240  140.8150 O   0  0  0  0  0  1  0  0  0  0  0  0
  190.4820  173.0940  140.6870 C   0  0  0  0  0  2  0  0  0  0  0  0
  1 13  1  0  0  0  0
  1  2  1  0  0  0  0
  2  3  2  0  0  0  0
  4  8  1  0  0  0  0
  5  8  1  0  0  0  0
  5  2  1  0  0  0  0
  6  5  2  0  0  0  0
  7 11  1  0  0  0  0
  7  6  1  0  0  0  0
  9  7  2  0  0  0  0
 10  6  1  0  0  0  0
 11  4  2  0  0  0  0
 12 11  1  0  0  0  0
 14 22  1  1  0  0  0
 14 13  1  0  0  0  0
 14 15  1  0  0  0  0
 15 16  1  0  0  0  0
 16 17  1  0  0  0  0
 17 19  1  0  0  0  0
 18 21  1  0  0  0  0
 18 16  1  0  0  0  0
 20 19  1  0  0  0  0
 21 20  1  0  0  0  0
 23 22  1  0  0  0  0
 24 23  1  0  0  0  0
 25 24  1  0  0  0  0
 25 26  1  0  0  0  0
 27 25  2  0  0  0  0
 28  1  1  0  0  0  0
 29 28  1  0  0  0  0
 30 29  1  6  0  0  0
 32 31  1  0  0  0  0
 32 30  1  0  0  0  0
 33 30  1  0  0  0  0
 33 34  1  6  0  0  0
 35 37  1  0  0  0  0
 35 33  1  0  0  0  0
 37 36  1  0  0  0  0
M  END
>  <MODEL>
6

>  <REMARK>
 VINA RESULT:      -5.7      2.366      3.391
  Name = 
  16 active torsions:
  status: ('A' for Active; 'I' for Inactive)
    1  A    between atoms: C_1  and  C_22
    2  A    between atoms: C_1  and  C_25
    3  A    between atoms: C_2  and  C_37
    4  A    between atoms: N_3  and  C_4
    5  A    between atoms: N_3  and  N_31
    6  A    between atoms: C_4  and  C_28
    7  A    between atoms: C_5  and  C_19
    8  A    between atoms: C_9  and  C_20
    9  A    between atoms: C_11  and  C_22
   10  A    between atoms: C_11  and  C_28
   11  A    between atoms: C_11  and  O_35
   12  A    between atoms: O_15  and  C_19
   13  A    between atoms: O_15  and  C_21
   14  A    between atoms: C_21  and  C_32
   15  A    between atoms: N_31  and  C_32
   16  A    between atoms: C_32  and  C_37
                            x       y       z     vdW  Elec       q    Type
                         _______ _______ _______ _____ _____    ______ ____

>  <TORSDO>
F 16

$$$$
=
 OpenBabel11042418353D

 37 38  0  0  1  0  0  0  0  0999 V2000
  190.2430  175.3190  144.2510 N   0  0  0  0  0  0  0  0  0  0  0  0
  191.4060  174.4860  144.0940 C   0  0  0  0  0  0  0  0  0  0  0  0
  191.4580  173.3810  144.7010 O   0  0  0  0  0  0  0  0  0  0  0  0
  193.7400  174.9140  141.0020 C   0  0  0  0  0  3  0  0  0  0  0  0
  192.5560  174.9060  143.2560 C   0  0  0  0  0  0  0  0  0  0  0  0
  193.6050  175.5650  143.7900 C   0  0  0  0  0  0  0  0  0  0  0  0
  194.7370  175.9730  142.9410 C   0  0  0  0  0  0  0  0  0  0  0  0
  192.4620  174.6760  141.7610 C   0  0  0  0  0  2  0  0  0  0  0  0
  195.6780  176.6570  143.4240 O   0  0  0  0  0  0  0  0  0  0  0  0
  193.6570  175.8380  145.1540 O   0  0  0  0  0  1  0  0  0  0  0  0
  194.7810  175.5470  141.5370 C   0  0  0  0  0  0  0  0  0  0  0  0
  195.9130  175.7860  140.7660 O   0  0  0  0  0  1  0  0  0  0  0  0
  189.2610  174.9670  145.1940 N   0  0  0  0  0  2  0  0  0  0  0  0
  189.2170  176.0180  146.2030 C   0  0  1  0  0  3  0  0  0  0  0  0
  187.8550  176.0150  146.8760 C   0  0  0  0  0  2  0  0  0  0  0  0
  187.0220  177.2090  146.4360 C   0  0  0  0  0  3  0  0  0  0  0  0
  186.3550  177.8780  147.6380 C   0  0  0  0  0  2  0  0  0  0  0  0
  185.9570  176.7370  145.4490 C   0  0  0  0  0  2  0  0  0  0  0  0
  185.4980  179.0550  147.1820 C   0  0  0  0  0  2  0  0  0  0  0  0
  184.4370  178.5800  146.1950 C   0  0  0  0  0  2  0  0  0  0  0  0
  185.0990  177.9140  144.9920 C   0  0  0  0  0  2  0  0  0  0  0  0
  190.3040  175.7790  147.2420 C   0  0  0  0  0  2  0  0  0  0  0  0
  191.2660  176.7880  147.1750 O   0  0  0  0  0  0  0  0  0  0  0  0
  191.8080  176.8560  148.4590 C   0  0  0  0  0  2  0  0  0  0  0  0
  191.1910  177.9890  149.1980 C   0  0  0  0  0  0  0  0  0  0  0  0
  190.1620  178.7180  148.6160 O   0  0  0  0  0  0  0  0  0  0  0  0
  191.5750  178.2670  150.3660 O   0  0  0  0  0  1  0  0  0  0  0  0
  189.9740  176.4100  143.3200 C   0  0  0  0  0  2  0  0  0  0  0  0
  188.5500  176.3220  142.8020 C   0  0  0  0  0  2  0  0  0  0  0  0
  188.5590  175.9810  141.3170 C   0  0  2  0  0  3  0  0  0  0  0  0
  187.1240  177.6510  141.0280 C   0  0  0  0  0  1  0  0  0  0  0  0
  187.3130  176.2940  140.7610 O   0  0  0  0  0  0  0  0  0  0  0  0
  188.8630  174.4960  141.1250 C   0  0  2  0  0  3  0  0  0  0  0  0
  188.7210  174.1570  139.7760 O   0  0  0  0  0  1  0  0  0  0  0  0
  187.9060  173.6510  141.9590 C   0  0  0  0  0  2  0  0  0  0  0  0
  189.7270  172.1060  141.8200 O   0  0  0  0  0  1  0  0  0  0  0  0
  188.6250  172.4720  142.5930 C   0  0  0  0  0  2  0  0  0  0  0  0
  1 13  1  0  0  0  0
  2  1  1  0  0  0  0
  2  3  2  0  0  0  0
  4 11  2  0  0  0  0
  4  8  1  0  0  0  0
  5  6  2  0  0  0  0
  5  2  1  0  0  0  0
  6 10  1  0  0  0  0
  7  9  2  0  0  0  0
  7  6  1  0  0  0  0
  8  5  1  0  0  0  0
 11  7  1  0  0  0  0
 12 11  1  0  0  0  0
 13 14  1  0  0  0  0
 14 15  1  1  0  0  0
 14 22  1  0  0  0  0
 16 15  1  0  0  0  0
 16 17  1  0  0  0  0
 18 16  1  0  0  0  0
 19 17  1  0  0  0  0
 20 19  1  0  0  0  0
 21 18  1  0  0  0  0
 21 20  1  0  0  0  0
 23 22  1  0  0  0  0
 23 24  1  0  0  0  0
 24 25  1  0  0  0  0
 25 27  1  0  0  0  0
 26 25  2  0  0  0  0
 28  1  1  0  0  0  0
 29 28  1  0  0  0  0
 30 29  1  1  0  0  0
 32 31  1  0  0  0  0
 32 30  1  0  0  0  0
 33 34  1  6  0  0  0
 33 30  1  0  0  0  0
 33 35  1  0  0  0  0
 35 37  1  0  0  0  0
 36 37  1  0  0  0  0
M  END
>  <MODEL>
7

>  <REMARK>
 VINA RESULT:      -5.7      2.479      5.167
  Name = 
  16 active torsions:
  status: ('A' for Active; 'I' for Inactive)
    1  A    between atoms: C_1  and  C_22
    2  A    between atoms: C_1  and  C_25
    3  A    between atoms: C_2  and  C_37
    4  A    between atoms: N_3  and  C_4
    5  A    between atoms: N_3  and  N_31
    6  A    between atoms: C_4  and  C_28
    7  A    between atoms: C_5  and  C_19
    8  A    between atoms: C_9  and  C_20
    9  A    between atoms: C_11  and  C_22
   10  A    between atoms: C_11  and  C_28
   11  A    between atoms: C_11  and  O_35
   12  A    between atoms: O_15  and  C_19
   13  A    between atoms: O_15  and  C_21
   14  A    between atoms: C_21  and  C_32
   15  A    between atoms: N_31  and  C_32
   16  A    between atoms: C_32  and  C_37
                            x       y       z     vdW  Elec       q    Type
                         _______ _______ _______ _____ _____    ______ ____

>  <TORSDO>
F 16

$$$$
=
 OpenBabel11042418353D

 37 38  0  0  1  0  0  0  0  0999 V2000
  190.4020  175.4860  144.0720 N   0  0  0  0  0  0  0  0  0  0  0  0
  191.3480  175.0170  145.0500 C   0  0  0  0  0  0  0  0  0  0  0  0
  190.9220  174.5070  146.1230 O   0  0  0  0  0  0  0  0  0  0  0  0
  194.9060  176.5880  144.7880 C   0  0  0  0  0  3  0  0  0  0  0  0
  192.8110  175.1410  144.8380 C   0  0  0  0  0  0  0  0  0  0  0  0
  193.5450  174.0960  144.4040 C   0  0  0  0  0  0  0  0  0  0  0  0
  194.9960  174.2380  144.1990 C   0  0  0  0  0  0  0  0  0  0  0  0
  193.4750  176.4450  145.2340 C   0  0  0  0  0  2  0  0  0  0  0  0
  195.6920  173.2400  143.8720 O   0  0  0  0  0  0  0  0  0  0  0  0
  192.9420  172.8760  144.1070 O   0  0  0  0  0  1  0  0  0  0  0  0
  195.6210  175.5580  144.3420 C   0  0  0  0  0  0  0  0  0  0  0  0
  196.9560  175.7430  143.9990 O   0  0  0  0  0  1  0  0  0  0  0  0
  189.0320  175.5150  144.3910 N   0  0  0  0  0  2  0  0  0  0  0  0
  188.8070  176.6460  145.2810 C   0  0  1  0  0  3  0  0  0  0  0  0
  188.3660  177.8510  144.4650 C   0  0  0  0  0  2  0  0  0  0  0  0
  187.4020  177.4450  143.3620 C   0  0  0  0  0  3  0  0  0  0  0  0
  187.8840  177.9580  142.0040 C   0  0  0  0  0  2  0  0  0  0  0  0
  186.0200  178.0150  143.6720 C   0  0  0  0  0  2  0  0  0  0  0  0
  186.8940  177.5710  140.9090 C   0  0  0  0  0  2  0  0  0  0  0  0
  185.5150  178.1420  141.2230 C   0  0  0  0  0  2  0  0  0  0  0  0
  185.0300  177.6290  142.5760 C   0  0  0  0  0  2  0  0  0  0  0  0
  187.7320  176.2940  146.3000 C   0  0  0  0  0  2  0  0  0  0  0  0
  187.4950  177.3800  147.1440 O   0  0  0  0  0  0  0  0  0  0  0  0
  186.1870  177.2040  147.5990 C   0  0  0  0  0  2  0  0  0  0  0  0
  185.4020  178.4400  147.3430 C   0  0  0  0  0  0  0  0  0  0  0  0
  185.9450  179.6820  147.6470 O   0  0  0  0  0  1  0  0  0  0  0  0
  184.2600  178.3670  146.8160 O   0  0  0  0  0  0  0  0  0  0  0  0
  190.8160  175.7490  142.6980 C   0  0  0  0  0  2  0  0  0  0  0  0
  190.0470  174.8600  141.7360 C   0  0  0  0  0  2  0  0  0  0  0  0
  190.8640  173.6150  141.4160 C   0  0  2  0  0  3  0  0  0  0  0  0
  192.8740  173.4260  140.4880 C   0  0  0  0  0  1  0  0  0  0  0  0
  191.5600  173.8120  140.2170 O   0  0  0  0  0  0  0  0  0  0  0  0
  189.9420  172.4030  141.2970 C   0  0  2  0  0  3  0  0  0  0  0  0
  188.6200  172.8300  141.1430 O   0  0  0  0  0  1  0  0  0  0  0  0
  190.0480  171.5370  142.5480 C   0  0  0  0  0  2  0  0  0  0  0  0
  189.5930  171.8560  144.8740 O   0  0  0  0  0  1  0  0  0  0  0  0
  189.0380  171.9660  143.5990 C   0  0  0  0  0  2  0  0  0  0  0  0
  1 13  1  0  0  0  0
  1  2  1  0  0  0  0
  2  3  2  0  0  0  0
  4  8  1  0  0  0  0
  5  2  1  0  0  0  0
  5  8  1  0  0  0  0
  6  5  2  0  0  0  0
  7 11  1  0  0  0  0
  7  6  1  0  0  0  0
  9  7  2  0  0  0  0
 10  6  1  0  0  0  0
 11  4  2  0  0  0  0
 12 11  1  0  0  0  0
 13 14  1  0  0  0  0
 14 15  1  6  0  0  0
 14 22  1  0  0  0  0
 16 18  1  0  0  0  0
 16 15  1  0  0  0  0
 17 16  1  0  0  0  0
 19 20  1  0  0  0  0
 19 17  1  0  0  0  0
 20 21  1  0  0  0  0
 21 18  1  0  0  0  0
 22 23  1  0  0  0  0
 23 24  1  0  0  0  0
 25 24  1  0  0  0  0
 25 26  1  0  0  0  0
 27 25  2  0  0  0  0
 28  1  1  0  0  0  0
 29 28  1  0  0  0  0
 30 29  1  6  0  0  0
 32 31  1  0  0  0  0
 32 30  1  0  0  0  0
 33 34  1  1  0  0  0
 33 30  1  0  0  0  0
 33 35  1  0  0  0  0
 35 37  1  0  0  0  0
 37 36  1  0  0  0  0
M  END
>  <MODEL>
8

>  <REMARK>
 VINA RESULT:      -5.7      2.277      3.714
  Name = 
  16 active torsions:
  status: ('A' for Active; 'I' for Inactive)
    1  A    between atoms: C_1  and  C_22
    2  A    between atoms: C_1  and  C_25
    3  A    between atoms: C_2  and  C_37
    4  A    between atoms: N_3  and  C_4
    5  A    between atoms: N_3  and  N_31
    6  A    between atoms: C_4  and  C_28
    7  A    between atoms: C_5  and  C_19
    8  A    between atoms: C_9  and  C_20
    9  A    between atoms: C_11  and  C_22
   10  A    between atoms: C_11  and  C_28
   11  A    between atoms: C_11  and  O_35
   12  A    between atoms: O_15  and  C_19
   13  A    between atoms: O_15  and  C_21
   14  A    between atoms: C_21  and  C_32
   15  A    between atoms: N_31  and  C_32
   16  A    between atoms: C_32  and  C_37
                            x       y       z     vdW  Elec       q    Type
                         _______ _______ _______ _____ _____    ______ ____

>  <TORSDO>
F 16

$$$$
=
 OpenBabel11042418353D

 37 38  0  0  1  0  0  0  0  0999 V2000
  190.0550  176.3590  144.6890 N   0  0  0  0  0  0  0  0  0  0  0  0
  189.2460  175.9040  145.7890 C   0  0  0  0  0  0  0  0  0  0  0  0
  189.6090  174.8860  146.4400 O   0  0  0  0  0  0  0  0  0  0  0  0
  185.4860  176.9320  145.8050 C   0  0  0  0  0  3  0  0  0  0  0  0
  187.9840  176.5900  146.1610 C   0  0  0  0  0  0  0  0  0  0  0  0
  187.9720  177.5840  147.0730 C   0  0  0  0  0  0  0  0  0  0  0  0
  186.7090  178.2520  147.4290 C   0  0  0  0  0  0  0  0  0  0  0  0
  186.6920  176.0610  145.5710 C   0  0  0  0  0  2  0  0  0  0  0  0
  186.6870  179.1240  148.3380 O   0  0  0  0  0  0  0  0  0  0  0  0
  189.1530  178.0210  147.6670 O   0  0  0  0  0  1  0  0  0  0  0  0
  185.4830  177.9240  146.6920 C   0  0  0  0  0  0  0  0  0  0  0  0
  184.3200  178.6550  146.9040 O   0  0  0  0  0  1  0  0  0  0  0  0
  191.1420  175.5770  144.2590 N   0  0  0  0  0  2  0  0  0  0  0  0
  192.3660  176.2620  144.6530 C   0  0  1  0  0  3  0  0  0  0  0  0
  193.0240  175.5050  145.7950 C   0  0  0  0  0  2  0  0  0  0  0  0
  194.1550  174.6230  145.2910 C   0  0  0  0  0  3  0  0  0  0  0  0
  193.7650  173.1460  145.3610 C   0  0  0  0  0  2  0  0  0  0  0  0
  195.3980  174.8730  146.1410 C   0  0  0  0  0  2  0  0  0  0  0  0
  194.9190  172.2700  144.8820 C   0  0  0  0  0  2  0  0  0  0  0  0
  196.1590  172.5230  145.7330 C   0  0  0  0  0  2  0  0  0  0  0  0
  196.5520  173.9960  145.6620 C   0  0  0  0  0  2  0  0  0  0  0  0
  193.3200  176.3350  143.4690 C   0  0  0  0  0  2  0  0  0  0  0  0
  192.6420  176.0410  142.2840 O   0  0  0  0  0  0  0  0  0  0  0  0
  193.4620  175.1290  141.6170 C   0  0  0  0  0  2  0  0  0  0  0  0
  192.7120  173.8650  141.3880 C   0  0  0  0  0  0  0  0  0  0  0  0
  191.5910  173.8620  140.5690 O   0  0  0  0  0  0  0  0  0  0  0  0
  193.1140  172.7890  141.9070 O   0  0  0  0  0  1  0  0  0  0  0  0
  189.8860  177.7000  144.1410 C   0  0  0  0  0  2  0  0  0  0  0  0
  189.5570  177.6270  142.6610 C   0  0  0  0  0  2  0  0  0  0  0  0
  188.1630  177.0440  142.4670 C   0  0  2  0  0  3  0  0  0  0  0  0
  188.3370  174.9000  141.9140 C   0  0  0  0  0  1  0  0  0  0  0  0
  188.1710  176.1750  141.3700 O   0  0  0  0  0  0  0  0  0  0  0  0
  187.1540  178.1690  142.2410 C   0  0  2  0  0  3  0  0  0  0  0  0
  186.8450  178.7770  143.4600 O   0  0  0  0  0  1  0  0  0  0  0  0
  185.8780  177.6130  141.6190 C   0  0  0  0  0  2  0  0  0  0  0  0
  183.5240  177.9940  141.4330 O   0  0  0  0  0  1  0  0  0  0  0  0
  184.6450  178.2690  142.2160 C   0  0  0  0  0  2  0  0  0  0  0  0
  1  2  1  0  0  0  0
  2  5  1  0  0  0  0
  2  3  2  0  0  0  0
  4 11  2  0  0  0  0
  5  6  2  0  0  0  0
  6  7  1  0  0  0  0
  6 10  1  0  0  0  0
  7  9  2  0  0  0  0
  8  4  1  0  0  0  0
  8  5  1  0  0  0  0
 11 12  1  0  0  0  0
 11  7  1  0  0  0  0
 13 14  1  0  0  0  0
 13  1  1  0  0  0  0
 14 22  1  6  0  0  0
 14 15  1  0  0  0  0
 16 17  1  0  0  0  0
 16 15  1  0  0  0  0
 16 18  1  0  0  0  0
 19 17  1  0  0  0  0
 19 20  1  0  0  0  0
 21 20  1  0  0  0  0
 21 18  1  0  0  0  0
 23 22  1  0  0  0  0
 24 23  1  0  0  0  0
 25 24  1  0  0  0  0
 25 27  1  0  0  0  0
 26 25  2  0  0  0  0
 28  1  1  0  0  0  0
 29 28  1  0  0  0  0
 30 29  1  6  0  0  0
 32 31  1  0  0  0  0
 32 30  1  0  0  0  0
 33 30  1  0  0  0  0
 33 34  1  1  0  0  0
 35 37  1  0  0  0  0
 35 33  1  0  0  0  0
 36 37  1  0  0  0  0
M  END
>  <MODEL>
9

>  <REMARK>
 VINA RESULT:      -5.7      2.268      7.746
  Name = 
  16 active torsions:
  status: ('A' for Active; 'I' for Inactive)
    1  A    between atoms: C_1  and  C_22
    2  A    between atoms: C_1  and  C_25
    3  A    between atoms: C_2  and  C_37
    4  A    between atoms: N_3  and  C_4
    5  A    between atoms: N_3  and  N_31
    6  A    between atoms: C_4  and  C_28
    7  A    between atoms: C_5  and  C_19
    8  A    between atoms: C_9  and  C_20
    9  A    between atoms: C_11  and  C_22
   10  A    between atoms: C_11  and  C_28
   11  A    between atoms: C_11  and  O_35
   12  A    between atoms: O_15  and  C_19
   13  A    between atoms: O_15  and  C_21
   14  A    between atoms: C_21  and  C_32
   15  A    between atoms: N_31  and  C_32
   16  A    between atoms: C_32  and  C_37
                            x       y       z     vdW  Elec       q    Type
                         _______ _______ _______ _____ _____    ______ ____

>  <TORSDO>
F 16

$$$$
