=
 OpenBabel11042414133D

 49 56  0  0  1  0  0  0  0  0999 V2000
  192.9690  174.3010  145.4750 C   0  0  1  0  0  3  0  0  0  0  0  0
  192.2350  176.8500  142.1860 C   0  0  0  0  0  2  0  0  0  0  0  0
  192.8270  175.4720  141.8680 C   0  0  2  0  0  3  0  0  0  0  0  0
  192.0660  174.9220  147.7070 C   0  0  0  0  0  1  0  0  0  0  0  0
  191.7480  176.4150  145.7190 C   0  0  0  0  0  2  0  0  0  0  0  0
  186.5100  176.2850  143.2560 C   0  0  0  0  0  2  0  0  0  0  0  0
  192.7130  175.4530  146.4440 C   0  0  2  0  0  3  0  0  0  0  0  0
  192.5470  174.8320  144.1660 C   0  0  0  0  0  0  0  0  0  0  0  0
  186.5970  177.8540  139.8860 O   0  0  0  0  0  0  0  0  0  0  0  0
  188.7010  177.3790  142.8090 C   0  0  0  0  0  0  0  0  0  0  0  0
  186.8860  177.7720  141.1120 C   0  0  0  0  0  0  0  0  0  0  0  0
  188.2610  177.8220  141.5170 N   0  0  0  0  0  2  0  0  0  0  0  0
  185.5620  177.5230  142.3160 S   0  0  0  0  0  0  0  0  0  0  0  0
  191.1900  176.7220  143.2500 C   0  0  0  0  0  0  0  0  0  0  0  0
  193.2430  174.7840  143.0830 N   0  0  0  0  0  0  0  0  0  0  0  0
  191.4090  175.7600  144.3830 C   0  0  2  0  0  3  0  0  0  0  0  0
  187.7220  176.9760  143.8710 C   0  0  0  0  0  2  0  0  0  0  0  0
  189.9590  177.0820  142.9960 C   0  0  0  0  0  0  0  0  0  0  0  0
  193.8620  170.0740  145.0660 C   0  0  0  0  0  3  0  0  0  0  0  0
  196.7860  173.4080  146.1660 C   0  0  0  0  0  3  0  0  0  0  0  0
  195.6960  175.5160  145.9310 O   0  0  0  0  0  0  0  0  0  0  0  0
  194.3370  172.2800  145.3360 C   0  0  0  0  0  0  0  0  0  0  0  0
  195.2570  170.2530  145.5120 N   0  0  0  0  0  0  0  0  0  0  0  0
  193.2660  171.4140  145.0180 N   0  0  0  0  0  0  0  0  0  0  0  0
  194.2960  173.5980  145.5330 C   0  0  0  0  0  0  0  0  0  0  0  0
  195.5940  174.2600  145.8720 C   0  0  0  0  0  0  0  0  0  0  0  0
  196.7160  172.1030  146.0580 N   0  0  0  0  0  0  0  0  0  0  0  0
  195.5030  171.5130  145.5800 C   0  0  0  0  0  0  0  0  0  0  0  0
  196.2160  174.7210  140.7400 O   0  0  0  0  0  0  0  0  0  0  0  0
  193.9830  175.5680  140.8630 C   0  0  2  0  0  3  0  0  0  0  0  0
  194.8780  174.3430  140.9380 C   0  0  1  0  0  3  0  0  0  0  0  0
  196.3090  176.1020  141.0300 C   0  0  0  0  0  2  0  0  0  0  0  0
  194.9260  176.6700  141.2680 C   0  0  0  0  0  2  0  0  0  0  0  0
  194.4840  173.3170  139.8790 C   0  0  0  0  0  2  0  0  0  0  0  0
  194.0750  172.0780  140.5270 N   0  0  0  0  0  2  0  0  0  0  0  0
  193.0140  171.4900  139.7100 C   0  0  0  0  0  2  0  0  0  0  0  0
  190.6700  171.8130  137.9160 C   0  0  0  0  0  2  0  0  0  0  0  0
  190.2300  174.0510  137.1180 N   0  0  0  0  0  1  0  0  0  0  0  0
  189.1950  172.2810  139.7580 C   0  0  1  0  0  3  0  0  0  0  0  0
  188.3450  174.1320  141.1790 C   0  0  0  0  0  2  0  0  0  0  0  0
  191.5530  172.3890  141.4260 N   0  0  0  0  0  0  0  0  0  0  0  0
  189.6130  172.7600  137.3900 C   0  0  2  0  0  3  0  0  0  0  0  0
  190.2890  172.8590  142.0100 C   0  0  1  0  0  3  0  0  0  0  0  0
  189.3070  173.2350  140.9230 C   0  0  0  0  0  0  0  0  0  0  0  0
  188.5880  172.9170  138.5100 C   0  0  0  0  0  2  0  0  0  0  0  0
  190.5170  171.8240  139.3590 N   0  0  0  0  0  0  0  0  0  0  0  0
  191.6560  171.8540  140.2410 C   0  0  0  0  0  0  0  0  0  0  0  0
  189.7330  172.2020  144.3610 C   0  0  0  0  0  1  0  0  0  0  0  0
  189.7170  171.7670  142.9100 C   0  0  0  0  0  2  0  0  0  0  0  0
  1 25  1  6  0  0  0
  1  7  1  0  0  0  0
  2 14  1  0  0  0  0
  3  2  1  1  0  0  0
  3 15  1  0  0  0  0
  5  7  1  0  0  0  0
  6 17  1  0  0  0  0
  7  4  1  1  0  0  0
  8 16  1  0  0  0  0
  8  1  1  0  0  0  0
  9 11  2  0  0  0  0
 10 18  2  0  0  0  0
 10 17  1  0  0  0  0
 11 12  1  0  0  0  0
 11 13  1  0  0  0  0
 12 10  1  0  0  0  0
 13  6  1  0  0  0  0
 14 16  1  0  0  0  0
 15  8  2  0  0  0  0
 16  5  1  1  0  0  0
 18 14  2  0  0  0  0
 19 23  1  0  0  0  0
 22 25  2  0  0  0  0
 22 28  1  0  0  0  0
 23 28  2  0  0  0  0
 24 19  2  0  0  0  0
 24 22  1  0  0  0  0
 25 26  1  0  0  0  0
 26 21  2  0  0  0  0
 26 20  1  0  0  0  0
 27 20  2  0  0  0  0
 28 27  1  0  0  0  0
 29 31  1  0  0  0  0
 29 32  1  0  0  0  0
 30 31  1  0  0  0  0
 30 33  1  1  0  0  0
 30  3  1  0  0  0  0
 31 34  1  6  0  0  0
 32 33  1  0  0  0  0
 34 35  1  0  0  0  0
 36 47  1  0  0  0  0
 36 35  1  0  0  0  0
 37 46  1  0  0  0  0
 39 45  1  6  0  0  0
 39 44  1  0  0  0  0
 41 43  1  0  0  0  0
 42 38  1  1  0  0  0
 42 37  1  0  0  0  0
 42 45  1  0  0  0  0
 43 49  1  6  0  0  0
 44 40  2  0  0  0  0
 44 43  1  0  0  0  0
 46 39  1  0  0  0  0
 46 47  1  0  0  0  0
 47 41  2  0  0  0  0
 49 48  1  0  0  0  0
M  END
>  <MODEL>
1

>  <REMARK>
 VINA RESULT:      -7.6      0.000      0.000
  Name = 
  7 active torsions:
  status: ('A' for Active; 'I' for Inactive)
    1  A    between atoms: C_3  and  C_42
    2  A    between atoms: C_8  and  C_14
    3  A    between atoms: C_13  and  N_39
    4  A    between atoms: C_13  and  C_41
    5  A    between atoms: C_18  and  C_47
    6  A    between atoms: C_20  and  C_31
    7  A    between atoms: N_39  and  C_47
                            x       y       z     vdW  Elec       q    Type
                         _______ _______ _______ _____ _____    ______ ____

>  <TORSDO>
F 7

$$$$
=
 OpenBabel11042414133D

 49 56  0  0  1  0  0  0  0  0999 V2000
  189.5560  176.5760  145.3210 C   0  0  1  0  0  3  0  0  0  0  0  0
  191.1050  172.7750  144.3170 C   0  0  0  0  0  2  0  0  0  0  0  0
  190.3820  173.5390  143.2010 C   0  0  2  0  0  3  0  0  0  0  0  0
  190.2000  177.6050  147.4920 C   0  0  0  0  0  1  0  0  0  0  0  0
  191.0070  175.3200  146.8510 C   0  0  0  0  0  2  0  0  0  0  0  0
  196.4800  174.9870  144.9940 C   0  0  0  0  0  2  0  0  0  0  0  0
  189.8230  176.3090  146.8010 C   0  0  2  0  0  3  0  0  0  0  0  0
  190.2330  175.4640  144.6290 C   0  0  0  0  0  0  0  0  0  0  0  0
  197.1030  171.7370  143.2970 O   0  0  0  0  0  0  0  0  0  0  0  0
  194.5490  173.4360  145.2440 C   0  0  0  0  0  0  0  0  0  0  0  0
  196.6290  172.4760  144.2040 C   0  0  0  0  0  0  0  0  0  0  0  0
  195.2300  172.4070  144.5110 N   0  0  0  0  0  2  0  0  0  0  0  0
  197.7160  173.6510  145.0430 S   0  0  0  0  0  0  0  0  0  0  0  0
  191.9560  173.7180  145.1100 C   0  0  0  0  0  0  0  0  0  0  0  0
  189.7030  174.7170  143.7230 N   0  0  0  0  0  0  0  0  0  0  0  0
  191.4440  175.0980  145.4050 C   0  0  2  0  0  3  0  0  0  0  0  0
  195.2970  174.5770  145.8650 C   0  0  0  0  0  2  0  0  0  0  0  0
  193.2480  173.5290  145.1700 C   0  0  0  0  0  0  0  0  0  0  0  0
  188.1440  178.3620  141.6270 C   0  0  0  0  0  3  0  0  0  0  0  0
  185.6510  177.3490  145.3200 C   0  0  0  0  0  3  0  0  0  0  0  0
  186.9980  176.1310  146.8660 O   0  0  0  0  0  0  0  0  0  0  0  0
  187.9470  177.4090  143.6810 C   0  0  0  0  0  0  0  0  0  0  0  0
  186.7780  178.5470  142.1550 N   0  0  0  0  0  0  0  0  0  0  0  0
  188.9040  177.6680  142.6730 N   0  0  0  0  0  0  0  0  0  0  0  0
  188.1500  176.8930  144.8930 C   0  0  0  0  0  0  0  0  0  0  0  0
  186.9430  176.7420  145.7630 C   0  0  0  0  0  0  0  0  0  0  0  0
  185.5580  177.9410  144.1540 N   0  0  0  0  0  0  0  0  0  0  0  0
  186.6920  177.9310  143.2800 C   0  0  0  0  0  0  0  0  0  0  0  0
  188.9740  172.1640  140.1270 O   0  0  0  0  0  0  0  0  0  0  0  0
  189.4100  172.6350  142.4310 C   0  0  2  0  0  3  0  0  0  0  0  0
  189.9930  172.2170  141.0920 C   0  0  1  0  0  3  0  0  0  0  0  0
  187.9090  172.9670  140.5980 C   0  0  0  0  0  2  0  0  0  0  0  0
  188.1980  173.4250  142.0120 C   0  0  0  0  0  2  0  0  0  0  0  0
  190.6600  170.8480  141.1940 C   0  0  0  0  0  2  0  0  0  0  0  0
  192.1030  171.0130  141.2990 N   0  0  0  0  0  2  0  0  0  0  0  0
  192.5760  171.5390  140.0190 C   0  0  0  0  0  2  0  0  0  0  0  0
  193.8860  172.9490  137.7580 C   0  0  0  0  0  2  0  0  0  0  0  0
  196.2660  172.6090  137.5160 N   0  0  0  0  0  1  0  0  0  0  0  0
  194.3930  174.8690  139.1150 C   0  0  1  0  0  3  0  0  0  0  0  0
  196.1040  175.7910  140.6620 C   0  0  0  0  0  2  0  0  0  0  0  0
  193.5080  173.3150  141.3850 N   0  0  0  0  0  0  0  0  0  0  0  0
  195.1760  173.5280  137.2180 C   0  0  2  0  0  3  0  0  0  0  0  0
  194.1970  174.5830  141.6610 C   0  0  1  0  0  3  0  0  0  0  0  0
  195.0370  175.0020  140.4750 C   0  0  0  0  0  0  0  0  0  0  0  0
  195.4010  174.8370  137.9690 C   0  0  0  0  0  2  0  0  0  0  0  0
  193.6650  173.6130  139.0290 N   0  0  0  0  0  0  0  0  0  0  0  0
  193.2020  172.8950  140.1890 C   0  0  0  0  0  0  0  0  0  0  0  0
  193.6400  176.5140  143.1530 C   0  0  0  0  0  1  0  0  0  0  0  0
  193.1620  175.6510  142.0040 C   0  0  0  0  0  2  0  0  0  0  0  0
  1 25  1  1  0  0  0
  1  7  1  0  0  0  0
  2 14  1  0  0  0  0
  3 15  1  0  0  0  0
  3  2  1  1  0  0  0
  6 13  1  0  0  0  0
  6 17  1  0  0  0  0
  7  5  1  0  0  0  0
  7  4  1  1  0  0  0
  8  1  1  0  0  0  0
  8 16  1  0  0  0  0
  9 11  2  0  0  0  0
 10 17  1  0  0  0  0
 11 12  1  0  0  0  0
 11 13  1  0  0  0  0
 12 10  1  0  0  0  0
 14 18  2  0  0  0  0
 14 16  1  0  0  0  0
 15  8  2  0  0  0  0
 16  5  1  1  0  0  0
 18 10  2  0  0  0  0
 19 23  1  0  0  0  0
 19 24  2  0  0  0  0
 20 26  1  0  0  0  0
 22 25  2  0  0  0  0
 23 28  2  0  0  0  0
 24 22  1  0  0  0  0
 25 26  1  0  0  0  0
 26 21  2  0  0  0  0
 27 20  2  0  0  0  0
 28 22  1  0  0  0  0
 28 27  1  0  0  0  0
 29 32  1  0  0  0  0
 29 31  1  0  0  0  0
 30 33  1  6  0  0  0
 30  3  1  0  0  0  0
 31 34  1  1  0  0  0
 31 30  1  0  0  0  0
 32 33  1  0  0  0  0
 34 35  1  0  0  0  0
 36 47  1  0  0  0  0
 36 35  1  0  0  0  0
 37 46  1  0  0  0  0
 39 45  1  6  0  0  0
 39 44  1  0  0  0  0
 41 43  1  0  0  0  0
 42 38  1  1  0  0  0
 42 37  1  0  0  0  0
 42 45  1  0  0  0  0
 43 49  1  6  0  0  0
 44 40  2  0  0  0  0
 44 43  1  0  0  0  0
 46 39  1  0  0  0  0
 46 47  1  0  0  0  0
 47 41  2  0  0  0  0
 49 48  1  0  0  0  0
M  END
>  <MODEL>
2

>  <REMARK>
 VINA RESULT:      -7.0      2.949      7.280
  Name = 
  7 active torsions:
  status: ('A' for Active; 'I' for Inactive)
    1  A    between atoms: C_3  and  C_42
    2  A    between atoms: C_8  and  C_14
    3  A    between atoms: C_13  and  N_39
    4  A    between atoms: C_13  and  C_41
    5  A    between atoms: C_18  and  C_47
    6  A    between atoms: C_20  and  C_31
    7  A    between atoms: N_39  and  C_47
                            x       y       z     vdW  Elec       q    Type
                         _______ _______ _______ _____ _____    ______ ____

>  <TORSDO>
F 7

$$$$
=
 OpenBabel11042414133D

 49 56  0  0  1  0  0  0  0  0999 V2000
  192.8710  171.7220  140.2510 C   0  0  1  0  0  3  0  0  0  0  0  0
  191.6460  171.8450  144.2930 C   0  0  0  0  0  2  0  0  0  0  0  0
  193.1560  171.9030  144.0310 C   0  0  2  0  0  3  0  0  0  0  0  0
  191.1600  171.9720  138.4640 C   0  0  0  0  0  1  0  0  0  0  0  0
  190.5120  171.9510  140.8860 C   0  0  0  0  0  2  0  0  0  0  0  0
  189.3050  177.1030  143.2360 C   0  0  0  0  0  2  0  0  0  0  0  0
  191.4530  171.3550  139.8180 C   0  0  2  0  0  3  0  0  0  0  0  0
  192.7290  172.0810  141.6740 C   0  0  0  0  0  0  0  0  0  0  0  0
  189.2690  176.8840  146.9480 O   0  0  0  0  0  0  0  0  0  0  0  0
  189.4860  174.7460  144.0190 C   0  0  0  0  0  0  0  0  0  0  0  0
  189.0130  176.4780  145.7810 C   0  0  0  0  0  0  0  0  0  0  0  0
  189.4040  175.1550  145.3920 N   0  0  0  0  0  2  0  0  0  0  0  0
  188.2200  177.6030  144.6100 S   0  0  0  0  0  0  0  0  0  0  0  0
  190.9220  172.6900  143.2910 C   0  0  0  0  0  0  0  0  0  0  0  0
  193.4590  171.6250  142.6340 N   0  0  0  0  0  0  0  0  0  0  0  0
  191.4000  172.7120  141.8670 C   0  0  2  0  0  3  0  0  0  0  0  0
  189.0190  175.6400  142.9100 C   0  0  0  0  0  2  0  0  0  0  0  0
  190.1960  173.6980  143.6980 C   0  0  0  0  0  0  0  0  0  0  0  0
  196.6280  172.5900  138.2610 C   0  0  0  0  0  3  0  0  0  0  0  0
  195.0140  168.4740  139.4120 C   0  0  0  0  0  3  0  0  0  0  0  0
  193.0430  168.7440  140.7270 O   0  0  0  0  0  0  0  0  0  0  0  0
  195.0860  171.2930  139.3110 C   0  0  0  0  0  0  0  0  0  0  0  0
  196.9450  171.1600  138.0790 N   0  0  0  0  0  0  0  0  0  0  0  0
  195.3730  172.6460  139.0190 N   0  0  0  0  0  0  0  0  0  0  0  0
  193.9940  170.7910  139.8890 C   0  0  0  0  0  0  0  0  0  0  0  0
  193.9560  169.3060  140.0620 C   0  0  0  0  0  0  0  0  0  0  0  0
  196.0010  169.0400  138.7620 N   0  0  0  0  0  0  0  0  0  0  0  0
  196.0920  170.4680  138.7480 C   0  0  0  0  0  0  0  0  0  0  0  0
  195.9970  169.7620  144.8480 O   0  0  0  0  0  0  0  0  0  0  0  0
  193.9320  170.9630  144.9630 C   0  0  2  0  0  3  0  0  0  0  0  0
  195.4250  171.0360  144.6970 C   0  0  1  0  0  3  0  0  0  0  0  0
  194.9550  168.8160  144.7040 C   0  0  0  0  0  2  0  0  0  0  0  0
  193.6220  169.5290  144.6200 C   0  0  0  0  0  2  0  0  0  0  0  0
  196.1010  172.0070  145.6620 C   0  0  0  0  0  2  0  0  0  0  0  0
  197.1510  172.7370  144.9650 N   0  0  0  0  0  2  0  0  0  0  0  0
  197.0390  174.1410  145.3580 C   0  0  0  0  0  2  0  0  0  0  0  0
  194.7300  175.7130  146.3660 C   0  0  0  0  0  2  0  0  0  0  0  0
  192.6070  174.5650  146.4560 N   0  0  0  0  0  1  0  0  0  0  0  0
  194.1330  176.4490  144.1550 C   0  0  1  0  0  3  0  0  0  0  0  0
  192.8040  175.8050  142.1590 C   0  0  0  0  0  2  0  0  0  0  0  0
  196.1030  174.5810  143.1630 N   0  0  0  0  0  0  0  0  0  0  0  0
  193.2260  175.8790  146.3610 C   0  0  2  0  0  3  0  0  0  0  0  0
  195.1940  175.1910  142.1820 C   0  0  1  0  0  3  0  0  0  0  0  0
  193.9410  175.6970  142.8600 C   0  0  0  0  0  0  0  0  0  0  0  0
  192.8730  176.5060  145.0150 C   0  0  0  0  0  2  0  0  0  0  0  0
  195.1330  175.7820  144.9750 N   0  0  0  0  0  0  0  0  0  0  0  0
  196.1270  174.8930  144.4290 C   0  0  0  0  0  0  0  0  0  0  0  0
  196.8020  175.7780  140.3560 C   0  0  0  0  0  1  0  0  0  0  0  0
  195.9220  176.3230  141.4620 C   0  0  0  0  0  2  0  0  0  0  0  0
  1 25  1  1  0  0  0
  1  8  1  0  0  0  0
  3  2  1  6  0  0  0
  3 30  1  0  0  0  0
  6 13  1  0  0  0  0
  7  4  1  6  0  0  0
  7  1  1  0  0  0  0
  7  5  1  0  0  0  0
  8 16  1  0  0  0  0
  8 15  2  0  0  0  0
 10 12  1  0  0  0  0
 11  9  2  0  0  0  0
 12 11  1  0  0  0  0
 13 11  1  0  0  0  0
 14 18  2  0  0  0  0
 14  2  1  0  0  0  0
 15  3  1  0  0  0  0
 16  5  1  6  0  0  0
 16 14  1  0  0  0  0
 17  6  1  0  0  0  0
 17 10  1  0  0  0  0
 18 10  2  0  0  0  0
 19 24  2  0  0  0  0
 20 26  1  0  0  0  0
 22 25  2  0  0  0  0
 23 19  1  0  0  0  0
 23 28  2  0  0  0  0
 24 22  1  0  0  0  0
 25 26  1  0  0  0  0
 26 21  2  0  0  0  0
 27 20  2  0  0  0  0
 28 27  1  0  0  0  0
 28 22  1  0  0  0  0
 30 33  1  6  0  0  0
 31 29  1  0  0  0  0
 31 30  1  0  0  0  0
 31 34  1  1  0  0  0
 32 29  1  0  0  0  0
 33 32  1  0  0  0  0
 35 36  1  0  0  0  0
 35 34  1  0  0  0  0
 39 46  1  0  0  0  0
 39 45  1  1  0  0  0
 40 44  2  0  0  0  0
 41 47  2  0  0  0  0
 42 37  1  0  0  0  0
 42 38  1  6  0  0  0
 43 49  1  1  0  0  0
 43 44  1  0  0  0  0
 43 41  1  0  0  0  0
 44 39  1  0  0  0  0
 45 42  1  0  0  0  0
 46 37  1  0  0  0  0
 47 46  1  0  0  0  0
 47 36  1  0  0  0  0
 48 49  1  0  0  0  0
M  END
>  <MODEL>
3

>  <REMARK>
 VINA RESULT:      -6.9      2.694      6.733
  Name = 
  7 active torsions:
  status: ('A' for Active; 'I' for Inactive)
    1  A    between atoms: C_3  and  C_42
    2  A    between atoms: C_8  and  C_14
    3  A    between atoms: C_13  and  N_39
    4  A    between atoms: C_13  and  C_41
    5  A    between atoms: C_18  and  C_47
    6  A    between atoms: C_20  and  C_31
    7  A    between atoms: N_39  and  C_47
                            x       y       z     vdW  Elec       q    Type
                         _______ _______ _______ _____ _____    ______ ____

>  <TORSDO>
F 7

$$$$
=
 OpenBabel11042414133D

 49 56  0  0  1  0  0  0  0  0999 V2000
  190.5650  173.4060  138.3770 C   0  0  1  0  0  3  0  0  0  0  0  0
  188.7010  172.6420  142.0920 C   0  0  0  0  0  2  0  0  0  0  0  0
  190.2250  172.4840  142.0420 C   0  0  2  0  0  3  0  0  0  0  0  0
  189.2370  174.4560  136.5550 C   0  0  0  0  0  1  0  0  0  0  0  0
  188.1910  173.8940  138.7630 C   0  0  0  0  0  2  0  0  0  0  0  0
  187.3670  178.3320  142.3880 C   0  0  0  0  0  2  0  0  0  0  0  0
  189.2030  173.4480  137.6860 C   0  0  2  0  0  3  0  0  0  0  0  0
  190.2370  173.3800  139.8150 C   0  0  0  0  0  0  0  0  0  0  0  0
  186.6690  177.1130  145.8300 O   0  0  0  0  0  0  0  0  0  0  0  0
  187.0670  175.8620  142.4430 C   0  0  0  0  0  0  0  0  0  0  0  0
  186.5580  177.1000  144.5730 C   0  0  0  0  0  0  0  0  0  0  0  0
  186.8130  175.8850  143.8550 N   0  0  0  0  0  2  0  0  0  0  0  0
  186.1490  178.6320  143.7070 S   0  0  0  0  0  0  0  0  0  0  0  0
  188.2900  173.8520  141.3100 C   0  0  0  0  0  0  0  0  0  0  0  0
  190.7180  172.5490  140.6730 N   0  0  0  0  0  0  0  0  0  0  0  0
  189.0010  174.1730  140.0270 C   0  0  2  0  0  3  0  0  0  0  0  0
  186.9310  177.0980  141.6050 C   0  0  0  0  0  2  0  0  0  0  0  0
  187.6600  174.8270  141.9100 C   0  0  0  0  0  0  0  0  0  0  0  0
  194.6910  174.0600  137.2040 C   0  0  0  0  0  3  0  0  0  0  0  0
  192.3210  170.1690  136.8670 C   0  0  0  0  0  3  0  0  0  0  0  0
  190.2170  170.4350  137.9560 O   0  0  0  0  0  0  0  0  0  0  0  0
  192.8200  172.8410  137.6240 C   0  0  0  0  0  0  0  0  0  0  0  0
  194.8220  172.7030  136.6420 N   0  0  0  0  0  0  0  0  0  0  0  0
  193.3470  174.1420  137.7870 N   0  0  0  0  0  0  0  0  0  0  0  0
  191.5850  172.4150  137.8900 C   0  0  0  0  0  0  0  0  0  0  0  0
  191.3020  170.9750  137.6040 C   0  0  0  0  0  0  0  0  0  0  0  0
  193.4770  170.6950  136.5390 N   0  0  0  0  0  0  0  0  0  0  0  0
  193.7760  172.0280  136.9650 C   0  0  0  0  0  0  0  0  0  0  0  0
  192.7500  170.0040  142.9370 O   0  0  0  0  0  0  0  0  0  0  0  0
  190.6860  171.1940  142.7360 C   0  0  2  0  0  3  0  0  0  0  0  0
  192.1570  171.2650  143.1060 C   0  0  1  0  0  3  0  0  0  0  0  0
  191.9320  169.2730  142.0440 C   0  0  0  0  0  2  0  0  0  0  0  0
  190.6640  170.0490  141.7570 C   0  0  0  0  0  2  0  0  0  0  0  0
  192.3300  171.7110  144.5560 C   0  0  0  0  0  2  0  0  0  0  0  0
  193.6930  172.1790  144.7650 N   0  0  0  0  0  2  0  0  0  0  0  0
  193.6220  173.3520  145.6360 C   0  0  0  0  0  2  0  0  0  0  0  0
  191.7800  175.3100  146.8960 C   0  0  0  0  0  2  0  0  0  0  0  0
  189.4170  174.9260  146.5690 N   0  0  0  0  0  1  0  0  0  0  0  0
  191.7330  176.6900  144.9260 C   0  0  1  0  0  3  0  0  0  0  0  0
  190.5510  176.9930  142.7630 C   0  0  0  0  0  2  0  0  0  0  0  0
  193.1640  174.5660  143.5860 N   0  0  0  0  0  0  0  0  0  0  0  0
  190.4100  175.9530  146.8540 C   0  0  2  0  0  3  0  0  0  0  0  0
  192.6210  175.6470  142.7520 C   0  0  1  0  0  3  0  0  0  0  0  0
  191.4980  176.3620  143.4710 C   0  0  0  0  0  0  0  0  0  0  0  0
  190.4460  176.9530  145.7030 C   0  0  0  0  0  2  0  0  0  0  0  0
  192.3670  175.5640  145.5950 N   0  0  0  0  0  0  0  0  0  0  0  0
  193.1110  174.5520  144.8890 C   0  0  0  0  0  0  0  0  0  0  0  0
  194.5860  176.0660  141.2600 C   0  0  0  0  0  1  0  0  0  0  0  0
  193.7440  176.6150  142.3930 C   0  0  0  0  0  2  0  0  0  0  0  0
  1 25  1  6  0  0  0
  1  8  1  0  0  0  0
  3  2  1  6  0  0  0
  3 30  1  0  0  0  0
  6 13  1  0  0  0  0
  7  4  1  6  0  0  0
  7  1  1  0  0  0  0
  7  5  1  0  0  0  0
  8 16  1  0  0  0  0
  8 15  2  0  0  0  0
 10 12  1  0  0  0  0
 11  9  2  0  0  0  0
 12 11  1  0  0  0  0
 13 11  1  0  0  0  0
 14 18  2  0  0  0  0
 14  2  1  0  0  0  0
 15  3  1  0  0  0  0
 16  5  1  6  0  0  0
 16 14  1  0  0  0  0
 17  6  1  0  0  0  0
 17 10  1  0  0  0  0
 18 10  2  0  0  0  0
 19 24  2  0  0  0  0
 20 26  1  0  0  0  0
 22 24  1  0  0  0  0
 22 25  2  0  0  0  0
 23 28  2  0  0  0  0
 23 19  1  0  0  0  0
 26 25  1  0  0  0  0
 26 21  2  0  0  0  0
 27 20  2  0  0  0  0
 27 28  1  0  0  0  0
 28 22  1  0  0  0  0
 29 31  1  0  0  0  0
 30 33  1  6  0  0  0
 30 31  1  0  0  0  0
 31 34  1  1  0  0  0
 32 29  1  0  0  0  0
 33 32  1  0  0  0  0
 34 35  1  0  0  0  0
 35 36  1  0  0  0  0
 39 46  1  0  0  0  0
 39 45  1  1  0  0  0
 40 44  2  0  0  0  0
 41 47  2  0  0  0  0
 42 38  1  6  0  0  0
 42 37  1  0  0  0  0
 43 49  1  1  0  0  0
 43 44  1  0  0  0  0
 43 41  1  0  0  0  0
 44 39  1  0  0  0  0
 45 42  1  0  0  0  0
 46 37  1  0  0  0  0
 47 46  1  0  0  0  0
 47 36  1  0  0  0  0
 48 49  1  0  0  0  0
M  END
>  <MODEL>
4

>  <REMARK>
 VINA RESULT:      -6.8      2.576      7.001
  Name = 
  7 active torsions:
  status: ('A' for Active; 'I' for Inactive)
    1  A    between atoms: C_3  and  C_42
    2  A    between atoms: C_8  and  C_14
    3  A    between atoms: C_13  and  N_39
    4  A    between atoms: C_13  and  C_41
    5  A    between atoms: C_18  and  C_47
    6  A    between atoms: C_20  and  C_31
    7  A    between atoms: N_39  and  C_47
                            x       y       z     vdW  Elec       q    Type
                         _______ _______ _______ _____ _____    ______ ____

>  <TORSDO>
F 7

$$$$
=
 OpenBabel11042414133D

 49 56  0  0  1  0  0  0  0  0999 V2000
  195.3890  172.9560  141.5990 C   0  0  1  0  0  3  0  0  0  0  0  0
  191.2280  173.4110  142.1790 C   0  0  0  0  0  2  0  0  0  0  0  0
  192.1270  174.5070  142.7620 C   0  0  2  0  0  3  0  0  0  0  0  0
  196.2040  171.2090  140.0280 C   0  0  0  0  0  1  0  0  0  0  0  0
  193.7570  171.4950  140.4940 C   0  0  0  0  0  2  0  0  0  0  0  0
  190.6950  174.2250  136.4090 C   0  0  0  0  0  2  0  0  0  0  0  0
  195.1770  171.5290  141.0970 C   0  0  2  0  0  3  0  0  0  0  0  0
  194.0260  173.5130  141.6800 C   0  0  0  0  0  0  0  0  0  0  0  0
  187.3850  175.2860  137.7290 O   0  0  0  0  0  0  0  0  0  0  0  0
  190.2740  173.2990  138.6810 C   0  0  0  0  0  0  0  0  0  0  0  0
  188.3470  174.4830  137.5780 C   0  0  0  0  0  0  0  0  0  0  0  0
  188.9780  173.9140  138.7330 N   0  0  0  0  0  2  0  0  0  0  0  0
  188.9470  174.1260  135.9120 S   0  0  0  0  0  0  0  0  0  0  0  0
  191.7310  173.0050  140.8280 C   0  0  0  0  0  0  0  0  0  0  0  0
  193.5310  174.1270  142.6990 N   0  0  0  0  0  0  0  0  0  0  0  0
  193.2120  172.9170  140.5920 C   0  0  2  0  0  3  0  0  0  0  0  0
  190.9820  173.0820  137.3780 C   0  0  0  0  0  2  0  0  0  0  0  0
  190.9620  173.1490  139.7810 C   0  0  0  0  0  0  0  0  0  0  0  0
  195.5690  170.7780  145.3480 C   0  0  0  0  0  3  0  0  0  0  0  0
  197.8780  174.5660  144.2560 C   0  0  0  0  0  3  0  0  0  0  0  0
  197.5260  175.0620  141.9500 O   0  0  0  0  0  0  0  0  0  0  0  0
  196.1930  172.3440  143.8240 C   0  0  0  0  0  0  0  0  0  0  0  0
  196.4590  171.7770  145.9690 N   0  0  0  0  0  0  0  0  0  0  0  0
  195.3630  171.2080  143.9600 N   0  0  0  0  0  0  0  0  0  0  0  0
  196.2880  173.1730  142.7840 C   0  0  0  0  0  0  0  0  0  0  0  0
  197.2500  174.3090  142.9250 C   0  0  0  0  0  0  0  0  0  0  0  0
  197.6470  173.7650  145.2680 N   0  0  0  0  0  0  0  0  0  0  0  0
  196.8450  172.5980  145.0570 C   0  0  0  0  0  0  0  0  0  0  0  0
  192.4470  176.4660  145.8260 O   0  0  0  0  0  0  0  0  0  0  0  0
  191.7170  174.8760  144.1950 C   0  0  2  0  0  3  0  0  0  0  0  0
  192.0210  176.3340  144.4940 C   0  0  1  0  0  3  0  0  0  0  0  0
  192.9040  175.1950  146.2470 C   0  0  0  0  0  2  0  0  0  0  0  0
  192.6020  174.1620  145.1820 C   0  0  0  0  0  2  0  0  0  0  0  0
  190.7860  177.2030  144.2730 C   0  0  0  0  0  2  0  0  0  0  0  0
  190.0110  177.2740  145.5050 N   0  0  0  0  0  2  0  0  0  0  0  0
  188.9320  176.2940  145.3970 C   0  0  0  0  0  2  0  0  0  0  0  0
  187.4450  176.0990  142.8340 C   0  0  0  0  0  2  0  0  0  0  0  0
  187.8360  177.8620  141.2290 N   0  0  0  0  0  1  0  0  0  0  0  0
  185.6100  177.4030  143.6800 C   0  0  1  0  0  3  0  0  0  0  0  0
  184.8140  179.7410  143.9460 C   0  0  0  0  0  2  0  0  0  0  0  0
  187.2530  177.9400  145.9960 N   0  0  0  0  0  0  0  0  0  0  0  0
  186.8750  176.8540  141.6520 C   0  0  2  0  0  3  0  0  0  0  0  0
  186.0190  178.7240  145.8450 C   0  0  1  0  0  3  0  0  0  0  0  0
  185.5630  178.7280  144.4030 C   0  0  0  0  0  0  0  0  0  0  0  0
  185.6120  177.5430  142.1600 C   0  0  0  0  0  2  0  0  0  0  0  0
  186.8400  176.7000  144.0070 N   0  0  0  0  0  0  0  0  0  0  0  0
  187.6030  176.9690  145.1990 C   0  0  0  0  0  0  0  0  0  0  0  0
  185.5510  177.6230  148.0440 C   0  0  0  0  0  1  0  0  0  0  0  0
  184.9430  178.1440  146.7580 C   0  0  0  0  0  2  0  0  0  0  0  0
  1  8  1  0  0  0  0
  1 25  1  1  0  0  0
  3  2  1  1  0  0  0
  3 30  1  0  0  0  0
  5  7  1  0  0  0  0
  6 17  1  0  0  0  0
  7  4  1  6  0  0  0
  7  1  1  0  0  0  0
  8 15  2  0  0  0  0
 10 12  1  0  0  0  0
 10 18  2  0  0  0  0
 11  9  2  0  0  0  0
 11 12  1  0  0  0  0
 13  6  1  0  0  0  0
 13 11  1  0  0  0  0
 14  2  1  0  0  0  0
 15  3  1  0  0  0  0
 16  5  1  1  0  0  0
 16 14  1  0  0  0  0
 16  8  1  0  0  0  0
 17 10  1  0  0  0  0
 18 14  2  0  0  0  0
 19 23  1  0  0  0  0
 20 27  2  0  0  0  0
 21 26  2  0  0  0  0
 22 24  1  0  0  0  0
 22 28  1  0  0  0  0
 24 19  2  0  0  0  0
 25 26  1  0  0  0  0
 25 22  2  0  0  0  0
 26 20  1  0  0  0  0
 28 27  1  0  0  0  0
 28 23  2  0  0  0  0
 29 32  1  0  0  0  0
 30 31  1  0  0  0  0
 30 33  1  1  0  0  0
 31 34  1  1  0  0  0
 31 29  1  0  0  0  0
 33 32  1  0  0  0  0
 34 35  1  0  0  0  0
 36 35  1  0  0  0  0
 37 46  1  0  0  0  0
 39 45  1  6  0  0  0
 39 46  1  0  0  0  0
 39 44  1  0  0  0  0
 40 44  2  0  0  0  0
 42 38  1  1  0  0  0
 42 45  1  0  0  0  0
 42 37  1  0  0  0  0
 43 41  1  0  0  0  0
 43 49  1  1  0  0  0
 44 43  1  0  0  0  0
 46 47  1  0  0  0  0
 47 36  1  0  0  0  0
 47 41  2  0  0  0  0
 49 48  1  0  0  0  0
M  END
>  <MODEL>
5

>  <REMARK>
 VINA RESULT:      -6.7      2.517      6.009
  Name = 
  7 active torsions:
  status: ('A' for Active; 'I' for Inactive)
    1  A    between atoms: C_3  and  C_42
    2  A    between atoms: C_8  and  C_14
    3  A    between atoms: C_13  and  N_39
    4  A    between atoms: C_13  and  C_41
    5  A    between atoms: C_18  and  C_47
    6  A    between atoms: C_20  and  C_31
    7  A    between atoms: N_39  and  C_47
                            x       y       z     vdW  Elec       q    Type
                         _______ _______ _______ _____ _____    ______ ____

>  <TORSDO>
F 7

$$$$
=
 OpenBabel11042414133D

 49 56  0  0  1  0  0  0  0  0999 V2000
  190.5580  173.3590  138.3480 C   0  0  1  0  0  3  0  0  0  0  0  0
  188.6900  172.6380  142.0680 C   0  0  0  0  0  2  0  0  0  0  0  0
  190.2110  172.4580  142.0180 C   0  0  2  0  0  3  0  0  0  0  0  0
  189.2420  174.4190  136.5230 C   0  0  0  0  0  1  0  0  0  0  0  0
  188.1920  173.8810  138.7350 C   0  0  0  0  0  2  0  0  0  0  0  0
  187.4360  178.3480  142.3400 C   0  0  0  0  0  2  0  0  0  0  0  0
  189.1960  173.4160  137.6590 C   0  0  2  0  0  3  0  0  0  0  0  0
  190.2320  173.3440  139.7860 C   0  0  0  0  0  0  0  0  0  0  0  0
  186.7260  177.1540  145.7890 O   0  0  0  0  0  0  0  0  0  0  0  0
  187.1010  175.8810  142.4070 C   0  0  0  0  0  0  0  0  0  0  0  0
  186.6130  177.1370  144.5320 C   0  0  0  0  0  0  0  0  0  0  0  0
  186.8490  175.9150  143.8200 N   0  0  0  0  0  2  0  0  0  0  0  0
  186.2240  178.6710  143.6600 S   0  0  0  0  0  0  0  0  0  0  0  0
  188.2940  173.8490  141.2820 C   0  0  0  0  0  0  0  0  0  0  0  0
  190.7030  172.5100  140.6470 N   0  0  0  0  0  0  0  0  0  0  0  0
  189.0070  174.1550  139.9960 C   0  0  2  0  0  3  0  0  0  0  0  0
  186.9810  177.1160  141.5640 C   0  0  0  0  0  2  0  0  0  0  0  0
  187.6790  174.8370  141.8780 C   0  0  0  0  0  0  0  0  0  0  0  0
  194.6720  173.9590  137.1080 C   0  0  0  0  0  3  0  0  0  0  0  0
  192.2670  170.0820  136.8690 C   0  0  0  0  0  3  0  0  0  0  0  0
  190.1800  170.3840  137.9820 O   0  0  0  0  0  0  0  0  0  0  0  0
  192.7980  172.7620  137.5730 C   0  0  0  0  0  0  0  0  0  0  0  0
  194.7840  172.5910  136.5670 N   0  0  0  0  0  0  0  0  0  0  0  0
  193.3380  174.0620  137.7080 N   0  0  0  0  0  0  0  0  0  0  0  0
  191.5630  172.3520  137.8630 C   0  0  0  0  0  0  0  0  0  0  0  0
  191.2650  170.9090  137.6060 C   0  0  0  0  0  0  0  0  0  0  0  0
  193.4220  170.5930  136.5160 N   0  0  0  0  0  0  0  0  0  0  0  0
  193.7380  171.9300  136.9160 C   0  0  0  0  0  0  0  0  0  0  0  0
  192.6900  169.9210  142.8790 O   0  0  0  0  0  0  0  0  0  0  0  0
  190.6540  171.1650  142.7160 C   0  0  2  0  0  3  0  0  0  0  0  0
  192.1360  171.2010  143.0460 C   0  0  1  0  0  3  0  0  0  0  0  0
  191.8280  169.2020  142.0180 C   0  0  0  0  0  2  0  0  0  0  0  0
  190.5750  170.0090  141.7550 C   0  0  0  0  0  2  0  0  0  0  0  0
  192.3610  171.6600  144.4850 C   0  0  0  0  0  2  0  0  0  0  0  0
  193.7900  171.7070  144.7660 N   0  0  0  0  0  2  0  0  0  0  0  0
  194.0700  173.0070  145.3750 C   0  0  0  0  0  2  0  0  0  0  0  0
  194.7700  174.3620  142.8270 C   0  0  0  0  0  2  0  0  0  0  0  0
  196.0360  176.4110  143.0140 N   0  0  0  0  0  1  0  0  0  0  0  0
  192.7730  175.7020  142.8720 C   0  0  1  0  0  3  0  0  0  0  0  0
  191.8560  177.8410  143.7400 C   0  0  0  0  0  2  0  0  0  0  0  0
  192.3330  174.6920  145.5440 N   0  0  0  0  0  0  0  0  0  0  0  0
  195.1180  175.6730  142.1570 C   0  0  2  0  0  3  0  0  0  0  0  0
  191.4910  175.8110  145.0960 C   0  0  1  0  0  3  0  0  0  0  0  0
  192.1520  176.5520  143.9550 C   0  0  0  0  0  0  0  0  0  0  0  0
  193.8090  176.4480  142.0360 C   0  0  0  0  0  2  0  0  0  0  0  0
  193.4850  174.5810  143.4640 N   0  0  0  0  0  0  0  0  0  0  0  0
  193.2000  174.0810  144.7850 C   0  0  0  0  0  0  0  0  0  0  0  0
  189.6900  174.1450  145.5940 C   0  0  0  0  0  1  0  0  0  0  0  0
  190.1250  175.2730  144.6810 C   0  0  0  0  0  2  0  0  0  0  0  0
  1 25  1  6  0  0  0
  1  8  1  0  0  0  0
  3  2  1  6  0  0  0
  3 30  1  0  0  0  0
  6 13  1  0  0  0  0
  7  4  1  6  0  0  0
  7  1  1  0  0  0  0
  7  5  1  0  0  0  0
  8 16  1  0  0  0  0
  8 15  2  0  0  0  0
 10 12  1  0  0  0  0
 11  9  2  0  0  0  0
 12 11  1  0  0  0  0
 13 11  1  0  0  0  0
 14 18  2  0  0  0  0
 14  2  1  0  0  0  0
 15  3  1  0  0  0  0
 16  5  1  6  0  0  0
 16 14  1  0  0  0  0
 17  6  1  0  0  0  0
 17 10  1  0  0  0  0
 18 10  2  0  0  0  0
 19 24  2  0  0  0  0
 20 26  1  0  0  0  0
 22 24  1  0  0  0  0
 22 25  2  0  0  0  0
 23 28  2  0  0  0  0
 23 19  1  0  0  0  0
 26 25  1  0  0  0  0
 26 21  2  0  0  0  0
 27 20  2  0  0  0  0
 27 28  1  0  0  0  0
 28 22  1  0  0  0  0
 29 31  1  0  0  0  0
 30 33  1  6  0  0  0
 30 31  1  0  0  0  0
 31 34  1  1  0  0  0
 32 29  1  0  0  0  0
 33 32  1  0  0  0  0
 34 35  1  0  0  0  0
 35 36  1  0  0  0  0
 37 46  1  0  0  0  0
 39 45  1  1  0  0  0
 39 46  1  0  0  0  0
 39 44  1  0  0  0  0
 40 44  2  0  0  0  0
 42 37  1  0  0  0  0
 42 38  1  1  0  0  0
 43 49  1  6  0  0  0
 43 41  1  0  0  0  0
 44 43  1  0  0  0  0
 45 42  1  0  0  0  0
 46 47  1  0  0  0  0
 47 36  1  0  0  0  0
 47 41  2  0  0  0  0
 49 48  1  0  0  0  0
M  END
>  <MODEL>
6

>  <REMARK>
 VINA RESULT:      -6.7      2.544      6.733
  Name = 
  7 active torsions:
  status: ('A' for Active; 'I' for Inactive)
    1  A    between atoms: C_3  and  C_42
    2  A    between atoms: C_8  and  C_14
    3  A    between atoms: C_13  and  N_39
    4  A    between atoms: C_13  and  C_41
    5  A    between atoms: C_18  and  C_47
    6  A    between atoms: C_20  and  C_31
    7  A    between atoms: N_39  and  C_47
                            x       y       z     vdW  Elec       q    Type
                         _______ _______ _______ _____ _____    ______ ____

>  <TORSDO>
F 7

$$$$
=
 OpenBabel11042414133D

 49 56  0  0  1  0  0  0  0  0999 V2000
  190.5790  173.4050  138.6870 C   0  0  1  0  0  3  0  0  0  0  0  0
  191.5180  172.8270  142.7650 C   0  0  0  0  0  2  0  0  0  0  0  0
  192.6670  173.2700  141.8520 C   0  0  2  0  0  3  0  0  0  0  0  0
  188.1910  173.4160  137.9890 C   0  0  0  0  0  1  0  0  0  0  0  0
  188.8430  173.0000  140.3740 C   0  0  0  0  0  2  0  0  0  0  0  0
  188.1570  177.4530  144.0090 C   0  0  0  0  0  2  0  0  0  0  0  0
  189.2120  172.7550  138.8950 C   0  0  2  0  0  3  0  0  0  0  0  0
  191.1060  173.5750  140.0530 C   0  0  0  0  0  0  0  0  0  0  0  0
  190.0020  176.8630  147.1820 O   0  0  0  0  0  0  0  0  0  0  0  0
  189.0760  175.1420  144.1200 C   0  0  0  0  0  0  0  0  0  0  0  0
  189.2690  176.5260  146.2110 C   0  0  0  0  0  0  0  0  0  0  0  0
  189.6220  175.3800  145.4260 N   0  0  0  0  0  2  0  0  0  0  0  0
  187.8320  177.5410  145.7980 S   0  0  0  0  0  0  0  0  0  0  0  0
  190.2690  173.5710  142.4080 C   0  0  0  0  0  0  0  0  0  0  0  0
  192.2780  173.2130  140.4490 N   0  0  0  0  0  0  0  0  0  0  0  0
  189.9670  173.8480  140.9640 C   0  0  2  0  0  3  0  0  0  0  0  0
  187.9840  176.0050  143.5610 C   0  0  0  0  0  2  0  0  0  0  0  0
  189.6900  174.3310  143.3010 C   0  0  0  0  0  0  0  0  0  0  0  0
  192.6410  175.3330  135.3920 C   0  0  0  0  0  3  0  0  0  0  0  0
  192.5150  170.8600  136.3150 C   0  0  0  0  0  3  0  0  0  0  0  0
  191.4500  170.5240  138.4220 O   0  0  0  0  0  0  0  0  0  0  0  0
  192.0640  173.6100  136.7570 C   0  0  0  0  0  0  0  0  0  0  0  0
  193.0530  174.0450  134.8020 N   0  0  0  0  0  0  0  0  0  0  0  0
  191.9420  175.0140  136.6410 N   0  0  0  0  0  0  0  0  0  0  0  0
  191.5060  172.8090  137.6640 C   0  0  0  0  0  0  0  0  0  0  0  0
  191.8030  171.3490  137.5350 C   0  0  0  0  0  0  0  0  0  0  0  0
  192.9380  171.7060  135.4070 N   0  0  0  0  0  0  0  0  0  0  0  0
  192.7750  173.1090  135.6380 C   0  0  0  0  0  0  0  0  0  0  0  0
  195.5590  171.3400  140.7400 O   0  0  0  0  0  0  0  0  0  0  0  0
  193.9420  172.4530  142.1050 C   0  0  2  0  0  3  0  0  0  0  0  0
  194.9080  172.5680  140.9390 C   0  0  1  0  0  3  0  0  0  0  0  0
  194.7570  170.3400  141.3380 C   0  0  0  0  0  2  0  0  0  0  0  0
  193.6190  170.9820  142.1010 C   0  0  0  0  0  2  0  0  0  0  0  0
  195.9500  173.6520  141.2020 C   0  0  0  0  0  2  0  0  0  0  0  0
  195.4540  174.9350  140.7240 N   0  0  0  0  0  2  0  0  0  0  0  0
  195.9380  175.9600  141.6470 C   0  0  0  0  0  2  0  0  0  0  0  0
  197.1890  174.9160  144.1300 C   0  0  0  0  0  2  0  0  0  0  0  0
  196.8410  172.5730  144.6040 N   0  0  0  0  0  1  0  0  0  0  0  0
  195.2230  175.3770  145.4370 C   0  0  1  0  0  3  0  0  0  0  0  0
  193.0510  174.3970  146.1380 C   0  0  0  0  0  2  0  0  0  0  0  0
  193.8880  175.9790  142.9460 N   0  0  0  0  0  0  0  0  0  0  0  0
  197.1370  173.8610  145.2140 C   0  0  2  0  0  3  0  0  0  0  0  0
  193.0530  175.8590  144.1490 C   0  0  1  0  0  3  0  0  0  0  0  0
  193.7640  175.0540  145.2130 C   0  0  0  0  0  0  0  0  0  0  0  0
  195.9900  174.2580  146.1380 C   0  0  0  0  0  2  0  0  0  0  0  0
  195.8930  175.5670  144.1610 N   0  0  0  0  0  0  0  0  0  0  0  0
  195.1900  175.9130  142.9510 C   0  0  0  0  0  0  0  0  0  0  0  0
  191.6770  177.9140  143.7630 C   0  0  0  0  0  1  0  0  0  0  0  0
  192.7060  177.2550  144.6580 C   0  0  0  0  0  2  0  0  0  0  0  0
  1 25  1  6  0  0  0
  1  7  1  0  0  0  0
  1  8  1  0  0  0  0
  3 30  1  0  0  0  0
  3  2  1  1  0  0  0
  6 13  1  0  0  0  0
  7  4  1  6  0  0  0
  7  5  1  0  0  0  0
  8 15  2  0  0  0  0
  8 16  1  0  0  0  0
 10 12  1  0  0  0  0
 11  9  2  0  0  0  0
 12 11  1  0  0  0  0
 13 11  1  0  0  0  0
 14  2  1  0  0  0  0
 14 18  2  0  0  0  0
 15  3  1  0  0  0  0
 16  5  1  6  0  0  0
 16 14  1  0  0  0  0
 17  6  1  0  0  0  0
 17 10  1  0  0  0  0
 18 10  2  0  0  0  0
 19 24  2  0  0  0  0
 20 26  1  0  0  0  0
 22 25  2  0  0  0  0
 23 19  1  0  0  0  0
 23 28  2  0  0  0  0
 24 22  1  0  0  0  0
 26 25  1  0  0  0  0
 26 21  2  0  0  0  0
 27 28  1  0  0  0  0
 27 20  2  0  0  0  0
 28 22  1  0  0  0  0
 29 31  1  0  0  0  0
 29 32  1  0  0  0  0
 30 33  1  6  0  0  0
 31 34  1  1  0  0  0
 31 30  1  0  0  0  0
 32 33  1  0  0  0  0
 35 34  1  0  0  0  0
 35 36  1  0  0  0  0
 36 47  1  0  0  0  0
 37 46  1  0  0  0  0
 37 42  1  0  0  0  0
 39 45  1  6  0  0  0
 41 47  2  0  0  0  0
 41 43  1  0  0  0  0
 42 38  1  6  0  0  0
 42 45  1  0  0  0  0
 43 49  1  1  0  0  0
 43 44  1  0  0  0  0
 44 39  1  0  0  0  0
 44 40  2  0  0  0  0
 46 39  1  0  0  0  0
 47 46  1  0  0  0  0
 48 49  1  0  0  0  0
M  END
>  <MODEL>
7

>  <REMARK>
 VINA RESULT:      -6.7      2.529      7.189
  Name = 
  7 active torsions:
  status: ('A' for Active; 'I' for Inactive)
    1  A    between atoms: C_3  and  C_42
    2  A    between atoms: C_8  and  C_14
    3  A    between atoms: C_13  and  N_39
    4  A    between atoms: C_13  and  C_41
    5  A    between atoms: C_18  and  C_47
    6  A    between atoms: C_20  and  C_31
    7  A    between atoms: N_39  and  C_47
                            x       y       z     vdW  Elec       q    Type
                         _______ _______ _______ _____ _____    ______ ____

>  <TORSDO>
F 7

$$$$
=
 OpenBabel11042414133D

 49 56  0  0  1  0  0  0  0  0999 V2000
  195.5350  174.6710  142.0800 C   0  0  1  0  0  3  0  0  0  0  0  0
  192.3960  172.7960  139.9640 C   0  0  0  0  0  2  0  0  0  0  0  0
  192.0440  173.3880  141.3330 C   0  0  2  0  0  3  0  0  0  0  0  0
  197.6850  175.1130  140.9090 C   0  0  0  0  0  1  0  0  0  0  0  0
  195.7980  173.9330  139.7550 C   0  0  0  0  0  2  0  0  0  0  0  0
  192.7160  177.1110  136.0240 C   0  0  0  0  0  2  0  0  0  0  0  0
  196.5550  174.1170  141.0870 C   0  0  2  0  0  3  0  0  0  0  0  0
  194.2320  174.3690  141.4620 C   0  0  0  0  0  0  0  0  0  0  0  0
  189.5180  175.4160  135.1740 O   0  0  0  0  0  0  0  0  0  0  0  0
  192.6270  174.8020  136.9500 C   0  0  0  0  0  0  0  0  0  0  0  0
  190.7590  175.4600  135.3990 C   0  0  0  0  0  0  0  0  0  0  0  0
  191.3300  174.5800  136.3760 N   0  0  0  0  0  2  0  0  0  0  0  0
  191.7710  176.6790  134.5300 S   0  0  0  0  0  0  0  0  0  0  0  0
  193.3120  173.7240  139.2280 C   0  0  0  0  0  0  0  0  0  0  0  0
  193.2410  173.7980  142.0550 N   0  0  0  0  0  0  0  0  0  0  0  0
  194.3820  174.4550  139.9880 C   0  0  2  0  0  3  0  0  0  0  0  0
  193.5270  175.8900  136.4470 C   0  0  0  0  0  2  0  0  0  0  0  0
  192.9400  174.2260  138.0800 C   0  0  0  0  0  0  0  0  0  0  0  0
  194.1440  176.8330  145.5760 C   0  0  0  0  0  3  0  0  0  0  0  0
  196.8140  173.1260  145.5190 C   0  0  0  0  0  3  0  0  0  0  0  0
  196.9500  172.2910  143.2890 O   0  0  0  0  0  0  0  0  0  0  0  0
  195.1440  175.1320  144.4480 C   0  0  0  0  0  0  0  0  0  0  0  0
  194.9370  175.9970  146.4970 N   0  0  0  0  0  0  0  0  0  0  0  0
  194.3470  176.2800  144.2330 N   0  0  0  0  0  0  0  0  0  0  0  0
  195.6970  174.3330  143.5360 C   0  0  0  0  0  0  0  0  0  0  0  0
  196.5070  173.1890  144.0580 C   0  0  0  0  0  0  0  0  0  0  0  0
  196.3210  174.0190  146.3420 N   0  0  0  0  0  0  0  0  0  0  0  0
  195.4220  175.0090  145.8330 C   0  0  0  0  0  0  0  0  0  0  0  0
  189.8430  172.5930  144.1350 O   0  0  0  0  0  0  0  0  0  0  0  0
  191.1960  172.4200  142.1700 C   0  0  2  0  0  3  0  0  0  0  0  0
  190.0560  173.1470  142.8620 C   0  0  1  0  0  3  0  0  0  0  0  0
  191.0350  171.9260  144.5050 C   0  0  0  0  0  2  0  0  0  0  0  0
  192.0000  171.9140  143.3390 C   0  0  0  0  0  2  0  0  0  0  0  0
  188.7700  173.0390  142.0470 C   0  0  0  0  0  2  0  0  0  0  0  0
  188.2840  174.3730  141.7210 N   0  0  0  0  0  2  0  0  0  0  0  0
  188.9900  175.3170  142.5850 C   0  0  0  0  0  2  0  0  0  0  0  0
  189.6450  176.3520  145.2910 C   0  0  0  0  0  2  0  0  0  0  0  0
  188.9320  174.9970  147.1600 N   0  0  0  0  0  1  0  0  0  0  0  0
  187.5510  177.5240  145.4620 C   0  0  1  0  0  3  0  0  0  0  0  0
  185.1850  177.2360  146.1610 C   0  0  0  0  0  2  0  0  0  0  0  0
  186.7620  176.1640  143.0370 N   0  0  0  0  0  0  0  0  0  0  0  0
  189.2730  176.3540  146.7580 C   0  0  2  0  0  3  0  0  0  0  0  0
  185.7190  176.8890  143.7760 C   0  0  1  0  0  3  0  0  0  0  0  0
  186.1270  177.0850  145.2190 C   0  0  0  0  0  0  0  0  0  0  0  0
  188.0380  177.2420  146.8810 C   0  0  0  0  0  2  0  0  0  0  0  0
  188.4540  176.7910  144.5890 N   0  0  0  0  0  0  0  0  0  0  0  0
  188.0240  176.1670  143.3630 C   0  0  0  0  0  0  0  0  0  0  0  0
  184.2420  178.1550  142.2000 C   0  0  0  0  0  1  0  0  0  0  0  0
  185.4630  178.2300  143.0940 C   0  0  0  0  0  2  0  0  0  0  0  0
  1 25  1  1  0  0  0
  3  2  1  6  0  0  0
  3 15  1  0  0  0  0
  3 30  1  0  0  0  0
  5  7  1  0  0  0  0
  6 17  1  0  0  0  0
  7  4  1  6  0  0  0
  7  1  1  0  0  0  0
  8 15  2  0  0  0  0
  8  1  1  0  0  0  0
  9 11  2  0  0  0  0
 10 18  2  0  0  0  0
 11 12  1  0  0  0  0
 12 10  1  0  0  0  0
 13 11  1  0  0  0  0
 13  6  1  0  0  0  0
 14  2  1  0  0  0  0
 14 16  1  0  0  0  0
 16  5  1  1  0  0  0
 16  8  1  0  0  0  0
 17 10  1  0  0  0  0
 18 14  2  0  0  0  0
 19 23  1  0  0  0  0
 20 27  2  0  0  0  0
 21 26  2  0  0  0  0
 22 28  1  0  0  0  0
 24 22  1  0  0  0  0
 24 19  2  0  0  0  0
 25 26  1  0  0  0  0
 25 22  2  0  0  0  0
 26 20  1  0  0  0  0
 28 27  1  0  0  0  0
 28 23  2  0  0  0  0
 29 32  1  0  0  0  0
 30 31  1  0  0  0  0
 30 33  1  1  0  0  0
 31 34  1  6  0  0  0
 31 29  1  0  0  0  0
 33 32  1  0  0  0  0
 35 34  1  0  0  0  0
 35 36  1  0  0  0  0
 36 47  1  0  0  0  0
 37 42  1  0  0  0  0
 39 45  1  1  0  0  0
 41 47  2  0  0  0  0
 41 43  1  0  0  0  0
 42 45  1  0  0  0  0
 42 38  1  6  0  0  0
 43 49  1  6  0  0  0
 43 44  1  0  0  0  0
 44 39  1  0  0  0  0
 44 40  2  0  0  0  0
 46 37  1  0  0  0  0
 46 39  1  0  0  0  0
 47 46  1  0  0  0  0
 48 49  1  0  0  0  0
M  END
>  <MODEL>
8

>  <REMARK>
 VINA RESULT:      -6.7      3.114      6.574
  Name = 
  7 active torsions:
  status: ('A' for Active; 'I' for Inactive)
    1  A    between atoms: C_3  and  C_42
    2  A    between atoms: C_8  and  C_14
    3  A    between atoms: C_13  and  N_39
    4  A    between atoms: C_13  and  C_41
    5  A    between atoms: C_18  and  C_47
    6  A    between atoms: C_20  and  C_31
    7  A    between atoms: N_39  and  C_47
                            x       y       z     vdW  Elec       q    Type
                         _______ _______ _______ _____ _____    ______ ____

>  <TORSDO>
F 7

$$$$
=
 OpenBabel11042414133D

 49 56  0  0  1  0  0  0  0  0999 V2000
  195.3690  172.5250  142.1450 C   0  0  1  0  0  3  0  0  0  0  0  0
  191.1820  173.0850  142.2410 C   0  0  0  0  0  2  0  0  0  0  0  0
  192.0350  174.1690  142.9080 C   0  0  2  0  0  3  0  0  0  0  0  0
  196.3140  170.7350  140.7000 C   0  0  0  0  0  1  0  0  0  0  0  0
  193.8380  171.0850  140.8790 C   0  0  0  0  0  2  0  0  0  0  0  0
  191.3300  173.8240  136.4370 C   0  0  0  0  0  2  0  0  0  0  0  0
  195.1810  171.0960  141.6400 C   0  0  2  0  0  3  0  0  0  0  0  0
  194.0200  173.1150  142.0630 C   0  0  0  0  0  0  0  0  0  0  0  0
  187.9190  174.9820  137.3570 O   0  0  0  0  0  0  0  0  0  0  0  0
  190.6300  172.9430  138.6580 C   0  0  0  0  0  0  0  0  0  0  0  0
  188.8710  174.1540  137.3280 C   0  0  0  0  0  0  0  0  0  0  0  0
  189.3520  173.5890  138.5540 N   0  0  0  0  0  2  0  0  0  0  0  0
  189.6480  173.7590  135.7450 S   0  0  0  0  0  0  0  0  0  0  0  0
  191.8250  172.6480  140.9610 C   0  0  0  0  0  0  0  0  0  0  0  0
  193.4280  173.7560  143.0110 N   0  0  0  0  0  0  0  0  0  0  0  0
  193.3200  172.5210  140.8970 C   0  0  2  0  0  3  0  0  0  0  0  0
  191.4760  172.6900  137.4470 C   0  0  0  0  0  2  0  0  0  0  0  0
  191.1840  172.7930  139.8310 C   0  0  0  0  0  0  0  0  0  0  0  0
  195.6390  169.9740  145.6450 C   0  0  0  0  0  3  0  0  0  0  0  0
  197.3600  174.1800  145.1690 C   0  0  0  0  0  3  0  0  0  0  0  0
  197.0960  174.8830  142.9060 O   0  0  0  0  0  0  0  0  0  0  0  0
  196.1020  171.7880  144.3570 C   0  0  0  0  0  0  0  0  0  0  0  0
  196.3040  171.0210  146.4450 N   0  0  0  0  0  0  0  0  0  0  0  0
  195.4650  170.5280  144.2980 N   0  0  0  0  0  0  0  0  0  0  0  0
  196.1320  172.7380  143.4230 C   0  0  0  0  0  0  0  0  0  0  0  0
  196.8800  173.9870  143.7670 C   0  0  0  0  0  0  0  0  0  0  0  0
  197.1920  173.2380  146.0660 N   0  0  0  0  0  0  0  0  0  0  0  0
  196.6130  171.9930  145.6630 C   0  0  0  0  0  0  0  0  0  0  0  0
  191.8630  176.3460  145.8340 O   0  0  0  0  0  0  0  0  0  0  0  0
  191.4750  174.5700  144.2800 C   0  0  2  0  0  3  0  0  0  0  0  0
  191.5590  176.0710  144.4910 C   0  0  1  0  0  3  0  0  0  0  0  0
  192.4520  175.1800  146.3760 C   0  0  0  0  0  2  0  0  0  0  0  0
  192.3710  174.0490  145.3730 C   0  0  0  0  0  2  0  0  0  0  0  0
  190.2390  176.7460  144.1260 C   0  0  0  0  0  2  0  0  0  0  0  0
  189.5000  177.0630  145.3410 N   0  0  0  0  0  2  0  0  0  0  0  0
  188.1920  176.4190  145.2340 C   0  0  0  0  0  2  0  0  0  0  0  0
  186.3190  178.5830  146.0260 C   0  0  0  0  0  2  0  0  0  0  0  0
  184.0530  177.9110  146.5310 N   0  0  0  0  0  1  0  0  0  0  0  0
  185.6080  178.9400  143.7560 C   0  0  1  0  0  3  0  0  0  0  0  0
  183.9680  178.1610  142.0620 C   0  0  0  0  0  2  0  0  0  0  0  0
  187.1000  176.5620  143.0720 N   0  0  0  0  0  0  0  0  0  0  0  0
  184.8740  179.0310  146.0940 C   0  0  2  0  0  3  0  0  0  0  0  0
  186.2030  177.1160  142.0480 C   0  0  1  0  0  3  0  0  0  0  0  0
  185.1410  177.9850  142.6830 C   0  0  0  0  0  0  0  0  0  0  0  0
  184.4830  179.4190  144.6710 C   0  0  0  0  0  2  0  0  0  0  0  0
  186.5650  178.2800  144.6300 N   0  0  0  0  0  0  0  0  0  0  0  0
  187.3220  177.1210  144.2280 C   0  0  0  0  0  0  0  0  0  0  0  0
  186.7050  177.4770  139.6220 C   0  0  0  0  0  1  0  0  0  0  0  0
  187.0270  177.9090  141.0380 C   0  0  0  0  0  2  0  0  0  0  0  0
  1 25  1  1  0  0  0
  3  2  1  1  0  0  0
  3 15  1  0  0  0  0
  3 30  1  0  0  0  0
  5  7  1  0  0  0  0
  6 17  1  0  0  0  0
  7  4  1  6  0  0  0
  7  1  1  0  0  0  0
  8  1  1  0  0  0  0
  8 15  2  0  0  0  0
 10 18  2  0  0  0  0
 11  9  2  0  0  0  0
 11 12  1  0  0  0  0
 12 10  1  0  0  0  0
 13  6  1  0  0  0  0
 13 11  1  0  0  0  0
 14  2  1  0  0  0  0
 16  5  1  1  0  0  0
 16 14  1  0  0  0  0
 16  8  1  0  0  0  0
 17 10  1  0  0  0  0
 18 14  2  0  0  0  0
 19 23  1  0  0  0  0
 20 27  2  0  0  0  0
 21 26  2  0  0  0  0
 22 28  1  0  0  0  0
 24 22  1  0  0  0  0
 24 19  2  0  0  0  0
 25 26  1  0  0  0  0
 25 22  2  0  0  0  0
 26 20  1  0  0  0  0
 28 27  1  0  0  0  0
 28 23  2  0  0  0  0
 29 32  1  0  0  0  0
 30 31  1  0  0  0  0
 30 33  1  1  0  0  0
 31 34  1  1  0  0  0
 31 29  1  0  0  0  0
 33 32  1  0  0  0  0
 34 35  1  0  0  0  0
 36 35  1  0  0  0  0
 37 42  1  0  0  0  0
 39 46  1  0  0  0  0
 39 45  1  1  0  0  0
 40 44  2  0  0  0  0
 41 47  2  0  0  0  0
 42 38  1  6  0  0  0
 43 49  1  6  0  0  0
 43 44  1  0  0  0  0
 43 41  1  0  0  0  0
 44 39  1  0  0  0  0
 45 42  1  0  0  0  0
 46 37  1  0  0  0  0
 47 46  1  0  0  0  0
 47 36  1  0  0  0  0
 48 49  1  0  0  0  0
M  END
>  <MODEL>
9

>  <REMARK>
 VINA RESULT:      -6.7      2.644      6.478
  Name = 
  7 active torsions:
  status: ('A' for Active; 'I' for Inactive)
    1  A    between atoms: C_3  and  C_42
    2  A    between atoms: C_8  and  C_14
    3  A    between atoms: C_13  and  N_39
    4  A    between atoms: C_13  and  C_41
    5  A    between atoms: C_18  and  C_47
    6  A    between atoms: C_20  and  C_31
    7  A    between atoms: N_39  and  C_47
                            x       y       z     vdW  Elec       q    Type
                         _______ _______ _______ _____ _____    ______ ____

>  <TORSDO>
F 7

$$$$
