=
 OpenBabel11042418113D

 25 26  0  0  1  0  0  0  0  0999 V2000
  188.8760  175.0250  145.8560 C   0  0  0  0  0  3  0  0  0  0  0  0
  189.6670  174.5850  146.8320 C   0  0  0  0  0  3  0  0  0  0  0  0
  188.6870  176.4700  145.5290 C   0  0  1  0  0  3  0  0  0  0  0  0
  190.5370  175.4320  147.6660 C   0  0  0  0  0  3  0  0  0  0  0  0
  187.0820  177.8330  144.1450 C   0  0  0  0  0  0  0  0  0  0  0  0
  191.0090  177.2280  145.9720 C   0  0  0  0  0  3  0  0  0  0  0  0
  189.9940  177.1280  145.1090 C   0  0  0  0  0  0  0  0  0  0  0  0
  189.6190  177.2130  142.6280 C   0  0  0  0  0  2  0  0  0  0  0  0
  190.1290  177.9520  143.8580 C   0  0  0  0  0  2  0  0  0  0  0  0
  187.4380  178.4220  143.0390 N   0  0  0  0  0  0  0  0  0  0  0  0
  188.3660  177.8780  142.0370 C   0  0  2  0  0  3  0  0  0  0  0  0
  191.1150  176.5770  147.2920 C   0  0  0  0  0  3  0  0  0  0  0  0
  187.6530  176.5760  144.5090 N   0  0  0  0  0  2  0  0  0  0  0  0
  186.9160  177.4190  140.1900 O   0  0  0  0  0  0  0  0  0  0  0  0
  187.6570  176.9510  141.0950 C   0  0  0  0  0  0  0  0  0  0  0  0
  188.3600  174.8580  140.2800 N   0  0  0  0  0  0  0  0  0  0  0  0
  187.8150  175.5360  141.2050 N   0  0  0  0  0  0  0  0  0  0  0  0
  187.9260  172.4720  139.2490 O   0  0  0  0  0  0  0  0  0  0  0  0
  187.8250  172.6850  141.6860 O   0  0  0  0  0  0  0  0  0  0  0  0
  188.5350  173.1480  140.4450 S   0  0  0  0  0  0  0  0  0  0  0  0
  190.2590  172.7260  140.5370 C   0  0  0  0  0  1  0  0  0  0  0  0
  185.5260  179.7320  144.4560 C   0  0  0  0  0  1  0  0  0  0  0  0
  186.1900  178.5360  145.1180 C   0  0  1  0  0  3  0  0  0  0  0  0
  185.1460  177.5830  145.6810 C   0  0  0  0  0  2  0  0  0  0  0  0
  184.0330  178.3350  146.2350 N   0  0  0  0  0  1  0  0  0  0  0  0
  1  2  2  0  0  0  0
  2  4  1  0  0  0  0
  3  1  1  6  0  0  0
  5 13  1  0  0  0  0
  5 23  1  0  0  0  0
  6 12  1  0  0  0  0
  7  3  1  0  0  0  0
  7  6  2  0  0  0  0
  8  9  1  0  0  0  0
  9  7  1  0  0  0  0
 10  5  2  0  0  0  0
 11 15  1  1  0  0  0
 11  8  1  0  0  0  0
 11 10  1  0  0  0  0
 12  4  2  0  0  0  0
 13  3  1  0  0  0  0
 14 15  2  0  0  0  0
 15 17  1  0  0  0  0
 16 20  1  0  0  0  0
 16 17  2  0  0  0  0
 18 20  2  0  0  0  0
 20 21  1  0  0  0  0
 20 19  2  0  0  0  0
 23 22  1  6  0  0  0
 23 24  1  0  0  0  0
 24 25  1  0  0  0  0
M  END
>  <MODEL>
1

>  <REMARK>
 VINA RESULT:      -7.2      0.000      0.000
  Name = 
  5 active torsions:
  status: ('A' for Active; 'I' for Inactive)
    1  A    between atoms: C_1  and  C_22
    2  A    between atoms: N_3  and  S_17
    3  A    between atoms: C_9  and  C_22
    4  A    between atoms: C_11  and  N_18
    5  A    between atoms: C_11  and  C_23
                            x       y       z     vdW  Elec       q    Type
                         _______ _______ _______ _____ _____    ______ ____

>  <TORSDO>
F 5

$$$$
=
 OpenBabel11042418113D

 25 26  0  0  1  0  0  0  0  0999 V2000
  187.5130  176.3800  146.7390 C   0  0  0  0  0  3  0  0  0  0  0  0
  186.3050  176.8710  147.0060 C   0  0  0  0  0  3  0  0  0  0  0  0
  188.0270  176.1490  145.3570 C   0  0  1  0  0  3  0  0  0  0  0  0
  185.3400  177.3450  145.9990 C   0  0  0  0  0  3  0  0  0  0  0  0
  189.9600  174.9160  144.3110 C   0  0  0  0  0  0  0  0  0  0  0  0
  186.9900  178.1250  144.2700 C   0  0  0  0  0  3  0  0  0  0  0  0
  188.1020  177.4430  144.5600 C   0  0  0  0  0  0  0  0  0  0  0  0
  190.5760  177.8480  144.6870 C   0  0  0  0  0  2  0  0  0  0  0  0
  189.3330  177.8700  143.8080 C   0  0  0  0  0  2  0  0  0  0  0  0
  190.9640  175.5320  143.7530 N   0  0  0  0  0  0  0  0  0  0  0  0
  191.5810  176.7760  144.2330 C   0  0  2  0  0  3  0  0  0  0  0  0
  185.6390  177.8850  144.8140 C   0  0  0  0  0  3  0  0  0  0  0  0
  189.3150  175.4760  145.4550 N   0  0  0  0  0  2  0  0  0  0  0  0
  192.2620  176.5850  146.5180 O   0  0  0  0  0  0  0  0  0  0  0  0
  192.5910  176.4970  145.3060 C   0  0  0  0  0  0  0  0  0  0  0  0
  194.3780  176.2620  143.7910 N   0  0  0  0  0  0  0  0  0  0  0  0
  193.9280  176.1250  144.9710 N   0  0  0  0  0  0  0  0  0  0  0  0
  196.8640  177.0310  143.3760 O   0  0  0  0  0  0  0  0  0  0  0  0
  196.0390  175.1250  142.0790 O   0  0  0  0  0  0  0  0  0  0  0  0
  196.0000  175.8020  143.4200 S   0  0  0  0  0  0  0  0  0  0  0  0
  196.6150  174.7030  144.6730 C   0  0  0  0  0  1  0  0  0  0  0  0
  188.6460  174.0710  142.3920 C   0  0  0  0  0  1  0  0  0  0  0  0
  189.3760  173.6960  143.6710 C   0  0  1  0  0  3  0  0  0  0  0  0
  190.4570  172.6620  143.3920 C   0  0  0  0  0  2  0  0  0  0  0  0
  189.8690  171.4770  142.7910 N   0  0  0  0  0  1  0  0  0  0  0  0
  1  2  2  0  0  0  0
  3 13  1  0  0  0  0
  3  1  1  1  0  0  0
  4  2  1  0  0  0  0
  5 13  1  0  0  0  0
  6  7  2  0  0  0  0
  6 12  1  0  0  0  0
  7  3  1  0  0  0  0
  9  7  1  0  0  0  0
  9  8  1  0  0  0  0
 10 11  1  0  0  0  0
 10  5  2  0  0  0  0
 11  8  1  0  0  0  0
 11 15  1  1  0  0  0
 12  4  2  0  0  0  0
 15 14  2  0  0  0  0
 16 17  2  0  0  0  0
 17 15  1  0  0  0  0
 18 20  2  0  0  0  0
 19 20  2  0  0  0  0
 20 16  1  0  0  0  0
 20 21  1  0  0  0  0
 23 22  1  6  0  0  0
 23  5  1  0  0  0  0
 24 23  1  0  0  0  0
 25 24  1  0  0  0  0
M  END
>  <MODEL>
2

>  <REMARK>
 VINA RESULT:      -6.6      4.534      6.174
  Name = 
  5 active torsions:
  status: ('A' for Active; 'I' for Inactive)
    1  A    between atoms: C_1  and  C_22
    2  A    between atoms: N_3  and  S_17
    3  A    between atoms: C_9  and  C_22
    4  A    between atoms: C_11  and  N_18
    5  A    between atoms: C_11  and  C_23
                            x       y       z     vdW  Elec       q    Type
                         _______ _______ _______ _____ _____    ______ ____

>  <TORSDO>
F 5

$$$$
=
 OpenBabel11042418113D

 25 26  0  0  1  0  0  0  0  0999 V2000
  193.2140  176.9770  145.2830 C   0  0  0  0  0  3  0  0  0  0  0  0
  194.5010  176.6630  145.4050 C   0  0  0  0  0  3  0  0  0  0  0  0
  192.1680  176.0230  144.8080 C   0  0  1  0  0  3  0  0  0  0  0  0
  195.0720  175.3230  145.1840 C   0  0  0  0  0  3  0  0  0  0  0  0
  189.7800  176.1780  144.0200 C   0  0  0  0  0  0  0  0  0  0  0  0
  193.0680  173.9690  145.8720 C   0  0  0  0  0  3  0  0  0  0  0  0
  192.0460  174.8170  145.7280 C   0  0  0  0  0  0  0  0  0  0  0  0
  189.9470  175.4570  146.9480 C   0  0  0  0  0  2  0  0  0  0  0  0
  190.7300  174.3370  146.2750 C   0  0  0  0  0  2  0  0  0  0  0  0
  188.7810  175.7220  144.7210 N   0  0  0  0  0  0  0  0  0  0  0  0
  188.6560  175.7940  146.1840 C   0  0  2  0  0  3  0  0  0  0  0  0
  194.4490  174.1580  145.3850 C   0  0  0  0  0  3  0  0  0  0  0  0
  190.9140  176.7510  144.6680 N   0  0  0  0  0  2  0  0  0  0  0  0
  188.7550  177.8380  147.4220 O   0  0  0  0  0  0  0  0  0  0  0  0
  188.1080  177.1220  146.6130 C   0  0  0  0  0  0  0  0  0  0  0  0
  186.7900  178.2790  145.0420 N   0  0  0  0  0  0  0  0  0  0  0  0
  186.8580  177.5940  146.1100 N   0  0  0  0  0  0  0  0  0  0  0  0
  185.3720  180.2860  144.0920 O   0  0  0  0  0  0  0  0  0  0  0  0
  184.2260  178.6780  145.5400 O   0  0  0  0  0  0  0  0  0  0  0  0
  185.2610  178.8340  144.4620 S   0  0  0  0  0  0  0  0  0  0  0  0
  184.7880  177.9020  143.0260 C   0  0  0  0  0  1  0  0  0  0  0  0
  189.9590  174.4870  142.2220 C   0  0  0  0  0  1  0  0  0  0  0  0
  189.8170  175.9660  142.5390 C   0  0  1  0  0  3  0  0  0  0  0  0
  188.5730  176.5420  141.8790 C   0  0  0  0  0  2  0  0  0  0  0  0
  188.6280  177.9940  141.8940 N   0  0  0  0  0  1  0  0  0  0  0  0
  1  2  2  0  0  0  0
  3  1  1  1  0  0  0
  3  7  1  0  0  0  0
  4 12  2  0  0  0  0
  4  2  1  0  0  0  0
  5 13  1  0  0  0  0
  5 10  2  0  0  0  0
  7  6  2  0  0  0  0
  7  9  1  0  0  0  0
  9  8  1  0  0  0  0
 10 11  1  0  0  0  0
 11 15  1  6  0  0  0
 11  8  1  0  0  0  0
 12  6  1  0  0  0  0
 13  3  1  0  0  0  0
 15 14  2  0  0  0  0
 16 17  2  0  0  0  0
 17 15  1  0  0  0  0
 18 20  2  0  0  0  0
 20 16  1  0  0  0  0
 20 19  2  0  0  0  0
 21 20  1  0  0  0  0
 23 22  1  1  0  0  0
 23  5  1  0  0  0  0
 24 25  1  0  0  0  0
 24 23  1  0  0  0  0
M  END
>  <MODEL>
3

>  <REMARK>
 VINA RESULT:      -6.5      3.594      5.687
  Name = 
  5 active torsions:
  status: ('A' for Active; 'I' for Inactive)
    1  A    between atoms: C_1  and  C_22
    2  A    between atoms: N_3  and  S_17
    3  A    between atoms: C_9  and  C_22
    4  A    between atoms: C_11  and  N_18
    5  A    between atoms: C_11  and  C_23
                            x       y       z     vdW  Elec       q    Type
                         _______ _______ _______ _____ _____    ______ ____

>  <TORSDO>
F 5

$$$$
=
 OpenBabel11042418113D

 25 26  0  0  1  0  0  0  0  0999 V2000
  190.6980  174.3480  145.1130 C   0  0  0  0  0  3  0  0  0  0  0  0
  191.8590  174.0360  145.6840 C   0  0  0  0  0  3  0  0  0  0  0  0
  189.9860  175.6420  145.3310 C   0  0  1  0  0  3  0  0  0  0  0  0
  192.6560  174.9400  146.5310 C   0  0  0  0  0  3  0  0  0  0  0  0
  187.6840  176.5590  144.8730 C   0  0  0  0  0  0  0  0  0  0  0  0
  191.9820  177.1130  145.4620 C   0  0  0  0  0  3  0  0  0  0  0  0
  190.8200  176.8280  144.8680 C   0  0  0  0  0  0  0  0  0  0  0  0
  189.6430  177.3220  142.7050 C   0  0  0  0  0  2  0  0  0  0  0  0
  190.2810  177.9010  143.9610 C   0  0  0  0  0  2  0  0  0  0  0  0
  187.4610  177.4740  143.9720 N   0  0  0  0  0  0  0  0  0  0  0  0
  188.1260  177.5700  142.6650 C   0  0  2  0  0  3  0  0  0  0  0  0
  192.7060  176.2720  146.4340 C   0  0  0  0  0  3  0  0  0  0  0  0
  188.6930  175.5710  144.6640 N   0  0  0  0  0  2  0  0  0  0  0  0
  186.4910  177.1130  140.9800 O   0  0  0  0  0  0  0  0  0  0  0  0
  187.4620  176.6820  141.6570 C   0  0  0  0  0  0  0  0  0  0  0  0
  188.3340  174.9600  140.3080 N   0  0  0  0  0  0  0  0  0  0  0  0
  187.9190  175.3460  141.4450 N   0  0  0  0  0  0  0  0  0  0  0  0
  190.2130  173.3560  139.3920 O   0  0  0  0  0  0  0  0  0  0  0  0
  187.8940  172.5840  139.2390 O   0  0  0  0  0  0  0  0  0  0  0  0
  188.8800  173.3370  140.0870 S   0  0  0  0  0  0  0  0  0  0  0  0
  189.0570  172.5420  141.6650 C   0  0  0  0  0  1  0  0  0  0  0  0
  187.5390  177.7810  147.0200 C   0  0  0  0  0  1  0  0  0  0  0  0
  186.9930  176.6250  146.1980 C   0  0  1  0  0  3  0  0  0  0  0  0
  185.4880  176.7550  146.0180 C   0  0  0  0  0  2  0  0  0  0  0  0
  185.0030  177.9340  146.7140 N   0  0  0  0  0  1  0  0  0  0  0  0
  1  2  2  0  0  0  0
  2  4  1  0  0  0  0
  3  1  1  6  0  0  0
  5 23  1  0  0  0  0
  6 12  1  0  0  0  0
  7  3  1  0  0  0  0
  7  6  2  0  0  0  0
  8  9  1  0  0  0  0
  9  7  1  0  0  0  0
 10  5  2  0  0  0  0
 11 15  1  6  0  0  0
 11  8  1  0  0  0  0
 11 10  1  0  0  0  0
 12  4  2  0  0  0  0
 13  5  1  0  0  0  0
 13  3  1  0  0  0  0
 14 15  2  0  0  0  0
 16 17  2  0  0  0  0
 17 15  1  0  0  0  0
 18 20  2  0  0  0  0
 19 20  2  0  0  0  0
 20 16  1  0  0  0  0
 20 21  1  0  0  0  0
 23 22  1  6  0  0  0
 24 23  1  0  0  0  0
 24 25  1  0  0  0  0
M  END
>  <MODEL>
4

>  <REMARK>
 VINA RESULT:      -6.4      1.450      1.676
  Name = 
  5 active torsions:
  status: ('A' for Active; 'I' for Inactive)
    1  A    between atoms: C_1  and  C_22
    2  A    between atoms: N_3  and  S_17
    3  A    between atoms: C_9  and  C_22
    4  A    between atoms: C_11  and  N_18
    5  A    between atoms: C_11  and  C_23
                            x       y       z     vdW  Elec       q    Type
                         _______ _______ _______ _____ _____    ______ ____

>  <TORSDO>
F 5

$$$$
=
 OpenBabel11042418113D

 25 26  0  0  1  0  0  0  0  0999 V2000
  185.6700  176.7990  145.4040 C   0  0  0  0  0  3  0  0  0  0  0  0
  184.6820  177.4710  145.9920 C   0  0  0  0  0  3  0  0  0  0  0  0
  187.1010  177.2210  145.4470 C   0  0  1  0  0  3  0  0  0  0  0  0
  184.8560  178.6630  146.8400 C   0  0  0  0  0  3  0  0  0  0  0  0
  189.2220  176.6070  144.2310 C   0  0  0  0  0  0  0  0  0  0  0  0
  187.1280  178.1110  147.7640 C   0  0  0  0  0  3  0  0  0  0  0  0
  187.6360  177.2570  146.8710 C   0  0  0  0  0  0  0  0  0  0  0  0
  188.9660  175.1280  146.8510 C   0  0  0  0  0  2  0  0  0  0  0  0
  188.9200  176.5880  147.2790 C   0  0  0  0  0  2  0  0  0  0  0  0
  190.1960  175.9600  144.8070 N   0  0  0  0  0  0  0  0  0  0  0  0
  190.0440  174.8740  145.7850 C   0  0  2  0  0  3  0  0  0  0  0  0
  185.9160  178.9380  147.6050 C   0  0  0  0  0  3  0  0  0  0  0  0
  187.8660  176.3320  144.5830 N   0  0  0  0  0  2  0  0  0  0  0  0
  189.3750  172.5780  145.7490 O   0  0  0  0  0  0  0  0  0  0  0  0
  189.8250  173.5590  145.0990 C   0  0  0  0  0  0  0  0  0  0  0  0
  189.3340  172.7610  142.9400 N   0  0  0  0  0  0  0  0  0  0  0  0
  190.1150  173.4010  143.7100 N   0  0  0  0  0  0  0  0  0  0  0  0
  188.4720  172.8140  140.4500 O   0  0  0  0  0  0  0  0  0  0  0  0
  190.2290  171.2010  141.0040 O   0  0  0  0  0  0  0  0  0  0  0  0
  189.7150  172.5890  141.2640 S   0  0  0  0  0  0  0  0  0  0  0  0
  190.9410  173.7880  140.8000 C   0  0  0  0  0  1  0  0  0  0  0  0
  191.0190  177.9220  143.1510 C   0  0  0  0  0  1  0  0  0  0  0  0
  189.5180  177.7490  143.3120 C   0  0  1  0  0  3  0  0  0  0  0  0
  188.8510  177.5420  141.9590 C   0  0  0  0  0  2  0  0  0  0  0  0
  187.6100  178.2930  141.8960 N   0  0  0  0  0  1  0  0  0  0  0  0
  1  2  2  0  0  0  0
  2  4  1  0  0  0  0
  3  1  1  1  0  0  0
  3  7  1  0  0  0  0
  4 12  2  0  0  0  0
  5 13  1  0  0  0  0
  5 10  2  0  0  0  0
  7  9  1  0  0  0  0
  7  6  2  0  0  0  0
  8  9  1  0  0  0  0
 10 11  1  0  0  0  0
 11 15  1  6  0  0  0
 11  8  1  0  0  0  0
 12  6  1  0  0  0  0
 13  3  1  0  0  0  0
 15 14  2  0  0  0  0
 16 17  2  0  0  0  0
 17 15  1  0  0  0  0
 18 20  2  0  0  0  0
 19 20  2  0  0  0  0
 20 16  1  0  0  0  0
 21 20  1  0  0  0  0
 23 22  1  6  0  0  0
 23  5  1  0  0  0  0
 24 23  1  0  0  0  0
 25 24  1  0  0  0  0
M  END
>  <MODEL>
5

>  <REMARK>
 VINA RESULT:      -6.3      2.113      4.408
  Name = 
  5 active torsions:
  status: ('A' for Active; 'I' for Inactive)
    1  A    between atoms: C_1  and  C_22
    2  A    between atoms: N_3  and  S_17
    3  A    between atoms: C_9  and  C_22
    4  A    between atoms: C_11  and  N_18
    5  A    between atoms: C_11  and  C_23
                            x       y       z     vdW  Elec       q    Type
                         _______ _______ _______ _____ _____    ______ ____

>  <TORSDO>
F 5

$$$$
=
 OpenBabel11042418113D

 25 26  0  0  1  0  0  0  0  0999 V2000
  188.1540  176.2200  146.6070 C   0  0  0  0  0  3  0  0  0  0  0  0
  186.9390  176.6890  146.8810 C   0  0  0  0  0  3  0  0  0  0  0  0
  188.6560  175.9770  145.2220 C   0  0  1  0  0  3  0  0  0  0  0  0
  185.9510  177.1220  145.8790 C   0  0  0  0  0  3  0  0  0  0  0  0
  190.6030  174.7700  144.1720 C   0  0  0  0  0  0  0  0  0  0  0  0
  187.5600  177.9090  144.1150 C   0  0  0  0  0  3  0  0  0  0  0  0
  188.6910  177.2580  144.4020 C   0  0  0  0  0  0  0  0  0  0  0  0
  191.1570  177.7210  144.4890 C   0  0  0  0  0  2  0  0  0  0  0  0
  189.9020  177.7000  143.6260 C   0  0  0  0  0  2  0  0  0  0  0  0
  191.5850  175.3980  143.5900 N   0  0  0  0  0  0  0  0  0  0  0  0
  192.1800  176.6650  144.0410 C   0  0  2  0  0  3  0  0  0  0  0  0
  186.2220  177.6490  144.6810 C   0  0  0  0  0  3  0  0  0  0  0  0
  189.9610  175.3350  145.3140 N   0  0  0  0  0  2  0  0  0  0  0  0
  192.8690  176.4030  146.3170 O   0  0  0  0  0  0  0  0  0  0  0  0
  193.2100  176.4270  145.1040 C   0  0  0  0  0  0  0  0  0  0  0  0
  194.9440  176.0620  143.5550 N   0  0  0  0  0  0  0  0  0  0  0  0
  194.5810  176.2220  144.7620 N   0  0  0  0  0  0  0  0  0  0  0  0
  197.2340  174.9490  144.2330 O   0  0  0  0  0  0  0  0  0  0  0  0
  197.3210  177.1380  143.1400 O   0  0  0  0  0  0  0  0  0  0  0  0
  196.6100  175.8150  143.1750 S   0  0  0  0  0  0  0  0  0  0  0  0
  196.7550  175.0050  141.6000 C   0  0  0  0  0  1  0  0  0  0  0  0
  189.6990  172.5150  144.6420 C   0  0  0  0  0  1  0  0  0  0  0  0
  190.0400  173.5260  143.5610 C   0  0  1  0  0  3  0  0  0  0  0  0
  188.8150  173.8470  142.7160 C   0  0  0  0  0  2  0  0  0  0  0  0
  189.2240  174.3630  141.4220 N   0  0  0  0  0  1  0  0  0  0  0  0
  1  2  2  0  0  0  0
  3 13  1  0  0  0  0
  3  1  1  1  0  0  0
  4  2  1  0  0  0  0
  5 13  1  0  0  0  0
  6  7  2  0  0  0  0
  6 12  1  0  0  0  0
  7  3  1  0  0  0  0
  9  7  1  0  0  0  0
  9  8  1  0  0  0  0
 10 11  1  0  0  0  0
 10  5  2  0  0  0  0
 11  8  1  0  0  0  0
 11 15  1  1  0  0  0
 12  4  2  0  0  0  0
 15 14  2  0  0  0  0
 16 17  2  0  0  0  0
 17 15  1  0  0  0  0
 19 20  2  0  0  0  0
 20 16  1  0  0  0  0
 20 18  2  0  0  0  0
 21 20  1  0  0  0  0
 23  5  1  0  0  0  0
 23 22  1  1  0  0  0
 24 23  1  0  0  0  0
 25 24  1  0  0  0  0
M  END
>  <MODEL>
6

>  <REMARK>
 VINA RESULT:      -6.3      4.844      6.266
  Name = 
  5 active torsions:
  status: ('A' for Active; 'I' for Inactive)
    1  A    between atoms: C_1  and  C_22
    2  A    between atoms: N_3  and  S_17
    3  A    between atoms: C_9  and  C_22
    4  A    between atoms: C_11  and  N_18
    5  A    between atoms: C_11  and  C_23
                            x       y       z     vdW  Elec       q    Type
                         _______ _______ _______ _____ _____    ______ ____

>  <TORSDO>
F 5

$$$$
=
 OpenBabel11042418113D

 25 26  0  0  1  0  0  0  0  0999 V2000
  193.8770  175.9220  143.3300 C   0  0  0  0  0  3  0  0  0  0  0  0
  195.1560  175.9330  143.7010 C   0  0  0  0  0  3  0  0  0  0  0  0
  192.7940  175.2500  144.1060 C   0  0  1  0  0  3  0  0  0  0  0  0
  195.6780  175.3770  144.9610 C   0  0  0  0  0  3  0  0  0  0  0  0
  190.4000  174.5780  143.6930 C   0  0  0  0  0  0  0  0  0  0  0  0
  193.6400  175.7550  146.3840 C   0  0  0  0  0  3  0  0  0  0  0  0
  192.6450  175.8470  145.4980 C   0  0  0  0  0  0  0  0  0  0  0  0
  190.5870  177.2330  145.1190 C   0  0  0  0  0  2  0  0  0  0  0  0
  191.3210  176.2880  146.0600 C   0  0  0  0  0  2  0  0  0  0  0  0
  189.3970  175.1680  144.2790 N   0  0  0  0  0  0  0  0  0  0  0  0
  189.2960  176.6060  144.5670 C   0  0  2  0  0  3  0  0  0  0  0  0
  195.0190  175.2990  146.1210 C   0  0  0  0  0  3  0  0  0  0  0  0
  191.5630  175.3220  143.3300 N   0  0  0  0  0  2  0  0  0  0  0  0
  189.5710  177.5800  142.4000 O   0  0  0  0  0  0  0  0  0  0  0  0
  188.7990  177.3610  143.3700 C   0  0  0  0  0  0  0  0  0  0  0  0
  186.8030  178.1130  144.3660 N   0  0  0  0  0  0  0  0  0  0  0  0
  187.4530  177.8330  143.3110 N   0  0  0  0  0  0  0  0  0  0  0  0
  185.1780  180.1840  144.2540 O   0  0  0  0  0  0  0  0  0  0  0  0
  184.3930  178.1940  145.4450 O   0  0  0  0  0  0  0  0  0  0  0  0
  185.1760  178.6820  144.2590 S   0  0  0  0  0  0  0  0  0  0  0  0
  184.4320  178.0950  142.7560 C   0  0  0  0  0  1  0  0  0  0  0  0
  189.6890  172.4310  144.6990 C   0  0  0  0  0  1  0  0  0  0  0  0
  190.4090  173.0910  143.5340 C   0  0  1  0  0  3  0  0  0  0  0  0
  189.7770  172.6850  142.2100 C   0  0  0  0  0  2  0  0  0  0  0  0
  188.3680  172.3860  142.4030 N   0  0  0  0  0  1  0  0  0  0  0  0
  1  2  2  0  0  0  0
  2  4  1  0  0  0  0
  3  1  1  6  0  0  0
  3  7  1  0  0  0  0
  4 12  2  0  0  0  0
  5 10  2  0  0  0  0
  7  9  1  0  0  0  0
  7  6  2  0  0  0  0
  8  9  1  0  0  0  0
 10 11  1  0  0  0  0
 11 15  1  6  0  0  0
 11  8  1  0  0  0  0
 12  6  1  0  0  0  0
 13  5  1  0  0  0  0
 13  3  1  0  0  0  0
 14 15  2  0  0  0  0
 17 15  1  0  0  0  0
 17 16  2  0  0  0  0
 18 20  2  0  0  0  0
 20 16  1  0  0  0  0
 20 19  2  0  0  0  0
 21 20  1  0  0  0  0
 23  5  1  0  0  0  0
 23 22  1  1  0  0  0
 24 25  1  0  0  0  0
 24 23  1  0  0  0  0
M  END
>  <MODEL>
7

>  <REMARK>
 VINA RESULT:      -6.2      3.544      5.738
  Name = 
  5 active torsions:
  status: ('A' for Active; 'I' for Inactive)
    1  A    between atoms: C_1  and  C_22
    2  A    between atoms: N_3  and  S_17
    3  A    between atoms: C_9  and  C_22
    4  A    between atoms: C_11  and  N_18
    5  A    between atoms: C_11  and  C_23
                            x       y       z     vdW  Elec       q    Type
                         _______ _______ _______ _____ _____    ______ ____

>  <TORSDO>
F 5

$$$$
=
 OpenBabel11042418113D

 25 26  0  0  1  0  0  0  0  0999 V2000
  188.6010  176.9850  144.0970 C   0  0  0  0  0  3  0  0  0  0  0  0
  187.5430  177.6610  144.5410 C   0  0  0  0  0  3  0  0  0  0  0  0
  189.6580  176.4200  144.9870 C   0  0  1  0  0  3  0  0  0  0  0  0
  187.2070  177.8730  145.9590 C   0  0  0  0  0  3  0  0  0  0  0  0
  191.9730  175.4690  144.6940 C   0  0  0  0  0  0  0  0  0  0  0  0
  188.1940  175.7500  146.8760 C   0  0  0  0  0  3  0  0  0  0  0  0
  189.0900  175.3900  145.9530 C   0  0  0  0  0  0  0  0  0  0  0  0
  189.8790  173.2960  144.8140 C   0  0  0  0  0  2  0  0  0  0  0  0
  189.6920  174.0240  146.1390 C   0  0  0  0  0  2  0  0  0  0  0  0
  192.2370  174.2040  144.8650 N   0  0  0  0  0  0  0  0  0  0  0  0
  191.3640  173.0860  144.4790 C   0  0  2  0  0  3  0  0  0  0  0  0
  187.4920  177.0450  146.9690 C   0  0  0  0  0  3  0  0  0  0  0  0
  190.7190  175.8770  144.1490 N   0  0  0  0  0  2  0  0  0  0  0  0
  192.6750  172.3700  142.6100 O   0  0  0  0  0  0  0  0  0  0  0  0
  191.5460  172.7360  143.0320 C   0  0  0  0  0  0  0  0  0  0  0  0
  190.2730  173.8200  141.3750 N   0  0  0  0  0  0  0  0  0  0  0  0
  190.4500  172.8060  142.1200 N   0  0  0  0  0  0  0  0  0  0  0  0
  188.1910  175.1630  140.4760 O   0  0  0  0  0  0  0  0  0  0  0  0
  188.0100  172.7230  140.5630 O   0  0  0  0  0  0  0  0  0  0  0  0
  188.9360  173.8730  140.2820 S   0  0  0  0  0  0  0  0  0  0  0  0
  189.5240  173.7860  138.6080 C   0  0  0  0  0  1  0  0  0  0  0  0
  193.0340  176.4150  146.7200 C   0  0  0  0  0  1  0  0  0  0  0  0
  192.9160  176.5100  145.2080 C   0  0  1  0  0  3  0  0  0  0  0  0
  194.2830  176.3720  144.5510 C   0  0  0  0  0  2  0  0  0  0  0  0
  195.2400  175.8370  145.5030 N   0  0  0  0  0  1  0  0  0  0  0  0
  1  2  2  0  0  0  0
  2  4  1  0  0  0  0
  3  1  1  6  0  0  0
  3  7  1  0  0  0  0
  4 12  2  0  0  0  0
  5 10  2  0  0  0  0
  5 23  1  0  0  0  0
  6 12  1  0  0  0  0
  7  9  1  0  0  0  0
  7  6  2  0  0  0  0
  8  9  1  0  0  0  0
 11 15  1  6  0  0  0
 11  8  1  0  0  0  0
 11 10  1  0  0  0  0
 13  5  1  0  0  0  0
 13  3  1  0  0  0  0
 14 15  2  0  0  0  0
 16 17  2  0  0  0  0
 17 15  1  0  0  0  0
 20 18  2  0  0  0  0
 20 19  2  0  0  0  0
 20 16  1  0  0  0  0
 21 20  1  0  0  0  0
 23 22  1  1  0  0  0
 24 23  1  0  0  0  0
 24 25  1  0  0  0  0
M  END
>  <MODEL>
8

>  <REMARK>
 VINA RESULT:      -6.1      2.942      5.360
  Name = 
  5 active torsions:
  status: ('A' for Active; 'I' for Inactive)
    1  A    between atoms: C_1  and  C_22
    2  A    between atoms: N_3  and  S_17
    3  A    between atoms: C_9  and  C_22
    4  A    between atoms: C_11  and  N_18
    5  A    between atoms: C_11  and  C_23
                            x       y       z     vdW  Elec       q    Type
                         _______ _______ _______ _____ _____    ______ ____

>  <TORSDO>
F 5

$$$$
=
 OpenBabel11042418113D

 25 26  0  0  1  0  0  0  0  0999 V2000
  194.3400  175.9520  143.2870 C   0  0  0  0  0  3  0  0  0  0  0  0
  195.6660  175.8280  143.2990 C   0  0  0  0  0  3  0  0  0  0  0  0
  193.4200  175.1110  144.1100 C   0  0  1  0  0  3  0  0  0  0  0  0
  196.4240  174.9230  144.1800 C   0  0  0  0  0  3  0  0  0  0  0  0
  190.9460  174.6400  144.1740 C   0  0  0  0  0  0  0  0  0  0  0  0
  194.8440  174.9260  146.1350 C   0  0  0  0  0  3  0  0  0  0  0  0
  193.6750  175.2890  145.6000 C   0  0  0  0  0  0  0  0  0  0  0  0
  191.7300  176.7730  146.1620 C   0  0  0  0  0  2  0  0  0  0  0  0
  192.5790  175.5830  146.5870 C   0  0  0  0  0  2  0  0  0  0  0  0
  190.1780  175.0620  145.1390 N   0  0  0  0  0  0  0  0  0  0  0  0
  190.2900  176.3590  145.8190 C   0  0  2  0  0  3  0  0  0  0  0  0
  196.0660  174.5320  145.4060 C   0  0  0  0  0  3  0  0  0  0  0  0
  192.0500  175.4300  143.7330 N   0  0  0  0  0  2  0  0  0  0  0  0
  190.2180  178.0950  144.1750 O   0  0  0  0  0  0  0  0  0  0  0  0
  189.5900  177.4360  145.0450 C   0  0  0  0  0  0  0  0  0  0  0  0
  187.6370  177.3920  146.3590 N   0  0  0  0  0  0  0  0  0  0  0  0
  188.2100  177.7230  145.2750 N   0  0  0  0  0  0  0  0  0  0  0  0
  185.7670  178.2200  148.0200 O   0  0  0  0  0  0  0  0  0  0  0  0
  185.1440  176.5180  146.3730 O   0  0  0  0  0  0  0  0  0  0  0  0
  185.9670  177.7540  146.6050 S   0  0  0  0  0  0  0  0  0  0  0  0
  185.4600  179.0410  145.4910 C   0  0  0  0  0  1  0  0  0  0  0  0
  190.0730  172.3720  144.6380 C   0  0  0  0  0  1  0  0  0  0  0  0
  190.7720  173.2610  143.6230 C   0  0  1  0  0  3  0  0  0  0  0  0
  189.9980  173.2950  142.3130 C   0  0  0  0  0  2  0  0  0  0  0  0
  188.7810  172.5110  142.4330 N   0  0  0  0  0  1  0  0  0  0  0  0
  1  2  2  0  0  0  0
  2  4  1  0  0  0  0
  3  1  1  6  0  0  0
  3  7  1  0  0  0  0
  4 12  2  0  0  0  0
  5 10  2  0  0  0  0
  7  6  2  0  0  0  0
  7  9  1  0  0  0  0
  8  9  1  0  0  0  0
 10 11  1  0  0  0  0
 11 15  1  6  0  0  0
 11  8  1  0  0  0  0
 12  6  1  0  0  0  0
 13  3  1  0  0  0  0
 13  5  1  0  0  0  0
 14 15  2  0  0  0  0
 15 17  1  0  0  0  0
 16 20  1  0  0  0  0
 17 16  2  0  0  0  0
 19 20  2  0  0  0  0
 20 18  2  0  0  0  0
 21 20  1  0  0  0  0
 23  5  1  0  0  0  0
 23 22  1  1  0  0  0
 24 25  1  0  0  0  0
 24 23  1  0  0  0  0
M  END
>  <MODEL>
9

>  <REMARK>
 VINA RESULT:      -6.0      4.226      6.420
  Name = 
  5 active torsions:
  status: ('A' for Active; 'I' for Inactive)
    1  A    between atoms: C_1  and  C_22
    2  A    between atoms: N_3  and  S_17
    3  A    between atoms: C_9  and  C_22
    4  A    between atoms: C_11  and  N_18
    5  A    between atoms: C_11  and  C_23
                            x       y       z     vdW  Elec       q    Type
                         _______ _______ _______ _____ _____    ______ ____

>  <TORSDO>
F 5

$$$$
