=
 OpenBabel11042419303D

 32 33  0  0  1  0  0  0  0  0999 V2000
  186.5230  177.3240  142.3770 C   0  0  0  0  0  0  0  0  0  0  0  0
  182.9890  178.1340  141.7150 O   0  0  0  0  0  0  0  0  0  0  0  0
  185.8230  179.9260  144.3250 C   0  0  0  0  0  1  0  0  0  0  0  0
  188.6890  176.4470  143.9620 C   0  0  0  0  0  0  0  0  0  0  0  0
  186.5520  177.6180  143.7640 C   0  0  0  0  0  0  0  0  0  0  0  0
  186.4520  177.4940  139.3090 C   0  0  0  0  0  1  0  0  0  0  0  0
  184.1730  178.2450  143.7120 N   0  0  0  0  0  2  0  0  0  0  0  0
  185.3030  177.7670  140.2190 C   0  0  0  0  0  3  0  0  0  0  0  0
  185.4520  178.4550  144.3830 C   0  0  2  0  0  3  0  0  0  0  0  0
  187.6420  177.1920  144.5590 C   0  0  0  0  0  0  0  0  0  0  0  0
  188.6470  176.1650  142.5960 C   0  0  0  0  0  3  0  0  0  0  0  0
  187.5770  176.5920  141.8180 C   0  0  0  0  0  3  0  0  0  0  0  0
  185.3320  177.7130  141.5610 C   0  0  0  0  0  0  0  0  0  0  0  0
  184.1020  178.0470  142.3010 C   0  0  0  0  0  0  0  0  0  0  0  0
  189.8440  175.9480  144.7310 C   0  0  0  0  0  0  0  0  0  0  0  0
  190.9220  176.7290  144.8210 C   0  0  0  0  0  3  0  0  0  0  0  0
  192.1520  176.3250  145.5720 C   0  0  0  0  0  2  0  0  0  0  0  0
  192.9710  176.4430  143.3340 O   0  0  0  0  0  1  0  0  0  0  0  0
  193.2850  175.9880  144.6170 C   0  0  1  0  0  3  0  0  0  0  0  0
  194.5610  176.6510  145.1010 C   0  0  0  0  0  2  0  0  0  0  0  0
  196.4750  176.7720  143.4610 N   0  0  0  0  0  1  0  0  0  0  0  0
  195.7510  176.0410  144.4420 C   0  0  0  0  0  0  0  0  0  0  0  0
  196.1290  174.8860  144.7710 O   0  0  0  0  0  0  0  0  0  0  0  0
  189.8430  174.6960  145.3700 O   0  0  0  0  0  0  0  0  0  0  0  0
  190.7900  173.3550  143.7230 O   0  0  0  0  0  0  0  0  0  0  0  0
  190.0830  173.4550  144.7620 C   0  0  0  0  0  0  0  0  0  0  0  0
  189.5440  172.3090  145.3280 O   0  0  0  0  0  1  0  0  0  0  0  0
  188.9070  177.9830  146.4300 F   0  0  0  0  0  0  0  0  0  0  0  0
  187.6580  177.5450  146.0260 C   0  0  2  0  0  3  0  0  0  0  0  0
  187.1840  176.3840  146.8830 C   0  0  0  0  0  2  0  0  0  0  0  0
  185.9400  176.6830  147.4390 O   0  0  0  0  0  0  0  0  0  0  0  0
  186.0780  177.9850  147.9200 C   0  0  0  0  0  1  0  0  0  0  0  0
  1  5  1  0  0  0  0
  2 14  2  0  0  0  0
  4 10  1  0  0  0  0
  4 15  1  0  0  0  0
  5  9  1  0  0  0  0
  5 10  2  0  0  0  0
  6  8  1  0  0  0  0
  7  9  1  0  0  0  0
  8 13  2  0  0  0  0
  9  3  1  6  0  0  0
 10 29  1  0  0  0  0
 11  4  2  0  0  0  0
 12  1  2  0  0  0  0
 12 11  1  0  0  0  0
 13 14  1  0  0  0  0
 13  1  1  0  0  0  0
 14  7  1  0  0  0  0
 15 16  2  0  0  0  0
 15 24  1  0  0  0  0
 16 17  1  0  0  0  0
 19 18  1  6  0  0  0
 19 20  1  0  0  0  0
 19 17  1  0  0  0  0
 21 22  1  0  0  0  0
 22 23  2  0  0  0  0
 22 20  1  0  0  0  0
 25 26  2  0  0  0  0
 26 27  1  0  0  0  0
 26 24  1  0  0  0  0
 29 28  1  1  0  0  0
 29 30  1  0  0  0  0
 30 31  1  0  0  0  0
 31 32  1  0  0  0  0
M  END
>  <MODEL>
1

>  <REMARK>
 VINA RESULT:      -6.8      0.000      0.000
  Name = 
  10 active torsions:
  status: ('A' for Active; 'I' for Inactive)
    1  A    between atoms: C_1  and  C_11
    2  A    between atoms: C_1  and  O_30
    3  A    between atoms: C_3  and  C_5
    4  A    between atoms: C_3  and  C_8
    5  A    between atoms: O_4  and  C_24
    6  A    between atoms: C_5  and  C_25
    7  A    between atoms: C_12  and  C_25
    8  A    between atoms: C_20  and  C_29
    9  A    between atoms: C_24  and  C_29
   10  A    between atoms: C_26  and  O_30
                            x       y       z     vdW  Elec       q    Type
                         _______ _______ _______ _____ _____    ______ ____

>  <TORSDO>
F 10

$$$$
=
 OpenBabel11042419303D

 32 33  0  0  1  0  0  0  0  0999 V2000
  187.0800  176.8310  144.5200 C   0  0  0  0  0  0  0  0  0  0  0  0
  184.0310  177.6360  146.4280 O   0  0  0  0  0  0  0  0  0  0  0  0
  188.1400  177.9530  147.4650 C   0  0  0  0  0  1  0  0  0  0  0  0
  189.4460  175.3900  143.9760 C   0  0  0  0  0  0  0  0  0  0  0  0
  187.8770  176.3470  145.5880 C   0  0  0  0  0  0  0  0  0  0  0  0
  185.5180  178.5950  142.5470 C   0  0  0  0  0  1  0  0  0  0  0  0
  186.0440  176.7490  147.1800 N   0  0  0  0  0  2  0  0  0  0  0  0
  185.0960  178.2690  143.9400 C   0  0  0  0  0  3  0  0  0  0  0  0
  187.4920  176.6540  147.0200 C   0  0  2  0  0  3  0  0  0  0  0  0
  189.0710  175.6360  145.3200 C   0  0  0  0  0  0  0  0  0  0  0  0
  188.6520  175.8720  142.9350 C   0  0  0  0  0  3  0  0  0  0  0  0
  187.4840  176.5760  143.2040 C   0  0  0  0  0  3  0  0  0  0  0  0
  185.7830  177.5140  144.8140 C   0  0  0  0  0  0  0  0  0  0  0  0
  185.2240  177.3250  146.1640 C   0  0  0  0  0  0  0  0  0  0  0  0
  190.6630  174.6360  143.6190 C   0  0  0  0  0  0  0  0  0  0  0  0
  191.7750  175.3250  143.3620 C   0  0  0  0  0  3  0  0  0  0  0  0
  193.0650  174.6670  142.9870 C   0  0  0  0  0  2  0  0  0  0  0  0
  194.9160  176.0860  142.4790 O   0  0  0  0  0  1  0  0  0  0  0  0
  194.2510  175.4470  143.5290 C   0  0  1  0  0  3  0  0  0  0  0  0
  193.7570  176.4770  144.5290 C   0  0  0  0  0  2  0  0  0  0  0  0
  195.2420  175.1730  146.0990 N   0  0  0  0  0  1  0  0  0  0  0  0
  194.4910  176.3480  145.8200 C   0  0  0  0  0  0  0  0  0  0  0  0
  194.4650  177.2890  146.6550 O   0  0  0  0  0  0  0  0  0  0  0  0
  190.6880  173.2320  143.5500 O   0  0  0  0  0  0  0  0  0  0  0  0
  188.8330  171.9580  142.9670 O   0  0  0  0  0  0  0  0  0  0  0  0
  189.6270  172.3680  143.8550 C   0  0  0  0  0  0  0  0  0  0  0  0
  189.4590  171.9400  145.1640 O   0  0  0  0  0  1  0  0  0  0  0  0
  189.1280  174.7310  147.5340 F   0  0  0  0  0  0  0  0  0  0  0  0
  189.9130  175.1580  146.4770 C   0  0  2  0  0  3  0  0  0  0  0  0
  190.9000  176.2230  146.9260 C   0  0  0  0  0  2  0  0  0  0  0  0
  191.1930  176.0570  148.2780 O   0  0  0  0  0  0  0  0  0  0  0  0
  191.5780  177.3260  148.7090 C   0  0  0  0  0  1  0  0  0  0  0  0
  1 13  1  0  0  0  0
  1  5  1  0  0  0  0
  4 10  1  0  0  0  0
  5  9  1  0  0  0  0
  6  8  1  0  0  0  0
  8 13  2  0  0  0  0
  9  7  1  0  0  0  0
  9  3  1  6  0  0  0
 10  5  2  0  0  0  0
 10 29  1  0  0  0  0
 11 12  1  0  0  0  0
 11  4  2  0  0  0  0
 12  1  2  0  0  0  0
 13 14  1  0  0  0  0
 14  2  2  0  0  0  0
 14  7  1  0  0  0  0
 15  4  1  0  0  0  0
 16 15  2  0  0  0  0
 17 16  1  0  0  0  0
 17 19  1  0  0  0  0
 19 18  1  6  0  0  0
 19 20  1  0  0  0  0
 20 22  1  0  0  0  0
 22 21  1  0  0  0  0
 22 23  2  0  0  0  0
 24 15  1  0  0  0  0
 24 26  1  0  0  0  0
 25 26  2  0  0  0  0
 26 27  1  0  0  0  0
 29 30  1  0  0  0  0
 29 28  1  1  0  0  0
 30 31  1  0  0  0  0
 31 32  1  0  0  0  0
M  END
>  <MODEL>
2

>  <REMARK>
 VINA RESULT:      -6.7      2.130      3.136
  Name = 
  10 active torsions:
  status: ('A' for Active; 'I' for Inactive)
    1  A    between atoms: C_1  and  C_11
    2  A    between atoms: C_1  and  O_30
    3  A    between atoms: C_3  and  C_5
    4  A    between atoms: C_3  and  C_8
    5  A    between atoms: O_4  and  C_24
    6  A    between atoms: C_5  and  C_25
    7  A    between atoms: C_12  and  C_25
    8  A    between atoms: C_20  and  C_29
    9  A    between atoms: C_24  and  C_29
   10  A    between atoms: C_26  and  O_30
                            x       y       z     vdW  Elec       q    Type
                         _______ _______ _______ _____ _____    ______ ____

>  <TORSDO>
F 10

$$$$
=
 OpenBabel11042419303D

 32 33  0  0  1  0  0  0  0  0999 V2000
  187.1680  177.8620  145.4570 C   0  0  0  0  0  0  0  0  0  0  0  0
  184.7110  180.2250  144.0560 O   0  0  0  0  0  0  0  0  0  0  0  0
  186.2130  176.5430  142.5590 C   0  0  0  0  0  1  0  0  0  0  0  0
  189.6260  176.4740  145.5240 C   0  0  0  0  0  0  0  0  0  0  0  0
  187.7880  177.4590  144.2470 C   0  0  0  0  0  0  0  0  0  0  0  0
  185.2280  178.2630  147.8070 C   0  0  0  0  0  1  0  0  0  0  0  0
  186.3080  178.9420  142.9570 N   0  0  0  0  0  2  0  0  0  0  0  0
  185.0800  178.8610  146.4490 C   0  0  0  0  0  3  0  0  0  0  0  0
  187.1020  177.7180  142.9220 C   0  0  2  0  0  3  0  0  0  0  0  0
  189.0130  176.7510  144.2770 C   0  0  0  0  0  0  0  0  0  0  0  0
  189.0040  176.8770  146.7060 C   0  0  0  0  0  3  0  0  0  0  0  0
  187.7970  177.5670  146.6720 C   0  0  0  0  0  3  0  0  0  0  0  0
  185.9140  178.6750  145.4120 C   0  0  0  0  0  0  0  0  0  0  0  0
  185.5890  179.3240  144.1300 C   0  0  0  0  0  0  0  0  0  0  0  0
  190.9130  175.7630  145.6330 C   0  0  0  0  0  0  0  0  0  0  0  0
  192.0350  176.4730  145.5080 C   0  0  0  0  0  3  0  0  0  0  0  0
  193.3960  175.8570  145.5980 C   0  0  0  0  0  2  0  0  0  0  0  0
  194.8790  177.7170  145.7830 O   0  0  0  0  0  1  0  0  0  0  0  0
  194.4320  176.7270  144.9050 C   0  0  1  0  0  3  0  0  0  0  0  0
  195.5990  175.8610  144.4660 C   0  0  0  0  0  2  0  0  0  0  0  0
  195.6220  176.1240  141.9570 N   0  0  0  0  0  1  0  0  0  0  0  0
  196.2120  176.4000  143.2200 C   0  0  0  0  0  0  0  0  0  0  0  0
  197.2420  177.1210  143.2870 O   0  0  0  0  0  0  0  0  0  0  0  0
  190.9940  174.3790  145.8680 O   0  0  0  0  0  0  0  0  0  0  0  0
  191.6450  173.1920  143.9780 O   0  0  0  0  0  0  0  0  0  0  0  0
  190.8210  173.3650  144.9150 C   0  0  0  0  0  0  0  0  0  0  0  0
  189.7250  172.5200  145.0190 O   0  0  0  0  0  1  0  0  0  0  0  0
  189.5490  177.2990  142.0100 F   0  0  0  0  0  0  0  0  0  0  0  0
  189.6330  176.3090  142.9740 C   0  0  2  0  0  3  0  0  0  0  0  0
  189.0230  175.0100  142.4780 C   0  0  0  0  0  2  0  0  0  0  0  0
  189.6990  174.5730  141.3400 O   0  0  0  0  0  0  0  0  0  0  0  0
  188.6970  174.3910  140.3880 C   0  0  0  0  0  1  0  0  0  0  0  0
  1 12  1  0  0  0  0
  2 14  2  0  0  0  0
  4 15  1  0  0  0  0
  4 11  1  0  0  0  0
  5 10  1  0  0  0  0
  5  1  2  0  0  0  0
  7 14  1  0  0  0  0
  8  6  1  0  0  0  0
  9  3  1  1  0  0  0
  9  7  1  0  0  0  0
  9  5  1  0  0  0  0
 10  4  2  0  0  0  0
 12 11  2  0  0  0  0
 13  1  1  0  0  0  0
 13  8  2  0  0  0  0
 14 13  1  0  0  0  0
 15 24  1  0  0  0  0
 16 17  1  0  0  0  0
 16 15  2  0  0  0  0
 19 17  1  0  0  0  0
 19 18  1  1  0  0  0
 20 19  1  0  0  0  0
 21 22  1  0  0  0  0
 22 23  2  0  0  0  0
 22 20  1  0  0  0  0
 25 26  2  0  0  0  0
 26 27  1  0  0  0  0
 26 24  1  0  0  0  0
 29 28  1  6  0  0  0
 29 10  1  0  0  0  0
 30 29  1  0  0  0  0
 31 30  1  0  0  0  0
 32 31  1  0  0  0  0
M  END
>  <MODEL>
3

>  <REMARK>
 VINA RESULT:      -6.7      2.045      3.814
  Name = 
  10 active torsions:
  status: ('A' for Active; 'I' for Inactive)
    1  A    between atoms: C_1  and  C_11
    2  A    between atoms: C_1  and  O_30
    3  A    between atoms: C_3  and  C_5
    4  A    between atoms: C_3  and  C_8
    5  A    between atoms: O_4  and  C_24
    6  A    between atoms: C_5  and  C_25
    7  A    between atoms: C_12  and  C_25
    8  A    between atoms: C_20  and  C_29
    9  A    between atoms: C_24  and  C_29
   10  A    between atoms: C_26  and  O_30
                            x       y       z     vdW  Elec       q    Type
                         _______ _______ _______ _____ _____    ______ ____

>  <TORSDO>
F 10

$$$$
=
 OpenBabel11042419303D

 32 33  0  0  1  0  0  0  0  0999 V2000
  186.2240  177.3880  142.3450 C   0  0  0  0  0  0  0  0  0  0  0  0
  182.6860  178.3220  141.9090 O   0  0  0  0  0  0  0  0  0  0  0  0
  185.7440  180.0150  144.3250 C   0  0  0  0  0  1  0  0  0  0  0  0
  188.4550  176.4360  143.7900 C   0  0  0  0  0  0  0  0  0  0  0  0
  186.3530  177.6820  143.7250 C   0  0  0  0  0  0  0  0  0  0  0  0
  185.9620  177.5580  139.2870 C   0  0  0  0  0  1  0  0  0  0  0  0
  183.9990  178.3930  143.8250 N   0  0  0  0  0  2  0  0  0  0  0  0
  184.8840  177.8720  140.2680 C   0  0  0  0  0  3  0  0  0  0  0  0
  185.3260  178.5580  144.4120 C   0  0  2  0  0  3  0  0  0  0  0  0
  187.4760  177.2190  144.4510 C   0  0  0  0  0  0  0  0  0  0  0  0
  188.3160  176.1550  142.4300 C   0  0  0  0  0  3  0  0  0  0  0  0
  187.2130  176.6190  141.7210 C   0  0  0  0  0  3  0  0  0  0  0  0
  184.9980  177.8180  141.6060 C   0  0  0  0  0  0  0  0  0  0  0  0
  183.8300  178.1970  142.4220 C   0  0  0  0  0  0  0  0  0  0  0  0
  189.6400  175.8980  144.4840 C   0  0  0  0  0  0  0  0  0  0  0  0
  189.6240  174.6150  144.8490 C   0  0  0  0  0  3  0  0  0  0  0  0
  190.7670  173.9630  145.5610 C   0  0  0  0  0  2  0  0  0  0  0  0
  192.8910  172.9500  145.1670 O   0  0  0  0  0  1  0  0  0  0  0  0
  191.6420  173.1880  144.5890 C   0  0  1  0  0  3  0  0  0  0  0  0
  190.9690  171.8700  144.2520 C   0  0  0  0  0  2  0  0  0  0  0  0
  190.9200  172.8780  141.9400 N   0  0  0  0  0  1  0  0  0  0  0  0
  190.7790  171.7400  142.7800 C   0  0  0  0  0  0  0  0  0  0  0  0
  190.5160  170.6160  142.2770 O   0  0  0  0  0  0  0  0  0  0  0  0
  190.7730  176.6820  144.7640 O   0  0  0  0  0  0  0  0  0  0  0  0
  191.3230  178.6830  143.7170 O   0  0  0  0  0  1  0  0  0  0  0  0
  191.5030  177.4420  143.8400 C   0  0  0  0  0  0  0  0  0  0  0  0
  192.4600  176.8140  143.0550 O   0  0  0  0  0  0  0  0  0  0  0  0
  188.8860  177.9690  146.2320 F   0  0  0  0  0  0  0  0  0  0  0  0
  187.6000  177.5720  145.9120 C   0  0  2  0  0  3  0  0  0  0  0  0
  187.1430  176.4290  146.8020 C   0  0  0  0  0  2  0  0  0  0  0  0
  185.9480  176.7680  147.4340 O   0  0  0  0  0  0  0  0  0  0  0  0
  186.1540  178.0690  147.8920 C   0  0  0  0  0  1  0  0  0  0  0  0
  1  5  1  0  0  0  0
  2 14  2  0  0  0  0
  4 10  1  0  0  0  0
  4 15  1  0  0  0  0
  5  9  1  0  0  0  0
  5 10  2  0  0  0  0
  6  8  1  0  0  0  0
  7  9  1  0  0  0  0
  8 13  2  0  0  0  0
  9  3  1  6  0  0  0
 10 29  1  0  0  0  0
 11  4  2  0  0  0  0
 12  1  2  0  0  0  0
 12 11  1  0  0  0  0
 13  1  1  0  0  0  0
 13 14  1  0  0  0  0
 14  7  1  0  0  0  0
 15 24  1  0  0  0  0
 15 16  2  0  0  0  0
 16 17  1  0  0  0  0
 19 18  1  1  0  0  0
 19 17  1  0  0  0  0
 20 19  1  0  0  0  0
 21 22  1  0  0  0  0
 22 20  1  0  0  0  0
 23 22  2  0  0  0  0
 25 26  1  0  0  0  0
 26 24  1  0  0  0  0
 27 26  2  0  0  0  0
 29 28  1  1  0  0  0
 29 30  1  0  0  0  0
 30 31  1  0  0  0  0
 31 32  1  0  0  0  0
M  END
>  <MODEL>
4

>  <REMARK>
 VINA RESULT:      -6.5      2.047      3.136
  Name = 
  10 active torsions:
  status: ('A' for Active; 'I' for Inactive)
    1  A    between atoms: C_1  and  C_11
    2  A    between atoms: C_1  and  O_30
    3  A    between atoms: C_3  and  C_5
    4  A    between atoms: C_3  and  C_8
    5  A    between atoms: O_4  and  C_24
    6  A    between atoms: C_5  and  C_25
    7  A    between atoms: C_12  and  C_25
    8  A    between atoms: C_20  and  C_29
    9  A    between atoms: C_24  and  C_29
   10  A    between atoms: C_26  and  O_30
                            x       y       z     vdW  Elec       q    Type
                         _______ _______ _______ _____ _____    ______ ____

>  <TORSDO>
F 10

$$$$
=
 OpenBabel11042419303D

 32 33  0  0  1  0  0  0  0  0999 V2000
  186.8120  177.5720  145.3070 C   0  0  0  0  0  0  0  0  0  0  0  0
  185.0340  180.6250  144.2580 O   0  0  0  0  0  0  0  0  0  0  0  0
  185.8230  177.0010  142.1850 C   0  0  0  0  0  1  0  0  0  0  0  0
  188.9030  175.6770  145.2190 C   0  0  0  0  0  0  0  0  0  0  0  0
  187.4230  177.2470  144.0700 C   0  0  0  0  0  0  0  0  0  0  0  0
  184.8280  178.0020  147.6140 C   0  0  0  0  0  1  0  0  0  0  0  0
  186.3990  179.2170  143.0100 N   0  0  0  0  0  2  0  0  0  0  0  0
  184.9170  178.8350  146.3810 C   0  0  0  0  0  3  0  0  0  0  0  0
  186.9130  177.8690  142.7870 C   0  0  2  0  0  3  0  0  0  0  0  0
  188.4610  176.2870  144.0190 C   0  0  0  0  0  0  0  0  0  0  0  0
  188.2930  176.0070  146.4300 C   0  0  0  0  0  3  0  0  0  0  0  0
  187.2680  176.9460  146.4730 C   0  0  0  0  0  3  0  0  0  0  0  0
  185.7690  178.6410  145.3600 C   0  0  0  0  0  0  0  0  0  0  0  0
  185.6900  179.5500  144.2030 C   0  0  0  0  0  0  0  0  0  0  0  0
  189.9960  174.6870  145.2490 C   0  0  0  0  0  0  0  0  0  0  0  0
  189.6950  173.4110  145.0030 C   0  0  0  0  0  3  0  0  0  0  0  0
  190.7200  172.3220  145.0090 C   0  0  0  0  0  2  0  0  0  0  0  0
  192.2480  171.0920  143.6510 O   0  0  0  0  0  1  0  0  0  0  0  0
  191.2290  172.0470  143.6040 C   0  0  1  0  0  3  0  0  0  0  0  0
  190.0840  171.5380  142.7480 C   0  0  0  0  0  2  0  0  0  0  0  0
  190.7980  172.6530  140.6000 N   0  0  0  0  0  1  0  0  0  0  0  0
  190.4920  171.4640  141.3170 C   0  0  0  0  0  0  0  0  0  0  0  0
  190.5870  170.3450  140.7470 O   0  0  0  0  0  0  0  0  0  0  0  0
  191.3300  175.0420  145.5180 O   0  0  0  0  0  0  0  0  0  0  0  0
  191.3650  175.1210  147.8410 O   0  0  0  0  0  1  0  0  0  0  0  0
  191.8300  175.5160  146.7390 C   0  0  0  0  0  0  0  0  0  0  0  0
  192.8760  176.4280  146.7320 O   0  0  0  0  0  0  0  0  0  0  0  0
  188.9440  174.5910  142.4020 F   0  0  0  0  0  0  0  0  0  0  0  0
  189.0720  175.9400  142.6840 C   0  0  2  0  0  3  0  0  0  0  0  0
  190.5240  176.3800  142.6040 C   0  0  0  0  0  2  0  0  0  0  0  0
  190.6100  177.7620  142.7640 O   0  0  0  0  0  0  0  0  0  0  0  0
  191.6440  177.9420  143.6830 C   0  0  0  0  0  1  0  0  0  0  0  0
  1 13  1  0  0  0  0
  1 12  1  0  0  0  0
  4 15  1  0  0  0  0
  4 11  1  0  0  0  0
  5  1  2  0  0  0  0
  7 14  1  0  0  0  0
  8  6  1  0  0  0  0
  9  3  1  1  0  0  0
  9  7  1  0  0  0  0
  9  5  1  0  0  0  0
 10  5  1  0  0  0  0
 10  4  2  0  0  0  0
 11 12  2  0  0  0  0
 13  8  2  0  0  0  0
 14  2  2  0  0  0  0
 14 13  1  0  0  0  0
 15 24  1  0  0  0  0
 16 17  1  0  0  0  0
 16 15  2  0  0  0  0
 19 18  1  1  0  0  0
 19 17  1  0  0  0  0
 20 19  1  0  0  0  0
 21 22  1  0  0  0  0
 22 20  1  0  0  0  0
 23 22  2  0  0  0  0
 24 26  1  0  0  0  0
 26 25  1  0  0  0  0
 27 26  2  0  0  0  0
 29 28  1  1  0  0  0
 29 10  1  0  0  0  0
 30 29  1  0  0  0  0
 30 31  1  0  0  0  0
 31 32  1  0  0  0  0
M  END
>  <MODEL>
5

>  <REMARK>
 VINA RESULT:      -6.4      2.811      4.923
  Name = 
  10 active torsions:
  status: ('A' for Active; 'I' for Inactive)
    1  A    between atoms: C_1  and  C_11
    2  A    between atoms: C_1  and  O_30
    3  A    between atoms: C_3  and  C_5
    4  A    between atoms: C_3  and  C_8
    5  A    between atoms: O_4  and  C_24
    6  A    between atoms: C_5  and  C_25
    7  A    between atoms: C_12  and  C_25
    8  A    between atoms: C_20  and  C_29
    9  A    between atoms: C_24  and  C_29
   10  A    between atoms: C_26  and  O_30
                            x       y       z     vdW  Elec       q    Type
                         _______ _______ _______ _____ _____    ______ ____

>  <TORSDO>
F 10

$$$$
=
 OpenBabel11042419303D

 32 33  0  0  1  0  0  0  0  0999 V2000
  187.0060  176.9320  144.5930 C   0  0  0  0  0  0  0  0  0  0  0  0
  184.0570  178.2470  146.3700 O   0  0  0  0  0  0  0  0  0  0  0  0
  188.1270  177.9480  147.5540 C   0  0  0  0  0  1  0  0  0  0  0  0
  189.1360  175.1280  144.1660 C   0  0  0  0  0  0  0  0  0  0  0  0
  187.6810  176.3560  145.6990 C   0  0  0  0  0  0  0  0  0  0  0  0
  185.8060  178.8680  142.5300 C   0  0  0  0  0  1  0  0  0  0  0  0
  185.8800  177.0770  147.2130 N   0  0  0  0  0  2  0  0  0  0  0  0
  185.2910  178.6450  143.9120 C   0  0  0  0  0  3  0  0  0  0  0  0
  187.3000  176.7550  147.1100 C   0  0  2  0  0  3  0  0  0  0  0  0
  188.7580  175.4630  145.4900 C   0  0  0  0  0  0  0  0  0  0  0  0
  188.4630  175.7020  143.0870 C   0  0  0  0  0  3  0  0  0  0  0  0
  187.4100  176.5850  143.2980 C   0  0  0  0  0  3  0  0  0  0  0  0
  185.8220  177.8150  144.8250 C   0  0  0  0  0  0  0  0  0  0  0  0
  185.1950  177.7480  146.1560 C   0  0  0  0  0  0  0  0  0  0  0  0
  190.2320  174.1870  143.8690 C   0  0  0  0  0  0  0  0  0  0  0  0
  191.4200  174.6910  143.5330 C   0  0  0  0  0  3  0  0  0  0  0  0
  192.6010  173.8320  143.2090 C   0  0  0  0  0  2  0  0  0  0  0  0
  193.2670  172.4110  145.0060 O   0  0  0  0  0  1  0  0  0  0  0  0
  193.4980  173.6590  144.4240 C   0  0  1  0  0  3  0  0  0  0  0  0
  194.9490  173.7670  143.9930 C   0  0  0  0  0  2  0  0  0  0  0  0
  196.3810  174.1800  146.0290 N   0  0  0  0  0  1  0  0  0  0  0  0
  195.6950  174.6910  144.8930 C   0  0  0  0  0  0  0  0  0  0  0  0
  195.7370  175.9230  144.6360 O   0  0  0  0  0  0  0  0  0  0  0  0
  190.0670  172.7920  143.9350 O   0  0  0  0  0  0  0  0  0  0  0  0
  188.3530  172.1920  142.4840 O   0  0  0  0  0  1  0  0  0  0  0  0
  189.5060  171.9760  142.9420 C   0  0  0  0  0  0  0  0  0  0  0  0
  190.2480  170.9150  142.4410 O   0  0  0  0  0  0  0  0  0  0  0  0
  188.5920  174.5720  147.7040 F   0  0  0  0  0  0  0  0  0  0  0  0
  189.4750  174.8890  146.6870 C   0  0  2  0  0  3  0  0  0  0  0  0
  190.5670  175.8210  147.1820 C   0  0  0  0  0  2  0  0  0  0  0  0
  191.8090  175.1970  147.0710 O   0  0  0  0  0  0  0  0  0  0  0  0
  192.6960  176.2350  146.7880 C   0  0  0  0  0  1  0  0  0  0  0  0
  1 13  1  0  0  0  0
  1  5  1  0  0  0  0
  4 10  1  0  0  0  0
  5  9  1  0  0  0  0
  6  8  1  0  0  0  0
  8 13  2  0  0  0  0
  9  7  1  0  0  0  0
  9  3  1  6  0  0  0
 10  5  2  0  0  0  0
 10 29  1  0  0  0  0
 11 12  1  0  0  0  0
 11  4  2  0  0  0  0
 12  1  2  0  0  0  0
 13 14  1  0  0  0  0
 14  2  2  0  0  0  0
 14  7  1  0  0  0  0
 15 24  1  0  0  0  0
 15  4  1  0  0  0  0
 16 15  2  0  0  0  0
 17 16  1  0  0  0  0
 17 19  1  0  0  0  0
 19 18  1  6  0  0  0
 20 19  1  0  0  0  0
 20 22  1  0  0  0  0
 22 21  1  0  0  0  0
 23 22  2  0  0  0  0
 25 26  1  0  0  0  0
 26 24  1  0  0  0  0
 27 26  2  0  0  0  0
 29 30  1  0  0  0  0
 29 28  1  1  0  0  0
 31 30  1  0  0  0  0
 32 31  1  0  0  0  0
M  END
>  <MODEL>
6

>  <REMARK>
 VINA RESULT:      -6.4      2.219      3.417
  Name = 
  10 active torsions:
  status: ('A' for Active; 'I' for Inactive)
    1  A    between atoms: C_1  and  C_11
    2  A    between atoms: C_1  and  O_30
    3  A    between atoms: C_3  and  C_5
    4  A    between atoms: C_3  and  C_8
    5  A    between atoms: O_4  and  C_24
    6  A    between atoms: C_5  and  C_25
    7  A    between atoms: C_12  and  C_25
    8  A    between atoms: C_20  and  C_29
    9  A    between atoms: C_24  and  C_29
   10  A    between atoms: C_26  and  O_30
                            x       y       z     vdW  Elec       q    Type
                         _______ _______ _______ _____ _____    ______ ____

>  <TORSDO>
F 10

$$$$
=
 OpenBabel11042419303D

 32 33  0  0  1  0  0  0  0  0999 V2000
  188.1850  177.2440  143.1440 C   0  0  0  0  0  0  0  0  0  0  0  0
  186.0590  177.6590  140.1610 O   0  0  0  0  0  0  0  0  0  0  0  0
  187.6240  174.1680  142.0130 C   0  0  0  0  0  1  0  0  0  0  0  0
  190.5490  176.5390  144.5170 C   0  0  0  0  0  0  0  0  0  0  0  0
  188.9630  176.1450  142.6990 C   0  0  0  0  0  0  0  0  0  0  0  0
  185.9320  179.0530  144.1900 C   0  0  0  0  0  1  0  0  0  0  0  0
  187.7510  176.1150  140.5570 N   0  0  0  0  0  2  0  0  0  0  0  0
  186.0120  178.4750  142.8180 C   0  0  0  0  0  3  0  0  0  0  0  0
  188.4940  175.3120  141.5240 C   0  0  2  0  0  3  0  0  0  0  0  0
  190.1410  175.7800  143.3920 C   0  0  0  0  0  0  0  0  0  0  0  0
  189.7730  177.6170  144.9440 C   0  0  0  0  0  3  0  0  0  0  0  0
  188.6130  177.9680  144.2630 C   0  0  0  0  0  3  0  0  0  0  0  0
  186.9840  177.6680  142.3600 C   0  0  0  0  0  0  0  0  0  0  0  0
  186.8810  177.1630  140.9800 C   0  0  0  0  0  0  0  0  0  0  0  0
  191.7770  176.2340  145.2750 C   0  0  0  0  0  0  0  0  0  0  0  0
  192.9150  176.8070  144.8830 C   0  0  0  0  0  3  0  0  0  0  0  0
  194.2210  176.5680  145.5740 C   0  0  0  0  0  2  0  0  0  0  0  0
  196.0770  176.2620  144.1060 O   0  0  0  0  0  1  0  0  0  0  0  0
  195.0740  175.5780  144.7970 C   0  0  1  0  0  3  0  0  0  0  0  0
  195.6950  174.5880  145.7640 C   0  0  0  0  0  2  0  0  0  0  0  0
  196.1270  172.1170  145.4870 N   0  0  0  0  0  1  0  0  0  0  0  0
  195.2130  173.2060  145.4810 C   0  0  0  0  0  0  0  0  0  0  0  0
  193.9910  173.0000  145.2590 O   0  0  0  0  0  0  0  0  0  0  0  0
  191.7840  175.3740  146.3880 O   0  0  0  0  0  0  0  0  0  0  0  0
  191.4350  176.2230  148.5240 O   0  0  0  0  0  1  0  0  0  0  0  0
  191.0250  175.5270  147.5570 C   0  0  0  0  0  0  0  0  0  0  0  0
  189.7840  174.9110  147.6420 O   0  0  0  0  0  0  0  0  0  0  0  0
  191.2460  173.7330  143.9530 F   0  0  0  0  0  0  0  0  0  0  0  0
  190.9320  174.5890  142.9120 C   0  0  2  0  0  3  0  0  0  0  0  0
  192.1820  175.0160  142.1610 C   0  0  0  0  0  2  0  0  0  0  0  0
  192.6600  173.9540  141.3950 O   0  0  0  0  0  0  0  0  0  0  0  0
  191.5570  173.5380  140.6500 C   0  0  0  0  0  1  0  0  0  0  0  0
  1 12  1  0  0  0  0
  2 14  2  0  0  0  0
  4 11  1  0  0  0  0
  4 15  1  0  0  0  0
  5  1  2  0  0  0  0
  5 10  1  0  0  0  0
  7 14  1  0  0  0  0
  7  9  1  0  0  0  0
  8  6  1  0  0  0  0
  9  3  1  1  0  0  0
  9  5  1  0  0  0  0
 10  4  2  0  0  0  0
 12 11  2  0  0  0  0
 13  8  2  0  0  0  0
 13  1  1  0  0  0  0
 14 13  1  0  0  0  0
 15 24  1  0  0  0  0
 16 15  2  0  0  0  0
 16 17  1  0  0  0  0
 19 18  1  1  0  0  0
 19 17  1  0  0  0  0
 19 20  1  0  0  0  0
 22 21  1  0  0  0  0
 22 20  1  0  0  0  0
 23 22  2  0  0  0  0
 24 26  1  0  0  0  0
 26 27  2  0  0  0  0
 26 25  1  0  0  0  0
 29 10  1  0  0  0  0
 29 28  1  1  0  0  0
 30 29  1  0  0  0  0
 31 30  1  0  0  0  0
 32 31  1  0  0  0  0
M  END
>  <MODEL>
7

>  <REMARK>
 VINA RESULT:      -6.3      2.582      4.464
  Name = 
  10 active torsions:
  status: ('A' for Active; 'I' for Inactive)
    1  A    between atoms: C_1  and  C_11
    2  A    between atoms: C_1  and  O_30
    3  A    between atoms: C_3  and  C_5
    4  A    between atoms: C_3  and  C_8
    5  A    between atoms: O_4  and  C_24
    6  A    between atoms: C_5  and  C_25
    7  A    between atoms: C_12  and  C_25
    8  A    between atoms: C_20  and  C_29
    9  A    between atoms: C_24  and  C_29
   10  A    between atoms: C_26  and  O_30
                            x       y       z     vdW  Elec       q    Type
                         _______ _______ _______ _____ _____    ______ ____

>  <TORSDO>
F 10

$$$$
=
 OpenBabel11042419303D

 32 33  0  0  1  0  0  0  0  0999 V2000
  187.3230  177.8500  145.4070 C   0  0  0  0  0  0  0  0  0  0  0  0
  184.7570  180.3360  144.5020 O   0  0  0  0  0  0  0  0  0  0  0  0
  185.9870  176.7590  142.5650 C   0  0  0  0  0  1  0  0  0  0  0  0
  189.7420  176.4350  145.0630 C   0  0  0  0  0  0  0  0  0  0  0  0
  187.7790  177.5310  144.1030 C   0  0  0  0  0  0  0  0  0  0  0  0
  185.7010  178.0950  148.0060 C   0  0  0  0  0  1  0  0  0  0  0  0
  186.1780  179.1210  143.1210 N   0  0  0  0  0  2  0  0  0  0  0  0
  185.3960  178.7940  146.7250 C   0  0  0  0  0  3  0  0  0  0  0  0
  186.9380  177.8950  142.8970 C   0  0  2  0  0  3  0  0  0  0  0  0
  188.9830  176.8100  143.9260 C   0  0  0  0  0  0  0  0  0  0  0  0
  189.2820  176.7560  146.3400 C   0  0  0  0  0  3  0  0  0  0  0  0
  188.0940  177.4590  146.5090 C   0  0  0  0  0  3  0  0  0  0  0  0
  186.0900  178.6760  145.5800 C   0  0  0  0  0  0  0  0  0  0  0  0
  185.6200  179.4220  144.3990 C   0  0  0  0  0  0  0  0  0  0  0  0
  191.0190  175.7040  144.9570 C   0  0  0  0  0  0  0  0  0  0  0  0
  190.9910  174.3740  145.0540 C   0  0  0  0  0  3  0  0  0  0  0  0
  192.2240  173.5310  144.9640 C   0  0  0  0  0  2  0  0  0  0  0  0
  192.8800  171.3010  144.4270 O   0  0  0  0  0  1  0  0  0  0  0  0
  191.9890  172.3190  144.0780 C   0  0  1  0  0  3  0  0  0  0  0  0
  190.5610  171.8380  144.2550 C   0  0  0  0  0  2  0  0  0  0  0  0
  190.6470  171.1870  141.8180 N   0  0  0  0  0  1  0  0  0  0  0  0
  189.9000  171.6620  142.9310 C   0  0  0  0  0  0  0  0  0  0  0  0
  188.6730  171.9120  142.8020 O   0  0  0  0  0  0  0  0  0  0  0  0
  192.2480  176.3560  144.7520 O   0  0  0  0  0  0  0  0  0  0  0  0
  192.9170  176.5630  146.9690 O   0  0  0  0  0  1  0  0  0  0  0  0
  193.1200  176.8110  145.7510 C   0  0  0  0  0  0  0  0  0  0  0  0
  194.2460  177.5370  145.3860 O   0  0  0  0  0  0  0  0  0  0  0  0
  189.1530  177.4820  141.6370 F   0  0  0  0  0  0  0  0  0  0  0  0
  189.4270  176.4600  142.5280 C   0  0  2  0  0  3  0  0  0  0  0  0
  188.8160  175.1500  142.0600 C   0  0  0  0  0  2  0  0  0  0  0  0
  189.5890  174.6060  141.0350 O   0  0  0  0  0  0  0  0  0  0  0  0
  188.6580  174.1710  140.0920 C   0  0  0  0  0  1  0  0  0  0  0  0
  1 13  1  0  0  0  0
  1 12  1  0  0  0  0
  4 11  1  0  0  0  0
  5  1  2  0  0  0  0
  7 14  1  0  0  0  0
  8  6  1  0  0  0  0
  9  3  1  1  0  0  0
  9  7  1  0  0  0  0
  9  5  1  0  0  0  0
 10  5  1  0  0  0  0
 10  4  2  0  0  0  0
 11 12  2  0  0  0  0
 13  8  2  0  0  0  0
 14  2  2  0  0  0  0
 14 13  1  0  0  0  0
 15 16  2  0  0  0  0
 15  4  1  0  0  0  0
 17 16  1  0  0  0  0
 19 20  1  0  0  0  0
 19 18  1  1  0  0  0
 19 17  1  0  0  0  0
 21 22  1  0  0  0  0
 22 20  1  0  0  0  0
 23 22  2  0  0  0  0
 24 15  1  0  0  0  0
 24 26  1  0  0  0  0
 26 25  1  0  0  0  0
 27 26  2  0  0  0  0
 29 28  1  6  0  0  0
 29 10  1  0  0  0  0
 30 29  1  0  0  0  0
 31 30  1  0  0  0  0
 32 31  1  0  0  0  0
M  END
>  <MODEL>
8

>  <REMARK>
 VINA RESULT:      -6.2      2.661      5.132
  Name = 
  10 active torsions:
  status: ('A' for Active; 'I' for Inactive)
    1  A    between atoms: C_1  and  C_11
    2  A    between atoms: C_1  and  O_30
    3  A    between atoms: C_3  and  C_5
    4  A    between atoms: C_3  and  C_8
    5  A    between atoms: O_4  and  C_24
    6  A    between atoms: C_5  and  C_25
    7  A    between atoms: C_12  and  C_25
    8  A    between atoms: C_20  and  C_29
    9  A    between atoms: C_24  and  C_29
   10  A    between atoms: C_26  and  O_30
                            x       y       z     vdW  Elec       q    Type
                         _______ _______ _______ _____ _____    ______ ____

>  <TORSDO>
F 10

$$$$
=
 OpenBabel11042419303D

 32 33  0  0  1  0  0  0  0  0999 V2000
  188.2050  177.3170  143.4210 C   0  0  0  0  0  0  0  0  0  0  0  0
  185.9410  177.8940  140.5710 O   0  0  0  0  0  0  0  0  0  0  0  0
  187.6880  174.3230  142.0720 C   0  0  0  0  0  1  0  0  0  0  0  0
  190.6470  176.5840  144.6360 C   0  0  0  0  0  0  0  0  0  0  0  0
  188.9950  176.2830  142.8580 C   0  0  0  0  0  0  0  0  0  0  0  0
  185.9470  178.9630  144.7000 C   0  0  0  0  0  1  0  0  0  0  0  0
  187.6940  176.3810  140.7720 N   0  0  0  0  0  2  0  0  0  0  0  0
  185.9850  178.4970  143.2840 C   0  0  0  0  0  3  0  0  0  0  0  0
  188.5010  175.5300  141.6410 C   0  0  2  0  0  3  0  0  0  0  0  0
  190.2130  175.9030  143.4710 C   0  0  0  0  0  0  0  0  0  0  0  0
  189.8590  177.6000  145.1790 C   0  0  0  0  0  3  0  0  0  0  0  0
  188.6600  177.9640  144.5760 C   0  0  0  0  0  3  0  0  0  0  0  0
  186.9600  177.7610  142.7240 C   0  0  0  0  0  0  0  0  0  0  0  0
  186.8110  177.3640  141.3130 C   0  0  0  0  0  0  0  0  0  0  0  0
  191.9150  176.2610  145.3160 C   0  0  0  0  0  0  0  0  0  0  0  0
  193.0420  176.7730  144.8190 C   0  0  0  0  0  3  0  0  0  0  0  0
  194.3840  176.5110  145.4240 C   0  0  0  0  0  2  0  0  0  0  0  0
  194.8850  174.2970  144.6870 O   0  0  0  0  0  1  0  0  0  0  0  0
  195.2310  175.6390  144.5110 C   0  0  1  0  0  3  0  0  0  0  0  0
  194.9940  176.0480  143.0690 C   0  0  0  0  0  2  0  0  0  0  0  0
  196.4360  176.3800  141.0250 N   0  0  0  0  0  1  0  0  0  0  0  0
  196.2690  176.4850  142.4320 C   0  0  0  0  0  0  0  0  0  0  0  0
  197.1920  176.9680  143.1400 O   0  0  0  0  0  0  0  0  0  0  0  0
  191.9720  175.4470  146.4610 O   0  0  0  0  0  0  0  0  0  0  0  0
  191.5520  176.3190  148.5750 O   0  0  0  0  0  1  0  0  0  0  0  0
  191.1900  175.5860  147.6160 C   0  0  0  0  0  0  0  0  0  0  0  0
  189.9780  174.9150  147.6960 O   0  0  0  0  0  0  0  0  0  0  0  0
  190.9040  174.7610  141.4860 F   0  0  0  0  0  0  0  0  0  0  0  0
  191.0170  174.7800  142.8650 C   0  0  2  0  0  3  0  0  0  0  0  0
  190.6370  173.4360  143.4630 C   0  0  0  0  0  2  0  0  0  0  0  0
  191.1350  172.4060  142.6670 O   0  0  0  0  0  0  0  0  0  0  0  0
  190.0570  171.5340  142.5130 C   0  0  0  0  0  1  0  0  0  0  0  0
  1 12  1  0  0  0  0
  2 14  2  0  0  0  0
  4 11  1  0  0  0  0
  4 15  1  0  0  0  0
  5  1  2  0  0  0  0
  5 10  1  0  0  0  0
  7 14  1  0  0  0  0
  7  9  1  0  0  0  0
  8  6  1  0  0  0  0
  9  3  1  1  0  0  0
  9  5  1  0  0  0  0
 10  4  2  0  0  0  0
 12 11  2  0  0  0  0
 13  8  2  0  0  0  0
 13  1  1  0  0  0  0
 14 13  1  0  0  0  0
 15 24  1  0  0  0  0
 16 15  2  0  0  0  0
 16 17  1  0  0  0  0
 19 18  1  6  0  0  0
 19 17  1  0  0  0  0
 20 19  1  0  0  0  0
 21 22  1  0  0  0  0
 22 20  1  0  0  0  0
 22 23  2  0  0  0  0
 24 26  1  0  0  0  0
 26 27  2  0  0  0  0
 26 25  1  0  0  0  0
 29 28  1  6  0  0  0
 29 30  1  0  0  0  0
 29 10  1  0  0  0  0
 31 30  1  0  0  0  0
 32 31  1  0  0  0  0
M  END
>  <MODEL>
9

>  <REMARK>
 VINA RESULT:      -6.2      2.374      4.235
  Name = 
  10 active torsions:
  status: ('A' for Active; 'I' for Inactive)
    1  A    between atoms: C_1  and  C_11
    2  A    between atoms: C_1  and  O_30
    3  A    between atoms: C_3  and  C_5
    4  A    between atoms: C_3  and  C_8
    5  A    between atoms: O_4  and  C_24
    6  A    between atoms: C_5  and  C_25
    7  A    between atoms: C_12  and  C_25
    8  A    between atoms: C_20  and  C_29
    9  A    between atoms: C_24  and  C_29
   10  A    between atoms: C_26  and  O_30
                            x       y       z     vdW  Elec       q    Type
                         _______ _______ _______ _____ _____    ______ ____

>  <TORSDO>
F 10

$$$$
