=
 OpenBabel11042414543D

 53 58  0  0  1  0  0  0  0  0999 V2000
  193.2260  175.0660  145.4340 C   0  0  2  0  0  3  0  0  0  0  0  0
  193.8110  171.5180  144.1260 C   0  0  0  0  0  2  0  0  0  0  0  0
  196.8310  172.5660  143.6980 C   0  0  0  0  0  1  0  0  0  0  0  0
  193.8620  173.7050  145.2980 C   0  0  0  0  0  0  0  0  0  0  0  0
  195.2050  173.6440  145.2300 C   0  0  0  0  0  3  0  0  0  0  0  0
  195.0900  171.1930  144.7630 N   0  0  0  0  0  2  0  0  0  0  0  0
  196.8720  172.0940  146.1150 C   0  0  0  0  0  1  0  0  0  0  0  0
  195.9620  172.3690  144.9290 C   0  0  0  0  0  0  0  0  0  0  0  0
  193.0350  172.4710  145.0250 C   0  0  0  0  0  2  0  0  0  0  0  0
  194.0890  176.2360  145.0210 C   0  0  0  0  0  0  0  0  0  0  0  0
  194.3460  177.1530  145.8480 O   0  0  0  0  0  0  0  0  0  0  0  0
  193.9760  174.9770  141.6490 C   0  0  0  0  0  3  0  0  0  0  0  0
  195.1510  174.7860  141.0580 C   0  0  0  0  0  0  0  0  0  0  0  0
  195.8270  176.5990  143.4280 N   0  0  0  0  0  0  0  0  0  0  0  0
  196.5550  176.5620  142.1860 C   0  0  0  0  0  3  0  0  0  0  0  0
  192.2880  176.2060  142.7740 O   0  0  0  0  0  1  0  0  0  0  0  0
  196.2720  175.7530  141.1510 C   0  0  0  0  0  3  0  0  0  0  0  0
  193.6490  176.1990  142.4360 C   0  0  1  0  0  3  0  0  0  0  0  0
  194.5650  176.3580  143.6230 C   0  0  0  0  0  0  0  0  0  0  0  0
  195.2870  173.6310  140.2880 O   0  0  0  0  0  0  0  0  0  0  0  0
  194.6660  172.3990  140.6420 C   0  0  0  0  0  2  0  0  0  0  0  0
  193.6550  172.0420  139.5740 C   0  0  0  0  0  2  0  0  0  0  0  0
  192.6010  171.1160  140.1610 C   0  0  0  0  0  2  0  0  0  0  0  0
  191.2310  172.3350  141.6920 N   0  0  0  0  0  0  0  0  0  0  0  0
  189.2610  172.7830  139.8380 C   0  0  0  0  0  0  0  0  0  0  0  0
  189.1240  173.2770  141.1380 C   0  0  0  0  0  3  0  0  0  0  0  0
  191.3760  171.8550  140.4590 N   0  0  0  0  0  0  0  0  0  0  0  0
  190.4190  172.0690  139.5040 C   0  0  0  0  0  0  0  0  0  0  0  0
  190.1280  173.0390  142.0720 C   0  0  0  0  0  0  0  0  0  0  0  0
  190.5720  171.6380  138.3310 O   0  0  0  0  0  0  0  0  0  0  0  0
  189.5320  172.5870  144.4310 C   0  0  0  0  0  1  0  0  0  0  0  0
  190.0200  173.6380  143.4460 C   0  0  0  0  0  3  0  0  0  0  0  0
  189.0780  174.8290  143.4590 C   0  0  0  0  0  1  0  0  0  0  0  0
  188.2370  173.0040  138.8570 N   0  0  0  0  0  2  0  0  0  0  0  0
  188.1290  174.2300  138.0790 C   0  0  0  0  0  1  0  0  0  0  0  0
  192.6010  175.2460  146.8220 C   0  0  0  0  0  2  0  0  0  0  0  0
  190.7410  176.8160  146.2510 C   0  0  0  0  0  3  0  0  0  0  0  0
  190.1610  174.6940  147.2680 C   0  0  0  0  0  3  0  0  0  0  0  0
  188.8070  175.0390  147.2330 C   0  0  0  0  0  3  0  0  0  0  0  0
  191.1340  175.5690  146.7520 C   0  0  0  0  0  0  0  0  0  0  0  0
  189.3800  177.1800  146.2450 C   0  0  0  0  0  3  0  0  0  0  0  0
  188.4140  176.2790  146.7200 C   0  0  0  0  0  0  0  0  0  0  0  0
  186.9660  176.6490  146.6980 C   0  0  0  0  0  2  0  0  0  0  0  0
  186.0860  177.2700  144.4750 N   0  0  1  0  0  0  0  0  0  0  0  0
  185.4900  179.4830  143.8070 C   0  0  0  0  0  3  0  0  0  0  0  0
  186.2690  178.2740  143.4140 C   0  0  2  0  0  3  0  0  0  0  0  0
  186.7230  177.7800  145.7150 C   0  0  1  0  0  3  0  0  0  0  0  0
  185.2740  177.9380  145.5150 C   0  0  1  0  0  3  0  0  0  0  0  0
  184.9430  179.2960  144.9850 C   0  0  0  0  0  3  0  0  0  0  0  0
  186.2740  176.4310  141.8760 F   0  0  0  0  0  0  0  0  0  0  0  0
  186.2270  178.5240  141.0070 F   0  0  0  0  0  0  0  0  0  0  0  0
  184.4100  177.6510  142.0610 F   0  0  0  0  0  0  0  0  0  0  0  0
  185.8040  177.7170  142.0610 C   0  0  0  0  0  0  0  0  0  0  0  0
  1 36  1  1  0  0  0
  2  6  1  0  0  0  0
  2  9  1  0  0  0  0
  3  8  1  0  0  0  0
  4  1  1  0  0  0  0
  5  4  2  0  0  0  0
  6  8  1  0  0  0  0
  8  5  1  0  0  0  0
  8  7  1  0  0  0  0
  9  4  1  0  0  0  0
 10  1  1  0  0  0  0
 10 11  2  0  0  0  0
 12 18  1  0  0  0  0
 13 17  1  0  0  0  0
 13 12  2  0  0  0  0
 14 19  2  0  0  0  0
 15 14  1  0  0  0  0
 17 15  2  0  0  0  0
 18 16  1  1  0  0  0
 18 19  1  0  0  0  0
 19 10  1  0  0  0  0
 20 21  1  0  0  0  0
 20 13  1  0  0  0  0
 22 23  1  0  0  0  0
 22 21  1  0  0  0  0
 23 27  1  0  0  0  0
 24 29  2  0  0  0  0
 25 26  2  0  0  0  0
 26 29  1  0  0  0  0
 27 24  1  0  0  0  0
 28 25  1  0  0  0  0
 28 27  1  0  0  0  0
 29 32  1  0  0  0  0
 30 28  2  0  0  0  0
 32 33  1  0  0  0  0
 32 31  1  0  0  0  0
 34 25  1  0  0  0  0
 35 34  1  0  0  0  0
 37 40  1  0  0  0  0
 39 38  1  0  0  0  0
 40 36  1  0  0  0  0
 40 38  2  0  0  0  0
 41 37  2  0  0  0  0
 41 42  1  0  0  0  0
 42 39  2  0  0  0  0
 43 42  1  0  0  0  0
 44 48  1  0  0  0  0
 44 47  1  0  0  0  0
 45 49  2  0  0  0  0
 46 45  1  0  0  0  0
 46 44  1  0  0  0  0
 47 43  1  0  0  0  0
 48 47  1  0  0  0  0
 49 48  1  0  0  0  0
 50 53  1  0  0  0  0
 51 53  1  0  0  0  0
 53 52  1  0  0  0  0
 53 46  1  0  0  0  0
M  END
>  <MODEL>
1

>  <REMARK>
 VINA RESULT:      -8.2      0.000      0.000
  Name = 
  15 active torsions:
  status: ('A' for Active; 'I' for Inactive)
    1  A    between atoms: C_2  and  C_20
    2  A    between atoms: C_2  and  C_51
    3  A    between atoms: C_8  and  C_28
    4  A    between atoms: C_8  and  O_45
    5  A    between atoms: C_9  and  C_20
    6  A    between atoms: N_11  and  C_13
    7  A    between atoms: C_12  and  O_45
    8  A    between atoms: C_17  and  C_53
    9  A    between atoms: C_20  and  C_53
   10  A    between atoms: C_21  and  C_30
   11  A    between atoms: C_21  and  C_48
   12  A    between atoms: N_26  and  C_34
   13  A    between atoms: C_28  and  C_34
   14  A    between atoms: C_35  and  C_40
   15  A    between atoms: C_37  and  C_38
                            x       y       z     vdW  Elec       q    Type
                         _______ _______ _______ _____ _____    ______ ____

>  <TORSDO>
F 15

$$$$
=
 OpenBabel11042414543D

 53 58  0  0  1  0  0  0  0  0999 V2000
  194.3600  175.2600  145.0530 C   0  0  2  0  0  3  0  0  0  0  0  0
  196.9480  172.7180  146.2720 C   0  0  0  0  0  2  0  0  0  0  0  0
  194.5210  170.6240  145.9150 C   0  0  0  0  0  1  0  0  0  0  0  0
  195.2070  174.0120  145.0650 C   0  0  0  0  0  0  0  0  0  0  0  0
  194.6010  172.8390  144.8020 C   0  0  0  0  0  3  0  0  0  0  0  0
  196.7030  171.6050  145.3480 N   0  0  0  0  0  2  0  0  0  0  0  0
  195.2630  170.8330  143.5760 C   0  0  0  0  0  1  0  0  0  0  0  0
  195.2910  171.4990  144.9420 C   0  0  0  0  0  0  0  0  0  0  0  0
  196.6320  174.0300  145.5660 C   0  0  0  0  0  2  0  0  0  0  0  0
  194.9310  176.4310  144.2890 C   0  0  0  0  0  0  0  0  0  0  0  0
  195.1020  177.5390  144.8680 O   0  0  0  0  0  0  0  0  0  0  0  0
  194.1940  174.7860  141.1720 C   0  0  0  0  0  3  0  0  0  0  0  0
  195.2430  174.3700  140.4700 C   0  0  0  0  0  0  0  0  0  0  0  0
  196.4520  176.3610  142.4520 N   0  0  0  0  0  0  0  0  0  0  0  0
  196.9850  176.0730  141.1470 C   0  0  0  0  0  3  0  0  0  0  0  0
  192.8350  176.3560  142.3170 O   0  0  0  0  0  1  0  0  0  0  0  0
  196.4680  175.1850  140.2810 C   0  0  0  0  0  3  0  0  0  0  0  0
  194.1240  176.1280  141.8130 C   0  0  1  0  0  3  0  0  0  0  0  0
  195.2120  176.3130  142.8390 C   0  0  0  0  0  0  0  0  0  0  0  0
  195.1360  173.1200  139.8610 O   0  0  0  0  0  0  0  0  0  0  0  0
  193.8840  172.5610  139.4770 C   0  0  0  0  0  2  0  0  0  0  0  0
  193.5890  171.3740  140.3690 C   0  0  0  0  0  2  0  0  0  0  0  0
  192.2370  170.7830  140.0010 C   0  0  0  0  0  2  0  0  0  0  0  0
  191.1880  172.4400  141.3650 N   0  0  0  0  0  0  0  0  0  0  0  0
  189.2040  172.9340  139.5370 C   0  0  0  0  0  0  0  0  0  0  0  0
  189.2340  173.6370  140.7450 C   0  0  0  0  0  3  0  0  0  0  0  0
  191.1730  171.7600  140.2210 N   0  0  0  0  0  0  0  0  0  0  0  0
  190.2040  171.9870  139.2810 C   0  0  0  0  0  0  0  0  0  0  0  0
  190.2430  173.3750  141.6670 C   0  0  0  0  0  0  0  0  0  0  0  0
  190.2080  171.3630  138.1880 O   0  0  0  0  0  0  0  0  0  0  0  0
  191.0400  173.3910  144.0100 C   0  0  0  0  0  1  0  0  0  0  0  0
  190.3230  174.1860  142.9290 C   0  0  0  0  0  3  0  0  0  0  0  0
  188.9430  174.5880  143.4180 C   0  0  0  0  0  1  0  0  0  0  0  0
  188.1700  173.1760  138.5720 N   0  0  0  0  0  2  0  0  0  0  0  0
  188.1400  174.3510  137.7130 C   0  0  0  0  0  1  0  0  0  0  0  0
  193.9100  175.6330  146.4700 C   0  0  0  0  0  2  0  0  0  0  0  0
  191.6990  175.0090  147.4560 C   0  0  0  0  0  3  0  0  0  0  0  0
  191.7290  176.7050  145.7260 C   0  0  0  0  0  3  0  0  0  0  0  0
  190.3400  176.8220  145.8060 C   0  0  0  0  0  3  0  0  0  0  0  0
  192.4210  175.8170  146.5690 C   0  0  0  0  0  0  0  0  0  0  0  0
  190.2950  175.1020  147.5160 C   0  0  0  0  0  3  0  0  0  0  0  0
  189.6210  176.0250  146.7020 C   0  0  0  0  0  0  0  0  0  0  0  0
  188.1330  176.1460  146.7750 C   0  0  0  0  0  2  0  0  0  0  0  0
  186.7080  176.8880  144.8990 N   0  0  1  0  0  0  0  0  0  0  0  0
  185.9900  179.1340  144.5290 C   0  0  0  0  0  3  0  0  0  0  0  0
  186.6200  177.9480  143.8820 C   0  0  2  0  0  3  0  0  0  0  0  0
  187.6560  177.3290  145.9520 C   0  0  1  0  0  3  0  0  0  0  0  0
  186.2080  177.4980  146.1490 C   0  0  1  0  0  3  0  0  0  0  0  0
  185.7700  178.8840  145.7980 C   0  0  0  0  0  3  0  0  0  0  0  0
  184.4510  177.5560  142.9290 F   0  0  0  0  0  0  0  0  0  0  0  0
  186.1290  176.1540  142.3320 F   0  0  0  0  0  0  0  0  0  0  0  0
  186.0770  178.3040  141.5890 F   0  0  0  0  0  0  0  0  0  0  0  0
  185.8070  177.4660  142.6720 C   0  0  0  0  0  0  0  0  0  0  0  0
  1  4  1  0  0  0  0
  1 36  1  1  0  0  0
  4  9  1  0  0  0  0
  5  8  1  0  0  0  0
  5  4  2  0  0  0  0
  6  2  1  0  0  0  0
  7  8  1  0  0  0  0
  8  6  1  0  0  0  0
  8  3  1  0  0  0  0
  9  2  1  0  0  0  0
 10 11  2  0  0  0  0
 10  1  1  0  0  0  0
 12 18  1  0  0  0  0
 13 12  2  0  0  0  0
 14 19  2  0  0  0  0
 15 14  1  0  0  0  0
 17 13  1  0  0  0  0
 17 15  2  0  0  0  0
 18 16  1  1  0  0  0
 18 19  1  0  0  0  0
 19 10  1  0  0  0  0
 20 13  1  0  0  0  0
 21 20  1  0  0  0  0
 21 22  1  0  0  0  0
 23 27  1  0  0  0  0
 23 22  1  0  0  0  0
 24 29  2  0  0  0  0
 25 26  2  0  0  0  0
 26 29  1  0  0  0  0
 27 24  1  0  0  0  0
 28 25  1  0  0  0  0
 28 27  1  0  0  0  0
 29 32  1  0  0  0  0
 30 28  2  0  0  0  0
 32 33  1  0  0  0  0
 32 31  1  0  0  0  0
 34 25  1  0  0  0  0
 35 34  1  0  0  0  0
 36 40  1  0  0  0  0
 37 41  1  0  0  0  0
 38 39  2  0  0  0  0
 38 40  1  0  0  0  0
 39 42  1  0  0  0  0
 40 37  2  0  0  0  0
 42 43  1  0  0  0  0
 42 41  2  0  0  0  0
 44 47  1  0  0  0  0
 44 48  1  0  0  0  0
 45 49  2  0  0  0  0
 46 45  1  0  0  0  0
 46 44  1  0  0  0  0
 47 48  1  0  0  0  0
 47 43  1  0  0  0  0
 49 48  1  0  0  0  0
 51 53  1  0  0  0  0
 52 53  1  0  0  0  0
 53 50  1  0  0  0  0
 53 46  1  0  0  0  0
M  END
>  <MODEL>
2

>  <REMARK>
 VINA RESULT:      -7.9      0.967      1.644
  Name = 
  15 active torsions:
  status: ('A' for Active; 'I' for Inactive)
    1  A    between atoms: C_2  and  C_20
    2  A    between atoms: C_2  and  C_51
    3  A    between atoms: C_8  and  C_28
    4  A    between atoms: C_8  and  O_45
    5  A    between atoms: C_9  and  C_20
    6  A    between atoms: N_11  and  C_13
    7  A    between atoms: C_12  and  O_45
    8  A    between atoms: C_17  and  C_53
    9  A    between atoms: C_20  and  C_53
   10  A    between atoms: C_21  and  C_30
   11  A    between atoms: C_21  and  C_48
   12  A    between atoms: N_26  and  C_34
   13  A    between atoms: C_28  and  C_34
   14  A    between atoms: C_35  and  C_40
   15  A    between atoms: C_37  and  C_38
                            x       y       z     vdW  Elec       q    Type
                         _______ _______ _______ _____ _____    ______ ____

>  <TORSDO>
F 15

$$$$
=
 OpenBabel11042414543D

 53 58  0  0  1  0  0  0  0  0999 V2000
  193.7890  174.7250  143.9300 C   0  0  2  0  0  3  0  0  0  0  0  0
  197.3870  174.3340  145.1710 C   0  0  0  0  0  2  0  0  0  0  0  0
  196.4190  171.3500  145.9180 C   0  0  0  0  0  1  0  0  0  0  0  0
  195.1670  174.1300  144.0810 C   0  0  0  0  0  0  0  0  0  0  0  0
  195.2590  172.8010  144.2750 C   0  0  0  0  0  3  0  0  0  0  0  0
  197.7200  173.0060  144.6490 N   0  0  0  0  0  2  0  0  0  0  0  0
  196.8180  171.0860  143.5030 C   0  0  0  0  0  1  0  0  0  0  0  0
  196.5600  172.1000  144.6050 C   0  0  0  0  0  0  0  0  0  0  0  0
  196.3900  175.0030  144.2340 C   0  0  0  0  0  2  0  0  0  0  0  0
  193.3810  175.0820  142.5190 C   0  0  0  0  0  0  0  0  0  0  0  0
  192.8640  176.2070  142.2780 O   0  0  0  0  0  0  0  0  0  0  0  0
  193.1160  174.3780  138.9980 C   0  0  0  0  0  3  0  0  0  0  0  0
  192.4400  173.2810  138.6720 C   0  0  0  0  0  0  0  0  0  0  0  0
  193.0540  172.8880  141.6420 N   0  0  0  0  0  0  0  0  0  0  0  0
  192.8810  171.8220  140.6900 C   0  0  0  0  0  3  0  0  0  0  0  0
  194.8030  175.6440  140.0800 O   0  0  0  0  0  1  0  0  0  0  0  0
  192.5930  171.9910  139.3890 C   0  0  0  0  0  3  0  0  0  0  0  0
  194.1230  174.4180  140.0940 C   0  0  1  0  0  3  0  0  0  0  0  0
  193.5070  174.0870  141.4290 C   0  0  0  0  0  0  0  0  0  0  0  0
  191.5860  173.3720  137.5720 O   0  0  0  0  0  0  0  0  0  0  0  0
  190.2950  172.7730  137.5560 C   0  0  0  0  0  2  0  0  0  0  0  0
  189.2720  173.8150  137.9530 C   0  0  0  0  0  2  0  0  0  0  0  0
  188.3380  173.2380  139.0060 C   0  0  0  0  0  2  0  0  0  0  0  0
  188.2670  175.0520  140.5590 N   0  0  0  0  0  0  0  0  0  0  0  0
  189.5340  173.6340  142.5340 C   0  0  0  0  0  0  0  0  0  0  0  0
  189.1370  174.9540  142.7640 C   0  0  0  0  0  3  0  0  0  0  0  0
  188.6400  173.7960  140.3220 N   0  0  0  0  0  0  0  0  0  0  0  0
  189.2660  173.0550  141.2880 C   0  0  0  0  0  0  0  0  0  0  0  0
  188.4990  175.6650  141.7530 C   0  0  0  0  0  0  0  0  0  0  0  0
  189.5930  171.8580  141.0700 O   0  0  0  0  0  0  0  0  0  0  0  0
  187.1770  177.5500  140.8470 C   0  0  0  0  0  1  0  0  0  0  0  0
  188.0000  177.0560  142.0260 C   0  0  0  0  0  3  0  0  0  0  0  0
  189.1480  178.0160  142.2870 C   0  0  0  0  0  1  0  0  0  0  0  0
  190.2030  172.8790  143.5550 N   0  0  0  0  0  2  0  0  0  0  0  0
  189.5030  172.0300  144.5070 C   0  0  0  0  0  1  0  0  0  0  0  0
  193.5710  175.8710  144.9230 C   0  0  0  0  0  2  0  0  0  0  0  0
  191.6960  174.7960  146.1780 C   0  0  0  0  0  3  0  0  0  0  0  0
  191.2950  176.9690  145.1850 C   0  0  0  0  0  3  0  0  0  0  0  0
  189.9810  176.9530  145.6600 C   0  0  0  0  0  3  0  0  0  0  0  0
  192.1690  175.9030  145.4630 C   0  0  0  0  0  0  0  0  0  0  0  0
  190.3620  174.7620  146.6300 C   0  0  0  0  0  3  0  0  0  0  0  0
  189.5130  175.8530  146.3850 C   0  0  0  0  0  0  0  0  0  0  0  0
  188.1030  175.8350  146.8800 C   0  0  0  0  0  2  0  0  0  0  0  0
  186.3640  177.1460  145.7160 N   0  0  1  0  0  0  0  0  0  0  0  0
  185.5360  179.2660  146.4330 C   0  0  0  0  0  3  0  0  0  0  0  0
  186.0790  178.5170  145.2640 C   0  0  2  0  0  3  0  0  0  0  0  0
  187.4640  177.2010  146.7100 C   0  0  1  0  0  3  0  0  0  0  0  0
  186.0670  177.1360  147.1640 C   0  0  1  0  0  3  0  0  0  0  0  0
  185.5390  178.4960  147.4960 C   0  0  0  0  0  3  0  0  0  0  0  0
  184.9950  177.2350  143.5480 F   0  0  0  0  0  0  0  0  0  0  0  0
  185.4530  179.4100  143.1030 F   0  0  0  0  0  0  0  0  0  0  0  0
  183.8190  178.8340  144.5770 F   0  0  0  0  0  0  0  0  0  0  0  0
  185.0860  178.5020  144.0930 C   0  0  0  0  0  0  0  0  0  0  0  0
  1  4  1  0  0  0  0
  1 36  1  1  0  0  0
  4  9  1  0  0  0  0
  4  5  2  0  0  0  0
  5  8  1  0  0  0  0
  6  2  1  0  0  0  0
  7  8  1  0  0  0  0
  8  6  1  0  0  0  0
  8  3  1  0  0  0  0
  9  2  1  0  0  0  0
 10  1  1  0  0  0  0
 11 10  2  0  0  0  0
 12 18  1  0  0  0  0
 13 12  2  0  0  0  0
 13 17  1  0  0  0  0
 15 14  1  0  0  0  0
 17 15  2  0  0  0  0
 18 16  1  1  0  0  0
 18 19  1  0  0  0  0
 19 14  2  0  0  0  0
 19 10  1  0  0  0  0
 20 13  1  0  0  0  0
 21 20  1  0  0  0  0
 21 22  1  0  0  0  0
 22 23  1  0  0  0  0
 23 27  1  0  0  0  0
 24 29  2  0  0  0  0
 25 26  2  0  0  0  0
 25 34  1  0  0  0  0
 27 24  1  0  0  0  0
 27 28  1  0  0  0  0
 28 25  1  0  0  0  0
 29 32  1  0  0  0  0
 29 26  1  0  0  0  0
 30 28  2  0  0  0  0
 31 32  1  0  0  0  0
 32 33  1  0  0  0  0
 34 35  1  0  0  0  0
 36 40  1  0  0  0  0
 37 41  1  0  0  0  0
 38 40  1  0  0  0  0
 38 39  2  0  0  0  0
 39 42  1  0  0  0  0
 40 37  2  0  0  0  0
 42 41  2  0  0  0  0
 42 43  1  0  0  0  0
 44 47  1  0  0  0  0
 44 48  1  0  0  0  0
 45 49  2  0  0  0  0
 46 44  1  0  0  0  0
 46 45  1  0  0  0  0
 47 43  1  0  0  0  0
 47 48  1  0  0  0  0
 48 49  1  0  0  0  0
 50 53  1  0  0  0  0
 51 53  1  0  0  0  0
 53 52  1  0  0  0  0
 53 46  1  0  0  0  0
M  END
>  <MODEL>
3

>  <REMARK>
 VINA RESULT:      -7.8      1.699      3.502
  Name = 
  15 active torsions:
  status: ('A' for Active; 'I' for Inactive)
    1  A    between atoms: C_2  and  C_20
    2  A    between atoms: C_2  and  C_51
    3  A    between atoms: C_8  and  C_28
    4  A    between atoms: C_8  and  O_45
    5  A    between atoms: C_9  and  C_20
    6  A    between atoms: N_11  and  C_13
    7  A    between atoms: C_12  and  O_45
    8  A    between atoms: C_17  and  C_53
    9  A    between atoms: C_20  and  C_53
   10  A    between atoms: C_21  and  C_30
   11  A    between atoms: C_21  and  C_48
   12  A    between atoms: N_26  and  C_34
   13  A    between atoms: C_28  and  C_34
   14  A    between atoms: C_35  and  C_40
   15  A    between atoms: C_37  and  C_38
                            x       y       z     vdW  Elec       q    Type
                         _______ _______ _______ _____ _____    ______ ____

>  <TORSDO>
F 15

$$$$
=
 OpenBabel11042414543D

 53 58  0  0  1  0  0  0  0  0999 V2000
  194.0810  174.9940  144.7130 C   0  0  2  0  0  3  0  0  0  0  0  0
  194.1560  171.2060  145.2500 C   0  0  0  0  0  2  0  0  0  0  0  0
  196.3390  171.2800  142.8770 C   0  0  0  0  0  1  0  0  0  0  0  0
  194.6530  173.6210  144.9630 C   0  0  0  0  0  0  0  0  0  0  0  0
  195.7360  173.2530  144.2540 C   0  0  0  0  0  3  0  0  0  0  0  0
  195.5980  170.9450  145.1980 N   0  0  0  0  0  2  0  0  0  0  0  0
  197.7430  171.9640  144.7810 C   0  0  0  0  0  1  0  0  0  0  0  0
  196.3110  171.8530  144.2840 C   0  0  0  0  0  0  0  0  0  0  0  0
  193.9230  172.6040  145.8080 C   0  0  0  0  0  2  0  0  0  0  0  0
  194.8650  175.8660  143.7600 C   0  0  0  0  0  0  0  0  0  0  0  0
  195.6290  176.7630  144.2100 O   0  0  0  0  0  0  0  0  0  0  0  0
  192.8410  174.6220  141.0540 C   0  0  0  0  0  3  0  0  0  0  0  0
  193.4850  173.9550  140.1020 C   0  0  0  0  0  0  0  0  0  0  0  0
  195.7180  175.4410  141.5730 N   0  0  0  0  0  0  0  0  0  0  0  0
  195.7550  175.0670  140.1830 C   0  0  0  0  0  3  0  0  0  0  0  0
  192.3640  176.4660  142.4670 O   0  0  0  0  0  1  0  0  0  0  0  0
  194.7840  174.3980  139.5390 C   0  0  0  0  0  3  0  0  0  0  0  0
  193.3370  175.9030  141.6290 C   0  0  1  0  0  3  0  0  0  0  0  0
  194.6780  175.7310  142.2960 C   0  0  0  0  0  0  0  0  0  0  0  0
  192.8610  172.8120  139.6040 O   0  0  0  0  0  0  0  0  0  0  0  0
  191.9850  172.8470  138.4820 C   0  0  0  0  0  2  0  0  0  0  0  0
  190.9660  171.7370  138.6280 C   0  0  0  0  0  2  0  0  0  0  0  0
  189.5680  172.3330  138.6790 C   0  0  0  0  0  2  0  0  0  0  0  0
  189.7380  172.2140  141.0590 N   0  0  0  0  0  0  0  0  0  0  0  0
  188.3930  174.5730  141.4420 C   0  0  0  0  0  0  0  0  0  0  0  0
  188.8620  173.8480  142.5410 C   0  0  0  0  0  3  0  0  0  0  0  0
  189.2960  172.8910  140.0010 N   0  0  0  0  0  0  0  0  0  0  0  0
  188.6300  174.0780  140.1540 C   0  0  0  0  0  0  0  0  0  0  0  0
  189.5380  172.6500  142.3350 C   0  0  0  0  0  0  0  0  0  0  0  0
  188.2380  174.7300  139.1510 O   0  0  0  0  0  0  0  0  0  0  0  0
  190.4110  172.8850  144.6380 C   0  0  0  0  0  1  0  0  0  0  0  0
  190.1130  171.9100  143.5100 C   0  0  0  0  0  3  0  0  0  0  0  0
  191.3790  171.1640  143.1290 C   0  0  0  0  0  1  0  0  0  0  0  0
  187.6830  175.8070  141.6250 N   0  0  0  0  0  2  0  0  0  0  0  0
  188.3440  177.0750  141.8940 C   0  0  0  0  0  1  0  0  0  0  0  0
  193.7470  175.7000  146.0310 C   0  0  0  0  0  2  0  0  0  0  0  0
  191.7160  175.1540  147.3820 C   0  0  0  0  0  3  0  0  0  0  0  0
  191.4130  176.4400  145.3510 C   0  0  0  0  0  3  0  0  0  0  0  0
  190.0340  176.4790  145.5720 C   0  0  0  0  0  3  0  0  0  0  0  0
  192.2660  175.8010  146.2680 C   0  0  0  0  0  0  0  0  0  0  0  0
  190.3230  175.1630  147.5900 C   0  0  0  0  0  3  0  0  0  0  0  0
  189.4870  175.8440  146.6920 C   0  0  0  0  0  0  0  0  0  0  0  0
  188.0100  175.8780  146.9160 C   0  0  0  0  0  2  0  0  0  0  0  0
  186.3640  177.0460  145.4930 N   0  0  1  0  0  0  0  0  0  0  0  0
  185.6200  179.2910  145.8190 C   0  0  0  0  0  3  0  0  0  0  0  0
  186.1550  178.3330  144.8090 C   0  0  2  0  0  3  0  0  0  0  0  0
  187.4400  177.2220  146.4990 C   0  0  1  0  0  3  0  0  0  0  0  0
  186.0310  177.2940  146.9120 C   0  0  1  0  0  3  0  0  0  0  0  0
  185.5600  178.7110  146.9940 C   0  0  0  0  0  3  0  0  0  0  0  0
  183.9150  178.5600  143.9770 F   0  0  0  0  0  0  0  0  0  0  0  0
  185.1630  176.8440  143.1800 F   0  0  0  0  0  0  0  0  0  0  0  0
  185.6110  178.9940  142.5860 F   0  0  0  0  0  0  0  0  0  0  0  0
  185.1920  178.1630  143.6260 C   0  0  0  0  0  0  0  0  0  0  0  0
  1  4  1  0  0  0  0
  1 36  1  1  0  0  0
  2  9  1  0  0  0  0
  3  8  1  0  0  0  0
  4  9  1  0  0  0  0
  5  8  1  0  0  0  0
  5  4  2  0  0  0  0
  6  2  1  0  0  0  0
  8  7  1  0  0  0  0
  8  6  1  0  0  0  0
 10 11  2  0  0  0  0
 10  1  1  0  0  0  0
 12 18  1  0  0  0  0
 13 12  2  0  0  0  0
 14 19  2  0  0  0  0
 15 14  1  0  0  0  0
 17 13  1  0  0  0  0
 17 15  2  0  0  0  0
 18 19  1  0  0  0  0
 18 16  1  1  0  0  0
 19 10  1  0  0  0  0
 20 13  1  0  0  0  0
 21 22  1  0  0  0  0
 21 20  1  0  0  0  0
 22 23  1  0  0  0  0
 23 27  1  0  0  0  0
 24 29  2  0  0  0  0
 25 34  1  0  0  0  0
 25 26  2  0  0  0  0
 27 28  1  0  0  0  0
 27 24  1  0  0  0  0
 28 25  1  0  0  0  0
 29 26  1  0  0  0  0
 29 32  1  0  0  0  0
 30 28  2  0  0  0  0
 32 31  1  0  0  0  0
 33 32  1  0  0  0  0
 34 35  1  0  0  0  0
 36 40  1  0  0  0  0
 37 41  1  0  0  0  0
 38 39  2  0  0  0  0
 38 40  1  0  0  0  0
 39 42  1  0  0  0  0
 40 37  2  0  0  0  0
 42 43  1  0  0  0  0
 42 41  2  0  0  0  0
 44 47  1  0  0  0  0
 44 48  1  0  0  0  0
 45 49  2  0  0  0  0
 46 44  1  0  0  0  0
 46 45  1  0  0  0  0
 47 48  1  0  0  0  0
 47 43  1  0  0  0  0
 48 49  1  0  0  0  0
 51 53  1  0  0  0  0
 52 53  1  0  0  0  0
 53 50  1  0  0  0  0
 53 46  1  0  0  0  0
M  END
>  <MODEL>
4

>  <REMARK>
 VINA RESULT:      -7.8      1.567      2.253
  Name = 
  15 active torsions:
  status: ('A' for Active; 'I' for Inactive)
    1  A    between atoms: C_2  and  C_20
    2  A    between atoms: C_2  and  C_51
    3  A    between atoms: C_8  and  C_28
    4  A    between atoms: C_8  and  O_45
    5  A    between atoms: C_9  and  C_20
    6  A    between atoms: N_11  and  C_13
    7  A    between atoms: C_12  and  O_45
    8  A    between atoms: C_17  and  C_53
    9  A    between atoms: C_20  and  C_53
   10  A    between atoms: C_21  and  C_30
   11  A    between atoms: C_21  and  C_48
   12  A    between atoms: N_26  and  C_34
   13  A    between atoms: C_28  and  C_34
   14  A    between atoms: C_35  and  C_40
   15  A    between atoms: C_37  and  C_38
                            x       y       z     vdW  Elec       q    Type
                         _______ _______ _______ _____ _____    ______ ____

>  <TORSDO>
F 15

$$$$
=
 OpenBabel11042414543D

 53 58  0  0  1  0  0  0  0  0999 V2000
  194.8970  174.1510  145.1100 C   0  0  2  0  0  3  0  0  0  0  0  0
  196.8490  176.7930  143.1480 C   0  0  0  0  0  2  0  0  0  0  0  0
  196.8370  174.5530  140.8280 C   0  0  0  0  0  1  0  0  0  0  0  0
  195.2590  175.0770  143.9760 C   0  0  0  0  0  0  0  0  0  0  0  0
  195.2410  174.5760  142.7270 C   0  0  0  0  0  3  0  0  0  0  0  0
  196.2000  176.7040  141.8370 N   0  0  0  0  0  2  0  0  0  0  0  0
  194.5690  175.4740  140.5560 C   0  0  0  0  0  1  0  0  0  0  0  0
  195.7380  175.3420  141.5190 C   0  0  0  0  0  0  0  0  0  0  0  0
  195.8350  176.4500  144.2310 C   0  0  0  0  0  2  0  0  0  0  0  0
  196.0180  173.2790  145.6260 C   0  0  0  0  0  0  0  0  0  0  0  0
  196.9740  173.7950  146.2680 O   0  0  0  0  0  0  0  0  0  0  0  0
  195.7120  170.7050  143.1270 C   0  0  0  0  0  3  0  0  0  0  0  0
  194.9250  169.6800  143.4390 C   0  0  0  0  0  0  0  0  0  0  0  0
  195.4640  171.0160  146.1370 N   0  0  0  0  0  0  0  0  0  0  0  0
  195.1870  169.6150  145.9530 C   0  0  0  0  0  3  0  0  0  0  0  0
  197.5160  172.2180  143.4090 O   0  0  0  0  0  1  0  0  0  0  0  0
  194.9310  169.0290  144.7720 C   0  0  0  0  0  3  0  0  0  0  0  0
  196.7070  171.2830  144.0720 C   0  0  1  0  0  3  0  0  0  0  0  0
  196.0460  171.8320  145.3100 C   0  0  0  0  0  0  0  0  0  0  0  0
  194.0970  169.1930  142.4280 O   0  0  0  0  0  0  0  0  0  0  0  0
  193.2490  170.0410  141.6590 C   0  0  0  0  0  2  0  0  0  0  0  0
  192.0570  170.4320  142.5070 C   0  0  0  0  0  2  0  0  0  0  0  0
  190.7740  170.1520  141.7400 C   0  0  0  0  0  2  0  0  0  0  0  0
  190.6270  171.6400  139.8770 N   0  0  0  0  0  0  0  0  0  0  0  0
  188.9600  173.3820  141.1820 C   0  0  0  0  0  0  0  0  0  0  0  0
  189.3540  173.6430  139.8670 C   0  0  0  0  0  3  0  0  0  0  0  0
  190.2630  171.3780  141.1300 N   0  0  0  0  0  0  0  0  0  0  0  0
  189.4230  172.2190  141.8090 C   0  0  0  0  0  0  0  0  0  0  0  0
  190.2040  172.7550  139.2160 C   0  0  0  0  0  0  0  0  0  0  0  0
  189.0580  171.9530  142.9850 O   0  0  0  0  0  0  0  0  0  0  0  0
  189.7150  174.1190  137.2110 C   0  0  0  0  0  1  0  0  0  0  0  0
  190.5640  172.9920  137.7770 C   0  0  0  0  0  3  0  0  0  0  0  0
  190.3710  171.7370  136.9440 C   0  0  0  0  0  1  0  0  0  0  0  0
  188.0910  174.2860  141.8820 N   0  0  0  0  0  2  0  0  0  0  0  0
  187.8130  175.6390  141.4250 C   0  0  0  0  0  1  0  0  0  0  0  0
  193.6240  173.3600  144.7910 C   0  0  0  0  0  2  0  0  0  0  0  0
  192.5390  174.8550  146.4750 C   0  0  0  0  0  3  0  0  0  0  0  0
  191.1040  173.6530  144.9360 C   0  0  0  0  0  3  0  0  0  0  0  0
  189.9750  174.2180  145.5350 C   0  0  0  0  0  3  0  0  0  0  0  0
  192.3940  173.9890  145.3840 C   0  0  0  0  0  0  0  0  0  0  0  0
  191.4010  175.4000  147.1020 C   0  0  0  0  0  3  0  0  0  0  0  0
  190.1210  175.0930  146.6160 C   0  0  0  0  0  0  0  0  0  0  0  0
  188.9090  175.6840  147.2620 C   0  0  0  0  0  2  0  0  0  0  0  0
  187.2610  177.4330  146.6930 N   0  0  1  0  0  0  0  0  0  0  0  0
  186.5330  177.9620  144.4820 C   0  0  0  0  0  3  0  0  0  0  0  0
  186.0650  177.6480  145.8620 C   0  0  2  0  0  3  0  0  0  0  0  0
  187.9510  176.2120  146.2090 C   0  0  1  0  0  3  0  0  0  0  0  0
  188.4090  177.5380  145.7670 C   0  0  1  0  0  3  0  0  0  0  0  0
  187.8420  177.8910  144.4290 C   0  0  0  0  0  3  0  0  0  0  0  0
  184.0950  178.2720  147.0840 F   0  0  0  0  0  0  0  0  0  0  0  0
  184.8010  179.6700  145.4460 F   0  0  0  0  0  0  0  0  0  0  0  0
  185.9570  179.4690  147.3940 F   0  0  0  0  0  0  0  0  0  0  0  0
  185.2070  178.7820  146.4400 C   0  0  0  0  0  0  0  0  0  0  0  0
  1 36  1  6  0  0  0
  1 10  1  0  0  0  0
  2  9  1  0  0  0  0
  3  8  1  0  0  0  0
  4  9  1  0  0  0  0
  4  1  1  0  0  0  0
  5  4  2  0  0  0  0
  6  2  1  0  0  0  0
  7  8  1  0  0  0  0
  8  6  1  0  0  0  0
  8  5  1  0  0  0  0
 10 11  2  0  0  0  0
 12 13  2  0  0  0  0
 12 18  1  0  0  0  0
 13 17  1  0  0  0  0
 15 14  1  0  0  0  0
 17 15  2  0  0  0  0
 18 16  1  6  0  0  0
 18 19  1  0  0  0  0
 19 10  1  0  0  0  0
 19 14  2  0  0  0  0
 20 13  1  0  0  0  0
 21 20  1  0  0  0  0
 21 22  1  0  0  0  0
 23 22  1  0  0  0  0
 24 27  1  0  0  0  0
 25 28  1  0  0  0  0
 25 34  1  0  0  0  0
 26 25  2  0  0  0  0
 27 23  1  0  0  0  0
 27 28  1  0  0  0  0
 28 30  2  0  0  0  0
 29 26  1  0  0  0  0
 29 24  2  0  0  0  0
 31 32  1  0  0  0  0
 32 29  1  0  0  0  0
 33 32  1  0  0  0  0
 35 34  1  0  0  0  0
 36 40  1  0  0  0  0
 37 41  1  0  0  0  0
 38 40  1  0  0  0  0
 38 39  2  0  0  0  0
 39 42  1  0  0  0  0
 40 37  2  0  0  0  0
 42 41  2  0  0  0  0
 42 43  1  0  0  0  0
 45 46  1  0  0  0  0
 46 53  1  0  0  0  0
 46 44  1  0  0  0  0
 47 44  1  0  0  0  0
 47 43  1  0  0  0  0
 48 47  1  0  0  0  0
 48 44  1  0  0  0  0
 49 45  2  0  0  0  0
 49 48  1  0  0  0  0
 51 53  1  0  0  0  0
 53 50  1  0  0  0  0
 53 52  1  0  0  0  0
M  END
>  <MODEL>
5

>  <REMARK>
 VINA RESULT:      -7.2      2.320      4.406
  Name = 
  15 active torsions:
  status: ('A' for Active; 'I' for Inactive)
    1  A    between atoms: C_2  and  C_20
    2  A    between atoms: C_2  and  C_51
    3  A    between atoms: C_8  and  C_28
    4  A    between atoms: C_8  and  O_45
    5  A    between atoms: C_9  and  C_20
    6  A    between atoms: N_11  and  C_13
    7  A    between atoms: C_12  and  O_45
    8  A    between atoms: C_17  and  C_53
    9  A    between atoms: C_20  and  C_53
   10  A    between atoms: C_21  and  C_30
   11  A    between atoms: C_21  and  C_48
   12  A    between atoms: N_26  and  C_34
   13  A    between atoms: C_28  and  C_34
   14  A    between atoms: C_35  and  C_40
   15  A    between atoms: C_37  and  C_38
                            x       y       z     vdW  Elec       q    Type
                         _______ _______ _______ _____ _____    ______ ____

>  <TORSDO>
F 15

$$$$
=
 OpenBabel11042414543D

 53 58  0  0  1  0  0  0  0  0999 V2000
  193.7630  174.2740  144.4310 C   0  0  2  0  0  3  0  0  0  0  0  0
  197.0890  173.3070  146.0580 C   0  0  0  0  0  2  0  0  0  0  0  0
  197.1970  171.1250  143.6860 C   0  0  0  0  0  1  0  0  0  0  0  0
  195.2360  173.9690  144.5450 C   0  0  0  0  0  0  0  0  0  0  0  0
  195.7840  173.1620  143.6170 C   0  0  0  0  0  3  0  0  0  0  0  0
  197.9410  173.1430  144.8760 N   0  0  0  0  0  2  0  0  0  0  0  0
  197.9380  173.1310  142.4660 C   0  0  0  0  0  1  0  0  0  0  0  0
  197.2030  172.6430  143.7040 C   0  0  0  0  0  0  0  0  0  0  0  0
  196.0310  174.3630  145.7680 C   0  0  0  0  0  2  0  0  0  0  0  0
  193.1810  174.1760  143.0400 C   0  0  0  0  0  0  0  0  0  0  0  0
  193.0410  175.2170  142.3410 O   0  0  0  0  0  0  0  0  0  0  0  0
  191.9540  172.2890  140.2300 C   0  0  0  0  0  3  0  0  0  0  0  0
  190.8610  171.5650  140.4460 C   0  0  0  0  0  0  0  0  0  0  0  0
  191.8710  172.1950  143.2630 N   0  0  0  0  0  0  0  0  0  0  0  0
  191.1150  171.0240  142.9030 C   0  0  0  0  0  3  0  0  0  0  0  0
  194.1800  173.0190  140.6010 O   0  0  0  0  0  1  0  0  0  0  0  0
  190.6530  170.7540  141.6700 C   0  0  0  0  0  3  0  0  0  0  0  0
  193.1020  172.3320  141.1780 C   0  0  1  0  0  3  0  0  0  0  0  0
  192.6930  172.8770  142.5230 C   0  0  0  0  0  0  0  0  0  0  0  0
  189.9010  171.5590  139.4330 O   0  0  0  0  0  0  0  0  0  0  0  0
  189.6440  172.6960  138.6160 C   0  0  0  0  0  2  0  0  0  0  0  0
  188.1920  173.0910  138.7770 C   0  0  0  0  0  2  0  0  0  0  0  0
  187.9750  174.4800  138.1990 C   0  0  0  0  0  2  0  0  0  0  0  0
  188.2130  175.3090  140.4280 N   0  0  0  0  0  0  0  0  0  0  0  0
  186.3360  177.2770  140.0790 C   0  0  0  0  0  0  0  0  0  0  0  0
  186.9900  177.1420  141.3070 C   0  0  0  0  0  3  0  0  0  0  0  0
  187.5980  175.4210  139.2520 N   0  0  0  0  0  0  0  0  0  0  0  0
  186.6640  176.3980  139.0390 C   0  0  0  0  0  0  0  0  0  0  0  0
  187.9370  176.1370  141.4740 C   0  0  0  0  0  0  0  0  0  0  0  0
  186.1040  176.5200  137.9170 O   0  0  0  0  0  0  0  0  0  0  0  0
  189.8510  177.0350  142.7610 C   0  0  0  0  0  1  0  0  0  0  0  0
  188.6990  176.0420  142.7660 C   0  0  0  0  0  3  0  0  0  0  0  0
  189.2320  174.6390  142.9930 C   0  0  0  0  0  1  0  0  0  0  0  0
  185.3470  178.2980  139.8810 N   0  0  0  0  0  2  0  0  0  0  0  0
  184.0500  178.2900  140.5410 C   0  0  0  0  0  1  0  0  0  0  0  0
  193.4170  175.5910  145.1330 C   0  0  0  0  0  2  0  0  0  0  0  0
  191.3840  176.8820  145.8000 C   0  0  0  0  0  3  0  0  0  0  0  0
  191.2840  174.4640  145.9290 C   0  0  0  0  0  3  0  0  0  0  0  0
  189.9720  174.5360  146.4040 C   0  0  0  0  0  3  0  0  0  0  0  0
  191.9890  175.6350  145.5980 C   0  0  0  0  0  0  0  0  0  0  0  0
  190.0730  176.9580  146.3100 C   0  0  0  0  0  3  0  0  0  0  0  0
  189.3630  175.7810  146.5930 C   0  0  0  0  0  0  0  0  0  0  0  0
  187.9640  175.8520  147.1140 C   0  0  0  0  0  2  0  0  0  0  0  0
  186.2220  177.1720  145.9640 N   0  0  1  0  0  0  0  0  0  0  0  0
  185.5450  179.3770  146.5770 C   0  0  0  0  0  3  0  0  0  0  0  0
  185.9760  178.5230  145.4340 C   0  0  2  0  0  3  0  0  0  0  0  0
  187.3830  177.2360  146.8850 C   0  0  1  0  0  3  0  0  0  0  0  0
  186.0150  177.2770  147.4240 C   0  0  1  0  0  3  0  0  0  0  0  0
  185.5770  178.6820  147.6890 C   0  0  0  0  0  3  0  0  0  0  0  0
  183.6550  178.7110  144.8520 F   0  0  0  0  0  0  0  0  0  0  0  0
  184.9220  177.2590  143.6590 F   0  0  0  0  0  0  0  0  0  0  0  0
  185.1730  179.5070  143.4180 F   0  0  0  0  0  0  0  0  0  0  0  0
  184.9130  178.4810  144.3270 C   0  0  0  0  0  0  0  0  0  0  0  0
  1  4  1  0  0  0  0
  1 36  1  6  0  0  0
  3  8  1  0  0  0  0
  4  9  1  0  0  0  0
  5  8  1  0  0  0  0
  5  4  2  0  0  0  0
  6  2  1  0  0  0  0
  7  8  1  0  0  0  0
  8  6  1  0  0  0  0
  9  2  1  0  0  0  0
 10  1  1  0  0  0  0
 11 10  2  0  0  0  0
 12 13  2  0  0  0  0
 12 18  1  0  0  0  0
 13 17  1  0  0  0  0
 15 14  1  0  0  0  0
 17 15  2  0  0  0  0
 18 16  1  6  0  0  0
 18 19  1  0  0  0  0
 19 10  1  0  0  0  0
 19 14  2  0  0  0  0
 20 13  1  0  0  0  0
 21 22  1  0  0  0  0
 21 20  1  0  0  0  0
 23 22  1  0  0  0  0
 23 27  1  0  0  0  0
 24 29  2  0  0  0  0
 25 26  2  0  0  0  0
 26 29  1  0  0  0  0
 27 24  1  0  0  0  0
 28 27  1  0  0  0  0
 28 25  1  0  0  0  0
 29 32  1  0  0  0  0
 30 28  2  0  0  0  0
 31 32  1  0  0  0  0
 32 33  1  0  0  0  0
 34 25  1  0  0  0  0
 34 35  1  0  0  0  0
 36 40  1  0  0  0  0
 37 41  1  0  0  0  0
 38 39  2  0  0  0  0
 39 42  1  0  0  0  0
 40 37  2  0  0  0  0
 40 38  1  0  0  0  0
 41 42  2  0  0  0  0
 42 43  1  0  0  0  0
 44 47  1  0  0  0  0
 44 48  1  0  0  0  0
 45 49  2  0  0  0  0
 46 44  1  0  0  0  0
 46 45  1  0  0  0  0
 47 43  1  0  0  0  0
 47 48  1  0  0  0  0
 48 49  1  0  0  0  0
 51 53  1  0  0  0  0
 52 53  1  0  0  0  0
 53 50  1  0  0  0  0
 53 46  1  0  0  0  0
M  END
>  <MODEL>
6

>  <REMARK>
 VINA RESULT:      -7.2      2.030      4.029
  Name = 
  15 active torsions:
  status: ('A' for Active; 'I' for Inactive)
    1  A    between atoms: C_2  and  C_20
    2  A    between atoms: C_2  and  C_51
    3  A    between atoms: C_8  and  C_28
    4  A    between atoms: C_8  and  O_45
    5  A    between atoms: C_9  and  C_20
    6  A    between atoms: N_11  and  C_13
    7  A    between atoms: C_12  and  O_45
    8  A    between atoms: C_17  and  C_53
    9  A    between atoms: C_20  and  C_53
   10  A    between atoms: C_21  and  C_30
   11  A    between atoms: C_21  and  C_48
   12  A    between atoms: N_26  and  C_34
   13  A    between atoms: C_28  and  C_34
   14  A    between atoms: C_35  and  C_40
   15  A    between atoms: C_37  and  C_38
                            x       y       z     vdW  Elec       q    Type
                         _______ _______ _______ _____ _____    ______ ____

>  <TORSDO>
F 15

$$$$
=
 OpenBabel11042414543D

 53 58  0  0  1  0  0  0  0  0999 V2000
  194.1400  173.2850  145.2610 C   0  0  2  0  0  3  0  0  0  0  0  0
  197.9080  173.7420  144.7800 C   0  0  0  0  0  2  0  0  0  0  0  0
  197.0660  174.4450  141.7470 C   0  0  0  0  0  1  0  0  0  0  0  0
  195.4370  173.9500  144.8730 C   0  0  0  0  0  0  0  0  0  0  0  0
  195.5000  174.5460  143.6680 C   0  0  0  0  0  3  0  0  0  0  0  0
  197.9410  174.9730  143.9840 N   0  0  0  0  0  2  0  0  0  0  0  0
  196.5590  176.5890  142.8470 C   0  0  0  0  0  1  0  0  0  0  0  0
  196.7810  175.1040  143.0860 C   0  0  0  0  0  0  0  0  0  0  0  0
  196.6920  173.7730  145.6950 C   0  0  0  0  0  2  0  0  0  0  0  0
  194.1690  171.7750  145.3160 C   0  0  0  0  0  0  0  0  0  0  0  0
  194.5720  171.1900  146.3580 O   0  0  0  0  0  0  0  0  0  0  0  0
  194.2830  171.4410  141.7320 C   0  0  0  0  0  3  0  0  0  0  0  0
  193.1320  171.1450  141.1370 C   0  0  0  0  0  0  0  0  0  0  0  0
  192.6180  170.4560  144.0730 N   0  0  0  0  0  0  0  0  0  0  0  0
  191.9730  169.8210  142.9540 C   0  0  0  0  0  3  0  0  0  0  0  0
  196.0760  171.1420  143.2540 O   0  0  0  0  0  1  0  0  0  0  0  0
  192.1820  170.1340  141.6640 C   0  0  0  0  0  3  0  0  0  0  0  0
  194.7570  170.7620  142.9700 C   0  0  1  0  0  3  0  0  0  0  0  0
  193.8080  170.9760  144.1210 C   0  0  0  0  0  0  0  0  0  0  0  0
  192.8540  171.8070  139.9410 O   0  0  0  0  0  0  0  0  0  0  0  0
  192.7370  173.2240  139.8600 C   0  0  0  0  0  2  0  0  0  0  0  0
  191.2950  173.5740  139.5600 C   0  0  0  0  0  2  0  0  0  0  0  0
  190.4330  173.2660  140.7750 C   0  0  0  0  0  2  0  0  0  0  0  0
  190.3600  175.1640  142.2240 N   0  0  0  0  0  0  0  0  0  0  0  0
  187.9850  176.0710  141.1960 C   0  0  0  0  0  0  0  0  0  0  0  0
  188.6200  176.7790  142.2200 C   0  0  0  0  0  3  0  0  0  0  0  0
  189.7660  174.4760  141.2510 N   0  0  0  0  0  0  0  0  0  0  0  0
  188.5860  174.9050  140.7060 C   0  0  0  0  0  0  0  0  0  0  0  0
  189.8220  176.3070  142.7370 C   0  0  0  0  0  0  0  0  0  0  0  0
  188.0410  174.2670  139.7670 O   0  0  0  0  0  0  0  0  0  0  0  0
  189.5630  177.9930  144.5300 C   0  0  0  0  0  1  0  0  0  0  0  0
  190.5480  177.1090  143.7810 C   0  0  0  0  0  3  0  0  0  0  0  0
  191.6380  177.9660  143.1620 C   0  0  0  0  0  1  0  0  0  0  0  0
  186.7380  176.5280  140.6510 N   0  0  0  0  0  2  0  0  0  0  0  0
  186.3440  177.9290  140.6280 C   0  0  0  0  0  1  0  0  0  0  0  0
  192.9720  173.8300  144.4330 C   0  0  0  0  0  2  0  0  0  0  0  0
  190.5690  173.4550  145.0120 C   0  0  0  0  0  3  0  0  0  0  0  0
  191.7810  175.1520  146.2470 C   0  0  0  0  0  3  0  0  0  0  0  0
  190.6310  175.4480  146.9830 C   0  0  0  0  0  3  0  0  0  0  0  0
  191.7650  174.1360  145.2750 C   0  0  0  0  0  0  0  0  0  0  0  0
  189.4010  173.7740  145.7310 C   0  0  0  0  0  3  0  0  0  0  0  0
  189.4410  174.7590  146.7300 C   0  0  0  0  0  0  0  0  0  0  0  0
  188.2110  175.0880  147.5120 C   0  0  0  0  0  2  0  0  0  0  0  0
  186.6830  176.4970  146.1770 N   0  0  1  0  0  0  0  0  0  0  0  0
  186.1040  178.7550  146.6890 C   0  0  0  0  0  3  0  0  0  0  0  0
  186.5840  177.8500  145.6060 C   0  0  2  0  0  3  0  0  0  0  0  0
  187.7510  176.5030  147.2070 C   0  0  1  0  0  3  0  0  0  0  0  0
  186.3440  176.6460  147.6080 C   0  0  1  0  0  3  0  0  0  0  0  0
  185.9790  178.0830  147.8080 C   0  0  0  0  0  3  0  0  0  0  0  0
  184.3550  178.2120  144.7910 F   0  0  0  0  0  0  0  0  0  0  0  0
  185.5990  176.6130  143.7730 F   0  0  0  0  0  0  0  0  0  0  0  0
  186.0700  178.8210  143.4920 F   0  0  0  0  0  0  0  0  0  0  0  0
  185.6330  177.8560  144.4010 C   0  0  0  0  0  0  0  0  0  0  0  0
  1 36  1  6  0  0  0
  1 10  1  0  0  0  0
  2  9  1  0  0  0  0
  3  8  1  0  0  0  0
  4  1  1  0  0  0  0
  4  9  1  0  0  0  0
  5  4  2  0  0  0  0
  6  2  1  0  0  0  0
  7  8  1  0  0  0  0
  8  5  1  0  0  0  0
  8  6  1  0  0  0  0
 10 11  2  0  0  0  0
 12 18  1  0  0  0  0
 13 17  1  0  0  0  0
 13 12  2  0  0  0  0
 14 19  2  0  0  0  0
 15 14  1  0  0  0  0
 17 15  2  0  0  0  0
 18 16  1  1  0  0  0
 18 19  1  0  0  0  0
 19 10  1  0  0  0  0
 20 13  1  0  0  0  0
 21 20  1  0  0  0  0
 22 21  1  0  0  0  0
 22 23  1  0  0  0  0
 23 27  1  0  0  0  0
 24 29  2  0  0  0  0
 25 26  2  0  0  0  0
 26 29  1  0  0  0  0
 27 24  1  0  0  0  0
 28 25  1  0  0  0  0
 28 27  1  0  0  0  0
 29 32  1  0  0  0  0
 30 28  2  0  0  0  0
 32 31  1  0  0  0  0
 33 32  1  0  0  0  0
 34 25  1  0  0  0  0
 35 34  1  0  0  0  0
 36 40  1  0  0  0  0
 37 40  2  0  0  0  0
 37 41  1  0  0  0  0
 38 39  2  0  0  0  0
 40 38  1  0  0  0  0
 41 42  2  0  0  0  0
 42 39  1  0  0  0  0
 42 43  1  0  0  0  0
 44 47  1  0  0  0  0
 44 48  1  0  0  0  0
 45 49  2  0  0  0  0
 46 44  1  0  0  0  0
 46 45  1  0  0  0  0
 47 43  1  0  0  0  0
 47 48  1  0  0  0  0
 48 49  1  0  0  0  0
 51 53  1  0  0  0  0
 52 53  1  0  0  0  0
 53 50  1  0  0  0  0
 53 46  1  0  0  0  0
M  END
>  <MODEL>
7

>  <REMARK>
 VINA RESULT:      -7.2      2.159      3.938
  Name = 
  15 active torsions:
  status: ('A' for Active; 'I' for Inactive)
    1  A    between atoms: C_2  and  C_20
    2  A    between atoms: C_2  and  C_51
    3  A    between atoms: C_8  and  C_28
    4  A    between atoms: C_8  and  O_45
    5  A    between atoms: C_9  and  C_20
    6  A    between atoms: N_11  and  C_13
    7  A    between atoms: C_12  and  O_45
    8  A    between atoms: C_17  and  C_53
    9  A    between atoms: C_20  and  C_53
   10  A    between atoms: C_21  and  C_30
   11  A    between atoms: C_21  and  C_48
   12  A    between atoms: N_26  and  C_34
   13  A    between atoms: C_28  and  C_34
   14  A    between atoms: C_35  and  C_40
   15  A    between atoms: C_37  and  C_38
                            x       y       z     vdW  Elec       q    Type
                         _______ _______ _______ _____ _____    ______ ____

>  <TORSDO>
F 15

$$$$
=
 OpenBabel11042414543D

 53 58  0  0  1  0  0  0  0  0999 V2000
  191.5140  173.5940  140.2890 C   0  0  2  0  0  3  0  0  0  0  0  0
  189.6840  172.0640  137.2970 C   0  0  0  0  0  2  0  0  0  0  0  0
  190.8420  174.6390  135.7380 C   0  0  0  0  0  1  0  0  0  0  0  0
  191.3020  173.0590  138.8950 C   0  0  0  0  0  0  0  0  0  0  0  0
  191.7840  173.7810  137.8660 C   0  0  0  0  0  3  0  0  0  0  0  0
  190.6840  172.2360  136.2400 N   0  0  0  0  0  2  0  0  0  0  0  0
  192.8380  173.1980  135.7410 C   0  0  0  0  0  1  0  0  0  0  0  0
  191.5000  173.4500  136.4160 C   0  0  0  0  0  0  0  0  0  0  0  0
  190.3960  171.8800  138.6310 C   0  0  0  0  0  2  0  0  0  0  0  0
  192.8060  173.1840  140.9570 C   0  0  0  0  0  0  0  0  0  0  0  0
  192.9720  171.9910  141.3310 O   0  0  0  0  0  0  0  0  0  0  0  0
  196.2790  173.8660  141.6210 C   0  0  0  0  0  3  0  0  0  0  0  0
  196.5300  174.6490  142.6660 C   0  0  0  0  0  0  0  0  0  0  0  0
  193.5630  175.1340  142.1050 N   0  0  0  0  0  0  0  0  0  0  0  0
  194.4560  176.0940  142.6980 C   0  0  0  0  0  3  0  0  0  0  0  0
  195.3100  173.2720  139.5400 O   0  0  0  0  0  1  0  0  0  0  0  0
  195.7550  175.8780  142.9640 C   0  0  0  0  0  3  0  0  0  0  0  0
  195.2160  174.1610  140.6210 C   0  0  1  0  0  3  0  0  0  0  0  0
  193.8490  174.1940  141.2540 C   0  0  0  0  0  0  0  0  0  0  0  0
  197.6080  174.2900  143.4750 O   0  0  0  0  0  0  0  0  0  0  0  0
  197.6790  173.0330  144.1390 C   0  0  0  0  0  2  0  0  0  0  0  0
  196.9030  173.1240  145.4360 C   0  0  0  0  0  2  0  0  0  0  0  0
  195.8070  172.0710  145.4490 C   0  0  0  0  0  2  0  0  0  0  0  0
  194.3670  173.9360  145.8440 N   0  0  0  0  0  0  0  0  0  0  0  0
  192.1810  172.6980  144.7440 C   0  0  0  0  0  0  0  0  0  0  0  0
  192.0690  173.9950  145.2530 C   0  0  0  0  0  3  0  0  0  0  0  0
  194.4900  172.6990  145.3660 N   0  0  0  0  0  0  0  0  0  0  0  0
  193.4230  172.0540  144.8000 C   0  0  0  0  0  0  0  0  0  0  0  0
  193.1830  174.6110  145.8130 C   0  0  0  0  0  0  0  0  0  0  0  0
  193.5500  170.8960  144.3240 O   0  0  0  0  0  0  0  0  0  0  0  0
  192.1710  176.8240  145.3630 C   0  0  0  0  0  1  0  0  0  0  0  0
  193.0850  176.0340  146.2860 C   0  0  0  0  0  3  0  0  0  0  0  0
  194.4510  176.6950  146.3430 C   0  0  0  0  0  1  0  0  0  0  0  0
  191.0450  172.0330  144.1700 N   0  0  0  0  0  2  0  0  0  0  0  0
  189.6860  172.2090  144.6600 C   0  0  0  0  0  1  0  0  0  0  0  0
  190.2830  173.3470  141.1670 C   0  0  0  0  0  2  0  0  0  0  0  0
  190.0780  175.4620  142.4830 C   0  0  0  0  0  3  0  0  0  0  0  0
  188.3070  174.9250  140.9180 C   0  0  0  0  0  3  0  0  0  0  0  0
  187.6250  176.0900  141.2790 C   0  0  0  0  0  3  0  0  0  0  0  0
  189.5510  174.6170  141.4980 C   0  0  0  0  0  0  0  0  0  0  0  0
  189.3760  176.6210  142.8710 C   0  0  0  0  0  3  0  0  0  0  0  0
  188.1580  176.9400  142.2520 C   0  0  0  0  0  0  0  0  0  0  0  0
  187.4180  178.1780  142.6430 C   0  0  0  0  0  2  0  0  0  0  0  0
  186.6860  178.5050  144.9790 N   0  0  1  0  0  0  0  0  0  0  0  0
  184.4730  178.1220  145.7880 C   0  0  0  0  0  3  0  0  0  0  0  0
  185.9150  177.8350  146.0390 C   0  0  2  0  0  3  0  0  0  0  0  0
  186.3600  177.8570  143.6840 C   0  0  1  0  0  3  0  0  0  0  0  0
  185.6800  179.1010  144.0750 C   0  0  1  0  0  3  0  0  0  0  0  0
  184.3440  178.8210  144.6860 C   0  0  0  0  0  3  0  0  0  0  0  0
  185.8600  177.5100  148.4170 F   0  0  0  0  0  0  0  0  0  0  0  0
  185.9410  179.6420  147.6490 F   0  0  0  0  0  0  0  0  0  0  0  0
  187.7500  178.2710  147.4940 F   0  0  0  0  0  0  0  0  0  0  0  0
  186.3570  178.3320  147.4220 C   0  0  0  0  0  0  0  0  0  0  0  0
  1 10  1  0  0  0  0
  1 36  1  1  0  0  0
  2  9  1  0  0  0  0
  3  8  1  0  0  0  0
  4  1  1  0  0  0  0
  5  4  2  0  0  0  0
  6  8  1  0  0  0  0
  6  2  1  0  0  0  0
  7  8  1  0  0  0  0
  8  5  1  0  0  0  0
  9  4  1  0  0  0  0
 10 19  1  0  0  0  0
 10 11  2  0  0  0  0
 12 13  2  0  0  0  0
 13 17  1  0  0  0  0
 13 20  1  0  0  0  0
 14 15  1  0  0  0  0
 15 17  2  0  0  0  0
 18 16  1  6  0  0  0
 18 19  1  0  0  0  0
 18 12  1  0  0  0  0
 19 14  2  0  0  0  0
 20 21  1  0  0  0  0
 21 22  1  0  0  0  0
 22 23  1  0  0  0  0
 25 28  1  0  0  0  0
 25 26  2  0  0  0  0
 26 29  1  0  0  0  0
 27 23  1  0  0  0  0
 27 24  1  0  0  0  0
 28 27  1  0  0  0  0
 29 24  2  0  0  0  0
 29 32  1  0  0  0  0
 30 28  2  0  0  0  0
 31 32  1  0  0  0  0
 32 33  1  0  0  0  0
 34 35  1  0  0  0  0
 34 25  1  0  0  0  0
 36 40  1  0  0  0  0
 37 41  1  0  0  0  0
 38 39  2  0  0  0  0
 38 40  1  0  0  0  0
 39 42  1  0  0  0  0
 40 37  2  0  0  0  0
 42 43  1  0  0  0  0
 42 41  2  0  0  0  0
 43 47  1  0  0  0  0
 44 46  1  0  0  0  0
 45 46  1  0  0  0  0
 46 53  1  0  0  0  0
 47 48  1  0  0  0  0
 47 44  1  0  0  0  0
 48 49  1  0  0  0  0
 48 44  1  0  0  0  0
 49 45  2  0  0  0  0
 53 52  1  0  0  0  0
 53 51  1  0  0  0  0
 53 50  1  0  0  0  0
M  END
>  <MODEL>
8

>  <REMARK>
 VINA RESULT:      -7.2      2.522      5.768
  Name = 
  15 active torsions:
  status: ('A' for Active; 'I' for Inactive)
    1  A    between atoms: C_2  and  C_20
    2  A    between atoms: C_2  and  C_51
    3  A    between atoms: C_8  and  C_28
    4  A    between atoms: C_8  and  O_45
    5  A    between atoms: C_9  and  C_20
    6  A    between atoms: N_11  and  C_13
    7  A    between atoms: C_12  and  O_45
    8  A    between atoms: C_17  and  C_53
    9  A    between atoms: C_20  and  C_53
   10  A    between atoms: C_21  and  C_30
   11  A    between atoms: C_21  and  C_48
   12  A    between atoms: N_26  and  C_34
   13  A    between atoms: C_28  and  C_34
   14  A    between atoms: C_35  and  C_40
   15  A    between atoms: C_37  and  C_38
                            x       y       z     vdW  Elec       q    Type
                         _______ _______ _______ _____ _____    ______ ____

>  <TORSDO>
F 15

$$$$
=
 OpenBabel11042414543D

 53 58  0  0  1  0  0  0  0  0999 V2000
  192.9940  175.9510  145.6100 C   0  0  2  0  0  3  0  0  0  0  0  0
  191.6480  172.6560  144.2040 C   0  0  0  0  0  2  0  0  0  0  0  0
  190.3770  174.5650  141.9360 C   0  0  0  0  0  1  0  0  0  0  0  0
  192.7150  174.8610  144.6050 C   0  0  0  0  0  0  0  0  0  0  0  0
  192.2780  175.2280  143.3860 C   0  0  0  0  0  3  0  0  0  0  0  0
  191.9110  172.8340  142.7730 N   0  0  0  0  0  2  0  0  0  0  0  0
  192.6970  174.4080  141.1230 C   0  0  0  0  0  1  0  0  0  0  0  0
  191.8040  174.2390  142.3430 C   0  0  0  0  0  0  0  0  0  0  0  0
  192.7070  173.4030  145.0030 C   0  0  0  0  0  2  0  0  0  0  0  0
  194.4410  176.3670  145.7390 C   0  0  0  0  0  0  0  0  0  0  0  0
  194.7300  177.5320  146.1250 O   0  0  0  0  0  0  0  0  0  0  0  0
  195.8710  174.3010  143.1590 C   0  0  0  0  0  3  0  0  0  0  0  0
  196.2090  173.0670  143.5200 C   0  0  0  0  0  0  0  0  0  0  0  0
  195.9040  174.5360  146.1860 N   0  0  0  0  0  0  0  0  0  0  0  0
  196.7790  173.4160  145.9590 C   0  0  0  0  0  3  0  0  0  0  0  0
  195.8780  176.6700  143.2630 O   0  0  0  0  0  1  0  0  0  0  0  0
  196.9020  172.7560  144.7950 C   0  0  0  0  0  3  0  0  0  0  0  0
  196.1830  175.5040  143.9800 C   0  0  1  0  0  3  0  0  0  0  0  0
  195.5250  175.4410  145.3340 C   0  0  0  0  0  0  0  0  0  0  0  0
  195.9220  172.0460  142.6150 O   0  0  0  0  0  0  0  0  0  0  0  0
  195.7900  170.6860  143.0140 C   0  0  0  0  0  2  0  0  0  0  0  0
  194.3540  170.2560  142.8060 C   0  0  0  0  0  2  0  0  0  0  0  0
  194.2410  169.4650  141.5120 C   0  0  0  0  0  2  0  0  0  0  0  0
  194.3450  171.0940  139.7670 N   0  0  0  0  0  0  0  0  0  0  0  0
  191.6610  170.9350  139.2270 C   0  0  0  0  0  0  0  0  0  0  0  0
  192.4730  171.8040  138.4920 C   0  0  0  0  0  3  0  0  0  0  0  0
  193.5860  170.2620  140.4770 N   0  0  0  0  0  0  0  0  0  0  0  0
  192.2450  170.1490  140.2290 C   0  0  0  0  0  0  0  0  0  0  0  0
  193.8330  171.8790  138.7790 C   0  0  0  0  0  0  0  0  0  0  0  0
  191.5340  169.3410  140.8840 O   0  0  0  0  0  0  0  0  0  0  0  0
  195.5080  171.8970  136.9570 C   0  0  0  0  0  1  0  0  0  0  0  0
  194.7210  172.7520  137.9370 C   0  0  0  0  0  3  0  0  0  0  0  0
  195.6770  173.5610  138.7950 C   0  0  0  0  0  1  0  0  0  0  0  0
  190.2540  170.8430  138.9610 N   0  0  0  0  0  2  0  0  0  0  0  0
  189.6960  170.0310  137.8890 C   0  0  0  0  0  1  0  0  0  0  0  0
  192.3400  175.6360  146.9590 C   0  0  0  0  0  2  0  0  0  0  0  0
  189.9570  174.9470  147.2610 C   0  0  0  0  0  3  0  0  0  0  0  0
  190.3990  177.2410  146.6180 C   0  0  0  0  0  3  0  0  0  0  0  0
  189.0280  177.5080  146.5970 C   0  0  0  0  0  3  0  0  0  0  0  0
  190.8740  175.9660  146.9760 C   0  0  0  0  0  0  0  0  0  0  0  0
  188.5730  175.2050  147.2090 C   0  0  0  0  0  3  0  0  0  0  0  0
  188.1130  176.4930  146.8940 C   0  0  0  0  0  0  0  0  0  0  0  0
  186.6470  176.7810  146.8580 C   0  0  0  0  0  2  0  0  0  0  0  0
  186.0560  177.4440  144.5530 N   0  0  1  0  0  0  0  0  0  0  0  0
  185.1590  179.5650  143.9250 C   0  0  0  0  0  3  0  0  0  0  0  0
  186.2170  178.5630  143.6100 C   0  0  2  0  0  3  0  0  0  0  0  0
  186.3570  177.9390  145.9200 C   0  0  1  0  0  3  0  0  0  0  0  0
  184.9620  177.8470  145.4620 C   0  0  1  0  0  3  0  0  0  0  0  0
  184.4650  179.1670  144.9660 C   0  0  0  0  0  3  0  0  0  0  0  0
  187.2820  178.3170  141.4730 F   0  0  0  0  0  0  0  0  0  0  0  0
  185.0410  178.6620  141.4970 F   0  0  0  0  0  0  0  0  0  0  0  0
  185.9300  176.6810  142.1780 F   0  0  0  0  0  0  0  0  0  0  0  0
  186.1100  178.0650  142.1620 C   0  0  0  0  0  0  0  0  0  0  0  0
  1 10  1  0  0  0  0
  1 36  1  1  0  0  0
  2  9  1  0  0  0  0
  3  8  1  0  0  0  0
  4  9  1  0  0  0  0
  4  1  1  0  0  0  0
  5  4  2  0  0  0  0
  6  2  1  0  0  0  0
  7  8  1  0  0  0  0
  8  6  1  0  0  0  0
  8  5  1  0  0  0  0
 10 11  2  0  0  0  0
 12 13  2  0  0  0  0
 12 18  1  0  0  0  0
 13 17  1  0  0  0  0
 15 14  1  0  0  0  0
 17 15  2  0  0  0  0
 18 16  1  6  0  0  0
 18 19  1  0  0  0  0
 19 10  1  0  0  0  0
 19 14  2  0  0  0  0
 20 21  1  0  0  0  0
 20 13  1  0  0  0  0
 22 21  1  0  0  0  0
 23 22  1  0  0  0  0
 24 27  1  0  0  0  0
 25 28  1  0  0  0  0
 26 29  1  0  0  0  0
 26 25  2  0  0  0  0
 27 23  1  0  0  0  0
 28 27  1  0  0  0  0
 28 30  2  0  0  0  0
 29 24  2  0  0  0  0
 31 32  1  0  0  0  0
 32 29  1  0  0  0  0
 32 33  1  0  0  0  0
 34 25  1  0  0  0  0
 35 34  1  0  0  0  0
 36 40  1  0  0  0  0
 38 40  1  0  0  0  0
 39 38  2  0  0  0  0
 39 42  1  0  0  0  0
 40 37  2  0  0  0  0
 41 37  1  0  0  0  0
 42 41  2  0  0  0  0
 43 42  1  0  0  0  0
 44 48  1  0  0  0  0
 44 47  1  0  0  0  0
 45 49  2  0  0  0  0
 46 45  1  0  0  0  0
 46 44  1  0  0  0  0
 47 43  1  0  0  0  0
 48 47  1  0  0  0  0
 49 48  1  0  0  0  0
 50 53  1  0  0  0  0
 51 53  1  0  0  0  0
 53 52  1  0  0  0  0
 53 46  1  0  0  0  0
M  END
>  <MODEL>
9

>  <REMARK>
 VINA RESULT:      -7.1      1.831      3.593
  Name = 
  15 active torsions:
  status: ('A' for Active; 'I' for Inactive)
    1  A    between atoms: C_2  and  C_20
    2  A    between atoms: C_2  and  C_51
    3  A    between atoms: C_8  and  C_28
    4  A    between atoms: C_8  and  O_45
    5  A    between atoms: C_9  and  C_20
    6  A    between atoms: N_11  and  C_13
    7  A    between atoms: C_12  and  O_45
    8  A    between atoms: C_17  and  C_53
    9  A    between atoms: C_20  and  C_53
   10  A    between atoms: C_21  and  C_30
   11  A    between atoms: C_21  and  C_48
   12  A    between atoms: N_26  and  C_34
   13  A    between atoms: C_28  and  C_34
   14  A    between atoms: C_35  and  C_40
   15  A    between atoms: C_37  and  C_38
                            x       y       z     vdW  Elec       q    Type
                         _______ _______ _______ _____ _____    ______ ____

>  <TORSDO>
F 15

$$$$
