=
 OpenBabel11042416393D

 65 71  0  0  1  0  0  0  0  0999 V2000
  195.5870  174.2040  142.1450 C   0  0  0  0  0  0  0  0  0  0  0  0
  195.3810  172.1670  138.9280 C   0  0  0  0  0  2  0  0  0  0  0  0
  196.7960  171.9320  140.9920 C   0  0  0  0  0  0  0  0  0  0  0  0
  196.8830  173.4320  137.3680 C   0  0  0  0  0  1  0  0  0  0  0  0
  195.4080  173.9260  140.7720 C   0  0  0  0  0  0  0  0  0  0  0  0
  194.5580  174.1570  137.7860 O   0  0  0  0  0  0  0  0  0  0  0  0
  195.4220  173.0400  137.6600 C   0  0  2  0  0  0  0  0  0  0  0  0
  197.0630  172.2660  142.3280 C   0  0  0  0  0  0  0  0  0  0  0  0
  194.7170  174.8510  139.9870 O   0  0  0  0  0  0  0  0  0  0  0  0
  196.4360  173.3800  142.8950 C   0  0  0  0  0  3  0  0  0  0  0  0
  195.0930  175.1240  138.6480 C   0  0  0  0  0  2  0  0  0  0  0  0
  195.9370  172.7380  140.2140 C   0  0  0  0  0  0  0  0  0  0  0  0
  192.9470  176.5830  144.5340 N   0  0  0  0  0  0  0  0  0  0  0  0
  194.9200  175.4070  142.7910 C   0  0  1  0  0  3  0  0  0  0  0  0
  194.3720  176.6790  144.8890 C   0  0  0  0  0  2  0  0  0  0  0  0
  193.4470  175.4570  142.4570 C   0  0  0  0  0  3  0  0  0  0  0  0
  192.5550  176.0330  143.2650 C   0  0  0  0  0  3  0  0  0  0  0  0
  195.1380  175.4880  144.3160 C   0  0  0  0  0  2  0  0  0  0  0  0
  190.6920  177.5410  144.6230 C   0  0  0  0  0  0  0  0  0  0  0  0
  189.4760  176.8760  145.1360 C   0  0  2  0  0  3  0  0  0  0  0  0
  190.6890  178.4070  143.7620 O   0  0  0  0  0  0  0  0  0  0  0  0
  189.9370  175.8410  146.0620 N   0  0  0  0  0  2  0  0  0  0  0  0
  191.3520  176.0930  146.3510 C   0  0  0  0  0  2  0  0  0  0  0  0
  191.8880  177.1440  145.3810 C   0  0  1  0  0  3  0  0  0  0  0  0
  187.3330  176.4100  143.9580 C   0  0  0  0  0  3  0  0  0  0  0  0
  188.6640  176.2520  144.0360 C   0  0  0  0  0  3  0  0  0  0  0  0
  185.7670  178.4640  144.4240 C   0  0  1  0  0  0  0  0  0  0  0  0
  185.6690  180.0690  146.5130 C   0  0  0  0  0  2  0  0  0  0  0  0
  184.3910  177.9730  147.3100 C   0  0  0  0  0  2  0  0  0  0  0  0
  184.3420  177.2290  145.9610 C   0  0  2  0  0  3  0  0  0  0  0  0
  185.5740  176.3710  145.7370 C   0  0  0  0  0  2  0  0  0  0  0  0
  183.4960  179.2740  144.9220 O   0  0  0  0  0  1  0  0  0  0  0  0
  185.5650  178.9420  147.5410 C   0  0  1  0  0  3  0  0  0  0  0  0
  186.5510  177.2340  144.9510 C   0  0  1  0  0  3  0  0  0  0  0  0
  184.3050  178.1460  144.7510 C   0  0  1  0  0  3  0  0  0  0  0  0
  186.3220  179.6960  145.1700 C   0  0  0  0  0  2  0  0  0  0  0  0
  186.8840  178.2470  147.8650 C   0  0  0  0  0  2  0  0  0  0  0  0
  187.9060  179.2480  148.3710 C   0  0  0  0  0  1  0  0  0  0  0  0
  184.8300  178.1380  142.0520 C   0  0  0  0  0  1  0  0  0  0  0  0
  185.9280  178.7420  142.9150 C   0  0  0  0  0  2  0  0  0  0  0  0
  195.6450  171.9400  135.4480 C   0  0  0  0  0  2  0  0  0  0  0  0
  194.8660  172.2100  136.5000 C   0  0  0  0  0  0  0  0  0  0  0  0
  193.5720  171.4370  136.5780 C   0  0  1  0  0  3  0  0  0  0  0  0
  192.6510  171.9000  135.6350 O   0  0  0  0  0  0  0  0  0  0  0  0
  192.0440  173.0040  136.2370 C   0  0  0  0  0  2  0  0  0  0  0  0
  189.8200  173.7160  136.7090 O   0  0  0  0  0  1  0  0  0  0  0  0
  190.0070  171.7660  135.5030 O   0  0  0  0  0  0  0  0  0  0  0  0
  190.5650  172.8510  136.1740 C   0  0  0  0  0  0  0  0  0  0  0  0
  193.8100  169.9400  136.3790 C   0  0  0  0  0  2  0  0  0  0  0  0
  192.5810  169.2360  136.5500 O   0  0  0  0  0  0  0  0  0  0  0  0
  192.0940  168.8870  137.8090 C   0  0  0  0  0  0  0  0  0  0  0  0
  192.8030  168.1850  138.5810 O   0  0  0  0  0  0  0  0  0  0  0  0
  190.7920  169.4360  138.3190 C   0  0  0  0  0  2  0  0  0  0  0  0
  190.9240  169.7920  139.7260 N   0  0  0  0  0  2  0  0  0  0  0  0
  191.5630  171.0950  139.7730 C   0  0  0  0  0  2  0  0  0  0  0  0
  189.6440  174.0550  141.0120 C   0  0  0  0  0  3  0  0  0  0  0  0
  189.1790  172.9450  141.9600 C   0  0  0  0  0  3  0  0  0  0  0  0
  190.6240  173.3690  140.1150 C   0  0  0  0  0  3  0  0  0  0  0  0
  190.6850  172.0960  140.4460 C   0  0  0  0  0  0  0  0  0  0  0  0
  189.8300  171.7790  141.4790 O   0  0  0  0  0  0  0  0  0  0  0  0
  197.8490  169.7740  139.9880 N   0  0  0  0  0  0  0  0  0  0  0  0
  197.3820  170.7310  140.4380 C   0  0  0  0  0  0  0  0  0  0  0  0
  197.9410  171.4760  143.0820 O   0  0  0  0  0  0  0  0  0  0  0  0
  197.6290  171.0090  144.3850 C   0  0  0  0  0  2  0  0  0  0  0  0
  196.5720  169.9320  144.2900 C   0  0  0  0  0  1  0  0  0  0  0  0
  1 10  1  0  0  0  0
  2 12  1  0  0  0  0
  3  8  1  0  0  0  0
  5  1  2  0  0  0  0
  6 11  1  0  0  0  0
  7  4  1  6  0  0  0
  7  6  1  0  0  0  0
  7  2  1  0  0  0  0
  8 10  2  0  0  0  0
  8 63  1  0  0  0  0
  9  5  1  0  0  0  0
 11  9  1  0  0  0  0
 12  5  1  0  0  0  0
 12  3  2  0  0  0  0
 13 15  1  0  0  0  0
 14  1  1  1  0  0  0
 14 18  1  0  0  0  0
 16 14  1  0  0  0  0
 16 17  2  0  0  0  0
 17 13  1  0  0  0  0
 18 15  1  0  0  0  0
 19 20  1  0  0  0  0
 19 24  1  0  0  0  0
 20 26  1  6  0  0  0
 20 22  1  0  0  0  0
 21 19  2  0  0  0  0
 22 23  1  0  0  0  0
 24 13  1  6  0  0  0
 24 23  1  0  0  0  0
 25 26  2  0  0  0  0
 27 40  1  6  0  0  0
 27 35  1  0  0  0  0
 27 34  1  0  0  0  0
 27 36  1  0  0  0  0
 28 33  1  0  0  0  0
 29 33  1  0  0  0  0
 30 31  1  6  0  0  0
 30 29  1  0  0  0  0
 33 37  1  6  0  0  0
 34 25  1  6  0  0  0
 34 31  1  0  0  0  0
 35 32  1  1  0  0  0
 35 30  1  0  0  0  0
 36 28  1  0  0  0  0
 37 38  1  0  0  0  0
 39 40  1  0  0  0  0
 41 42  2  0  0  0  0
 42 43  1  0  0  0  0
 42  7  1  0  0  0  0
 43 49  1  6  0  0  0
 44 45  1  0  0  0  0
 44 43  1  0  0  0  0
 47 48  2  0  0  0  0
 48 45  1  0  0  0  0
 48 46  1  0  0  0  0
 49 50  1  0  0  0  0
 50 51  1  0  0  0  0
 51 53  1  0  0  0  0
 51 52  2  0  0  0  0
 53 54  1  0  0  0  0
 54 55  1  0  0  0  0
 55 59  1  0  0  0  0
 56 57  2  0  0  0  0
 58 59  2  0  0  0  0
 58 56  1  0  0  0  0
 59 60  1  0  0  0  0
 60 57  1  0  0  0  0
 61 62  3  0  0  0  0
 62  3  1  0  0  0  0
 63 64  1  0  0  0  0
 65 64  1  0  0  0  0
M  END
>  <MODEL>
1

>  <REMARK>
 VINA RESULT:      -4.9      0.000      0.000
  Name = 
  21 active torsions:
  status: ('A' for Active; 'I' for Inactive)
    1  A    between atoms: C_1  and  C_53
    2  A    between atoms: C_3  and  C_7
    3  A    between atoms: C_4  and  C_61
    4  A    between atoms: N_5  and  C_38
    5  A    between atoms: C_6  and  C_51
    6  A    between atoms: C_9  and  C_26
    7  A    between atoms: C_19  and  C_41
    8  A    between atoms: C_19  and  O_50
    9  A    between atoms: C_21  and  O_55
   10  A    between atoms: C_21  and  C_60
   11  A    between atoms: C_25  and  C_35
   12  A    between atoms: C_27  and  C_47
   13  A    between atoms: C_27  and  O_55
   14  A    between atoms: N_28  and  C_48
   15  A    between atoms: N_28  and  C_60
   16  A    between atoms: C_33  and  O_58
   17  A    between atoms: C_35  and  C_47
   18  A    between atoms: C_44  and  C_52
   19  A    between atoms: C_46  and  O_58
   20  A    between atoms: C_47  and  O_50
   21  A    between atoms: C_48  and  C_57
                            x       y       z     vdW  Elec       q    Type
                         _______ _______ _______ _____ _____    ______ ____

>  <TORSDO>
F 21

$$$$
=
 OpenBabel11042416393D

 65 71  0  0  1  0  0  0  0  0999 V2000
  189.0600  176.8610  143.8200 C   0  0  0  0  0  0  0  0  0  0  0  0
  188.0100  176.0120  140.2550 C   0  0  0  0  0  2  0  0  0  0  0  0
  186.8600  177.2670  142.1030 C   0  0  0  0  0  0  0  0  0  0  0  0
  187.0680  173.6990  140.4850 C   0  0  0  0  0  1  0  0  0  0  0  0
  188.9540  176.1270  142.6190 C   0  0  0  0  0  0  0  0  0  0  0  0
  189.5030  174.0850  140.3330 O   0  0  0  0  0  0  0  0  0  0  0  0
  188.2270  174.5270  139.9010 C   0  0  2  0  0  0  0  0  0  0  0  0
  186.9080  177.9160  143.3460 C   0  0  0  0  0  0  0  0  0  0  0  0
  189.8970  175.1300  142.3600 O   0  0  0  0  0  0  0  0  0  0  0  0
  188.0170  177.7270  144.1760 C   0  0  0  0  0  3  0  0  0  0  0  0
  189.5430  173.9130  141.7240 C   0  0  0  0  0  2  0  0  0  0  0  0
  187.9000  176.3960  141.7140 C   0  0  0  0  0  0  0  0  0  0  0  0
  192.6020  175.2450  145.6020 N   0  0  0  0  0  0  0  0  0  0  0  0
  190.2530  176.6790  144.7450 C   0  0  1  0  0  3  0  0  0  0  0  0
  192.7490  176.5910  145.0260 C   0  0  0  0  0  2  0  0  0  0  0  0
  190.1950  175.3420  145.4480 C   0  0  0  0  0  3  0  0  0  0  0  0
  191.2940  174.7100  145.8640 C   0  0  0  0  0  3  0  0  0  0  0  0
  191.6130  176.8680  144.0440 C   0  0  0  0  0  2  0  0  0  0  0  0
  194.2960  173.5810  144.9890 C   0  0  0  0  0  0  0  0  0  0  0  0
  195.7320  173.8370  144.7540 C   0  0  2  0  0  3  0  0  0  0  0  0
  193.6650  172.6760  144.4640 O   0  0  0  0  0  0  0  0  0  0  0  0
  196.0520  175.0650  145.4820 N   0  0  0  0  0  2  0  0  0  0  0  0
  194.9370  175.3530  146.3910 C   0  0  0  0  0  2  0  0  0  0  0  0
  193.7550  174.4510  146.0440 C   0  0  1  0  0  3  0  0  0  0  0  0
  196.3440  172.9700  142.5030 C   0  0  0  0  0  3  0  0  0  0  0  0
  196.0460  174.0110  143.2950 C   0  0  0  0  0  3  0  0  0  0  0  0
  195.6610  170.4600  142.1570 C   0  0  1  0  0  0  0  0  0  0  0  0
  194.9990  168.6320  143.9380 C   0  0  0  0  0  2  0  0  0  0  0  0
  197.5770  168.6830  144.0660 C   0  0  0  0  0  2  0  0  0  0  0  0
  197.8300  169.6090  142.8590 C   0  0  2  0  0  3  0  0  0  0  0  0
  197.7990  171.0760  143.2490 C   0  0  0  0  0  2  0  0  0  0  0  0
  196.3590  168.1850  141.5230 O   0  0  0  0  0  1  0  0  0  0  0  0
  196.2380  168.8420  144.8100 C   0  0  1  0  0  3  0  0  0  0  0  0
  196.3720  171.5470  143.0040 C   0  0  1  0  0  3  0  0  0  0  0  0
  196.7850  169.4960  141.7640 C   0  0  1  0  0  3  0  0  0  0  0  0
  194.5820  169.8280  143.0630 C   0  0  0  0  0  2  0  0  0  0  0  0
  196.1800  170.0630  145.7220 C   0  0  0  0  0  2  0  0  0  0  0  0
  196.4570  169.6700  147.1610 C   0  0  0  0  0  1  0  0  0  0  0  0
  195.8420  171.1200  139.6790 C   0  0  0  0  0  1  0  0  0  0  0  0
  194.9410  170.9810  140.8970 C   0  0  0  0  0  2  0  0  0  0  0  0
  187.3870  175.1370  137.6490 C   0  0  0  0  0  2  0  0  0  0  0  0
  188.2350  174.4040  138.3760 C   0  0  0  0  0  0  0  0  0  0  0  0
  189.3290  173.7040  137.6060 C   0  0  1  0  0  3  0  0  0  0  0  0
  190.5880  174.1990  137.9550 O   0  0  0  0  0  0  0  0  0  0  0  0
  191.2070  174.4950  136.7390 C   0  0  0  0  0  2  0  0  0  0  0  0
  193.2480  174.4280  137.9650 O   0  0  0  0  0  1  0  0  0  0  0  0
  193.2360  175.8100  136.1270 O   0  0  0  0  0  0  0  0  0  0  0  0
  192.6140  174.9100  136.9880 C   0  0  0  0  0  0  0  0  0  0  0  0
  189.2850  172.1930  137.8330 C   0  0  0  0  0  2  0  0  0  0  0  0
  190.5940  171.7210  138.1450 O   0  0  0  0  0  0  0  0  0  0  0  0
  190.8740  170.3650  138.3160 C   0  0  0  0  0  0  0  0  0  0  0  0
  189.9290  169.5510  138.5020 O   0  0  0  0  0  0  0  0  0  0  0  0
  192.2700  169.8330  138.1550 C   0  0  0  0  0  2  0  0  0  0  0  0
  192.9570  170.5640  137.0980 N   0  0  0  0  0  2  0  0  0  0  0  0
  193.4660  169.5750  136.1640 C   0  0  0  0  0  2  0  0  0  0  0  0
  197.1950  169.4360  136.3970 C   0  0  0  0  0  3  0  0  0  0  0  0
  196.7720  168.1970  137.1950 C   0  0  0  0  0  3  0  0  0  0  0  0
  195.8990  170.0240  135.9400 C   0  0  0  0  0  3  0  0  0  0  0  0
  194.9100  169.2970  136.4170 C   0  0  0  0  0  0  0  0  0  0  0  0
  195.3540  168.2500  137.1960 O   0  0  0  0  0  0  0  0  0  0  0  0
  184.8670  177.7430  140.4980 N   0  0  0  0  0  0  0  0  0  0  0  0
  185.7500  177.5320  141.2150 C   0  0  0  0  0  0  0  0  0  0  0  0
  185.8560  178.7550  143.7360 O   0  0  0  0  0  0  0  0  0  0  0  0
  185.5550  179.0310  145.0940 C   0  0  0  0  0  2  0  0  0  0  0  0
  184.1430  178.5840  145.3960 C   0  0  0  0  0  1  0  0  0  0  0  0
  1 10  1  0  0  0  0
  2 12  1  0  0  0  0
  3  8  1  0  0  0  0
  5  1  2  0  0  0  0
  6 11  1  0  0  0  0
  7  2  1  0  0  0  0
  7  6  1  0  0  0  0
  7  4  1  1  0  0  0
  8 63  1  0  0  0  0
  8 10  2  0  0  0  0
  9  5  1  0  0  0  0
 11  9  1  0  0  0  0
 12  3  2  0  0  0  0
 12  5  1  0  0  0  0
 13 17  1  0  0  0  0
 14  1  1  6  0  0  0
 14 16  1  0  0  0  0
 15 13  1  0  0  0  0
 16 17  2  0  0  0  0
 18 14  1  0  0  0  0
 18 15  1  0  0  0  0
 19 24  1  0  0  0  0
 20 26  1  6  0  0  0
 20 19  1  0  0  0  0
 20 22  1  0  0  0  0
 21 19  2  0  0  0  0
 22 23  1  0  0  0  0
 24 13  1  6  0  0  0
 24 23  1  0  0  0  0
 25 26  2  0  0  0  0
 27 40  1  6  0  0  0
 27 34  1  0  0  0  0
 27 36  1  0  0  0  0
 28 33  1  0  0  0  0
 29 33  1  0  0  0  0
 30 31  1  1  0  0  0
 30 29  1  0  0  0  0
 33 37  1  6  0  0  0
 34 25  1  6  0  0  0
 34 31  1  0  0  0  0
 35 32  1  1  0  0  0
 35 27  1  0  0  0  0
 35 30  1  0  0  0  0
 36 28  1  0  0  0  0
 37 38  1  0  0  0  0
 39 40  1  0  0  0  0
 41 42  2  0  0  0  0
 42  7  1  0  0  0  0
 43 49  1  1  0  0  0
 43 44  1  0  0  0  0
 43 42  1  0  0  0  0
 45 48  1  0  0  0  0
 45 44  1  0  0  0  0
 47 48  2  0  0  0  0
 48 46  1  0  0  0  0
 49 50  1  0  0  0  0
 50 51  1  0  0  0  0
 51 52  2  0  0  0  0
 53 51  1  0  0  0  0
 54 53  1  0  0  0  0
 55 59  1  0  0  0  0
 55 54  1  0  0  0  0
 56 57  2  0  0  0  0
 57 60  1  0  0  0  0
 58 56  1  0  0  0  0
 58 59  2  0  0  0  0
 59 60  1  0  0  0  0
 61 62  3  0  0  0  0
 62  3  1  0  0  0  0
 63 64  1  0  0  0  0
 64 65  1  0  0  0  0
M  END
>  <MODEL>
2

>  <REMARK>
 VINA RESULT:      -3.9      2.392      9.472
  Name = 
  21 active torsions:
  status: ('A' for Active; 'I' for Inactive)
    1  A    between atoms: C_1  and  C_53
    2  A    between atoms: C_3  and  C_7
    3  A    between atoms: C_4  and  C_61
    4  A    between atoms: N_5  and  C_38
    5  A    between atoms: C_6  and  C_51
    6  A    between atoms: C_9  and  C_26
    7  A    between atoms: C_19  and  C_41
    8  A    between atoms: C_19  and  O_50
    9  A    between atoms: C_21  and  O_55
   10  A    between atoms: C_21  and  C_60
   11  A    between atoms: C_25  and  C_35
   12  A    between atoms: C_27  and  C_47
   13  A    between atoms: C_27  and  O_55
   14  A    between atoms: N_28  and  C_48
   15  A    between atoms: N_28  and  C_60
   16  A    between atoms: C_33  and  O_58
   17  A    between atoms: C_35  and  C_47
   18  A    between atoms: C_44  and  C_52
   19  A    between atoms: C_46  and  O_58
   20  A    between atoms: C_47  and  O_50
   21  A    between atoms: C_48  and  C_57
                            x       y       z     vdW  Elec       q    Type
                         _______ _______ _______ _____ _____    ______ ____

>  <TORSDO>
F 21

$$$$
=
 OpenBabel11042416393D

 65 71  0  0  1  0  0  0  0  0999 V2000
  188.8630  176.3140  143.5710 C   0  0  0  0  0  0  0  0  0  0  0  0
  188.3210  175.6330  139.8590 C   0  0  0  0  0  2  0  0  0  0  0  0
  186.8990  176.7610  141.5970 C   0  0  0  0  0  0  0  0  0  0  0  0
  187.4250  173.2910  139.8440 C   0  0  0  0  0  1  0  0  0  0  0  0
  188.9380  175.6420  142.3310 C   0  0  0  0  0  0  0  0  0  0  0  0
  189.8470  173.7400  140.0400 O   0  0  0  0  0  0  0  0  0  0  0  0
  188.6270  174.1750  139.4640 C   0  0  2  0  0  0  0  0  0  0  0  0
  186.7620  177.3430  142.8660 C   0  0  0  0  0  0  0  0  0  0  0  0
  189.9370  174.6820  142.1510 O   0  0  0  0  0  0  0  0  0  0  0  0
  187.7570  177.1350  143.8270 C   0  0  0  0  0  3  0  0  0  0  0  0
  189.7070  173.4940  141.4130 C   0  0  0  0  0  2  0  0  0  0  0  0
  188.0070  175.9360  141.3080 C   0  0  0  0  0  0  0  0  0  0  0  0
  192.3260  174.8460  145.6170 N   0  0  0  0  0  0  0  0  0  0  0  0
  189.9270  176.1080  144.6370 C   0  0  1  0  0  3  0  0  0  0  0  0
  192.3420  176.2850  145.3120 C   0  0  0  0  0  2  0  0  0  0  0  0
  189.9790  174.6650  145.0820 C   0  0  0  0  0  3  0  0  0  0  0  0
  191.0930  174.1090  145.5610 C   0  0  0  0  0  3  0  0  0  0  0  0
  191.3260  176.6010  144.2160 C   0  0  0  0  0  2  0  0  0  0  0  0
  194.1730  173.3320  145.0620 C   0  0  0  0  0  0  0  0  0  0  0  0
  195.5940  173.7030  144.9060 C   0  0  2  0  0  3  0  0  0  0  0  0
  193.6420  172.3920  144.4900 O   0  0  0  0  0  0  0  0  0  0  0  0
  195.7810  174.9360  145.6710 N   0  0  0  0  0  2  0  0  0  0  0  0
  194.6030  175.1170  146.5260 C   0  0  0  0  0  2  0  0  0  0  0  0
  193.5140  174.1340  146.1040 C   0  0  1  0  0  3  0  0  0  0  0  0
  196.3410  172.9270  142.6620 C   0  0  0  0  0  3  0  0  0  0  0  0
  195.9660  173.9330  143.4680 C   0  0  0  0  0  3  0  0  0  0  0  0
  195.7570  170.4060  142.2270 C   0  0  1  0  0  0  0  0  0  0  0  0
  195.1090  168.5070  143.9370 C   0  0  0  0  0  2  0  0  0  0  0  0
  197.6790  168.6430  144.1410 C   0  0  0  0  0  2  0  0  0  0  0  0
  197.9330  169.6110  142.9680 C   0  0  2  0  0  3  0  0  0  0  0  0
  197.8400  171.0640  143.3970 C   0  0  0  0  0  2  0  0  0  0  0  0
  196.5520  168.1760  141.5510 O   0  0  0  0  0  1  0  0  0  0  0  0
  196.3150  168.7340  144.8500 C   0  0  1  0  0  3  0  0  0  0  0  0
  196.4050  171.4930  143.1240 C   0  0  1  0  0  3  0  0  0  0  0  0
  196.9240  169.4930  141.8410 C   0  0  1  0  0  3  0  0  0  0  0  0
  194.6760  169.7130  143.0830 C   0  0  0  0  0  2  0  0  0  0  0  0
  196.1890  169.9260  145.7940 C   0  0  0  0  0  2  0  0  0  0  0  0
  195.8290  169.4650  147.1930 C   0  0  0  0  0  1  0  0  0  0  0  0
  195.7900  170.6310  139.6660 C   0  0  0  0  0  1  0  0  0  0  0  0
  195.0550  170.9390  140.9620 C   0  0  0  0  0  2  0  0  0  0  0  0
  187.9250  174.6690  137.1370 C   0  0  0  0  0  2  0  0  0  0  0  0
  188.8410  174.1350  137.9490 C   0  0  0  0  0  0  0  0  0  0  0  0
  190.1570  173.7670  137.3070 C   0  0  1  0  0  3  0  0  0  0  0  0
  190.0500  172.5780  136.5830 O   0  0  0  0  0  0  0  0  0  0  0  0
  190.0580  171.5690  137.5490 C   0  0  0  0  0  2  0  0  0  0  0  0
  192.1270  171.2660  138.6900 O   0  0  0  0  0  1  0  0  0  0  0  0
  191.9380  170.1860  136.6680 O   0  0  0  0  0  0  0  0  0  0  0  0
  191.4320  171.0100  137.6700 C   0  0  0  0  0  0  0  0  0  0  0  0
  190.6570  174.8870  136.3920 C   0  0  0  0  0  2  0  0  0  0  0  0
  191.8800  174.4880  135.7770 O   0  0  0  0  0  0  0  0  0  0  0  0
  193.0310  175.2730  135.8330 C   0  0  0  0  0  0  0  0  0  0  0  0
  192.9310  176.5300  135.8030 O   0  0  0  0  0  0  0  0  0  0  0  0
  194.3820  174.6570  136.0590 C   0  0  0  0  0  2  0  0  0  0  0  0
  195.4090  175.6900  136.0140 N   0  0  0  0  0  2  0  0  0  0  0  0
  196.6230  175.1010  136.5530 C   0  0  0  0  0  2  0  0  0  0  0  0
  197.4880  175.6640  140.1460 C   0  0  0  0  0  3  0  0  0  0  0  0
  195.9850  175.3730  140.2140 C   0  0  0  0  0  3  0  0  0  0  0  0
  197.8060  175.5500  138.6900 C   0  0  0  0  0  3  0  0  0  0  0  0
  196.6960  175.2890  138.0300 C   0  0  0  0  0  0  0  0  0  0  0  0
  195.5950  175.2250  138.8570 O   0  0  0  0  0  0  0  0  0  0  0  0
  185.1150  177.2840  139.7750 N   0  0  0  0  0  0  0  0  0  0  0  0
  185.9090  177.0490  140.5820 C   0  0  0  0  0  0  0  0  0  0  0  0
  185.6430  178.1360  143.1530 O   0  0  0  0  0  0  0  0  0  0  0  0
  185.7440  179.4900  143.5630 C   0  0  0  0  0  2  0  0  0  0  0  0
  185.4250  179.5910  145.0370 C   0  0  0  0  0  1  0  0  0  0  0  0
  1 10  1  0  0  0  0
  2 12  1  0  0  0  0
  3  8  1  0  0  0  0
  5  1  2  0  0  0  0
  6 11  1  0  0  0  0
  7  4  1  1  0  0  0
  7  2  1  0  0  0  0
  7  6  1  0  0  0  0
  8 63  1  0  0  0  0
  8 10  2  0  0  0  0
  9  5  1  0  0  0  0
 11  9  1  0  0  0  0
 12  3  2  0  0  0  0
 12  5  1  0  0  0  0
 14  1  1  6  0  0  0
 14 16  1  0  0  0  0
 15 13  1  0  0  0  0
 16 17  2  0  0  0  0
 17 13  1  0  0  0  0
 18 14  1  0  0  0  0
 18 15  1  0  0  0  0
 19 24  1  0  0  0  0
 20 26  1  6  0  0  0
 20 19  1  0  0  0  0
 20 22  1  0  0  0  0
 21 19  2  0  0  0  0
 22 23  1  0  0  0  0
 24 13  1  6  0  0  0
 24 23  1  0  0  0  0
 25 26  2  0  0  0  0
 27 40  1  6  0  0  0
 27 36  1  0  0  0  0
 27 34  1  0  0  0  0
 28 33  1  0  0  0  0
 29 33  1  0  0  0  0
 30 31  1  1  0  0  0
 30 29  1  0  0  0  0
 33 37  1  6  0  0  0
 34 25  1  6  0  0  0
 34 31  1  0  0  0  0
 35 32  1  1  0  0  0
 35 27  1  0  0  0  0
 35 30  1  0  0  0  0
 36 28  1  0  0  0  0
 37 38  1  0  0  0  0
 39 40  1  0  0  0  0
 41 42  2  0  0  0  0
 42  7  1  0  0  0  0
 43 49  1  6  0  0  0
 43 42  1  0  0  0  0
 44 43  1  0  0  0  0
 44 45  1  0  0  0  0
 45 48  1  0  0  0  0
 47 48  2  0  0  0  0
 48 46  1  0  0  0  0
 50 51  1  0  0  0  0
 50 49  1  0  0  0  0
 51 53  1  0  0  0  0
 52 51  2  0  0  0  0
 54 53  1  0  0  0  0
 54 55  1  0  0  0  0
 55 59  1  0  0  0  0
 56 57  2  0  0  0  0
 58 56  1  0  0  0  0
 59 58  2  0  0  0  0
 59 60  1  0  0  0  0
 60 57  1  0  0  0  0
 61 62  3  0  0  0  0
 62  3  1  0  0  0  0
 63 64  1  0  0  0  0
 64 65  1  0  0  0  0
M  END
>  <MODEL>
3

>  <REMARK>
 VINA RESULT:      -3.8      2.560      9.534
  Name = 
  21 active torsions:
  status: ('A' for Active; 'I' for Inactive)
    1  A    between atoms: C_1  and  C_53
    2  A    between atoms: C_3  and  C_7
    3  A    between atoms: C_4  and  C_61
    4  A    between atoms: N_5  and  C_38
    5  A    between atoms: C_6  and  C_51
    6  A    between atoms: C_9  and  C_26
    7  A    between atoms: C_19  and  C_41
    8  A    between atoms: C_19  and  O_50
    9  A    between atoms: C_21  and  O_55
   10  A    between atoms: C_21  and  C_60
   11  A    between atoms: C_25  and  C_35
   12  A    between atoms: C_27  and  C_47
   13  A    between atoms: C_27  and  O_55
   14  A    between atoms: N_28  and  C_48
   15  A    between atoms: N_28  and  C_60
   16  A    between atoms: C_33  and  O_58
   17  A    between atoms: C_35  and  C_47
   18  A    between atoms: C_44  and  C_52
   19  A    between atoms: C_46  and  O_58
   20  A    between atoms: C_47  and  O_50
   21  A    between atoms: C_48  and  C_57
                            x       y       z     vdW  Elec       q    Type
                         _______ _______ _______ _____ _____    ______ ____

>  <TORSDO>
F 21

$$$$
=
 OpenBabel11042416393D

 65 71  0  0  1  0  0  0  0  0999 V2000
  195.4670  173.5590  143.0590 C   0  0  0  0  0  0  0  0  0  0  0  0
  195.6720  172.7350  139.3420 C   0  0  0  0  0  2  0  0  0  0  0  0
  196.2190  171.4040  141.4030 C   0  0  0  0  0  0  0  0  0  0  0  0
  197.9000  173.6770  138.6820 C   0  0  0  0  0  1  0  0  0  0  0  0
  195.6540  173.7610  141.6740 C   0  0  0  0  0  0  0  0  0  0  0  0
  195.9040  175.1180  138.8830 O   0  0  0  0  0  0  0  0  0  0  0  0
  196.3770  173.8320  138.5210 C   0  0  2  0  0  0  0  0  0  0  0  0
  196.1410  171.2250  142.7910 C   0  0  0  0  0  0  0  0  0  0  0  0
  195.5650  175.0610  141.1710 O   0  0  0  0  0  0  0  0  0  0  0  0
  195.7400  172.2950  143.5990 C   0  0  0  0  0  3  0  0  0  0  0  0
  196.4080  175.5190  140.1280 C   0  0  0  0  0  2  0  0  0  0  0  0
  195.9410  172.6640  140.8290 C   0  0  0  0  0  0  0  0  0  0  0  0
  193.0710  176.0360  145.6000 N   0  0  0  0  0  0  0  0  0  0  0  0
  195.0330  174.7000  143.9640 C   0  0  1  0  0  3  0  0  0  0  0  0
  194.2650  175.4570  146.2350 C   0  0  0  0  0  2  0  0  0  0  0  0
  193.8330  175.4210  143.3940 C   0  0  0  0  0  3  0  0  0  0  0  0
  192.9540  176.0580  144.1680 C   0  0  0  0  0  3  0  0  0  0  0  0
  194.7690  174.2670  145.4210 C   0  0  0  0  0  2  0  0  0  0  0  0
  190.7320  176.7710  145.6710 C   0  0  0  0  0  0  0  0  0  0  0  0
  189.6490  176.1710  146.4750 C   0  0  2  0  0  3  0  0  0  0  0  0
  190.5590  177.3530  144.6110 O   0  0  0  0  0  0  0  0  0  0  0  0
  190.3000  175.4870  147.5930 N   0  0  0  0  0  2  0  0  0  0  0  0
  191.6950  175.9390  147.6450 C   0  0  0  0  0  2  0  0  0  0  0  0
  192.0240  176.7160  146.3730 C   0  0  1  0  0  3  0  0  0  0  0  0
  187.5560  175.4380  145.3440 C   0  0  0  0  0  3  0  0  0  0  0  0
  188.8310  175.1900  145.6840 C   0  0  0  0  0  3  0  0  0  0  0  0
  186.0860  177.4790  144.5970 C   0  0  1  0  0  0  0  0  0  0  0  0
  186.1390  179.9840  145.4160 C   0  0  0  0  0  2  0  0  0  0  0  0
  184.8270  178.7760  147.2810 C   0  0  0  0  0  2  0  0  0  0  0  0
  184.6900  177.4050  146.5880 C   0  0  2  0  0  3  0  0  0  0  0  0
  185.8800  176.5040  146.8660 C   0  0  0  0  0  2  0  0  0  0  0  0
  183.8690  178.5520  144.5920 O   0  0  0  0  0  1  0  0  0  0  0  0
  186.0440  179.6410  146.9030 C   0  0  1  0  0  3  0  0  0  0  0  0
  186.8500  176.7190  145.7120 C   0  0  1  0  0  3  0  0  0  0  0  0
  184.6300  177.4810  145.0740 C   0  0  1  0  0  3  0  0  0  0  0  0
  186.7170  178.8850  144.5070 C   0  0  0  0  0  2  0  0  0  0  0  0
  187.3500  179.1780  147.5390 C   0  0  0  0  0  2  0  0  0  0  0  0
  187.3230  179.3970  149.0400 C   0  0  0  0  0  1  0  0  0  0  0  0
  186.9640  177.6900  142.1900 C   0  0  0  0  0  1  0  0  0  0  0  0
  186.1860  176.8500  143.1930 C   0  0  0  0  0  2  0  0  0  0  0  0
  196.4760  174.4740  136.1270 C   0  0  0  0  0  2  0  0  0  0  0  0
  195.9890  173.6420  137.0530 C   0  0  0  0  0  0  0  0  0  0  0  0
  195.3000  172.4040  136.5300 C   0  0  1  0  0  3  0  0  0  0  0  0
  195.9110  171.2450  137.0130 O   0  0  0  0  0  0  0  0  0  0  0  0
  196.5900  170.7130  135.9150 C   0  0  0  0  0  2  0  0  0  0  0  0
  195.4820  168.6130  136.1160 O   0  0  0  0  0  1  0  0  0  0  0  0
  197.7720  168.5160  135.9180 O   0  0  0  0  0  0  0  0  0  0  0  0
  196.5770  169.2270  135.9980 C   0  0  0  0  0  0  0  0  0  0  0  0
  193.8160  172.4010  136.8980 C   0  0  0  0  0  2  0  0  0  0  0  0
  193.1220  173.3470  136.0870 O   0  0  0  0  0  0  0  0  0  0  0  0
  192.4040  174.4090  136.6340 C   0  0  0  0  0  0  0  0  0  0  0  0
  192.1480  175.4210  135.9250 O   0  0  0  0  0  0  0  0  0  0  0  0
  191.8130  174.3210  138.0130 C   0  0  0  0  0  2  0  0  0  0  0  0
  190.5740  173.5570  137.9700 N   0  0  0  0  0  2  0  0  0  0  0  0
  190.7190  172.4640  138.9160 C   0  0  0  0  0  2  0  0  0  0  0  0
  189.0330  172.5640  142.2520 C   0  0  0  0  0  3  0  0  0  0  0  0
  188.1880  173.5430  141.4300 C   0  0  0  0  0  3  0  0  0  0  0  0
  190.0620  172.0810  141.2810 C   0  0  0  0  0  3  0  0  0  0  0  0
  189.8820  172.6950  140.1290 C   0  0  0  0  0  0  0  0  0  0  0  0
  188.8390  173.5940  140.1700 O   0  0  0  0  0  0  0  0  0  0  0  0
  196.8240  169.3700  139.8950 N   0  0  0  0  0  0  0  0  0  0  0  0
  196.5520  170.2720  140.5670 C   0  0  0  0  0  0  0  0  0  0  0  0
  196.4490  169.9790  143.3530 O   0  0  0  0  0  0  0  0  0  0  0  0
  197.3770  169.8220  144.4140 C   0  0  0  0  0  2  0  0  0  0  0  0
  196.7530  168.9800  145.5040 C   0  0  0  0  0  1  0  0  0  0  0  0
  1 10  1  0  0  0  0
  2 12  1  0  0  0  0
  3  8  1  0  0  0  0
  5  1  2  0  0  0  0
  6 11  1  0  0  0  0
  7  4  1  1  0  0  0
  7  6  1  0  0  0  0
  7  2  1  0  0  0  0
  8 63  1  0  0  0  0
  8 10  2  0  0  0  0
  9  5  1  0  0  0  0
 11  9  1  0  0  0  0
 12  3  2  0  0  0  0
 12  5  1  0  0  0  0
 13 15  1  0  0  0  0
 14  1  1  6  0  0  0
 14 18  1  0  0  0  0
 16 14  1  0  0  0  0
 16 17  2  0  0  0  0
 17 13  1  0  0  0  0
 18 15  1  0  0  0  0
 19 24  1  0  0  0  0
 19 20  1  0  0  0  0
 20 26  1  6  0  0  0
 20 22  1  0  0  0  0
 21 19  2  0  0  0  0
 22 23  1  0  0  0  0
 24 13  1  6  0  0  0
 24 23  1  0  0  0  0
 25 26  2  0  0  0  0
 27 40  1  6  0  0  0
 27 35  1  0  0  0  0
 27 34  1  0  0  0  0
 28 33  1  0  0  0  0
 30 31  1  6  0  0  0
 30 29  1  0  0  0  0
 33 29  1  0  0  0  0
 33 37  1  6  0  0  0
 34 25  1  6  0  0  0
 34 31  1  0  0  0  0
 35 32  1  1  0  0  0
 35 30  1  0  0  0  0
 36 27  1  0  0  0  0
 36 28  1  0  0  0  0
 37 38  1  0  0  0  0
 39 40  1  0  0  0  0
 41 42  2  0  0  0  0
 42  7  1  0  0  0  0
 43 49  1  1  0  0  0
 43 44  1  0  0  0  0
 43 42  1  0  0  0  0
 45 48  1  0  0  0  0
 45 44  1  0  0  0  0
 47 48  2  0  0  0  0
 48 46  1  0  0  0  0
 50 51  1  0  0  0  0
 50 49  1  0  0  0  0
 51 53  1  0  0  0  0
 52 51  2  0  0  0  0
 54 53  1  0  0  0  0
 54 55  1  0  0  0  0
 55 59  1  0  0  0  0
 57 56  2  0  0  0  0
 58 56  1  0  0  0  0
 59 60  1  0  0  0  0
 59 58  2  0  0  0  0
 60 57  1  0  0  0  0
 61 62  3  0  0  0  0
 62  3  1  0  0  0  0
 63 64  1  0  0  0  0
 64 65  1  0  0  0  0
M  END
>  <MODEL>
4

>  <REMARK>
 VINA RESULT:      -3.8      1.702      2.759
  Name = 
  21 active torsions:
  status: ('A' for Active; 'I' for Inactive)
    1  A    between atoms: C_1  and  C_53
    2  A    between atoms: C_3  and  C_7
    3  A    between atoms: C_4  and  C_61
    4  A    between atoms: N_5  and  C_38
    5  A    between atoms: C_6  and  C_51
    6  A    between atoms: C_9  and  C_26
    7  A    between atoms: C_19  and  C_41
    8  A    between atoms: C_19  and  O_50
    9  A    between atoms: C_21  and  O_55
   10  A    between atoms: C_21  and  C_60
   11  A    between atoms: C_25  and  C_35
   12  A    between atoms: C_27  and  C_47
   13  A    between atoms: C_27  and  O_55
   14  A    between atoms: N_28  and  C_48
   15  A    between atoms: N_28  and  C_60
   16  A    between atoms: C_33  and  O_58
   17  A    between atoms: C_35  and  C_47
   18  A    between atoms: C_44  and  C_52
   19  A    between atoms: C_46  and  O_58
   20  A    between atoms: C_47  and  O_50
   21  A    between atoms: C_48  and  C_57
                            x       y       z     vdW  Elec       q    Type
                         _______ _______ _______ _____ _____    ______ ____

>  <TORSDO>
F 21

$$$$
=
 OpenBabel11042416393D

 65 71  0  0  1  0  0  0  0  0999 V2000
  190.0510  174.5880  142.7160 C   0  0  0  0  0  0  0  0  0  0  0  0
  187.8980  177.4710  143.9770 C   0  0  0  0  0  2  0  0  0  0  0  0
  189.7810  176.1790  145.0280 C   0  0  0  0  0  0  0  0  0  0  0  0
  185.8630  176.3030  144.8620 C   0  0  0  0  0  1  0  0  0  0  0  0
  188.9100  175.4020  142.8860 C   0  0  0  0  0  0  0  0  0  0  0  0
  186.1390  176.7520  142.4490 O   0  0  0  0  0  0  0  0  0  0  0  0
  186.3910  177.2360  143.7570 C   0  0  2  0  0  0  0  0  0  0  0  0
  190.8590  175.2900  144.9120 C   0  0  0  0  0  0  0  0  0  0  0  0
  187.8820  175.3170  141.9450 O   0  0  0  0  0  0  0  0  0  0  0  0
  190.9960  174.5260  143.7490 C   0  0  0  0  0  3  0  0  0  0  0  0
  186.5180  175.4090  142.3170 C   0  0  0  0  0  2  0  0  0  0  0  0
  188.8180  176.2690  144.0000 C   0  0  0  0  0  0  0  0  0  0  0  0
  191.4760  171.5860  140.0150 N   0  0  0  0  0  0  0  0  0  0  0  0
  190.2300  173.7450  141.4640 C   0  0  1  0  0  3  0  0  0  0  0  0
  190.0470  171.4960  140.3540 C   0  0  0  0  0  2  0  0  0  0  0  0
  191.6590  173.7940  140.9750 C   0  0  0  0  0  3  0  0  0  0  0  0
  192.2060  172.7950  140.2800 C   0  0  0  0  0  3  0  0  0  0  0  0
  189.7590  172.2850  141.6290 C   0  0  0  0  0  2  0  0  0  0  0  0
  193.5340  170.9030  138.8710 C   0  0  0  0  0  0  0  0  0  0  0  0
  194.5530  169.9640  139.3840 C   0  0  2  0  0  3  0  0  0  0  0  0
  193.7700  171.8120  138.0890 O   0  0  0  0  0  0  0  0  0  0  0  0
  193.8720  169.1180  140.3640 N   0  0  0  0  0  2  0  0  0  0  0  0
  192.4280  169.3180  140.2040 C   0  0  0  0  0  2  0  0  0  0  0  0
  192.1790  170.5180  139.2940 C   0  0  1  0  0  3  0  0  0  0  0  0
  196.5790  171.4090  139.3280 C   0  0  0  0  0  3  0  0  0  0  0  0
  195.7040  170.6770  140.0350 C   0  0  0  0  0  3  0  0  0  0  0  0
  196.5470  173.0310  137.2650 C   0  0  1  0  0  0  0  0  0  0  0  0
  195.1710  172.8760  135.0210 C   0  0  0  0  0  2  0  0  0  0  0  0
  197.1260  171.2340  134.6370 C   0  0  0  0  0  2  0  0  0  0  0  0
  197.9400  171.5760  135.9010 C   0  0  2  0  0  3  0  0  0  0  0  0
  197.5070  170.7520  137.0990 C   0  0  0  0  0  2  0  0  0  0  0  0
  197.7510  173.9430  135.3210 O   0  0  0  0  0  1  0  0  0  0  0  0
  195.6010  171.4440  134.7000 C   0  0  1  0  0  3  0  0  0  0  0  0
  196.4700  171.5900  137.8340 C   0  0  1  0  0  3  0  0  0  0  0  0
  197.7860  173.0130  136.3650 C   0  0  1  0  0  3  0  0  0  0  0  0
  195.2250  173.2780  136.5060 C   0  0  0  0  0  2  0  0  0  0  0  0
  194.8620  170.3630  135.4810 C   0  0  0  0  0  2  0  0  0  0  0  0
  195.3210  168.9820  135.0500 C   0  0  0  0  0  1  0  0  0  0  0  0
  195.7140  175.3090  138.1180 C   0  0  0  0  0  1  0  0  0  0  0  0
  196.6720  174.1450  138.3240 C   0  0  0  0  0  2  0  0  0  0  0  0
  186.1790  179.6370  143.1710 C   0  0  0  0  0  2  0  0  0  0  0  0
  185.6880  178.5920  143.8440 C   0  0  0  0  0  0  0  0  0  0  0  0
  184.3080  178.7760  144.4290 C   0  0  1  0  0  3  0  0  0  0  0  0
  184.3490  179.5750  145.5740 O   0  0  0  0  0  0  0  0  0  0  0  0
  184.0150  178.7150  146.6230 C   0  0  0  0  0  2  0  0  0  0  0  0
  186.0260  179.2130  147.8000 O   0  0  0  0  0  1  0  0  0  0  0  0
  185.5350  176.9780  147.5670 O   0  0  0  0  0  0  0  0  0  0  0  0
  185.2510  178.3240  147.3540 C   0  0  0  0  0  0  0  0  0  0  0  0
  183.3510  179.3870  143.4050 C   0  0  0  0  0  2  0  0  0  0  0  0
  182.5880  178.3500  142.7900 O   0  0  0  0  0  0  0  0  0  0  0  0
  181.8640  178.5570  141.6160 C   0  0  0  0  0  0  0  0  0  0  0  0
  182.0660  177.8120  140.6190 O   0  0  0  0  0  0  0  0  0  0  0  0
  180.7530  179.5670  141.5550 C   0  0  0  0  0  2  0  0  0  0  0  0
  179.8720  179.2640  140.4350 N   0  0  0  0  0  2  0  0  0  0  0  0
  178.9780  178.2080  140.8750 C   0  0  0  0  0  2  0  0  0  0  0  0
  178.0680  176.6360  137.6070 C   0  0  0  0  0  3  0  0  0  0  0  0
  177.6910  175.5420  138.6110 C   0  0  0  0  0  3  0  0  0  0  0  0
  178.5780  177.7480  138.4670 C   0  0  0  0  0  3  0  0  0  0  0  0
  178.5490  177.3600  139.7260 C   0  0  0  0  0  0  0  0  0  0  0  0
  178.0890  176.0680  139.8680 O   0  0  0  0  0  0  0  0  0  0  0  0
  189.6230  177.7100  147.1270 N   0  0  0  0  0  0  0  0  0  0  0  0
  189.6920  177.0270  146.1970 C   0  0  0  0  0  0  0  0  0  0  0  0
  191.7930  175.1860  145.9520 O   0  0  0  0  0  0  0  0  0  0  0  0
  193.1640  174.9000  145.7290 C   0  0  0  0  0  2  0  0  0  0  0  0
  193.9690  176.1730  145.8610 C   0  0  0  0  0  1  0  0  0  0  0  0
  1  5  2  0  0  0  0
  1 10  1  0  0  0  0
  2 12  1  0  0  0  0
  3 62  1  0  0  0  0
  5 12  1  0  0  0  0
  6  7  1  0  0  0  0
  7 42  1  0  0  0  0
  7  2  1  0  0  0  0
  7  4  1  1  0  0  0
  8  3  1  0  0  0  0
  8 63  1  0  0  0  0
  9 11  1  0  0  0  0
  9  5  1  0  0  0  0
 10  8  2  0  0  0  0
 11  6  1  0  0  0  0
 12  3  2  0  0  0  0
 13 17  1  0  0  0  0
 13 15  1  0  0  0  0
 14 18  1  0  0  0  0
 14  1  1  1  0  0  0
 15 18  1  0  0  0  0
 16 14  1  0  0  0  0
 17 16  2  0  0  0  0
 19 24  1  0  0  0  0
 19 20  1  0  0  0  0
 20 26  1  1  0  0  0
 20 22  1  0  0  0  0
 21 19  2  0  0  0  0
 23 22  1  0  0  0  0
 24 13  1  1  0  0  0
 24 23  1  0  0  0  0
 25 26  2  0  0  0  0
 27 34  1  0  0  0  0
 27 40  1  1  0  0  0
 28 36  1  0  0  0  0
 29 33  1  0  0  0  0
 30 29  1  6  0  0  0
 30 35  1  0  0  0  0
 30 31  1  0  0  0  0
 31 34  1  0  0  0  0
 33 28  1  0  0  0  0
 33 37  1  1  0  0  0
 34 25  1  1  0  0  0
 35 32  1  6  0  0  0
 35 27  1  0  0  0  0
 36 27  1  0  0  0  0
 38 37  1  0  0  0  0
 39 40  1  0  0  0  0
 41 42  2  0  0  0  0
 42 43  1  0  0  0  0
 43 49  1  6  0  0  0
 43 44  1  0  0  0  0
 44 45  1  0  0  0  0
 45 48  1  0  0  0  0
 48 47  2  0  0  0  0
 48 46  1  0  0  0  0
 50 49  1  0  0  0  0
 51 50  1  0  0  0  0
 52 51  2  0  0  0  0
 53 51  1  0  0  0  0
 54 55  1  0  0  0  0
 54 53  1  0  0  0  0
 56 58  1  0  0  0  0
 56 57  2  0  0  0  0
 57 60  1  0  0  0  0
 58 59  2  0  0  0  0
 59 60  1  0  0  0  0
 59 55  1  0  0  0  0
 62 61  3  0  0  0  0
 64 65  1  0  0  0  0
 64 63  1  0  0  0  0
M  END
>  <MODEL>
5

>  <REMARK>
 VINA RESULT:      -3.5      3.423     12.375
  Name = 
  21 active torsions:
  status: ('A' for Active; 'I' for Inactive)
    1  A    between atoms: C_1  and  C_53
    2  A    between atoms: C_3  and  C_7
    3  A    between atoms: C_4  and  C_61
    4  A    between atoms: N_5  and  C_38
    5  A    between atoms: C_6  and  C_51
    6  A    between atoms: C_9  and  C_26
    7  A    between atoms: C_19  and  C_41
    8  A    between atoms: C_19  and  O_50
    9  A    between atoms: C_21  and  O_55
   10  A    between atoms: C_21  and  C_60
   11  A    between atoms: C_25  and  C_35
   12  A    between atoms: C_27  and  C_47
   13  A    between atoms: C_27  and  O_55
   14  A    between atoms: N_28  and  C_48
   15  A    between atoms: N_28  and  C_60
   16  A    between atoms: C_33  and  O_58
   17  A    between atoms: C_35  and  C_47
   18  A    between atoms: C_44  and  C_52
   19  A    between atoms: C_46  and  O_58
   20  A    between atoms: C_47  and  O_50
   21  A    between atoms: C_48  and  C_57
                            x       y       z     vdW  Elec       q    Type
                         _______ _______ _______ _____ _____    ______ ____

>  <TORSDO>
F 21

$$$$
=
 OpenBabel11042416393D

 65 71  0  0  1  0  0  0  0  0999 V2000
  191.3630  175.0050  143.6260 C   0  0  0  0  0  0  0  0  0  0  0  0
  188.2040  177.1390  143.5840 C   0  0  0  0  0  2  0  0  0  0  0  0
  189.6680  176.3200  145.4550 C   0  0  0  0  0  0  0  0  0  0  0  0
  186.3730  175.4260  143.5230 C   0  0  0  0  0  1  0  0  0  0  0  0
  190.1020  175.4800  143.2070 C   0  0  0  0  0  0  0  0  0  0  0  0
  187.5870  176.0840  141.4740 O   0  0  0  0  0  0  0  0  0  0  0  0
  187.0810  176.5330  142.7200 C   0  0  2  0  0  0  0  0  0  0  0  0
  190.8720  175.7530  145.8990 C   0  0  0  0  0  0  0  0  0  0  0  0
  189.6750  175.1890  141.9090 O   0  0  0  0  0  0  0  0  0  0  0  0
  191.7160  175.1270  144.9770 C   0  0  0  0  0  3  0  0  0  0  0  0
  188.3200  174.8980  141.6150 C   0  0  0  0  0  2  0  0  0  0  0  0
  189.2910  176.2210  144.0990 C   0  0  0  0  0  0  0  0  0  0  0  0
  194.9490  173.7040  141.6790 N   0  0  0  0  0  0  0  0  0  0  0  0
  192.3040  174.3190  142.6490 C   0  0  1  0  0  3  0  0  0  0  0  0
  194.1260  172.6300  142.2580 C   0  0  0  0  0  2  0  0  0  0  0  0
  193.1790  175.3260  141.9390 C   0  0  0  0  0  3  0  0  0  0  0  0
  194.3880  175.0110  141.4710 C   0  0  0  0  0  3  0  0  0  0  0  0
  193.1600  173.2080  143.2910 C   0  0  0  0  0  2  0  0  0  0  0  0
  196.3570  173.2090  139.7340 C   0  0  0  0  0  0  0  0  0  0  0  0
  197.2600  174.1520  139.0420 C   0  0  2  0  0  3  0  0  0  0  0  0
  195.8150  172.2560  139.1950 O   0  0  0  0  0  0  0  0  0  0  0  0
  197.5900  175.1910  140.0180 N   0  0  0  0  0  2  0  0  0  0  0  0
  197.1740  174.7150  141.3410 C   0  0  0  0  0  2  0  0  0  0  0  0
  196.3090  173.4670  141.1810 C   0  0  1  0  0  3  0  0  0  0  0  0
  196.2870  174.0460  136.7540 C   0  0  0  0  0  3  0  0  0  0  0  0
  196.6150  174.7710  137.8340 C   0  0  0  0  0  3  0  0  0  0  0  0
  195.3790  171.6700  136.1070 C   0  0  1  0  0  0  0  0  0  0  0  0
  195.7950  169.3360  137.2600 C   0  0  0  0  0  2  0  0  0  0  0  0
  197.9410  169.7070  135.8740 C   0  0  0  0  0  2  0  0  0  0  0  0
  197.4830  170.9650  135.1090 C   0  0  2  0  0  3  0  0  0  0  0  0
  197.7810  172.2390  135.8780 C   0  0  0  0  0  2  0  0  0  0  0  0
  195.4230  169.7920  134.5140 O   0  0  0  0  0  1  0  0  0  0  0  0
  197.3190  169.4570  137.2610 C   0  0  1  0  0  3  0  0  0  0  0  0
  196.5200  172.5580  136.6700 C   0  0  1  0  0  3  0  0  0  0  0  0
  195.9880  171.0250  134.8580 C   0  0  1  0  0  3  0  0  0  0  0  0
  195.0140  170.6620  137.2170 C   0  0  0  0  0  2  0  0  0  0  0  0
  197.8890  170.3460  138.3610 C   0  0  0  0  0  2  0  0  0  0  0  0
  197.9400  169.5990  139.6810 C   0  0  0  0  0  1  0  0  0  0  0  0
  194.2110  173.3140  134.5130 C   0  0  0  0  0  1  0  0  0  0  0  0
  194.0850  172.4250  135.7410 C   0  0  0  0  0  2  0  0  0  0  0  0
  186.1000  178.2090  141.1760 C   0  0  0  0  0  2  0  0  0  0  0  0
  186.0890  177.6500  142.3910 C   0  0  0  0  0  0  0  0  0  0  0  0
  184.9020  177.9900  143.2610 C   0  0  1  0  0  3  0  0  0  0  0  0
  185.2910  178.7410  144.3720 O   0  0  0  0  0  0  0  0  0  0  0  0
  184.1650  178.7700  145.1970 C   0  0  0  0  0  2  0  0  0  0  0  0
  185.5250  179.3240  147.0740 O   0  0  0  0  0  0  0  0  0  0  0  0
  183.9290  177.7090  147.4430 O   0  0  0  0  0  1  0  0  0  0  0  0
  184.5870  178.6160  146.6160 C   0  0  0  0  0  0  0  0  0  0  0  0
  183.8370  178.7490  142.4690 C   0  0  0  0  0  2  0  0  0  0  0  0
  183.2000  177.8600  141.5530 O   0  0  0  0  0  0  0  0  0  0  0  0
  182.3350  178.3120  140.5580 C   0  0  0  0  0  0  0  0  0  0  0  0
  181.9960  177.5340  139.6250 O   0  0  0  0  0  0  0  0  0  0  0  0
  181.6940  179.6680  140.6420 C   0  0  0  0  0  2  0  0  0  0  0  0
  180.2480  179.5390  140.5120 N   0  0  0  0  0  2  0  0  0  0  0  0
  179.6710  179.9800  141.7700 C   0  0  0  0  0  2  0  0  0  0  0  0
  177.8830  176.8850  142.8650 C   0  0  0  0  0  3  0  0  0  0  0  0
  178.0220  177.6630  144.1780 C   0  0  0  0  0  3  0  0  0  0  0  0
  178.5160  177.7820  141.8510 C   0  0  0  0  0  3  0  0  0  0  0  0
  178.9780  178.8550  142.4620 C   0  0  0  0  0  0  0  0  0  0  0  0
  178.7640  178.8190  143.8230 O   0  0  0  0  0  0  0  0  0  0  0  0
  188.1730  177.6110  147.1510 N   0  0  0  0  0  0  0  0  0  0  0  0
  188.8410  177.0390  146.3990 C   0  0  0  0  0  0  0  0  0  0  0  0
  191.2220  175.8310  147.2540 O   0  0  0  0  0  0  0  0  0  0  0  0
  192.3220  176.5950  147.7210 C   0  0  0  0  0  2  0  0  0  0  0  0
  191.8500  177.5420  148.8010 C   0  0  0  0  0  1  0  0  0  0  0  0
  1 10  1  0  0  0  0
  2 12  1  0  0  0  0
  3  8  1  0  0  0  0
  3 62  1  0  0  0  0
  5  1  2  0  0  0  0
  5 12  1  0  0  0  0
  6 11  1  0  0  0  0
  6  7  1  0  0  0  0
  7  4  1  1  0  0  0
  7  2  1  0  0  0  0
  8 63  1  0  0  0  0
  9  5  1  0  0  0  0
 10  8  2  0  0  0  0
 11  9  1  0  0  0  0
 12  3  2  0  0  0  0
 13 15  1  0  0  0  0
 14 18  1  0  0  0  0
 14  1  1  1  0  0  0
 15 18  1  0  0  0  0
 16 14  1  0  0  0  0
 17 13  1  0  0  0  0
 17 16  2  0  0  0  0
 19 24  1  0  0  0  0
 20 26  1  6  0  0  0
 20 19  1  0  0  0  0
 20 22  1  0  0  0  0
 21 19  2  0  0  0  0
 22 23  1  0  0  0  0
 24 23  1  6  0  0  0
 24 13  1  0  0  0  0
 25 26  2  0  0  0  0
 27 40  1  6  0  0  0
 27 34  1  0  0  0  0
 27 36  1  0  0  0  0
 28 33  1  0  0  0  0
 29 33  1  0  0  0  0
 30 29  1  1  0  0  0
 30 31  1  0  0  0  0
 31 34  1  0  0  0  0
 33 37  1  1  0  0  0
 34 25  1  6  0  0  0
 35 32  1  1  0  0  0
 35 30  1  0  0  0  0
 35 27  1  0  0  0  0
 36 28  1  0  0  0  0
 37 38  1  0  0  0  0
 39 40  1  0  0  0  0
 41 42  2  0  0  0  0
 42  7  1  0  0  0  0
 42 43  1  0  0  0  0
 43 49  1  6  0  0  0
 43 44  1  0  0  0  0
 44 45  1  0  0  0  0
 45 48  1  0  0  0  0
 48 46  2  0  0  0  0
 48 47  1  0  0  0  0
 50 49  1  0  0  0  0
 51 53  1  0  0  0  0
 51 50  1  0  0  0  0
 52 51  2  0  0  0  0
 54 53  1  0  0  0  0
 54 55  1  0  0  0  0
 55 59  1  0  0  0  0
 56 57  2  0  0  0  0
 58 59  2  0  0  0  0
 58 56  1  0  0  0  0
 59 60  1  0  0  0  0
 60 57  1  0  0  0  0
 62 61  3  0  0  0  0
 63 64  1  0  0  0  0
 64 65  1  0  0  0  0
M  END
>  <MODEL>
6

>  <REMARK>
 VINA RESULT:      -3.4      3.268     12.131
  Name = 
  21 active torsions:
  status: ('A' for Active; 'I' for Inactive)
    1  A    between atoms: C_1  and  C_53
    2  A    between atoms: C_3  and  C_7
    3  A    between atoms: C_4  and  C_61
    4  A    between atoms: N_5  and  C_38
    5  A    between atoms: C_6  and  C_51
    6  A    between atoms: C_9  and  C_26
    7  A    between atoms: C_19  and  C_41
    8  A    between atoms: C_19  and  O_50
    9  A    between atoms: C_21  and  O_55
   10  A    between atoms: C_21  and  C_60
   11  A    between atoms: C_25  and  C_35
   12  A    between atoms: C_27  and  C_47
   13  A    between atoms: C_27  and  O_55
   14  A    between atoms: N_28  and  C_48
   15  A    between atoms: N_28  and  C_60
   16  A    between atoms: C_33  and  O_58
   17  A    between atoms: C_35  and  C_47
   18  A    between atoms: C_44  and  C_52
   19  A    between atoms: C_46  and  O_58
   20  A    between atoms: C_47  and  O_50
   21  A    between atoms: C_48  and  C_57
                            x       y       z     vdW  Elec       q    Type
                         _______ _______ _______ _____ _____    ______ ____

>  <TORSDO>
F 21

$$$$
=
 OpenBabel11042416393D

 65 71  0  0  1  0  0  0  0  0999 V2000
  187.8720  175.2210  139.1630 C   0  0  0  0  0  0  0  0  0  0  0  0
  190.6800  172.9190  138.0000 C   0  0  0  0  0  2  0  0  0  0  0  0
  188.8570  174.1260  136.7590 C   0  0  0  0  0  0  0  0  0  0  0  0
  189.7030  170.6340  138.3330 C   0  0  0  0  0  1  0  0  0  0  0  0
  188.8050  174.1620  139.1970 C   0  0  0  0  0  0  0  0  0  0  0  0
  190.6860  171.8990  140.2140 O   0  0  0  0  0  0  0  0  0  0  0  0
  190.7760  171.6230  138.8260 C   0  0  2  0  0  0  0  0  0  0  0  0
  187.8500  175.1020  136.7230 C   0  0  0  0  0  0  0  0  0  0  0  0
  189.1400  173.6060  140.4340 O   0  0  0  0  0  0  0  0  0  0  0  0
  187.3900  175.6560  137.9220 C   0  0  0  0  0  3  0  0  0  0  0  0
  189.3740  172.2170  140.5900 C   0  0  0  0  0  2  0  0  0  0  0  0
  189.3690  173.6750  137.9950 C   0  0  0  0  0  0  0  0  0  0  0  0
  187.7620  177.2000  142.9590 N   0  0  0  0  0  0  0  0  0  0  0  0
  187.3510  175.8450  140.4480 C   0  0  1  0  0  3  0  0  0  0  0  0
  187.0680  177.9010  141.8670 C   0  0  0  0  0  2  0  0  0  0  0  0
  187.9530  175.1740  141.6610 C   0  0  0  0  0  3  0  0  0  0  0  0
  188.1060  175.8110  142.8230 C   0  0  0  0  0  3  0  0  0  0  0  0
  187.5470  177.3730  140.5160 C   0  0  0  0  0  2  0  0  0  0  0  0
  187.4960  177.0580  145.3930 C   0  0  0  0  0  0  0  0  0  0  0  0
  188.5550  176.7450  146.3740 C   0  0  2  0  0  3  0  0  0  0  0  0
  186.3110  176.8150  145.5610 O   0  0  0  0  0  0  0  0  0  0  0  0
  189.8230  177.0970  145.7330 N   0  0  0  0  0  2  0  0  0  0  0  0
  189.5180  177.9010  144.5440 C   0  0  0  0  0  2  0  0  0  0  0  0
  188.0200  177.8340  144.2580 C   0  0  1  0  0  3  0  0  0  0  0  0
  189.6140  174.4960  146.5080 C   0  0  0  0  0  3  0  0  0  0  0  0
  188.5620  175.2920  146.7570 C   0  0  0  0  0  3  0  0  0  0  0  0
  191.9880  175.5900  146.7440 C   0  0  1  0  0  0  0  0  0  0  0  0
  193.2350  177.2710  145.1410 C   0  0  0  0  0  2  0  0  0  0  0  0
  193.5880  174.9840  143.9970 C   0  0  0  0  0  2  0  0  0  0  0  0
  193.0100  174.0960  145.1180 C   0  0  2  0  0  3  0  0  0  0  0  0
  191.5090  173.9120  144.9830 C   0  0  0  0  0  2  0  0  0  0  0  0
  194.4310  175.2780  146.7180 O   0  0  0  0  0  1  0  0  0  0  0  0
  193.0460  176.4210  143.8840 C   0  0  1  0  0  3  0  0  0  0  0  0
  190.8730  174.9950  145.8440 C   0  0  1  0  0  3  0  0  0  0  0  0
  193.1890  174.6670  146.5120 C   0  0  1  0  0  3  0  0  0  0  0  0
  192.2120  177.0410  146.2680 C   0  0  0  0  0  2  0  0  0  0  0  0
  191.6610  176.5100  143.2530 C   0  0  0  0  0  2  0  0  0  0  0  0
  191.5730  175.6220  142.0260 C   0  0  0  0  0  1  0  0  0  0  0  0
  191.5590  177.0690  148.8010 C   0  0  0  0  0  1  0  0  0  0  0  0
  191.6470  175.6560  148.2460 C   0  0  0  0  0  2  0  0  0  0  0  0
  192.7420  171.1120  137.4020 C   0  0  0  0  0  2  0  0  0  0  0  0
  192.1690  171.0290  138.6070 C   0  0  0  0  0  0  0  0  0  0  0  0
  193.0690  170.5850  139.7350 C   0  0  1  0  0  3  0  0  0  0  0  0
  193.0860  169.1930  139.8490 O   0  0  0  0  0  0  0  0  0  0  0  0
  193.3120  168.9460  141.2040 C   0  0  0  0  0  2  0  0  0  0  0  0
  190.9730  168.8360  141.6420 O   0  0  0  0  0  0  0  0  0  0  0  0
  192.1990  170.1280  143.0980 O   0  0  0  0  0  1  0  0  0  0  0  0
  192.0940  169.3020  141.9820 C   0  0  0  0  0  0  0  0  0  0  0  0
  194.4940  171.1060  139.5420 C   0  0  0  0  0  2  0  0  0  0  0  0
  194.4680  172.5280  139.4260 O   0  0  0  0  0  0  0  0  0  0  0  0
  195.6330  173.2940  139.4110 C   0  0  0  0  0  0  0  0  0  0  0  0
  196.7550  172.7220  139.3390 O   0  0  0  0  0  0  0  0  0  0  0  0
  195.5770  174.7940  139.3470 C   0  0  0  0  0  2  0  0  0  0  0  0
  195.9610  175.2460  138.0170 N   0  0  0  0  0  2  0  0  0  0  0  0
  195.0770  174.5840  137.0740 C   0  0  0  0  0  2  0  0  0  0  0  0
  192.3620  176.6890  135.6000 C   0  0  0  0  0  3  0  0  0  0  0  0
  193.6270  177.3480  135.0390 C   0  0  0  0  0  3  0  0  0  0  0  0
  192.8860  175.5530  136.4180 C   0  0  0  0  0  3  0  0  0  0  0  0
  194.2030  175.5720  136.3790 C   0  0  0  0  0  0  0  0  0  0  0  0
  194.6920  176.6230  135.6330 O   0  0  0  0  0  0  0  0  0  0  0  0
  189.8050  173.2140  134.5130 N   0  0  0  0  0  0  0  0  0  0  0  0
  189.3870  173.6180  135.5130 C   0  0  0  0  0  0  0  0  0  0  0  0
  187.3280  175.5210  135.4930 O   0  0  0  0  0  0  0  0  0  0  0  0
  186.5870  176.7200  135.3400 C   0  0  0  0  0  2  0  0  0  0  0  0
  185.2660  176.4110  134.6720 C   0  0  0  0  0  1  0  0  0  0  0  0
  1  5  1  0  0  0  0
  2  7  1  0  0  0  0
  3 12  1  0  0  0  0
  5  9  1  0  0  0  0
  6 11  1  0  0  0  0
  7  4  1  6  0  0  0
  7  6  1  0  0  0  0
  8  3  2  0  0  0  0
  8 10  1  0  0  0  0
  9 11  1  0  0  0  0
 10  1  2  0  0  0  0
 12  2  1  0  0  0  0
 12  5  2  0  0  0  0
 14  1  1  6  0  0  0
 14 18  1  0  0  0  0
 14 16  1  0  0  0  0
 15 13  1  0  0  0  0
 16 17  2  0  0  0  0
 17 13  1  0  0  0  0
 18 15  1  0  0  0  0
 19 21  2  0  0  0  0
 19 20  1  0  0  0  0
 20 26  1  6  0  0  0
 22 20  1  0  0  0  0
 23 22  1  0  0  0  0
 24 13  1  6  0  0  0
 24 23  1  0  0  0  0
 24 19  1  0  0  0  0
 25 26  2  0  0  0  0
 27 40  1  1  0  0  0
 28 36  1  0  0  0  0
 30 29  1  6  0  0  0
 30 35  1  0  0  0  0
 31 30  1  0  0  0  0
 31 34  1  0  0  0  0
 33 37  1  1  0  0  0
 33 29  1  0  0  0  0
 33 28  1  0  0  0  0
 34 25  1  1  0  0  0
 34 27  1  0  0  0  0
 35 32  1  6  0  0  0
 35 27  1  0  0  0  0
 36 27  1  0  0  0  0
 38 37  1  0  0  0  0
 40 39  1  0  0  0  0
 41 42  2  0  0  0  0
 42  7  1  0  0  0  0
 42 43  1  0  0  0  0
 43 49  1  6  0  0  0
 43 44  1  0  0  0  0
 44 45  1  0  0  0  0
 45 48  1  0  0  0  0
 46 48  2  0  0  0  0
 48 47  1  0  0  0  0
 50 49  1  0  0  0  0
 51 50  1  0  0  0  0
 52 51  2  0  0  0  0
 53 51  1  0  0  0  0
 54 53  1  0  0  0  0
 55 54  1  0  0  0  0
 56 58  1  0  0  0  0
 57 56  2  0  0  0  0
 57 60  1  0  0  0  0
 59 58  2  0  0  0  0
 59 55  1  0  0  0  0
 60 59  1  0  0  0  0
 61 62  3  0  0  0  0
 62  3  1  0  0  0  0
 63  8  1  0  0  0  0
 64 63  1  0  0  0  0
 65 64  1  0  0  0  0
M  END
>  <MODEL>
7

>  <REMARK>
 VINA RESULT:      -3.4      2.818      7.603
  Name = 
  21 active torsions:
  status: ('A' for Active; 'I' for Inactive)
    1  A    between atoms: C_1  and  C_53
    2  A    between atoms: C_3  and  C_7
    3  A    between atoms: C_4  and  C_61
    4  A    between atoms: N_5  and  C_38
    5  A    between atoms: C_6  and  C_51
    6  A    between atoms: C_9  and  C_26
    7  A    between atoms: C_19  and  C_41
    8  A    between atoms: C_19  and  O_50
    9  A    between atoms: C_21  and  O_55
   10  A    between atoms: C_21  and  C_60
   11  A    between atoms: C_25  and  C_35
   12  A    between atoms: C_27  and  C_47
   13  A    between atoms: C_27  and  O_55
   14  A    between atoms: N_28  and  C_48
   15  A    between atoms: N_28  and  C_60
   16  A    between atoms: C_33  and  O_58
   17  A    between atoms: C_35  and  C_47
   18  A    between atoms: C_44  and  C_52
   19  A    between atoms: C_46  and  O_58
   20  A    between atoms: C_47  and  O_50
   21  A    between atoms: C_48  and  C_57
                            x       y       z     vdW  Elec       q    Type
                         _______ _______ _______ _____ _____    ______ ____

>  <TORSDO>
F 21

$$$$
=
 OpenBabel11042416393D

 65 71  0  0  1  0  0  0  0  0999 V2000
  187.7730  175.6860  140.7790 C   0  0  0  0  0  0  0  0  0  0  0  0
  188.1610  177.0390  144.3230 C   0  0  0  0  0  2  0  0  0  0  0  0
  186.8810  177.8690  142.3260 C   0  0  0  0  0  0  0  0  0  0  0  0
  190.2980  178.3450  144.1920 C   0  0  0  0  0  1  0  0  0  0  0  0
  188.3860  175.9740  142.0180 C   0  0  0  0  0  0  0  0  0  0  0  0
  190.3070  175.8900  144.4670 O   0  0  0  0  0  0  0  0  0  0  0  0
  189.6290  177.0930  144.7880 C   0  0  2  0  0  0  0  0  0  0  0  0
  186.3460  177.6510  141.0470 C   0  0  0  0  0  0  0  0  0  0  0  0
  189.5010  175.2270  142.4020 O   0  0  0  0  0  0  0  0  0  0  0  0
  186.7790  176.5500  140.3020 C   0  0  0  0  0  3  0  0  0  0  0  0
  190.5900  175.8110  143.0970 C   0  0  0  0  0  2  0  0  0  0  0  0
  187.8780  177.0110  142.8360 C   0  0  0  0  0  0  0  0  0  0  0  0
  189.9100  172.2050  139.4940 N   0  0  0  0  0  0  0  0  0  0  0  0
  188.2210  174.4980  139.9440 C   0  0  1  0  0  3  0  0  0  0  0  0
  188.4720  172.0050  139.7310 C   0  0  0  0  0  2  0  0  0  0  0  0
  189.6840  174.6070  139.5820 C   0  0  0  0  0  3  0  0  0  0  0  0
  190.4400  173.5340  139.3480 C   0  0  0  0  0  3  0  0  0  0  0  0
  187.9210  173.1340  140.6000 C   0  0  0  0  0  2  0  0  0  0  0  0
  192.0340  171.4660  138.5170 C   0  0  0  0  0  0  0  0  0  0  0  0
  193.2700  171.1340  139.2550 C   0  0  2  0  0  3  0  0  0  0  0  0
  192.0110  171.8880  137.3700 O   0  0  0  0  0  0  0  0  0  0  0  0
  192.8530  170.7760  140.6110 N   0  0  0  0  0  2  0  0  0  0  0  0
  191.3990  170.5770  140.5960 C   0  0  0  0  0  2  0  0  0  0  0  0
  190.8320  171.0840  139.2730 C   0  0  1  0  0  3  0  0  0  0  0  0
  195.1610  172.3990  140.2640 C   0  0  0  0  0  3  0  0  0  0  0  0
  194.2300  172.2890  139.3030 C   0  0  0  0  0  3  0  0  0  0  0  0
  196.2300  170.1410  141.0670 C   0  0  1  0  0  0  0  0  0  0  0  0
  195.2420  168.2790  142.6510 C   0  0  0  0  0  2  0  0  0  0  0  0
  196.0410  170.0990  144.2970 C   0  0  0  0  0  2  0  0  0  0  0  0
  196.7670  171.0010  143.2790 C   0  0  2  0  0  3  0  0  0  0  0  0
  195.8310  172.0120  142.6430 C   0  0  0  0  0  2  0  0  0  0  0  0
  197.9410  169.0260  142.4430 O   0  0  0  0  0  1  0  0  0  0  0  0
  194.8700  169.2450  143.7770 C   0  0  1  0  0  3  0  0  0  0  0  0
  195.3310  171.3720  141.3560 C   0  0  1  0  0  3  0  0  0  0  0  0
  197.3560  170.2500  142.0990 C   0  0  1  0  0  3  0  0  0  0  0  0
  195.3390  168.8930  141.2420 C   0  0  0  0  0  2  0  0  0  0  0  0
  193.5860  170.0340  143.5450 C   0  0  0  0  0  2  0  0  0  0  0  0
  193.2960  170.9420  144.7260 C   0  0  0  0  0  1  0  0  0  0  0  0
  196.0740  169.1380  138.7060 C   0  0  0  0  0  1  0  0  0  0  0  0
  196.8150  170.0800  139.6420 C   0  0  0  0  0  2  0  0  0  0  0  0
  189.9250  178.3420  146.9110 C   0  0  0  0  0  2  0  0  0  0  0  0
  189.6340  177.1810  146.3160 C   0  0  0  0  0  0  0  0  0  0  0  0
  189.0660  176.1060  147.2110 C   0  0  1  0  0  3  0  0  0  0  0  0
  187.8190  175.6740  146.7520 O   0  0  0  0  0  0  0  0  0  0  0  0
  186.9260  176.0040  147.7730 C   0  0  0  0  0  2  0  0  0  0  0  0
  186.2150  178.2690  147.9740 O   0  0  0  0  0  1  0  0  0  0  0  0
  185.2470  177.0690  146.2670 O   0  0  0  0  0  0  0  0  0  0  0  0
  186.1080  177.1760  147.3560 C   0  0  0  0  0  0  0  0  0  0  0  0
  190.0200  174.9160  147.3200 C   0  0  0  0  0  2  0  0  0  0  0  0
  191.3250  175.3820  147.6560 O   0  0  0  0  0  0  0  0  0  0  0  0
  192.4240  175.1810  146.8210 C   0  0  0  0  0  0  0  0  0  0  0  0
  192.5280  174.1030  146.1750 O   0  0  0  0  0  0  0  0  0  0  0  0
  193.4240  176.2740  146.5760 C   0  0  0  0  0  2  0  0  0  0  0  0
  194.6670  175.7020  146.0740 N   0  0  0  0  0  2  0  0  0  0  0  0
  194.3420  175.0000  144.8450 C   0  0  0  0  0  2  0  0  0  0  0  0
  196.8150  176.2430  142.3320 C   0  0  0  0  0  3  0  0  0  0  0  0
  195.4770  176.5980  141.6760 C   0  0  0  0  0  3  0  0  0  0  0  0
  196.4190  175.6090  143.6270 C   0  0  0  0  0  3  0  0  0  0  0  0
  195.1040  175.5610  143.6930 C   0  0  0  0  0  0  0  0  0  0  0  0
  194.5020  176.0760  142.5650 O   0  0  0  0  0  0  0  0  0  0  0  0
  185.9540  179.8290  143.7660 N   0  0  0  0  0  0  0  0  0  0  0  0
  186.3680  178.9610  143.1240 C   0  0  0  0  0  0  0  0  0  0  0  0
  185.3780  178.5270  140.5370 O   0  0  0  0  0  0  0  0  0  0  0  0
  183.9950  178.3940  140.8200 C   0  0  0  0  0  2  0  0  0  0  0  0
  183.3300  177.6120  139.7100 C   0  0  0  0  0  1  0  0  0  0  0  0
  1  5  1  0  0  0  0
  2  7  1  0  0  0  0
  3 12  1  0  0  0  0
  3 62  1  0  0  0  0
  5  9  1  0  0  0  0
  5 12  2  0  0  0  0
  6  7  1  0  0  0  0
  7  4  1  6  0  0  0
  7 42  1  0  0  0  0
  8  3  2  0  0  0  0
  9 11  1  0  0  0  0
 10  1  2  0  0  0  0
 10  8  1  0  0  0  0
 11  6  1  0  0  0  0
 12  2  1  0  0  0  0
 13 15  1  0  0  0  0
 14 18  1  0  0  0  0
 14  1  1  1  0  0  0
 15 18  1  0  0  0  0
 16 14  1  0  0  0  0
 17 13  1  0  0  0  0
 17 16  2  0  0  0  0
 19 20  1  0  0  0  0
 19 24  1  0  0  0  0
 20 26  1  1  0  0  0
 20 22  1  0  0  0  0
 21 19  2  0  0  0  0
 23 22  1  0  0  0  0
 24 13  1  1  0  0  0
 24 23  1  0  0  0  0
 26 25  2  0  0  0  0
 27 40  1  6  0  0  0
 27 36  1  0  0  0  0
 27 34  1  0  0  0  0
 27 35  1  0  0  0  0
 28 33  1  0  0  0  0
 30 31  1  6  0  0  0
 30 29  1  0  0  0  0
 33 37  1  6  0  0  0
 33 29  1  0  0  0  0
 34 25  1  6  0  0  0
 34 31  1  0  0  0  0
 35 32  1  1  0  0  0
 35 30  1  0  0  0  0
 36 28  1  0  0  0  0
 37 38  1  0  0  0  0
 39 40  1  0  0  0  0
 42 41  2  0  0  0  0
 42 43  1  0  0  0  0
 43 49  1  6  0  0  0
 44 43  1  0  0  0  0
 44 45  1  0  0  0  0
 47 48  2  0  0  0  0
 48 45  1  0  0  0  0
 48 46  1  0  0  0  0
 49 50  1  0  0  0  0
 51 50  1  0  0  0  0
 52 51  2  0  0  0  0
 53 51  1  0  0  0  0
 54 53  1  0  0  0  0
 55 54  1  0  0  0  0
 56 58  1  0  0  0  0
 57 56  2  0  0  0  0
 57 60  1  0  0  0  0
 58 59  2  0  0  0  0
 59 55  1  0  0  0  0
 60 59  1  0  0  0  0
 62 61  3  0  0  0  0
 63 64  1  0  0  0  0
 63  8  1  0  0  0  0
 65 64  1  0  0  0  0
M  END
>  <MODEL>
8

>  <REMARK>
 VINA RESULT:      -3.3      2.452     11.271
  Name = 
  21 active torsions:
  status: ('A' for Active; 'I' for Inactive)
    1  A    between atoms: C_1  and  C_53
    2  A    between atoms: C_3  and  C_7
    3  A    between atoms: C_4  and  C_61
    4  A    between atoms: N_5  and  C_38
    5  A    between atoms: C_6  and  C_51
    6  A    between atoms: C_9  and  C_26
    7  A    between atoms: C_19  and  C_41
    8  A    between atoms: C_19  and  O_50
    9  A    between atoms: C_21  and  O_55
   10  A    between atoms: C_21  and  C_60
   11  A    between atoms: C_25  and  C_35
   12  A    between atoms: C_27  and  C_47
   13  A    between atoms: C_27  and  O_55
   14  A    between atoms: N_28  and  C_48
   15  A    between atoms: N_28  and  C_60
   16  A    between atoms: C_33  and  O_58
   17  A    between atoms: C_35  and  C_47
   18  A    between atoms: C_44  and  C_52
   19  A    between atoms: C_46  and  O_58
   20  A    between atoms: C_47  and  O_50
   21  A    between atoms: C_48  and  C_57
                            x       y       z     vdW  Elec       q    Type
                         _______ _______ _______ _____ _____    ______ ____

>  <TORSDO>
F 21

$$$$
=
 OpenBabel11042416393D

 65 71  0  0  1  0  0  0  0  0999 V2000
  190.9800  175.0320  143.3020 C   0  0  0  0  0  0  0  0  0  0  0  0
  187.9940  177.4000  143.1930 C   0  0  0  0  0  2  0  0  0  0  0  0
  189.2980  176.4070  145.0990 C   0  0  0  0  0  0  0  0  0  0  0  0
  186.0460  175.8350  142.9810 C   0  0  0  0  0  1  0  0  0  0  0  0
  189.7790  175.6150  142.8430 C   0  0  0  0  0  0  0  0  0  0  0  0
  187.4060  176.4690  141.0180 O   0  0  0  0  0  0  0  0  0  0  0  0
  186.8730  176.9120  142.2550 C   0  0  2  0  0  0  0  0  0  0  0  0
  190.4320  175.7350  145.5770 C   0  0  0  0  0  0  0  0  0  0  0  0
  189.3980  175.4030  141.5160 O   0  0  0  0  0  0  0  0  0  0  0  0
  191.2730  175.0790  144.6720 C   0  0  0  0  0  3  0  0  0  0  0  0
  188.0410  175.2270  141.1480 C   0  0  0  0  0  2  0  0  0  0  0  0
  188.9830  176.3840  143.7240 C   0  0  0  0  0  0  0  0  0  0  0  0
  194.4600  173.1220  141.6960 N   0  0  0  0  0  0  0  0  0  0  0  0
  191.9140  174.3100  142.3440 C   0  0  1  0  0  3  0  0  0  0  0  0
  193.2720  172.2610  141.8150 C   0  0  0  0  0  2  0  0  0  0  0  0
  193.1650  175.1210  142.0920 C   0  0  0  0  0  3  0  0  0  0  0  0
  194.3260  174.5510  141.7640 C   0  0  0  0  0  3  0  0  0  0  0  0
  192.2720  172.8780  142.7920 C   0  0  0  0  0  2  0  0  0  0  0  0
  195.9450  172.2140  139.9700 C   0  0  0  0  0  0  0  0  0  0  0  0
  197.0950  172.9050  139.3500 C   0  0  2  0  0  3  0  0  0  0  0  0
  195.2840  171.3500  139.4150 O   0  0  0  0  0  0  0  0  0  0  0  0
  197.5200  173.9280  140.3060 N   0  0  0  0  0  2  0  0  0  0  0  0
  196.8690  173.6430  141.5890 C   0  0  0  0  0  2  0  0  0  0  0  0
  195.7890  172.5830  141.3850 C   0  0  1  0  0  3  0  0  0  0  0  0
  196.4480  172.8240  136.9480 C   0  0  0  0  0  3  0  0  0  0  0  0
  196.7320  173.5480  138.0410 C   0  0  0  0  0  3  0  0  0  0  0  0
  195.4020  170.5810  136.0740 C   0  0  1  0  0  0  0  0  0  0  0  0
  195.0810  168.2760  137.3130 C   0  0  0  0  0  2  0  0  0  0  0  0
  197.5690  168.2430  136.6290 C   0  0  0  0  0  2  0  0  0  0  0  0
  197.5650  169.5130  135.7550 C   0  0  2  0  0  3  0  0  0  0  0  0
  197.8230  170.7680  136.5690 C   0  0  0  0  0  2  0  0  0  0  0  0
  195.6100  168.6350  134.5790 O   0  0  0  0  0  1  0  0  0  0  0  0
  196.5360  168.1660  137.7690 C   0  0  1  0  0  3  0  0  0  0  0  0
  196.4530  171.3150  136.9460 C   0  0  1  0  0  3  0  0  0  0  0  0
  196.2390  169.7860  135.0680 C   0  0  1  0  0  3  0  0  0  0  0  0
  194.5700  169.7010  137.0310 C   0  0  0  0  0  2  0  0  0  0  0  0
  196.8930  169.0160  138.9830 C   0  0  0  0  0  2  0  0  0  0  0  0
  197.9400  168.3210  139.8340 C   0  0  0  0  0  1  0  0  0  0  0  0
  193.0260  171.5560  135.9610 C   0  0  0  0  0  1  0  0  0  0  0  0
  194.4110  171.5020  135.3340 C   0  0  0  0  0  2  0  0  0  0  0  0
  186.0400  178.6600  140.7050 C   0  0  0  0  0  2  0  0  0  0  0  0
  185.9840  178.1120  141.9230 C   0  0  0  0  0  0  0  0  0  0  0  0
  184.8370  178.5630  142.7950 C   0  0  1  0  0  3  0  0  0  0  0  0
  185.2330  179.5870  143.6590 O   0  0  0  0  0  0  0  0  0  0  0  0
  184.2410  179.6330  144.6400 C   0  0  0  0  0  2  0  0  0  0  0  0
  184.4470  177.9870  146.3500 O   0  0  0  0  0  0  0  0  0  0  0  0
  185.7060  179.8900  146.6420 O   0  0  0  0  0  1  0  0  0  0  0  0
  184.7910  179.1230  145.9250 C   0  0  0  0  0  0  0  0  0  0  0  0
  183.6500  179.0270  141.9510 C   0  0  0  0  0  2  0  0  0  0  0  0
  182.4570  178.9610  142.7300 O   0  0  0  0  0  0  0  0  0  0  0  0
  181.1960  178.8350  142.1490 C   0  0  0  0  0  0  0  0  0  0  0  0
  180.1810  178.6950  142.8850 O   0  0  0  0  0  0  0  0  0  0  0  0
  181.0030  178.9920  140.6680 C   0  0  0  0  0  2  0  0  0  0  0  0
  179.5820  178.9500  140.3480 N   0  0  0  0  0  2  0  0  0  0  0  0
  179.0260  180.2380  140.7260 C   0  0  0  0  0  2  0  0  0  0  0  0
  178.9800  182.8110  138.0140 C   0  0  0  0  0  3  0  0  0  0  0  0
  177.9000  181.8270  137.5490 C   0  0  0  0  0  3  0  0  0  0  0  0
  179.4590  182.2290  139.3050 C   0  0  0  0  0  3  0  0  0  0  0  0
  178.8170  181.1000  139.5270 C   0  0  0  0  0  0  0  0  0  0  0  0
  177.9340  180.7890  138.5150 O   0  0  0  0  0  0  0  0  0  0  0  0
  187.8230  177.7440  146.7760 N   0  0  0  0  0  0  0  0  0  0  0  0
  188.4800  177.1540  146.0300 C   0  0  0  0  0  0  0  0  0  0  0  0
  190.7200  175.7390  146.9480 O   0  0  0  0  0  0  0  0  0  0  0  0
  191.5700  176.7000  147.5530 C   0  0  0  0  0  2  0  0  0  0  0  0
  192.9880  176.4870  147.0720 C   0  0  0  0  0  1  0  0  0  0  0  0
  1 10  1  0  0  0  0
  2 12  1  0  0  0  0
  3  8  1  0  0  0  0
  3 62  1  0  0  0  0
  5  1  2  0  0  0  0
  5 12  1  0  0  0  0
  6 11  1  0  0  0  0
  6  7  1  0  0  0  0
  7  4  1  1  0  0  0
  7  2  1  0  0  0  0
  8 63  1  0  0  0  0
  9  5  1  0  0  0  0
 10  8  2  0  0  0  0
 11  9  1  0  0  0  0
 12  3  2  0  0  0  0
 13 17  1  0  0  0  0
 13 15  1  0  0  0  0
 14 18  1  0  0  0  0
 14  1  1  1  0  0  0
 15 18  1  0  0  0  0
 16 14  1  0  0  0  0
 17 16  2  0  0  0  0
 19 24  1  0  0  0  0
 20 26  1  6  0  0  0
 20 19  1  0  0  0  0
 20 22  1  0  0  0  0
 21 19  2  0  0  0  0
 22 23  1  0  0  0  0
 24 23  1  6  0  0  0
 24 13  1  0  0  0  0
 25 26  2  0  0  0  0
 27 40  1  6  0  0  0
 27 34  1  0  0  0  0
 27 36  1  0  0  0  0
 28 33  1  0  0  0  0
 29 33  1  0  0  0  0
 30 31  1  1  0  0  0
 30 29  1  0  0  0  0
 31 34  1  0  0  0  0
 33 37  1  1  0  0  0
 34 25  1  6  0  0  0
 35 32  1  1  0  0  0
 35 30  1  0  0  0  0
 35 27  1  0  0  0  0
 36 28  1  0  0  0  0
 37 38  1  0  0  0  0
 40 39  1  0  0  0  0
 41 42  2  0  0  0  0
 42  7  1  0  0  0  0
 42 43  1  0  0  0  0
 43 49  1  6  0  0  0
 43 44  1  0  0  0  0
 44 45  1  0  0  0  0
 45 48  1  0  0  0  0
 48 46  2  0  0  0  0
 48 47  1  0  0  0  0
 49 50  1  0  0  0  0
 51 50  1  0  0  0  0
 51 52  2  0  0  0  0
 53 51  1  0  0  0  0
 54 53  1  0  0  0  0
 54 55  1  0  0  0  0
 56 58  1  0  0  0  0
 57 56  2  0  0  0  0
 57 60  1  0  0  0  0
 58 59  2  0  0  0  0
 59 55  1  0  0  0  0
 60 59  1  0  0  0  0
 62 61  3  0  0  0  0
 63 64  1  0  0  0  0
 65 64  1  0  0  0  0
M  END
>  <MODEL>
9

>  <REMARK>
 VINA RESULT:      -3.1      3.657     12.500
  Name = 
  21 active torsions:
  status: ('A' for Active; 'I' for Inactive)
    1  A    between atoms: C_1  and  C_53
    2  A    between atoms: C_3  and  C_7
    3  A    between atoms: C_4  and  C_61
    4  A    between atoms: N_5  and  C_38
    5  A    between atoms: C_6  and  C_51
    6  A    between atoms: C_9  and  C_26
    7  A    between atoms: C_19  and  C_41
    8  A    between atoms: C_19  and  O_50
    9  A    between atoms: C_21  and  O_55
   10  A    between atoms: C_21  and  C_60
   11  A    between atoms: C_25  and  C_35
   12  A    between atoms: C_27  and  C_47
   13  A    between atoms: C_27  and  O_55
   14  A    between atoms: N_28  and  C_48
   15  A    between atoms: N_28  and  C_60
   16  A    between atoms: C_33  and  O_58
   17  A    between atoms: C_35  and  C_47
   18  A    between atoms: C_44  and  C_52
   19  A    between atoms: C_46  and  O_58
   20  A    between atoms: C_47  and  O_50
   21  A    between atoms: C_48  and  C_57
                            x       y       z     vdW  Elec       q    Type
                         _______ _______ _______ _____ _____    ______ ____

>  <TORSDO>
F 21

$$$$
