=
 OpenBabel11042415563D

 52 53  0  0  1  0  0  0  0  0999 V2000
  188.5450  175.9740  145.7090 N   0  0  0  0  0  0  0  0  0  0  0  0
  186.3890  176.9160  144.9600 C   0  0  0  0  0  2  0  0  0  0  0  0
  187.1150  176.1000  146.0560 C   0  0  2  0  0  3  0  0  0  0  0  0
  186.8840  178.2210  147.4230 C   0  0  0  0  0  2  0  0  0  0  0  0
  184.6440  179.0530  147.4370 O   0  0  0  0  0  1  0  0  0  0  0  0
  185.7070  178.7420  146.5890 C   0  0  2  0  0  3  0  0  0  0  0  0
  185.2300  177.7560  145.5090 C   0  0  1  0  0  3  0  0  0  0  0  0
  186.8970  176.6970  147.4640 C   0  0  0  0  0  2  0  0  0  0  0  0
  184.5670  178.5260  144.3800 C   0  0  0  0  0  2  0  0  0  0  0  0
  185.6170  179.2520  143.5610 C   0  0  0  0  0  2  0  0  0  0  0  0
  185.5600  178.8160  142.1080 C   0  0  0  0  0  2  0  0  0  0  0  0
  184.2540  178.0850  141.8260 C   0  0  0  0  0  1  0  0  0  0  0  0
  189.2680  177.2350  145.8840 C   0  0  0  0  0  2  0  0  0  0  0  0
  189.2340  178.0270  144.5940 C   0  0  0  0  0  2  0  0  0  0  0  0
  189.8680  177.2100  143.4850 C   0  0  0  0  0  2  0  0  0  0  0  0
  188.9280  177.1650  142.2920 C   0  0  0  0  0  2  0  0  0  0  0  0
  187.3010  175.4460  142.0050 O   0  0  0  0  0  0  0  0  0  0  0  0
  188.5220  175.7570  142.0000 C   0  0  0  0  0  0  0  0  0  0  0  0
  189.5210  174.7690  141.7270 N   0  0  0  0  0  2  0  0  0  0  0  0
  189.1900  173.3830  141.4450 C   0  0  0  0  0  2  0  0  0  0  0  0
  189.9340  172.9180  140.2030 C   0  0  0  0  0  2  0  0  0  0  0  0
  193.3890  171.4960  141.0260 N   0  0  0  0  0  2  0  0  0  0  0  0
  191.0180  172.0150  140.5680 N   0  0  0  0  0  2  0  0  0  0  0  0
  192.6310  173.6930  140.7870 O   0  0  0  0  0  0  0  0  0  0  0  0
  192.3600  172.4590  140.7870 C   0  0  0  0  0  0  0  0  0  0  0  0
  194.7910  171.8620  141.1480 C   0  0  0  0  0  2  0  0  0  0  0  0
  195.5860  171.2600  140.0000 C   0  0  0  0  0  1  0  0  0  0  0  0
  189.1840  174.9290  146.5260 C   0  0  0  0  0  2  0  0  0  0  0  0
  190.6770  174.7330  146.2290 C   0  0  0  0  0  2  0  0  0  0  0  0
  190.8890  174.4460  144.8530 O   0  0  0  0  0  0  0  0  0  0  0  0
  191.7950  173.4750  144.4200 C   0  0  0  0  0  0  0  0  0  0  0  0
  191.4130  172.2900  144.2130 O   0  0  0  0  0  0  0  0  0  0  0  0
  193.2300  173.8500  144.2320 C   0  0  2  0  0  3  0  0  0  0  0  0
  193.9890  173.6130  145.4170 O   0  0  0  0  0  0  0  0  0  0  0  0
  197.1800  171.7720  145.6520 C   0  0  0  0  0  3  0  0  0  0  0  0
  196.7330  170.4610  145.8370 C   0  0  0  0  0  3  0  0  0  0  0  0
  194.8860  172.5510  145.5520 C   0  0  0  0  0  0  0  0  0  0  0  0
  195.3640  170.1910  145.8740 C   0  0  0  0  0  3  0  0  0  0  0  0
  196.2590  172.8120  145.5100 C   0  0  0  0  0  3  0  0  0  0  0  0
  194.4430  171.2310  145.7300 C   0  0  0  0  0  3  0  0  0  0  0  0
  193.3220  175.3130  143.8370 C   0  0  0  0  0  2  0  0  0  0  0  0
  194.7690  175.7850  143.7340 C   0  0  0  0  0  2  0  0  0  0  0  0
  196.0720  175.7010  141.5530 C   0  0  0  0  0  0  0  0  0  0  0  0
  196.6790  174.8940  140.5440 N   0  0  0  0  0  2  0  0  0  0  0  0
  195.4820  175.0630  142.6880 N   0  0  0  0  0  2  0  0  0  0  0  0
  196.0600  176.9600  141.4420 O   0  0  0  0  0  0  0  0  0  0  0  0
  197.1250  175.4350  139.2710 C   0  0  0  0  0  2  0  0  0  0  0  0
  197.2890  174.3200  138.2920 C   0  0  0  0  0  3  0  0  0  0  0  0
  196.9400  174.3740  137.0030 C   0  0  0  0  0  3  0  0  0  0  0  0
  196.3700  175.5350  136.2990 C   0  0  0  0  0  0  0  0  0  0  0  0
  194.9160  175.5530  136.0070 C   0  0  0  0  0  1  0  0  0  0  0  0
  197.0900  176.4920  135.9060 O   0  0  0  0  0  0  0  0  0  0  0  0
  1 13  1  0  0  0  0
  1 28  1  0  0  0  0
  2  7  1  0  0  0  0
  2  3  1  0  0  0  0
  3  1  1  6  0  0  0
  3  8  1  0  0  0  0
  4  8  1  0  0  0  0
  6  4  1  0  0  0  0
  6  5  1  1  0  0  0
  7  9  1  6  0  0  0
  7  6  1  0  0  0  0
 10  9  1  0  0  0  0
 11 10  1  0  0  0  0
 12 11  1  0  0  0  0
 14 13  1  0  0  0  0
 15 14  1  0  0  0  0
 16 15  1  0  0  0  0
 18 17  2  0  0  0  0
 18 16  1  0  0  0  0
 19 18  1  0  0  0  0
 20 19  1  0  0  0  0
 21 23  1  0  0  0  0
 21 20  1  0  0  0  0
 22 26  1  0  0  0  0
 23 25  1  0  0  0  0
 25 24  2  0  0  0  0
 25 22  1  0  0  0  0
 27 26  1  0  0  0  0
 29 28  1  0  0  0  0
 30 29  1  0  0  0  0
 31 30  1  0  0  0  0
 32 31  2  0  0  0  0
 33 41  1  1  0  0  0
 33 31  1  0  0  0  0
 33 34  1  0  0  0  0
 34 37  1  0  0  0  0
 35 36  1  0  0  0  0
 36 38  2  0  0  0  0
 37 40  2  0  0  0  0
 39 37  1  0  0  0  0
 39 35  2  0  0  0  0
 40 38  1  0  0  0  0
 42 41  1  0  0  0  0
 43 45  1  0  0  0  0
 44 43  1  0  0  0  0
 45 42  1  0  0  0  0
 46 43  2  0  0  0  0
 47 44  1  0  0  0  0
 48 47  1  0  0  0  0
 49 48  2  0  0  0  0
 50 49  1  0  0  0  0
 51 50  1  0  0  0  0
 52 50  2  0  0  0  0
M  END
>  <MODEL>
1

>  <REMARK>
 VINA RESULT:      -5.5      0.000      0.000
  Name = 
  26 active torsions:
  status: ('A' for Active; 'I' for Inactive)
    1  A    between atoms: C_1  and  N_24
    2  A    between atoms: C_1  and  C_28
    3  A    between atoms: O_2  and  C_12
    4  A    between atoms: O_2  and  C_21
    5  A    between atoms: N_3  and  C_20
    6  A    between atoms: C_5  and  C_8
    7  A    between atoms: C_5  and  N_43
    8  A    between atoms: C_7  and  C_11
    9  A    between atoms: C_8  and  N_22
   10  A    between atoms: C_10  and  N_13
   11  A    between atoms: C_11  and  C_49
   12  A    between atoms: C_12  and  C_48
   13  A    between atoms: N_13  and  C_36
   14  A    between atoms: N_13  and  C_48
   15  A    between atoms: C_16  and  O_40
   16  A    between atoms: C_19  and  C_38
   17  A    between atoms: C_21  and  C_42
   18  A    between atoms: N_27  and  C_31
   19  A    between atoms: C_31  and  C_47
   20  A    between atoms: C_35  and  C_36
   21  A    between atoms: C_35  and  C_37
   22  A    between atoms: C_37  and  C_45
   23  A    between atoms: C_39  and  C_45
   24  A    between atoms: O_40  and  C_42
   25  A    between atoms: C_42  and  C_47
   26  A    between atoms: C_49  and  C_50
                            x       y       z     vdW  Elec       q    Type
                         _______ _______ _______ _____ _____    ______ ____

>  <TORSDO>
F 26

$$$$
=
 OpenBabel11042415563D

 52 53  0  0  1  0  0  0  0  0999 V2000
  190.7820  175.8340  143.6100 N   0  0  0  0  0  0  0  0  0  0  0  0
  191.6580  173.5440  143.3220 C   0  0  0  0  0  2  0  0  0  0  0  0
  190.4030  174.4070  143.5890 C   0  0  2  0  0  3  0  0  0  0  0  0
  189.8230  173.8460  141.1880 C   0  0  0  0  0  2  0  0  0  0  0  0
  189.9380  171.5000  140.7500 O   0  0  0  0  0  1  0  0  0  0  0  0
  190.7010  172.5890  141.1700 C   0  0  2  0  0  3  0  0  0  0  0  0
  191.3470  172.2690  142.5290 C   0  0  1  0  0  3  0  0  0  0  0  0
  189.2680  174.1110  142.5830 C   0  0  0  0  0  2  0  0  0  0  0  0
  192.6230  171.4740  142.3050 C   0  0  0  0  0  2  0  0  0  0  0  0
  192.4360  170.0480  142.7860 C   0  0  0  0  0  2  0  0  0  0  0  0
  193.7420  169.2780  142.7030 C   0  0  0  0  0  2  0  0  0  0  0  0
  194.8660  170.1920  142.2350 C   0  0  0  0  0  1  0  0  0  0  0  0
  190.9790  176.3310  144.9730 C   0  0  0  0  0  2  0  0  0  0  0  0
  190.1250  177.5610  145.1970 C   0  0  0  0  0  2  0  0  0  0  0  0
  188.6610  177.1750  145.1370 C   0  0  0  0  0  2  0  0  0  0  0  0
  188.2680  176.4890  146.4350 C   0  0  0  0  0  2  0  0  0  0  0  0
  186.3550  176.4180  147.8560 O   0  0  0  0  0  0  0  0  0  0  0  0
  186.9650  177.0240  146.9340 C   0  0  0  0  0  0  0  0  0  0  0  0
  186.4150  178.2120  146.3570 N   0  0  0  0  0  2  0  0  0  0  0  0
  185.1480  178.7750  146.7940 C   0  0  0  0  0  2  0  0  0  0  0  0
  184.2230  178.9470  145.5990 C   0  0  0  0  0  2  0  0  0  0  0  0
  185.4880  177.4100  142.3320 N   0  0  0  0  0  2  0  0  0  0  0  0
  184.5680  178.0000  144.5480 N   0  0  0  0  0  2  0  0  0  0  0  0
  185.7680  179.5370  143.2580 O   0  0  0  0  0  0  0  0  0  0  0  0
  185.2920  178.3720  143.3710 C   0  0  0  0  0  0  0  0  0  0  0  0
  186.1160  177.7440  141.0640 C   0  0  0  0  0  2  0  0  0  0  0  0
  187.3190  176.8440  140.8280 C   0  0  0  0  0  1  0  0  0  0  0  0
  192.0110  176.0540  142.8290 C   0  0  0  0  0  2  0  0  0  0  0  0
  193.2370  176.4060  143.6830 C   0  0  0  0  0  2  0  0  0  0  0  0
  194.4340  176.2970  142.9250 O   0  0  0  0  0  0  0  0  0  0  0  0
  195.6870  176.1410  143.5210 C   0  0  0  0  0  0  0  0  0  0  0  0
  196.2200  177.0950  144.1520 O   0  0  0  0  0  0  0  0  0  0  0  0
  196.4050  174.8370  143.3780 C   0  0  2  0  0  3  0  0  0  0  0  0
  196.7420  174.2850  144.6490 O   0  0  0  0  0  0  0  0  0  0  0  0
  194.3140  171.6660  145.5870 C   0  0  0  0  0  3  0  0  0  0  0  0
  195.1610  170.6450  146.0240 C   0  0  0  0  0  3  0  0  0  0  0  0
  196.2350  173.0700  145.1160 C   0  0  0  0  0  0  0  0  0  0  0  0
  196.5440  170.8340  146.0150 C   0  0  0  0  0  3  0  0  0  0  0  0
  194.8500  172.8740  145.1340 C   0  0  0  0  0  3  0  0  0  0  0  0
  197.0800  172.0430  145.5640 C   0  0  0  0  0  3  0  0  0  0  0  0
  197.6590  175.0400  142.5470 C   0  0  0  0  0  2  0  0  0  0  0  0
  197.7960  173.9810  141.4580 C   0  0  0  0  0  2  0  0  0  0  0  0
  196.2920  174.6830  139.5310 C   0  0  0  0  0  0  0  0  0  0  0  0
  196.2000  175.1890  138.2000 N   0  0  0  0  0  2  0  0  0  0  0  0
  197.5820  174.5570  140.1370 N   0  0  0  0  0  2  0  0  0  0  0  0
  195.2490  174.3540  140.1650 O   0  0  0  0  0  0  0  0  0  0  0  0
  194.9620  175.1670  137.4390 C   0  0  0  0  0  2  0  0  0  0  0  0
  195.2740  175.3130  135.9860 C   0  0  0  0  0  3  0  0  0  0  0  0
  194.5470  176.0150  135.1120 C   0  0  0  0  0  3  0  0  0  0  0  0
  193.3380  176.8010  135.4120 C   0  0  0  0  0  0  0  0  0  0  0  0
  192.0560  176.0870  135.6320 C   0  0  0  0  0  1  0  0  0  0  0  0
  193.3570  178.0610  135.4480 O   0  0  0  0  0  0  0  0  0  0  0  0
  1 13  1  0  0  0  0
  2  3  1  0  0  0  0
  3  1  1  6  0  0  0
  4  8  1  0  0  0  0
  6  5  1  1  0  0  0
  6  4  1  0  0  0  0
  6  7  1  0  0  0  0
  7  9  1  6  0  0  0
  7  2  1  0  0  0  0
  8  3  1  0  0  0  0
  9 10  1  0  0  0  0
 11 10  1  0  0  0  0
 12 11  1  0  0  0  0
 13 14  1  0  0  0  0
 15 14  1  0  0  0  0
 15 16  1  0  0  0  0
 16 18  1  0  0  0  0
 18 17  2  0  0  0  0
 19 20  1  0  0  0  0
 19 18  1  0  0  0  0
 21 20  1  0  0  0  0
 22 25  1  0  0  0  0
 23 21  1  0  0  0  0
 24 25  2  0  0  0  0
 25 23  1  0  0  0  0
 26 22  1  0  0  0  0
 27 26  1  0  0  0  0
 28  1  1  0  0  0  0
 28 29  1  0  0  0  0
 30 31  1  0  0  0  0
 30 29  1  0  0  0  0
 31 32  2  0  0  0  0
 33 41  1  6  0  0  0
 33 31  1  0  0  0  0
 33 34  1  0  0  0  0
 34 37  1  0  0  0  0
 35 36  1  0  0  0  0
 37 39  1  0  0  0  0
 37 40  2  0  0  0  0
 38 36  2  0  0  0  0
 39 35  2  0  0  0  0
 40 38  1  0  0  0  0
 42 41  1  0  0  0  0
 43 45  1  0  0  0  0
 43 46  2  0  0  0  0
 44 43  1  0  0  0  0
 45 42  1  0  0  0  0
 47 44  1  0  0  0  0
 48 47  1  0  0  0  0
 49 50  1  0  0  0  0
 49 48  2  0  0  0  0
 50 52  2  0  0  0  0
 50 51  1  0  0  0  0
M  END
>  <MODEL>
2

>  <REMARK>
 VINA RESULT:      -5.5      2.241      6.585
  Name = 
  26 active torsions:
  status: ('A' for Active; 'I' for Inactive)
    1  A    between atoms: C_1  and  N_24
    2  A    between atoms: C_1  and  C_28
    3  A    between atoms: O_2  and  C_12
    4  A    between atoms: O_2  and  C_21
    5  A    between atoms: N_3  and  C_20
    6  A    between atoms: C_5  and  C_8
    7  A    between atoms: C_5  and  N_43
    8  A    between atoms: C_7  and  C_11
    9  A    between atoms: C_8  and  N_22
   10  A    between atoms: C_10  and  N_13
   11  A    between atoms: C_11  and  C_49
   12  A    between atoms: C_12  and  C_48
   13  A    between atoms: N_13  and  C_36
   14  A    between atoms: N_13  and  C_48
   15  A    between atoms: C_16  and  O_40
   16  A    between atoms: C_19  and  C_38
   17  A    between atoms: C_21  and  C_42
   18  A    between atoms: N_27  and  C_31
   19  A    between atoms: C_31  and  C_47
   20  A    between atoms: C_35  and  C_36
   21  A    between atoms: C_35  and  C_37
   22  A    between atoms: C_37  and  C_45
   23  A    between atoms: C_39  and  C_45
   24  A    between atoms: O_40  and  C_42
   25  A    between atoms: C_42  and  C_47
   26  A    between atoms: C_49  and  C_50
                            x       y       z     vdW  Elec       q    Type
                         _______ _______ _______ _____ _____    ______ ____

>  <TORSDO>
F 26

$$$$
=
 OpenBabel11042415563D

 52 53  0  0  1  0  0  0  0  0999 V2000
  192.7930  171.3160  143.1020 N   0  0  0  0  0  0  0  0  0  0  0  0
  194.6870  172.6220  142.2040 C   0  0  0  0  0  2  0  0  0  0  0  0
  193.9550  171.2590  142.1920 C   0  0  2  0  0  3  0  0  0  0  0  0
  193.1350  172.0130  139.9170 C   0  0  0  0  0  2  0  0  0  0  0  0
  194.9180  172.7470  138.5060 O   0  0  0  0  0  1  0  0  0  0  0  0
  194.2890  173.0030  139.7250 C   0  0  2  0  0  3  0  0  0  0  0  0
  195.3300  172.9660  140.8570 C   0  0  1  0  0  3  0  0  0  0  0  0
  193.5680  170.8200  140.7620 C   0  0  0  0  0  2  0  0  0  0  0  0
  196.0290  174.3130  140.9440 C   0  0  0  0  0  2  0  0  0  0  0  0
  195.0710  175.4200  140.5460 C   0  0  0  0  0  2  0  0  0  0  0  0
  194.7720  176.3210  141.7310 C   0  0  0  0  0  2  0  0  0  0  0  0
  193.3350  176.1280  142.1940 C   0  0  0  0  0  1  0  0  0  0  0  0
  192.9490  170.4240  144.2520 C   0  0  0  0  0  2  0  0  0  0  0  0
  194.0310  170.9550  145.1680 C   0  0  0  0  0  2  0  0  0  0  0  0
  195.0560  169.8670  145.4190 C   0  0  0  0  0  2  0  0  0  0  0  0
  196.1920  170.4300  146.2590 C   0  0  0  0  0  2  0  0  0  0  0  0
  197.5440  171.2410  144.4720 O   0  0  0  0  0  0  0  0  0  0  0  0
  196.8990  171.5170  145.5190 C   0  0  0  0  0  0  0  0  0  0  0  0
  196.8480  172.8620  146.0060 N   0  0  0  0  0  2  0  0  0  0  0  0
  197.5230  173.9610  145.3350 C   0  0  0  0  0  2  0  0  0  0  0  0
  196.4950  174.8910  144.7090 C   0  0  0  0  0  2  0  0  0  0  0  0
  193.0650  175.2670  146.3630 N   0  0  0  0  0  2  0  0  0  0  0  0
  195.1670  174.6140  145.2430 N   0  0  0  0  0  2  0  0  0  0  0  0
  194.6230  176.8520  145.6400 O   0  0  0  0  0  0  0  0  0  0  0  0
  194.3030  175.6350  145.7490 C   0  0  0  0  0  0  0  0  0  0  0  0
  192.1880  176.2380  146.9970 C   0  0  0  0  0  2  0  0  0  0  0  0
  191.4040  175.5730  148.1170 C   0  0  0  0  0  1  0  0  0  0  0  0
  192.5780  172.6920  143.5790 C   0  0  0  0  0  2  0  0  0  0  0  0
  191.1300  172.9870  143.9940 C   0  0  0  0  0  2  0  0  0  0  0  0
  190.8480  174.3780  143.9060 O   0  0  0  0  0  0  0  0  0  0  0  0
  189.7400  174.9590  144.5290 C   0  0  0  0  0  0  0  0  0  0  0  0
  189.3140  174.5080  145.6280 O   0  0  0  0  0  0  0  0  0  0  0  0
  189.0470  176.1030  143.8610 C   0  0  2  0  0  3  0  0  0  0  0  0
  187.6340  176.0300  144.0380 O   0  0  0  0  0  0  0  0  0  0  0  0
  185.7190  177.7010  146.7170 C   0  0  0  0  0  3  0  0  0  0  0  0
  185.4260  178.9310  146.1230 C   0  0  0  0  0  3  0  0  0  0  0  0
  186.8950  177.0050  144.7130 C   0  0  0  0  0  0  0  0  0  0  0  0
  185.8580  179.1990  144.8240 C   0  0  0  0  0  3  0  0  0  0  0  0
  186.4520  176.7420  146.0130 C   0  0  0  0  0  3  0  0  0  0  0  0
  186.5890  178.2390  144.1200 C   0  0  0  0  0  3  0  0  0  0  0  0
  189.3890  176.1060  142.3820 C   0  0  0  0  0  2  0  0  0  0  0  0
  188.4060  175.2670  141.5700 C   0  0  0  0  0  2  0  0  0  0  0  0
  188.9970  173.7470  139.6190 C   0  0  0  0  0  0  0  0  0  0  0  0
  189.6070  172.5340  139.1820 N   0  0  0  0  0  2  0  0  0  0  0  0
  189.0600  174.0950  141.0050 N   0  0  0  0  0  2  0  0  0  0  0  0
  188.4130  174.5040  138.7920 O   0  0  0  0  0  0  0  0  0  0  0  0
  189.4250  172.0050  137.8400 C   0  0  0  0  0  2  0  0  0  0  0  0
  190.6290  172.3250  137.0160 C   0  0  0  0  0  3  0  0  0  0  0  0
  191.5400  171.4360  136.6120 C   0  0  0  0  0  3  0  0  0  0  0  0
  191.5170  169.9840  136.8620 C   0  0  0  0  0  0  0  0  0  0  0  0
  191.4990  169.0580  135.7040 C   0  0  0  0  0  1  0  0  0  0  0  0
  191.4740  169.5130  138.0300 O   0  0  0  0  0  0  0  0  0  0  0  0
  1 28  1  0  0  0  0
  1 13  1  0  0  0  0
  3  2  1  0  0  0  0
  3  1  1  1  0  0  0
  4  8  1  0  0  0  0
  6  5  1  6  0  0  0
  6  4  1  0  0  0  0
  6  7  1  0  0  0  0
  7  9  1  1  0  0  0
  7  2  1  0  0  0  0
  8  3  1  0  0  0  0
 10  9  1  0  0  0  0
 10 11  1  0  0  0  0
 11 12  1  0  0  0  0
 13 14  1  0  0  0  0
 14 15  1  0  0  0  0
 15 16  1  0  0  0  0
 17 18  2  0  0  0  0
 18 19  1  0  0  0  0
 18 16  1  0  0  0  0
 20 19  1  0  0  0  0
 21 23  1  0  0  0  0
 21 20  1  0  0  0  0
 22 26  1  0  0  0  0
 23 25  1  0  0  0  0
 24 25  2  0  0  0  0
 25 22  1  0  0  0  0
 26 27  1  0  0  0  0
 28 29  1  0  0  0  0
 30 29  1  0  0  0  0
 30 31  1  0  0  0  0
 31 32  2  0  0  0  0
 33 41  1  6  0  0  0
 33 34  1  0  0  0  0
 33 31  1  0  0  0  0
 34 37  1  0  0  0  0
 36 35  1  0  0  0  0
 37 39  1  0  0  0  0
 38 36  2  0  0  0  0
 39 35  2  0  0  0  0
 40 37  2  0  0  0  0
 40 38  1  0  0  0  0
 42 41  1  0  0  0  0
 43 45  1  0  0  0  0
 44 43  1  0  0  0  0
 45 42  1  0  0  0  0
 46 43  2  0  0  0  0
 47 44  1  0  0  0  0
 48 47  1  0  0  0  0
 49 50  1  0  0  0  0
 49 48  2  0  0  0  0
 50 52  2  0  0  0  0
 51 50  1  0  0  0  0
M  END
>  <MODEL>
3

>  <REMARK>
 VINA RESULT:      -5.4      2.489      8.989
  Name = 
  26 active torsions:
  status: ('A' for Active; 'I' for Inactive)
    1  A    between atoms: C_1  and  N_24
    2  A    between atoms: C_1  and  C_28
    3  A    between atoms: O_2  and  C_12
    4  A    between atoms: O_2  and  C_21
    5  A    between atoms: N_3  and  C_20
    6  A    between atoms: C_5  and  C_8
    7  A    between atoms: C_5  and  N_43
    8  A    between atoms: C_7  and  C_11
    9  A    between atoms: C_8  and  N_22
   10  A    between atoms: C_10  and  N_13
   11  A    between atoms: C_11  and  C_49
   12  A    between atoms: C_12  and  C_48
   13  A    between atoms: N_13  and  C_36
   14  A    between atoms: N_13  and  C_48
   15  A    between atoms: C_16  and  O_40
   16  A    between atoms: C_19  and  C_38
   17  A    between atoms: C_21  and  C_42
   18  A    between atoms: N_27  and  C_31
   19  A    between atoms: C_31  and  C_47
   20  A    between atoms: C_35  and  C_36
   21  A    between atoms: C_35  and  C_37
   22  A    between atoms: C_37  and  C_45
   23  A    between atoms: C_39  and  C_45
   24  A    between atoms: O_40  and  C_42
   25  A    between atoms: C_42  and  C_47
   26  A    between atoms: C_49  and  C_50
                            x       y       z     vdW  Elec       q    Type
                         _______ _______ _______ _____ _____    ______ ____

>  <TORSDO>
F 26

$$$$
=
 OpenBabel11042415563D

 52 53  0  0  1  0  0  0  0  0999 V2000
  190.0940  174.2000  142.1230 N   0  0  0  0  0  0  0  0  0  0  0  0
  189.5970  174.3990  144.5330 C   0  0  0  0  0  2  0  0  0  0  0  0
  190.3630  173.6060  143.4480 C   0  0  2  0  0  3  0  0  0  0  0  0
  192.3950  174.7990  144.3790 C   0  0  0  0  0  2  0  0  0  0  0  0
  192.5600  174.5930  146.7540 O   0  0  0  0  0  1  0  0  0  0  0  0
  191.7330  175.0670  145.7360 C   0  0  2  0  0  3  0  0  0  0  0  0
  190.3350  174.4390  145.8760 C   0  0  1  0  0  3  0  0  0  0  0  0
  191.8740  173.5080  143.7570 C   0  0  0  0  0  2  0  0  0  0  0  0
  189.5260  175.2310  146.8890 C   0  0  0  0  0  2  0  0  0  0  0  0
  189.6600  176.7160  146.6130 C   0  0  0  0  0  2  0  0  0  0  0  0
  190.2710  177.4300  147.8040 C   0  0  0  0  0  2  0  0  0  0  0  0
  189.4420  178.6530  148.1720 C   0  0  0  0  0  1  0  0  0  0  0  0
  189.5440  173.2220  141.1820 C   0  0  0  0  0  2  0  0  0  0  0  0
  190.6720  172.4580  140.5220 C   0  0  0  0  0  2  0  0  0  0  0  0
  191.6200  173.4350  139.8560 C   0  0  0  0  0  2  0  0  0  0  0  0
  191.7800  173.0630  138.3910 C   0  0  0  0  0  2  0  0  0  0  0  0
  193.4780  173.4150  136.7560 O   0  0  0  0  0  0  0  0  0  0  0  0
  193.2050  173.2060  137.9680 C   0  0  0  0  0  0  0  0  0  0  0  0
  194.2510  173.0970  138.9390 N   0  0  0  0  0  2  0  0  0  0  0  0
  195.6560  173.2180  138.5880 C   0  0  0  0  0  2  0  0  0  0  0  0
  196.5190  172.8300  139.7780 C   0  0  0  0  0  2  0  0  0  0  0  0
  196.3840  174.3020  143.3080 N   0  0  0  0  0  2  0  0  0  0  0  0
  196.2220  173.6840  140.9220 N   0  0  0  0  0  2  0  0  0  0  0  0
  197.7310  172.6390  142.3690 O   0  0  0  0  0  0  0  0  0  0  0  0
  196.8180  173.4970  142.2090 C   0  0  0  0  0  0  0  0  0  0  0  0
  196.8620  174.0970  144.6650 C   0  0  0  0  0  2  0  0  0  0  0  0
  195.8550  174.6530  145.6590 C   0  0  0  0  0  1  0  0  0  0  0  0
  189.1650  175.3350  142.2440 C   0  0  0  0  0  2  0  0  0  0  0  0
  188.0080  175.3030  141.2360 C   0  0  0  0  0  2  0  0  0  0  0  0
  186.9200  176.1010  141.6830 O   0  0  0  0  0  0  0  0  0  0  0  0
  186.5890  177.3200  141.0860 C   0  0  0  0  0  0  0  0  0  0  0  0
  186.8560  177.5310  139.8710 O   0  0  0  0  0  0  0  0  0  0  0  0
  185.9400  178.3830  141.9130 C   0  0  2  0  0  3  0  0  0  0  0  0
  186.7270  178.7060  143.0570 O   0  0  0  0  0  0  0  0  0  0  0  0
  186.1490  176.8060  146.1700 C   0  0  0  0  0  3  0  0  0  0  0  0
  185.5770  177.7830  146.9900 C   0  0  0  0  0  3  0  0  0  0  0  0
  186.3320  178.4160  144.3660 C   0  0  0  0  0  0  0  0  0  0  0  0
  185.3750  179.0740  146.4990 C   0  0  0  0  0  3  0  0  0  0  0  0
  186.5250  177.1230  144.8620 C   0  0  0  0  0  3  0  0  0  0  0  0
  185.7500  179.3900  145.1920 C   0  0  0  0  0  3  0  0  0  0  0  0
  184.5610  177.9160  142.3430 C   0  0  0  0  0  2  0  0  0  0  0  0
  183.5810  177.8860  141.1730 C   0  0  0  0  0  2  0  0  0  0  0  0
  181.2730  178.8220  140.6600 C   0  0  0  0  0  0  0  0  0  0  0  0
  180.3380  179.8840  140.8430 N   0  0  0  0  0  2  0  0  0  0  0  0
  182.5260  178.8750  141.3480 N   0  0  0  0  0  2  0  0  0  0  0  0
  180.9950  177.8480  139.9050 O   0  0  0  0  0  0  0  0  0  0  0  0
  179.1330  180.0130  140.0400 C   0  0  0  0  0  2  0  0  0  0  0  0
  178.4880  181.3290  140.3270 C   0  0  0  0  0  3  0  0  0  0  0  0
  178.4110  182.3490  139.4670 C   0  0  0  0  0  3  0  0  0  0  0  0
  178.9050  182.3620  138.0800 C   0  0  0  0  0  0  0  0  0  0  0  0
  179.9340  183.3590  137.6950 C   0  0  0  0  0  1  0  0  0  0  0  0
  178.4490  181.5770  137.2050 O   0  0  0  0  0  0  0  0  0  0  0  0
  1 28  1  0  0  0  0
  2  7  1  0  0  0  0
  3  1  1  6  0  0  0
  3  8  1  0  0  0  0
  3  2  1  0  0  0  0
  4  6  1  0  0  0  0
  6  7  1  0  0  0  0
  6  5  1  1  0  0  0
  7  9  1  1  0  0  0
  8  4  1  0  0  0  0
 10  9  1  0  0  0  0
 10 11  1  0  0  0  0
 11 12  1  0  0  0  0
 13  1  1  0  0  0  0
 14 13  1  0  0  0  0
 15 14  1  0  0  0  0
 16 15  1  0  0  0  0
 17 18  2  0  0  0  0
 18 16  1  0  0  0  0
 18 19  1  0  0  0  0
 20 19  1  0  0  0  0
 20 21  1  0  0  0  0
 21 23  1  0  0  0  0
 22 26  1  0  0  0  0
 23 25  1  0  0  0  0
 25 24  2  0  0  0  0
 25 22  1  0  0  0  0
 26 27  1  0  0  0  0
 29 30  1  0  0  0  0
 29 28  1  0  0  0  0
 31 30  1  0  0  0  0
 31 33  1  0  0  0  0
 32 31  2  0  0  0  0
 33 41  1  1  0  0  0
 33 34  1  0  0  0  0
 34 37  1  0  0  0  0
 35 36  1  0  0  0  0
 37 39  1  0  0  0  0
 37 40  2  0  0  0  0
 38 36  2  0  0  0  0
 39 35  2  0  0  0  0
 40 38  1  0  0  0  0
 42 45  1  0  0  0  0
 42 41  1  0  0  0  0
 43 44  1  0  0  0  0
 43 45  1  0  0  0  0
 46 43  2  0  0  0  0
 47 48  1  0  0  0  0
 47 44  1  0  0  0  0
 49 48  2  0  0  0  0
 50 49  1  0  0  0  0
 51 50  1  0  0  0  0
 52 50  2  0  0  0  0
M  END
>  <MODEL>
4

>  <REMARK>
 VINA RESULT:      -5.3      3.890     10.444
  Name = 
  26 active torsions:
  status: ('A' for Active; 'I' for Inactive)
    1  A    between atoms: C_1  and  N_24
    2  A    between atoms: C_1  and  C_28
    3  A    between atoms: O_2  and  C_12
    4  A    between atoms: O_2  and  C_21
    5  A    between atoms: N_3  and  C_20
    6  A    between atoms: C_5  and  C_8
    7  A    between atoms: C_5  and  N_43
    8  A    between atoms: C_7  and  C_11
    9  A    between atoms: C_8  and  N_22
   10  A    between atoms: C_10  and  N_13
   11  A    between atoms: C_11  and  C_49
   12  A    between atoms: C_12  and  C_48
   13  A    between atoms: N_13  and  C_36
   14  A    between atoms: N_13  and  C_48
   15  A    between atoms: C_16  and  O_40
   16  A    between atoms: C_19  and  C_38
   17  A    between atoms: C_21  and  C_42
   18  A    between atoms: N_27  and  C_31
   19  A    between atoms: C_31  and  C_47
   20  A    between atoms: C_35  and  C_36
   21  A    between atoms: C_35  and  C_37
   22  A    between atoms: C_37  and  C_45
   23  A    between atoms: C_39  and  C_45
   24  A    between atoms: O_40  and  C_42
   25  A    between atoms: C_42  and  C_47
   26  A    between atoms: C_49  and  C_50
                            x       y       z     vdW  Elec       q    Type
                         _______ _______ _______ _____ _____    ______ ____

>  <TORSDO>
F 26

$$$$
=
 OpenBabel11042415563D

 52 53  0  0  1  0  0  0  0  0999 V2000
  190.7100  172.6870  140.8370 N   0  0  0  0  0  0  0  0  0  0  0  0
  191.7600  172.9430  138.6170 C   0  0  0  0  0  2  0  0  0  0  0  0
  190.7070  172.1770  139.4520 C   0  0  2  0  0  3  0  0  0  0  0  0
  189.0410  173.5860  138.1630 C   0  0  0  0  0  2  0  0  0  0  0  0
  189.4090  173.4970  135.8040 O   0  0  0  0  0  1  0  0  0  0  0  0
  190.0150  173.8510  137.0100 C   0  0  2  0  0  3  0  0  0  0  0  0
  191.3550  173.1070  137.1480 C   0  0  1  0  0  3  0  0  0  0  0  0
  189.3040  172.2280  138.8050 C   0  0  0  0  0  2  0  0  0  0  0  0
  192.4340  173.8660  136.3940 C   0  0  0  0  0  2  0  0  0  0  0  0
  192.8930  175.0600  137.2080 C   0  0  0  0  0  2  0  0  0  0  0  0
  193.1850  176.2450  136.3050 C   0  0  0  0  0  2  0  0  0  0  0  0
  192.0240  176.4790  135.3480 C   0  0  0  0  0  1  0  0  0  0  0  0
  189.8260  173.8430  141.0010 C   0  0  0  0  0  2  0  0  0  0  0  0
  188.7120  173.5020  141.9670 C   0  0  0  0  0  2  0  0  0  0  0  0
  187.8180  174.7120  142.1530 C   0  0  0  0  0  2  0  0  0  0  0  0
  188.0960  175.7180  141.0480 C   0  0  0  0  0  2  0  0  0  0  0  0
  188.1930  178.0070  141.7030 O   0  0  0  0  0  0  0  0  0  0  0  0
  187.4660  177.0330  141.3690 C   0  0  0  0  0  0  0  0  0  0  0  0
  186.0440  177.1770  141.3050 N   0  0  0  0  0  2  0  0  0  0  0  0
  185.3720  178.4280  141.6150 C   0  0  0  0  0  2  0  0  0  0  0  0
  184.4790  178.2450  142.8320 C   0  0  0  0  0  2  0  0  0  0  0  0
  185.8340  177.1490  146.2380 N   0  0  0  0  0  2  0  0  0  0  0  0
  185.1930  177.5320  143.8840 N   0  0  0  0  0  2  0  0  0  0  0  0
  184.1160  178.6200  145.6510 O   0  0  0  0  0  0  0  0  0  0  0  0
  185.0100  177.8100  145.2750 C   0  0  0  0  0  0  0  0  0  0  0  0
  185.7820  177.4590  147.6580 C   0  0  0  0  0  2  0  0  0  0  0  0
  186.5430  178.7470  147.9350 C   0  0  0  0  0  1  0  0  0  0  0  0
  190.3080  171.6290  141.7780 C   0  0  0  0  0  2  0  0  0  0  0  0
  191.3830  171.2770  142.8150 C   0  0  0  0  0  2  0  0  0  0  0  0
  192.6850  171.5430  142.3100 O   0  0  0  0  0  0  0  0  0  0  0  0
  193.8240  171.5110  143.1180 C   0  0  0  0  0  0  0  0  0  0  0  0
  193.9400  170.6420  144.0260 O   0  0  0  0  0  0  0  0  0  0  0  0
  194.8900  172.5390  142.9150 C   0  0  2  0  0  3  0  0  0  0  0  0
  195.7140  172.2200  141.7960 O   0  0  0  0  0  0  0  0  0  0  0  0
  196.6820  175.2300  139.8870 C   0  0  0  0  0  3  0  0  0  0  0  0
  196.3370  174.8560  138.5850 C   0  0  0  0  0  3  0  0  0  0  0  0
  195.9080  173.0860  140.7160 C   0  0  0  0  0  0  0  0  0  0  0  0
  195.7720  173.6030  138.3460 C   0  0  0  0  0  3  0  0  0  0  0  0
  196.4670  174.3460  140.9480 C   0  0  0  0  0  3  0  0  0  0  0  0
  195.5560  172.7200  139.4070 C   0  0  0  0  0  3  0  0  0  0  0  0
  195.7350  172.6440  144.1730 C   0  0  0  0  0  2  0  0  0  0  0  0
  195.7820  174.0720  144.7080 C   0  0  0  0  0  2  0  0  0  0  0  0
  193.7050  175.5230  144.4980 C   0  0  0  0  0  0  0  0  0  0  0  0
  192.4600  175.9310  145.0640 N   0  0  0  0  0  2  0  0  0  0  0  0
  194.4660  174.5070  145.1560 N   0  0  0  0  0  2  0  0  0  0  0  0
  194.1250  176.0510  143.4290 O   0  0  0  0  0  0  0  0  0  0  0  0
  191.7190  177.0840  144.5790 C   0  0  0  0  0  2  0  0  0  0  0  0
  190.3550  176.6500  144.1550 C   0  0  0  0  0  3  0  0  0  0  0  0
  189.3600  176.3280  144.9860 C   0  0  0  0  0  3  0  0  0  0  0  0
  189.4000  176.3730  146.4580 C   0  0  0  0  0  0  0  0  0  0  0  0
  189.2420  175.1090  147.2180 C   0  0  0  0  0  1  0  0  0  0  0  0
  189.5270  177.4590  147.0860 O   0  0  0  0  0  0  0  0  0  0  0  0
  1 13  1  0  0  0  0
  1 28  1  0  0  0  0
  2  3  1  0  0  0  0
  3  1  1  1  0  0  0
  4  8  1  0  0  0  0
  6  5  1  6  0  0  0
  6  7  1  0  0  0  0
  6  4  1  0  0  0  0
  7  9  1  6  0  0  0
  7  2  1  0  0  0  0
  8  3  1  0  0  0  0
  9 10  1  0  0  0  0
 11 10  1  0  0  0  0
 12 11  1  0  0  0  0
 13 14  1  0  0  0  0
 14 15  1  0  0  0  0
 16 18  1  0  0  0  0
 16 15  1  0  0  0  0
 18 17  2  0  0  0  0
 19 18  1  0  0  0  0
 19 20  1  0  0  0  0
 20 21  1  0  0  0  0
 21 23  1  0  0  0  0
 22 26  1  0  0  0  0
 23 25  1  0  0  0  0
 25 24  2  0  0  0  0
 25 22  1  0  0  0  0
 26 27  1  0  0  0  0
 28 29  1  0  0  0  0
 30 29  1  0  0  0  0
 30 31  1  0  0  0  0
 31 32  2  0  0  0  0
 33 31  1  0  0  0  0
 33 41  1  1  0  0  0
 34 33  1  0  0  0  0
 35 39  1  0  0  0  0
 36 35  2  0  0  0  0
 37 39  2  0  0  0  0
 37 34  1  0  0  0  0
 38 36  1  0  0  0  0
 38 40  2  0  0  0  0
 40 37  1  0  0  0  0
 41 42  1  0  0  0  0
 42 45  1  0  0  0  0
 43 44  1  0  0  0  0
 43 45  1  0  0  0  0
 46 43  2  0  0  0  0
 47 44  1  0  0  0  0
 48 47  1  0  0  0  0
 48 49  2  0  0  0  0
 49 50  1  0  0  0  0
 50 52  2  0  0  0  0
 50 51  1  0  0  0  0
M  END
>  <MODEL>
5

>  <REMARK>
 VINA RESULT:      -5.2      2.357      8.272
  Name = 
  26 active torsions:
  status: ('A' for Active; 'I' for Inactive)
    1  A    between atoms: C_1  and  N_24
    2  A    between atoms: C_1  and  C_28
    3  A    between atoms: O_2  and  C_12
    4  A    between atoms: O_2  and  C_21
    5  A    between atoms: N_3  and  C_20
    6  A    between atoms: C_5  and  C_8
    7  A    between atoms: C_5  and  N_43
    8  A    between atoms: C_7  and  C_11
    9  A    between atoms: C_8  and  N_22
   10  A    between atoms: C_10  and  N_13
   11  A    between atoms: C_11  and  C_49
   12  A    between atoms: C_12  and  C_48
   13  A    between atoms: N_13  and  C_36
   14  A    between atoms: N_13  and  C_48
   15  A    between atoms: C_16  and  O_40
   16  A    between atoms: C_19  and  C_38
   17  A    between atoms: C_21  and  C_42
   18  A    between atoms: N_27  and  C_31
   19  A    between atoms: C_31  and  C_47
   20  A    between atoms: C_35  and  C_36
   21  A    between atoms: C_35  and  C_37
   22  A    between atoms: C_37  and  C_45
   23  A    between atoms: C_39  and  C_45
   24  A    between atoms: O_40  and  C_42
   25  A    between atoms: C_42  and  C_47
   26  A    between atoms: C_49  and  C_50
                            x       y       z     vdW  Elec       q    Type
                         _______ _______ _______ _____ _____    ______ ____

>  <TORSDO>
F 26

$$$$
=
 OpenBabel11042415563D

 52 53  0  0  1  0  0  0  0  0999 V2000
  191.3520  172.1070  141.8210 N   0  0  0  0  0  0  0  0  0  0  0  0
  191.6090  171.2980  139.5020 C   0  0  0  0  0  2  0  0  0  0  0  0
  191.2590  172.5060  140.4020 C   0  0  2  0  0  3  0  0  0  0  0  0
  193.5550  173.3400  139.7310 C   0  0  0  0  0  2  0  0  0  0  0  0
  193.8790  173.3040  137.3640 O   0  0  0  0  0  1  0  0  0  0  0  0
  193.5970  172.4860  138.4590 C   0  0  2  0  0  3  0  0  0  0  0  0
  192.2970  171.7060  138.1950 C   0  0  1  0  0  3  0  0  0  0  0  0
  192.1260  173.7430  140.0770 C   0  0  0  0  0  2  0  0  0  0  0  0
  192.6100  170.4720  137.3660 C   0  0  0  0  0  2  0  0  0  0  0  0
  191.7550  170.4600  136.1130 C   0  0  0  0  0  2  0  0  0  0  0  0
  190.9790  171.7580  135.9800 C   0  0  0  0  0  2  0  0  0  0  0  0
  189.5170  171.4710  135.6710 C   0  0  0  0  0  1  0  0  0  0  0  0
  190.1840  172.5370  142.5920 C   0  0  0  0  0  2  0  0  0  0  0  0
  188.9510  172.5030  141.7140 C   0  0  0  0  0  2  0  0  0  0  0  0
  188.1220  173.7480  141.9610 C   0  0  0  0  0  2  0  0  0  0  0  0
  188.9990  174.8210  142.5850 C   0  0  0  0  0  2  0  0  0  0  0  0
  189.3810  177.1580  142.3180 O   0  0  0  0  0  0  0  0  0  0  0  0
  188.6820  176.1590  142.0020 C   0  0  0  0  0  0  0  0  0  0  0  0
  187.5820  176.2990  141.0970 N   0  0  0  0  0  2  0  0  0  0  0  0
  187.2180  177.5760  140.5050 C   0  0  0  0  0  2  0  0  0  0  0  0
  185.9630  178.1140  141.1730 C   0  0  0  0  0  2  0  0  0  0  0  0
  185.3820  178.5370  144.9310 N   0  0  0  0  0  2  0  0  0  0  0  0
  186.1730  178.2620  142.6070 N   0  0  0  0  0  2  0  0  0  0  0  0
  183.9200  178.0210  143.1830 O   0  0  0  0  0  0  0  0  0  0  0  0
  185.1020  178.2680  143.5550 C   0  0  0  0  0  0  0  0  0  0  0  0
  184.3360  178.6680  145.9320 C   0  0  0  0  0  2  0  0  0  0  0  0
  184.9350  178.5600  147.3250 C   0  0  0  0  0  1  0  0  0  0  0  0
  191.5020  170.6470  141.9380 C   0  0  0  0  0  2  0  0  0  0  0  0
  192.7710  170.2090  142.6830 C   0  0  0  0  0  2  0  0  0  0  0  0
  193.6510  171.3070  142.8780 O   0  0  0  0  0  0  0  0  0  0  0  0
  194.9860  171.2810  142.4660 C   0  0  0  0  0  0  0  0  0  0  0  0
  195.3890  170.3990  141.6590 O   0  0  0  0  0  0  0  0  0  0  0  0
  195.9390  172.2930  143.0170 C   0  0  2  0  0  3  0  0  0  0  0  0
  197.0720  172.4580  142.1670 O   0  0  0  0  0  0  0  0  0  0  0  0
  197.1220  175.6700  140.3450 C   0  0  0  0  0  3  0  0  0  0  0  0
  197.1960  175.2360  139.0190 C   0  0  0  0  0  3  0  0  0  0  0  0
  197.1070  173.3670  141.1060 C   0  0  0  0  0  0  0  0  0  0  0  0
  197.2190  173.8700  138.7320 C   0  0  0  0  0  3  0  0  0  0  0  0
  197.0780  174.7370  141.3850 C   0  0  0  0  0  3  0  0  0  0  0  0
  197.1730  172.9380  139.7710 C   0  0  0  0  0  3  0  0  0  0  0  0
  196.3840  171.8630  144.4030 C   0  0  0  0  0  2  0  0  0  0  0  0
  196.0250  172.9000  145.4630 C   0  0  0  0  0  2  0  0  0  0  0  0
  194.2180  174.6630  145.7640 C   0  0  0  0  0  0  0  0  0  0  0  0
  192.8490  175.0250  145.5870 N   0  0  0  0  0  2  0  0  0  0  0  0
  194.6710  173.4010  145.2680 N   0  0  0  0  0  2  0  0  0  0  0  0
  195.0170  175.4490  146.3490 O   0  0  0  0  0  0  0  0  0  0  0  0
  192.2580  176.1890  146.2260 C   0  0  0  0  0  2  0  0  0  0  0  0
  191.6200  175.7760  147.5110 C   0  0  0  0  0  3  0  0  0  0  0  0
  190.3940  175.2580  147.6260 C   0  0  0  0  0  3  0  0  0  0  0  0
  189.4620  174.9620  146.5250 C   0  0  0  0  0  0  0  0  0  0  0  0
  188.3960  175.9420  146.2060 C   0  0  0  0  0  1  0  0  0  0  0  0
  189.5240  173.8840  145.8750 O   0  0  0  0  0  0  0  0  0  0  0  0
  1 28  1  0  0  0  0
  1 13  1  0  0  0  0
  2  3  1  0  0  0  0
  3  1  1  1  0  0  0
  4  8  1  0  0  0  0
  6  5  1  6  0  0  0
  6  4  1  0  0  0  0
  7  9  1  1  0  0  0
  7  6  1  0  0  0  0
  7  2  1  0  0  0  0
  8  3  1  0  0  0  0
 10  9  1  0  0  0  0
 11 10  1  0  0  0  0
 12 11  1  0  0  0  0
 14 15  1  0  0  0  0
 14 13  1  0  0  0  0
 15 16  1  0  0  0  0
 18 17  2  0  0  0  0
 18 16  1  0  0  0  0
 19 18  1  0  0  0  0
 20 19  1  0  0  0  0
 20 21  1  0  0  0  0
 21 23  1  0  0  0  0
 22 26  1  0  0  0  0
 23 25  1  0  0  0  0
 24 25  2  0  0  0  0
 25 22  1  0  0  0  0
 26 27  1  0  0  0  0
 28 29  1  0  0  0  0
 29 30  1  0  0  0  0
 31 30  1  0  0  0  0
 31 33  1  0  0  0  0
 32 31  2  0  0  0  0
 33 41  1  1  0  0  0
 34 33  1  0  0  0  0
 35 39  1  0  0  0  0
 36 35  2  0  0  0  0
 37 39  2  0  0  0  0
 37 34  1  0  0  0  0
 38 36  1  0  0  0  0
 38 40  2  0  0  0  0
 40 37  1  0  0  0  0
 41 42  1  0  0  0  0
 43 46  2  0  0  0  0
 44 43  1  0  0  0  0
 44 47  1  0  0  0  0
 45 42  1  0  0  0  0
 45 43  1  0  0  0  0
 47 48  1  0  0  0  0
 48 49  2  0  0  0  0
 50 49  1  0  0  0  0
 51 50  1  0  0  0  0
 52 50  2  0  0  0  0
M  END
>  <MODEL>
6

>  <REMARK>
 VINA RESULT:      -5.2      2.599      8.631
  Name = 
  26 active torsions:
  status: ('A' for Active; 'I' for Inactive)
    1  A    between atoms: C_1  and  N_24
    2  A    between atoms: C_1  and  C_28
    3  A    between atoms: O_2  and  C_12
    4  A    between atoms: O_2  and  C_21
    5  A    between atoms: N_3  and  C_20
    6  A    between atoms: C_5  and  C_8
    7  A    between atoms: C_5  and  N_43
    8  A    between atoms: C_7  and  C_11
    9  A    between atoms: C_8  and  N_22
   10  A    between atoms: C_10  and  N_13
   11  A    between atoms: C_11  and  C_49
   12  A    between atoms: C_12  and  C_48
   13  A    between atoms: N_13  and  C_36
   14  A    between atoms: N_13  and  C_48
   15  A    between atoms: C_16  and  O_40
   16  A    between atoms: C_19  and  C_38
   17  A    between atoms: C_21  and  C_42
   18  A    between atoms: N_27  and  C_31
   19  A    between atoms: C_31  and  C_47
   20  A    between atoms: C_35  and  C_36
   21  A    between atoms: C_35  and  C_37
   22  A    between atoms: C_37  and  C_45
   23  A    between atoms: C_39  and  C_45
   24  A    between atoms: O_40  and  C_42
   25  A    between atoms: C_42  and  C_47
   26  A    between atoms: C_49  and  C_50
                            x       y       z     vdW  Elec       q    Type
                         _______ _______ _______ _____ _____    ______ ____

>  <TORSDO>
F 26

$$$$
=
 OpenBabel11042415563D

 52 53  0  0  1  0  0  0  0  0999 V2000
  193.3820  174.2840  141.1770 N   0  0  0  0  0  0  0  0  0  0  0  0
  192.1700  173.5470  139.1560 C   0  0  0  0  0  2  0  0  0  0  0  0
  193.2790  174.4680  139.7150 C   0  0  2  0  0  3  0  0  0  0  0  0
  194.8500  172.7840  138.6590 C   0  0  0  0  0  2  0  0  0  0  0  0
  194.3050  172.3430  136.3740 O   0  0  0  0  0  1  0  0  0  0  0  0
  193.7930  172.2780  137.6700 C   0  0  2  0  0  3  0  0  0  0  0  0
  192.4650  173.0510  137.7360 C   0  0  1  0  0  3  0  0  0  0  0  0
  194.6300  174.2550  138.9950 C   0  0  0  0  0  2  0  0  0  0  0  0
  191.3350  172.1550  137.2550 C   0  0  0  0  0  2  0  0  0  0  0  0
  191.5290  170.7470  137.7840 C   0  0  0  0  0  2  0  0  0  0  0  0
  190.2110  169.9950  137.8040 C   0  0  0  0  0  2  0  0  0  0  0  0
  190.3090  168.7770  138.7120 C   0  0  0  0  0  1  0  0  0  0  0  0
  194.7530  174.4630  141.6590 C   0  0  0  0  0  2  0  0  0  0  0  0
  195.0980  173.3620  142.6400 C   0  0  0  0  0  2  0  0  0  0  0  0
  196.0900  173.8880  143.6580 C   0  0  0  0  0  2  0  0  0  0  0  0
  197.2320  172.8950  143.8080 C   0  0  0  0  0  2  0  0  0  0  0  0
  197.0540  172.7580  146.1810 O   0  0  0  0  0  0  0  0  0  0  0  0
  197.0980  172.1350  145.0860 C   0  0  0  0  0  0  0  0  0  0  0  0
  197.0290  170.7050  145.0620 N   0  0  0  0  0  2  0  0  0  0  0  0
  196.9080  169.9100  146.2730 C   0  0  0  0  0  2  0  0  0  0  0  0
  195.4440  169.5980  146.5380 C   0  0  0  0  0  2  0  0  0  0  0  0
  193.0700  170.0510  143.5720 N   0  0  0  0  0  2  0  0  0  0  0  0
  194.7290  169.4030  145.2830 N   0  0  0  0  0  2  0  0  0  0  0  0
  193.6920  171.4990  145.2980 O   0  0  0  0  0  0  0  0  0  0  0  0
  193.8200  170.3690  144.7470 C   0  0  0  0  0  0  0  0  0  0  0  0
  192.0490  170.9350  143.0320 C   0  0  0  0  0  2  0  0  0  0  0  0
  192.0670  170.8810  141.5130 C   0  0  0  0  0  1  0  0  0  0  0  0
  192.4920  175.2210  141.8800 C   0  0  0  0  0  2  0  0  0  0  0  0
  191.0980  174.6520  142.1760 C   0  0  0  0  0  2  0  0  0  0  0  0
  190.5120  175.2970  143.2990 O   0  0  0  0  0  0  0  0  0  0  0  0
  189.5680  176.3180  143.1690 C   0  0  0  0  0  0  0  0  0  0  0  0
  189.8540  177.3800  142.5500 O   0  0  0  0  0  0  0  0  0  0  0  0
  188.2220  176.1510  143.7980 C   0  0  2  0  0  3  0  0  0  0  0  0
  187.2460  175.7450  142.8400 O   0  0  0  0  0  0  0  0  0  0  0  0
  186.0100  177.8830  140.0950 C   0  0  0  0  0  3  0  0  0  0  0  0
  184.8610  178.4340  140.6670 C   0  0  0  0  0  3  0  0  0  0  0  0
  186.4430  176.6470  142.1360 C   0  0  0  0  0  0  0  0  0  0  0  0
  184.5030  178.0990  141.9740 C   0  0  0  0  0  3  0  0  0  0  0  0
  186.7990  176.9920  140.8280 C   0  0  0  0  0  3  0  0  0  0  0  0
  185.2920  177.2090  142.7070 C   0  0  0  0  0  3  0  0  0  0  0  0
  187.8030  177.4570  144.4490 C   0  0  0  0  0  2  0  0  0  0  0  0
  187.4630  177.2730  145.9250 C   0  0  0  0  0  2  0  0  0  0  0  0
  189.6390  176.4030  146.9120 C   0  0  0  0  0  0  0  0  0  0  0  0
  190.3690  175.2850  147.4160 N   0  0  0  0  0  2  0  0  0  0  0  0
  188.2750  176.2210  146.5220 N   0  0  0  0  0  2  0  0  0  0  0  0
  190.1900  177.5370  146.8170 O   0  0  0  0  0  0  0  0  0  0  0  0
  191.8040  175.3280  147.6490 C   0  0  0  0  0  2  0  0  0  0  0  0
  192.5030  174.5890  146.5560 C   0  0  0  0  0  3  0  0  0  0  0  0
  193.2010  175.1600  145.5700 C   0  0  0  0  0  3  0  0  0  0  0  0
  193.4440  176.6020  145.3910 C   0  0  0  0  0  0  0  0  0  0  0  0
  194.5840  177.2300  146.1030 C   0  0  0  0  0  1  0  0  0  0  0  0
  192.6890  177.3200  144.6820 O   0  0  0  0  0  0  0  0  0  0  0  0
  1 13  1  0  0  0  0
  1 28  1  0  0  0  0
  2  3  1  0  0  0  0
  3  1  1  1  0  0  0
  4  8  1  0  0  0  0
  6  5  1  6  0  0  0
  6  7  1  0  0  0  0
  6  4  1  0  0  0  0
  7  9  1  1  0  0  0
  7  2  1  0  0  0  0
  8  3  1  0  0  0  0
  9 10  1  0  0  0  0
 10 11  1  0  0  0  0
 11 12  1  0  0  0  0
 13 14  1  0  0  0  0
 14 15  1  0  0  0  0
 15 16  1  0  0  0  0
 16 18  1  0  0  0  0
 18 17  2  0  0  0  0
 19 18  1  0  0  0  0
 19 20  1  0  0  0  0
 20 21  1  0  0  0  0
 22 25  1  0  0  0  0
 23 21  1  0  0  0  0
 25 23  1  0  0  0  0
 25 24  2  0  0  0  0
 26 22  1  0  0  0  0
 27 26  1  0  0  0  0
 28 29  1  0  0  0  0
 29 30  1  0  0  0  0
 31 30  1  0  0  0  0
 31 33  1  0  0  0  0
 32 31  2  0  0  0  0
 33 41  1  6  0  0  0
 34 33  1  0  0  0  0
 35 36  2  0  0  0  0
 35 39  1  0  0  0  0
 36 38  1  0  0  0  0
 37 40  1  0  0  0  0
 37 34  1  0  0  0  0
 38 40  2  0  0  0  0
 39 37  2  0  0  0  0
 41 42  1  0  0  0  0
 42 45  1  0  0  0  0
 43 44  1  0  0  0  0
 44 47  1  0  0  0  0
 45 43  1  0  0  0  0
 46 43  2  0  0  0  0
 48 47  1  0  0  0  0
 49 48  2  0  0  0  0
 50 49  1  0  0  0  0
 50 51  1  0  0  0  0
 52 50  2  0  0  0  0
M  END
>  <MODEL>
7

>  <REMARK>
 VINA RESULT:      -5.0      2.585      9.408
  Name = 
  26 active torsions:
  status: ('A' for Active; 'I' for Inactive)
    1  A    between atoms: C_1  and  N_24
    2  A    between atoms: C_1  and  C_28
    3  A    between atoms: O_2  and  C_12
    4  A    between atoms: O_2  and  C_21
    5  A    between atoms: N_3  and  C_20
    6  A    between atoms: C_5  and  C_8
    7  A    between atoms: C_5  and  N_43
    8  A    between atoms: C_7  and  C_11
    9  A    between atoms: C_8  and  N_22
   10  A    between atoms: C_10  and  N_13
   11  A    between atoms: C_11  and  C_49
   12  A    between atoms: C_12  and  C_48
   13  A    between atoms: N_13  and  C_36
   14  A    between atoms: N_13  and  C_48
   15  A    between atoms: C_16  and  O_40
   16  A    between atoms: C_19  and  C_38
   17  A    between atoms: C_21  and  C_42
   18  A    between atoms: N_27  and  C_31
   19  A    between atoms: C_31  and  C_47
   20  A    between atoms: C_35  and  C_36
   21  A    between atoms: C_35  and  C_37
   22  A    between atoms: C_37  and  C_45
   23  A    between atoms: C_39  and  C_45
   24  A    between atoms: O_40  and  C_42
   25  A    between atoms: C_42  and  C_47
   26  A    between atoms: C_49  and  C_50
                            x       y       z     vdW  Elec       q    Type
                         _______ _______ _______ _____ _____    ______ ____

>  <TORSDO>
F 26

$$$$
=
 OpenBabel11042415563D

 52 53  0  0  1  0  0  0  0  0999 V2000
  191.2080  172.6020  139.6910 N   0  0  0  0  0  0  0  0  0  0  0  0
  192.8550  170.7670  139.8130 C   0  0  0  0  0  2  0  0  0  0  0  0
  191.6180  171.3260  139.0710 C   0  0  2  0  0  3  0  0  0  0  0  0
  193.2910  171.9050  137.2580 C   0  0  0  0  0  2  0  0  0  0  0  0
  194.6600  170.0410  136.6560 O   0  0  0  0  0  1  0  0  0  0  0  0
  194.3070  170.8580  137.7310 C   0  0  2  0  0  3  0  0  0  0  0  0
  193.8010  169.9870  138.8930 C   0  0  1  0  0  3  0  0  0  0  0  0
  191.8630  171.4580  137.5510 C   0  0  0  0  0  2  0  0  0  0  0  0
  194.9880  169.4700  139.6890 C   0  0  0  0  0  2  0  0  0  0  0  0
  195.6820  170.6200  140.3920 C   0  0  0  0  0  2  0  0  0  0  0  0
  195.8090  170.3420  141.8790 C   0  0  0  0  0  2  0  0  0  0  0  0
  196.7160  169.1440  142.1190 C   0  0  0  0  0  1  0  0  0  0  0  0
  189.7690  172.6470  139.9590 C   0  0  0  0  0  2  0  0  0  0  0  0
  189.0710  173.4400  138.8740 C   0  0  0  0  0  2  0  0  0  0  0  0
  188.2210  174.5220  139.5100 C   0  0  0  0  0  2  0  0  0  0  0  0
  188.6560  174.7210  140.9530 C   0  0  0  0  0  2  0  0  0  0  0  0
  187.4890  175.5410  142.8630 O   0  0  0  0  0  0  0  0  0  0  0  0
  187.7540  175.6930  141.6400 C   0  0  0  0  0  0  0  0  0  0  0  0
  187.1880  176.7840  140.9050 N   0  0  0  0  0  2  0  0  0  0  0  0
  186.2970  177.7560  141.5160 C   0  0  0  0  0  2  0  0  0  0  0  0
  185.1300  178.0400  140.5830 C   0  0  0  0  0  2  0  0  0  0  0  0
  181.4840  178.5680  141.6190 N   0  0  0  0  0  2  0  0  0  0  0  0
  183.9300  178.3510  141.3500 N   0  0  0  0  0  2  0  0  0  0  0  0
  182.4340  177.5290  139.7540 O   0  0  0  0  0  0  0  0  0  0  0  0
  182.6080  178.1270  140.8530 C   0  0  0  0  0  0  0  0  0  0  0  0
  180.1180  178.4750  141.1300 C   0  0  0  0  0  2  0  0  0  0  0  0
  179.7210  179.7760  140.4510 C   0  0  0  0  0  1  0  0  0  0  0  0
  191.9440  172.8280  140.9450 C   0  0  0  0  0  2  0  0  0  0  0  0
  192.3670  174.2870  141.1640 C   0  0  0  0  0  2  0  0  0  0  0  0
  192.5840  174.5530  142.5440 O   0  0  0  0  0  0  0  0  0  0  0  0
  193.8470  174.8540  143.0600 C   0  0  0  0  0  0  0  0  0  0  0  0
  194.8070  175.1250  142.2870 O   0  0  0  0  0  0  0  0  0  0  0  0
  194.0550  174.8220  144.5400 C   0  0  2  0  0  3  0  0  0  0  0  0
  193.8220  173.5190  145.0710 O   0  0  0  0  0  0  0  0  0  0  0  0
  195.5140  170.3050  145.7320 C   0  0  0  0  0  3  0  0  0  0  0  0
  196.8530  170.7010  145.7870 C   0  0  0  0  0  3  0  0  0  0  0  0
  194.8440  172.5970  145.3150 C   0  0  0  0  0  0  0  0  0  0  0  0
  197.1900  172.0440  145.6130 C   0  0  0  0  0  3  0  0  0  0  0  0
  194.5130  171.2510  145.4970 C   0  0  0  0  0  3  0  0  0  0  0  0
  196.1890  172.9900  145.3790 C   0  0  0  0  0  3  0  0  0  0  0  0
  193.1300  175.8290  145.2010 C   0  0  0  0  0  2  0  0  0  0  0  0
  192.2000  175.1670  146.2130 C   0  0  0  0  0  2  0  0  0  0  0  0
  189.9420  176.3240  146.3770 C   0  0  0  0  0  0  0  0  0  0  0  0
  189.1620  177.3600  146.9720 N   0  0  0  0  0  2  0  0  0  0  0  0
  191.2940  176.1400  146.8070 N   0  0  0  0  0  2  0  0  0  0  0  0
  189.4430  175.5800  145.4860 O   0  0  0  0  0  0  0  0  0  0  0  0
  187.8560  177.7470  146.4650 C   0  0  0  0  0  2  0  0  0  0  0  0
  186.8200  176.8210  147.0140 C   0  0  0  0  0  3  0  0  0  0  0  0
  185.5320  176.8150  146.6590 C   0  0  0  0  0  3  0  0  0  0  0  0
  184.8990  177.6790  145.6480 C   0  0  0  0  0  0  0  0  0  0  0  0
  184.1240  178.8610  146.0990 C   0  0  0  0  0  1  0  0  0  0  0  0
  184.9670  177.4190  144.4170 O   0  0  0  0  0  0  0  0  0  0  0  0
  1 13  1  0  0  0  0
  1 28  1  0  0  0  0
  3  1  1  1  0  0  0
  3  2  1  0  0  0  0
  4  8  1  0  0  0  0
  4  6  1  0  0  0  0
  6  5  1  6  0  0  0
  6  7  1  0  0  0  0
  7  9  1  1  0  0  0
  7  2  1  0  0  0  0
  8  3  1  0  0  0  0
  9 10  1  0  0  0  0
 10 11  1  0  0  0  0
 11 12  1  0  0  0  0
 14 15  1  0  0  0  0
 14 13  1  0  0  0  0
 15 16  1  0  0  0  0
 16 18  1  0  0  0  0
 18 17  2  0  0  0  0
 19 20  1  0  0  0  0
 19 18  1  0  0  0  0
 21 23  1  0  0  0  0
 21 20  1  0  0  0  0
 24 25  2  0  0  0  0
 25 23  1  0  0  0  0
 25 22  1  0  0  0  0
 26 22  1  0  0  0  0
 27 26  1  0  0  0  0
 28 29  1  0  0  0  0
 29 30  1  0  0  0  0
 30 31  1  0  0  0  0
 31 33  1  0  0  0  0
 32 31  2  0  0  0  0
 33 34  1  0  0  0  0
 33 41  1  1  0  0  0
 34 37  1  0  0  0  0
 35 36  1  0  0  0  0
 37 40  2  0  0  0  0
 37 39  1  0  0  0  0
 38 36  2  0  0  0  0
 39 35  2  0  0  0  0
 40 38  1  0  0  0  0
 41 42  1  0  0  0  0
 42 45  1  0  0  0  0
 43 45  1  0  0  0  0
 43 44  1  0  0  0  0
 46 43  2  0  0  0  0
 47 44  1  0  0  0  0
 47 48  1  0  0  0  0
 49 48  2  0  0  0  0
 50 51  1  0  0  0  0
 50 49  1  0  0  0  0
 52 50  2  0  0  0  0
M  END
>  <MODEL>
8

>  <REMARK>
 VINA RESULT:      -5.0      2.716      9.890
  Name = 
  26 active torsions:
  status: ('A' for Active; 'I' for Inactive)
    1  A    between atoms: C_1  and  N_24
    2  A    between atoms: C_1  and  C_28
    3  A    between atoms: O_2  and  C_12
    4  A    between atoms: O_2  and  C_21
    5  A    between atoms: N_3  and  C_20
    6  A    between atoms: C_5  and  C_8
    7  A    between atoms: C_5  and  N_43
    8  A    between atoms: C_7  and  C_11
    9  A    between atoms: C_8  and  N_22
   10  A    between atoms: C_10  and  N_13
   11  A    between atoms: C_11  and  C_49
   12  A    between atoms: C_12  and  C_48
   13  A    between atoms: N_13  and  C_36
   14  A    between atoms: N_13  and  C_48
   15  A    between atoms: C_16  and  O_40
   16  A    between atoms: C_19  and  C_38
   17  A    between atoms: C_21  and  C_42
   18  A    between atoms: N_27  and  C_31
   19  A    between atoms: C_31  and  C_47
   20  A    between atoms: C_35  and  C_36
   21  A    between atoms: C_35  and  C_37
   22  A    between atoms: C_37  and  C_45
   23  A    between atoms: C_39  and  C_45
   24  A    between atoms: O_40  and  C_42
   25  A    between atoms: C_42  and  C_47
   26  A    between atoms: C_49  and  C_50
                            x       y       z     vdW  Elec       q    Type
                         _______ _______ _______ _____ _____    ______ ____

>  <TORSDO>
F 26

$$$$
=
 OpenBabel11042415563D

 52 53  0  0  1  0  0  0  0  0999 V2000
  194.7540  175.1720  142.1150 N   0  0  0  0  0  0  0  0  0  0  0  0
  195.9150  173.2270  143.0980 C   0  0  0  0  0  2  0  0  0  0  0  0
  196.0070  174.7340  142.7630 C   0  0  2  0  0  3  0  0  0  0  0  0
  195.6830  175.0440  145.2560 C   0  0  0  0  0  2  0  0  0  0  0  0
  197.2010  173.7190  146.5410 O   0  0  0  0  0  1  0  0  0  0  0  0
  196.1820  173.6340  145.5910 C   0  0  2  0  0  3  0  0  0  0  0  0
  196.6860  172.8500  144.3680 C   0  0  1  0  0  3  0  0  0  0  0  0
  196.3620  175.5850  144.0030 C   0  0  0  0  0  2  0  0  0  0  0  0
  196.5510  171.3590  144.6330 C   0  0  0  0  0  2  0  0  0  0  0  0
  195.4710  171.1130  145.6690 C   0  0  0  0  0  2  0  0  0  0  0  0
  195.6710  169.7670  146.3420 C   0  0  0  0  0  2  0  0  0  0  0  0
  195.8390  168.6730  145.2970 C   0  0  0  0  0  1  0  0  0  0  0  0
  193.7390  174.1170  142.1090 C   0  0  0  0  0  2  0  0  0  0  0  0
  193.1210  174.0100  140.7310 C   0  0  0  0  0  2  0  0  0  0  0  0
  194.1600  174.3630  139.6850 C   0  0  0  0  0  2  0  0  0  0  0  0
  193.4670  174.6360  138.3600 C   0  0  0  0  0  2  0  0  0  0  0  0
  193.6320  172.3500  137.7030 O   0  0  0  0  0  0  0  0  0  0  0  0
  192.9020  173.3730  137.7970 C   0  0  0  0  0  0  0  0  0  0  0  0
  191.5390  173.3350  137.3610 N   0  0  0  0  0  2  0  0  0  0  0  0
  190.9350  172.1390  136.7970 C   0  0  0  0  0  2  0  0  0  0  0  0
  189.9360  171.5530  137.7820 C   0  0  0  0  0  2  0  0  0  0  0  0
  191.6480  170.7810  141.1160 N   0  0  0  0  0  2  0  0  0  0  0  0
  190.4450  171.6560  139.1440 N   0  0  0  0  0  2  0  0  0  0  0  0
  191.7250  169.7030  139.0440 O   0  0  0  0  0  0  0  0  0  0  0  0
  191.2880  170.6640  139.7370 C   0  0  0  0  0  0  0  0  0  0  0  0
  192.4080  169.7580  141.8160 C   0  0  0  0  0  2  0  0  0  0  0  0
  193.4190  170.4090  142.7460 C   0  0  0  0  0  1  0  0  0  0  0  0
  194.2140  176.3640  142.7890 C   0  0  0  0  0  2  0  0  0  0  0  0
  192.7840  176.1850  143.3190 C   0  0  0  0  0  2  0  0  0  0  0  0
  191.9180  177.1830  142.7940 O   0  0  0  0  0  0  0  0  0  0  0  0
  190.7150  177.5320  143.4130 C   0  0  0  0  0  0  0  0  0  0  0  0
  190.7090  178.3090  144.4070 O   0  0  0  0  0  0  0  0  0  0  0  0
  189.4370  176.9500  142.9000 C   0  0  2  0  0  3  0  0  0  0  0  0
  189.6200  175.6120  142.4440 O   0  0  0  0  0  0  0  0  0  0  0  0
  189.6900  173.6220  145.5540 C   0  0  0  0  0  3  0  0  0  0  0  0
  189.5920  172.3210  145.0540 C   0  0  0  0  0  3  0  0  0  0  0  0
  189.6160  174.5040  143.2960 C   0  0  0  0  0  0  0  0  0  0  0  0
  189.5130  172.1070  143.6770 C   0  0  0  0  0  3  0  0  0  0  0  0
  189.7020  174.7100  144.6760 C   0  0  0  0  0  3  0  0  0  0  0  0
  189.5260  173.1940  142.8000 C   0  0  0  0  0  3  0  0  0  0  0  0
  188.9030  177.8180  141.7750 C   0  0  0  0  0  2  0  0  0  0  0  0
  187.4260  177.5490  141.5010 C   0  0  0  0  0  2  0  0  0  0  0  0
  185.7270  177.9430  143.3510 C   0  0  0  0  0  0  0  0  0  0  0  0
  185.1650  177.4950  144.5840 N   0  0  0  0  0  2  0  0  0  0  0  0
  186.7330  177.1480  142.7180 N   0  0  0  0  0  2  0  0  0  0  0  0
  185.3370  179.0250  142.8270 O   0  0  0  0  0  0  0  0  0  0  0  0
  184.2890  178.3260  145.3930 C   0  0  0  0  0  2  0  0  0  0  0  0
  185.1090  179.3170  146.1510 C   0  0  0  0  0  3  0  0  0  0  0  0
  186.0980  179.0070  146.9950 C   0  0  0  0  0  3  0  0  0  0  0  0
  186.5900  177.6550  147.3080 C   0  0  0  0  0  0  0  0  0  0  0  0
  187.8410  177.1810  146.6660 C   0  0  0  0  0  1  0  0  0  0  0  0
  185.9580  176.8800  148.0750 O   0  0  0  0  0  0  0  0  0  0  0  0
  1 28  1  0  0  0  0
  2  7  1  0  0  0  0
  3  1  1  1  0  0  0
  3  2  1  0  0  0  0
  3  8  1  0  0  0  0
  4  6  1  0  0  0  0
  6  5  1  1  0  0  0
  7  9  1  1  0  0  0
  7  6  1  0  0  0  0
  8  4  1  0  0  0  0
  9 10  1  0  0  0  0
 10 11  1  0  0  0  0
 12 11  1  0  0  0  0
 13  1  1  0  0  0  0
 14 13  1  0  0  0  0
 15 14  1  0  0  0  0
 16 15  1  0  0  0  0
 17 18  2  0  0  0  0
 18 16  1  0  0  0  0
 19 18  1  0  0  0  0
 20 19  1  0  0  0  0
 20 21  1  0  0  0  0
 21 23  1  0  0  0  0
 22 26  1  0  0  0  0
 23 25  1  0  0  0  0
 24 25  2  0  0  0  0
 25 22  1  0  0  0  0
 26 27  1  0  0  0  0
 28 29  1  0  0  0  0
 30 29  1  0  0  0  0
 30 31  1  0  0  0  0
 31 32  2  0  0  0  0
 33 41  1  6  0  0  0
 33 31  1  0  0  0  0
 34 33  1  0  0  0  0
 34 37  1  0  0  0  0
 36 35  1  0  0  0  0
 37 39  1  0  0  0  0
 38 36  2  0  0  0  0
 39 35  2  0  0  0  0
 40 37  2  0  0  0  0
 40 38  1  0  0  0  0
 42 41  1  0  0  0  0
 42 45  1  0  0  0  0
 43 44  1  0  0  0  0
 44 47  1  0  0  0  0
 45 43  1  0  0  0  0
 46 43  2  0  0  0  0
 47 48  1  0  0  0  0
 48 49  2  0  0  0  0
 49 50  1  0  0  0  0
 50 52  2  0  0  0  0
 51 50  1  0  0  0  0
M  END
>  <MODEL>
9

>  <REMARK>
 VINA RESULT:      -4.9      2.411      9.297
  Name = 
  26 active torsions:
  status: ('A' for Active; 'I' for Inactive)
    1  A    between atoms: C_1  and  N_24
    2  A    between atoms: C_1  and  C_28
    3  A    between atoms: O_2  and  C_12
    4  A    between atoms: O_2  and  C_21
    5  A    between atoms: N_3  and  C_20
    6  A    between atoms: C_5  and  C_8
    7  A    between atoms: C_5  and  N_43
    8  A    between atoms: C_7  and  C_11
    9  A    between atoms: C_8  and  N_22
   10  A    between atoms: C_10  and  N_13
   11  A    between atoms: C_11  and  C_49
   12  A    between atoms: C_12  and  C_48
   13  A    between atoms: N_13  and  C_36
   14  A    between atoms: N_13  and  C_48
   15  A    between atoms: C_16  and  O_40
   16  A    between atoms: C_19  and  C_38
   17  A    between atoms: C_21  and  C_42
   18  A    between atoms: N_27  and  C_31
   19  A    between atoms: C_31  and  C_47
   20  A    between atoms: C_35  and  C_36
   21  A    between atoms: C_35  and  C_37
   22  A    between atoms: C_37  and  C_45
   23  A    between atoms: C_39  and  C_45
   24  A    between atoms: O_40  and  C_42
   25  A    between atoms: C_42  and  C_47
   26  A    between atoms: C_49  and  C_50
                            x       y       z     vdW  Elec       q    Type
                         _______ _______ _______ _____ _____    ______ ____

>  <TORSDO>
F 26

$$$$
