=
 OpenBabel11042415383D

 46 50  0  0  1  0  0  0  0  0999 V2000
  191.5160  172.4090  143.5650 C   0  0  0  0  0  0  0  0  0  0  0  0
  192.0910  173.6600  143.2870 C   0  0  0  0  0  3  0  0  0  0  0  0
  191.6100  174.7670  143.9790 C   0  0  0  0  0  0  0  0  0  0  0  0
  190.0430  173.4360  145.1710 N   0  0  0  0  0  0  0  0  0  0  0  0
  191.1100  176.9170  144.8970 C   0  0  0  0  0  2  0  0  0  0  0  0
  192.0090  176.1990  143.8590 C   0  0  1  0  0  3  0  0  0  0  0  0
  190.4860  172.3170  144.5230 C   0  0  0  0  0  3  0  0  0  0  0  0
  190.6050  174.6400  144.8880 C   0  0  0  0  0  0  0  0  0  0  0  0
  190.2690  175.8730  145.4910 N   0  0  0  0  0  0  0  0  0  0  0  0
  185.6870  177.1680  146.1680 C   0  0  2  0  0  3  0  0  0  0  0  0
  187.9660  176.5290  146.0170 C   0  0  0  0  0  0  0  0  0  0  0  0
  186.2330  177.6420  144.8180 C   0  0  1  0  0  3  0  0  0  0  0  0
  185.0120  178.3170  146.8970 C   0  0  0  0  0  1  0  0  0  0  0  0
  187.6150  177.0170  144.6650 C   0  0  0  0  0  2  0  0  0  0  0  0
  189.1580  176.0520  146.3800 C   0  0  0  0  0  3  0  0  0  0  0  0
  186.8600  176.6620  146.9870 C   0  0  0  0  0  2  0  0  0  0  0  0
  185.3210  177.2290  143.6560 C   0  0  0  0  0  3  0  0  0  0  0  0
  186.1570  176.7290  142.4890 C   0  0  0  0  0  1  0  0  0  0  0  0
  184.4910  178.4010  143.1640 C   0  0  0  0  0  1  0  0  0  0  0  0
  194.1460  176.1120  141.9250 O   0  0  0  0  0  0  0  0  0  0  0  0
  193.4340  176.3970  144.1400 N   0  0  0  0  0  0  0  0  0  0  0  0
  194.4610  176.2310  143.1410 C   0  0  0  0  0  0  0  0  0  0  0  0
  195.9090  176.1630  143.5530 C   0  0  2  0  0  3  0  0  0  0  0  0
  196.7530  175.8710  142.3960 C   0  0  0  0  0  2  0  0  0  0  0  0
  196.4500  174.8030  143.3620 N   0  0  0  0  0  0  0  0  0  0  0  0
  197.5980  174.6990  144.2460 C   0  0  0  0  0  2  0  0  0  0  0  0
  197.7690  173.2620  144.7120 C   0  0  0  0  0  2  0  0  0  0  0  0
  196.8760  171.6100  146.1920 O   0  0  0  0  0  1  0  0  0  0  0  0
  196.9300  172.9850  145.9460 C   0  0  0  0  0  2  0  0  0  0  0  0
  194.0950  175.3570  146.2480 C   0  0  0  0  0  1  0  0  0  0  0  0
  193.7850  176.6570  145.5290 C   0  0  0  0  0  2  0  0  0  0  0  0
  191.9970  171.1800  142.8680 C   0  0  0  0  0  2  0  0  0  0  0  0
  191.0510  170.7810  141.7760 C   0  0  0  0  0  0  0  0  0  0  0  0
  190.4000  169.7070  141.9050 O   0  0  0  0  0  0  0  0  0  0  0  0
  191.7170  172.5180  138.4900 C   0  0  0  0  0  3  0  0  0  0  0  0
  190.8530  171.6590  140.5930 C   0  0  0  0  0  0  0  0  0  0  0  0
  191.8400  171.6820  139.5970 C   0  0  0  0  0  3  0  0  0  0  0  0
  190.6050  173.3620  138.3510 C   0  0  0  0  0  0  0  0  0  0  0  0
  189.6180  173.3560  139.3480 C   0  0  0  0  0  0  0  0  0  0  0  0
  188.7380  172.5280  141.4350 O   0  0  0  0  0  1  0  0  0  0  0  0
  188.2300  174.4260  139.2080 Cl  0  0  0  0  0  0  0  0  0  0  0  0
  189.7340  172.5110  140.4640 C   0  0  0  0  0  0  0  0  0  0  0  0
  190.4560  174.2220  137.2480 O   0  0  0  0  0  0  0  0  0  0  0  0
  189.7590  173.9430  136.0630 C   0  0  0  0  0  0  0  0  0  0  0  0
  189.2130  175.0720  135.2630 C   0  0  0  0  0  1  0  0  0  0  0  0
  189.5740  172.7610  135.6620 O   0  0  0  0  0  0  0  0  0  0  0  0
  1  7  1  0  0  0  0
  2  1  2  0  0  0  0
  2  3  1  0  0  0  0
  3  8  2  0  0  0  0
  5  9  1  0  0  0  0
  6  3  1  0  0  0  0
  6 21  1  1  0  0  0
  6  5  1  0  0  0  0
  7  4  2  0  0  0  0
  8  4  1  0  0  0  0
  8  9  1  0  0  0  0
  9 15  1  0  0  0  0
 10 13  1  1  0  0  0
 10 16  1  0  0  0  0
 11 15  2  0  0  0  0
 11 16  1  0  0  0  0
 12 17  1  6  0  0  0
 12 10  1  0  0  0  0
 14 12  1  0  0  0  0
 14 11  1  0  0  0  0
 18 17  1  0  0  0  0
 19 17  1  0  0  0  0
 20 22  2  0  0  0  0
 21 31  1  0  0  0  0
 22 21  1  0  0  0  0
 23 22  1  6  0  0  0
 24 25  1  0  0  0  0
 24 23  1  0  0  0  0
 25 23  1  0  0  0  0
 25 26  1  0  0  0  0
 26 27  1  0  0  0  0
 27 29  1  0  0  0  0
 29 28  1  0  0  0  0
 31 30  1  0  0  0  0
 32  1  1  0  0  0  0
 33 34  2  0  0  0  0
 33 32  1  0  0  0  0
 35 37  1  0  0  0  0
 36 33  1  0  0  0  0
 37 36  2  0  0  0  0
 38 35  2  0  0  0  0
 38 39  1  0  0  0  0
 39 42  2  0  0  0  0
 41 39  1  0  0  0  0
 42 36  1  0  0  0  0
 42 40  1  0  0  0  0
 43 38  1  0  0  0  0
 44 43  1  0  0  0  0
 45 44  1  0  0  0  0
 46 44  2  0  0  0  0
M  END
>  <MODEL>
1

>  <REMARK>
 VINA RESULT:      -7.4      0.000      0.000
  Name = 
  13 active torsions:
  status: ('A' for Active; 'I' for Inactive)
    1  A    between atoms: C_1  and  C_3
    2  A    between atoms: C_1  and  C_45
    3  A    between atoms: C_4  and  O_38
    4  A    between atoms: C_6  and  C_15
    5  A    between atoms: C_6  and  C_18
    6  A    between atoms: C_8  and  C_45
    7  A    between atoms: C_10  and  O_38
    8  A    between atoms: C_15  and  N_33
    9  A    between atoms: C_16  and  C_31
   10  A    between atoms: C_22  and  C_42
   11  A    between atoms: N_27  and  C_30
   12  A    between atoms: N_27  and  C_44
   13  A    between atoms: C_41  and  N_46
                            x       y       z     vdW  Elec       q    Type
                         _______ _______ _______ _____ _____    ______ ____

>  <TORSDO>
F 13

$$$$
=
 OpenBabel11042415383D

 46 50  0  0  1  0  0  0  0  0999 V2000
  192.8900  176.3270  144.7710 C   0  0  0  0  0  0  0  0  0  0  0  0
  192.3410  175.0450  144.6060 C   0  0  0  0  0  3  0  0  0  0  0  0
  191.1260  174.9360  143.9370 C   0  0  0  0  0  0  0  0  0  0  0  0
  191.0060  177.2890  143.6160 N   0  0  0  0  0  0  0  0  0  0  0  0
  189.0860  174.2700  142.8810 C   0  0  0  0  0  2  0  0  0  0  0  0
  190.3110  173.7200  143.6560 C   0  0  1  0  0  3  0  0  0  0  0  0
  192.2010  177.4460  144.2600 C   0  0  0  0  0  3  0  0  0  0  0  0
  190.4850  176.0430  143.4690 C   0  0  0  0  0  0  0  0  0  0  0  0
  189.2770  175.7230  142.8100 N   0  0  0  0  0  0  0  0  0  0  0  0
  185.6540  178.7460  143.7370 C   0  0  2  0  0  3  0  0  0  0  0  0
  187.4070  177.2820  143.1010 C   0  0  0  0  0  0  0  0  0  0  0  0
  185.8700  177.7320  144.8640 C   0  0  1  0  0  3  0  0  0  0  0  0
  184.1880  178.7890  143.3410 C   0  0  0  0  0  1  0  0  0  0  0  0
  187.1420  176.9670  144.5210 C   0  0  0  0  0  2  0  0  0  0  0  0
  188.3380  176.7000  142.3410 C   0  0  0  0  0  3  0  0  0  0  0  0
  186.4900  178.3020  142.5520 C   0  0  0  0  0  2  0  0  0  0  0  0
  186.0020  178.4170  146.2310 C   0  0  0  0  0  3  0  0  0  0  0  0
  187.0930  177.7450  147.0470 C   0  0  0  0  0  1  0  0  0  0  0  0
  184.7080  178.3260  147.0200 C   0  0  0  0  0  1  0  0  0  0  0  0
  191.3920  174.1220  141.0140 O   0  0  0  0  0  0  0  0  0  0  0  0
  191.0550  172.7310  142.8700 N   0  0  0  0  0  0  0  0  0  0  0  0
  191.4730  172.9640  141.5090 C   0  0  0  0  0  0  0  0  0  0  0  0
  191.9710  171.8200  140.6660 C   0  0  2  0  0  3  0  0  0  0  0  0
  191.8800  172.1560  139.2460 C   0  0  0  0  0  2  0  0  0  0  0  0
  190.8830  171.2540  139.8450 N   0  0  0  0  0  0  0  0  0  0  0  0
  191.2900  169.9000  139.5140 C   0  0  0  0  0  2  0  0  0  0  0  0
  191.2270  169.6890  138.0100 C   0  0  0  0  0  2  0  0  0  0  0  0
  189.6080  170.6310  136.5240 O   0  0  0  0  0  1  0  0  0  0  0  0
  189.7910  169.6690  137.5210 C   0  0  0  0  0  2  0  0  0  0  0  0
  192.5790  171.4000  144.2370 C   0  0  0  0  0  1  0  0  0  0  0  0
  191.2550  171.4310  143.4940 C   0  0  0  0  0  2  0  0  0  0  0  0
  194.1980  176.5100  145.4660 C   0  0  0  0  0  2  0  0  0  0  0  0
  195.3260  175.9850  144.6290 C   0  0  0  0  0  0  0  0  0  0  0  0
  195.8600  176.7550  143.7850 O   0  0  0  0  0  0  0  0  0  0  0  0
  197.0210  173.0170  146.2370 C   0  0  0  0  0  3  0  0  0  0  0  0
  195.8290  174.6000  144.8280 C   0  0  0  0  0  0  0  0  0  0  0  0
  196.4970  174.2910  146.0220 C   0  0  0  0  0  3  0  0  0  0  0  0
  196.8950  172.0180  145.2600 C   0  0  0  0  0  0  0  0  0  0  0  0
  196.2400  172.3220  144.0570 C   0  0  0  0  0  0  0  0  0  0  0  0
  195.0600  173.8710  142.6340 O   0  0  0  0  0  1  0  0  0  0  0  0
  196.0970  171.0930  142.8070 Cl  0  0  0  0  0  0  0  0  0  0  0  0
  195.7060  173.6020  143.8370 C   0  0  0  0  0  0  0  0  0  0  0  0
  197.4190  170.7270  145.4440 O   0  0  0  0  0  0  0  0  0  0  0  0
  196.8530  169.7020  146.2170 C   0  0  0  0  0  0  0  0  0  0  0  0
  195.3740  169.6520  146.3780 C   0  0  0  0  0  1  0  0  0  0  0  0
  197.5620  168.8280  146.7880 O   0  0  0  0  0  0  0  0  0  0  0  0
  1 32  1  0  0  0  0
  2  1  1  0  0  0  0
  3  2  2  0  0  0  0
  4  7  1  0  0  0  0
  5  6  1  0  0  0  0
  6 21  1  6  0  0  0
  6  3  1  0  0  0  0
  7  1  2  0  0  0  0
  8  4  2  0  0  0  0
  8  3  1  0  0  0  0
  9  5  1  0  0  0  0
  9  8  1  0  0  0  0
 10 13  1  6  0  0  0
 10 12  1  0  0  0  0
 11 14  1  0  0  0  0
 12 17  1  1  0  0  0
 14 12  1  0  0  0  0
 15  9  1  0  0  0  0
 15 11  2  0  0  0  0
 16 11  1  0  0  0  0
 16 10  1  0  0  0  0
 17 19  1  0  0  0  0
 17 18  1  0  0  0  0
 20 22  2  0  0  0  0
 21 31  1  0  0  0  0
 22 21  1  0  0  0  0
 23 22  1  1  0  0  0
 24 25  1  0  0  0  0
 24 23  1  0  0  0  0
 25 23  1  0  0  0  0
 26 25  1  0  0  0  0
 27 26  1  0  0  0  0
 28 29  1  0  0  0  0
 29 27  1  0  0  0  0
 31 30  1  0  0  0  0
 33 36  1  0  0  0  0
 33 32  1  0  0  0  0
 34 33  2  0  0  0  0
 36 37  2  0  0  0  0
 37 35  1  0  0  0  0
 38 43  1  0  0  0  0
 38 35  2  0  0  0  0
 39 38  1  0  0  0  0
 40 42  1  0  0  0  0
 41 39  1  0  0  0  0
 42 39  2  0  0  0  0
 42 36  1  0  0  0  0
 43 44  1  0  0  0  0
 44 45  1  0  0  0  0
 44 46  2  0  0  0  0
M  END
>  <MODEL>
2

>  <REMARK>
 VINA RESULT:      -7.0      2.631      7.169
  Name = 
  13 active torsions:
  status: ('A' for Active; 'I' for Inactive)
    1  A    between atoms: C_1  and  C_3
    2  A    between atoms: C_1  and  C_45
    3  A    between atoms: C_4  and  O_38
    4  A    between atoms: C_6  and  C_15
    5  A    between atoms: C_6  and  C_18
    6  A    between atoms: C_8  and  C_45
    7  A    between atoms: C_10  and  O_38
    8  A    between atoms: C_15  and  N_33
    9  A    between atoms: C_16  and  C_31
   10  A    between atoms: C_22  and  C_42
   11  A    between atoms: N_27  and  C_30
   12  A    between atoms: N_27  and  C_44
   13  A    between atoms: C_41  and  N_46
                            x       y       z     vdW  Elec       q    Type
                         _______ _______ _______ _____ _____    ______ ____

>  <TORSDO>
F 13

$$$$
=
 OpenBabel11042415383D

 46 50  0  0  1  0  0  0  0  0999 V2000
  191.0390  173.0250  143.0480 C   0  0  0  0  0  0  0  0  0  0  0  0
  191.9840  174.0580  142.9380 C   0  0  0  0  0  3  0  0  0  0  0  0
  191.6550  175.3020  143.4660 C   0  0  0  0  0  0  0  0  0  0  0  0
  189.5250  174.5210  144.1770 N   0  0  0  0  0  0  0  0  0  0  0  0
  191.5300  177.5730  144.2030 C   0  0  0  0  0  2  0  0  0  0  0  0
  192.4440  176.5670  143.4580 C   0  0  1  0  0  3  0  0  0  0  0  0
  189.8050  173.2790  143.6800 C   0  0  0  0  0  3  0  0  0  0  0  0
  190.4470  175.5110  144.0590 C   0  0  0  0  0  0  0  0  0  0  0  0
  190.3100  176.8320  144.5410 N   0  0  0  0  0  0  0  0  0  0  0  0
  185.8440  178.4740  143.8440 C   0  0  2  0  0  3  0  0  0  0  0  0
  188.0350  177.7290  144.3600 C   0  0  0  0  0  0  0  0  0  0  0  0
  186.6520  178.4140  142.5450 C   0  0  1  0  0  3  0  0  0  0  0  0
  185.1850  179.8350  143.9930 C   0  0  0  0  0  1  0  0  0  0  0  0
  187.9650  177.7190  142.8830 C   0  0  0  0  0  2  0  0  0  0  0  0
  189.0940  177.3630  145.0860 C   0  0  0  0  0  3  0  0  0  0  0  0
  186.8050  178.2440  144.9960 C   0  0  0  0  0  2  0  0  0  0  0  0
  185.9050  177.6530  141.4420 C   0  0  0  0  0  3  0  0  0  0  0  0
  186.8920  177.1130  140.4210 C   0  0  0  0  0  1  0  0  0  0  0  0
  184.9300  178.5590  140.7120 C   0  0  0  0  0  1  0  0  0  0  0  0
  194.9470  175.9400  142.1710 O   0  0  0  0  0  0  0  0  0  0  0  0
  193.7400  176.4090  144.1250 N   0  0  0  0  0  0  0  0  0  0  0  0
  194.9320  175.9870  143.4320 C   0  0  0  0  0  0  0  0  0  0  0  0
  196.1500  175.5660  144.2130 C   0  0  2  0  0  3  0  0  0  0  0  0
  197.0450  174.7740  143.3720 C   0  0  0  0  0  2  0  0  0  0  0  0
  196.1980  174.0990  144.3690 N   0  0  0  0  0  0  0  0  0  0  0  0
  197.0350  173.8450  145.5280 C   0  0  0  0  0  2  0  0  0  0  0  0
  196.8840  172.4000  145.9750 C   0  0  0  0  0  2  0  0  0  0  0  0
  195.3300  170.5880  146.1090 O   0  0  0  0  0  1  0  0  0  0  0  0
  195.5790  171.8090  145.4750 C   0  0  0  0  0  2  0  0  0  0  0  0
  193.4510  175.2680  146.2640 C   0  0  0  0  0  1  0  0  0  0  0  0
  193.7450  176.5860  145.5700 C   0  0  0  0  0  2  0  0  0  0  0  0
  191.3360  171.6620  142.5150 C   0  0  0  0  0  2  0  0  0  0  0  0
  192.0070  171.7470  141.1770 C   0  0  0  0  0  0  0  0  0  0  0  0
  193.1860  171.3120  141.0650 O   0  0  0  0  0  0  0  0  0  0  0  0
  189.2650  172.2780  138.6350 C   0  0  0  0  0  3  0  0  0  0  0  0
  191.2750  172.2880  140.0020 C   0  0  0  0  0  0  0  0  0  0  0  0
  189.9750  171.8290  139.7460 C   0  0  0  0  0  3  0  0  0  0  0  0
  189.8390  173.1960  137.7420 C   0  0  0  0  0  0  0  0  0  0  0  0
  191.1450  173.6510  137.9810 C   0  0  0  0  0  0  0  0  0  0  0  0
  193.1550  173.6770  139.3140 O   0  0  0  0  0  1  0  0  0  0  0  0
  191.8950  174.7790  136.8600 Cl  0  0  0  0  0  0  0  0  0  0  0  0
  191.8630  173.2060  139.1040 C   0  0  0  0  0  0  0  0  0  0  0  0
  189.1510  173.6620  136.6080 O   0  0  0  0  0  0  0  0  0  0  0  0
  188.3720  174.8260  136.5280 C   0  0  0  0  0  0  0  0  0  0  0  0
  188.5910  175.7650  135.3940 C   0  0  0  0  0  1  0  0  0  0  0  0
  187.4990  175.1050  137.3960 O   0  0  0  0  0  0  0  0  0  0  0  0
  1  7  1  0  0  0  0
  2  1  2  0  0  0  0
  2  3  1  0  0  0  0
  3  8  2  0  0  0  0
  5  9  1  0  0  0  0
  6  3  1  0  0  0  0
  6 21  1  1  0  0  0
  6  5  1  0  0  0  0
  7  4  2  0  0  0  0
  8  4  1  0  0  0  0
  8  9  1  0  0  0  0
  9 15  1  0  0  0  0
 10 13  1  1  0  0  0
 10 16  1  0  0  0  0
 11 16  1  0  0  0  0
 11 15  2  0  0  0  0
 12 17  1  6  0  0  0
 12 14  1  0  0  0  0
 12 10  1  0  0  0  0
 14 11  1  0  0  0  0
 18 17  1  0  0  0  0
 19 17  1  0  0  0  0
 20 22  2  0  0  0  0
 21 31  1  0  0  0  0
 22 21  1  0  0  0  0
 23 22  1  6  0  0  0
 23 25  1  0  0  0  0
 24 23  1  0  0  0  0
 24 25  1  0  0  0  0
 25 26  1  0  0  0  0
 26 27  1  0  0  0  0
 29 27  1  0  0  0  0
 29 28  1  0  0  0  0
 31 30  1  0  0  0  0
 32  1  1  0  0  0  0
 33 32  1  0  0  0  0
 34 33  2  0  0  0  0
 35 37  1  0  0  0  0
 36 33  1  0  0  0  0
 37 36  2  0  0  0  0
 38 39  1  0  0  0  0
 38 35  2  0  0  0  0
 39 42  2  0  0  0  0
 41 39  1  0  0  0  0
 42 40  1  0  0  0  0
 42 36  1  0  0  0  0
 43 38  1  0  0  0  0
 44 43  1  0  0  0  0
 44 46  2  0  0  0  0
 45 44  1  0  0  0  0
M  END
>  <MODEL>
3

>  <REMARK>
 VINA RESULT:      -7.0      1.633      2.025
  Name = 
  13 active torsions:
  status: ('A' for Active; 'I' for Inactive)
    1  A    between atoms: C_1  and  C_3
    2  A    between atoms: C_1  and  C_45
    3  A    between atoms: C_4  and  O_38
    4  A    between atoms: C_6  and  C_15
    5  A    between atoms: C_6  and  C_18
    6  A    between atoms: C_8  and  C_45
    7  A    between atoms: C_10  and  O_38
    8  A    between atoms: C_15  and  N_33
    9  A    between atoms: C_16  and  C_31
   10  A    between atoms: C_22  and  C_42
   11  A    between atoms: N_27  and  C_30
   12  A    between atoms: N_27  and  C_44
   13  A    between atoms: C_41  and  N_46
                            x       y       z     vdW  Elec       q    Type
                         _______ _______ _______ _____ _____    ______ ____

>  <TORSDO>
F 13

$$$$
=
 OpenBabel11042415383D

 46 50  0  0  1  0  0  0  0  0999 V2000
  192.3600  176.1060  142.7610 C   0  0  0  0  0  0  0  0  0  0  0  0
  191.6640  174.9100  142.5230 C   0  0  0  0  0  3  0  0  0  0  0  0
  190.2800  174.9770  142.3880 C   0  0  0  0  0  0  0  0  0  0  0  0
  190.2860  177.3310  142.7200 N   0  0  0  0  0  0  0  0  0  0  0  0
  187.9360  174.6040  142.1040 C   0  0  0  0  0  2  0  0  0  0  0  0
  189.3020  173.8740  142.1700 C   0  0  1  0  0  3  0  0  0  0  0  0
  191.6460  177.3180  142.8530 C   0  0  0  0  0  3  0  0  0  0  0  0
  189.6250  176.1650  142.4960 C   0  0  0  0  0  0  0  0  0  0  0  0
  188.2310  176.0250  142.3160 N   0  0  0  0  0  0  0  0  0  0  0  0
  185.4930  178.6220  145.2970 C   0  0  2  0  0  3  0  0  0  0  0  0
  186.7510  177.4190  143.6880 C   0  0  0  0  0  0  0  0  0  0  0  0
  185.9950  177.3290  145.9450 C   0  0  1  0  0  3  0  0  0  0  0  0
  183.9940  178.7660  145.4980 C   0  0  0  0  0  1  0  0  0  0  0  0
  186.9790  176.7060  144.9630 C   0  0  0  0  0  2  0  0  0  0  0  0
  187.2880  177.0880  142.5110 C   0  0  0  0  0  3  0  0  0  0  0  0
  185.8050  178.5460  143.8140 C   0  0  0  0  0  2  0  0  0  0  0  0
  186.6720  177.5930  147.2960 C   0  0  0  0  0  3  0  0  0  0  0  0
  186.3050  178.9780  147.8020 C   0  0  0  0  0  1  0  0  0  0  0  0
  188.1840  177.5280  147.1760 C   0  0  0  0  0  1  0  0  0  0  0  0
  190.2420  171.1520  142.0130 O   0  0  0  0  0  0  0  0  0  0  0  0
  189.5820  173.1280  140.9390 N   0  0  0  0  0  0  0  0  0  0  0  0
  190.1550  171.8040  140.9360 C   0  0  0  0  0  0  0  0  0  0  0  0
  190.6840  171.2130  139.6560 C   0  0  2  0  0  3  0  0  0  0  0  0
  191.7160  170.2190  139.9420 C   0  0  0  0  0  2  0  0  0  0  0  0
  192.1070  171.5550  139.4630 N   0  0  0  0  0  0  0  0  0  0  0  0
  192.3610  171.4310  138.0390 C   0  0  0  0  0  2  0  0  0  0  0  0
  193.7900  171.8450  137.7260 C   0  0  0  0  0  2  0  0  0  0  0  0
  195.5230  171.9400  139.3700 O   0  0  0  0  0  1  0  0  0  0  0  0
  194.4000  172.6150  138.8830 C   0  0  0  0  0  2  0  0  0  0  0  0
  188.2200  173.2140  138.9140 C   0  0  0  0  0  1  0  0  0  0  0  0
  189.3630  173.8440  139.6900 C   0  0  0  0  0  2  0  0  0  0  0  0
  193.8470  176.1050  142.9000 C   0  0  0  0  0  2  0  0  0  0  0  0
  194.2500  175.7980  144.3110 C   0  0  0  0  0  0  0  0  0  0  0  0
  194.2120  176.7260  145.1650 O   0  0  0  0  0  0  0  0  0  0  0  0
  194.0190  172.3100  145.7410 C   0  0  0  0  0  3  0  0  0  0  0  0
  194.6400  174.4160  144.6980 C   0  0  0  0  0  0  0  0  0  0  0  0
  193.6890  173.5980  145.3250 C   0  0  0  0  0  3  0  0  0  0  0  0
  195.3140  171.8060  145.5470 C   0  0  0  0  0  0  0  0  0  0  0  0
  196.2770  172.6210  144.9330 C   0  0  0  0  0  0  0  0  0  0  0  0
  196.9240  174.7020  143.8990 O   0  0  0  0  0  1  0  0  0  0  0  0
  197.9130  172.0200  144.7060 Cl  0  0  0  0  0  0  0  0  0  0  0  0
  195.9470  173.9180  144.5070 C   0  0  0  0  0  0  0  0  0  0  0  0
  195.6800  170.5130  145.9630 O   0  0  0  0  0  0  0  0  0  0  0  0
  194.9170  169.3450  145.8140 C   0  0  0  0  0  0  0  0  0  0  0  0
  194.6020  168.5310  147.0190 C   0  0  0  0  0  1  0  0  0  0  0  0
  194.5010  168.9600  144.6870 O   0  0  0  0  0  0  0  0  0  0  0  0
  1  7  1  0  0  0  0
  1 32  1  0  0  0  0
  2  1  2  0  0  0  0
  3  8  2  0  0  0  0
  3  2  1  0  0  0  0
  4  7  2  0  0  0  0
  5  6  1  0  0  0  0
  5  9  1  0  0  0  0
  6 21  1  6  0  0  0
  6  3  1  0  0  0  0
  8  4  1  0  0  0  0
  9  8  1  0  0  0  0
  9 15  1  0  0  0  0
 10 13  1  6  0  0  0
 10 12  1  0  0  0  0
 11 16  1  0  0  0  0
 11 14  1  0  0  0  0
 12 17  1  1  0  0  0
 14 12  1  0  0  0  0
 15 11  2  0  0  0  0
 16 10  1  0  0  0  0
 17 18  1  0  0  0  0
 19 17  1  0  0  0  0
 22 21  1  0  0  0  0
 22 20  2  0  0  0  0
 23 24  1  0  0  0  0
 23 22  1  1  0  0  0
 25 23  1  0  0  0  0
 25 24  1  0  0  0  0
 26 25  1  0  0  0  0
 27 26  1  0  0  0  0
 27 29  1  0  0  0  0
 29 28  1  0  0  0  0
 30 31  1  0  0  0  0
 31 21  1  0  0  0  0
 32 33  1  0  0  0  0
 33 36  1  0  0  0  0
 33 34  2  0  0  0  0
 36 37  1  0  0  0  0
 37 35  2  0  0  0  0
 38 35  1  0  0  0  0
 38 43  1  0  0  0  0
 39 38  2  0  0  0  0
 40 42  1  0  0  0  0
 41 39  1  0  0  0  0
 42 36  2  0  0  0  0
 42 39  1  0  0  0  0
 44 43  1  0  0  0  0
 44 45  1  0  0  0  0
 46 44  2  0  0  0  0
M  END
>  <MODEL>
4

>  <REMARK>
 VINA RESULT:      -6.9      3.079      6.989
  Name = 
  13 active torsions:
  status: ('A' for Active; 'I' for Inactive)
    1  A    between atoms: C_1  and  C_3
    2  A    between atoms: C_1  and  C_45
    3  A    between atoms: C_4  and  O_38
    4  A    between atoms: C_6  and  C_15
    5  A    between atoms: C_6  and  C_18
    6  A    between atoms: C_8  and  C_45
    7  A    between atoms: C_10  and  O_38
    8  A    between atoms: C_15  and  N_33
    9  A    between atoms: C_16  and  C_31
   10  A    between atoms: C_22  and  C_42
   11  A    between atoms: N_27  and  C_30
   12  A    between atoms: N_27  and  C_44
   13  A    between atoms: C_41  and  N_46
                            x       y       z     vdW  Elec       q    Type
                         _______ _______ _______ _____ _____    ______ ____

>  <TORSDO>
F 13

$$$$
=
 OpenBabel11042415383D

 46 50  0  0  1  0  0  0  0  0999 V2000
  189.2390  173.5320  141.9490 C   0  0  0  0  0  0  0  0  0  0  0  0
  190.3670  174.3010  142.2780 C   0  0  0  0  0  3  0  0  0  0  0  0
  190.1750  175.6460  142.5770 C   0  0  0  0  0  0  0  0  0  0  0  0
  187.8300  175.4660  142.2280 N   0  0  0  0  0  0  0  0  0  0  0  0
  190.3320  177.9640  143.1430 C   0  0  0  0  0  2  0  0  0  0  0  0
  191.1840  176.6880  142.9200 C   0  0  1  0  0  3  0  0  0  0  0  0
  187.9670  174.1380  141.9330 C   0  0  0  0  0  3  0  0  0  0  0  0
  188.9310  176.1990  142.5390 C   0  0  0  0  0  0  0  0  0  0  0  0
  188.9430  177.5680  142.8850 N   0  0  0  0  0  0  0  0  0  0  0  0
  184.8220  179.1640  144.7820 C   0  0  2  0  0  3  0  0  0  0  0  0
  186.8070  178.4630  143.6910 C   0  0  0  0  0  0  0  0  0  0  0  0
  185.3050  177.8700  145.4420 C   0  0  1  0  0  3  0  0  0  0  0  0
  183.3610  179.0410  144.3860 C   0  0  0  0  0  1  0  0  0  0  0  0
  186.6890  177.5830  144.8730 C   0  0  0  0  0  2  0  0  0  0  0  0
  187.7970  178.4260  142.7960 C   0  0  0  0  0  3  0  0  0  0  0  0
  185.6690  179.3940  143.5440 C   0  0  0  0  0  2  0  0  0  0  0  0
  185.3640  177.9960  146.9700 C   0  0  0  0  0  3  0  0  0  0  0  0
  185.9040  179.3620  147.3600 C   0  0  0  0  0  1  0  0  0  0  0  0
  186.2770  176.9440  147.5750 C   0  0  0  0  0  1  0  0  0  0  0  0
  193.8800  175.6660  142.9540 O   0  0  0  0  0  0  0  0  0  0  0  0
  191.9560  176.3320  144.1150 N   0  0  0  0  0  0  0  0  0  0  0  0
  193.2610  175.7220  144.0520 C   0  0  0  0  0  0  0  0  0  0  0  0
  193.8730  175.1190  145.2900 C   0  0  2  0  0  3  0  0  0  0  0  0
  194.5610  176.1470  146.0690 C   0  0  0  0  0  2  0  0  0  0  0  0
  195.3460  175.2080  145.2500 N   0  0  0  0  0  0  0  0  0  0  0  0
  195.8350  174.1770  146.1470 C   0  0  0  0  0  2  0  0  0  0  0  0
  197.1820  173.6620  145.6650 C   0  0  0  0  0  2  0  0  0  0  0  0
  195.8620  171.6770  145.4920 O   0  0  0  0  0  1  0  0  0  0  0  0
  197.1760  172.1500  145.5410 C   0  0  0  0  0  2  0  0  0  0  0  0
  190.5480  175.2460  145.7890 C   0  0  0  0  0  1  0  0  0  0  0  0
  191.2830  176.5140  145.3930 C   0  0  0  0  0  2  0  0  0  0  0  0
  189.3760  172.0790  141.6330 C   0  0  0  0  0  2  0  0  0  0  0  0
  190.4600  171.8520  140.6220 C   0  0  0  0  0  0  0  0  0  0  0  0
  191.4050  171.0710  140.9170 O   0  0  0  0  0  0  0  0  0  0  0  0
  189.1850  172.8040  137.1970 C   0  0  0  0  0  3  0  0  0  0  0  0
  190.3900  172.5000  139.2860 C   0  0  0  0  0  0  0  0  0  0  0  0
  189.2760  172.2500  138.4720 C   0  0  0  0  0  3  0  0  0  0  0  0
  190.2120  173.6200  136.6970 C   0  0  0  0  0  0  0  0  0  0  0  0
  191.3360  173.8660  137.4990 C   0  0  0  0  0  0  0  0  0  0  0  0
  192.5590  173.5790  139.5580 O   0  0  0  0  0  1  0  0  0  0  0  0
  192.6470  174.8620  136.8810 Cl  0  0  0  0  0  0  0  0  0  0  0  0
  191.4300  173.3150  138.7870 C   0  0  0  0  0  0  0  0  0  0  0  0
  190.1520  174.1880  135.4120 O   0  0  0  0  0  0  0  0  0  0  0  0
  189.4250  175.3280  135.0390 C   0  0  0  0  0  0  0  0  0  0  0  0
  190.1460  176.6170  134.8570 C   0  0  0  0  0  1  0  0  0  0  0  0
  188.1760  175.2930  134.8630 O   0  0  0  0  0  0  0  0  0  0  0  0
  1  2  1  0  0  0  0
  2  3  2  0  0  0  0
  3  6  1  0  0  0  0
  4  8  2  0  0  0  0
  6  5  1  0  0  0  0
  6 21  1  1  0  0  0
  7  1  2  0  0  0  0
  7  4  1  0  0  0  0
  8  3  1  0  0  0  0
  8  9  1  0  0  0  0
  9  5  1  0  0  0  0
 10 13  1  6  0  0  0
 10 12  1  0  0  0  0
 11 14  1  0  0  0  0
 12 17  1  1  0  0  0
 14 12  1  0  0  0  0
 15  9  1  0  0  0  0
 15 11  2  0  0  0  0
 16 11  1  0  0  0  0
 16 10  1  0  0  0  0
 17 18  1  0  0  0  0
 17 19  1  0  0  0  0
 20 22  2  0  0  0  0
 21 31  1  0  0  0  0
 22 21  1  0  0  0  0
 23 22  1  6  0  0  0
 23 24  1  0  0  0  0
 25 23  1  0  0  0  0
 25 24  1  0  0  0  0
 25 26  1  0  0  0  0
 27 26  1  0  0  0  0
 28 29  1  0  0  0  0
 29 27  1  0  0  0  0
 31 30  1  0  0  0  0
 32  1  1  0  0  0  0
 33 34  2  0  0  0  0
 33 32  1  0  0  0  0
 35 37  1  0  0  0  0
 36 33  1  0  0  0  0
 37 36  2  0  0  0  0
 38 35  2  0  0  0  0
 38 39  1  0  0  0  0
 39 42  2  0  0  0  0
 41 39  1  0  0  0  0
 42 36  1  0  0  0  0
 42 40  1  0  0  0  0
 43 38  1  0  0  0  0
 44 43  1  0  0  0  0
 45 44  1  0  0  0  0
 46 44  2  0  0  0  0
M  END
>  <MODEL>
5

>  <REMARK>
 VINA RESULT:      -6.7      1.932      2.949
  Name = 
  13 active torsions:
  status: ('A' for Active; 'I' for Inactive)
    1  A    between atoms: C_1  and  C_3
    2  A    between atoms: C_1  and  C_45
    3  A    between atoms: C_4  and  O_38
    4  A    between atoms: C_6  and  C_15
    5  A    between atoms: C_6  and  C_18
    6  A    between atoms: C_8  and  C_45
    7  A    between atoms: C_10  and  O_38
    8  A    between atoms: C_15  and  N_33
    9  A    between atoms: C_16  and  C_31
   10  A    between atoms: C_22  and  C_42
   11  A    between atoms: N_27  and  C_30
   12  A    between atoms: N_27  and  C_44
   13  A    between atoms: C_41  and  N_46
                            x       y       z     vdW  Elec       q    Type
                         _______ _______ _______ _____ _____    ______ ____

>  <TORSDO>
F 13

$$$$
=
 OpenBabel11042415383D

 46 50  0  0  1  0  0  0  0  0999 V2000
  193.6430  175.3400  145.9160 C   0  0  0  0  0  0  0  0  0  0  0  0
  193.0160  174.3450  145.1490 C   0  0  0  0  0  3  0  0  0  0  0  0
  191.6360  174.2070  145.2610 C   0  0  0  0  0  0  0  0  0  0  0  0
  191.5130  175.9780  146.8430 N   0  0  0  0  0  0  0  0  0  0  0  0
  189.3260  173.6040  145.1350 C   0  0  0  0  0  2  0  0  0  0  0  0
  190.7310  173.2250  144.5990 C   0  0  1  0  0  3  0  0  0  0  0  0
  192.8650  176.1560  146.7620 C   0  0  0  0  0  3  0  0  0  0  0  0
  190.9210  175.0070  146.0990 C   0  0  0  0  0  0  0  0  0  0  0  0
  189.5370  174.7210  146.0610 N   0  0  0  0  0  0  0  0  0  0  0  0
  186.0450  177.9490  146.7770 C   0  0  2  0  0  3  0  0  0  0  0  0
  187.7700  176.3310  146.6060 C   0  0  0  0  0  0  0  0  0  0  0  0
  186.8510  178.2350  145.5070 C   0  0  1  0  0  3  0  0  0  0  0  0
  185.9270  179.2060  147.6210 C   0  0  0  0  0  1  0  0  0  0  0  0
  187.7910  177.0510  145.3140 C   0  0  0  0  0  2  0  0  0  0  0  0
  188.5730  175.3170  146.9390 C   0  0  0  0  0  3  0  0  0  0  0  0
  186.7810  176.8760  147.5580 C   0  0  0  0  0  2  0  0  0  0  0  0
  185.9440  178.4100  144.2820 C   0  0  0  0  0  3  0  0  0  0  0  0
  186.7510  178.2330  143.0060 C   0  0  0  0  0  1  0  0  0  0  0  0
  185.3220  179.7950  144.2510 C   0  0  0  0  0  1  0  0  0  0  0  0
  190.8970  171.0020  142.7710 O   0  0  0  0  0  0  0  0  0  0  0  0
  190.8000  173.3150  143.1370 N   0  0  0  0  0  0  0  0  0  0  0  0
  190.9920  172.1650  142.2890 C   0  0  0  0  0  0  0  0  0  0  0  0
  191.3420  172.3490  140.8350 C   0  0  2  0  0  3  0  0  0  0  0  0
  190.1390  172.2760  140.0090 C   0  0  0  0  0  2  0  0  0  0  0  0
  191.0550  171.1250  140.0620 N   0  0  0  0  0  0  0  0  0  0  0  0
  191.8870  171.1950  138.8740 C   0  0  0  0  0  2  0  0  0  0  0  0
  191.8350  169.8750  138.1220 C   0  0  0  0  0  2  0  0  0  0  0  0
  190.9480  170.6960  136.0590 O   0  0  0  0  0  1  0  0  0  0  0  0
  192.0640  170.0840  136.6360 C   0  0  0  0  0  2  0  0  0  0  0  0
  189.3630  175.0750  142.2420 C   0  0  0  0  0  1  0  0  0  0  0  0
  190.7840  174.6580  142.5740 C   0  0  0  0  0  2  0  0  0  0  0  0
  195.1190  175.5490  145.8310 C   0  0  0  0  0  2  0  0  0  0  0  0
  195.4520  176.5970  144.8110 C   0  0  0  0  0  0  0  0  0  0  0  0
  195.2960  177.8100  145.1220 O   0  0  0  0  0  0  0  0  0  0  0  0
  197.9390  175.6600  142.1290 C   0  0  0  0  0  3  0  0  0  0  0  0
  195.9980  176.2100  143.4840 C   0  0  0  0  0  0  0  0  0  0  0  0
  197.3770  175.9870  143.3610 C   0  0  0  0  0  3  0  0  0  0  0  0
  197.1370  175.5530  140.9820 C   0  0  0  0  0  0  0  0  0  0  0  0
  195.7580  175.7870  141.0920 C   0  0  0  0  0  0  0  0  0  0  0  0
  193.8140  176.3360  142.4100 O   0  0  0  0  0  1  0  0  0  0  0  0
  194.7390  175.6870  139.6630 Cl  0  0  0  0  0  0  0  0  0  0  0  0
  195.1850  176.1110  142.3330 C   0  0  0  0  0  0  0  0  0  0  0  0
  197.6760  175.2320  139.7240 O   0  0  0  0  0  0  0  0  0  0  0  0
  197.6440  173.9760  139.1010 C   0  0  0  0  0  0  0  0  0  0  0  0
  197.9380  172.7610  139.9080 C   0  0  0  0  0  1  0  0  0  0  0  0
  197.3820  173.8480  137.8730 O   0  0  0  0  0  0  0  0  0  0  0  0
  1  7  1  0  0  0  0
  2  3  1  0  0  0  0
  2  1  2  0  0  0  0
  3  8  2  0  0  0  0
  5  9  1  0  0  0  0
  6 21  1  6  0  0  0
  6  5  1  0  0  0  0
  6  3  1  0  0  0  0
  7  4  2  0  0  0  0
  8  4  1  0  0  0  0
  9  8  1  0  0  0  0
  9 15  1  0  0  0  0
 10 16  1  0  0  0  0
 10 13  1  1  0  0  0
 11 15  2  0  0  0  0
 11 16  1  0  0  0  0
 12 17  1  6  0  0  0
 12 10  1  0  0  0  0
 14 12  1  0  0  0  0
 14 11  1  0  0  0  0
 18 17  1  0  0  0  0
 19 17  1  0  0  0  0
 22 20  2  0  0  0  0
 22 21  1  0  0  0  0
 23 22  1  1  0  0  0
 24 25  1  0  0  0  0
 24 23  1  0  0  0  0
 25 23  1  0  0  0  0
 26 25  1  0  0  0  0
 27 26  1  0  0  0  0
 28 29  1  0  0  0  0
 29 27  1  0  0  0  0
 30 31  1  0  0  0  0
 31 21  1  0  0  0  0
 32  1  1  0  0  0  0
 33 34  2  0  0  0  0
 33 32  1  0  0  0  0
 35 37  1  0  0  0  0
 36 33  1  0  0  0  0
 37 36  2  0  0  0  0
 38 39  1  0  0  0  0
 38 35  2  0  0  0  0
 39 42  2  0  0  0  0
 41 39  1  0  0  0  0
 42 40  1  0  0  0  0
 42 36  1  0  0  0  0
 43 38  1  0  0  0  0
 44 43  1  0  0  0  0
 44 45  1  0  0  0  0
 46 44  2  0  0  0  0
M  END
>  <MODEL>
6

>  <REMARK>
 VINA RESULT:      -6.7      2.526      6.160
  Name = 
  13 active torsions:
  status: ('A' for Active; 'I' for Inactive)
    1  A    between atoms: C_1  and  C_3
    2  A    between atoms: C_1  and  C_45
    3  A    between atoms: C_4  and  O_38
    4  A    between atoms: C_6  and  C_15
    5  A    between atoms: C_6  and  C_18
    6  A    between atoms: C_8  and  C_45
    7  A    between atoms: C_10  and  O_38
    8  A    between atoms: C_15  and  N_33
    9  A    between atoms: C_16  and  C_31
   10  A    between atoms: C_22  and  C_42
   11  A    between atoms: N_27  and  C_30
   12  A    between atoms: N_27  and  C_44
   13  A    between atoms: C_41  and  N_46
                            x       y       z     vdW  Elec       q    Type
                         _______ _______ _______ _____ _____    ______ ____

>  <TORSDO>
F 13

$$$$
=
 OpenBabel11042415383D

 46 50  0  0  1  0  0  0  0  0999 V2000
  189.8470  173.2130  141.0420 C   0  0  0  0  0  0  0  0  0  0  0  0
  190.9390  173.8530  141.6490 C   0  0  0  0  0  3  0  0  0  0  0  0
  190.7400  175.1260  142.1750 C   0  0  0  0  0  0  0  0  0  0  0  0
  188.4580  175.1250  141.5110 N   0  0  0  0  0  0  0  0  0  0  0  0
  190.8750  177.2860  143.1910 C   0  0  0  0  0  2  0  0  0  0  0  0
  191.7200  176.0360  142.8340 C   0  0  1  0  0  3  0  0  0  0  0  0
  188.6010  173.8710  140.9860 C   0  0  0  0  0  3  0  0  0  0  0  0
  189.5250  175.7330  142.0910 C   0  0  0  0  0  0  0  0  0  0  0  0
  189.5230  177.0120  142.6930 N   0  0  0  0  0  0  0  0  0  0  0  0
  185.4070  178.6470  144.5650 C   0  0  2  0  0  3  0  0  0  0  0  0
  187.3990  177.9400  143.4910 C   0  0  0  0  0  0  0  0  0  0  0  0
  185.8110  177.2880  145.1440 C   0  0  1  0  0  3  0  0  0  0  0  0
  183.9570  178.6190  144.1130 C   0  0  0  0  0  1  0  0  0  0  0  0
  187.2010  176.9820  144.6010 C   0  0  0  0  0  2  0  0  0  0  0  0
  188.4190  177.9240  142.6300 C   0  0  0  0  0  3  0  0  0  0  0  0
  186.3070  178.9290  143.3770 C   0  0  0  0  0  2  0  0  0  0  0  0
  185.8190  177.3000  146.6780 C   0  0  0  0  0  3  0  0  0  0  0  0
  185.9710  178.7240  147.1870 C   0  0  0  0  0  1  0  0  0  0  0  0
  186.9740  176.4830  147.2280 C   0  0  0  0  0  1  0  0  0  0  0  0
  194.4590  176.3280  143.6880 O   0  0  0  0  0  0  0  0  0  0  0  0
  192.3210  175.4250  144.0240 N   0  0  0  0  0  0  0  0  0  0  0  0
  193.7270  175.5250  144.3310 C   0  0  0  0  0  0  0  0  0  0  0  0
  194.3310  174.6460  145.3950 C   0  0  2  0  0  3  0  0  0  0  0  0
  195.7720  174.8750  145.4860 C   0  0  0  0  0  2  0  0  0  0  0  0
  195.2690  173.6710  144.8050 N   0  0  0  0  0  0  0  0  0  0  0  0
  195.3660  172.5790  145.7580 C   0  0  0  0  0  2  0  0  0  0  0  0
  196.8010  172.0850  145.8430 C   0  0  0  0  0  2  0  0  0  0  0  0
  195.6080  170.0450  146.1990 O   0  0  0  0  0  1  0  0  0  0  0  0
  196.8570  170.5690  145.8540 C   0  0  0  0  0  2  0  0  0  0  0  0
  190.8520  175.4100  145.9740 C   0  0  0  0  0  1  0  0  0  0  0  0
  191.4420  174.5960  144.8360 C   0  0  0  0  0  2  0  0  0  0  0  0
  189.9900  171.8410  140.4720 C   0  0  0  0  0  2  0  0  0  0  0  0
  190.2190  171.8990  138.9910 C   0  0  0  0  0  0  0  0  0  0  0  0
  189.3190  171.4590  138.2240 O   0  0  0  0  0  0  0  0  0  0  0  0
  192.5180  174.3790  137.3090 C   0  0  0  0  0  3  0  0  0  0  0  0
  191.4600  172.5080  138.4450 C   0  0  0  0  0  0  0  0  0  0  0  0
  191.3890  173.7840  137.8690 C   0  0  0  0  0  3  0  0  0  0  0  0
  193.7510  173.7080  137.3040 C   0  0  0  0  0  0  0  0  0  0  0  0
  193.8300  172.4250  137.8660 C   0  0  0  0  0  0  0  0  0  0  0  0
  192.8070  170.5510  138.9880 O   0  0  0  0  0  1  0  0  0  0  0  0
  195.3580  171.5560  137.8450 Cl  0  0  0  0  0  0  0  0  0  0  0  0
  192.6960  171.8240  138.4370 C   0  0  0  0  0  0  0  0  0  0  0  0
  194.9060  174.2790  136.7410 O   0  0  0  0  0  0  0  0  0  0  0  0
  195.8410  175.0890  137.4020 C   0  0  0  0  0  0  0  0  0  0  0  0
  196.9660  175.6760  136.6240 C   0  0  0  0  0  1  0  0  0  0  0  0
  195.7620  175.3250  138.6390 O   0  0  0  0  0  0  0  0  0  0  0  0
  1  2  1  0  0  0  0
  2  3  2  0  0  0  0
  3  6  1  0  0  0  0
  4  8  2  0  0  0  0
  6  5  1  0  0  0  0
  6 21  1  1  0  0  0
  7  1  2  0  0  0  0
  7  4  1  0  0  0  0
  8  3  1  0  0  0  0
  8  9  1  0  0  0  0
  9  5  1  0  0  0  0
 10 13  1  6  0  0  0
 10 12  1  0  0  0  0
 11 14  1  0  0  0  0
 12 17  1  1  0  0  0
 14 12  1  0  0  0  0
 15  9  1  0  0  0  0
 15 11  2  0  0  0  0
 16 11  1  0  0  0  0
 16 10  1  0  0  0  0
 17 18  1  0  0  0  0
 17 19  1  0  0  0  0
 20 22  2  0  0  0  0
 21 22  1  0  0  0  0
 21 31  1  0  0  0  0
 23 22  1  6  0  0  0
 23 24  1  0  0  0  0
 25 23  1  0  0  0  0
 25 24  1  0  0  0  0
 25 26  1  0  0  0  0
 26 27  1  0  0  0  0
 27 29  1  0  0  0  0
 29 28  1  0  0  0  0
 31 30  1  0  0  0  0
 32  1  1  0  0  0  0
 33 32  1  0  0  0  0
 34 33  2  0  0  0  0
 35 37  1  0  0  0  0
 36 33  1  0  0  0  0
 37 36  2  0  0  0  0
 38 35  2  0  0  0  0
 38 39  1  0  0  0  0
 39 42  2  0  0  0  0
 41 39  1  0  0  0  0
 42 36  1  0  0  0  0
 42 40  1  0  0  0  0
 43 38  1  0  0  0  0
 43 44  1  0  0  0  0
 44 46  2  0  0  0  0
 45 44  1  0  0  0  0
M  END
>  <MODEL>
7

>  <REMARK>
 VINA RESULT:      -6.6      2.568      3.743
  Name = 
  13 active torsions:
  status: ('A' for Active; 'I' for Inactive)
    1  A    between atoms: C_1  and  C_3
    2  A    between atoms: C_1  and  C_45
    3  A    between atoms: C_4  and  O_38
    4  A    between atoms: C_6  and  C_15
    5  A    between atoms: C_6  and  C_18
    6  A    between atoms: C_8  and  C_45
    7  A    between atoms: C_10  and  O_38
    8  A    between atoms: C_15  and  N_33
    9  A    between atoms: C_16  and  C_31
   10  A    between atoms: C_22  and  C_42
   11  A    between atoms: N_27  and  C_30
   12  A    between atoms: N_27  and  C_44
   13  A    between atoms: C_41  and  N_46
                            x       y       z     vdW  Elec       q    Type
                         _______ _______ _______ _____ _____    ______ ____

>  <TORSDO>
F 13

$$$$
=
 OpenBabel11042415383D

 46 50  0  0  1  0  0  0  0  0999 V2000
  191.1300  172.4610  143.3690 C   0  0  0  0  0  0  0  0  0  0  0  0
  191.8580  173.6620  143.3550 C   0  0  0  0  0  3  0  0  0  0  0  0
  191.4450  174.6840  144.2050 C   0  0  0  0  0  0  0  0  0  0  0  0
  189.6510  173.3670  145.0400 N   0  0  0  0  0  0  0  0  0  0  0  0
  191.1070  176.6890  145.4620 C   0  0  0  0  0  2  0  0  0  0  0  0
  192.0040  176.0560  144.3680 C   0  0  1  0  0  3  0  0  0  0  0  0
  190.0220  172.3310  144.2290 C   0  0  0  0  0  3  0  0  0  0  0  0
  190.3610  174.5250  145.0130 C   0  0  0  0  0  0  0  0  0  0  0  0
  190.1130  175.6680  145.8060 N   0  0  0  0  0  0  0  0  0  0  0  0
  185.7920  177.6390  146.5580 C   0  0  2  0  0  3  0  0  0  0  0  0
  187.9210  176.6140  146.3630 C   0  0  0  0  0  0  0  0  0  0  0  0
  186.5620  178.3360  145.4330 C   0  0  1  0  0  3  0  0  0  0  0  0
  185.2560  178.6630  147.5430 C   0  0  0  0  0  1  0  0  0  0  0  0
  187.8170  177.5070  145.1890 C   0  0  0  0  0  2  0  0  0  0  0  0
  188.9600  175.8240  146.6440 C   0  0  0  0  0  3  0  0  0  0  0  0
  186.7540  176.7040  147.2660 C   0  0  0  0  0  2  0  0  0  0  0  0
  185.7270  178.4440  144.1500 C   0  0  0  0  0  3  0  0  0  0  0  0
  186.6340  178.3950  142.9320 C   0  0  0  0  0  1  0  0  0  0  0  0
  184.9550  179.7500  144.1040 C   0  0  0  0  0  1  0  0  0  0  0  0
  194.2700  176.2880  142.6000 O   0  0  0  0  0  0  0  0  0  0  0  0
  193.4150  176.0290  144.7670 N   0  0  0  0  0  0  0  0  0  0  0  0
  194.5000  176.0410  143.8160 C   0  0  0  0  0  0  0  0  0  0  0  0
  195.9010  175.7210  144.2660 C   0  0  2  0  0  3  0  0  0  0  0  0
  196.7250  175.3280  143.1250 C   0  0  0  0  0  2  0  0  0  0  0  0
  196.2170  174.2970  144.0440 N   0  0  0  0  0  0  0  0  0  0  0  0
  197.3010  173.9780  144.9570 C   0  0  0  0  0  2  0  0  0  0  0  0
  197.3480  172.4790  145.2080 C   0  0  0  0  0  2  0  0  0  0  0  0
  195.2630  171.4490  145.7610 O   0  0  0  0  0  1  0  0  0  0  0  0
  196.0920  171.8000  144.6920 C   0  0  0  0  0  2  0  0  0  0  0  0
  194.1900  177.1670  146.7830 C   0  0  0  0  0  1  0  0  0  0  0  0
  193.6780  175.8670  146.1900 C   0  0  0  0  0  2  0  0  0  0  0  0
  191.5300  171.3200  142.4920 C   0  0  0  0  0  2  0  0  0  0  0  0
  191.6840  171.7690  141.0700 C   0  0  0  0  0  0  0  0  0  0  0  0
  190.7480  171.5280  140.2580 O   0  0  0  0  0  0  0  0  0  0  0  0
  193.8380  174.3670  139.3760 C   0  0  0  0  0  3  0  0  0  0  0  0
  192.8930  172.5200  140.6430 C   0  0  0  0  0  0  0  0  0  0  0  0
  192.7320  173.6530  139.8320 C   0  0  0  0  0  3  0  0  0  0  0  0
  195.1390  173.9630  139.7140 C   0  0  0  0  0  0  0  0  0  0  0  0
  195.3110  172.8230  140.5140 C   0  0  0  0  0  0  0  0  0  0  0  0
  194.4030  170.9780  141.7740 O   0  0  0  0  0  1  0  0  0  0  0  0
  196.9330  172.2830  140.9250 Cl  0  0  0  0  0  0  0  0  0  0  0  0
  194.1990  172.1030  140.9810 C   0  0  0  0  0  0  0  0  0  0  0  0
  196.2750  174.6580  139.2630 O   0  0  0  0  0  0  0  0  0  0  0  0
  196.9200  174.4870  138.0300 C   0  0  0  0  0  0  0  0  0  0  0  0
  197.5440  175.6660  137.3700 C   0  0  0  0  0  1  0  0  0  0  0  0
  196.9780  173.3630  137.4580 O   0  0  0  0  0  0  0  0  0  0  0  0
  1  7  1  0  0  0  0
  2  1  2  0  0  0  0
  2  3  1  0  0  0  0
  3  6  1  0  0  0  0
  3  8  2  0  0  0  0
  5  9  1  0  0  0  0
  6 21  1  1  0  0  0
  6  5  1  0  0  0  0
  7  4  2  0  0  0  0
  8  4  1  0  0  0  0
  8  9  1  0  0  0  0
  9 15  1  0  0  0  0
 10 16  1  0  0  0  0
 10 13  1  1  0  0  0
 11 15  2  0  0  0  0
 11 16  1  0  0  0  0
 12 17  1  6  0  0  0
 12 10  1  0  0  0  0
 14 12  1  0  0  0  0
 14 11  1  0  0  0  0
 18 17  1  0  0  0  0
 19 17  1  0  0  0  0
 20 22  2  0  0  0  0
 21 31  1  0  0  0  0
 22 21  1  0  0  0  0
 23 22  1  6  0  0  0
 24 25  1  0  0  0  0
 24 23  1  0  0  0  0
 25 23  1  0  0  0  0
 25 26  1  0  0  0  0
 26 27  1  0  0  0  0
 29 27  1  0  0  0  0
 29 28  1  0  0  0  0
 31 30  1  0  0  0  0
 32  1  1  0  0  0  0
 33 32  1  0  0  0  0
 34 33  2  0  0  0  0
 35 38  2  0  0  0  0
 35 37  1  0  0  0  0
 36 42  1  0  0  0  0
 36 33  1  0  0  0  0
 37 36  2  0  0  0  0
 38 39  1  0  0  0  0
 39 41  1  0  0  0  0
 39 42  2  0  0  0  0
 42 40  1  0  0  0  0
 43 38  1  0  0  0  0
 44 43  1  0  0  0  0
 45 44  1  0  0  0  0
 46 44  2  0  0  0  0
M  END
>  <MODEL>
8

>  <REMARK>
 VINA RESULT:      -6.5      2.477      3.223
  Name = 
  13 active torsions:
  status: ('A' for Active; 'I' for Inactive)
    1  A    between atoms: C_1  and  C_3
    2  A    between atoms: C_1  and  C_45
    3  A    between atoms: C_4  and  O_38
    4  A    between atoms: C_6  and  C_15
    5  A    between atoms: C_6  and  C_18
    6  A    between atoms: C_8  and  C_45
    7  A    between atoms: C_10  and  O_38
    8  A    between atoms: C_15  and  N_33
    9  A    between atoms: C_16  and  C_31
   10  A    between atoms: C_22  and  C_42
   11  A    between atoms: N_27  and  C_30
   12  A    between atoms: N_27  and  C_44
   13  A    between atoms: C_41  and  N_46
                            x       y       z     vdW  Elec       q    Type
                         _______ _______ _______ _____ _____    ______ ____

>  <TORSDO>
F 13

$$$$
=
 OpenBabel11042415383D

 46 50  0  0  1  0  0  0  0  0999 V2000
  190.1310  172.6210  144.2470 C   0  0  0  0  0  0  0  0  0  0  0  0
  191.3750  171.9690  144.2650 C   0  0  0  0  0  3  0  0  0  0  0  0
  191.7390  171.2290  143.1440 C   0  0  0  0  0  0  0  0  0  0  0  0
  189.7040  171.7630  142.0380 N   0  0  0  0  0  0  0  0  0  0  0  0
  192.7680  169.8560  141.4790 C   0  0  0  0  0  2  0  0  0  0  0  0
  192.9680  170.4180  142.9100 C   0  0  1  0  0  3  0  0  0  0  0  0
  189.3040  172.5070  143.1120 C   0  0  0  0  0  3  0  0  0  0  0  0
  190.9070  171.1330  142.0710 C   0  0  0  0  0  0  0  0  0  0  0  0
  191.4610  170.3500  141.0330 N   0  0  0  0  0  0  0  0  0  0  0  0
  190.5320  171.0700  136.3700 C   0  0  2  0  0  3  0  0  0  0  0  0
  190.8450  170.6020  138.6740 C   0  0  0  0  0  0  0  0  0  0  0  0
  191.2550  172.2580  137.0100 C   0  0  1  0  0  3  0  0  0  0  0  0
  189.3130  171.5470  135.5980 C   0  0  0  0  0  1  0  0  0  0  0  0
  191.6380  171.8240  138.4200 C   0  0  0  0  0  2  0  0  0  0  0  0
  190.7480  169.9740  139.8470 C   0  0  0  0  0  3  0  0  0  0  0  0
  190.0970  170.1390  137.4870 C   0  0  0  0  0  2  0  0  0  0  0  0
  192.5000  172.6660  136.2120 C   0  0  0  0  0  3  0  0  0  0  0  0
  192.9320  171.5280  135.3020 C   0  0  0  0  0  1  0  0  0  0  0  0
  193.6620  172.9920  137.1330 C   0  0  0  0  0  1  0  0  0  0  0  0
  194.6400  170.6730  145.2450 O   0  0  0  0  0  0  0  0  0  0  0  0
  194.1860  171.2270  143.0140 N   0  0  0  0  0  0  0  0  0  0  0  0
  194.9140  171.3950  144.2480 C   0  0  0  0  0  0  0  0  0  0  0  0
  195.9770  172.4570  144.3580 C   0  0  2  0  0  3  0  0  0  0  0  0
  196.2120  172.7970  145.7600 C   0  0  0  0  0  2  0  0  0  0  0  0
  195.4210  173.7060  144.9150 N   0  0  0  0  0  0  0  0  0  0  0  0
  196.3160  174.7680  144.4900 C   0  0  0  0  0  2  0  0  0  0  0  0
  195.5420  176.0660  144.3230 C   0  0  0  0  0  2  0  0  0  0  0  0
  194.7680  177.5400  146.0380 O   0  0  0  0  0  1  0  0  0  0  0  0
  194.5750  176.2770  145.4730 C   0  0  0  0  0  2  0  0  0  0  0  0
  193.8570  173.3050  141.7740 C   0  0  0  0  0  1  0  0  0  0  0  0
  194.5710  171.9660  141.8190 C   0  0  0  0  0  2  0  0  0  0  0  0
  189.6880  173.4440  145.4120 C   0  0  0  0  0  2  0  0  0  0  0  0
  190.1230  174.8700  145.2550 C   0  0  0  0  0  0  0  0  0  0  0  0
  191.3580  175.1260  145.2500 O   0  0  0  0  0  0  0  0  0  0  0  0
  187.3790  177.3480  146.0250 C   0  0  0  0  0  3  0  0  0  0  0  0
  189.1170  175.9470  145.0620 C   0  0  0  0  0  0  0  0  0  0  0  0
  188.3600  176.3690  146.1650 C   0  0  0  0  0  3  0  0  0  0  0  0
  187.1210  177.9280  144.7730 C   0  0  0  0  0  0  0  0  0  0  0  0
  187.8630  177.5030  143.6610 C   0  0  0  0  0  0  0  0  0  0  0  0
  189.5780  176.1220  142.6760 O   0  0  0  0  0  1  0  0  0  0  0  0
  187.5380  178.1960  142.0780 Cl  0  0  0  0  0  0  0  0  0  0  0  0
  188.8580  176.5210  143.7980 C   0  0  0  0  0  0  0  0  0  0  0  0
  186.1330  178.9120  144.5990 O   0  0  0  0  0  0  0  0  0  0  0  0
  184.7480  178.6980  144.5300 C   0  0  0  0  0  0  0  0  0  0  0  0
  184.1420  178.3000  143.2300 C   0  0  0  0  0  1  0  0  0  0  0  0
  184.0010  178.8440  145.5360 O   0  0  0  0  0  0  0  0  0  0  0  0
  1  2  1  0  0  0  0
  1 32  1  0  0  0  0
  3  2  2  0  0  0  0
  4  8  2  0  0  0  0
  4  7  1  0  0  0  0
  5  6  1  0  0  0  0
  6 21  1  6  0  0  0
  6  3  1  0  0  0  0
  7  1  2  0  0  0  0
  8  3  1  0  0  0  0
  9  5  1  0  0  0  0
  9  8  1  0  0  0  0
 10 13  1  1  0  0  0
 10 12  1  0  0  0  0
 10 16  1  0  0  0  0
 11 15  2  0  0  0  0
 12 17  1  6  0  0  0
 12 14  1  0  0  0  0
 14 11  1  0  0  0  0
 15  9  1  0  0  0  0
 16 11  1  0  0  0  0
 17 19  1  0  0  0  0
 18 17  1  0  0  0  0
 21 22  1  0  0  0  0
 22 20  2  0  0  0  0
 23 22  1  1  0  0  0
 23 25  1  0  0  0  0
 23 24  1  0  0  0  0
 25 24  1  0  0  0  0
 26 25  1  0  0  0  0
 27 26  1  0  0  0  0
 27 29  1  0  0  0  0
 29 28  1  0  0  0  0
 30 31  1  0  0  0  0
 31 21  1  0  0  0  0
 33 32  1  0  0  0  0
 34 33  2  0  0  0  0
 35 37  1  0  0  0  0
 36 33  1  0  0  0  0
 36 37  2  0  0  0  0
 38 35  2  0  0  0  0
 39 42  2  0  0  0  0
 39 38  1  0  0  0  0
 40 42  1  0  0  0  0
 41 39  1  0  0  0  0
 42 36  1  0  0  0  0
 43 38  1  0  0  0  0
 44 43  1  0  0  0  0
 44 46  2  0  0  0  0
 45 44  1  0  0  0  0
M  END
>  <MODEL>
9

>  <REMARK>
 VINA RESULT:      -6.4      2.933      7.674
  Name = 
  13 active torsions:
  status: ('A' for Active; 'I' for Inactive)
    1  A    between atoms: C_1  and  C_3
    2  A    between atoms: C_1  and  C_45
    3  A    between atoms: C_4  and  O_38
    4  A    between atoms: C_6  and  C_15
    5  A    between atoms: C_6  and  C_18
    6  A    between atoms: C_8  and  C_45
    7  A    between atoms: C_10  and  O_38
    8  A    between atoms: C_15  and  N_33
    9  A    between atoms: C_16  and  C_31
   10  A    between atoms: C_22  and  C_42
   11  A    between atoms: N_27  and  C_30
   12  A    between atoms: N_27  and  C_44
   13  A    between atoms: C_41  and  N_46
                            x       y       z     vdW  Elec       q    Type
                         _______ _______ _______ _____ _____    ______ ____

>  <TORSDO>
F 13

$$$$
