=
 OpenBabel11042418133D

 47 52  0  0  1  0  0  0  0  0999 V2000
  186.4400  178.2660  146.3500 C   0  0  0  0  0  1  0  0  0  0  0  0
  186.7960  177.6380  142.8160 C   0  0  0  0  0  0  0  0  0  0  0  0
  186.5870  177.2590  140.4930 N   0  0  0  0  0  0  0  0  0  0  0  0
  183.9040  178.9960  144.6120 C   0  0  0  0  0  1  0  0  0  0  0  0
  185.2030  178.4610  144.1170 C   0  0  0  0  0  0  0  0  0  0  0  0
  186.3330  178.1390  144.8670 C   0  0  0  0  0  0  0  0  0  0  0  0
  185.3140  177.7650  140.5240 C   0  0  0  0  0  3  0  0  0  0  0  0
  184.7700  178.2020  141.6990 N   0  0  0  0  0  0  0  0  0  0  0  0
  185.5260  178.1320  142.8210 C   0  0  0  0  0  0  0  0  0  0  0  0
  187.3490  177.1740  141.6250 C   0  0  0  0  0  0  0  0  0  0  0  0
  187.3120  177.6420  144.0620 N   0  0  0  0  0  0  0  0  0  0  0  0
  190.7840  177.8870  145.4950 C   0  0  0  0  0  2  0  0  0  0  0  0
  191.1610  174.9000  147.5520 C   0  0  2  0  0  3  0  0  0  0  0  0
  190.9960  176.3760  145.6220 C   0  0  2  0  0  3  0  0  0  0  0  0
  188.6150  177.1120  144.4540 C   0  0  2  0  0  3  0  0  0  0  0  0
  189.6990  174.9850  147.1720 C   0  0  0  0  0  2  0  0  0  0  0  0
  191.3030  175.0320  148.9210 F   0  0  0  0  0  0  0  0  0  0  0  0
  189.6600  175.6230  145.7970 C   0  0  1  0  0  3  0  0  0  0  0  0
  188.5340  176.4700  145.7040 O   0  0  0  0  0  0  0  0  0  0  0  0
  189.6970  178.2030  144.4610 C   0  0  0  0  0  2  0  0  0  0  0  0
  191.8430  176.0530  146.8410 C   0  0  2  0  0  3  0  0  0  0  0  0
  193.2980  175.7280  146.4780 C   0  0  0  0  0  2  0  0  0  0  0  0
  193.1500  173.9770  144.5930 C   0  0  0  0  0  1  0  0  0  0  0  0
  193.4960  175.3690  145.0310 C   0  0  0  0  0  0  0  0  0  0  0  0
  193.9440  176.2570  144.2060 N   0  0  0  0  0  0  0  0  0  0  0  0
  194.1710  176.0010  142.8020 C   0  0  0  0  0  2  0  0  0  0  0  0
  195.5880  176.2910  142.4470 C   0  0  0  0  0  0  0  0  0  0  0  0
  196.6260  176.0230  143.3820 N   0  0  0  0  0  1  0  0  0  0  0  0
  195.8660  176.7950  141.3280 O   0  0  0  0  0  0  0  0  0  0  0  0
  188.6530  176.6650  141.5890 O   0  0  0  0  0  0  0  0  0  0  0  0
  188.9430  175.3320  141.3710 N   0  0  0  0  0  2  0  0  0  0  0  0
  190.1030  174.6630  141.8820 C   0  0  0  0  0  0  0  0  0  0  0  0
  191.0280  175.3280  142.4250 O   0  0  0  0  0  0  0  0  0  0  0  0
  189.8130  172.4930  144.1470 C   0  0  0  0  0  1  0  0  0  0  0  0
  190.2910  170.9110  142.2450 C   0  0  0  0  0  3  0  0  0  0  0  0
  190.6050  172.4400  140.2660 S   0  0  0  0  0  0  0  0  0  0  0  0
  190.5720  170.8790  140.8860 C   0  0  0  0  0  0  0  0  0  0  0  0
  190.1140  172.2190  142.7140 C   0  0  0  0  0  0  0  0  0  0  0  0
  190.2550  173.2040  141.7280 C   0  0  0  0  0  0  0  0  0  0  0  0
  190.7930  169.6990  140.1090 N   0  0  0  0  0  2  0  0  0  0  0  0
  190.4080  169.6360  136.4320 O   0  0  0  0  0  0  0  0  0  0  0  0
  191.2240  169.7490  138.7200 C   0  0  1  0  0  3  0  0  0  0  0  0
  192.1280  168.5610  138.4120 C   0  0  0  0  0  2  0  0  0  0  0  0
  191.7460  168.7550  134.7870 O   0  0  0  0  0  0  0  0  0  0  0  0
  191.5720  168.9810  136.0110 C   0  0  0  0  0  0  0  0  0  0  0  0
  192.6650  168.6610  136.9860 C   0  0  0  0  0  2  0  0  0  0  0  0
  190.0090  169.6710  137.8060 C   0  0  0  0  0  2  0  0  0  0  0  0
  2  9  2  0  0  0  0
  2 11  1  0  0  0  0
  3  7  1  0  0  0  0
  3 10  2  0  0  0  0
  5  4  1  0  0  0  0
  5  6  2  0  0  0  0
  6  1  1  0  0  0  0
  7  8  2  0  0  0  0
  8  9  1  0  0  0  0
  9  5  1  0  0  0  0
 10  2  1  0  0  0  0
 11  6  1  0  0  0  0
 13 17  1  1  0  0  0
 14 12  1  1  0  0  0
 14 18  1  0  0  0  0
 14 21  1  0  0  0  0
 15 11  1  1  0  0  0
 15 20  1  0  0  0  0
 15 19  1  0  0  0  0
 16 13  1  0  0  0  0
 18 16  1  1  0  0  0
 19 18  1  0  0  0  0
 20 12  1  0  0  0  0
 21 22  1  6  0  0  0
 21 13  1  0  0  0  0
 23 24  1  0  0  0  0
 24 22  1  0  0  0  0
 25 24  2  0  0  0  0
 26 25  1  0  0  0  0
 27 26  1  0  0  0  0
 27 28  1  0  0  0  0
 29 27  2  0  0  0  0
 30 10  1  0  0  0  0
 31 30  1  0  0  0  0
 31 32  1  0  0  0  0
 32 33  2  0  0  0  0
 35 38  1  0  0  0  0
 36 37  1  0  0  0  0
 36 39  1  0  0  0  0
 37 35  2  0  0  0  0
 38 34  1  0  0  0  0
 39 32  1  0  0  0  0
 39 38  2  0  0  0  0
 40 37  1  0  0  0  0
 41 47  1  0  0  0  0
 42 40  1  1  0  0  0
 43 42  1  0  0  0  0
 44 45  2  0  0  0  0
 45 41  1  0  0  0  0
 45 46  1  0  0  0  0
 46 43  1  0  0  0  0
 47 42  1  0  0  0  0
M  END
>  <MODEL>
1

>  <REMARK>
 VINA RESULT:      -8.0      0.000      0.000
  Name = 
  10 active torsions:
  status: ('A' for Active; 'I' for Inactive)
    1  A    between atoms: C_2  and  C_34
    2  A    between atoms: C_2  and  C_46
    3  A    between atoms: N_6  and  O_10
    4  A    between atoms: C_7  and  N_29
    5  A    between atoms: C_8  and  C_31
    6  A    between atoms: O_10  and  C_42
    7  A    between atoms: C_18  and  N_47
    8  A    between atoms: C_19  and  C_45
    9  A    between atoms: N_29  and  C_37
   10  A    between atoms: C_31  and  N_38
                            x       y       z     vdW  Elec       q    Type
                         _______ _______ _______ _____ _____    ______ ____

>  <TORSDO>
F 10

$$$$
=
 OpenBabel11042418133D

 47 52  0  0  1  0  0  0  0  0999 V2000
  187.2760  178.4380  142.0990 C   0  0  0  0  0  1  0  0  0  0  0  0
  187.0340  177.2350  145.4900 C   0  0  0  0  0  0  0  0  0  0  0  0
  186.6890  176.8390  147.7950 N   0  0  0  0  0  0  0  0  0  0  0  0
  185.2730  180.0480  143.9370 C   0  0  0  0  0  1  0  0  0  0  0  0
  186.0780  178.8560  144.3230 C   0  0  0  0  0  0  0  0  0  0  0  0
  186.9610  178.1310  143.5250 C   0  0  0  0  0  0  0  0  0  0  0  0
  185.7970  177.8790  147.8400 C   0  0  0  0  0  3  0  0  0  0  0  0
  185.5220  178.6070  146.7170 N   0  0  0  0  0  0  0  0  0  0  0  0
  186.1470  178.2660  145.5630 C   0  0  0  0  0  0  0  0  0  0  0  0
  187.3320  176.5000  146.6360 C   0  0  0  0  0  0  0  0  0  0  0  0
  187.5400  177.1300  144.2450 N   0  0  0  0  0  0  0  0  0  0  0  0
  189.2120  174.8100  141.7980 C   0  0  0  0  0  2  0  0  0  0  0  0
  192.7730  175.5360  142.1040 C   0  0  2  0  0  3  0  0  0  0  0  0
  190.5300  174.7090  142.5710 C   0  0  2  0  0  3  0  0  0  0  0  0
  188.5760  176.1960  143.8130 C   0  0  2  0  0  3  0  0  0  0  0  0
  192.0400  176.6190  142.8640 C   0  0  0  0  0  2  0  0  0  0  0  0
  193.4480  176.0840  141.0290 F   0  0  0  0  0  0  0  0  0  0  0  0
  190.7910  175.9680  143.4240 C   0  0  1  0  0  3  0  0  0  0  0  0
  189.7240  176.8910  143.3870 O   0  0  0  0  0  0  0  0  0  0  0  0
  188.0670  175.2420  142.7210 C   0  0  0  0  0  2  0  0  0  0  0  0
  191.7040  174.5760  141.6160 C   0  0  2  0  0  3  0  0  0  0  0  0
  192.2230  173.1350  141.5180 C   0  0  0  0  0  2  0  0  0  0  0  0
  190.5910  171.1410  141.5030 C   0  0  0  0  0  1  0  0  0  0  0  0
  191.3170  172.2150  140.7470 C   0  0  0  0  0  0  0  0  0  0  0  0
  191.1770  172.3720  139.4730 N   0  0  0  0  0  0  0  0  0  0  0  0
  190.3340  171.5320  138.6520 C   0  0  0  0  0  2  0  0  0  0  0  0
  189.1260  172.2840  138.2140 C   0  0  0  0  0  0  0  0  0  0  0  0
  188.0970  172.5870  139.1480 N   0  0  0  0  0  1  0  0  0  0  0  0
  189.0040  172.6330  137.0110 O   0  0  0  0  0  0  0  0  0  0  0  0
  188.2360  175.4330  146.5900 O   0  0  0  0  0  0  0  0  0  0  0  0
  189.6050  175.5910  146.6990 N   0  0  0  0  0  2  0  0  0  0  0  0
  190.5670  174.6210  146.2680 C   0  0  0  0  0  0  0  0  0  0  0  0
  190.1900  173.4680  145.9190 O   0  0  0  0  0  0  0  0  0  0  0  0
  191.9470  177.0320  147.7530 C   0  0  0  0  0  1  0  0  0  0  0  0
  194.0380  176.0050  146.7950 C   0  0  0  0  0  3  0  0  0  0  0  0
  193.1840  174.0210  145.4970 S   0  0  0  0  0  0  0  0  0  0  0  0
  194.4850  174.9550  146.0040 C   0  0  0  0  0  0  0  0  0  0  0  0
  192.6460  175.9900  146.9500 C   0  0  0  0  0  0  0  0  0  0  0  0
  192.0080  174.9360  146.2840 C   0  0  0  0  0  0  0  0  0  0  0  0
  195.8490  174.6870  145.6680 N   0  0  0  0  0  2  0  0  0  0  0  0
  196.3720  176.7530  142.6480 O   0  0  0  0  0  0  0  0  0  0  0  0
  196.4200  175.0480  144.3800 C   0  0  1  0  0  3  0  0  0  0  0  0
  196.0140  174.0240  143.3250 C   0  0  0  0  0  2  0  0  0  0  0  0
  196.7360  176.1660  140.4580 O   0  0  0  0  0  0  0  0  0  0  0  0
  196.5640  175.7940  141.6460 C   0  0  0  0  0  0  0  0  0  0  0  0
  196.6910  174.3410  141.9930 C   0  0  0  0  0  2  0  0  0  0  0  0
  195.8900  176.4090  143.9500 C   0  0  0  0  0  2  0  0  0  0  0  0
  1  6  1  0  0  0  0
  2  9  2  0  0  0  0
  2 10  1  0  0  0  0
  3  7  1  0  0  0  0
  4  5  1  0  0  0  0
  5  9  1  0  0  0  0
  6 11  1  0  0  0  0
  6  5  2  0  0  0  0
  8  7  2  0  0  0  0
  9  8  1  0  0  0  0
 10  3  2  0  0  0  0
 11  2  1  0  0  0  0
 12 20  1  0  0  0  0
 13 17  1  6  0  0  0
 13 16  1  0  0  0  0
 14 12  1  6  0  0  0
 14 18  1  0  0  0  0
 15 20  1  6  0  0  0
 15 11  1  0  0  0  0
 18 16  1  6  0  0  0
 19 18  1  0  0  0  0
 19 15  1  0  0  0  0
 21 22  1  1  0  0  0
 21 13  1  0  0  0  0
 21 14  1  0  0  0  0
 24 23  1  0  0  0  0
 24 22  1  0  0  0  0
 25 24  2  0  0  0  0
 26 25  1  0  0  0  0
 27 26  1  0  0  0  0
 27 28  1  0  0  0  0
 29 27  2  0  0  0  0
 30 10  1  0  0  0  0
 30 31  1  0  0  0  0
 32 39  1  0  0  0  0
 32 31  1  0  0  0  0
 33 32  2  0  0  0  0
 35 38  1  0  0  0  0
 36 37  1  0  0  0  0
 36 39  1  0  0  0  0
 37 35  2  0  0  0  0
 38 34  1  0  0  0  0
 39 38  2  0  0  0  0
 40 37  1  0  0  0  0
 41 47  1  0  0  0  0
 42 40  1  1  0  0  0
 43 42  1  0  0  0  0
 44 45  2  0  0  0  0
 45 46  1  0  0  0  0
 45 41  1  0  0  0  0
 46 43  1  0  0  0  0
 47 42  1  0  0  0  0
M  END
>  <MODEL>
2

>  <REMARK>
 VINA RESULT:      -7.9      2.710      6.509
  Name = 
  10 active torsions:
  status: ('A' for Active; 'I' for Inactive)
    1  A    between atoms: C_2  and  C_34
    2  A    between atoms: C_2  and  C_46
    3  A    between atoms: N_6  and  O_10
    4  A    between atoms: C_7  and  N_29
    5  A    between atoms: C_8  and  C_31
    6  A    between atoms: O_10  and  C_42
    7  A    between atoms: C_18  and  N_47
    8  A    between atoms: C_19  and  C_45
    9  A    between atoms: N_29  and  C_37
   10  A    between atoms: C_31  and  N_38
                            x       y       z     vdW  Elec       q    Type
                         _______ _______ _______ _____ _____    ______ ____

>  <TORSDO>
F 10

$$$$
=
 OpenBabel11042418133D

 47 52  0  0  1  0  0  0  0  0999 V2000
  186.4460  178.1250  146.7050 C   0  0  0  0  0  1  0  0  0  0  0  0
  186.6570  177.6420  143.1370 C   0  0  0  0  0  0  0  0  0  0  0  0
  186.3540  177.3530  140.8110 N   0  0  0  0  0  0  0  0  0  0  0  0
  183.8320  178.8940  145.1060 C   0  0  0  0  0  1  0  0  0  0  0  0
  185.1140  178.3940  144.5360 C   0  0  0  0  0  0  0  0  0  0  0  0
  186.2780  178.0560  145.2230 C   0  0  0  0  0  0  0  0  0  0  0  0
  185.0780  177.8420  140.9160 C   0  0  0  0  0  3  0  0  0  0  0  0
  184.5800  178.2260  142.1290 N   0  0  0  0  0  0  0  0  0  0  0  0
  185.3840  178.1200  143.2150 C   0  0  0  0  0  0  0  0  0  0  0  0
  187.1650  177.2310  141.9060 C   0  0  0  0  0  0  0  0  0  0  0  0
  187.2260  177.6020  144.3590 N   0  0  0  0  0  0  0  0  0  0  0  0
  190.7730  177.8450  145.5950 C   0  0  0  0  0  2  0  0  0  0  0  0
  191.2690  174.8490  147.6130 C   0  0  2  0  0  3  0  0  0  0  0  0
  190.9940  176.3340  145.7020 C   0  0  2  0  0  3  0  0  0  0  0  0
  188.5500  177.0720  144.6740 C   0  0  2  0  0  3  0  0  0  0  0  0
  189.7880  174.9340  147.3160 C   0  0  0  0  0  2  0  0  0  0  0  0
  191.4880  174.9750  148.9720 F   0  0  0  0  0  0  0  0  0  0  0  0
  189.6700  175.5780  145.9480 C   0  0  1  0  0  3  0  0  0  0  0  0
  188.5400  176.4230  145.9240 O   0  0  0  0  0  0  0  0  0  0  0  0
  189.6290  178.1650  144.6250 C   0  0  0  0  0  2  0  0  0  0  0  0
  191.9090  176.0060  146.8700 C   0  0  2  0  0  3  0  0  0  0  0  0
  193.3410  175.6850  146.4240 C   0  0  0  0  0  2  0  0  0  0  0  0
  193.8170  175.4760  143.9000 C   0  0  0  0  0  1  0  0  0  0  0  0
  193.4140  174.8270  145.1910 C   0  0  0  0  0  0  0  0  0  0  0  0
  193.1420  173.5670  145.2690 N   0  0  0  0  0  0  0  0  0  0  0  0
  193.1790  172.6690  144.1370 C   0  0  0  0  0  2  0  0  0  0  0  0
  193.5690  171.3010  144.5760 C   0  0  0  0  0  0  0  0  0  0  0  0
  192.7030  170.1990  144.3290 N   0  0  0  0  0  1  0  0  0  0  0  0
  194.6550  171.1210  145.1850 O   0  0  0  0  0  0  0  0  0  0  0  0
  188.4700  176.7400  141.7950 O   0  0  0  0  0  0  0  0  0  0  0  0
  188.7650  175.4250  141.4880 N   0  0  0  0  0  2  0  0  0  0  0  0
  189.9800  174.7610  141.8570 C   0  0  0  0  0  0  0  0  0  0  0  0
  190.9390  175.4220  142.3420 O   0  0  0  0  0  0  0  0  0  0  0  0
  189.5760  172.4540  143.9630 C   0  0  0  0  0  1  0  0  0  0  0  0
  190.1600  170.9940  141.9950 C   0  0  0  0  0  3  0  0  0  0  0  0
  190.5750  172.6430  140.1350 S   0  0  0  0  0  0  0  0  0  0  0  0
  190.5140  171.0460  140.6530 C   0  0  0  0  0  0  0  0  0  0  0  0
  189.9540  172.2700  142.5340 C   0  0  0  0  0  0  0  0  0  0  0  0
  190.1450  173.3150  141.6200 C   0  0  0  0  0  0  0  0  0  0  0  0
  190.7790  169.9170  139.8180 N   0  0  0  0  0  2  0  0  0  0  0  0
  190.4830  169.8110  136.1340 O   0  0  0  0  0  0  0  0  0  0  0  0
  191.2210  170.0550  138.4380 C   0  0  1  0  0  3  0  0  0  0  0  0
  192.3320  169.0540  138.1450 C   0  0  0  0  0  2  0  0  0  0  0  0
  191.9910  169.2010  134.5130 O   0  0  0  0  0  0  0  0  0  0  0  0
  191.7550  169.3830  135.7340 C   0  0  0  0  0  0  0  0  0  0  0  0
  192.8690  169.2610  136.7300 C   0  0  0  0  0  2  0  0  0  0  0  0
  190.0580  169.7630  137.4990 C   0  0  0  0  0  2  0  0  0  0  0  0
  2  9  2  0  0  0  0
  2 11  1  0  0  0  0
  3  7  1  0  0  0  0
  3 10  2  0  0  0  0
  5  4  1  0  0  0  0
  5  6  2  0  0  0  0
  6  1  1  0  0  0  0
  7  8  2  0  0  0  0
  8  9  1  0  0  0  0
  9  5  1  0  0  0  0
 10  2  1  0  0  0  0
 11  6  1  0  0  0  0
 13 17  1  1  0  0  0
 14 12  1  1  0  0  0
 14 18  1  0  0  0  0
 14 21  1  0  0  0  0
 15 11  1  1  0  0  0
 15 19  1  0  0  0  0
 16 13  1  0  0  0  0
 18 16  1  1  0  0  0
 19 18  1  0  0  0  0
 20 15  1  0  0  0  0
 20 12  1  0  0  0  0
 21 22  1  6  0  0  0
 21 13  1  0  0  0  0
 23 24  1  0  0  0  0
 24 25  2  0  0  0  0
 24 22  1  0  0  0  0
 26 27  1  0  0  0  0
 26 25  1  0  0  0  0
 27 29  2  0  0  0  0
 28 27  1  0  0  0  0
 30 10  1  0  0  0  0
 31 30  1  0  0  0  0
 31 32  1  0  0  0  0
 32 33  2  0  0  0  0
 35 38  1  0  0  0  0
 36 37  1  0  0  0  0
 36 39  1  0  0  0  0
 37 35  2  0  0  0  0
 38 34  1  0  0  0  0
 39 32  1  0  0  0  0
 39 38  2  0  0  0  0
 40 37  1  0  0  0  0
 41 47  1  0  0  0  0
 42 40  1  1  0  0  0
 43 42  1  0  0  0  0
 44 45  2  0  0  0  0
 45 41  1  0  0  0  0
 45 46  1  0  0  0  0
 46 43  1  0  0  0  0
 47 42  1  0  0  0  0
M  END
>  <MODEL>
3

>  <REMARK>
 VINA RESULT:      -7.7      1.344      1.864
  Name = 
  10 active torsions:
  status: ('A' for Active; 'I' for Inactive)
    1  A    between atoms: C_2  and  C_34
    2  A    between atoms: C_2  and  C_46
    3  A    between atoms: N_6  and  O_10
    4  A    between atoms: C_7  and  N_29
    5  A    between atoms: C_8  and  C_31
    6  A    between atoms: O_10  and  C_42
    7  A    between atoms: C_18  and  N_47
    8  A    between atoms: C_19  and  C_45
    9  A    between atoms: N_29  and  C_37
   10  A    between atoms: C_31  and  N_38
                            x       y       z     vdW  Elec       q    Type
                         _______ _______ _______ _____ _____    ______ ____

>  <TORSDO>
F 10

$$$$
=
 OpenBabel11042418133D

 47 52  0  0  1  0  0  0  0  0999 V2000
  187.8060  177.5910  146.8380 C   0  0  0  0  0  1  0  0  0  0  0  0
  186.7980  177.5300  143.3760 C   0  0  0  0  0  0  0  0  0  0  0  0
  185.7250  177.4850  141.2700 N   0  0  0  0  0  0  0  0  0  0  0  0
  184.7830  178.3530  146.3240 C   0  0  0  0  0  1  0  0  0  0  0  0
  185.8050  178.0110  145.2960 C   0  0  0  0  0  0  0  0  0  0  0  0
  187.1430  177.6780  145.5030 C   0  0  0  0  0  0  0  0  0  0  0  0
  184.5490  177.8700  141.8600 C   0  0  0  0  0  3  0  0  0  0  0  0
  184.4860  178.0800  143.2090 N   0  0  0  0  0  0  0  0  0  0  0  0
  185.6160  177.9070  143.9380 C   0  0  0  0  0  0  0  0  0  0  0  0
  186.8640  177.2970  142.0030 C   0  0  0  0  0  0  0  0  0  0  0  0
  187.7510  177.3920  144.3190 N   0  0  0  0  0  0  0  0  0  0  0  0
  191.4970  177.5890  144.6220 C   0  0  0  0  0  2  0  0  0  0  0  0
  192.5560  174.1820  145.3760 C   0  0  2  0  0  3  0  0  0  0  0  0
  191.7550  176.1460  144.1790 C   0  0  2  0  0  3  0  0  0  0  0  0
  189.1160  176.9220  144.1000 C   0  0  2  0  0  3  0  0  0  0  0  0
  191.0500  174.2100  145.5100 C   0  0  0  0  0  2  0  0  0  0  0  0
  193.1360  173.9070  146.6020 F   0  0  0  0  0  0  0  0  0  0  0  0
  190.5570  175.2260  144.4990 C   0  0  1  0  0  3  0  0  0  0  0  0
  189.4540  175.9250  145.0350 O   0  0  0  0  0  0  0  0  0  0  0  0
  190.1290  178.0770  144.1300 C   0  0  0  0  0  2  0  0  0  0  0  0
  192.9570  175.5670  144.9070 C   0  0  2  0  0  3  0  0  0  0  0  0
  194.2170  175.5390  144.0320 C   0  0  0  0  0  2  0  0  0  0  0  0
  194.1410  176.1800  141.5370 C   0  0  0  0  0  1  0  0  0  0  0  0
  193.9560  175.1430  142.6050 C   0  0  0  0  0  0  0  0  0  0  0  0
  193.5910  173.9340  142.3310 N   0  0  0  0  0  0  0  0  0  0  0  0
  193.3120  173.4670  140.9930 C   0  0  0  0  0  2  0  0  0  0  0  0
  194.2380  172.3600  140.6280 C   0  0  0  0  0  0  0  0  0  0  0  0
  195.3160  172.0190  141.4920 N   0  0  0  0  0  1  0  0  0  0  0  0
  194.0820  171.7400  139.5440 O   0  0  0  0  0  0  0  0  0  0  0  0
  188.0650  176.9130  141.3970 O   0  0  0  0  0  0  0  0  0  0  0  0
  188.5710  175.6280  141.4590 N   0  0  0  0  0  2  0  0  0  0  0  0
  188.5450  174.6960  140.3710 C   0  0  0  0  0  0  0  0  0  0  0  0
  187.8800  174.9570  139.3300 O   0  0  0  0  0  0  0  0  0  0  0  0
  190.1050  173.2070  138.0740 C   0  0  0  0  0  1  0  0  0  0  0  0
  190.5370  171.5250  139.8990 C   0  0  0  0  0  3  0  0  0  0  0  0
  189.3340  172.4890  141.8920 S   0  0  0  0  0  0  0  0  0  0  0  0
  190.2720  171.2600  141.2360 C   0  0  0  0  0  0  0  0  0  0  0  0
  189.9580  172.7280  139.4770 C   0  0  0  0  0  0  0  0  0  0  0  0
  189.2440  173.4010  140.4770 C   0  0  0  0  0  0  0  0  0  0  0  0
  190.7310  170.1200  141.9660 N   0  0  0  0  0  2  0  0  0  0  0  0
  193.7000  168.4850  143.4430 O   0  0  0  0  0  0  0  0  0  0  0  0
  192.0720  170.0400  142.5250 C   0  0  1  0  0  3  0  0  0  0  0  0
  192.1370  170.8170  143.8360 C   0  0  0  0  0  2  0  0  0  0  0  0
  195.1690  169.1930  145.0600 O   0  0  0  0  0  0  0  0  0  0  0  0
  194.1670  169.4490  144.3450 C   0  0  0  0  0  0  0  0  0  0  0  0
  193.5650  170.8220  144.3770 C   0  0  0  0  0  2  0  0  0  0  0  0
  192.4170  168.5860  142.8160 C   0  0  0  0  0  2  0  0  0  0  0  0
  2  9  2  0  0  0  0
  2 11  1  0  0  0  0
  3  7  1  0  0  0  0
  3 10  2  0  0  0  0
  5  6  2  0  0  0  0
  5  4  1  0  0  0  0
  6  1  1  0  0  0  0
  7  8  2  0  0  0  0
  8  9  1  0  0  0  0
  9  5  1  0  0  0  0
 10  2  1  0  0  0  0
 11  6  1  0  0  0  0
 13 16  1  0  0  0  0
 13 17  1  1  0  0  0
 14 18  1  0  0  0  0
 14 12  1  1  0  0  0
 14 21  1  0  0  0  0
 15 20  1  1  0  0  0
 15 11  1  0  0  0  0
 15 19  1  0  0  0  0
 18 19  1  0  0  0  0
 18 16  1  1  0  0  0
 20 12  1  0  0  0  0
 21 22  1  6  0  0  0
 21 13  1  0  0  0  0
 23 24  1  0  0  0  0
 24 22  1  0  0  0  0
 25 24  2  0  0  0  0
 26 25  1  0  0  0  0
 27 26  1  0  0  0  0
 27 28  1  0  0  0  0
 29 27  2  0  0  0  0
 30 31  1  0  0  0  0
 30 10  1  0  0  0  0
 32 39  1  0  0  0  0
 32 31  1  0  0  0  0
 33 32  2  0  0  0  0
 34 38  1  0  0  0  0
 35 37  2  0  0  0  0
 37 36  1  0  0  0  0
 37 40  1  0  0  0  0
 38 35  1  0  0  0  0
 38 39  2  0  0  0  0
 39 36  1  0  0  0  0
 41 45  1  0  0  0  0
 42 40  1  1  0  0  0
 42 47  1  0  0  0  0
 42 43  1  0  0  0  0
 43 46  1  0  0  0  0
 45 46  1  0  0  0  0
 45 44  2  0  0  0  0
 47 41  1  0  0  0  0
M  END
>  <MODEL>
4

>  <REMARK>
 VINA RESULT:      -7.6      2.687      3.758
  Name = 
  10 active torsions:
  status: ('A' for Active; 'I' for Inactive)
    1  A    between atoms: C_2  and  C_34
    2  A    between atoms: C_2  and  C_46
    3  A    between atoms: N_6  and  O_10
    4  A    between atoms: C_7  and  N_29
    5  A    between atoms: C_8  and  C_31
    6  A    between atoms: O_10  and  C_42
    7  A    between atoms: C_18  and  N_47
    8  A    between atoms: C_19  and  C_45
    9  A    between atoms: N_29  and  C_37
   10  A    between atoms: C_31  and  N_38
                            x       y       z     vdW  Elec       q    Type
                         _______ _______ _______ _____ _____    ______ ____

>  <TORSDO>
F 10

$$$$
=
 OpenBabel11042418133D

 47 52  0  0  1  0  0  0  0  0999 V2000
  186.7720  177.6150  147.4710 C   0  0  0  0  0  1  0  0  0  0  0  0
  186.6540  177.8780  143.8760 C   0  0  0  0  0  0  0  0  0  0  0  0
  186.1390  178.0160  141.5740 N   0  0  0  0  0  0  0  0  0  0  0  0
  183.9300  178.3270  146.2860 C   0  0  0  0  0  1  0  0  0  0  0  0
  185.1930  178.1260  145.5220 C   0  0  0  0  0  0  0  0  0  0  0  0
  186.4550  177.8180  146.0270 C   0  0  0  0  0  0  0  0  0  0  0  0
  184.8340  178.2990  141.8820 C   0  0  0  0  0  3  0  0  0  0  0  0
  184.4280  178.3660  143.1850 N   0  0  0  0  0  0  0  0  0  0  0  0
  185.3500  178.1560  144.1560 C   0  0  0  0  0  0  0  0  0  0  0  0
  187.0700  177.7900  142.5490 C   0  0  0  0  0  0  0  0  0  0  0  0
  187.3510  177.6750  145.0120 N   0  0  0  0  0  0  0  0  0  0  0  0
  190.4810  176.6590  146.8390 C   0  0  0  0  0  2  0  0  0  0  0  0
  191.8890  173.9480  144.8480 C   0  0  2  0  0  3  0  0  0  0  0  0
  191.2240  176.1690  145.5930 C   0  0  2  0  0  3  0  0  0  0  0  0
  188.7530  177.2750  145.1010 C   0  0  2  0  0  3  0  0  0  0  0  0
  190.5010  174.2090  144.3080 C   0  0  0  0  0  2  0  0  0  0  0  0
  191.9580  172.6760  145.3860 F   0  0  0  0  0  0  0  0  0  0  0  0
  190.2490  175.6930  144.4960 C   0  0  1  0  0  3  0  0  0  0  0  0
  188.8950  175.9000  144.8340 O   0  0  0  0  0  0  0  0  0  0  0  0
  189.3660  177.6410  146.4620 C   0  0  0  0  0  2  0  0  0  0  0  0
  192.1170  174.9860  145.9310 C   0  0  2  0  0  3  0  0  0  0  0  0
  193.5950  175.3800  146.0530 C   0  0  0  0  0  2  0  0  0  0  0  0
  195.4060  173.8400  145.0590 C   0  0  0  0  0  1  0  0  0  0  0  0
  194.4320  174.9650  144.8740 C   0  0  0  0  0  0  0  0  0  0  0  0
  194.2910  175.5720  143.7420 N   0  0  0  0  0  0  0  0  0  0  0  0
  195.0560  175.2470  142.5600 C   0  0  0  0  0  2  0  0  0  0  0  0
  196.0550  176.3150  142.2820 C   0  0  0  0  0  0  0  0  0  0  0  0
  196.9690  176.7180  143.2950 N   0  0  0  0  0  1  0  0  0  0  0  0
  196.0770  176.8790  141.1560 O   0  0  0  0  0  0  0  0  0  0  0  0
  188.4040  177.5100  142.2320 O   0  0  0  0  0  0  0  0  0  0  0  0
  188.7870  176.4750  141.3990 N   0  0  0  0  0  2  0  0  0  0  0  0
  188.1890  175.1730  141.4010 C   0  0  0  0  0  0  0  0  0  0  0  0
  187.3800  174.8500  142.3140 O   0  0  0  0  0  0  0  0  0  0  0  0
  187.4450  175.2650  138.3420 C   0  0  0  0  0  1  0  0  0  0  0  0
  188.7740  173.1250  138.2860 C   0  0  0  0  0  3  0  0  0  0  0  0
  189.4750  172.7990  140.6840 S   0  0  0  0  0  0  0  0  0  0  0  0
  189.4860  172.2510  139.0960 C   0  0  0  0  0  0  0  0  0  0  0  0
  188.2540  174.2060  139.0080 C   0  0  0  0  0  0  0  0  0  0  0  0
  188.5570  174.1780  140.3760 C   0  0  0  0  0  0  0  0  0  0  0  0
  190.1470  171.0610  138.6590 N   0  0  0  0  0  2  0  0  0  0  0  0
  193.6900  170.5240  139.5690 O   0  0  0  0  0  0  0  0  0  0  0  0
  191.5850  171.0010  138.4480 C   0  0  1  0  0  3  0  0  0  0  0  0
  192.1220  172.3900  138.1220 C   0  0  0  0  0  2  0  0  0  0  0  0
  195.6000  171.6230  138.9240 O   0  0  0  0  0  0  0  0  0  0  0  0
  194.3540  171.5020  138.8180 C   0  0  0  0  0  0  0  0  0  0  0  0
  193.6140  172.3180  137.8010 C   0  0  0  0  0  2  0  0  0  0  0  0
  192.2670  170.5150  139.7200 C   0  0  0  0  0  2  0  0  0  0  0  0
  2  9  2  0  0  0  0
  2 11  1  0  0  0  0
  3  7  1  0  0  0  0
  3 10  2  0  0  0  0
  5  6  2  0  0  0  0
  5  4  1  0  0  0  0
  6  1  1  0  0  0  0
  7  8  2  0  0  0  0
  8  9  1  0  0  0  0
  9  5  1  0  0  0  0
 10  2  1  0  0  0  0
 11  6  1  0  0  0  0
 13 17  1  1  0  0  0
 13 21  1  0  0  0  0
 14 21  1  0  0  0  0
 14 12  1  1  0  0  0
 15 11  1  1  0  0  0
 15 20  1  0  0  0  0
 16 13  1  0  0  0  0
 18 16  1  1  0  0  0
 18 19  1  0  0  0  0
 18 14  1  0  0  0  0
 19 15  1  0  0  0  0
 20 12  1  0  0  0  0
 21 22  1  6  0  0  0
 24 23  1  0  0  0  0
 24 22  1  0  0  0  0
 25 24  2  0  0  0  0
 26 25  1  0  0  0  0
 27 26  1  0  0  0  0
 27 28  1  0  0  0  0
 29 27  2  0  0  0  0
 30 10  1  0  0  0  0
 31 32  1  0  0  0  0
 31 30  1  0  0  0  0
 32 33  2  0  0  0  0
 34 38  1  0  0  0  0
 35 38  1  0  0  0  0
 35 37  2  0  0  0  0
 37 36  1  0  0  0  0
 38 39  2  0  0  0  0
 39 36  1  0  0  0  0
 39 32  1  0  0  0  0
 40 37  1  0  0  0  0
 41 47  1  0  0  0  0
 42 40  1  1  0  0  0
 42 47  1  0  0  0  0
 43 42  1  0  0  0  0
 45 44  2  0  0  0  0
 45 41  1  0  0  0  0
 46 43  1  0  0  0  0
 46 45  1  0  0  0  0
M  END
>  <MODEL>
5

>  <REMARK>
 VINA RESULT:      -7.3      2.169      2.667
  Name = 
  10 active torsions:
  status: ('A' for Active; 'I' for Inactive)
    1  A    between atoms: C_2  and  C_34
    2  A    between atoms: C_2  and  C_46
    3  A    between atoms: N_6  and  O_10
    4  A    between atoms: C_7  and  N_29
    5  A    between atoms: C_8  and  C_31
    6  A    between atoms: O_10  and  C_42
    7  A    between atoms: C_18  and  N_47
    8  A    between atoms: C_19  and  C_45
    9  A    between atoms: N_29  and  C_37
   10  A    between atoms: C_31  and  N_38
                            x       y       z     vdW  Elec       q    Type
                         _______ _______ _______ _____ _____    ______ ____

>  <TORSDO>
F 10

$$$$
=
 OpenBabel11042418133D

 47 52  0  0  1  0  0  0  0  0999 V2000
  196.8610  172.5130  143.3080 C   0  0  0  0  0  1  0  0  0  0  0  0
  194.1090  170.8020  141.7240 C   0  0  0  0  0  0  0  0  0  0  0  0
  192.5980  169.5970  140.3640 N   0  0  0  0  0  0  0  0  0  0  0  0
  197.6870  170.5470  140.9760 C   0  0  0  0  0  1  0  0  0  0  0  0
  196.3110  170.8010  141.4850 C   0  0  0  0  0  0  0  0  0  0  0  0
  195.9280  171.6590  142.5150 C   0  0  0  0  0  0  0  0  0  0  0  0
  193.6500  169.0760  139.6560 C   0  0  0  0  0  3  0  0  0  0  0  0
  194.9350  169.4180  139.9700 N   0  0  0  0  0  0  0  0  0  0  0  0
  195.1360  170.2740  141.0020 C   0  0  0  0  0  0  0  0  0  0  0  0
  192.7960  170.4710  141.3960 C   0  0  0  0  0  0  0  0  0  0  0  0
  194.5750  171.6500  142.6630 N   0  0  0  0  0  0  0  0  0  0  0  0
  193.9290  173.5990  145.8180 C   0  0  0  0  0  2  0  0  0  0  0  0
  192.1490  176.5870  144.7240 C   0  0  2  0  0  3  0  0  0  0  0  0
  192.6540  174.2780  145.3110 C   0  0  2  0  0  3  0  0  0  0  0  0
  193.7640  172.4620  143.5670 C   0  0  2  0  0  3  0  0  0  0  0  0
  192.6650  175.9060  143.4760 C   0  0  0  0  0  2  0  0  0  0  0  0
  192.7470  177.8250  144.8700 F   0  0  0  0  0  0  0  0  0  0  0  0
  192.6540  174.4190  143.7740 C   0  0  1  0  0  3  0  0  0  0  0  0
  193.7710  173.8100  143.1630 O   0  0  0  0  0  0  0  0  0  0  0  0
  194.2190  172.3170  145.0280 C   0  0  0  0  0  2  0  0  0  0  0  0
  192.5310  175.6820  145.8800 C   0  0  2  0  0  3  0  0  0  0  0  0
  191.5240  175.7630  147.0340 C   0  0  0  0  0  2  0  0  0  0  0  0
  189.4340  174.4220  146.3440 C   0  0  0  0  0  1  0  0  0  0  0  0
  190.0880  175.7500  146.5880 C   0  0  0  0  0  0  0  0  0  0  0  0
  189.4530  176.8650  146.4360 N   0  0  0  0  0  0  0  0  0  0  0  0
  188.0770  176.9500  146.0040 C   0  0  0  0  0  2  0  0  0  0  0  0
  187.2170  177.4450  147.1150 C   0  0  0  0  0  0  0  0  0  0  0  0
  185.9940  176.7850  147.4170 N   0  0  0  0  0  1  0  0  0  0  0  0
  187.5610  178.4620  147.7720 O   0  0  0  0  0  0  0  0  0  0  0  0
  191.7210  170.9960  142.1230 O   0  0  0  0  0  0  0  0  0  0  0  0
  190.9340  172.0390  141.6710 N   0  0  0  0  0  2  0  0  0  0  0  0
  189.8050  172.5660  142.3800 C   0  0  0  0  0  0  0  0  0  0  0  0
  189.3610  171.9660  143.3970 O   0  0  0  0  0  0  0  0  0  0  0  0
  188.3790  172.9320  139.5950 C   0  0  0  0  0  1  0  0  0  0  0  0
  187.8730  175.2200  140.5190 C   0  0  0  0  0  3  0  0  0  0  0  0
  188.9640  175.1980  142.7910 S   0  0  0  0  0  0  0  0  0  0  0  0
  188.0720  176.0260  141.6320 C   0  0  0  0  0  0  0  0  0  0  0  0
  188.4600  173.9580  140.6720 C   0  0  0  0  0  0  0  0  0  0  0  0
  189.1160  173.7770  141.8960 C   0  0  0  0  0  0  0  0  0  0  0  0
  187.5890  177.3610  141.7910 N   0  0  0  0  0  2  0  0  0  0  0  0
  184.9170  177.2550  144.3440 O   0  0  0  0  0  0  0  0  0  0  0  0
  186.8510  177.7880  142.9700 C   0  0  1  0  0  3  0  0  0  0  0  0
  186.2520  179.1710  142.7360 C   0  0  0  0  0  2  0  0  0  0  0  0
  183.7750  178.9390  145.4090 O   0  0  0  0  0  0  0  0  0  0  0  0
  184.6760  178.6120  144.5950 C   0  0  0  0  0  0  0  0  0  0  0  0
  185.5610  179.6680  144.0040 C   0  0  0  0  0  2  0  0  0  0  0  0
  185.7100  176.8150  143.2370 C   0  0  0  0  0  2  0  0  0  0  0  0
  2 11  1  0  0  0  0
  3 10  2  0  0  0  0
  4  5  1  0  0  0  0
  5  6  2  0  0  0  0
  6 11  1  0  0  0  0
  6  1  1  0  0  0  0
  7  8  2  0  0  0  0
  7  3  1  0  0  0  0
  8  9  1  0  0  0  0
  9  5  1  0  0  0  0
  9  2  2  0  0  0  0
 10  2  1  0  0  0  0
 10 30  1  0  0  0  0
 13 17  1  1  0  0  0
 13 21  1  0  0  0  0
 14 12  1  1  0  0  0
 14 21  1  0  0  0  0
 15 11  1  6  0  0  0
 15 20  1  0  0  0  0
 16 13  1  0  0  0  0
 18 16  1  1  0  0  0
 18 14  1  0  0  0  0
 19 15  1  0  0  0  0
 19 18  1  0  0  0  0
 20 12  1  0  0  0  0
 21 22  1  1  0  0  0
 23 24  1  0  0  0  0
 24 22  1  0  0  0  0
 25 24  2  0  0  0  0
 26 25  1  0  0  0  0
 26 27  1  0  0  0  0
 27 28  1  0  0  0  0
 27 29  2  0  0  0  0
 31 30  1  0  0  0  0
 31 32  1  0  0  0  0
 32 33  2  0  0  0  0
 34 38  1  0  0  0  0
 35 38  1  0  0  0  0
 35 37  2  0  0  0  0
 37 40  1  0  0  0  0
 37 36  1  0  0  0  0
 38 39  2  0  0  0  0
 39 32  1  0  0  0  0
 39 36  1  0  0  0  0
 41 45  1  0  0  0  0
 42 40  1  6  0  0  0
 42 47  1  0  0  0  0
 43 42  1  0  0  0  0
 43 46  1  0  0  0  0
 45 44  2  0  0  0  0
 46 45  1  0  0  0  0
 47 41  1  0  0  0  0
M  END
>  <MODEL>
6

>  <REMARK>
 VINA RESULT:      -7.3      2.982      8.989
  Name = 
  10 active torsions:
  status: ('A' for Active; 'I' for Inactive)
    1  A    between atoms: C_2  and  C_34
    2  A    between atoms: C_2  and  C_46
    3  A    between atoms: N_6  and  O_10
    4  A    between atoms: C_7  and  N_29
    5  A    between atoms: C_8  and  C_31
    6  A    between atoms: O_10  and  C_42
    7  A    between atoms: C_18  and  N_47
    8  A    between atoms: C_19  and  C_45
    9  A    between atoms: N_29  and  C_37
   10  A    between atoms: C_31  and  N_38
                            x       y       z     vdW  Elec       q    Type
                         _______ _______ _______ _____ _____    ______ ____

>  <TORSDO>
F 10

$$$$
=
 OpenBabel11042418133D

 47 52  0  0  1  0  0  0  0  0999 V2000
  196.6350  173.0670  138.6410 C   0  0  0  0  0  1  0  0  0  0  0  0
  193.0980  172.3700  138.7490 C   0  0  0  0  0  0  0  0  0  0  0  0
  190.8080  171.9160  138.3780 N   0  0  0  0  0  0  0  0  0  0  0  0
  195.4140  171.9810  135.9360 C   0  0  0  0  0  1  0  0  0  0  0  0
  194.6910  172.1960  137.2200 C   0  0  0  0  0  0  0  0  0  0  0  0
  195.2130  172.6680  138.4240 C   0  0  0  0  0  0  0  0  0  0  0  0
  191.0880  171.5620  137.0830 C   0  0  0  0  0  3  0  0  0  0  0  0
  192.3680  171.6160  136.6100 N   0  0  0  0  0  0  0  0  0  0  0  0
  193.3480  172.0170  137.4570 C   0  0  0  0  0  0  0  0  0  0  0  0
  191.7910  172.3340  139.2320 C   0  0  0  0  0  0  0  0  0  0  0  0
  194.2320  172.7650  139.3620 N   0  0  0  0  0  0  0  0  0  0  0  0
  195.7130  172.9700  142.8160 C   0  0  0  0  0  2  0  0  0  0  0  0
  195.9000  176.5380  143.5440 C   0  0  2  0  0  3  0  0  0  0  0  0
  195.0330  174.2900  143.1880 C   0  0  2  0  0  3  0  0  0  0  0  0
  194.3360  173.2890  140.7210 C   0  0  2  0  0  3  0  0  0  0  0  0
  195.5650  176.4100  142.0750 C   0  0  0  0  0  2  0  0  0  0  0  0
  197.1380  177.1350  143.6980 F   0  0  0  0  0  0  0  0  0  0  0  0
  194.7320  175.1500  141.9420 C   0  0  1  0  0  3  0  0  0  0  0  0
  195.0550  174.4990  140.7320 O   0  0  0  0  0  0  0  0  0  0  0  0
  194.9590  172.2650  141.6820 C   0  0  0  0  0  2  0  0  0  0  0  0
  195.9310  175.1230  144.0880 C   0  0  2  0  0  3  0  0  0  0  0  0
  195.5080  175.0600  145.5610 C   0  0  0  0  0  2  0  0  0  0  0  0
  194.5720  177.3930  146.1310 C   0  0  0  0  0  1  0  0  0  0  0  0
  194.3280  175.9320  145.8910 C   0  0  0  0  0  0  0  0  0  0  0  0
  193.1450  175.4150  145.9500 N   0  0  0  0  0  0  0  0  0  0  0  0
  191.9570  176.1730  146.2660 C   0  0  0  0  0  2  0  0  0  0  0  0
  191.0290  175.3570  147.0970 C   0  0  0  0  0  0  0  0  0  0  0  0
  189.9420  174.6720  146.4870 N   0  0  0  0  0  1  0  0  0  0  0  0
  191.1930  175.2900  148.3430 O   0  0  0  0  0  0  0  0  0  0  0  0
  191.5050  172.6860  140.5550 O   0  0  0  0  0  0  0  0  0  0  0  0
  190.7390  173.7840  140.9010 N   0  0  0  0  0  2  0  0  0  0  0  0
  190.7230  174.3800  142.2050 C   0  0  0  0  0  0  0  0  0  0  0  0
  191.2920  173.8010  143.1710 O   0  0  0  0  0  0  0  0  0  0  0  0
  191.9820  177.1670  142.9590 C   0  0  0  0  0  1  0  0  0  0  0  0
  189.5750  177.9070  142.8980 C   0  0  0  0  0  3  0  0  0  0  0  0
  188.3190  175.7970  142.3340 S   0  0  0  0  0  0  0  0  0  0  0  0
  188.2850  177.4390  142.6840 C   0  0  0  0  0  0  0  0  0  0  0  0
  190.5310  176.8930  142.7620 C   0  0  0  0  0  0  0  0  0  0  0  0
  189.9940  175.6390  142.4440 C   0  0  0  0  0  0  0  0  0  0  0  0
  187.0940  178.2270  142.7380 N   0  0  0  0  0  2  0  0  0  0  0  0
  184.5870  179.2730  145.2460 O   0  0  0  0  0  0  0  0  0  0  0  0
  186.0890  178.0510  143.7750 C   0  0  1  0  0  3  0  0  0  0  0  0
  186.7220  177.4230  145.0120 C   0  0  0  0  0  2  0  0  0  0  0  0
  184.0670  178.4150  147.3120 O   0  0  0  0  0  0  0  0  0  0  0  0
  184.7560  178.3270  146.2650 C   0  0  0  0  0  0  0  0  0  0  0  0
  185.6550  177.1430  146.0680 C   0  0  0  0  0  2  0  0  0  0  0  0
  185.5200  179.4070  144.1690 C   0  0  0  0  0  2  0  0  0  0  0  0
  2 10  1  0  0  0  0
  2 11  1  0  0  0  0
  3 10  2  0  0  0  0
  4  5  1  0  0  0  0
  5  9  1  0  0  0  0
  5  6  2  0  0  0  0
  6  1  1  0  0  0  0
  6 11  1  0  0  0  0
  7  3  1  0  0  0  0
  8  7  2  0  0  0  0
  8  9  1  0  0  0  0
  9  2  2  0  0  0  0
 10 30  1  0  0  0  0
 13 17  1  6  0  0  0
 13 21  1  0  0  0  0
 14 12  1  6  0  0  0
 14 21  1  0  0  0  0
 15 11  1  6  0  0  0
 15 19  1  0  0  0  0
 15 20  1  0  0  0  0
 16 13  1  0  0  0  0
 18 16  1  1  0  0  0
 18 14  1  0  0  0  0
 19 18  1  0  0  0  0
 20 12  1  0  0  0  0
 21 22  1  1  0  0  0
 22 24  1  0  0  0  0
 24 25  2  0  0  0  0
 24 23  1  0  0  0  0
 25 26  1  0  0  0  0
 26 27  1  0  0  0  0
 27 29  2  0  0  0  0
 28 27  1  0  0  0  0
 30 31  1  0  0  0  0
 31 32  1  0  0  0  0
 32 39  1  0  0  0  0
 32 33  2  0  0  0  0
 36 39  1  0  0  0  0
 36 37  1  0  0  0  0
 37 40  1  0  0  0  0
 37 35  2  0  0  0  0
 38 35  1  0  0  0  0
 38 34  1  0  0  0  0
 39 38  2  0  0  0  0
 41 45  1  0  0  0  0
 42 40  1  6  0  0  0
 42 47  1  0  0  0  0
 42 43  1  0  0  0  0
 43 46  1  0  0  0  0
 45 44  2  0  0  0  0
 46 45  1  0  0  0  0
 47 41  1  0  0  0  0
M  END
>  <MODEL>
7

>  <REMARK>
 VINA RESULT:      -7.3      3.125      9.014
  Name = 
  10 active torsions:
  status: ('A' for Active; 'I' for Inactive)
    1  A    between atoms: C_2  and  C_34
    2  A    between atoms: C_2  and  C_46
    3  A    between atoms: N_6  and  O_10
    4  A    between atoms: C_7  and  N_29
    5  A    between atoms: C_8  and  C_31
    6  A    between atoms: O_10  and  C_42
    7  A    between atoms: C_18  and  N_47
    8  A    between atoms: C_19  and  C_45
    9  A    between atoms: N_29  and  C_37
   10  A    between atoms: C_31  and  N_38
                            x       y       z     vdW  Elec       q    Type
                         _______ _______ _______ _____ _____    ______ ____

>  <TORSDO>
F 10

$$$$
=
 OpenBabel11042418133D

 47 52  0  0  1  0  0  0  0  0999 V2000
  184.5690  177.9060  141.6090 C   0  0  0  0  0  1  0  0  0  0  0  0
  186.3580  177.2090  144.6610 C   0  0  0  0  0  0  0  0  0  0  0  0
  187.3140  177.1030  146.8200 N   0  0  0  0  0  0  0  0  0  0  0  0
  183.3950  179.3110  144.1840 C   0  0  0  0  0  1  0  0  0  0  0  0
  184.5650  178.3920  144.1230 C   0  0  0  0  0  0  0  0  0  0  0  0
  185.0930  177.7590  142.9990 C   0  0  0  0  0  0  0  0  0  0  0  0
  186.3250  177.9220  147.2990 C   0  0  0  0  0  3  0  0  0  0  0  0
  185.3520  178.3950  146.4650 N   0  0  0  0  0  0  0  0  0  0  0  0
  185.3890  178.0250  145.1610 C   0  0  0  0  0  0  0  0  0  0  0  0
  187.3630  176.7370  145.5040 C   0  0  0  0  0  0  0  0  0  0  0  0
  186.1900  177.0260  143.3360 N   0  0  0  0  0  0  0  0  0  0  0  0
  189.5420  176.0650  141.9200 C   0  0  0  0  0  2  0  0  0  0  0  0
  189.4120  172.4350  141.5910 C   0  0  2  0  0  3  0  0  0  0  0  0
  189.0410  174.8100  141.2000 C   0  0  2  0  0  3  0  0  0  0  0  0
  187.0800  176.2810  142.4500 C   0  0  2  0  0  3  0  0  0  0  0  0
  188.2010  172.8430  142.4000 C   0  0  0  0  0  2  0  0  0  0  0  0
  190.2550  171.6530  142.3600 F   0  0  0  0  0  0  0  0  0  0  0  0
  187.7960  174.2120  141.8890 C   0  0  1  0  0  3  0  0  0  0  0  0
  187.3330  174.9960  142.9670 O   0  0  0  0  0  0  0  0  0  0  0  0
  188.3900  177.0410  142.1870 C   0  0  0  0  0  2  0  0  0  0  0  0
  190.1070  173.7270  141.2030 C   0  0  2  0  0  3  0  0  0  0  0  0
  190.8320  173.6110  139.8560 C   0  0  0  0  0  2  0  0  0  0  0  0
  192.7900  171.9390  139.7440 C   0  0  0  0  0  1  0  0  0  0  0  0
  192.3060  173.3390  139.9820 C   0  0  0  0  0  0  0  0  0  0  0  0
  193.1130  174.3030  140.2780 N   0  0  0  0  0  0  0  0  0  0  0  0
  194.5400  174.1340  140.4270 C   0  0  0  0  0  2  0  0  0  0  0  0
  195.2110  175.4600  140.5160 C   0  0  0  0  0  0  0  0  0  0  0  0
  196.4500  175.6770  139.8510 N   0  0  0  0  0  1  0  0  0  0  0  0
  194.6940  176.3830  141.1970 O   0  0  0  0  0  0  0  0  0  0  0  0
  188.3690  175.8940  145.0190 O   0  0  0  0  0  0  0  0  0  0  0  0
  189.7110  176.0710  145.3000 N   0  0  0  0  0  2  0  0  0  0  0  0
  190.7100  175.0550  145.1480 C   0  0  0  0  0  0  0  0  0  0  0  0
  190.3690  173.8630  144.9110 O   0  0  0  0  0  0  0  0  0  0  0  0
  192.0270  176.4480  147.6480 C   0  0  0  0  0  1  0  0  0  0  0  0
  194.1380  176.1220  146.3120 C   0  0  0  0  0  3  0  0  0  0  0  0
  193.3340  175.0260  144.1900 S   0  0  0  0  0  0  0  0  0  0  0  0
  194.6090  175.6300  145.1020 C   0  0  0  0  0  0  0  0  0  0  0  0
  192.7500  175.9780  146.4330 C   0  0  0  0  0  0  0  0  0  0  0  0
  192.1390  175.3760  145.3260 C   0  0  0  0  0  0  0  0  0  0  0  0
  195.9750  175.6200  144.6820 N   0  0  0  0  0  2  0  0  0  0  0  0
  197.3970  172.5010  143.2960 O   0  0  0  0  0  0  0  0  0  0  0  0
  196.7790  174.4070  144.6730 C   0  0  1  0  0  3  0  0  0  0  0  0
  196.2570  173.4290  145.7200 C   0  0  0  0  0  2  0  0  0  0  0  0
  197.8700  170.4840  144.2860 O   0  0  0  0  0  0  0  0  0  0  0  0
  197.4580  171.6640  144.4170 C   0  0  0  0  0  0  0  0  0  0  0  0
  197.1570  172.1970  145.7860 C   0  0  0  0  0  2  0  0  0  0  0  0
  196.6820  173.7400  143.3080 C   0  0  0  0  0  2  0  0  0  0  0  0
  1  6  1  0  0  0  0
  2  9  2  0  0  0  0
  2 10  1  0  0  0  0
  3  7  1  0  0  0  0
  5  4  1  0  0  0  0
  5  9  1  0  0  0  0
  6 11  1  0  0  0  0
  6  5  2  0  0  0  0
  8  7  2  0  0  0  0
  9  8  1  0  0  0  0
 10  3  2  0  0  0  0
 11  2  1  0  0  0  0
 12 20  1  0  0  0  0
 13 17  1  1  0  0  0
 13 16  1  0  0  0  0
 14 21  1  0  0  0  0
 14 18  1  0  0  0  0
 14 12  1  1  0  0  0
 15 20  1  1  0  0  0
 15 19  1  0  0  0  0
 15 11  1  0  0  0  0
 18 16  1  1  0  0  0
 18 19  1  0  0  0  0
 21 22  1  6  0  0  0
 21 13  1  0  0  0  0
 22 24  1  0  0  0  0
 23 24  1  0  0  0  0
 24 25  2  0  0  0  0
 25 26  1  0  0  0  0
 26 27  1  0  0  0  0
 27 29  2  0  0  0  0
 28 27  1  0  0  0  0
 30 31  1  0  0  0  0
 30 10  1  0  0  0  0
 32 31  1  0  0  0  0
 32 39  1  0  0  0  0
 33 32  2  0  0  0  0
 35 38  1  0  0  0  0
 36 37  1  0  0  0  0
 36 39  1  0  0  0  0
 37 35  2  0  0  0  0
 38 34  1  0  0  0  0
 39 38  2  0  0  0  0
 40 37  1  0  0  0  0
 41 47  1  0  0  0  0
 41 45  1  0  0  0  0
 42 40  1  6  0  0  0
 42 43  1  0  0  0  0
 43 46  1  0  0  0  0
 44 45  2  0  0  0  0
 45 46  1  0  0  0  0
 47 42  1  0  0  0  0
M  END
>  <MODEL>
8

>  <REMARK>
 VINA RESULT:      -7.2      3.295      5.992
  Name = 
  10 active torsions:
  status: ('A' for Active; 'I' for Inactive)
    1  A    between atoms: C_2  and  C_34
    2  A    between atoms: C_2  and  C_46
    3  A    between atoms: N_6  and  O_10
    4  A    between atoms: C_7  and  N_29
    5  A    between atoms: C_8  and  C_31
    6  A    between atoms: O_10  and  C_42
    7  A    between atoms: C_18  and  N_47
    8  A    between atoms: C_19  and  C_45
    9  A    between atoms: N_29  and  C_37
   10  A    between atoms: C_31  and  N_38
                            x       y       z     vdW  Elec       q    Type
                         _______ _______ _______ _____ _____    ______ ____

>  <TORSDO>
F 10

$$$$
=
 OpenBabel11042418133D

 47 52  0  0  1  0  0  0  0  0999 V2000
  193.0110  169.8720  143.5380 C   0  0  0  0  0  1  0  0  0  0  0  0
  194.5260  173.0060  144.4800 C   0  0  0  0  0  0  0  0  0  0  0  0
  195.6980  174.8270  145.4280 N   0  0  0  0  0  0  0  0  0  0  0  0
  195.4350  169.6210  145.5490 C   0  0  0  0  0  1  0  0  0  0  0  0
  194.8970  170.8740  144.9500 C   0  0  0  0  0  0  0  0  0  0  0  0
  193.8340  171.0040  144.0580 C   0  0  0  0  0  0  0  0  0  0  0  0
  196.4800  173.9540  146.1380 C   0  0  0  0  0  3  0  0  0  0  0  0
  196.2880  172.6050  146.0310 N   0  0  0  0  0  0  0  0  0  0  0  0
  195.3140  172.1600  145.2000 C   0  0  0  0  0  0  0  0  0  0  0  0
  194.7050  174.3830  144.5990 C   0  0  0  0  0  0  0  0  0  0  0  0
  193.6150  172.3150  143.7650 N   0  0  0  0  0  0  0  0  0  0  0  0
  191.4160  172.5110  140.7170 C   0  0  0  0  0  2  0  0  0  0  0  0
  188.0830  173.2230  142.0130 C   0  0  2  0  0  3  0  0  0  0  0  0
  190.4050  173.4850  141.3300 C   0  0  2  0  0  3  0  0  0  0  0  0
  192.5540  172.8880  142.9420 C   0  0  2  0  0  3  0  0  0  0  0  0
  188.9460  172.8710  143.2030 C   0  0  0  0  0  2  0  0  0  0  0  0
  187.0800  172.2830  141.8600 F   0  0  0  0  0  0  0  0  0  0  0  0
  190.3430  173.3540  142.8660 C   0  0  1  0  0  3  0  0  0  0  0  0
  191.2920  172.4450  143.3810 O   0  0  0  0  0  0  0  0  0  0  0  0
  192.7600  172.5830  141.4500 C   0  0  0  0  0  2  0  0  0  0  0  0
  189.0050  173.2040  140.8090 C   0  0  2  0  0  3  0  0  0  0  0  0
  188.5670  174.2010  139.7290 C   0  0  0  0  0  2  0  0  0  0  0  0
  188.2300  174.5450  137.1980 C   0  0  0  0  0  1  0  0  0  0  0  0
  188.6850  173.6690  138.3280 C   0  0  0  0  0  0  0  0  0  0  0  0
  189.1770  172.4920  138.1280 N   0  0  0  0  0  0  0  0  0  0  0  0
  189.3220  171.8970  136.8190 C   0  0  0  0  0  2  0  0  0  0  0  0
  190.7500  171.9140  136.3980 C   0  0  0  0  0  0  0  0  0  0  0  0
  191.0860  171.8740  135.0170 N   0  0  0  0  0  1  0  0  0  0  0  0
  191.6620  171.9430  137.2660 O   0  0  0  0  0  0  0  0  0  0  0  0
  193.9140  175.2760  143.8680 O   0  0  0  0  0  0  0  0  0  0  0  0
  192.5730  175.4910  144.1270 N   0  0  0  0  0  2  0  0  0  0  0  0
  192.0760  176.3390  145.1690 C   0  0  0  0  0  0  0  0  0  0  0  0
  192.8660  176.8050  146.0360 O   0  0  0  0  0  0  0  0  0  0  0  0
  190.0050  174.9040  147.0610 C   0  0  0  0  0  1  0  0  0  0  0  0
  188.4020  176.5390  146.0090 C   0  0  0  0  0  3  0  0  0  0  0  0
  189.8410  177.8210  144.3860 S   0  0  0  0  0  0  0  0  0  0  0  0
  188.3300  177.5610  145.0720 C   0  0  0  0  0  0  0  0  0  0  0  0
  189.6980  176.0180  146.1210 C   0  0  0  0  0  0  0  0  0  0  0  0
  190.6340  176.6290  145.2760 C   0  0  0  0  0  0  0  0  0  0  0  0
  187.1540  178.3020  144.7370 N   0  0  0  0  0  2  0  0  0  0  0  0
  186.1710  178.1750  141.1750 O   0  0  0  0  0  0  0  0  0  0  0  0
  186.3210  177.9650  143.5930 C   0  0  1  0  0  3  0  0  0  0  0  0
  184.9800  178.6830  143.6970 C   0  0  0  0  0  2  0  0  0  0  0  0
  184.1120  178.3240  140.1690 O   0  0  0  0  0  0  0  0  0  0  0  0
  184.7770  178.2930  141.2350 C   0  0  0  0  0  0  0  0  0  0  0  0
  184.0620  178.2570  142.5530 C   0  0  0  0  0  2  0  0  0  0  0  0
  187.0060  178.4200  142.3110 C   0  0  0  0  0  2  0  0  0  0  0  0
  1  6  1  0  0  0  0
  2 10  1  0  0  0  0
  2  9  2  0  0  0  0
  3  7  1  0  0  0  0
  5  9  1  0  0  0  0
  5  4  1  0  0  0  0
  6  5  2  0  0  0  0
  8  7  2  0  0  0  0
  9  8  1  0  0  0  0
 10  3  2  0  0  0  0
 11  6  1  0  0  0  0
 11  2  1  0  0  0  0
 12 20  1  0  0  0  0
 13 17  1  6  0  0  0
 13 16  1  0  0  0  0
 14 12  1  6  0  0  0
 14 18  1  0  0  0  0
 15 20  1  6  0  0  0
 15 19  1  0  0  0  0
 15 11  1  0  0  0  0
 18 16  1  6  0  0  0
 18 19  1  0  0  0  0
 21 22  1  6  0  0  0
 21 14  1  0  0  0  0
 21 13  1  0  0  0  0
 23 24  1  0  0  0  0
 24 22  1  0  0  0  0
 25 24  2  0  0  0  0
 26 25  1  0  0  0  0
 27 26  1  0  0  0  0
 27 29  2  0  0  0  0
 28 27  1  0  0  0  0
 30 31  1  0  0  0  0
 30 10  1  0  0  0  0
 31 32  1  0  0  0  0
 32 39  1  0  0  0  0
 32 33  2  0  0  0  0
 35 38  1  0  0  0  0
 36 37  1  0  0  0  0
 36 39  1  0  0  0  0
 37 35  2  0  0  0  0
 38 34  1  0  0  0  0
 39 38  2  0  0  0  0
 40 37  1  0  0  0  0
 41 45  1  0  0  0  0
 41 47  1  0  0  0  0
 42 43  1  0  0  0  0
 42 40  1  1  0  0  0
 44 45  2  0  0  0  0
 45 46  1  0  0  0  0
 46 43  1  0  0  0  0
 47 42  1  0  0  0  0
M  END
>  <MODEL>
9

>  <REMARK>
 VINA RESULT:      -7.2      3.165      9.151
  Name = 
  10 active torsions:
  status: ('A' for Active; 'I' for Inactive)
    1  A    between atoms: C_2  and  C_34
    2  A    between atoms: C_2  and  C_46
    3  A    between atoms: N_6  and  O_10
    4  A    between atoms: C_7  and  N_29
    5  A    between atoms: C_8  and  C_31
    6  A    between atoms: O_10  and  C_42
    7  A    between atoms: C_18  and  N_47
    8  A    between atoms: C_19  and  C_45
    9  A    between atoms: N_29  and  C_37
   10  A    between atoms: C_31  and  N_38
                            x       y       z     vdW  Elec       q    Type
                         _______ _______ _______ _____ _____    ______ ____

>  <TORSDO>
F 10

$$$$
