=
 OpenBabel11042417473D

 25 28  0  0  1  0  0  0  0  0999 V2000
  190.0480  175.2550  144.6790 C   0  0  2  0  0  3  0  0  0  0  0  0
  187.7320  176.5360  146.1230 C   0  0  0  0  0  2  0  0  0  0  0  0
  188.8860  175.8540  146.8670 C   0  0  0  0  0  2  0  0  0  0  0  0
  189.4630  176.6110  144.2310 C   0  0  1  0  0  3  0  0  0  0  0  0
  187.9770  176.6900  144.6120 C   0  0  2  0  0  3  0  0  0  0  0  0
  190.2420  177.8050  144.7840 C   0  0  0  0  0  1  0  0  0  0  0  0
  189.5090  174.7410  146.0270 C   0  0  0  0  0  2  0  0  0  0  0  0
  187.3830  177.8940  144.1410 O   0  0  0  0  0  0  0  0  0  0  0  0
  183.5680  178.1790  140.1680 N   0  0  0  0  0  0  0  0  0  0  0  0
  184.4550  178.3480  144.7820 C   0  0  0  0  0  1  0  0  0  0  0  0
  184.5910  178.0910  141.0310 C   0  0  0  0  0  0  0  0  0  0  0  0
  185.9370  177.9310  140.7280 C   0  0  0  0  0  3  0  0  0  0  0  0
  181.1780  178.4870  140.5190 N   0  0  0  0  0  1  0  0  0  0  0  0
  184.1430  178.2010  142.3130 C   0  0  0  0  0  0  0  0  0  0  0  0
  186.8390  177.8730  141.8030 C   0  0  0  0  0  3  0  0  0  0  0  0
  182.8110  178.3660  142.3220 N   0  0  0  0  0  2  0  0  0  0  0  0
  186.3990  177.9710  143.1430 C   0  0  0  0  0  0  0  0  0  0  0  0
  182.5090  178.3440  140.9990 C   0  0  0  0  0  0  0  0  0  0  0  0
  185.0080  178.1530  143.4090 C   0  0  0  0  0  0  0  0  0  0  0  0
  191.5050  175.2630  144.6710 N   0  0  0  0  0  2  0  0  0  0  0  0
  193.3750  174.1300  145.7280 C   0  0  0  0  0  2  0  0  0  0  0  0
  193.1080  175.3550  146.5750 C   0  0  2  0  0  3  0  0  0  0  0  0
  191.9480  174.6160  145.8990 C   0  0  1  0  0  3  0  0  0  0  0  0
  193.5880  176.5980  145.8350 C   0  0  0  0  0  2  0  0  0  0  0  0
  194.4420  177.3300  146.6580 O   0  0  0  0  0  1  0  0  0  0  0  0
  1 20  1  1  0  0  0
  1  7  1  0  0  0  0
  2  3  1  0  0  0  0
  4  5  1  0  0  0  0
  4  1  1  0  0  0  0
  4  6  1  1  0  0  0
  5  8  1  1  0  0  0
  5  2  1  0  0  0  0
  7  3  1  0  0  0  0
  9 18  2  0  0  0  0
  9 11  1  0  0  0  0
 11 14  1  0  0  0  0
 12 11  2  0  0  0  0
 12 15  1  0  0  0  0
 13 18  1  0  0  0  0
 14 16  1  0  0  0  0
 14 19  2  0  0  0  0
 15 17  2  0  0  0  0
 17 19  1  0  0  0  0
 17  8  1  0  0  0  0
 18 16  1  0  0  0  0
 19 10  1  0  0  0  0
 21 23  1  0  0  0  0
 21 22  1  0  0  0  0
 22 24  1  6  0  0  0
 23 20  1  6  0  0  0
 23 22  1  0  0  0  0
 24 25  1  0  0  0  0
M  END
>  <MODEL>
1

>  <REMARK>
 VINA RESULT:      -7.3      0.000      0.000
  Name = 
  5 active torsions:
  status: ('A' for Active; 'I' for Inactive)
    1  A    between atoms: C_1  and  N_19
    2  A    between atoms: C_6  and  C_8
    3  A    between atoms: C_9  and  O_17
    4  A    between atoms: O_17  and  C_20
    5  A    between atoms: N_19  and  C_23
                            x       y       z     vdW  Elec       q    Type
                         _______ _______ _______ _____ _____    ______ ____

>  <TORSDO>
F 5

$$$$
=
 OpenBabel11042417473D

 25 28  0  0  1  0  0  0  0  0999 V2000
  188.1210  177.8750  145.2040 C   0  0  2  0  0  3  0  0  0  0  0  0
  189.0430  175.5840  146.9330 C   0  0  0  0  0  2  0  0  0  0  0  0
  187.5890  176.0700  146.9220 C   0  0  0  0  0  2  0  0  0  0  0  0
  189.0950  176.8020  144.6750 C   0  0  1  0  0  3  0  0  0  0  0  0
  189.9150  176.2230  145.8390 C   0  0  2  0  0  3  0  0  0  0  0  0
  188.3900  175.6960  143.8890 C   0  0  0  0  0  1  0  0  0  0  0  0
  187.5010  177.5540  146.5770 C   0  0  0  0  0  2  0  0  0  0  0  0
  190.8830  175.2880  145.3760 O   0  0  0  0  0  0  0  0  0  0  0  0
  196.0390  176.5630  143.8880 N   0  0  0  0  0  0  0  0  0  0  0  0
  191.7730  175.1750  142.4800 C   0  0  0  0  0  1  0  0  0  0  0  0
  194.8240  176.2820  144.3820 C   0  0  0  0  0  0  0  0  0  0  0  0
  194.4100  176.3820  145.7050 C   0  0  0  0  0  3  0  0  0  0  0  0
  196.9220  176.4740  141.6200 N   0  0  0  0  0  1  0  0  0  0  0  0
  193.9860  175.8820  143.3870 C   0  0  0  0  0  0  0  0  0  0  0  0
  193.0780  176.0410  145.9920 C   0  0  0  0  0  3  0  0  0  0  0  0
  194.6310  175.8930  142.2090 N   0  0  0  0  0  2  0  0  0  0  0  0
  192.1910  175.6100  144.9790 C   0  0  0  0  0  0  0  0  0  0  0  0
  195.8730  176.3100  142.5660 C   0  0  0  0  0  0  0  0  0  0  0  0
  192.6530  175.5390  143.6300 C   0  0  0  0  0  0  0  0  0  0  0  0
  187.0870  178.1970  144.2300 N   0  0  0  0  0  2  0  0  0  0  0  0
  185.3750  179.9160  144.1180 C   0  0  0  0  0  2  0  0  0  0  0  0
  184.6300  178.6070  144.2630 C   0  0  2  0  0  3  0  0  0  0  0  0
  185.9820  178.8070  144.9570 C   0  0  1  0  0  3  0  0  0  0  0  0
  184.6980  177.8370  142.9500 C   0  0  0  0  0  2  0  0  0  0  0  0
  183.5680  178.1200  142.1840 O   0  0  0  0  0  1  0  0  0  0  0  0
  1 20  1  6  0  0  0
  1  7  1  0  0  0  0
  3  2  1  0  0  0  0
  4  6  1  1  0  0  0
  4  1  1  0  0  0  0
  4  5  1  0  0  0  0
  5  8  1  6  0  0  0
  5  2  1  0  0  0  0
  7  3  1  0  0  0  0
  9 11  1  0  0  0  0
 10 19  1  0  0  0  0
 11 12  1  0  0  0  0
 12 15  2  0  0  0  0
 13 18  1  0  0  0  0
 14 19  1  0  0  0  0
 14 11  2  0  0  0  0
 16 18  1  0  0  0  0
 16 14  1  0  0  0  0
 17  8  1  0  0  0  0
 17 15  1  0  0  0  0
 18  9  2  0  0  0  0
 19 17  2  0  0  0  0
 21 22  1  0  0  0  0
 21 23  1  0  0  0  0
 22 24  1  6  0  0  0
 22 23  1  0  0  0  0
 23 20  1  6  0  0  0
 25 24  1  0  0  0  0
M  END
>  <MODEL>
2

>  <REMARK>
 VINA RESULT:      -6.9      2.817      8.661
  Name = 
  5 active torsions:
  status: ('A' for Active; 'I' for Inactive)
    1  A    between atoms: C_1  and  N_19
    2  A    between atoms: C_6  and  C_8
    3  A    between atoms: C_9  and  O_17
    4  A    between atoms: O_17  and  C_20
    5  A    between atoms: N_19  and  C_23
                            x       y       z     vdW  Elec       q    Type
                         _______ _______ _______ _____ _____    ______ ____

>  <TORSDO>
F 5

$$$$
=
 OpenBabel11042417473D

 25 28  0  0  1  0  0  0  0  0999 V2000
  186.3290  178.6910  144.6860 C   0  0  2  0  0  3  0  0  0  0  0  0
  186.4060  178.0850  147.6390 C   0  0  0  0  0  2  0  0  0  0  0  0
  185.1980  178.7490  146.9690 C   0  0  0  0  0  2  0  0  0  0  0  0
  186.9000  177.3630  145.2270 C   0  0  1  0  0  3  0  0  0  0  0  0
  187.4600  177.5730  146.6420 C   0  0  2  0  0  3  0  0  0  0  0  0
  185.8800  176.2230  145.1980 C   0  0  0  0  0  1  0  0  0  0  0  0
  185.6150  179.5550  145.7410 C   0  0  0  0  0  2  0  0  0  0  0  0
  188.0690  176.3880  147.1410 O   0  0  0  0  0  0  0  0  0  0  0  0
  192.9390  174.3860  145.4990 N   0  0  0  0  0  0  0  0  0  0  0  0
  190.6830  177.6020  148.0830 C   0  0  0  0  0  1  0  0  0  0  0  0
  191.6960  174.7710  145.8200 C   0  0  0  0  0  0  0  0  0  0  0  0
  190.5020  174.1810  145.4220 C   0  0  0  0  0  3  0  0  0  0  0  0
  195.1190  175.2750  146.1210 N   0  0  0  0  0  1  0  0  0  0  0  0
  191.7300  175.8580  146.6400 C   0  0  0  0  0  0  0  0  0  0  0  0
  189.3100  174.7550  145.8920 C   0  0  0  0  0  3  0  0  0  0  0  0
  193.0030  176.2120  146.8810 N   0  0  0  0  0  2  0  0  0  0  0  0
  189.3180  175.8910  146.7340 C   0  0  0  0  0  0  0  0  0  0  0  0
  193.6980  175.2910  146.1650 C   0  0  0  0  0  0  0  0  0  0  0  0
  190.5670  176.4550  147.1330 C   0  0  0  0  0  0  0  0  0  0  0  0
  185.4780  178.4810  143.5230 N   0  0  0  0  0  2  0  0  0  0  0  0
  186.4500  177.2560  141.6640 C   0  0  0  0  0  2  0  0  0  0  0  0
  185.5700  178.3160  141.0380 C   0  0  2  0  0  3  0  0  0  0  0  0
  186.3230  178.6070  142.3420 C   0  0  1  0  0  3  0  0  0  0  0  0
  184.1070  177.9340  141.2210 C   0  0  0  0  0  2  0  0  0  0  0  0
  183.3180  178.6710  140.3390 O   0  0  0  0  0  1  0  0  0  0  0  0
  1 20  1  6  0  0  0
  1  4  1  0  0  0  0
  1  7  1  0  0  0  0
  3  2  1  0  0  0  0
  4  6  1  1  0  0  0
  4  5  1  0  0  0  0
  5  8  1  1  0  0  0
  5  2  1  0  0  0  0
  7  3  1  0  0  0  0
  9 11  1  0  0  0  0
  9 18  2  0  0  0  0
 11 14  1  0  0  0  0
 12 11  2  0  0  0  0
 12 15  1  0  0  0  0
 13 18  1  0  0  0  0
 14 16  1  0  0  0  0
 14 19  2  0  0  0  0
 15 17  2  0  0  0  0
 17 19  1  0  0  0  0
 17  8  1  0  0  0  0
 18 16  1  0  0  0  0
 19 10  1  0  0  0  0
 21 23  1  0  0  0  0
 22 24  1  1  0  0  0
 22 21  1  0  0  0  0
 22 23  1  0  0  0  0
 23 20  1  1  0  0  0
 25 24  1  0  0  0  0
M  END
>  <MODEL>
3

>  <REMARK>
 VINA RESULT:      -6.7      2.404      8.326
  Name = 
  5 active torsions:
  status: ('A' for Active; 'I' for Inactive)
    1  A    between atoms: C_1  and  N_19
    2  A    between atoms: C_6  and  C_8
    3  A    between atoms: C_9  and  O_17
    4  A    between atoms: O_17  and  C_20
    5  A    between atoms: N_19  and  C_23
                            x       y       z     vdW  Elec       q    Type
                         _______ _______ _______ _____ _____    ______ ____

>  <TORSDO>
F 5

$$$$
=
 OpenBabel11042417473D

 25 28  0  0  1  0  0  0  0  0999 V2000
  188.6810  177.0400  146.6280 C   0  0  2  0  0  3  0  0  0  0  0  0
  190.7970  175.0780  145.7530 C   0  0  0  0  0  2  0  0  0  0  0  0
  189.3110  174.7050  145.8260 C   0  0  0  0  0  2  0  0  0  0  0  0
  189.8330  177.4550  145.6880 C   0  0  1  0  0  3  0  0  0  0  0  0
  191.0660  176.5790  145.9570 C   0  0  2  0  0  3  0  0  0  0  0  0
  189.4370  177.4180  144.2120 C   0  0  0  0  0  1  0  0  0  0  0  0
  188.5820  175.5260  146.8860 C   0  0  0  0  0  2  0  0  0  0  0  0
  192.1760  176.9880  145.1650 O   0  0  0  0  0  0  0  0  0  0  0  0
  196.8070  174.0630  144.5160 N   0  0  0  0  0  0  0  0  0  0  0  0
  193.1570  176.1580  142.4190 C   0  0  0  0  0  1  0  0  0  0  0  0
  195.7070  174.7710  144.8130 C   0  0  0  0  0  0  0  0  0  0  0  0
  195.2880  175.1880  146.0700 C   0  0  0  0  0  3  0  0  0  0  0  0
  197.7000  173.2770  142.3920 N   0  0  0  0  0  1  0  0  0  0  0  0
  195.0130  175.0690  143.6800 C   0  0  0  0  0  0  0  0  0  0  0  0
  194.0990  175.9330  146.1400 C   0  0  0  0  0  3  0  0  0  0  0  0
  195.6440  174.5640  142.6070 N   0  0  0  0  0  2  0  0  0  0  0  0
  193.3530  176.2450  144.9800 C   0  0  0  0  0  0  0  0  0  0  0  0
  196.7240  173.9610  143.1670 C   0  0  0  0  0  0  0  0  0  0  0  0
  193.8290  175.8110  143.7060 C   0  0  0  0  0  0  0  0  0  0  0  0
  187.4010  177.5780  146.1860 N   0  0  0  0  0  2  0  0  0  0  0  0
  185.4680  178.1520  147.5380 C   0  0  0  0  0  2  0  0  0  0  0  0
  184.9610  177.1790  146.4950 C   0  0  2  0  0  3  0  0  0  0  0  0
  186.3770  177.0330  147.0670 C   0  0  1  0  0  3  0  0  0  0  0  0
  184.8920  177.8770  145.1420 C   0  0  0  0  0  2  0  0  0  0  0  0
  183.9950  178.9420  145.2130 O   0  0  0  0  0  1  0  0  0  0  0  0
  1 20  1  6  0  0  0
  1  7  1  0  0  0  0
  2  3  1  0  0  0  0
  2  5  1  0  0  0  0
  3  7  1  0  0  0  0
  4  6  1  6  0  0  0
  4  5  1  0  0  0  0
  4  1  1  0  0  0  0
  5  8  1  6  0  0  0
  9 11  1  0  0  0  0
 10 19  1  0  0  0  0
 11 12  1  0  0  0  0
 12 15  2  0  0  0  0
 13 18  1  0  0  0  0
 14 19  1  0  0  0  0
 14 11  2  0  0  0  0
 16 18  1  0  0  0  0
 16 14  1  0  0  0  0
 17  8  1  0  0  0  0
 17 15  1  0  0  0  0
 18  9  2  0  0  0  0
 19 17  2  0  0  0  0
 22 24  1  6  0  0  0
 22 23  1  0  0  0  0
 22 21  1  0  0  0  0
 23 20  1  6  0  0  0
 23 21  1  0  0  0  0
 24 25  1  0  0  0  0
M  END
>  <MODEL>
4

>  <REMARK>
 VINA RESULT:      -6.7      3.524      9.150
  Name = 
  5 active torsions:
  status: ('A' for Active; 'I' for Inactive)
    1  A    between atoms: C_1  and  N_19
    2  A    between atoms: C_6  and  C_8
    3  A    between atoms: C_9  and  O_17
    4  A    between atoms: O_17  and  C_20
    5  A    between atoms: N_19  and  C_23
                            x       y       z     vdW  Elec       q    Type
                         _______ _______ _______ _____ _____    ______ ____

>  <TORSDO>
F 5

$$$$
=
 OpenBabel11042417473D

 25 28  0  0  1  0  0  0  0  0999 V2000
  190.1560  174.7720  145.7650 C   0  0  2  0  0  3  0  0  0  0  0  0
  189.6890  177.5420  146.8620 C   0  0  0  0  0  2  0  0  0  0  0  0
  190.8650  176.6670  147.3140 C   0  0  0  0  0  2  0  0  0  0  0  0
  189.7330  175.9440  144.8540 C   0  0  1  0  0  3  0  0  0  0  0  0
  188.9170  176.9650  145.6630 C   0  0  2  0  0  3  0  0  0  0  0  0
  190.9190  176.6110  144.1550 C   0  0  0  0  0  1  0  0  0  0  0  0
  190.5290  175.1820  147.2010 C   0  0  0  0  0  2  0  0  0  0  0  0
  188.4400  178.0200  144.8350 O   0  0  0  0  0  0  0  0  0  0  0  0
  183.3340  178.3410  142.7750 N   0  0  0  0  0  0  0  0  0  0  0  0
  187.9200  177.8660  141.8520 C   0  0  0  0  0  1  0  0  0  0  0  0
  184.5160  178.2750  143.4040 C   0  0  0  0  0  0  0  0  0  0  0  0
  184.7440  178.2990  144.7740 C   0  0  0  0  0  3  0  0  0  0  0  0
  182.7540  178.2850  140.4110 N   0  0  0  0  0  1  0  0  0  0  0  0
  185.5300  178.1590  142.5020 C   0  0  0  0  0  0  0  0  0  0  0  0
  186.0760  178.2080  145.2100 C   0  0  0  0  0  3  0  0  0  0  0  0
  185.0340  178.1420  141.2540 N   0  0  0  0  0  2  0  0  0  0  0  0
  187.1470  178.0990  144.2930 C   0  0  0  0  0  0  0  0  0  0  0  0
  183.7000  178.2580  141.4720 C   0  0  0  0  0  0  0  0  0  0  0  0
  186.8680  178.0600  142.8940 C   0  0  0  0  0  0  0  0  0  0  0  0
  191.2110  173.9710  145.1610 N   0  0  0  0  0  2  0  0  0  0  0  0
  191.1330  172.7250  143.0770 C   0  0  0  0  0  2  0  0  0  0  0  0
  191.5480  171.7250  144.1350 C   0  0  2  0  0  3  0  0  0  0  0  0
  190.5690  172.8540  144.4790 C   0  0  1  0  0  3  0  0  0  0  0  0
  192.9920  171.9890  144.5450 C   0  0  0  0  0  2  0  0  0  0  0  0
  193.5960  170.7910  144.9220 O   0  0  0  0  0  1  0  0  0  0  0  0
  1 20  1  6  0  0  0
  1  7  1  0  0  0  0
  2  3  1  0  0  0  0
  4  6  1  1  0  0  0
  4  5  1  0  0  0  0
  4  1  1  0  0  0  0
  5  8  1  6  0  0  0
  5  2  1  0  0  0  0
  7  3  1  0  0  0  0
  9 11  1  0  0  0  0
 10 19  1  0  0  0  0
 11 12  1  0  0  0  0
 12 15  2  0  0  0  0
 13 18  1  0  0  0  0
 14 19  1  0  0  0  0
 14 11  2  0  0  0  0
 16 18  1  0  0  0  0
 16 14  1  0  0  0  0
 17  8  1  0  0  0  0
 17 15  1  0  0  0  0
 18  9  2  0  0  0  0
 19 17  2  0  0  0  0
 21 22  1  0  0  0  0
 21 23  1  0  0  0  0
 22 23  1  0  0  0  0
 22 24  1  1  0  0  0
 23 20  1  1  0  0  0
 24 25  1  0  0  0  0
M  END
>  <MODEL>
5

>  <REMARK>
 VINA RESULT:      -6.6      2.127      2.946
  Name = 
  5 active torsions:
  status: ('A' for Active; 'I' for Inactive)
    1  A    between atoms: C_1  and  N_19
    2  A    between atoms: C_6  and  C_8
    3  A    between atoms: C_9  and  O_17
    4  A    between atoms: O_17  and  C_20
    5  A    between atoms: N_19  and  C_23
                            x       y       z     vdW  Elec       q    Type
                         _______ _______ _______ _____ _____    ______ ____

>  <TORSDO>
F 5

$$$$
=
 OpenBabel11042417473D

 25 28  0  0  1  0  0  0  0  0999 V2000
  187.6970  176.8710  145.2790 C   0  0  2  0  0  3  0  0  0  0  0  0
  190.5100  176.3290  144.3400 C   0  0  0  0  0  2  0  0  0  0  0  0
  189.7260  177.5730  143.9080 C   0  0  0  0  0  2  0  0  0  0  0  0
  188.7810  176.3320  146.2360 C   0  0  1  0  0  3  0  0  0  0  0  0
  189.8150  175.5160  145.4460 C   0  0  2  0  0  3  0  0  0  0  0  0
  189.4540  177.4370  147.0530 C   0  0  0  0  0  1  0  0  0  0  0  0
  188.2230  177.3100  143.9010 C   0  0  0  0  0  2  0  0  0  0  0  0
  190.7870  174.9340  146.3090 O   0  0  0  0  0  0  0  0  0  0  0  0
  196.2290  174.9160  145.4130 N   0  0  0  0  0  0  0  0  0  0  0  0
  192.1120  172.7820  144.6350 C   0  0  0  0  0  1  0  0  0  0  0  0
  194.9260  175.0390  145.7060 C   0  0  0  0  0  0  0  0  0  0  0  0
  194.3180  176.0540  146.4340 C   0  0  0  0  0  3  0  0  0  0  0  0
  197.4490  173.2370  144.1390 N   0  0  0  0  0  1  0  0  0  0  0  0
  194.2170  174.0090  145.1650 C   0  0  0  0  0  0  0  0  0  0  0  0
  192.9270  175.9800  146.6090 C   0  0  0  0  0  3  0  0  0  0  0  0
  195.0410  173.1830  144.5000 N   0  0  0  0  0  2  0  0  0  0  0  0
  192.1700  174.9150  146.0690 C   0  0  0  0  0  0  0  0  0  0  0  0
  196.2490  173.7740  144.6810 C   0  0  0  0  0  0  0  0  0  0  0  0
  192.8320  173.9010  145.3120 C   0  0  0  0  0  0  0  0  0  0  0  0
  186.9070  177.9280  145.8960 N   0  0  0  0  0  2  0  0  0  0  0  0
  185.1580  178.2890  147.5420 C   0  0  0  0  0  2  0  0  0  0  0  0
  184.4430  177.8980  146.2670 C   0  0  2  0  0  3  0  0  0  0  0  0
  185.8080  177.2880  146.6060 C   0  0  1  0  0  3  0  0  0  0  0  0
  184.4940  179.0590  145.2810 C   0  0  0  0  0  2  0  0  0  0  0  0
  184.0530  178.6290  144.0300 O   0  0  0  0  0  1  0  0  0  0  0  0
  1 20  1  1  0  0  0
  1  4  1  0  0  0  0
  2  5  1  0  0  0  0
  3  2  1  0  0  0  0
  4  6  1  6  0  0  0
  5  4  1  0  0  0  0
  5  8  1  1  0  0  0
  7  3  1  0  0  0  0
  7  1  1  0  0  0  0
  9 11  1  0  0  0  0
 10 19  1  0  0  0  0
 11 12  1  0  0  0  0
 12 15  2  0  0  0  0
 13 18  1  0  0  0  0
 14 19  1  0  0  0  0
 14 11  2  0  0  0  0
 16 18  1  0  0  0  0
 16 14  1  0  0  0  0
 17  8  1  0  0  0  0
 17 15  1  0  0  0  0
 18  9  2  0  0  0  0
 19 17  2  0  0  0  0
 22 24  1  6  0  0  0
 22 23  1  0  0  0  0
 22 21  1  0  0  0  0
 23 20  1  6  0  0  0
 23 21  1  0  0  0  0
 25 24  1  0  0  0  0
M  END
>  <MODEL>
6

>  <REMARK>
 VINA RESULT:      -6.6      3.318      9.172
  Name = 
  5 active torsions:
  status: ('A' for Active; 'I' for Inactive)
    1  A    between atoms: C_1  and  N_19
    2  A    between atoms: C_6  and  C_8
    3  A    between atoms: C_9  and  O_17
    4  A    between atoms: O_17  and  C_20
    5  A    between atoms: N_19  and  C_23
                            x       y       z     vdW  Elec       q    Type
                         _______ _______ _______ _____ _____    ______ ____

>  <TORSDO>
F 5

$$$$
=
 OpenBabel11042417473D

 25 28  0  0  1  0  0  0  0  0999 V2000
  187.6720  176.9390  145.3080 C   0  0  2  0  0  3  0  0  0  0  0  0
  190.4370  176.4200  144.2240 C   0  0  0  0  0  2  0  0  0  0  0  0
  189.6430  177.6850  143.8770 C   0  0  0  0  0  2  0  0  0  0  0  0
  188.7940  176.3570  146.1940 C   0  0  1  0  0  3  0  0  0  0  0  0
  189.7860  175.5670  145.3270 C   0  0  2  0  0  3  0  0  0  0  0  0
  189.5090  177.4250  147.0220 C   0  0  0  0  0  1  0  0  0  0  0  0
  188.1390  177.4300  143.9260 C   0  0  0  0  0  2  0  0  0  0  0  0
  190.7900  174.9470  146.1210 O   0  0  0  0  0  0  0  0  0  0  0  0
  195.6760  173.2210  144.2320 N   0  0  0  0  0  0  0  0  0  0  0  0
  193.3580  176.4160  146.7870 C   0  0  0  0  0  1  0  0  0  0  0  0
  194.4320  173.5300  144.6240 C   0  0  0  0  0  0  0  0  0  0  0  0
  193.2650  172.8260  144.3550 C   0  0  0  0  0  3  0  0  0  0  0  0
  197.8160  174.3130  144.6310 N   0  0  0  0  0  1  0  0  0  0  0  0
  194.4370  174.6670  145.3740 C   0  0  0  0  0  0  0  0  0  0  0  0
  192.0660  173.3360  144.8800 C   0  0  0  0  0  3  0  0  0  0  0  0
  195.6910  175.1320  145.4950 N   0  0  0  0  0  2  0  0  0  0  0  0
  192.0430  174.5210  145.6510 C   0  0  0  0  0  0  0  0  0  0  0  0
  196.4050  174.2230  144.7830 C   0  0  0  0  0  0  0  0  0  0  0  0
  193.2670  175.2050  145.9180 C   0  0  0  0  0  0  0  0  0  0  0  0
  186.9170  177.9740  146.0000 N   0  0  0  0  0  2  0  0  0  0  0  0
  185.0970  178.3190  147.5720 C   0  0  0  0  0  2  0  0  0  0  0  0
  184.4420  177.8940  146.2760 C   0  0  2  0  0  3  0  0  0  0  0  0
  185.8050  177.3190  146.6770 C   0  0  1  0  0  3  0  0  0  0  0  0
  184.5060  179.0420  145.2750 C   0  0  0  0  0  2  0  0  0  0  0  0
  184.0710  178.5980  144.0270 O   0  0  0  0  0  1  0  0  0  0  0  0
  1 20  1  1  0  0  0
  1  4  1  0  0  0  0
  2  5  1  0  0  0  0
  3  7  1  0  0  0  0
  3  2  1  0  0  0  0
  4  6  1  6  0  0  0
  5  8  1  1  0  0  0
  5  4  1  0  0  0  0
  7  1  1  0  0  0  0
  9 11  1  0  0  0  0
  9 18  2  0  0  0  0
 11 14  1  0  0  0  0
 12 11  2  0  0  0  0
 12 15  1  0  0  0  0
 13 18  1  0  0  0  0
 14 16  1  0  0  0  0
 14 19  2  0  0  0  0
 15 17  2  0  0  0  0
 17 19  1  0  0  0  0
 17  8  1  0  0  0  0
 18 16  1  0  0  0  0
 19 10  1  0  0  0  0
 22 24  1  6  0  0  0
 22 23  1  0  0  0  0
 22 21  1  0  0  0  0
 23 20  1  6  0  0  0
 23 21  1  0  0  0  0
 25 24  1  0  0  0  0
M  END
>  <MODEL>
7

>  <REMARK>
 VINA RESULT:      -6.6      3.342      9.112
  Name = 
  5 active torsions:
  status: ('A' for Active; 'I' for Inactive)
    1  A    between atoms: C_1  and  N_19
    2  A    between atoms: C_6  and  C_8
    3  A    between atoms: C_9  and  O_17
    4  A    between atoms: O_17  and  C_20
    5  A    between atoms: N_19  and  C_23
                            x       y       z     vdW  Elec       q    Type
                         _______ _______ _______ _____ _____    ______ ____

>  <TORSDO>
F 5

$$$$
=
 OpenBabel11042417473D

 25 28  0  0  1  0  0  0  0  0999 V2000
  191.6060  175.7410  143.7970 C   0  0  2  0  0  3  0  0  0  0  0  0
  188.6680  175.5080  143.1650 C   0  0  0  0  0  2  0  0  0  0  0  0
  189.4150  174.4570  143.9940 C   0  0  0  0  0  2  0  0  0  0  0  0
  190.6640  176.9620  143.8610 C   0  0  1  0  0  3  0  0  0  0  0  0
  189.4970  176.7720  142.8790 C   0  0  2  0  0  3  0  0  0  0  0  0
  190.1580  177.2480  145.2750 C   0  0  0  0  0  1  0  0  0  0  0  0
  190.8910  174.3910  143.6110 C   0  0  0  0  0  2  0  0  0  0  0  0
  188.6520  177.9160  142.8510 O   0  0  0  0  0  0  0  0  0  0  0  0
  183.6950  178.0920  140.4380 N   0  0  0  0  0  0  0  0  0  0  0  0
  186.1250  178.4190  144.4500 C   0  0  0  0  0  1  0  0  0  0  0  0
  184.9540  178.0260  140.8960 C   0  0  0  0  0  0  0  0  0  0  0  0
  186.1120  177.8420  140.1510 C   0  0  0  0  0  3  0  0  0  0  0  0
  181.5730  178.4340  141.5830 N   0  0  0  0  0  1  0  0  0  0  0  0
  184.9780  178.1860  142.2480 C   0  0  0  0  0  0  0  0  0  0  0  0
  187.3310  177.8150  140.8490 C   0  0  0  0  0  3  0  0  0  0  0  0
  183.7300  178.3640  142.7120 N   0  0  0  0  0  2  0  0  0  0  0  0
  187.3820  177.9660  142.2530 C   0  0  0  0  0  0  0  0  0  0  0  0
  182.9890  178.2960  141.5770 C   0  0  0  0  0  0  0  0  0  0  0  0
  186.1690  178.1700  142.9780 C   0  0  0  0  0  0  0  0  0  0  0  0
  192.5130  175.6970  144.9360 N   0  0  0  0  0  2  0  0  0  0  0  0
  194.3400  176.9690  145.9070 C   0  0  0  0  0  2  0  0  0  0  0  0
  194.9920  175.9410  145.0070 C   0  0  2  0  0  3  0  0  0  0  0  0
  193.6430  176.5610  144.6230 C   0  0  1  0  0  3  0  0  0  0  0  0
  194.8960  174.5650  145.6560 C   0  0  0  0  0  2  0  0  0  0  0  0
  195.6620  173.6540  144.9300 O   0  0  0  0  0  1  0  0  0  0  0  0
  1  4  1  0  0  0  0
  1 20  1  1  0  0  0
  2  3  1  0  0  0  0
  4  6  1  1  0  0  0
  5  8  1  1  0  0  0
  5  2  1  0  0  0  0
  5  4  1  0  0  0  0
  7  1  1  0  0  0  0
  7  3  1  0  0  0  0
  9 11  1  0  0  0  0
  9 18  2  0  0  0  0
 11 14  1  0  0  0  0
 12 15  1  0  0  0  0
 12 11  2  0  0  0  0
 14 16  1  0  0  0  0
 14 19  2  0  0  0  0
 15 17  2  0  0  0  0
 17  8  1  0  0  0  0
 17 19  1  0  0  0  0
 18 13  1  0  0  0  0
 18 16  1  0  0  0  0
 19 10  1  0  0  0  0
 22 24  1  1  0  0  0
 22 21  1  0  0  0  0
 23 20  1  1  0  0  0
 23 22  1  0  0  0  0
 23 21  1  0  0  0  0
 25 24  1  0  0  0  0
M  END
>  <MODEL>
8

>  <REMARK>
 VINA RESULT:      -6.5      1.677      2.036
  Name = 
  5 active torsions:
  status: ('A' for Active; 'I' for Inactive)
    1  A    between atoms: C_1  and  N_19
    2  A    between atoms: C_6  and  C_8
    3  A    between atoms: C_9  and  O_17
    4  A    between atoms: O_17  and  C_20
    5  A    between atoms: N_19  and  C_23
                            x       y       z     vdW  Elec       q    Type
                         _______ _______ _______ _____ _____    ______ ____

>  <TORSDO>
F 5

$$$$
=
 OpenBabel11042417473D

 25 28  0  0  1  0  0  0  0  0999 V2000
  194.3700  174.6000  144.7040 C   0  0  2  0  0  3  0  0  0  0  0  0
  192.1120  176.2020  145.8970 C   0  0  0  0  0  2  0  0  0  0  0  0
  193.5140  176.7870  145.6920 C   0  0  0  0  0  2  0  0  0  0  0  0
  192.9370  174.5290  144.1350 C   0  0  1  0  0  3  0  0  0  0  0  0
  191.9190  174.8210  145.2490 C   0  0  2  0  0  3  0  0  0  0  0  0
  192.7280  175.4550  142.9370 C   0  0  0  0  0  1  0  0  0  0  0  0
  194.5860  175.7020  145.7570 C   0  0  0  0  0  2  0  0  0  0  0  0
  190.5830  174.6830  144.7790 O   0  0  0  0  0  0  0  0  0  0  0  0
  186.5330  178.3370  145.5970 N   0  0  0  0  0  0  0  0  0  0  0  0
  188.9430  174.6900  147.3290 C   0  0  0  0  0  1  0  0  0  0  0  0
  187.5390  177.5120  145.2740 C   0  0  0  0  0  0  0  0  0  0  0  0
  188.3180  177.5440  144.1240 C   0  0  0  0  0  3  0  0  0  0  0  0
  185.0960  178.4430  147.5600 N   0  0  0  0  0  1  0  0  0  0  0  0
  187.7390  176.5940  146.2600 C   0  0  0  0  0  0  0  0  0  0  0  0
  189.3300  176.5780  144.0020 C   0  0  0  0  0  3  0  0  0  0  0  0
  186.8660  176.7980  147.2610 N   0  0  0  0  0  2  0  0  0  0  0  0
  189.5500  175.6070  145.0050 C   0  0  0  0  0  0  0  0  0  0  0  0
  186.1560  177.8630  146.8110 C   0  0  0  0  0  0  0  0  0  0  0  0
  188.7370  175.6200  146.1790 C   0  0  0  0  0  0  0  0  0  0  0  0
  195.3690  174.6880  143.6470 N   0  0  0  0  0  2  0  0  0  0  0  0
  197.6790  175.3460  143.2910 C   0  0  0  0  0  2  0  0  0  0  0  0
  196.8610  176.6050  143.0960 C   0  0  2  0  0  3  0  0  0  0  0  0
  196.4340  175.5570  144.1300 C   0  0  1  0  0  3  0  0  0  0  0  0
  196.1180  176.5260  141.7680 C   0  0  0  0  0  2  0  0  0  0  0  0
  196.9790  176.0520  140.7790 O   0  0  0  0  0  1  0  0  0  0  0  0
  1 20  1  6  0  0  0
  1  7  1  0  0  0  0
  3  7  1  0  0  0  0
  3  2  1  0  0  0  0
  4  6  1  6  0  0  0
  4  1  1  0  0  0  0
  4  5  1  0  0  0  0
  5  8  1  6  0  0  0
  5  2  1  0  0  0  0
  8 17  1  0  0  0  0
  9 18  2  0  0  0  0
 11  9  1  0  0  0  0
 11 14  1  0  0  0  0
 12 11  2  0  0  0  0
 14 16  1  0  0  0  0
 15 12  1  0  0  0  0
 15 17  2  0  0  0  0
 17 19  1  0  0  0  0
 18 16  1  0  0  0  0
 18 13  1  0  0  0  0
 19 14  2  0  0  0  0
 19 10  1  0  0  0  0
 21 23  1  0  0  0  0
 22 24  1  6  0  0  0
 22 21  1  0  0  0  0
 22 23  1  0  0  0  0
 23 20  1  6  0  0  0
 25 24  1  0  0  0  0
M  END
>  <MODEL>
9

>  <REMARK>
 VINA RESULT:      -6.5      3.620      5.252
  Name = 
  5 active torsions:
  status: ('A' for Active; 'I' for Inactive)
    1  A    between atoms: C_1  and  N_19
    2  A    between atoms: C_6  and  C_8
    3  A    between atoms: C_9  and  O_17
    4  A    between atoms: O_17  and  C_20
    5  A    between atoms: N_19  and  C_23
                            x       y       z     vdW  Elec       q    Type
                         _______ _______ _______ _____ _____    ______ ____

>  <TORSDO>
F 5

$$$$
