=
 OpenBabel11042418083D

 40 46  0  0  1  0  0  0  0  0999 V2000
  189.8200  173.8820  143.8100 C   0  0  0  0  0  2  0  0  0  0  0  0
  189.7020  173.5370  141.3690 C   0  0  1  0  0  3  0  0  0  0  0  0
  189.0480  174.8890  141.2500 C   0  0  0  0  0  3  0  0  0  0  0  0
  188.9360  175.1310  143.7320 C   0  0  2  0  0  3  0  0  0  0  0  0
  188.7910  175.6720  142.3160 C   0  0  0  0  0  0  0  0  0  0  0  0
  189.4280  172.8950  142.7230 C   0  0  0  0  0  2  0  0  0  0  0  0
  186.5250  177.9220  140.5650 C   0  0  0  0  0  2  0  0  0  0  0  0
  185.4200  178.4810  145.3080 C   0  0  0  0  0  2  0  0  0  0  0  0
  184.3130  177.9720  141.8550 C   0  0  1  0  0  3  0  0  0  0  0  0
  185.0240  178.2110  140.5140 C   0  0  0  0  0  2  0  0  0  0  0  0
  184.3820  178.2750  144.3130 N   0  0  0  0  0  2  0  0  0  0  0  0
  186.8020  176.7250  141.3610 N   0  0  1  0  0  0  0  0  0  0  0  0
  186.7390  178.5700  144.5680 C   0  0  0  0  0  2  0  0  0  0  0  0
  185.0080  178.6520  143.0550 C   0  0  1  0  0  3  0  0  0  0  0  0
  186.4540  178.3990  143.1530 N   0  0  2  0  0  0  0  0  0  0  0  0
  188.0650  176.9700  142.0810 C   0  0  1  0  0  3  0  0  0  0  0  0
  186.7980  177.0030  142.8230 C   0  0  2  0  0  3  0  0  0  0  0  0
  182.8670  178.3620  141.7590 C   0  0  0  0  0  3  0  0  0  0  0  0
  182.1010  177.9930  140.7300 C   0  0  0  0  0  3  0  0  0  0  0  0
  180.6720  178.4110  140.6650 C   0  0  0  0  0  2  0  0  0  0  0  0
  180.5850  179.8070  140.6770 O   0  0  0  0  0  0  0  0  0  0  0  0
  178.0580  180.3590  141.1500 O   0  0  0  0  0  1  0  0  0  0  0  0
  178.5590  178.8990  139.0430 O   0  0  0  0  0  0  0  0  0  0  0  0
  179.0600  180.1740  140.0340 P   0  0  0  0  0  0  0  0  0  0  0  0
  179.1450  181.5920  139.1120 O   0  0  0  0  0  1  0  0  0  0  0  0
  189.8090  171.5530  140.0840 O   0  0  0  0  0  0  0  0  0  0  0  0
  188.1830  173.0730  139.3360 C   0  0  0  0  0  1  0  0  0  0  0  0
  189.2740  172.6380  140.2520 C   0  0  0  0  0  0  0  0  0  0  0  0
  189.4340  176.1110  144.5980 O   0  0  0  0  0  0  0  0  0  0  0  0
  190.4810  175.4910  145.2950 C   0  0  2  0  0  3  0  0  0  0  0  0
  190.0300  175.1000  146.6910 C   0  0  0  0  0  1  0  0  0  0  0  0
  193.5420  176.6380  146.8740 C   0  0  0  0  0  2  0  0  0  0  0  0
  195.2470  175.5500  145.5310 O   0  0  0  0  0  0  0  0  0  0  0  0
  192.2630  176.7370  144.0060 C   0  0  0  0  0  0  0  0  0  0  0  0
  191.6270  177.3530  143.1090 O   0  0  0  0  0  0  0  0  0  0  0  0
  194.6640  176.7720  145.8700 C   0  0  1  0  0  3  0  0  0  0  0  0
  192.8160  175.6860  146.0540 N   0  0  2  0  0  0  0  0  0  0  0  0
  193.9180  175.7260  145.0880 C   0  0  2  0  0  0  0  0  0  0  0  0
  193.5780  176.3550  143.8720 O   0  0  0  0  0  0  0  0  0  0  0  0
  191.7190  176.3900  145.3610 C   0  0  2  0  0  3  0  0  0  0  0  0
  2 28  1  6  0  0  0
  2  6  1  0  0  0  0
  3  2  1  0  0  0  0
  3  5  2  0  0  0  0
  4  1  1  0  0  0  0
  4 29  1  1  0  0  0
  5  4  1  0  0  0  0
  6  1  1  0  0  0  0
  9 18  1  6  0  0  0
  9 14  1  0  0  0  0
 10  7  1  0  0  0  0
 10  9  1  0  0  0  0
 11  8  1  0  0  0  0
 12  7  1  6  0  0  0
 12 16  1  0  0  0  0
 12 17  1  0  0  0  0
 13  8  1  0  0  0  0
 14 15  1  0  0  0  0
 14 11  1  1  0  0  0
 15 13  1  1  0  0  0
 16  5  1  1  0  0  0
 16 17  1  0  0  0  0
 17 15  1  0  0  0  0
 19 18  2  0  0  0  0
 20 21  1  0  0  0  0
 20 19  1  0  0  0  0
 23 24  2  0  0  0  0
 24 21  1  0  0  0  0
 24 22  1  0  0  0  0
 25 24  1  0  0  0  0
 26 28  2  0  0  0  0
 27 28  1  0  0  0  0
 29 30  1  0  0  0  0
 30 40  1  0  0  0  0
 30 31  1  0  0  0  0
 33 36  1  0  0  0  0
 34 40  1  0  0  0  0
 35 34  2  0  0  0  0
 36 32  1  0  0  0  0
 37 32  1  0  0  0  0
 38 33  1  0  0  0  0
 38 36  1  0  0  0  0
 38 37  1  0  0  0  0
 39 34  1  0  0  0  0
 39 38  1  0  0  0  0
 40 37  1  0  0  0  0
M  END
>  <MODEL>
1

>  <REMARK>
 VINA RESULT:      -8.1      0.000      0.000
  Name = 
  9 active torsions:
  status: ('A' for Active; 'I' for Inactive)
    1  A    between atoms: C_1  and  C_14
    2  A    between atoms: C_1  and  O_25
    3  A    between atoms: O_5  and  C_7
    4  A    between atoms: O_5  and  C_27
    5  A    between atoms: C_7  and  C_39
    6  A    between atoms: C_11  and  C_24
    7  A    between atoms: P_17  and  O_25
    8  A    between atoms: C_22  and  C_38
    9  A    between atoms: C_31  and  C_37
                            x       y       z     vdW  Elec       q    Type
                         _______ _______ _______ _____ _____    ______ ____

>  <TORSDO>
F 9

$$$$
=
 OpenBabel11042418083D

 40 46  0  0  1  0  0  0  0  0999 V2000
  190.6060  173.9790  143.6580 C   0  0  0  0  0  2  0  0  0  0  0  0
  189.4360  174.4400  145.7820 C   0  0  1  0  0  3  0  0  0  0  0  0
  188.7310  175.5840  145.0990 C   0  0  0  0  0  3  0  0  0  0  0  0
  190.0940  175.2800  143.0300 C   0  0  2  0  0  3  0  0  0  0  0  0
  188.9460  175.9090  143.8090 C   0  0  0  0  0  0  0  0  0  0  0  0
  190.7960  174.1600  145.1550 C   0  0  0  0  0  2  0  0  0  0  0  0
  186.9350  177.7450  141.3920 C   0  0  0  0  0  2  0  0  0  0  0  0
  185.1030  179.0110  145.7580 C   0  0  0  0  0  2  0  0  0  0  0  0
  184.5510  177.9050  142.3120 C   0  0  1  0  0  3  0  0  0  0  0  0
  185.4550  177.9560  141.0710 C   0  0  0  0  0  2  0  0  0  0  0  0
  184.2350  178.6030  144.6680 N   0  0  0  0  0  2  0  0  0  0  0  0
  187.1090  176.7050  142.4080 N   0  0  1  0  0  0  0  0  0  0  0  0
  186.5180  179.0380  145.2180 C   0  0  0  0  0  2  0  0  0  0  0  0
  185.0400  178.7990  143.4720 C   0  0  1  0  0  3  0  0  0  0  0  0
  186.4580  178.6300  143.8250 N   0  0  2  0  0  0  0  0  0  0  0  0
  188.2410  177.1180  143.2570 C   0  0  1  0  0  3  0  0  0  0  0  0
  186.8740  177.2150  143.7860 C   0  0  2  0  0  3  0  0  0  0  0  0
  183.1290  178.2110  141.9390 C   0  0  0  0  0  3  0  0  0  0  0  0
  182.6420  177.9380  140.7260 C   0  0  0  0  0  3  0  0  0  0  0  0
  181.2280  178.2690  140.3890 C   0  0  0  0  0  2  0  0  0  0  0  0
  180.5730  178.7610  141.5220 O   0  0  0  0  0  0  0  0  0  0  0  0
  178.0490  179.4810  141.6850 O   0  0  0  0  0  1  0  0  0  0  0  0
  178.6090  177.0260  142.3770 O   0  0  0  0  0  1  0  0  0  0  0  0
  178.9470  178.3160  141.3380 P   0  0  0  0  0  0  0  0  0  0  0  0
  178.6550  177.8340  139.7420 O   0  0  0  0  0  0  0  0  0  0  0  0
  188.6730  174.3670  148.0210 O   0  0  0  0  0  0  0  0  0  0  0  0
  190.7910  175.3520  147.7790 C   0  0  0  0  0  1  0  0  0  0  0  0
  189.5630  174.6940  147.2510 C   0  0  0  0  0  0  0  0  0  0  0  0
  189.7320  175.0450  141.6990 O   0  0  0  0  0  0  0  0  0  0  0  0
  190.5010  173.9450  141.2940 C   0  0  2  0  0  3  0  0  0  0  0  0
  191.8360  174.4070  140.7390 C   0  0  0  0  0  1  0  0  0  0  0  0
  188.5920  173.5330  138.2350 C   0  0  0  0  0  2  0  0  0  0  0  0
  190.2730  172.7040  136.6920 O   0  0  0  0  0  0  0  0  0  0  0  0
  190.3460  171.7190  140.1070 C   0  0  0  0  0  0  0  0  0  0  0  0
  190.4440  170.8640  141.0280 O   0  0  0  0  0  0  0  0  0  0  0  0
  189.1180  172.3830  137.4060 C   0  0  1  0  0  3  0  0  0  0  0  0
  189.8530  173.7130  138.9300 N   0  0  2  0  0  0  0  0  0  0  0  0
  190.4280  172.6540  138.0950 C   0  0  2  0  0  0  0  0  0  0  0  0
  190.7160  171.4700  138.8050 O   0  0  0  0  0  0  0  0  0  0  0  0
  189.7560  173.0900  140.2650 C   0  0  2  0  0  3  0  0  0  0  0  0
  1  6  1  0  0  0  0
  2 28  1  1  0  0  0
  3  2  1  0  0  0  0
  4 29  1  6  0  0  0
  4  1  1  0  0  0  0
  4  5  1  0  0  0  0
  5  3  2  0  0  0  0
  6  2  1  0  0  0  0
  9 18  1  6  0  0  0
  9 14  1  0  0  0  0
 10  7  1  0  0  0  0
 10  9  1  0  0  0  0
 11  8  1  0  0  0  0
 12  7  1  6  0  0  0
 12 16  1  0  0  0  0
 12 17  1  0  0  0  0
 13  8  1  0  0  0  0
 14 15  1  0  0  0  0
 14 11  1  1  0  0  0
 15 13  1  1  0  0  0
 16 17  1  0  0  0  0
 16  5  1  1  0  0  0
 17 15  1  0  0  0  0
 19 18  2  0  0  0  0
 20 19  1  0  0  0  0
 20 21  1  0  0  0  0
 24 21  1  0  0  0  0
 24 22  1  0  0  0  0
 24 23  1  0  0  0  0
 25 24  2  0  0  0  0
 28 27  1  0  0  0  0
 28 26  2  0  0  0  0
 30 29  1  0  0  0  0
 31 30  1  0  0  0  0
 32 37  1  0  0  0  0
 33 36  1  0  0  0  0
 33 38  1  0  0  0  0
 34 40  1  0  0  0  0
 34 35  2  0  0  0  0
 36 38  1  0  0  0  0
 36 32  1  0  0  0  0
 37 40  1  0  0  0  0
 38 39  1  0  0  0  0
 38 37  1  0  0  0  0
 39 34  1  0  0  0  0
 40 30  1  0  0  0  0
M  END
>  <MODEL>
2

>  <REMARK>
 VINA RESULT:      -7.7      2.440      5.092
  Name = 
  9 active torsions:
  status: ('A' for Active; 'I' for Inactive)
    1  A    between atoms: C_1  and  C_14
    2  A    between atoms: C_1  and  O_25
    3  A    between atoms: O_5  and  C_7
    4  A    between atoms: O_5  and  C_27
    5  A    between atoms: C_7  and  C_39
    6  A    between atoms: C_11  and  C_24
    7  A    between atoms: P_17  and  O_25
    8  A    between atoms: C_22  and  C_38
    9  A    between atoms: C_31  and  C_37
                            x       y       z     vdW  Elec       q    Type
                         _______ _______ _______ _____ _____    ______ ____

>  <TORSDO>
F 9

$$$$
=
 OpenBabel11042418083D

 40 46  0  0  1  0  0  0  0  0999 V2000
  190.4180  177.4280  146.6770 C   0  0  0  0  0  2  0  0  0  0  0  0
  192.2510  176.0420  145.7760 C   0  0  1  0  0  3  0  0  0  0  0  0
  191.2650  175.4360  144.8120 C   0  0  0  0  0  3  0  0  0  0  0  0
  189.3640  176.6460  145.8850 C   0  0  2  0  0  3  0  0  0  0  0  0
  189.9640  175.7840  144.7820 C   0  0  0  0  0  0  0  0  0  0  0  0
  191.5720  176.5150  147.0550 C   0  0  0  0  0  2  0  0  0  0  0  0
  188.0290  175.3730  141.7240 C   0  0  0  0  0  2  0  0  0  0  0  0
  190.4110  171.1240  142.2750 C   0  0  0  0  0  2  0  0  0  0  0  0
  189.3880  173.9050  140.1250 C   0  0  1  0  0  3  0  0  0  0  0  0
  188.2710  174.9480  140.2750 C   0  0  0  0  0  2  0  0  0  0  0  0
  190.4010  171.8200  141.0010 N   0  0  0  0  0  2  0  0  0  0  0  0
  189.2950  175.5170  142.4460 N   0  0  1  0  0  0  0  0  0  0  0  0
  189.5220  171.9050  143.2210 C   0  0  0  0  0  2  0  0  0  0  0  0
  189.2450  172.7000  141.0800 C   0  0  1  0  0  3  0  0  0  0  0  0
  189.0170  173.0550  142.4900 N   0  0  2  0  0  0  0  0  0  0  0  0
  189.0580  175.0550  143.8260 C   0  0  1  0  0  3  0  0  0  0  0  0
  189.8340  174.2090  142.9100 C   0  0  2  0  0  3  0  0  0  0  0  0
  189.5090  173.4670  138.6940 C   0  0  0  0  0  3  0  0  0  0  0  0
  190.6500  173.5860  138.0110 C   0  0  0  0  0  3  0  0  0  0  0  0
  190.7260  173.1510  136.5870 C   0  0  0  0  0  2  0  0  0  0  0  0
  191.4920  171.9860  136.4870 O   0  0  0  0  0  0  0  0  0  0  0  0
  189.2840  171.3690  135.1980 O   0  0  0  0  0  1  0  0  0  0  0  0
  189.7730  170.0270  137.3850 O   0  0  0  0  0  1  0  0  0  0  0  0
  190.4120  170.7700  136.0070 P   0  0  0  0  0  0  0  0  0  0  0  0
  191.2200  169.6100  135.0750 O   0  0  0  0  0  0  0  0  0  0  0  0
  194.4070  175.4750  146.5680 O   0  0  0  0  0  0  0  0  0  0  0  0
  193.1790  173.6350  145.7800 C   0  0  0  0  0  1  0  0  0  0  0  0
  193.3590  175.0830  146.0790 C   0  0  0  0  0  0  0  0  0  0  0  0
  188.4120  177.5340  145.3700 O   0  0  0  0  0  0  0  0  0  0  0  0
  187.4740  177.7070  146.3980 C   0  0  2  0  0  3  0  0  0  0  0  0
  186.9130  176.3670  146.8350 C   0  0  0  0  0  1  0  0  0  0  0  0
  185.7360  179.7340  143.9390 C   0  0  0  0  0  2  0  0  0  0  0  0
  183.8500  178.3210  143.3540 O   0  0  0  0  0  0  0  0  0  0  0  0
  185.0580  178.3900  146.6970 C   0  0  0  0  0  0  0  0  0  0  0  0
  184.9060  178.4650  147.9450 O   0  0  0  0  0  0  0  0  0  0  0  0
  184.2430  179.5010  143.9870 C   0  0  1  0  0  3  0  0  0  0  0  0
  186.0360  178.4490  144.5410 N   0  0  2  0  0  0  0  0  0  0  0  0
  184.6010  178.1480  144.5370 C   0  0  2  0  0  0  0  0  0  0  0  0
  184.0280  178.1160  145.8260 O   0  0  0  0  0  0  0  0  0  0  0  0
  186.3450  178.6510  145.9700 C   0  0  2  0  0  3  0  0  0  0  0  0
  1  6  1  0  0  0  0
  2 28  1  1  0  0  0
  2  6  1  0  0  0  0
  3  2  1  0  0  0  0
  4 29  1  6  0  0  0
  4  1  1  0  0  0  0
  5  3  2  0  0  0  0
  5  4  1  0  0  0  0
  8 13  1  0  0  0  0
  9 18  1  6  0  0  0
  9 10  1  0  0  0  0
  9 14  1  0  0  0  0
 10  7  1  0  0  0  0
 11  8  1  0  0  0  0
 12  7  1  6  0  0  0
 12 17  1  0  0  0  0
 12 16  1  0  0  0  0
 14 11  1  1  0  0  0
 14 15  1  0  0  0  0
 15 17  1  0  0  0  0
 15 13  1  1  0  0  0
 16  5  1  1  0  0  0
 17 16  1  0  0  0  0
 19 18  2  0  0  0  0
 20 19  1  0  0  0  0
 21 20  1  0  0  0  0
 22 24  1  0  0  0  0
 24 21  1  0  0  0  0
 24 23  1  0  0  0  0
 25 24  2  0  0  0  0
 27 28  1  0  0  0  0
 28 26  2  0  0  0  0
 29 30  1  0  0  0  0
 30 31  1  0  0  0  0
 32 36  1  0  0  0  0
 32 37  1  0  0  0  0
 33 36  1  0  0  0  0
 33 38  1  0  0  0  0
 34 35  2  0  0  0  0
 36 38  1  0  0  0  0
 37 40  1  0  0  0  0
 38 37  1  0  0  0  0
 38 39  1  0  0  0  0
 39 34  1  0  0  0  0
 40 30  1  0  0  0  0
 40 34  1  0  0  0  0
M  END
>  <MODEL>
3

>  <REMARK>
 VINA RESULT:      -7.7      3.854      8.735
  Name = 
  9 active torsions:
  status: ('A' for Active; 'I' for Inactive)
    1  A    between atoms: C_1  and  C_14
    2  A    between atoms: C_1  and  O_25
    3  A    between atoms: O_5  and  C_7
    4  A    between atoms: O_5  and  C_27
    5  A    between atoms: C_7  and  C_39
    6  A    between atoms: C_11  and  C_24
    7  A    between atoms: P_17  and  O_25
    8  A    between atoms: C_22  and  C_38
    9  A    between atoms: C_31  and  C_37
                            x       y       z     vdW  Elec       q    Type
                         _______ _______ _______ _____ _____    ______ ____

>  <TORSDO>
F 9

$$$$
=
 OpenBabel11042418083D

 40 46  0  0  1  0  0  0  0  0999 V2000
  187.0370  176.8190  141.7920 C   0  0  0  0  0  2  0  0  0  0  0  0
  186.7280  178.1260  143.8630 C   0  0  1  0  0  3  0  0  0  0  0  0
  187.6590  177.1670  144.5590 C   0  0  0  0  0  3  0  0  0  0  0  0
  187.7740  175.7020  142.5410 C   0  0  2  0  0  3  0  0  0  0  0  0
  188.2270  176.1170  143.9340 C   0  0  0  0  0  0  0  0  0  0  0  0
  186.0020  177.4630  142.6990 C   0  0  0  0  0  2  0  0  0  0  0  0
  190.8540  173.6520  144.4670 C   0  0  0  0  0  2  0  0  0  0  0  0
  191.4610  176.9200  148.0690 C   0  0  0  0  0  2  0  0  0  0  0  0
  192.9030  174.8740  145.3980 C   0  0  1  0  0  3  0  0  0  0  0  0
  192.3700  173.6310  144.6690 C   0  0  0  0  0  2  0  0  0  0  0  0
  192.5830  176.4700  147.2660 N   0  0  0  0  0  2  0  0  0  0  0  0
  190.3910  174.9930  144.1060 N   0  0  1  0  0  0  0  0  0  0  0  0
  190.2450  176.1330  147.6220 C   0  0  0  0  0  2  0  0  0  0  0  0
  192.1360  175.2080  146.6960 C   0  0  1  0  0  3  0  0  0  0  0  0
  190.6720  175.2460  146.5540 N   0  0  2  0  0  0  0  0  0  0  0  0
  189.0800  175.1840  144.7520 C   0  0  1  0  0  3  0  0  0  0  0  0
  190.2540  175.8830  145.2910 C   0  0  2  0  0  3  0  0  0  0  0  0
  194.3780  174.7460  145.6430 C   0  0  0  0  0  3  0  0  0  0  0  0
  195.0390  173.6100  145.4060 C   0  0  0  0  0  3  0  0  0  0  0  0
  196.5030  173.5190  145.6760 C   0  0  0  0  0  2  0  0  0  0  0  0
  196.8070  172.2670  146.2190 O   0  0  0  0  0  0  0  0  0  0  0  0
  197.9410  170.1110  145.2290 O   0  0  0  0  0  1  0  0  0  0  0  0
  197.5660  172.0970  143.5750 O   0  0  0  0  0  0  0  0  0  0  0  0
  196.9730  171.2220  144.8940 P   0  0  0  0  0  0  0  0  0  0  0  0
  195.4690  170.5580  144.4880 O   0  0  0  0  0  1  0  0  0  0  0  0
  185.5210  179.9220  144.8180 O   0  0  0  0  0  0  0  0  0  0  0  0
  185.0730  177.8470  145.8220 C   0  0  0  0  0  1  0  0  0  0  0  0
  185.7580  178.7240  144.8320 C   0  0  0  0  0  0  0  0  0  0  0  0
  188.8540  175.2570  141.7700 O   0  0  0  0  0  0  0  0  0  0  0  0
  188.3550  174.1810  141.0220 C   0  0  2  0  0  3  0  0  0  0  0  0
  188.1430  172.9700  141.9110 C   0  0  0  0  0  1  0  0  0  0  0  0
  191.3280  172.6340  139.6270 C   0  0  0  0  0  2  0  0  0  0  0  0
  190.4270  170.6220  138.6110 O   0  0  0  0  0  0  0  0  0  0  0  0
  188.5490  173.6390  138.5600 C   0  0  0  0  0  0  0  0  0  0  0  0
  187.8440  174.5150  137.9900 O   0  0  0  0  0  0  0  0  0  0  0  0
  191.0100  171.8660  138.3640 C   0  0  1  0  0  3  0  0  0  0  0  0
  189.9650  172.5520  140.1160 N   0  0  2  0  0  0  0  0  0  0  0  0
  189.6280  171.7370  138.9440 C   0  0  2  0  0  0  0  0  0  0  0  0
  188.7850  172.3940  138.0230 O   0  0  0  0  0  0  0  0  0  0  0  0
  189.2840  173.8360  139.8530 C   0  0  2  0  0  3  0  0  0  0  0  0
  1  4  1  0  0  0  0
  1  6  1  0  0  0  0
  2  3  1  0  0  0  0
  2 28  1  1  0  0  0
  4 29  1  6  0  0  0
  4  5  1  0  0  0  0
  5  3  2  0  0  0  0
  6  2  1  0  0  0  0
  7 10  1  0  0  0  0
  9 18  1  1  0  0  0
  9 14  1  0  0  0  0
 10  9  1  0  0  0  0
 11  8  1  0  0  0  0
 12  7  1  1  0  0  0
 12 16  1  0  0  0  0
 12 17  1  0  0  0  0
 13  8  1  0  0  0  0
 14 11  1  6  0  0  0
 15 14  1  0  0  0  0
 15 13  1  1  0  0  0
 16  5  1  6  0  0  0
 16 17  1  0  0  0  0
 17 15  1  0  0  0  0
 19 18  2  0  0  0  0
 19 20  1  0  0  0  0
 20 21  1  0  0  0  0
 23 24  2  0  0  0  0
 24 22  1  0  0  0  0
 24 21  1  0  0  0  0
 25 24  1  0  0  0  0
 26 28  2  0  0  0  0
 28 27  1  0  0  0  0
 30 29  1  0  0  0  0
 30 31  1  0  0  0  0
 32 37  1  0  0  0  0
 33 38  1  0  0  0  0
 34 40  1  0  0  0  0
 35 34  2  0  0  0  0
 36 33  1  0  0  0  0
 36 38  1  0  0  0  0
 36 32  1  0  0  0  0
 38 37  1  0  0  0  0
 39 34  1  0  0  0  0
 39 38  1  0  0  0  0
 40 37  1  0  0  0  0
 40 30  1  0  0  0  0
M  END
>  <MODEL>
4

>  <REMARK>
 VINA RESULT:      -7.4      4.945     10.498
  Name = 
  9 active torsions:
  status: ('A' for Active; 'I' for Inactive)
    1  A    between atoms: C_1  and  C_14
    2  A    between atoms: C_1  and  O_25
    3  A    between atoms: O_5  and  C_7
    4  A    between atoms: O_5  and  C_27
    5  A    between atoms: C_7  and  C_39
    6  A    between atoms: C_11  and  C_24
    7  A    between atoms: P_17  and  O_25
    8  A    between atoms: C_22  and  C_38
    9  A    between atoms: C_31  and  C_37
                            x       y       z     vdW  Elec       q    Type
                         _______ _______ _______ _____ _____    ______ ____

>  <TORSDO>
F 9

$$$$
=
 OpenBabel11042418083D

 40 46  0  0  1  0  0  0  0  0999 V2000
  194.9100  172.8910  141.9060 C   0  0  0  0  0  2  0  0  0  0  0  0
  195.3470  172.5370  144.3090 C   0  0  1  0  0  3  0  0  0  0  0  0
  194.6180  173.8250  144.5900 C   0  0  0  0  0  3  0  0  0  0  0  0
  194.3950  174.3140  142.1520 C   0  0  2  0  0  3  0  0  0  0  0  0
  194.0860  174.5910  143.6180 C   0  0  0  0  0  0  0  0  0  0  0  0
  195.9810  172.5380  142.9230 C   0  0  0  0  0  2  0  0  0  0  0  0
  191.9290  177.4890  143.1580 C   0  0  0  0  0  2  0  0  0  0  0  0
  191.0270  175.9750  147.7320 C   0  0  0  0  0  2  0  0  0  0  0  0
  189.7710  177.0800  144.4760 C   0  0  1  0  0  3  0  0  0  0  0  0
  190.4510  177.8450  143.3300 C   0  0  0  0  0  2  0  0  0  0  0  0
  189.9440  176.2760  146.8130 N   0  0  0  0  0  2  0  0  0  0  0  0
  192.1460  176.0520  143.3380 N   0  0  1  0  0  0  0  0  0  0  0  0
  192.3230  176.3120  147.0240 C   0  0  0  0  0  2  0  0  0  0  0  0
  190.5530  177.1320  145.8060 C   0  0  1  0  0  3  0  0  0  0  0  0
  191.9800  176.7910  145.6960 N   0  0  2  0  0  0  0  0  0  0  0  0
  193.4470  175.8950  144.0140 C   0  0  1  0  0  3  0  0  0  0  0  0
  192.2110  175.6640  144.7730 C   0  0  2  0  0  3  0  0  0  0  0  0
  188.3540  177.5440  144.6480 C   0  0  0  0  0  3  0  0  0  0  0  0
  187.4830  177.5500  143.6350 C   0  0  0  0  0  3  0  0  0  0  0  0
  186.0880  178.0310  143.8430 C   0  0  0  0  0  2  0  0  0  0  0  0
  186.0820  179.0890  144.7560 O   0  0  0  0  0  0  0  0  0  0  0  0
  183.6530  179.0190  145.7620 O   0  0  0  0  0  0  0  0  0  0  0  0
  185.6130  179.2990  147.4640 O   0  0  0  0  0  1  0  0  0  0  0  0
  185.0770  178.5880  146.0270 P   0  0  0  0  0  0  0  0  0  0  0  0
  185.1370  176.9040  146.1850 O   0  0  0  0  0  1  0  0  0  0  0  0
  196.7920  171.1290  145.5440 O   0  0  0  0  0  0  0  0  0  0  0  0
  196.8730  173.3780  146.2110 C   0  0  0  0  0  1  0  0  0  0  0  0
  196.3680  172.2600  145.3670 C   0  0  0  0  0  0  0  0  0  0  0  0
  193.2760  174.5520  141.3460 O   0  0  0  0  0  0  0  0  0  0  0  0
  192.6630  173.3010  141.1850 C   0  0  2  0  0  3  0  0  0  0  0  0
  192.4720  172.9900  139.7120 C   0  0  0  0  0  1  0  0  0  0  0  0
  189.2760  174.4430  141.8170 C   0  0  0  0  0  2  0  0  0  0  0  0
  187.9490  172.7580  140.6810 O   0  0  0  0  0  0  0  0  0  0  0  0
  190.9550  171.8400  142.3420 C   0  0  0  0  0  0  0  0  0  0  0  0
  191.6360  171.1110  143.1120 O   0  0  0  0  0  0  0  0  0  0  0  0
  188.3130  173.2830  141.9220 C   0  0  1  0  0  3  0  0  0  0  0  0
  190.2340  173.6810  141.0390 N   0  0  2  0  0  0  0  0  0  0  0  0
  189.2970  172.5530  141.0490 C   0  0  2  0  0  0  0  0  0  0  0  0
  189.7350  171.4630  141.8290 O   0  0  0  0  0  0  0  0  0  0  0  0
  191.3250  173.2340  141.9280 C   0  0  2  0  0  3  0  0  0  0  0  0
  1  4  1  0  0  0  0
  1  6  1  0  0  0  0
  2  3  1  0  0  0  0
  2 28  1  1  0  0  0
  4 29  1  6  0  0  0
  4  5  1  0  0  0  0
  5  3  2  0  0  0  0
  6  2  1  0  0  0  0
  7 10  1  0  0  0  0
  9 18  1  1  0  0  0
  9 14  1  0  0  0  0
 10  9  1  0  0  0  0
 11  8  1  0  0  0  0
 12  7  1  1  0  0  0
 12 16  1  0  0  0  0
 12 17  1  0  0  0  0
 13  8  1  0  0  0  0
 14 11  1  1  0  0  0
 15 14  1  0  0  0  0
 15 13  1  1  0  0  0
 16  5  1  6  0  0  0
 16 17  1  0  0  0  0
 17 15  1  0  0  0  0
 19 20  1  0  0  0  0
 19 18  2  0  0  0  0
 20 21  1  0  0  0  0
 21 24  1  0  0  0  0
 22 24  2  0  0  0  0
 24 25  1  0  0  0  0
 24 23  1  0  0  0  0
 28 26  2  0  0  0  0
 28 27  1  0  0  0  0
 30 29  1  0  0  0  0
 30 40  1  0  0  0  0
 31 30  1  0  0  0  0
 32 36  1  0  0  0  0
 33 38  1  0  0  0  0
 33 36  1  0  0  0  0
 34 35  2  0  0  0  0
 37 38  1  0  0  0  0
 37 32  1  0  0  0  0
 37 40  1  0  0  0  0
 38 39  1  0  0  0  0
 38 36  1  0  0  0  0
 39 34  1  0  0  0  0
 40 34  1  0  0  0  0
M  END
>  <MODEL>
5

>  <REMARK>
 VINA RESULT:      -7.3      3.961      7.022
  Name = 
  9 active torsions:
  status: ('A' for Active; 'I' for Inactive)
    1  A    between atoms: C_1  and  C_14
    2  A    between atoms: C_1  and  O_25
    3  A    between atoms: O_5  and  C_7
    4  A    between atoms: O_5  and  C_27
    5  A    between atoms: C_7  and  C_39
    6  A    between atoms: C_11  and  C_24
    7  A    between atoms: P_17  and  O_25
    8  A    between atoms: C_22  and  C_38
    9  A    between atoms: C_31  and  C_37
                            x       y       z     vdW  Elec       q    Type
                         _______ _______ _______ _____ _____    ______ ____

>  <TORSDO>
F 9

$$$$
=
 OpenBabel11042418083D

 40 46  0  0  1  0  0  0  0  0999 V2000
  193.8290  171.4570  143.6020 C   0  0  0  0  0  2  0  0  0  0  0  0
  193.1330  172.0860  141.3180 C   0  0  1  0  0  3  0  0  0  0  0  0
  192.6620  173.4070  141.8690 C   0  0  0  0  0  3  0  0  0  0  0  0
  193.1290  172.6780  144.2110 C   0  0  2  0  0  3  0  0  0  0  0  0
  192.7540  173.7290  143.1740 C   0  0  0  0  0  0  0  0  0  0  0  0
  193.0760  170.9840  142.3690 C   0  0  0  0  0  2  0  0  0  0  0  0
  190.5120  176.5930  142.9800 C   0  0  0  0  0  2  0  0  0  0  0  0
  190.4700  175.2920  147.7060 C   0  0  0  0  0  2  0  0  0  0  0  0
  188.6330  176.2370  144.6830 C   0  0  1  0  0  3  0  0  0  0  0  0
  189.0860  176.9500  143.4000 C   0  0  0  0  0  2  0  0  0  0  0  0
  189.2350  175.5440  146.9850 N   0  0  0  0  0  2  0  0  0  0  0  0
  190.7770  175.1670  143.1830 N   0  0  1  0  0  0  0  0  0  0  0  0
  191.6130  175.6010  146.7610 C   0  0  0  0  0  2  0  0  0  0  0  0
  189.6410  176.3550  145.8470 C   0  0  1  0  0  3  0  0  0  0  0  0
  191.0290  176.0160  145.4970 N   0  0  2  0  0  0  0  0  0  0  0  0
  192.1800  175.0480  143.6200 C   0  0  1  0  0  3  0  0  0  0  0  0
  191.1050  174.8470  144.5990 C   0  0  2  0  0  3  0  0  0  0  0  0
  187.2640  176.7020  145.0870 C   0  0  0  0  0  3  0  0  0  0  0  0
  187.0520  177.9150  145.6040 C   0  0  0  0  0  3  0  0  0  0  0  0
  185.6790  178.3350  146.0050 C   0  0  0  0  0  2  0  0  0  0  0  0
  184.7360  177.7360  145.1660 O   0  0  0  0  0  0  0  0  0  0  0  0
  183.0590  179.0370  143.6130 O   0  0  0  0  0  1  0  0  0  0  0  0
  185.2400  178.1440  142.4870 O   0  0  0  0  0  0  0  0  0  0  0  0
  184.5320  178.8100  143.8700 P   0  0  0  0  0  0  0  0  0  0  0  0
  185.2790  180.2880  144.2180 O   0  0  0  0  0  1  0  0  0  0  0  0
  192.9040  171.1920  139.1400 O   0  0  0  0  0  0  0  0  0  0  0  0
  190.8850  171.9610  140.0600 C   0  0  0  0  0  1  0  0  0  0  0  0
  192.3520  171.7080  140.1000 C   0  0  0  0  0  0  0  0  0  0  0  0
  193.9360  173.2250  145.2150 O   0  0  0  0  0  0  0  0  0  0  0  0
  195.2540  172.9630  144.8160 C   0  0  2  0  0  3  0  0  0  0  0  0
  195.9080  171.9740  145.7630 C   0  0  0  0  0  1  0  0  0  0  0  0
  197.6620  175.1330  143.1830 C   0  0  0  0  0  2  0  0  0  0  0  0
  196.2280  176.7900  142.1370 O   0  0  0  0  0  0  0  0  0  0  0  0
  195.3710  175.4390  145.3110 C   0  0  0  0  0  0  0  0  0  0  0  0
  194.9920  175.5370  146.5090 O   0  0  0  0  0  0  0  0  0  0  0  0
  197.1740  176.5640  143.1380 C   0  0  1  0  0  3  0  0  0  0  0  0
  196.3210  174.5960  143.3120 N   0  0  2  0  0  0  0  0  0  0  0  0
  195.7970  175.9610  143.1960 C   0  0  2  0  0  0  0  0  0  0  0  0
  195.2350  176.4540  144.3920 O   0  0  0  0  0  0  0  0  0  0  0  0
  196.0780  174.2510  144.7270 C   0  0  2  0  0  3  0  0  0  0  0  0
  1  4  1  0  0  0  0
  2 28  1  6  0  0  0
  2  3  1  0  0  0  0
  2  6  1  0  0  0  0
  3  5  2  0  0  0  0
  4 29  1  1  0  0  0
  5  4  1  0  0  0  0
  6  1  1  0  0  0  0
  7 10  1  0  0  0  0
  9 18  1  1  0  0  0
  9 14  1  0  0  0  0
 10  9  1  0  0  0  0
 11  8  1  0  0  0  0
 12  7  1  1  0  0  0
 12 16  1  0  0  0  0
 12 17  1  0  0  0  0
 13  8  1  0  0  0  0
 14 11  1  1  0  0  0
 15 14  1  0  0  0  0
 15 13  1  1  0  0  0
 16  5  1  6  0  0  0
 16 17  1  0  0  0  0
 17 15  1  0  0  0  0
 18 19  2  0  0  0  0
 19 20  1  0  0  0  0
 21 20  1  0  0  0  0
 22 24  1  0  0  0  0
 23 24  2  0  0  0  0
 24 25  1  0  0  0  0
 24 21  1  0  0  0  0
 26 28  2  0  0  0  0
 27 28  1  0  0  0  0
 30 29  1  0  0  0  0
 30 31  1  0  0  0  0
 32 37  1  0  0  0  0
 33 36  1  0  0  0  0
 33 38  1  0  0  0  0
 34 35  2  0  0  0  0
 36 32  1  0  0  0  0
 36 38  1  0  0  0  0
 37 40  1  0  0  0  0
 38 37  1  0  0  0  0
 38 39  1  0  0  0  0
 39 34  1  0  0  0  0
 40 30  1  0  0  0  0
 40 34  1  0  0  0  0
M  END
>  <MODEL>
6

>  <REMARK>
 VINA RESULT:      -7.2      3.836      5.277
  Name = 
  9 active torsions:
  status: ('A' for Active; 'I' for Inactive)
    1  A    between atoms: C_1  and  C_14
    2  A    between atoms: C_1  and  O_25
    3  A    between atoms: O_5  and  C_7
    4  A    between atoms: O_5  and  C_27
    5  A    between atoms: C_7  and  C_39
    6  A    between atoms: C_11  and  C_24
    7  A    between atoms: P_17  and  O_25
    8  A    between atoms: C_22  and  C_38
    9  A    between atoms: C_31  and  C_37
                            x       y       z     vdW  Elec       q    Type
                         _______ _______ _______ _____ _____    ______ ____

>  <TORSDO>
F 9

$$$$
=
 OpenBabel11042418083D

 40 46  0  0  1  0  0  0  0  0999 V2000
  187.0500  175.8630  142.6290 C   0  0  0  0  0  2  0  0  0  0  0  0
  186.6800  177.7840  144.1330 C   0  0  1  0  0  3  0  0  0  0  0  0
  188.1420  177.7310  144.4950 C   0  0  0  0  0  3  0  0  0  0  0  0
  188.4660  175.6380  143.1730 C   0  0  2  0  0  3  0  0  0  0  0  0
  188.9900  176.8200  143.9780 C   0  0  0  0  0  0  0  0  0  0  0  0
  186.1510  176.4160  143.7210 C   0  0  0  0  0  2  0  0  0  0  0  0
  191.6990  175.9450  146.2500 C   0  0  0  0  0  2  0  0  0  0  0  0
  193.5430  175.2130  141.7680 C   0  0  0  0  0  2  0  0  0  0  0  0
  193.0240  174.0260  145.1920 C   0  0  1  0  0  3  0  0  0  0  0  0
  192.6540  174.7740  146.4820 C   0  0  0  0  0  2  0  0  0  0  0  0
  193.6850  174.2140  142.8120 N   0  0  0  0  0  2  0  0  0  0  0  0
  190.6760  175.6000  145.2610 N   0  0  1  0  0  0  0  0  0  0  0  0
  192.8600  176.4150  142.3880 C   0  0  0  0  0  2  0  0  0  0  0  0
  193.4890  174.9540  144.0490 C   0  0  1  0  0  3  0  0  0  0  0  0
  192.6000  176.0950  143.7810 N   0  0  2  0  0  0  0  0  0  0  0  0
  190.4120  176.8170  144.4720 C   0  0  1  0  0  3  0  0  0  0  0  0
  191.1760  175.7200  143.8640 C   0  0  2  0  0  3  0  0  0  0  0  0
  194.0320  172.9520  145.4790 C   0  0  0  0  0  3  0  0  0  0  0  0
  195.3440  173.1970  145.4870 C   0  0  0  0  0  3  0  0  0  0  0  0
  196.3150  172.0990  145.7630 C   0  0  0  0  0  2  0  0  0  0  0  0
  196.1830  171.0960  144.7980 O   0  0  0  0  0  0  0  0  0  0  0  0
  197.5130  169.4210  146.3290 O   0  0  0  0  0  1  0  0  0  0  0  0
  195.8840  168.3640  144.5830 O   0  0  0  0  0  0  0  0  0  0  0  0
  196.1750  169.6350  145.6590 P   0  0  0  0  0  0  0  0  0  0  0  0
  194.9540  169.6590  146.8320 O   0  0  0  0  0  1  0  0  0  0  0  0
  185.8380  179.5620  145.4480 O   0  0  0  0  0  0  0  0  0  0  0  0
  185.1070  177.4440  146.1490 C   0  0  0  0  0  1  0  0  0  0  0  0
  185.8740  178.3560  145.2560 C   0  0  0  0  0  0  0  0  0  0  0  0
  189.3280  175.3250  142.1160 O   0  0  0  0  0  0  0  0  0  0  0  0
  188.8720  174.0960  141.6180 C   0  0  2  0  0  3  0  0  0  0  0  0
  189.1840  172.9780  142.5960 C   0  0  0  0  0  1  0  0  0  0  0  0
  191.2040  172.3650  139.4410 C   0  0  0  0  0  2  0  0  0  0  0  0
  189.7980  170.6570  138.4430 O   0  0  0  0  0  0  0  0  0  0  0  0
  188.4690  173.8810  139.1320 C   0  0  0  0  0  0  0  0  0  0  0  0
  187.8170  174.9150  138.8290 O   0  0  0  0  0  0  0  0  0  0  0  0
  190.5140  171.8310  138.2060 C   0  0  1  0  0  3  0  0  0  0  0  0
  189.9740  172.4030  140.2090 N   0  0  2  0  0  0  0  0  0  0  0  0
  189.2770  171.8140  139.0610 C   0  0  2  0  0  0  0  0  0  0  0  0
  188.3840  172.7020  138.4260 O   0  0  0  0  0  0  0  0  0  0  0  0
  189.4740  173.7920  140.2430 C   0  0  2  0  0  3  0  0  0  0  0  0
  1  4  1  0  0  0  0
  1  6  1  0  0  0  0
  2  3  1  0  0  0  0
  2 28  1  1  0  0  0
  4 29  1  6  0  0  0
  4  5  1  0  0  0  0
  5  3  2  0  0  0  0
  6  2  1  0  0  0  0
  7 10  1  0  0  0  0
  8 13  1  0  0  0  0
  8 11  1  0  0  0  0
  9 18  1  1  0  0  0
  9 10  1  0  0  0  0
 12  7  1  1  0  0  0
 14 11  1  6  0  0  0
 14  9  1  0  0  0  0
 15 13  1  6  0  0  0
 15 17  1  0  0  0  0
 15 14  1  0  0  0  0
 16  5  1  6  0  0  0
 16 12  1  0  0  0  0
 17 16  1  0  0  0  0
 17 12  1  0  0  0  0
 18 19  2  0  0  0  0
 19 20  1  0  0  0  0
 21 24  1  0  0  0  0
 21 20  1  0  0  0  0
 23 24  2  0  0  0  0
 24 22  1  0  0  0  0
 24 25  1  0  0  0  0
 28 26  2  0  0  0  0
 28 27  1  0  0  0  0
 30 29  1  0  0  0  0
 30 31  1  0  0  0  0
 32 37  1  0  0  0  0
 33 38  1  0  0  0  0
 34 40  1  0  0  0  0
 35 34  2  0  0  0  0
 36 33  1  0  0  0  0
 36 38  1  0  0  0  0
 36 32  1  0  0  0  0
 37 40  1  0  0  0  0
 38 37  1  0  0  0  0
 39 38  1  0  0  0  0
 39 34  1  0  0  0  0
 40 30  1  0  0  0  0
M  END
>  <MODEL>
7

>  <REMARK>
 VINA RESULT:      -7.1      5.220     10.719
  Name = 
  9 active torsions:
  status: ('A' for Active; 'I' for Inactive)
    1  A    between atoms: C_1  and  C_14
    2  A    between atoms: C_1  and  O_25
    3  A    between atoms: O_5  and  C_7
    4  A    between atoms: O_5  and  C_27
    5  A    between atoms: C_7  and  C_39
    6  A    between atoms: C_11  and  C_24
    7  A    between atoms: P_17  and  O_25
    8  A    between atoms: C_22  and  C_38
    9  A    between atoms: C_31  and  C_37
                            x       y       z     vdW  Elec       q    Type
                         _______ _______ _______ _____ _____    ______ ____

>  <TORSDO>
F 9

$$$$
=
 OpenBabel11042418083D

 40 46  0  0  1  0  0  0  0  0999 V2000
  193.4220  170.5970  144.0370 C   0  0  0  0  0  2  0  0  0  0  0  0
  192.4240  171.2140  141.8660 C   0  0  1  0  0  3  0  0  0  0  0  0
  192.4280  172.6520  142.3180 C   0  0  0  0  0  3  0  0  0  0  0  0
  193.1990  172.0050  144.6030 C   0  0  2  0  0  3  0  0  0  0  0  0
  192.8800  173.0360  143.5280 C   0  0  0  0  0  0  0  0  0  0  0  0
  192.3260  170.2530  143.0440 C   0  0  0  0  0  2  0  0  0  0  0  0
  191.8270  176.4910  143.0620 C   0  0  0  0  0  2  0  0  0  0  0  0
  190.8180  175.5010  147.7550 C   0  0  0  0  0  2  0  0  0  0  0  0
  189.7710  176.8920  144.5350 C   0  0  1  0  0  3  0  0  0  0  0  0
  190.5810  177.3430  143.3100 C   0  0  0  0  0  2  0  0  0  0  0  0
  189.8380  176.1370  146.8940 N   0  0  0  0  0  2  0  0  0  0  0  0
  191.5480  175.0730  143.3000 N   0  0  1  0  0  0  0  0  0  0  0  0
  192.0920  175.3490  146.9490 C   0  0  0  0  0  2  0  0  0  0  0  0
  190.6240  176.7020  145.8080 C   0  0  1  0  0  3  0  0  0  0  0  0
  191.8320  175.8830  145.6230 N   0  0  2  0  0  0  0  0  0  0  0  0
  192.7630  174.4900  143.8980 C   0  0  1  0  0  3  0  0  0  0  0  0
  191.5870  174.7230  144.7460 C   0  0  2  0  0  3  0  0  0  0  0  0
  188.6180  177.8240  144.7740 C   0  0  0  0  0  3  0  0  0  0  0  0
  187.4560  177.6910  144.1300 C   0  0  0  0  0  3  0  0  0  0  0  0
  186.3400  178.6460  144.3850 C   0  0  0  0  0  2  0  0  0  0  0  0
  186.3190  179.0010  145.7370 O   0  0  0  0  0  0  0  0  0  0  0  0
  184.7740  178.6470  147.8360 O   0  0  0  0  0  1  0  0  0  0  0  0
  185.0120  176.6200  146.2060 O   0  0  0  0  0  1  0  0  0  0  0  0
  184.9110  178.2990  146.3710 P   0  0  0  0  0  0  0  0  0  0  0  0
  183.5540  178.8590  145.5290 O   0  0  0  0  0  0  0  0  0  0  0  0
  190.8470  169.8540  140.7430 O   0  0  0  0  0  0  0  0  0  0  0  0
  190.8130  172.0990  140.0550 C   0  0  0  0  0  1  0  0  0  0  0  0
  191.3270  170.9690  140.8790 C   0  0  0  0  0  0  0  0  0  0  0  0
  194.3150  172.3890  145.3550 O   0  0  0  0  0  0  0  0  0  0  0  0
  195.3810  171.6300  144.8490 C   0  0  2  0  0  3  0  0  0  0  0  0
  195.9020  170.6750  145.9070 C   0  0  0  0  0  1  0  0  0  0  0  0
  197.6290  172.7900  142.2460 C   0  0  0  0  0  2  0  0  0  0  0  0
  196.5840  174.8700  141.5580 O   0  0  0  0  0  0  0  0  0  0  0  0
  196.5180  173.8840  144.9730 C   0  0  0  0  0  0  0  0  0  0  0  0
  196.6570  174.0980  146.2070 O   0  0  0  0  0  0  0  0  0  0  0  0
  197.6860  174.3000  142.1970 C   0  0  1  0  0  3  0  0  0  0  0  0
  196.3280  172.7800  142.8870 N   0  0  2  0  0  0  0  0  0  0  0  0
  196.3060  174.2430  142.7920 C   0  0  2  0  0  0  0  0  0  0  0  0
  196.4210  174.8910  144.0400 O   0  0  0  0  0  0  0  0  0  0  0  0
  196.5090  172.5280  144.3310 C   0  0  2  0  0  3  0  0  0  0  0  0
  1  4  1  0  0  0  0
  2 28  1  6  0  0  0
  2  3  1  0  0  0  0
  2  6  1  0  0  0  0
  3  5  2  0  0  0  0
  4 29  1  6  0  0  0
  5  4  1  0  0  0  0
  6  1  1  0  0  0  0
  7 10  1  0  0  0  0
  9 18  1  1  0  0  0
  9 14  1  0  0  0  0
 10  9  1  0  0  0  0
 11  8  1  0  0  0  0
 12  7  1  1  0  0  0
 12 16  1  0  0  0  0
 12 17  1  0  0  0  0
 13  8  1  0  0  0  0
 14 11  1  1  0  0  0
 15 14  1  0  0  0  0
 15 13  1  1  0  0  0
 16  5  1  6  0  0  0
 16 17  1  0  0  0  0
 17 15  1  0  0  0  0
 19 20  1  0  0  0  0
 19 18  2  0  0  0  0
 20 21  1  0  0  0  0
 21 24  1  0  0  0  0
 23 24  1  0  0  0  0
 24 22  1  0  0  0  0
 25 24  2  0  0  0  0
 26 28  2  0  0  0  0
 27 28  1  0  0  0  0
 30 29  1  0  0  0  0
 30 31  1  0  0  0  0
 32 37  1  0  0  0  0
 33 36  1  0  0  0  0
 33 38  1  0  0  0  0
 34 35  2  0  0  0  0
 36 32  1  0  0  0  0
 36 38  1  0  0  0  0
 37 40  1  0  0  0  0
 38 37  1  0  0  0  0
 38 39  1  0  0  0  0
 39 34  1  0  0  0  0
 40 30  1  0  0  0  0
 40 34  1  0  0  0  0
M  END
>  <MODEL>
8

>  <REMARK>
 VINA RESULT:      -7.1      4.174      6.096
  Name = 
  9 active torsions:
  status: ('A' for Active; 'I' for Inactive)
    1  A    between atoms: C_1  and  C_14
    2  A    between atoms: C_1  and  O_25
    3  A    between atoms: O_5  and  C_7
    4  A    between atoms: O_5  and  C_27
    5  A    between atoms: C_7  and  C_39
    6  A    between atoms: C_11  and  C_24
    7  A    between atoms: P_17  and  O_25
    8  A    between atoms: C_22  and  C_38
    9  A    between atoms: C_31  and  C_37
                            x       y       z     vdW  Elec       q    Type
                         _______ _______ _______ _____ _____    ______ ____

>  <TORSDO>
F 9

$$$$
=
 OpenBabel11042418083D

 40 46  0  0  1  0  0  0  0  0999 V2000
  193.9940  171.2500  142.9050 C   0  0  0  0  0  2  0  0  0  0  0  0
  195.2600  171.9990  144.8870 C   0  0  1  0  0  3  0  0  0  0  0  0
  194.4470  173.2680  144.8760 C   0  0  0  0  0  3  0  0  0  0  0  0
  193.3440  172.6280  142.7300 C   0  0  2  0  0  3  0  0  0  0  0  0
  193.4940  173.5180  143.9570 C   0  0  0  0  0  0  0  0  0  0  0  0
  195.3870  171.3990  143.4920 C   0  0  0  0  0  2  0  0  0  0  0  0
  190.9510  175.9540  143.0300 C   0  0  0  0  0  2  0  0  0  0  0  0
  191.2420  176.2510  147.9140 C   0  0  0  0  0  2  0  0  0  0  0  0
  189.1930  176.0030  144.8910 C   0  0  1  0  0  3  0  0  0  0  0  0
  189.5130  176.3000  143.4190 C   0  0  0  0  0  2  0  0  0  0  0  0
  189.9590  176.1460  147.2430 N   0  0  0  0  0  2  0  0  0  0  0  0
  191.3760  174.7000  143.6550 N   0  0  1  0  0  0  0  0  0  0  0  0
  192.3060  176.3390  146.8390 C   0  0  0  0  0  2  0  0  0  0  0  0
  190.2290  176.5790  145.8800 C   0  0  1  0  0  3  0  0  0  0  0  0
  191.6300  176.2690  145.5550 N   0  0  2  0  0  0  0  0  0  0  0  0
  192.8000  174.8530  144.0020 C   0  0  1  0  0  3  0  0  0  0  0  0
  191.7940  174.8850  145.0710 C   0  0  2  0  0  3  0  0  0  0  0  0
  187.7990  176.4490  145.2260 C   0  0  0  0  0  3  0  0  0  0  0  0
  187.4850  177.7390  145.3700 C   0  0  0  0  0  3  0  0  0  0  0  0
  186.0920  178.1420  145.7160 C   0  0  0  0  0  2  0  0  0  0  0  0
  185.1920  177.5590  144.8190 O   0  0  0  0  0  0  0  0  0  0  0  0
  184.9010  180.0920  144.1730 O   0  0  0  0  0  1  0  0  0  0  0  0
  183.5290  178.3650  142.7740 O   0  0  0  0  0  1  0  0  0  0  0  0
  184.9740  178.7010  143.5850 P   0  0  0  0  0  0  0  0  0  0  0  0
  186.2590  178.6200  142.4850 O   0  0  0  0  0  0  0  0  0  0  0  0
  197.4820  171.3860  145.4190 O   0  0  0  0  0  0  0  0  0  0  0  0
  196.8800  173.5160  146.2020 C   0  0  0  0  0  1  0  0  0  0  0  0
  196.6060  172.2330  145.4960 C   0  0  0  0  0  0  0  0  0  0  0  0
  191.9970  172.4690  142.3840 O   0  0  0  0  0  0  0  0  0  0  0  0
  191.9740  172.4670  140.9810 C   0  0  2  0  0  3  0  0  0  0  0  0
  192.7030  173.6810  140.4370 C   0  0  0  0  0  1  0  0  0  0  0  0
  188.8240  174.0220  140.0710 C   0  0  0  0  0  2  0  0  0  0  0  0
  188.9930  174.1390  137.6520 O   0  0  0  0  0  0  0  0  0  0  0  0
  190.3440  171.3550  139.4020 C   0  0  0  0  0  0  0  0  0  0  0  0
  190.5250  170.1210  139.5810 O   0  0  0  0  0  0  0  0  0  0  0  0
  188.3360  173.5350  138.7250 C   0  0  1  0  0  3  0  0  0  0  0  0
  190.2050  173.6880  139.7800 N   0  0  2  0  0  0  0  0  0  0  0  0
  189.7890  173.2760  138.4360 C   0  0  2  0  0  0  0  0  0  0  0  0
  189.8740  171.8840  138.2210 O   0  0  0  0  0  0  0  0  0  0  0  0
  190.5400  172.4140  140.4460 C   0  0  2  0  0  3  0  0  0  0  0  0
  1  6  1  0  0  0  0
  2 28  1  6  0  0  0
  3  2  1  0  0  0  0
  4 29  1  1  0  0  0
  4  1  1  0  0  0  0
  4  5  1  0  0  0  0
  5  3  2  0  0  0  0
  6  2  1  0  0  0  0
  7 10  1  0  0  0  0
  9 18  1  1  0  0  0
  9 14  1  0  0  0  0
 10  9  1  0  0  0  0
 11  8  1  0  0  0  0
 12  7  1  6  0  0  0
 12 16  1  0  0  0  0
 12 17  1  0  0  0  0
 13  8  1  0  0  0  0
 14 11  1  1  0  0  0
 15 14  1  0  0  0  0
 15 13  1  1  0  0  0
 16  5  1  1  0  0  0
 16 17  1  0  0  0  0
 17 15  1  0  0  0  0
 18 19  2  0  0  0  0
 19 20  1  0  0  0  0
 21 20  1  0  0  0  0
 23 24  1  0  0  0  0
 24 22  1  0  0  0  0
 24 21  1  0  0  0  0
 25 24  2  0  0  0  0
 26 28  2  0  0  0  0
 28 27  1  0  0  0  0
 30 29  1  0  0  0  0
 31 30  1  0  0  0  0
 33 38  1  0  0  0  0
 33 36  1  0  0  0  0
 34 35  2  0  0  0  0
 34 40  1  0  0  0  0
 36 32  1  0  0  0  0
 37 32  1  0  0  0  0
 37 40  1  0  0  0  0
 38 36  1  0  0  0  0
 38 37  1  0  0  0  0
 39 38  1  0  0  0  0
 39 34  1  0  0  0  0
 40 30  1  0  0  0  0
M  END
>  <MODEL>
9

>  <REMARK>
 VINA RESULT:      -7.1      3.977      7.134
  Name = 
  9 active torsions:
  status: ('A' for Active; 'I' for Inactive)
    1  A    between atoms: C_1  and  C_14
    2  A    between atoms: C_1  and  O_25
    3  A    between atoms: O_5  and  C_7
    4  A    between atoms: O_5  and  C_27
    5  A    between atoms: C_7  and  C_39
    6  A    between atoms: C_11  and  C_24
    7  A    between atoms: P_17  and  O_25
    8  A    between atoms: C_22  and  C_38
    9  A    between atoms: C_31  and  C_37
                            x       y       z     vdW  Elec       q    Type
                         _______ _______ _______ _____ _____    ______ ____

>  <TORSDO>
F 9

$$$$
