=
 OpenBabel11042415173D

 45 52  0  0  1  0  0  0  0  0999 V2000
  190.4980  173.6180  143.7460 C   0  0  0  0  0  3  0  0  0  0  0  0
  188.4850  173.3830  139.9300 C   0  0  1  0  0  3  0  0  0  0  0  0
  188.4840  174.0360  138.6290 N   0  0  0  0  0  2  0  0  0  0  0  0
  191.5760  172.9940  144.2330 C   0  0  0  0  0  3  0  0  0  0  0  0
  189.5470  172.8680  142.8460 C   0  0  0  0  0  0  0  0  0  0  0  0
  190.0910  171.5100  140.7210 C   0  0  0  0  0  2  0  0  0  0  0  0
  190.2530  171.8030  142.0210 C   0  0  0  0  0  0  0  0  0  0  0  0
  189.2710  172.1840  139.7540 N   0  0  2  0  0  0  0  0  0  0  0  0
  188.4640  175.5620  140.8920 C   0  0  0  0  0  2  0  0  0  0  0  0
  188.5110  173.6530  142.1660 N   0  0  0  0  0  0  0  0  0  0  0  0
  189.4230  171.8550  138.4060 N   0  0  0  0  0  2  0  0  0  0  0  0
  188.0780  175.9940  142.2800 C   0  0  2  0  0  3  0  0  0  0  0  0
  187.9700  174.7000  143.0290 C   0  0  0  0  0  2  0  0  0  0  0  0
  191.3150  171.0720  142.7270 C   0  0  0  0  0  3  0  0  0  0  0  0
  191.9170  171.6140  143.7940 C   0  0  0  0  0  0  0  0  0  0  0  0
  189.0340  174.2270  140.9930 N   0  0  1  0  0  0  0  0  0  0  0  0
  188.7750  172.9510  137.6910 C   0  0  0  0  0  2  0  0  0  0  0  0
  186.7730  176.6560  142.2320 C   0  0  0  0  0  0  0  0  0  0  0  0
  185.7050  177.2190  142.2080 C   0  0  0  0  0  0  0  0  0  0  0  0
  184.4220  177.9190  142.2230 C   0  0  0  0  0  2  0  0  0  0  0  0
  184.2290  178.6280  143.5540 C   0  0  0  0  0  2  0  0  0  0  0  0
  185.5480  179.2170  144.0670 C   0  0  1  0  0  3  0  0  0  0  0  0
  185.5100  180.6020  143.9260 O   0  0  0  0  0  1  0  0  0  0  0  0
  186.8750  176.8710  146.8220 C   0  0  0  0  0  0  0  0  0  0  0  0
  188.1160  178.0430  145.1720 O   0  0  0  0  0  1  0  0  0  0  0  0
  184.9930  178.1860  147.7510 C   0  0  0  0  0  2  0  0  0  0  0  0
  184.6130  178.5030  146.3080 C   0  0  0  0  0  2  0  0  0  0  0  0
  187.8160  175.8700  146.9740 O   0  0  0  0  0  1  0  0  0  0  0  0
  186.8280  177.6380  145.5190 C   0  0  2  0  0  3  0  0  0  0  0  0
  185.8760  178.8440  145.5180 C   0  0  1  0  0  3  0  0  0  0  0  0
  186.0150  177.0950  147.8120 C   0  0  0  0  0  3  0  0  0  0  0  0
  192.9700  170.8810  144.4180 N   0  0  0  0  0  2  0  0  0  0  0  0
  194.2370  170.7340  143.8310 N   0  0  0  0  0  0  0  0  0  0  0  0
  195.2450  171.4430  144.2370 C   0  0  0  0  0  3  0  0  0  0  0  0
  196.1410  174.3220  145.4810 C   0  0  1  0  0  0  0  0  0  0  0  0
  195.0940  172.4380  145.3500 C   0  0  1  0  0  3  0  0  0  0  0  0
  194.8300  174.0930  143.4690 O   0  0  0  0  0  1  0  0  0  0  0  0
  194.8320  175.0140  145.8290 C   0  0  2  0  0  3  0  0  0  0  0  0
  196.4310  172.8810  145.8900 C   0  0  0  0  0  2  0  0  0  0  0  0
  194.8050  173.8520  144.8530 C   0  0  2  0  0  0  0  0  0  0  0  0
  196.9970  174.8710  144.5150 O   0  0  0  0  0  1  0  0  0  0  0  0
  194.4600  176.3470  145.1520 C   0  0  2  0  0  0  0  0  0  0  0  0
  194.8310  177.5760  145.8720 C   0  0  0  0  0  2  0  0  0  0  0  0
  193.1510  176.4460  144.3940 C   0  0  0  0  0  1  0  0  0  0  0  0
  195.4690  177.1870  144.6810 O   0  0  0  0  0  0  0  0  0  0  0  0
  1  4  1  0  0  0  0
  2  3  1  6  0  0  0
  2 16  1  0  0  0  0
  5  1  2  0  0  0  0
  6  7  1  0  0  0  0
  7 14  2  0  0  0  0
  7  5  1  0  0  0  0
  8  2  1  0  0  0  0
  8  6  1  6  0  0  0
  9 12  1  0  0  0  0
 10  5  1  0  0  0  0
 10 13  1  0  0  0  0
 11  8  1  0  0  0  0
 12 18  1  6  0  0  0
 12 13  1  0  0  0  0
 14 15  1  0  0  0  0
 15  4  2  0  0  0  0
 15 32  1  0  0  0  0
 16  9  1  6  0  0  0
 16 10  1  0  0  0  0
 17 11  1  0  0  0  0
 17  3  1  0  0  0  0
 19 20  1  0  0  0  0
 19 18  3  0  0  0  0
 20 21  1  0  0  0  0
 21 22  1  0  0  0  0
 22 23  1  1  0  0  0
 24 28  1  0  0  0  0
 24 31  2  0  0  0  0
 26 31  1  0  0  0  0
 27 26  1  0  0  0  0
 29 25  1  1  0  0  0
 29 24  1  0  0  0  0
 30 22  1  6  0  0  0
 30 29  1  0  0  0  0
 30 27  1  0  0  0  0
 33 34  2  0  0  0  0
 33 32  1  0  0  0  0
 35 41  1  6  0  0  0
 35 38  1  0  0  0  0
 35 39  1  0  0  0  0
 36 34  1  6  0  0  0
 36 39  1  0  0  0  0
 38 42  1  6  0  0  0
 40 37  1  6  0  0  0
 40 36  1  0  0  0  0
 40 35  1  0  0  0  0
 40 38  1  0  0  0  0
 42 44  1  6  0  0  0
 42 43  1  0  0  0  0
 45 42  1  0  0  0  0
 45 43  1  0  0  0  0
M  END
>  <MODEL>
1

>  <REMARK>
 VINA RESULT:      -8.6      0.000      0.000
  Name = 
  9 active torsions:
  status: ('A' for Active; 'I' for Inactive)
    1  A    between atoms: C_1  and  C_36
    2  A    between atoms: C_1  and  C_39
    3  A    between atoms: C_2  and  C_39
    4  A    between atoms: C_2  and  C_45
    5  A    between atoms: C_7  and  C_24
    6  A    between atoms: C_13  and  C_16
    7  A    between atoms: N_22  and  N_44
    8  A    between atoms: C_29  and  C_43
    9  A    between atoms: C_35  and  N_44
                            x       y       z     vdW  Elec       q    Type
                         _______ _______ _______ _____ _____    ______ ____

>  <TORSDO>
F 9

$$$$
=
 OpenBabel11042415173D

 45 52  0  0  1  0  0  0  0  0999 V2000
  190.6520  175.0590  146.7500 C   0  0  0  0  0  3  0  0  0  0  0  0
  191.5730  173.6850  142.7580 C   0  0  1  0  0  3  0  0  0  0  0  0
  191.7970  172.4430  142.0310 N   0  0  0  0  0  2  0  0  0  0  0  0
  189.4940  175.3310  147.3610 C   0  0  0  0  0  3  0  0  0  0  0  0
  190.8190  175.3950  145.2880 C   0  0  0  0  0  0  0  0  0  0  0  0
  189.2820  174.7600  143.3160 C   0  0  0  0  0  2  0  0  0  0  0  0
  189.5080  175.3020  144.5220 C   0  0  0  0  0  0  0  0  0  0  0  0
  190.2040  174.0510  142.4740 N   0  0  2  0  0  0  0  0  0  0  0  0
  193.0440  172.8340  144.4270 C   0  0  0  0  0  2  0  0  0  0  0  0
  192.0150  174.8780  144.6150 N   0  0  0  0  0  0  0  0  0  0  0  0
  189.7050  173.3730  141.3600 N   0  0  0  0  0  2  0  0  0  0  0  0
  193.7940  173.5650  145.5060 C   0  0  2  0  0  3  0  0  0  0  0  0
  193.1920  174.9380  145.4800 C   0  0  0  0  0  2  0  0  0  0  0  0
  188.3270  175.7890  145.2490 C   0  0  0  0  0  3  0  0  0  0  0  0
  188.3290  175.8390  146.5880 C   0  0  0  0  0  0  0  0  0  0  0  0
  191.7980  173.5520  144.1980 N   0  0  1  0  0  0  0  0  0  0  0  0
  190.7820  172.4660  140.9750 C   0  0  0  0  0  2  0  0  0  0  0  0
  195.2120  173.6330  145.1440 C   0  0  0  0  0  0  0  0  0  0  0  0
  196.3750  173.7080  144.8320 C   0  0  0  0  0  0  0  0  0  0  0  0
  197.7710  173.8200  144.4130 C   0  0  0  0  0  2  0  0  0  0  0  0
  197.9410  175.0040  143.4740 C   0  0  0  0  0  2  0  0  0  0  0  0
  196.6000  175.6930  143.1990 C   0  0  1  0  0  3  0  0  0  0  0  0
  196.6030  176.9480  143.8040 O   0  0  0  0  0  1  0  0  0  0  0  0
  194.5300  174.9290  140.0390 C   0  0  0  0  0  0  0  0  0  0  0  0
  193.8980  176.2210  141.9280 O   0  0  0  0  0  1  0  0  0  0  0  0
  196.8920  175.2630  139.3680 C   0  0  0  0  0  2  0  0  0  0  0  0
  197.2490  175.0560  140.8370 C   0  0  0  0  0  2  0  0  0  0  0  0
  193.2340  174.5940  139.6980 O   0  0  0  0  0  1  0  0  0  0  0  0
  194.8380  175.2960  141.4740 C   0  0  2  0  0  3  0  0  0  0  0  0
  196.2600  175.8280  141.7100 C   0  0  1  0  0  3  0  0  0  0  0  0
  195.4720  174.8760  139.1000 C   0  0  0  0  0  3  0  0  0  0  0  0
  187.1430  176.2790  147.2470 N   0  0  0  0  0  2  0  0  0  0  0  0
  186.9600  177.6060  147.6680 N   0  0  0  0  0  0  0  0  0  0  0  0
  186.0060  178.3350  147.1750 C   0  0  0  0  0  3  0  0  0  0  0  0
  184.3830  178.8460  144.3910 C   0  0  1  0  0  0  0  0  0  0  0  0
  185.0630  177.7840  146.1450 C   0  0  1  0  0  3  0  0  0  0  0  0
  186.7830  178.6320  144.5110 O   0  0  0  0  0  1  0  0  0  0  0  0
  184.6730  177.6140  143.5460 C   0  0  2  0  0  3  0  0  0  0  0  0
  183.9380  178.7430  145.8470 C   0  0  0  0  0  2  0  0  0  0  0  0
  185.5870  177.9260  144.7190 C   0  0  2  0  0  0  0  0  0  0  0  0
  184.8070  180.1120  143.9650 O   0  0  0  0  0  1  0  0  0  0  0  0
  185.3980  177.7590  142.1940 C   0  0  2  0  0  0  0  0  0  0  0  0
  184.5610  178.1070  141.0340 C   0  0  0  0  0  2  0  0  0  0  0  0
  186.5460  176.8240  141.8710 C   0  0  0  0  0  1  0  0  0  0  0  0
  185.4810  179.0130  141.5880 O   0  0  0  0  0  0  0  0  0  0  0  0
  1  4  1  0  0  0  0
  2  3  1  6  0  0  0
  2 16  1  0  0  0  0
  5  1  2  0  0  0  0
  6  7  1  0  0  0  0
  7 14  2  0  0  0  0
  7  5  1  0  0  0  0
  8  2  1  0  0  0  0
  8  6  1  1  0  0  0
  9 12  1  0  0  0  0
 10  5  1  0  0  0  0
 10 13  1  0  0  0  0
 11  8  1  0  0  0  0
 12 18  1  6  0  0  0
 13 12  1  0  0  0  0
 14 15  1  0  0  0  0
 15 32  1  0  0  0  0
 15  4  2  0  0  0  0
 16  9  1  6  0  0  0
 16 10  1  0  0  0  0
 17 11  1  0  0  0  0
 17  3  1  0  0  0  0
 19 18  3  0  0  0  0
 20 19  1  0  0  0  0
 21 20  1  0  0  0  0
 22 21  1  0  0  0  0
 22 23  1  6  0  0  0
 24 29  1  0  0  0  0
 26 27  1  0  0  0  0
 27 30  1  0  0  0  0
 28 24  1  0  0  0  0
 29 30  1  0  0  0  0
 29 25  1  6  0  0  0
 30 22  1  1  0  0  0
 31 26  1  0  0  0  0
 31 24  2  0  0  0  0
 32 33  1  0  0  0  0
 34 33  2  0  0  0  0
 35 41  1  6  0  0  0
 35 40  1  0  0  0  0
 35 39  1  0  0  0  0
 36 34  1  1  0  0  0
 38 42  1  6  0  0  0
 38 35  1  0  0  0  0
 38 40  1  0  0  0  0
 39 36  1  0  0  0  0
 40 37  1  6  0  0  0
 40 36  1  0  0  0  0
 42 44  1  6  0  0  0
 43 45  1  0  0  0  0
 43 42  1  0  0  0  0
 45 42  1  0  0  0  0
M  END
>  <MODEL>
2

>  <REMARK>
 VINA RESULT:      -8.5      2.930      9.446
  Name = 
  9 active torsions:
  status: ('A' for Active; 'I' for Inactive)
    1  A    between atoms: C_1  and  C_36
    2  A    between atoms: C_1  and  C_39
    3  A    between atoms: C_2  and  C_39
    4  A    between atoms: C_2  and  C_45
    5  A    between atoms: C_7  and  C_24
    6  A    between atoms: C_13  and  C_16
    7  A    between atoms: N_22  and  N_44
    8  A    between atoms: C_29  and  C_43
    9  A    between atoms: C_35  and  N_44
                            x       y       z     vdW  Elec       q    Type
                         _______ _______ _______ _____ _____    ______ ____

>  <TORSDO>
F 9

$$$$
=
 OpenBabel11042415173D

 45 52  0  0  1  0  0  0  0  0999 V2000
  191.4030  172.2270  144.1570 C   0  0  0  0  0  3  0  0  0  0  0  0
  192.6540  176.1010  145.6050 C   0  0  1  0  0  3  0  0  0  0  0  0
  193.1110  176.7370  146.8330 N   0  0  0  0  0  2  0  0  0  0  0  0
  192.0730  171.2260  143.5770 C   0  0  0  0  0  3  0  0  0  0  0  0
  191.7720  173.6550  143.8350 C   0  0  0  0  0  0  0  0  0  0  0  0
  194.1010  174.7610  143.9240 C   0  0  0  0  0  2  0  0  0  0  0  0
  193.2510  173.8080  143.5130 C   0  0  0  0  0  0  0  0  0  0  0  0
  193.8530  175.8360  144.8440 N   0  0  2  0  0  0  0  0  0  0  0  0
  190.9250  175.1040  146.9060 C   0  0  0  0  0  2  0  0  0  0  0  0
  191.1620  174.7050  144.6570 N   0  0  0  0  0  0  0  0  0  0  0  0
  194.9380  176.5810  145.3080 N   0  0  0  0  0  2  0  0  0  0  0  0
  189.6220  174.4980  146.4640 C   0  0  2  0  0  3  0  0  0  0  0  0
  189.7680  174.4030  144.9760 C   0  0  0  0  0  2  0  0  0  0  0  0
  193.8330  172.7110  142.7260 C   0  0  0  0  0  3  0  0  0  0  0  0
  193.2600  171.5010  142.7230 C   0  0  0  0  0  0  0  0  0  0  0  0
  191.8960  174.8720  145.8460 N   0  0  1  0  0  0  0  0  0  0  0  0
  194.4210  177.2850  146.4770 C   0  0  0  0  0  2  0  0  0  0  0  0
  188.5280  175.4100  146.8040 C   0  0  0  0  0  0  0  0  0  0  0  0
  187.6120  176.1510  147.0660 C   0  0  0  0  0  0  0  0  0  0  0  0
  186.4870  177.0450  147.3380 C   0  0  0  0  0  2  0  0  0  0  0  0
  185.4960  177.0040  146.1850 C   0  0  0  0  0  2  0  0  0  0  0  0
  185.0730  178.4170  145.7670 C   0  0  1  0  0  3  0  0  0  0  0  0
  185.6590  179.3390  146.6320 O   0  0  0  0  0  1  0  0  0  0  0  0
  184.6060  178.1810  141.9490 C   0  0  0  0  0  0  0  0  0  0  0  0
  183.1880  179.2320  143.5360 O   0  0  0  0  0  1  0  0  0  0  0  0
  187.0160  178.4960  142.4260 C   0  0  0  0  0  2  0  0  0  0  0  0
  186.7000  178.0770  143.8590 C   0  0  0  0  0  2  0  0  0  0  0  0
  183.5950  177.9530  141.0350 O   0  0  0  0  0  1  0  0  0  0  0  0
  184.2490  178.3360  143.4110 C   0  0  2  0  0  3  0  0  0  0  0  0
  185.4150  178.7670  144.3140 C   0  0  1  0  0  3  0  0  0  0  0  0
  185.8640  178.2120  141.5150 C   0  0  0  0  0  3  0  0  0  0  0  0
  193.8880  170.4590  141.9770 N   0  0  0  0  0  2  0  0  0  0  0  0
  193.1990  169.3100  141.5580 N   0  0  0  0  0  0  0  0  0  0  0  0
  192.4850  169.3200  140.4740 C   0  0  0  0  0  3  0  0  0  0  0  0
  190.6700  171.0880  138.4190 C   0  0  1  0  0  0  0  0  0  0  0  0
  192.3790  170.5560  139.6290 C   0  0  1  0  0  3  0  0  0  0  0  0
  190.1380  170.8030  140.7550 O   0  0  0  0  0  1  0  0  0  0  0  0
  190.7310  172.5040  138.9730 C   0  0  2  0  0  3  0  0  0  0  0  0
  191.9220  170.2380  138.2270 C   0  0  0  0  0  2  0  0  0  0  0  0
  191.0980  171.3470  139.8860 C   0  0  2  0  0  0  0  0  0  0  0  0
  189.4470  170.4060  138.3550 O   0  0  0  0  0  1  0  0  0  0  0  0
  189.4400  173.2110  139.4270 C   0  0  2  0  0  0  0  0  0  0  0  0
  188.6830  173.9270  138.3880 C   0  0  0  0  0  2  0  0  0  0  0  0
  189.4070  173.8790  140.7880 C   0  0  0  0  0  1  0  0  0  0  0  0
  188.2040  172.7460  138.9790 O   0  0  0  0  0  0  0  0  0  0  0  0
  2 16  1  0  0  0  0
  2  3  1  1  0  0  0
  4  1  2  0  0  0  0
  5  1  1  0  0  0  0
  5 10  1  0  0  0  0
  7  5  2  0  0  0  0
  7  6  1  0  0  0  0
  8  6  1  1  0  0  0
  8 11  1  0  0  0  0
  8  2  1  0  0  0  0
 10 13  1  0  0  0  0
 10 16  1  0  0  0  0
 11 17  1  0  0  0  0
 12 18  1  6  0  0  0
 12  9  1  0  0  0  0
 13 12  1  0  0  0  0
 14  7  1  0  0  0  0
 15 14  2  0  0  0  0
 15  4  1  0  0  0  0
 16  9  1  1  0  0  0
 17  3  1  0  0  0  0
 18 19  3  0  0  0  0
 19 20  1  0  0  0  0
 21 20  1  0  0  0  0
 22 21  1  0  0  0  0
 22 23  1  1  0  0  0
 24 29  1  0  0  0  0
 26 27  1  0  0  0  0
 27 30  1  0  0  0  0
 28 24  1  0  0  0  0
 29 25  1  6  0  0  0
 29 30  1  0  0  0  0
 30 22  1  1  0  0  0
 31 24  2  0  0  0  0
 31 26  1  0  0  0  0
 32 15  1  0  0  0  0
 33 32  1  0  0  0  0
 34 33  2  0  0  0  0
 35 41  1  6  0  0  0
 35 38  1  0  0  0  0
 35 40  1  0  0  0  0
 36 40  1  0  0  0  0
 36 34  1  1  0  0  0
 38 42  1  1  0  0  0
 38 40  1  0  0  0  0
 39 35  1  0  0  0  0
 39 36  1  0  0  0  0
 40 37  1  1  0  0  0
 42 44  1  1  0  0  0
 43 45  1  0  0  0  0
 43 42  1  0  0  0  0
 45 42  1  0  0  0  0
M  END
>  <MODEL>
3

>  <REMARK>
 VINA RESULT:      -8.4      3.259      6.333
  Name = 
  9 active torsions:
  status: ('A' for Active; 'I' for Inactive)
    1  A    between atoms: C_1  and  C_36
    2  A    between atoms: C_1  and  C_39
    3  A    between atoms: C_2  and  C_39
    4  A    between atoms: C_2  and  C_45
    5  A    between atoms: C_7  and  C_24
    6  A    between atoms: C_13  and  C_16
    7  A    between atoms: N_22  and  N_44
    8  A    between atoms: C_29  and  C_43
    9  A    between atoms: C_35  and  N_44
                            x       y       z     vdW  Elec       q    Type
                         _______ _______ _______ _____ _____    ______ ____

>  <TORSDO>
F 9

$$$$
=
 OpenBabel11042415173D

 45 52  0  0  1  0  0  0  0  0999 V2000
  188.6910  174.6340  141.0370 C   0  0  0  0  0  3  0  0  0  0  0  0
  192.2830  174.6290  143.4390 C   0  0  1  0  0  3  0  0  0  0  0  0
  193.7290  174.6890  143.2800 N   0  0  0  0  0  2  0  0  0  0  0  0
  187.8850  175.6190  140.6300 C   0  0  0  0  0  3  0  0  0  0  0  0
  189.3110  174.6990  142.4120 C   0  0  0  0  0  0  0  0  0  0  0  0
  190.6440  176.6350  143.4740 C   0  0  0  0  0  2  0  0  0  0  0  0
  189.5610  176.1300  142.8640 C   0  0  0  0  0  0  0  0  0  0  0  0
  191.8810  175.9730  143.7820 N   0  0  2  0  0  0  0  0  0  0  0  0
  192.2820  172.9870  141.7130 C   0  0  0  0  0  2  0  0  0  0  0  0
  190.3530  173.7150  142.7230 N   0  0  0  0  0  0  0  0  0  0  0  0
  192.9600  176.7440  144.2160 N   0  0  0  0  0  2  0  0  0  0  0  0
  191.2320  171.9710  141.3580 C   0  0  2  0  0  3  0  0  0  0  0  0
  190.0440  172.4010  142.1630 C   0  0  0  0  0  2  0  0  0  0  0  0
  188.5140  177.0920  142.4920 C   0  0  0  0  0  3  0  0  0  0  0  0
  187.6960  176.8380  141.4620 C   0  0  0  0  0  0  0  0  0  0  0  0
  191.5950  174.1600  142.2350 N   0  0  1  0  0  0  0  0  0  0  0  0
  194.1180  175.8700  144.0540 C   0  0  0  0  0  2  0  0  0  0  0  0
  191.6790  170.6460  141.7930 C   0  0  0  0  0  0  0  0  0  0  0  0
  192.0610  169.5640  142.1680 C   0  0  0  0  0  0  0  0  0  0  0  0
  192.5640  168.2750  142.6400 C   0  0  0  0  0  2  0  0  0  0  0  0
  193.8140  168.4770  143.4800 C   0  0  0  0  0  2  0  0  0  0  0  0
  193.4790  169.1290  144.8270 C   0  0  1  0  0  3  0  0  0  0  0  0
  192.9290  168.1660  145.6710 O   0  0  0  0  0  1  0  0  0  0  0  0
  196.1640  171.8700  145.1850 C   0  0  0  0  0  0  0  0  0  0  0  0
  193.8250  172.0520  145.5520 O   0  0  0  0  0  1  0  0  0  0  0  0
  197.1180  169.7290  145.9860 C   0  0  0  0  0  2  0  0  0  0  0  0
  195.9730  169.0410  145.2480 C   0  0  0  0  0  2  0  0  0  0  0  0
  196.3320  173.2090  144.8880 O   0  0  0  0  0  1  0  0  0  0  0  0
  194.8040  171.2400  144.9800 C   0  0  2  0  0  3  0  0  0  0  0  0
  194.6750  169.8040  145.5090 C   0  0  1  0  0  3  0  0  0  0  0  0
  197.2170  171.1710  145.6010 C   0  0  0  0  0  3  0  0  0  0  0  0
  186.7240  177.8230  141.1150 N   0  0  0  0  0  2  0  0  0  0  0  0
  185.3450  177.6060  141.2590 N   0  0  0  0  0  0  0  0  0  0  0  0
  184.6920  178.1120  142.2610 C   0  0  0  0  0  3  0  0  0  0  0  0
  184.8890  178.9980  145.3940 C   0  0  1  0  0  0  0  0  0  0  0  0
  185.3870  178.9520  143.2930 C   0  0  1  0  0  3  0  0  0  0  0  0
  185.4680  176.7970  144.5960 O   0  0  0  0  0  1  0  0  0  0  0  0
  186.3660  178.8730  145.7370 C   0  0  2  0  0  3  0  0  0  0  0  0
  184.4060  179.7220  144.1410 C   0  0  0  0  0  2  0  0  0  0  0  0
  185.8370  178.1490  144.5110 C   0  0  2  0  0  0  0  0  0  0  0  0
  183.9410  178.1970  146.0460 O   0  0  0  0  0  1  0  0  0  0  0  0
  186.8230  177.8940  146.8350 C   0  0  2  0  0  0  0  0  0  0  0  0
  186.9120  178.4330  148.2010 C   0  0  0  0  0  2  0  0  0  0  0  0
  187.8860  176.8640  146.5050 C   0  0  0  0  0  1  0  0  0  0  0  0
  185.9260  177.5040  147.8290 O   0  0  0  0  0  0  0  0  0  0  0  0
  1  5  1  0  0  0  0
  2  3  1  6  0  0  0
  2  8  1  0  0  0  0
  3 17  1  0  0  0  0
  4  1  2  0  0  0  0
  4 15  1  0  0  0  0
  5 10  1  0  0  0  0
  5  7  2  0  0  0  0
  7  6  1  0  0  0  0
  8  6  1  6  0  0  0
  8 11  1  0  0  0  0
 12  9  1  0  0  0  0
 12 18  1  1  0  0  0
 12 13  1  0  0  0  0
 13 10  1  0  0  0  0
 14  7  1  0  0  0  0
 15 14  2  0  0  0  0
 16  9  1  1  0  0  0
 16 10  1  0  0  0  0
 16  2  1  0  0  0  0
 17 11  1  0  0  0  0
 18 19  3  0  0  0  0
 19 20  1  0  0  0  0
 20 21  1  0  0  0  0
 21 22  1  0  0  0  0
 22 23  1  1  0  0  0
 24 31  2  0  0  0  0
 27 30  1  0  0  0  0
 27 26  1  0  0  0  0
 28 24  1  0  0  0  0
 29 24  1  0  0  0  0
 29 30  1  0  0  0  0
 29 25  1  1  0  0  0
 30 22  1  6  0  0  0
 31 26  1  0  0  0  0
 32 33  1  0  0  0  0
 32 15  1  0  0  0  0
 33 34  2  0  0  0  0
 35 38  1  0  0  0  0
 35 41  1  1  0  0  0
 36 34  1  6  0  0  0
 36 39  1  0  0  0  0
 36 40  1  0  0  0  0
 38 42  1  1  0  0  0
 39 35  1  0  0  0  0
 40 37  1  6  0  0  0
 40 35  1  0  0  0  0
 40 38  1  0  0  0  0
 42 44  1  6  0  0  0
 42 45  1  0  0  0  0
 42 43  1  0  0  0  0
 45 43  1  0  0  0  0
M  END
>  <MODEL>
4

>  <REMARK>
 VINA RESULT:      -7.9      2.615      9.623
  Name = 
  9 active torsions:
  status: ('A' for Active; 'I' for Inactive)
    1  A    between atoms: C_1  and  C_36
    2  A    between atoms: C_1  and  C_39
    3  A    between atoms: C_2  and  C_39
    4  A    between atoms: C_2  and  C_45
    5  A    between atoms: C_7  and  C_24
    6  A    between atoms: C_13  and  C_16
    7  A    between atoms: N_22  and  N_44
    8  A    between atoms: C_29  and  C_43
    9  A    between atoms: C_35  and  N_44
                            x       y       z     vdW  Elec       q    Type
                         _______ _______ _______ _____ _____    ______ ____

>  <TORSDO>
F 9

$$$$
=
 OpenBabel11042415173D

 45 52  0  0  1  0  0  0  0  0999 V2000
  189.5080  175.0400  144.3370 C   0  0  0  0  0  3  0  0  0  0  0  0
  193.7280  175.7720  144.9100 C   0  0  1  0  0  3  0  0  0  0  0  0
  194.7860  176.6390  144.4100 N   0  0  0  0  0  2  0  0  0  0  0  0
  188.4220  175.5180  144.9530 C   0  0  0  0  0  3  0  0  0  0  0  0
  190.7580  174.7640  145.1380 C   0  0  0  0  0  0  0  0  0  0  0  0
  192.0010  176.3440  146.7550 C   0  0  0  0  0  2  0  0  0  0  0  0
  190.9010  175.7070  146.3230 C   0  0  0  0  0  0  0  0  0  0  0  0
  193.3070  176.3660  146.1570 N   0  0  2  0  0  0  0  0  0  0  0  0
  193.1200  175.4040  142.6370 C   0  0  0  0  0  2  0  0  0  0  0  0
  191.9790  174.4540  144.3880 N   0  0  0  0  0  0  0  0  0  0  0  0
  194.2480  177.2740  146.6450 N   0  0  0  0  0  2  0  0  0  0  0  0
  192.2990  174.2990  142.0310 C   0  0  2  0  0  3  0  0  0  0  0  0
  191.7020  173.6150  143.2230 C   0  0  0  0  0  2  0  0  0  0  0  0
  189.6470  176.0270  147.0200 C   0  0  0  0  0  3  0  0  0  0  0  0
  188.4720  175.9040  146.3890 C   0  0  0  0  0  0  0  0  0  0  0  0
  192.6070  175.6440  143.9780 N   0  0  1  0  0  0  0  0  0  0  0  0
  195.2740  177.3240  145.6090 C   0  0  0  0  0  2  0  0  0  0  0  0
  193.1850  173.3780  141.3160 C   0  0  0  0  0  0  0  0  0  0  0  0
  193.9170  172.6350  140.7090 C   0  0  0  0  0  0  0  0  0  0  0  0
  194.7900  171.7570  139.9320 C   0  0  0  0  0  2  0  0  0  0  0  0
  196.2470  172.0360  140.2680 C   0  0  0  0  0  2  0  0  0  0  0  0
  196.6520  171.3650  141.5850 C   0  0  1  0  0  3  0  0  0  0  0  0
  197.4410  170.2520  141.3010 O   0  0  0  0  0  1  0  0  0  0  0  0
  197.1890  173.0660  145.0010 C   0  0  0  0  0  0  0  0  0  0  0  0
  197.5320  170.7880  144.4280 O   0  0  0  0  0  1  0  0  0  0  0  0
  197.8900  174.6410  143.2220 C   0  0  0  0  0  2  0  0  0  0  0  0
  197.1020  173.7640  142.2530 C   0  0  0  0  0  2  0  0  0  0  0  0
  196.9640  172.8080  146.3400 O   0  0  0  0  0  1  0  0  0  0  0  0
  196.9320  171.9690  143.9920 C   0  0  2  0  0  3  0  0  0  0  0  0
  197.3850  172.2940  142.5600 C   0  0  1  0  0  3  0  0  0  0  0  0
  197.5820  174.2860  144.6420 C   0  0  0  0  0  3  0  0  0  0  0  0
  187.2870  176.2680  147.0950 N   0  0  0  0  0  2  0  0  0  0  0  0
  187.0710  177.5640  147.5890 N   0  0  0  0  0  0  0  0  0  0  0  0
  186.0820  178.2860  147.1570 C   0  0  0  0  0  3  0  0  0  0  0  0
  184.5020  178.8300  144.3560 C   0  0  1  0  0  0  0  0  0  0  0  0
  185.1330  177.7570  146.1210 C   0  0  1  0  0  3  0  0  0  0  0  0
  186.8930  178.5470  144.5000 O   0  0  0  0  0  1  0  0  0  0  0  0
  184.7640  177.5870  143.5190 C   0  0  2  0  0  3  0  0  0  0  0  0
  184.0390  178.7470  145.8080 C   0  0  0  0  0  2  0  0  0  0  0  0
  185.6750  177.8770  144.6990 C   0  0  2  0  0  0  0  0  0  0  0  0
  184.9660  180.0820  143.9280 O   0  0  0  0  0  1  0  0  0  0  0  0
  185.5050  177.7040  142.1730 C   0  0  2  0  0  0  0  0  0  0  0  0
  184.6870  178.0540  141.0010 C   0  0  0  0  0  2  0  0  0  0  0  0
  186.6400  176.7450  141.8720 C   0  0  0  0  0  1  0  0  0  0  0  0
  185.6180  178.9490  141.5540 O   0  0  0  0  0  0  0  0  0  0  0  0
  1  4  2  0  0  0  0
  1  5  1  0  0  0  0
  2  3  1  6  0  0  0
  2  8  1  0  0  0  0
  3 17  1  0  0  0  0
  4 15  1  0  0  0  0
  5  7  2  0  0  0  0
  7  6  1  0  0  0  0
  7 14  1  0  0  0  0
  8 11  1  0  0  0  0
  8  6  1  6  0  0  0
 10  5  1  0  0  0  0
 12 18  1  1  0  0  0
 12  9  1  0  0  0  0
 12 13  1  0  0  0  0
 13 10  1  0  0  0  0
 15 14  2  0  0  0  0
 15 32  1  0  0  0  0
 16  9  1  6  0  0  0
 16 10  1  0  0  0  0
 16  2  1  0  0  0  0
 17 11  1  0  0  0  0
 19 18  3  0  0  0  0
 20 21  1  0  0  0  0
 20 19  1  0  0  0  0
 21 22  1  0  0  0  0
 22 23  1  6  0  0  0
 24 28  1  0  0  0  0
 26 31  1  0  0  0  0
 27 30  1  0  0  0  0
 27 26  1  0  0  0  0
 29 25  1  1  0  0  0
 29 24  1  0  0  0  0
 30 22  1  6  0  0  0
 30 29  1  0  0  0  0
 31 24  2  0  0  0  0
 32 33  1  0  0  0  0
 34 33  2  0  0  0  0
 35 41  1  6  0  0  0
 35 40  1  0  0  0  0
 35 39  1  0  0  0  0
 36 34  1  1  0  0  0
 38 42  1  6  0  0  0
 38 35  1  0  0  0  0
 38 40  1  0  0  0  0
 39 36  1  0  0  0  0
 40 37  1  6  0  0  0
 40 36  1  0  0  0  0
 42 44  1  6  0  0  0
 43 45  1  0  0  0  0
 43 42  1  0  0  0  0
 45 42  1  0  0  0  0
M  END
>  <MODEL>
5

>  <REMARK>
 VINA RESULT:      -7.8      3.200     10.083
  Name = 
  9 active torsions:
  status: ('A' for Active; 'I' for Inactive)
    1  A    between atoms: C_1  and  C_36
    2  A    between atoms: C_1  and  C_39
    3  A    between atoms: C_2  and  C_39
    4  A    between atoms: C_2  and  C_45
    5  A    between atoms: C_7  and  C_24
    6  A    between atoms: C_13  and  C_16
    7  A    between atoms: N_22  and  N_44
    8  A    between atoms: C_29  and  C_43
    9  A    between atoms: C_35  and  N_44
                            x       y       z     vdW  Elec       q    Type
                         _______ _______ _______ _____ _____    ______ ____

>  <TORSDO>
F 9

$$$$
=
 OpenBabel11042415173D

 45 52  0  0  1  0  0  0  0  0999 V2000
  192.1430  174.0030  145.3850 C   0  0  0  0  0  3  0  0  0  0  0  0
  189.0120  174.1660  142.4120 C   0  0  1  0  0  3  0  0  0  0  0  0
  188.6420  174.9220  141.2240 N   0  0  0  0  0  2  0  0  0  0  0  0
  193.2750  173.2950  145.4590 C   0  0  0  0  0  3  0  0  0  0  0  0
  190.9070  173.3700  144.7930 C   0  0  0  0  0  0  0  0  0  0  0  0
  190.6560  172.1670  142.5260 C   0  0  0  0  0  2  0  0  0  0  0  0
  191.2410  172.3460  143.7200 C   0  0  0  0  0  0  0  0  0  0  0  0
  189.6190  172.9520  141.9180 N   0  0  2  0  0  0  0  0  0  0  0  0
  189.4440  176.2590  143.4640 C   0  0  0  0  0  2  0  0  0  0  0  0
  189.7640  174.2520  144.5330 N   0  0  0  0  0  0  0  0  0  0  0  0
  189.3120  172.7270  140.5750 N   0  0  0  0  0  2  0  0  0  0  0  0
  189.5490  176.5930  144.9270 C   0  0  2  0  0  3  0  0  0  0  0  0
  189.5960  175.2490  145.5890 C   0  0  0  0  0  2  0  0  0  0  0  0
  192.4200  171.5140  144.0000 C   0  0  0  0  0  3  0  0  0  0  0  0
  193.3650  171.9410  144.8490 C   0  0  0  0  0  0  0  0  0  0  0  0
  189.9260  174.8960  143.2930 N   0  0  1  0  0  0  0  0  0  0  0  0
  188.5470  173.9040  140.1760 C   0  0  0  0  0  2  0  0  0  0  0  0
  188.3430  177.3140  145.3420 C   0  0  0  0  0  0  0  0  0  0  0  0
  187.3380  177.8870  145.6850 C   0  0  0  0  0  0  0  0  0  0  0  0
  186.0940  178.5450  146.0790 C   0  0  0  0  0  2  0  0  0  0  0  0
  184.9080  177.8680  145.4100 C   0  0  0  0  0  2  0  0  0  0  0  0
  184.2470  178.7950  144.3830 C   0  0  1  0  0  3  0  0  0  0  0  0
  185.0480  179.9210  144.2080 O   0  0  0  0  0  1  0  0  0  0  0  0
  185.0070  178.0370  140.6820 C   0  0  0  0  0  0  0  0  0  0  0  0
  186.1790  177.2810  142.6030 O   0  0  0  0  0  1  0  0  0  0  0  0
  182.5480  178.0760  140.9850 C   0  0  0  0  0  2  0  0  0  0  0  0
  182.8080  178.8040  142.3010 C   0  0  0  0  0  2  0  0  0  0  0  0
  186.1000  177.9370  139.8420 O   0  0  0  0  0  1  0  0  0  0  0  0
  185.2390  178.2140  142.1660 C   0  0  2  0  0  3  0  0  0  0  0  0
  183.9700  178.1300  143.0290 C   0  0  1  0  0  3  0  0  0  0  0  0
  183.7870  178.0170  140.1490 C   0  0  0  0  0  3  0  0  0  0  0  0
  194.5100  171.1150  145.0530 N   0  0  0  0  0  2  0  0  0  0  0  0
  195.0990  170.3720  144.0180 N   0  0  0  0  0  0  0  0  0  0  0  0
  196.0560  170.8750  143.2990 C   0  0  0  0  0  3  0  0  0  0  0  0
  197.1570  173.6690  142.0240 C   0  0  1  0  0  0  0  0  0  0  0  0
  196.5690  172.2630  143.5550 C   0  0  1  0  0  3  0  0  0  0  0  0
  194.8750  172.9160  141.8080 O   0  0  0  0  0  1  0  0  0  0  0  0
  196.3560  174.7540  142.7280 C   0  0  2  0  0  3  0  0  0  0  0  0
  197.8390  172.5390  142.7900 C   0  0  0  0  0  2  0  0  0  0  0  0
  195.8310  173.3290  142.7510 C   0  0  2  0  0  0  0  0  0  0  0  0
  197.0420  173.4910  140.6380 O   0  0  0  0  0  1  0  0  0  0  0  0
  195.4470  175.6940  141.9140 C   0  0  2  0  0  0  0  0  0  0  0  0
  196.0920  176.8680  141.3050 C   0  0  0  0  0  2  0  0  0  0  0  0
  194.0310  175.9440  142.3940 C   0  0  0  0  0  1  0  0  0  0  0  0
  195.6180  175.7940  140.5330 O   0  0  0  0  0  0  0  0  0  0  0  0
  1  4  1  0  0  0  0
  2  3  1  6  0  0  0
  2 16  1  0  0  0  0
  5  1  2  0  0  0  0
  6  7  1  0  0  0  0
  7 14  2  0  0  0  0
  7  5  1  0  0  0  0
  8  2  1  0  0  0  0
  8  6  1  6  0  0  0
  9 12  1  0  0  0  0
 10  5  1  0  0  0  0
 10 13  1  0  0  0  0
 11  8  1  0  0  0  0
 12 18  1  1  0  0  0
 12 13  1  0  0  0  0
 14 15  1  0  0  0  0
 15 32  1  0  0  0  0
 15  4  2  0  0  0  0
 16  9  1  1  0  0  0
 16 10  1  0  0  0  0
 17 11  1  0  0  0  0
 17  3  1  0  0  0  0
 18 19  3  0  0  0  0
 19 20  1  0  0  0  0
 21 20  1  0  0  0  0
 22 23  1  6  0  0  0
 22 21  1  0  0  0  0
 24 29  1  0  0  0  0
 26 27  1  0  0  0  0
 27 30  1  0  0  0  0
 28 24  1  0  0  0  0
 29 25  1  1  0  0  0
 29 30  1  0  0  0  0
 30 22  1  1  0  0  0
 31 24  2  0  0  0  0
 31 26  1  0  0  0  0
 33 32  1  0  0  0  0
 34 33  2  0  0  0  0
 35 41  1  6  0  0  0
 35 38  1  0  0  0  0
 35 40  1  0  0  0  0
 35 39  1  0  0  0  0
 36 34  1  6  0  0  0
 38 42  1  6  0  0  0
 38 40  1  0  0  0  0
 39 36  1  0  0  0  0
 40 37  1  6  0  0  0
 40 36  1  0  0  0  0
 42 44  1  1  0  0  0
 43 42  1  0  0  0  0
 45 43  1  0  0  0  0
 45 42  1  0  0  0  0
M  END
>  <MODEL>
6

>  <REMARK>
 VINA RESULT:      -7.8      2.187      3.537
  Name = 
  9 active torsions:
  status: ('A' for Active; 'I' for Inactive)
    1  A    between atoms: C_1  and  C_36
    2  A    between atoms: C_1  and  C_39
    3  A    between atoms: C_2  and  C_39
    4  A    between atoms: C_2  and  C_45
    5  A    between atoms: C_7  and  C_24
    6  A    between atoms: C_13  and  C_16
    7  A    between atoms: N_22  and  N_44
    8  A    between atoms: C_29  and  C_43
    9  A    between atoms: C_35  and  N_44
                            x       y       z     vdW  Elec       q    Type
                         _______ _______ _______ _____ _____    ______ ____

>  <TORSDO>
F 9

$$$$
=
 OpenBabel11042415173D

 45 52  0  0  1  0  0  0  0  0999 V2000
  192.1520  172.8330  143.7220 C   0  0  0  0  0  3  0  0  0  0  0  0
  188.6810  174.2300  141.5600 C   0  0  1  0  0  3  0  0  0  0  0  0
  188.2160  175.4080  140.8420 N   0  0  0  0  0  2  0  0  0  0  0  0
  193.2300  172.1410  143.3390 C   0  0  0  0  0  3  0  0  0  0  0  0
  190.8070  172.5120  143.1160 C   0  0  0  0  0  0  0  0  0  0  0  0
  190.1790  172.3360  140.6200 C   0  0  0  0  0  2  0  0  0  0  0  0
  190.9260  172.0070  141.6850 C   0  0  0  0  0  0  0  0  0  0  0  0
  189.1310  173.3140  140.5370 N   0  0  2  0  0  0  0  0  0  0  0  0
  189.3950  175.7100  143.2850 C   0  0  0  0  0  2  0  0  0  0  0  0
  189.7070  173.4380  143.4020 N   0  0  0  0  0  0  0  0  0  0  0  0
  188.6370  173.6580  139.2780 N   0  0  0  0  0  2  0  0  0  0  0  0
  189.7120  175.4190  144.7260 C   0  0  2  0  0  3  0  0  0  0  0  0
  189.7490  173.9220  144.7800 C   0  0  0  0  0  2  0  0  0  0  0  0
  192.0680  171.1180  141.4320 C   0  0  0  0  0  3  0  0  0  0  0  0
  193.1430  171.1510  142.2310 C   0  0  0  0  0  0  0  0  0  0  0  0
  189.7520  174.5280  142.5130 N   0  0  1  0  0  0  0  0  0  0  0  0
  187.9130  174.9060  139.5010 C   0  0  0  0  0  2  0  0  0  0  0  0
  188.6260  175.9250  145.5680 C   0  0  0  0  0  0  0  0  0  0  0  0
  187.7150  176.3370  146.2440 C   0  0  0  0  0  0  0  0  0  0  0  0
  186.5880  176.8480  147.0220 C   0  0  0  0  0  2  0  0  0  0  0  0
  185.3580  176.9800  146.1370 C   0  0  0  0  0  2  0  0  0  0  0  0
  185.0600  178.4490  145.8170 C   0  0  1  0  0  3  0  0  0  0  0  0
  185.8190  179.2590  146.6600 O   0  0  0  0  0  1  0  0  0  0  0  0
  184.4140  178.2310  142.0240 C   0  0  0  0  0  0  0  0  0  0  0  0
  183.0260  179.1890  143.6940 O   0  0  0  0  0  1  0  0  0  0  0  0
  186.8260  178.6670  142.3850 C   0  0  0  0  0  2  0  0  0  0  0  0
  186.6050  178.2160  143.8260 C   0  0  0  0  0  2  0  0  0  0  0  0
  183.3710  177.9600  141.1590 O   0  0  0  0  0  1  0  0  0  0  0  0
  184.1240  178.3520  143.5040 C   0  0  2  0  0  3  0  0  0  0  0  0
  185.3100  178.8330  144.3540 C   0  0  1  0  0  3  0  0  0  0  0  0
  185.6450  178.3340  141.5290 C   0  0  0  0  0  3  0  0  0  0  0  0
  194.2420  170.2990  141.9170 N   0  0  0  0  0  2  0  0  0  0  0  0
  194.9430  170.3870  140.7040 N   0  0  0  0  0  0  0  0  0  0  0  0
  196.0000  171.1330  140.5980 C   0  0  0  0  0  3  0  0  0  0  0  0
  197.5010  173.8360  141.6390 C   0  0  1  0  0  0  0  0  0  0  0  0
  196.5130  171.9190  141.7690 C   0  0  1  0  0  3  0  0  0  0  0  0
  195.2910  173.8300  140.6720 O   0  0  0  0  0  1  0  0  0  0  0  0
  196.6190  174.3560  142.7650 C   0  0  2  0  0  3  0  0  0  0  0  0
  197.9350  172.3750  141.5580 C   0  0  0  0  0  2  0  0  0  0  0  0
  196.0300  173.3670  141.7730 C   0  0  2  0  0  0  0  0  0  0  0  0
  197.6920  174.6000  140.4790 O   0  0  0  0  0  1  0  0  0  0  0  0
  195.9650  175.7460  142.6540 C   0  0  2  0  0  0  0  0  0  0  0  0
  196.5990  176.8330  143.4170 C   0  0  0  0  0  2  0  0  0  0  0  0
  194.4540  175.8440  142.5760 C   0  0  0  0  0  1  0  0  0  0  0  0
  196.6480  176.7800  142.0130 O   0  0  0  0  0  0  0  0  0  0  0  0
  2  3  1  6  0  0  0
  2 16  1  0  0  0  0
  4  1  1  0  0  0  0
  5 10  1  0  0  0  0
  5  1  2  0  0  0  0
  6  7  1  0  0  0  0
  7  5  1  0  0  0  0
  8  6  1  6  0  0  0
  8  2  1  0  0  0  0
  9 12  1  0  0  0  0
 10 13  1  0  0  0  0
 11 17  1  0  0  0  0
 11  8  1  0  0  0  0
 12 13  1  0  0  0  0
 12 18  1  1  0  0  0
 14  7  2  0  0  0  0
 14 15  1  0  0  0  0
 15  4  2  0  0  0  0
 16  9  1  1  0  0  0
 16 10  1  0  0  0  0
 17  3  1  0  0  0  0
 18 19  3  0  0  0  0
 19 20  1  0  0  0  0
 21 20  1  0  0  0  0
 22 21  1  0  0  0  0
 22 23  1  1  0  0  0
 24 29  1  0  0  0  0
 26 27  1  0  0  0  0
 27 30  1  0  0  0  0
 28 24  1  0  0  0  0
 29 25  1  6  0  0  0
 29 30  1  0  0  0  0
 30 22  1  1  0  0  0
 31 24  2  0  0  0  0
 31 26  1  0  0  0  0
 32 15  1  0  0  0  0
 33 32  1  0  0  0  0
 34 33  2  0  0  0  0
 35 41  1  6  0  0  0
 35 40  1  0  0  0  0
 35 38  1  0  0  0  0
 36 34  1  6  0  0  0
 36 40  1  0  0  0  0
 38 42  1  6  0  0  0
 39 35  1  0  0  0  0
 39 36  1  0  0  0  0
 40 37  1  6  0  0  0
 40 38  1  0  0  0  0
 42 44  1  6  0  0  0
 42 43  1  0  0  0  0
 45 42  1  0  0  0  0
 45 43  1  0  0  0  0
M  END
>  <MODEL>
7

>  <REMARK>
 VINA RESULT:      -7.6      2.268      3.471
  Name = 
  9 active torsions:
  status: ('A' for Active; 'I' for Inactive)
    1  A    between atoms: C_1  and  C_36
    2  A    between atoms: C_1  and  C_39
    3  A    between atoms: C_2  and  C_39
    4  A    between atoms: C_2  and  C_45
    5  A    between atoms: C_7  and  C_24
    6  A    between atoms: C_13  and  C_16
    7  A    between atoms: N_22  and  N_44
    8  A    between atoms: C_29  and  C_43
    9  A    between atoms: C_35  and  N_44
                            x       y       z     vdW  Elec       q    Type
                         _______ _______ _______ _____ _____    ______ ____

>  <TORSDO>
F 9

$$$$
=
 OpenBabel11042415173D

 45 52  0  0  1  0  0  0  0  0999 V2000
  193.6080  175.7230  142.6900 C   0  0  0  0  0  3  0  0  0  0  0  0
  190.6230  175.9340  145.8070 C   0  0  1  0  0  3  0  0  0  0  0  0
  189.5540  175.1310  146.3820 N   0  0  0  0  0  2  0  0  0  0  0  0
  194.8840  175.3240  142.6940 C   0  0  0  0  0  3  0  0  0  0  0  0
  193.0560  176.4630  143.8840 C   0  0  0  0  0  0  0  0  0  0  0  0
  193.1480  175.7810  146.3700 C   0  0  0  0  0  2  0  0  0  0  0  0
  193.7210  176.0370  145.1840 C   0  0  0  0  0  0  0  0  0  0  0  0
  191.7500  175.7610  146.6950 N   0  0  2  0  0  0  0  0  0  0  0  0
  189.7370  175.3710  143.6700 C   0  0  0  0  0  2  0  0  0  0  0  0
  191.6060  176.6810  143.9230 N   0  0  0  0  0  0  0  0  0  0  0  0
  191.3600  175.2490  147.9340 N   0  0  0  0  0  2  0  0  0  0  0  0
  189.9440  176.0410  142.3390 C   0  0  2  0  0  3  0  0  0  0  0  0
  191.0680  176.9970  142.6010 C   0  0  0  0  0  2  0  0  0  0  0  0
  195.1660  175.7850  145.0900 C   0  0  0  0  0  3  0  0  0  0  0  0
  195.7260  175.4850  143.9100 C   0  0  0  0  0  0  0  0  0  0  0  0
  190.9620  175.5410  144.4380 N   0  0  1  0  0  0  0  0  0  0  0  0
  189.9290  175.0030  147.7910 C   0  0  0  0  0  2  0  0  0  0  0  0
  188.7310  176.7810  141.9800 C   0  0  0  0  0  0  0  0  0  0  0  0
  187.7410  177.4090  141.6970 C   0  0  0  0  0  0  0  0  0  0  0  0
  186.5480  178.1970  141.3930 C   0  0  0  0  0  2  0  0  0  0  0  0
  185.3190  177.5440  142.0050 C   0  0  0  0  0  2  0  0  0  0  0  0
  184.7740  178.3710  143.1750 C   0  0  1  0  0  3  0  0  0  0  0  0
  183.4020  178.5450  143.0050 O   0  0  0  0  0  1  0  0  0  0  0  0
  185.7650  178.5540  146.8950 C   0  0  0  0  0  0  0  0  0  0  0  0
  183.7490  179.2850  145.8780 O   0  0  0  0  0  1  0  0  0  0  0  0
  186.6190  176.4250  145.9590 C   0  0  0  0  0  2  0  0  0  0  0  0
  186.4070  177.0440  144.5800 C   0  0  0  0  0  2  0  0  0  0  0  0
  185.6790  179.4380  147.9530 O   0  0  0  0  0  1  0  0  0  0  0  0
  185.0570  178.8920  145.6010 C   0  0  2  0  0  3  0  0  0  0  0  0
  185.0610  177.7660  144.5550 C   0  0  1  0  0  3  0  0  0  0  0  0
  186.5050  177.4570  147.0360 C   0  0  0  0  0  3  0  0  0  0  0  0
  197.1250  175.2070  143.8800 N   0  0  0  0  0  2  0  0  0  0  0  0
  197.7620  174.4320  144.8610 N   0  0  0  0  0  0  0  0  0  0  0  0
  197.7100  173.1350  144.8220 C   0  0  0  0  0  3  0  0  0  0  0  0
  195.9490  170.5340  143.9420 C   0  0  1  0  0  0  0  0  0  0  0  0
  196.9740  172.4220  143.7250 C   0  0  1  0  0  3  0  0  0  0  0  0
  195.1410  172.2400  145.4440 O   0  0  0  0  0  1  0  0  0  0  0  0
  194.7480  171.1120  143.2090 C   0  0  2  0  0  3  0  0  0  0  0  0
  197.3780  170.9720  143.6320 C   0  0  0  0  0  2  0  0  0  0  0  0
  195.5550  172.0220  144.1200 C   0  0  2  0  0  0  0  0  0  0  0  0
  195.7720  169.8110  145.1310 O   0  0  0  0  0  1  0  0  0  0  0  0
  193.3250  170.8700  143.7470 C   0  0  2  0  0  0  0  0  0  0  0  0
  192.6140  169.6950  143.2190 C   0  0  0  0  0  2  0  0  0  0  0  0
  192.4310  172.0630  144.0240 C   0  0  0  0  0  1  0  0  0  0  0  0
  193.0700  169.7560  144.5460 O   0  0  0  0  0  0  0  0  0  0  0  0
  1  4  2  0  0  0  0
  1  5  1  0  0  0  0
  2  3  1  1  0  0  0
  2  8  1  0  0  0  0
  3 17  1  0  0  0  0
  4 15  1  0  0  0  0
  5 10  1  0  0  0  0
  5  7  2  0  0  0  0
  7  6  1  0  0  0  0
  8  6  1  6  0  0  0
  8 11  1  0  0  0  0
 10 16  1  0  0  0  0
 12 18  1  1  0  0  0
 12 13  1  0  0  0  0
 12  9  1  0  0  0  0
 13 10  1  0  0  0  0
 14  7  1  0  0  0  0
 15 14  2  0  0  0  0
 16  9  1  6  0  0  0
 16  2  1  0  0  0  0
 17 11  1  0  0  0  0
 19 18  3  0  0  0  0
 20 19  1  0  0  0  0
 20 21  1  0  0  0  0
 21 22  1  0  0  0  0
 22 23  1  6  0  0  0
 24 31  2  0  0  0  0
 24 28  1  0  0  0  0
 26 31  1  0  0  0  0
 27 26  1  0  0  0  0
 29 25  1  1  0  0  0
 29 24  1  0  0  0  0
 30 22  1  6  0  0  0
 30 27  1  0  0  0  0
 30 29  1  0  0  0  0
 32 15  1  0  0  0  0
 32 33  1  0  0  0  0
 34 33  2  0  0  0  0
 35 40  1  0  0  0  0
 35 41  1  1  0  0  0
 36 40  1  0  0  0  0
 36 34  1  1  0  0  0
 38 42  1  1  0  0  0
 38 35  1  0  0  0  0
 38 40  1  0  0  0  0
 39 36  1  0  0  0  0
 39 35  1  0  0  0  0
 40 37  1  1  0  0  0
 42 44  1  1  0  0  0
 42 45  1  0  0  0  0
 43 42  1  0  0  0  0
 43 45  1  0  0  0  0
M  END
>  <MODEL>
8

>  <REMARK>
 VINA RESULT:      -7.6      3.086      5.037
  Name = 
  9 active torsions:
  status: ('A' for Active; 'I' for Inactive)
    1  A    between atoms: C_1  and  C_36
    2  A    between atoms: C_1  and  C_39
    3  A    between atoms: C_2  and  C_39
    4  A    between atoms: C_2  and  C_45
    5  A    between atoms: C_7  and  C_24
    6  A    between atoms: C_13  and  C_16
    7  A    between atoms: N_22  and  N_44
    8  A    between atoms: C_29  and  C_43
    9  A    between atoms: C_35  and  N_44
                            x       y       z     vdW  Elec       q    Type
                         _______ _______ _______ _____ _____    ______ ____

>  <TORSDO>
F 9

$$$$
=
 OpenBabel11042415173D

 45 52  0  0  1  0  0  0  0  0999 V2000
  188.7960  174.7930  142.9260 C   0  0  0  0  0  3  0  0  0  0  0  0
  190.2950  171.8340  140.1580 C   0  0  1  0  0  3  0  0  0  0  0  0
  190.0960  170.4350  139.8060 N   0  0  0  0  0  2  0  0  0  0  0  0
  187.8200  175.7020  142.8280 C   0  0  0  0  0  3  0  0  0  0  0  0
  189.6520  174.4860  141.7210 C   0  0  0  0  0  0  0  0  0  0  0  0
  188.8900  173.8510  139.3400 C   0  0  0  0  0  2  0  0  0  0  0  0
  188.8890  174.6530  140.4160 C   0  0  0  0  0  0  0  0  0  0  0  0
  189.5450  172.5840  139.1770 N   0  0  2  0  0  0  0  0  0  0  0  0
  190.3490  171.1310  142.4330 C   0  0  0  0  0  2  0  0  0  0  0  0
  190.5540  173.3340  141.8180 N   0  0  0  0  0  0  0  0  0  0  0  0
  189.2310  171.8090  138.0590 N   0  0  0  0  0  2  0  0  0  0  0  0
  190.8960  171.8390  143.6420 C   0  0  2  0  0  3  0  0  0  0  0  0
  191.1590  173.2280  143.1440 C   0  0  0  0  0  2  0  0  0  0  0  0
  187.9620  175.7940  140.3780 C   0  0  0  0  0  3  0  0  0  0  0  0
  187.4840  176.3160  141.5150 C   0  0  0  0  0  0  0  0  0  0  0  0
  189.8560  172.1500  141.5180 N   0  0  1  0  0  0  0  0  0  0  0  0
  189.7300  170.4780  138.3890 C   0  0  0  0  0  2  0  0  0  0  0  0
  192.1540  171.2040  144.0420 C   0  0  0  0  0  0  0  0  0  0  0  0
  193.1880  170.6650  144.3540 C   0  0  0  0  0  0  0  0  0  0  0  0
  194.4230  169.9700  144.7120 C   0  0  0  0  0  2  0  0  0  0  0  0
  195.3320  170.8940  145.5070 C   0  0  0  0  0  2  0  0  0  0  0  0
  196.4720  171.4360  144.6370 C   0  0  1  0  0  3  0  0  0  0  0  0
  196.5180  170.7100  143.4490 O   0  0  0  0  0  1  0  0  0  0  0  0
  195.2650  175.0310  145.3270 C   0  0  0  0  0  0  0  0  0  0  0  0
  196.8780  173.7700  146.5290 O   0  0  0  0  0  1  0  0  0  0  0  0
  195.3940  174.7040  142.8750 C   0  0  0  0  0  2  0  0  0  0  0  0
  195.4240  173.2050  143.1610 C   0  0  0  0  0  2  0  0  0  0  0  0
  194.9250  175.8270  146.4040 O   0  0  0  0  0  1  0  0  0  0  0  0
  195.8560  173.6620  145.5860 C   0  0  2  0  0  3  0  0  0  0  0  0
  196.3680  172.9360  144.3330 C   0  0  1  0  0  3  0  0  0  0  0  0
  195.0200  175.4790  144.0980 C   0  0  0  0  0  3  0  0  0  0  0  0
  186.5550  177.3940  141.4230 N   0  0  0  0  0  2  0  0  0  0  0  0
  185.1770  177.2230  141.6250 N   0  0  0  0  0  0  0  0  0  0  0  0
  184.5650  177.8320  142.5950 C   0  0  0  0  0  3  0  0  0  0  0  0
  184.8630  179.0070  145.6230 C   0  0  1  0  0  0  0  0  0  0  0  0
  185.3080  178.7450  143.5260 C   0  0  1  0  0  3  0  0  0  0  0  0
  185.3620  176.7230  145.0290 O   0  0  0  0  0  1  0  0  0  0  0  0
  186.3440  178.8720  145.9440 C   0  0  2  0  0  3  0  0  0  0  0  0
  184.3690  179.6220  144.3170 C   0  0  0  0  0  2  0  0  0  0  0  0
  185.7660  178.0500  144.8050 C   0  0  2  0  0  0  0  0  0  0  0  0
  183.9090  178.3010  146.3700 O   0  0  0  0  0  1  0  0  0  0  0  0
  186.8010  177.9890  147.1210 C   0  0  2  0  0  0  0  0  0  0  0  0
  187.0060  178.6680  148.4110 C   0  0  0  0  0  2  0  0  0  0  0  0
  187.7730  176.8570  146.8560 C   0  0  0  0  0  1  0  0  0  0  0  0
  185.9410  177.7760  148.1980 O   0  0  0  0  0  0  0  0  0  0  0  0
  2  3  1  6  0  0  0
  2 16  1  0  0  0  0
  4  1  1  0  0  0  0
  5 10  1  0  0  0  0
  5  1  2  0  0  0  0
  6  7  1  0  0  0  0
  7  5  1  0  0  0  0
  8  6  1  1  0  0  0
  8  2  1  0  0  0  0
  9 12  1  0  0  0  0
 10 13  1  0  0  0  0
 11 17  1  0  0  0  0
 11  8  1  0  0  0  0
 12 18  1  6  0  0  0
 13 12  1  0  0  0  0
 14  7  2  0  0  0  0
 14 15  1  0  0  0  0
 15  4  2  0  0  0  0
 16 10  1  0  0  0  0
 16  9  1  1  0  0  0
 17  3  1  0  0  0  0
 18 19  3  0  0  0  0
 19 20  1  0  0  0  0
 20 21  1  0  0  0  0
 22 23  1  6  0  0  0
 22 21  1  0  0  0  0
 24 29  1  0  0  0  0
 24 28  1  0  0  0  0
 26 27  1  0  0  0  0
 26 31  1  0  0  0  0
 27 30  1  0  0  0  0
 29 25  1  1  0  0  0
 30 22  1  1  0  0  0
 30 29  1  0  0  0  0
 31 24  2  0  0  0  0
 32 15  1  0  0  0  0
 32 33  1  0  0  0  0
 33 34  2  0  0  0  0
 35 38  1  0  0  0  0
 35 41  1  1  0  0  0
 36 34  1  6  0  0  0
 36 39  1  0  0  0  0
 36 40  1  0  0  0  0
 38 42  1  1  0  0  0
 39 35  1  0  0  0  0
 40 37  1  1  0  0  0
 40 35  1  0  0  0  0
 40 38  1  0  0  0  0
 42 44  1  6  0  0  0
 42 45  1  0  0  0  0
 42 43  1  0  0  0  0
 45 43  1  0  0  0  0
M  END
>  <MODEL>
9

>  <REMARK>
 VINA RESULT:      -7.5      1.892      8.988
  Name = 
  9 active torsions:
  status: ('A' for Active; 'I' for Inactive)
    1  A    between atoms: C_1  and  C_36
    2  A    between atoms: C_1  and  C_39
    3  A    between atoms: C_2  and  C_39
    4  A    between atoms: C_2  and  C_45
    5  A    between atoms: C_7  and  C_24
    6  A    between atoms: C_13  and  C_16
    7  A    between atoms: N_22  and  N_44
    8  A    between atoms: C_29  and  C_43
    9  A    between atoms: C_35  and  N_44
                            x       y       z     vdW  Elec       q    Type
                         _______ _______ _______ _____ _____    ______ ____

>  <TORSDO>
F 9

$$$$
