=
 OpenBabel11042417423D

 54 57  0  0  1  0  0  0  0  0999 V2000
  193.3640  172.7110  139.1220 N   0  0  0  0  0  0  0  0  0  0  0  0
  192.2680  172.1400  139.9080 C   0  0  1  0  0  3  0  0  0  0  0  0
  190.2620  173.1490  138.7200 N   0  0  0  0  0  0  0  0  0  0  0  0
  191.4080  173.0850  142.0250 N   0  0  0  0  0  0  0  0  0  0  0  0
  192.5060  172.2670  141.4570 C   0  0  0  0  0  3  0  0  0  0  0  0
  189.4380  174.0560  140.7890 C   0  0  0  0  0  0  0  0  0  0  0  0
  189.1950  173.8890  139.3470 C   0  0  0  0  0  0  0  0  0  0  0  0
  191.0400  172.9330  139.7250 C   0  0  1  0  0  3  0  0  0  0  0  0
  188.2130  174.4120  138.6880 N   0  0  0  0  0  1  0  0  0  0  0  0
  190.5960  173.4480  140.9310 C   0  0  0  0  0  0  0  0  0  0  0  0
  188.6800  176.0810  142.0650 N   0  0  0  0  0  2  0  0  0  0  0  0
  188.5950  174.6730  141.8160 C   0  0  0  0  0  0  0  0  0  0  0  0
  187.8330  173.9400  142.4940 O   0  0  0  0  0  0  0  0  0  0  0  0
  186.6410  177.7040  145.7090 C   0  0  0  0  0  0  0  0  0  0  0  0
  187.9330  177.7660  145.3750 C   0  0  0  0  0  3  0  0  0  0  0  0
  186.3870  177.9010  141.3940 O   0  0  0  0  0  1  0  0  0  0  0  0
  188.5240  177.0940  144.1940 C   0  0  0  0  0  3  0  0  0  0  0  0
  185.6890  176.8620  144.9180 C   0  0  0  0  0  2  0  0  0  0  0  0
  186.5750  177.3830  142.6730 C   0  0  0  0  0  0  0  0  0  0  0  0
  185.5410  177.3980  143.5280 C   0  0  0  0  0  0  0  0  0  0  0  0
  187.9230  176.8290  143.0250 C   0  0  0  0  0  0  0  0  0  0  0  0
  187.1970  178.5070  147.8710 F   0  0  0  0  0  0  0  0  0  0  0  0
  186.1580  178.3850  146.9620 C   0  0  0  0  0  0  0  0  0  0  0  0
  185.1350  177.6620  147.5490 F   0  0  0  0  0  0  0  0  0  0  0  0
  185.6730  179.6450  146.6470 F   0  0  0  0  0  0  0  0  0  0  0  0
  183.7420  179.0890  143.6050 C   0  0  0  0  0  1  0  0  0  0  0  0
  184.3160  177.8990  143.0880 O   0  0  0  0  0  0  0  0  0  0  0  0
  194.4350  171.9020  138.6190 C   0  0  0  0  0  0  0  0  0  0  0  0
  194.5480  171.7560  137.2980 C   0  0  0  0  0  2  0  0  0  0  0  0
  196.3400  171.0870  140.1170 C   0  0  2  0  0  3  0  0  0  0  0  0
  196.1390  170.1330  139.0110 N   0  0  0  0  0  2  0  0  0  0  0  0
  194.9810  170.8630  139.5670 C   0  0  2  0  0  3  0  0  0  0  0  0
  197.1190  172.2920  139.5930 C   0  0  0  0  0  2  0  0  0  0  0  0
  197.8010  173.0440  140.7370 C   0  0  0  0  0  2  0  0  0  0  0  0
  197.4730  172.4630  142.1170 C   0  0  0  0  0  2  0  0  0  0  0  0
  197.7420  173.4670  143.2360 C   0  0  0  0  0  2  0  0  0  0  0  0
  196.2130  172.9290  144.9770 O   0  0  0  0  0  1  0  0  0  0  0  0
  197.9410  171.4980  144.5830 O   0  0  0  0  0  1  0  0  0  0  0  0
  197.5550  172.8400  144.6080 C   0  0  0  0  0  3  0  0  0  0  0  0
  193.3970  174.1580  138.9360 C   0  0  0  0  0  2  0  0  0  0  0  0
  194.7730  174.7050  139.3030 C   0  0  0  0  0  2  0  0  0  0  0  0
  194.7800  175.1110  140.7150 C   0  0  0  0  0  0  0  0  0  0  0  0
  194.8080  175.4460  141.8740 C   0  0  0  0  0  0  0  0  0  0  0  0
  194.8710  175.8990  143.2680 C   0  0  0  0  0  2  0  0  0  0  0  0
  192.5040  175.8380  142.8700 O   0  0  0  0  0  1  0  0  0  0  0  0
  193.4830  176.2950  143.7620 C   0  0  1  0  0  3  0  0  0  0  0  0
  193.1960  175.7820  145.1830 C   0  0  1  0  0  0  0  0  0  0  0  0
  192.9840  174.4060  145.1150 O   0  0  0  0  0  1  0  0  0  0  0  0
  194.4030  176.0200  146.0910 C   0  0  0  0  0  1  0  0  0  0  0  0
  191.8840  176.4150  145.6960 C   0  0  0  0  0  2  0  0  0  0  0  0
  190.2280  174.7700  146.1720 O   0  0  0  0  0  0  0  0  0  0  0  0
  191.0720  175.5840  146.6380 C   0  0  0  0  0  0  0  0  0  0  0  0
  191.4360  177.0000  148.6170 C   0  0  0  0  0  1  0  0  0  0  0  0
  191.2430  175.7300  148.0180 O   0  0  0  0  0  0  0  0  0  0  0  0
  2  1  1  6  0  0  0
  2  5  1  0  0  0  0
  3  7  2  0  0  0  0
  5  4  2  0  0  0  0
  6 10  2  0  0  0  0
  6 12  1  0  0  0  0
  7  6  1  0  0  0  0
  8  3  1  1  0  0  0
  8  2  1  0  0  0  0
  8 10  1  0  0  0  0
  9  7  1  0  0  0  0
 10  4  1  0  0  0  0
 11 21  1  0  0  0  0
 12 11  1  0  0  0  0
 12 13  2  0  0  0  0
 14 23  1  0  0  0  0
 15 14  2  0  0  0  0
 16 19  1  0  0  0  0
 17 15  1  0  0  0  0
 18 14  1  0  0  0  0
 19 21  1  0  0  0  0
 19 20  2  0  0  0  0
 20 18  1  0  0  0  0
 21 17  2  0  0  0  0
 23 24  1  0  0  0  0
 23 22  1  0  0  0  0
 25 23  1  0  0  0  0
 27 20  1  0  0  0  0
 27 26  1  0  0  0  0
 28  1  1  0  0  0  0
 29 28  2  0  0  0  0
 30 33  1  6  0  0  0
 31 32  1  0  0  0  0
 31 30  1  0  0  0  0
 32 28  1  6  0  0  0
 32 30  1  0  0  0  0
 33 34  1  0  0  0  0
 34 35  1  0  0  0  0
 35 36  1  0  0  0  0
 36 39  1  0  0  0  0
 38 39  1  0  0  0  0
 39 37  1  0  0  0  0
 40  1  1  0  0  0  0
 40 41  1  0  0  0  0
 41 42  1  0  0  0  0
 42 43  3  0  0  0  0
 43 44  1  0  0  0  0
 44 46  1  0  0  0  0
 46 45  1  6  0  0  0
 46 47  1  0  0  0  0
 47 50  1  0  0  0  0
 47 49  1  1  0  0  0
 48 47  1  0  0  0  0
 50 52  1  0  0  0  0
 51 52  2  0  0  0  0
 52 54  1  0  0  0  0
 54 53  1  0  0  0  0
M  END
>  <MODEL>
1

>  <REMARK>
 VINA RESULT:      -5.8      0.000      0.000
  Name = 
  21 active torsions:
  status: ('A' for Active; 'I' for Inactive)
    1  A    between atoms: C_2  and  N_10
    2  A    between atoms: C_2  and  C_41
    3  A    between atoms: N_3  and  C_52
    4  A    between atoms: C_4  and  N_10
    5  A    between atoms: O_6  and  C_50
    6  A    between atoms: O_7  and  C_49
    7  A    between atoms: C_8  and  C_27
    8  A    between atoms: C_9  and  C_35
    9  A    between atoms: C_9  and  C_39
   10  A    between atoms: N_10  and  C_42
   11  A    between atoms: C_13  and  C_25
   12  A    between atoms: C_17  and  C_28
   13  A    between atoms: C_17  and  C_35
   14  A    between atoms: C_25  and  C_45
   15  A    between atoms: C_28  and  C_49
   16  A    between atoms: C_31  and  C_36
   17  A    between atoms: C_33  and  C_37
   18  A    between atoms: C_33  and  C_43
   19  A    between atoms: C_38  and  C_54
   20  A    between atoms: C_42  and  C_54
   21  A    between atoms: C_43  and  C_45
                            x       y       z     vdW  Elec       q    Type
                         _______ _______ _______ _____ _____    ______ ____

>  <TORSDO>
F 21

$$$$
=
 OpenBabel11042417423D

 54 57  0  0  1  0  0  0  0  0999 V2000
  193.0690  171.0070  140.0100 N   0  0  0  0  0  0  0  0  0  0  0  0
  193.0370  172.3390  140.6190 C   0  0  1  0  0  3  0  0  0  0  0  0
  192.0290  171.7950  142.8860 N   0  0  0  0  0  0  0  0  0  0  0  0
  191.2350  174.0000  140.2870 N   0  0  0  0  0  0  0  0  0  0  0  0
  192.4480  173.4310  139.6530 C   0  0  0  0  0  3  0  0  0  0  0  0
  190.2860  173.4170  142.5490 C   0  0  0  0  0  0  0  0  0  0  0  0
  190.8730  172.4320  143.4700 C   0  0  0  0  0  0  0  0  0  0  0  0
  192.0730  172.3690  141.7320 C   0  0  0  0  0  0  0  0  0  0  0  0
  190.3810  172.0910  144.6150 N   0  0  0  0  0  2  0  0  0  0  0  0
  191.0800  173.3060  141.5050 C   0  0  0  0  0  0  0  0  0  0  0  0
  189.3320  175.5190  143.5380 N   0  0  0  0  0  2  0  0  0  0  0  0
  189.1610  174.3350  142.7510 C   0  0  0  0  0  0  0  0  0  0  0  0
  188.0450  174.0410  142.2560 O   0  0  0  0  0  0  0  0  0  0  0  0
  185.8250  177.8890  145.0050 C   0  0  0  0  0  0  0  0  0  0  0  0
  186.9490  177.5700  145.6520 C   0  0  0  0  0  3  0  0  0  0  0  0
  188.6840  177.8480  141.7570 O   0  0  0  0  0  1  0  0  0  0  0  0
  188.0030  176.6800  145.1080 C   0  0  0  0  0  3  0  0  0  0  0  0
  185.5190  177.2880  143.6680 C   0  0  0  0  0  2  0  0  0  0  0  0
  187.8000  177.3880  142.7310 C   0  0  0  0  0  0  0  0  0  0  0  0
  186.5100  177.7460  142.6440 C   0  0  0  0  0  0  0  0  0  0  0  0
  188.3370  176.5110  143.8210 C   0  0  0  0  0  0  0  0  0  0  0  0
  185.3860  179.5040  146.6860 F   0  0  0  0  0  0  0  0  0  0  0  0
  184.7970  178.7610  145.6750 C   0  0  0  0  0  0  0  0  0  0  0  0
  183.7820  177.9940  146.2190 F   0  0  0  0  0  0  0  0  0  0  0  0
  184.2380  179.6200  144.7410 F   0  0  0  0  0  0  0  0  0  0  0  0
  185.3070  178.0310  140.5060 C   0  0  0  0  0  1  0  0  0  0  0  0
  186.1040  178.5330  141.5670 O   0  0  0  0  0  0  0  0  0  0  0  0
  192.1900  170.6450  138.9370 C   0  0  0  0  0  0  0  0  0  0  0  0
  190.9240  170.3440  139.2330 C   0  0  0  0  0  2  0  0  0  0  0  0
  192.7630  170.9090  136.4590 C   0  0  2  0  0  3  0  0  0  0  0  0
  191.8800  169.7430  136.6390 N   0  0  0  0  0  2  0  0  0  0  0  0
  192.8500  170.0950  137.6970 C   0  0  2  0  0  3  0  0  0  0  0  0
  191.9190  172.1800  136.5140 C   0  0  0  0  0  2  0  0  0  0  0  0
  190.7050  172.0740  135.5890 C   0  0  0  0  0  2  0  0  0  0  0  0
  189.3730  172.2700  136.3220 C   0  0  0  0  0  2  0  0  0  0  0  0
  189.4440  173.4100  137.3370 C   0  0  0  0  0  2  0  0  0  0  0  0
  188.2070  172.4510  139.1270 O   0  0  0  0  0  1  0  0  0  0  0  0
  188.1200  174.7110  138.8480 O   0  0  0  0  0  1  0  0  0  0  0  0
  188.1880  173.4810  138.1880 C   0  0  0  0  0  3  0  0  0  0  0  0
  193.9610  170.0080  140.5870 C   0  0  0  0  0  2  0  0  0  0  0  0
  195.3830  170.5540  140.6680 C   0  0  0  0  0  2  0  0  0  0  0  0
  195.5960  171.1750  141.9830 C   0  0  0  0  0  0  0  0  0  0  0  0
  195.7570  171.7020  143.0560 C   0  0  0  0  0  0  0  0  0  0  0  0
  195.8980  172.3460  144.3670 C   0  0  0  0  0  2  0  0  0  0  0  0
  193.9210  172.9390  145.5930 O   0  0  0  0  0  1  0  0  0  0  0  0
  194.7870  173.3690  144.5790 C   0  0  1  0  0  3  0  0  0  0  0  0
  195.3310  174.7720  144.8970 C   0  0  1  0  0  0  0  0  0  0  0  0
  195.8130  174.7650  146.2050 O   0  0  0  0  0  1  0  0  0  0  0  0
  196.5000  175.1130  143.9740 C   0  0  0  0  0  1  0  0  0  0  0  0
  194.1700  175.7890  144.8500 C   0  0  0  0  0  2  0  0  0  0  0  0
  194.9010  177.8500  145.7980 O   0  0  0  0  0  0  0  0  0  0  0  0
  194.1610  176.8340  145.9210 C   0  0  0  0  0  0  0  0  0  0  0  0
  191.9890  176.2960  146.9420 C   0  0  0  0  0  1  0  0  0  0  0  0
  193.3520  176.6680  147.0480 O   0  0  0  0  0  0  0  0  0  0  0  0
  1 40  1  0  0  0  0
  2  1  1  6  0  0  0
  2  8  1  0  0  0  0
  3  7  1  0  0  0  0
  4 10  1  0  0  0  0
  5  4  2  0  0  0  0
  5  2  1  0  0  0  0
  6 12  1  0  0  0  0
  6  7  1  0  0  0  0
  7  9  2  0  0  0  0
  8  3  2  0  0  0  0
 10  8  1  0  0  0  0
 10  6  2  0  0  0  0
 11 21  1  0  0  0  0
 12 11  1  0  0  0  0
 13 12  2  0  0  0  0
 14 15  2  0  0  0  0
 14 23  1  0  0  0  0
 16 19  1  0  0  0  0
 17 15  1  0  0  0  0
 18 14  1  0  0  0  0
 19 21  1  0  0  0  0
 20 19  2  0  0  0  0
 20 18  1  0  0  0  0
 21 17  2  0  0  0  0
 23 24  1  0  0  0  0
 23 22  1  0  0  0  0
 25 23  1  0  0  0  0
 26 27  1  0  0  0  0
 27 20  1  0  0  0  0
 28 29  2  0  0  0  0
 28  1  1  0  0  0  0
 30 33  1  1  0  0  0
 30 31  1  0  0  0  0
 30 32  1  0  0  0  0
 31 32  1  0  0  0  0
 32 28  1  1  0  0  0
 34 35  1  0  0  0  0
 34 33  1  0  0  0  0
 35 36  1  0  0  0  0
 36 39  1  0  0  0  0
 39 38  1  0  0  0  0
 39 37  1  0  0  0  0
 40 41  1  0  0  0  0
 41 42  1  0  0  0  0
 42 43  3  0  0  0  0
 43 44  1  0  0  0  0
 44 46  1  0  0  0  0
 46 47  1  0  0  0  0
 46 45  1  1  0  0  0
 47 49  1  6  0  0  0
 47 48  1  0  0  0  0
 50 47  1  0  0  0  0
 50 52  1  0  0  0  0
 51 52  2  0  0  0  0
 52 54  1  0  0  0  0
 53 54  1  0  0  0  0
M  END
>  <MODEL>
2

>  <REMARK>
 VINA RESULT:      -5.8      2.105      4.596
  Name = 
  21 active torsions:
  status: ('A' for Active; 'I' for Inactive)
    1  A    between atoms: C_2  and  N_10
    2  A    between atoms: C_2  and  C_41
    3  A    between atoms: N_3  and  C_52
    4  A    between atoms: C_4  and  N_10
    5  A    between atoms: O_6  and  C_50
    6  A    between atoms: O_7  and  C_49
    7  A    between atoms: C_8  and  C_27
    8  A    between atoms: C_9  and  C_35
    9  A    between atoms: C_9  and  C_39
   10  A    between atoms: N_10  and  C_42
   11  A    between atoms: C_13  and  C_25
   12  A    between atoms: C_17  and  C_28
   13  A    between atoms: C_17  and  C_35
   14  A    between atoms: C_25  and  C_45
   15  A    between atoms: C_28  and  C_49
   16  A    between atoms: C_31  and  C_36
   17  A    between atoms: C_33  and  C_37
   18  A    between atoms: C_33  and  C_43
   19  A    between atoms: C_38  and  C_54
   20  A    between atoms: C_42  and  C_54
   21  A    between atoms: C_43  and  C_45
                            x       y       z     vdW  Elec       q    Type
                         _______ _______ _______ _____ _____    ______ ____

>  <TORSDO>
F 21

$$$$
=
 OpenBabel11042417423D

 54 57  0  0  1  0  0  0  0  0999 V2000
  192.2580  172.5190  137.7830 N   0  0  0  0  0  0  0  0  0  0  0  0
  191.1290  171.9820  138.5460 C   0  0  1  0  0  3  0  0  0  0  0  0
  189.2780  173.5640  137.8230 N   0  0  0  0  0  0  0  0  0  0  0  0
  190.6140  172.5520  140.8950 N   0  0  0  0  0  0  0  0  0  0  0  0
  191.4920  171.7080  140.0510 C   0  0  0  0  0  3  0  0  0  0  0  0
  188.7880  174.1050  140.1150 C   0  0  0  0  0  0  0  0  0  0  0  0
  188.4190  174.3150  138.7060 C   0  0  0  0  0  0  0  0  0  0  0  0
  190.0670  172.9940  138.6700 C   0  0  0  0  0  0  0  0  0  0  0  0
  187.5130  175.1350  138.2840 N   0  0  0  0  0  2  0  0  0  0  0  0
  189.8140  173.2900  139.9980 C   0  0  0  0  0  0  0  0  0  0  0  0
  188.3150  175.9780  141.7200 N   0  0  0  0  0  2  0  0  0  0  0  0
  188.1510  174.6080  141.3360 C   0  0  0  0  0  0  0  0  0  0  0  0
  187.4980  173.8080  142.0510 O   0  0  0  0  0  0  0  0  0  0  0  0
  186.7240  177.0730  145.7620 C   0  0  0  0  0  0  0  0  0  0  0  0
  187.9940  176.9270  145.3730 C   0  0  0  0  0  3  0  0  0  0  0  0
  186.4990  178.3680  141.6380 O   0  0  0  0  0  1  0  0  0  0  0  0
  188.4080  176.4490  144.0330 C   0  0  0  0  0  3  0  0  0  0  0  0
  185.6000  176.6820  144.8530 C   0  0  0  0  0  2  0  0  0  0  0  0
  186.5700  177.5250  142.7450 C   0  0  0  0  0  0  0  0  0  0  0  0
  185.5710  177.5600  143.6410 C   0  0  0  0  0  0  0  0  0  0  0  0
  187.7560  176.6170  142.8740 C   0  0  0  0  0  0  0  0  0  0  0  0
  185.1790  178.1370  147.2130 F   0  0  0  0  0  0  0  0  0  0  0  0
  186.4170  177.5170  147.1670 C   0  0  0  0  0  0  0  0  0  0  0  0
  187.3770  178.4030  147.6210 F   0  0  0  0  0  0  0  0  0  0  0  0
  186.4100  176.4160  148.0100 F   0  0  0  0  0  0  0  0  0  0  0  0
  183.8610  179.1540  144.4390 C   0  0  0  0  0  1  0  0  0  0  0  0
  184.4920  178.4110  143.4070 O   0  0  0  0  0  0  0  0  0  0  0  0
  193.0810  171.6820  136.9600 C   0  0  0  0  0  0  0  0  0  0  0  0
  193.2560  172.0280  135.6840 C   0  0  0  0  0  2  0  0  0  0  0  0
  194.4060  169.8880  138.2110 C   0  0  2  0  0  3  0  0  0  0  0  0
  194.3630  169.5580  136.7760 N   0  0  0  0  0  2  0  0  0  0  0  0
  193.2150  170.2450  137.4020 C   0  0  2  0  0  3  0  0  0  0  0  0
  195.4530  170.9760  138.4360 C   0  0  0  0  0  2  0  0  0  0  0  0
  195.8560  171.0540  139.9100 C   0  0  0  0  0  2  0  0  0  0  0  0
  194.9050  170.2840  140.8330 C   0  0  0  0  0  2  0  0  0  0  0  0
  194.5520  171.0870  142.0840 C   0  0  0  0  0  2  0  0  0  0  0  0
  195.9180  169.4510  143.1400 O   0  0  0  0  0  1  0  0  0  0  0  0
  195.1230  171.1690  144.4070 O   0  0  0  0  0  1  0  0  0  0  0  0
  194.8320  170.2990  143.3530 C   0  0  0  0  0  3  0  0  0  0  0  0
  192.5940  173.9280  137.9510 C   0  0  0  0  0  2  0  0  0  0  0  0
  194.0090  174.0710  138.5040 C   0  0  0  0  0  2  0  0  0  0  0  0
  193.9470  174.3280  139.9500 C   0  0  0  0  0  0  0  0  0  0  0  0
  193.9060  174.5600  141.1330 C   0  0  0  0  0  0  0  0  0  0  0  0
  193.8310  174.8900  142.5610 C   0  0  0  0  0  2  0  0  0  0  0  0
  191.4410  175.1130  142.6340 O   0  0  0  0  0  1  0  0  0  0  0  0
  192.6420  175.8070  142.8320 C   0  0  1  0  0  3  0  0  0  0  0  0
  192.6820  176.4180  144.2430 C   0  0  1  0  0  0  0  0  0  0  0  0
  192.0650  177.6670  144.1930 O   0  0  0  0  0  1  0  0  0  0  0  0
  191.8910  175.5510  145.2230 C   0  0  0  0  0  1  0  0  0  0  0  0
  194.1520  176.6560  144.6520 C   0  0  0  0  0  2  0  0  0  0  0  0
  194.2130  177.2610  146.9570 O   0  0  0  0  0  0  0  0  0  0  0  0
  194.4910  176.3900  146.0860 C   0  0  0  0  0  0  0  0  0  0  0  0
  196.0440  174.5520  145.5760 C   0  0  0  0  0  1  0  0  0  0  0  0
  195.1230  175.1960  146.4400 O   0  0  0  0  0  0  0  0  0  0  0  0
  1 40  1  0  0  0  0
  2  1  1  6  0  0  0
  2  8  1  0  0  0  0
  2  5  1  0  0  0  0
  3  8  2  0  0  0  0
  3  7  1  0  0  0  0
  5  4  2  0  0  0  0
  6 12  1  0  0  0  0
  7  6  1  0  0  0  0
  8 10  1  0  0  0  0
  9  7  2  0  0  0  0
 10  6  2  0  0  0  0
 10  4  1  0  0  0  0
 11 21  1  0  0  0  0
 12 11  1  0  0  0  0
 12 13  2  0  0  0  0
 14 23  1  0  0  0  0
 15 14  2  0  0  0  0
 16 19  1  0  0  0  0
 17 15  1  0  0  0  0
 18 14  1  0  0  0  0
 19 21  1  0  0  0  0
 19 20  2  0  0  0  0
 20 18  1  0  0  0  0
 21 17  2  0  0  0  0
 23 22  1  0  0  0  0
 23 24  1  0  0  0  0
 23 25  1  0  0  0  0
 27 20  1  0  0  0  0
 27 26  1  0  0  0  0
 28  1  1  0  0  0  0
 29 28  2  0  0  0  0
 30 33  1  6  0  0  0
 31 32  1  0  0  0  0
 31 30  1  0  0  0  0
 32 28  1  6  0  0  0
 32 30  1  0  0  0  0
 33 34  1  0  0  0  0
 34 35  1  0  0  0  0
 35 36  1  0  0  0  0
 36 39  1  0  0  0  0
 37 39  1  0  0  0  0
 39 38  1  0  0  0  0
 40 41  1  0  0  0  0
 41 42  1  0  0  0  0
 42 43  3  0  0  0  0
 43 44  1  0  0  0  0
 44 46  1  0  0  0  0
 46 45  1  1  0  0  0
 46 47  1  0  0  0  0
 47 50  1  0  0  0  0
 47 49  1  1  0  0  0
 48 47  1  0  0  0  0
 50 52  1  0  0  0  0
 52 54  1  0  0  0  0
 52 51  2  0  0  0  0
 53 54  1  0  0  0  0
M  END
>  <MODEL>
3

>  <REMARK>
 VINA RESULT:      -5.7      1.676      2.346
  Name = 
  21 active torsions:
  status: ('A' for Active; 'I' for Inactive)
    1  A    between atoms: C_2  and  N_10
    2  A    between atoms: C_2  and  C_41
    3  A    between atoms: N_3  and  C_52
    4  A    between atoms: C_4  and  N_10
    5  A    between atoms: O_6  and  C_50
    6  A    between atoms: O_7  and  C_49
    7  A    between atoms: C_8  and  C_27
    8  A    between atoms: C_9  and  C_35
    9  A    between atoms: C_9  and  C_39
   10  A    between atoms: N_10  and  C_42
   11  A    between atoms: C_13  and  C_25
   12  A    between atoms: C_17  and  C_28
   13  A    between atoms: C_17  and  C_35
   14  A    between atoms: C_25  and  C_45
   15  A    between atoms: C_28  and  C_49
   16  A    between atoms: C_31  and  C_36
   17  A    between atoms: C_33  and  C_37
   18  A    between atoms: C_33  and  C_43
   19  A    between atoms: C_38  and  C_54
   20  A    between atoms: C_42  and  C_54
   21  A    between atoms: C_43  and  C_45
                            x       y       z     vdW  Elec       q    Type
                         _______ _______ _______ _____ _____    ______ ____

>  <TORSDO>
F 21

$$$$
=
 OpenBabel11042417423D

 54 57  0  0  1  0  0  0  0  0999 V2000
  188.9260  176.1820  145.4810 N   0  0  0  0  0  0  0  0  0  0  0  0
  189.2520  176.5880  144.1120 C   0  0  1  0  0  3  0  0  0  0  0  0
  188.0310  174.7950  142.7890 N   0  0  0  0  0  0  0  0  0  0  0  0
  191.3240  175.9730  142.9120 N   0  0  0  0  0  0  0  0  0  0  0  0
  190.7790  176.9100  143.9230 C   0  0  0  0  0  3  0  0  0  0  0  0
  190.0560  174.2130  141.6280 C   0  0  0  0  0  0  0  0  0  0  0  0
  188.6150  173.9540  141.7730 C   0  0  0  0  0  0  0  0  0  0  0  0
  189.0640  175.4580  143.1860 C   0  0  1  0  0  3  0  0  0  0  0  0
  187.9550  173.0310  141.1530 N   0  0  0  0  0  1  0  0  0  0  0  0
  190.2470  175.1430  142.5400 C   0  0  0  0  0  0  0  0  0  0  0  0
  192.2290  173.0450  141.1610 N   0  0  0  0  0  2  0  0  0  0  0  0
  191.0200  173.6460  140.6810 C   0  0  0  0  0  0  0  0  0  0  0  0
  190.7840  173.7350  139.4510 O   0  0  0  0  0  0  0  0  0  0  0  0
  195.4340  172.0610  138.1900 C   0  0  0  0  0  0  0  0  0  0  0  0
  195.5060  172.8430  139.2710 C   0  0  0  0  0  3  0  0  0  0  0  0
  192.6440  170.0870  140.8460 O   0  0  0  0  0  1  0  0  0  0  0  0
  194.3480  173.1930  140.1280 C   0  0  0  0  0  3  0  0  0  0  0  0
  194.1160  171.5260  137.7230 C   0  0  0  0  0  2  0  0  0  0  0  0
  193.1630  171.0120  139.9420 C   0  0  0  0  0  0  0  0  0  0  0  0
  193.5440  170.5780  138.7310 C   0  0  0  0  0  0  0  0  0  0  0  0
  193.2610  172.4460  140.3670 C   0  0  0  0  0  0  0  0  0  0  0  0
  196.9620  172.9320  136.5980 F   0  0  0  0  0  0  0  0  0  0  0  0
  196.6670  171.8140  137.3620 C   0  0  0  0  0  0  0  0  0  0  0  0
  196.4820  170.7330  136.5180 F   0  0  0  0  0  0  0  0  0  0  0  0
  197.7380  171.5330  138.1970 F   0  0  0  0  0  0  0  0  0  0  0  0
  194.3860  168.4480  137.8040 C   0  0  0  0  0  1  0  0  0  0  0  0
  193.3740  169.2300  138.4180 O   0  0  0  0  0  0  0  0  0  0  0  0
  188.2660  177.0670  146.3950 C   0  0  0  0  0  0  0  0  0  0  0  0
  189.0160  177.8890  147.1310 C   0  0  0  0  0  2  0  0  0  0  0  0
  185.7260  177.3550  146.3030 C   0  0  2  0  0  3  0  0  0  0  0  0
  186.2090  177.6740  147.6580 N   0  0  0  0  0  2  0  0  0  0  0  0
  186.8970  176.6360  146.8620 C   0  0  2  0  0  3  0  0  0  0  0  0
  186.0070  178.5450  145.3870 C   0  0  0  0  0  2  0  0  0  0  0  0
  184.7510  178.9500  144.6130 C   0  0  0  0  0  2  0  0  0  0  0  0
  184.8390  178.6320  143.1160 C   0  0  0  0  0  2  0  0  0  0  0  0
  186.2400  178.1760  142.7130 C   0  0  0  0  0  2  0  0  0  0  0  0
  185.3990  178.3870  140.4970 O   0  0  0  0  0  1  0  0  0  0  0  0
  187.5600  177.7180  140.7690 O   0  0  0  0  0  1  0  0  0  0  0  0
  186.2670  177.6380  141.2910 C   0  0  0  0  0  3  0  0  0  0  0  0
  189.3790  174.8730  145.9380 C   0  0  0  0  0  2  0  0  0  0  0  0
  190.1290  175.0050  147.2600 C   0  0  0  0  0  2  0  0  0  0  0  0
  191.5570  175.2280  146.9950 C   0  0  0  0  0  0  0  0  0  0  0  0
  192.7270  175.4000  146.7570 C   0  0  0  0  0  0  0  0  0  0  0  0
  194.1360  175.6320  146.4190 C   0  0  0  0  0  2  0  0  0  0  0  0
  194.3300  176.7520  144.3040 O   0  0  0  0  0  1  0  0  0  0  0  0
  194.3520  175.4920  144.9160 C   0  0  1  0  0  3  0  0  0  0  0  0
  195.6570  174.7530  144.5760 C   0  0  1  0  0  0  0  0  0  0  0  0
  196.5580  175.6790  144.0530 O   0  0  0  0  0  1  0  0  0  0  0  0
  196.2820  174.1630  145.8400 C   0  0  0  0  0  1  0  0  0  0  0  0
  195.3790  173.7170  143.4650 C   0  0  0  0  0  2  0  0  0  0  0  0
  197.4660  172.8870  142.6670 O   0  0  0  0  0  0  0  0  0  0  0  0
  196.4010  172.6370  143.2970 C   0  0  0  0  0  0  0  0  0  0  0  0
  195.1550  170.5150  143.2900 C   0  0  0  0  0  1  0  0  0  0  0  0
  196.1600  171.3640  143.8200 O   0  0  0  0  0  0  0  0  0  0  0  0
  1 40  1  0  0  0  0
  1 28  1  0  0  0  0
  2  1  1  1  0  0  0
  3  8  1  0  0  0  0
  4  5  2  0  0  0  0
  5  2  1  0  0  0  0
  6  7  1  0  0  0  0
  6 10  2  0  0  0  0
  7  3  2  0  0  0  0
  8 10  1  6  0  0  0
  8  2  1  0  0  0  0
  9  7  1  0  0  0  0
 10  4  1  0  0  0  0
 12 11  1  0  0  0  0
 12  6  1  0  0  0  0
 13 12  2  0  0  0  0
 14 15  2  0  0  0  0
 15 17  1  0  0  0  0
 17 21  2  0  0  0  0
 18 14  1  0  0  0  0
 18 20  1  0  0  0  0
 19 21  1  0  0  0  0
 19 16  1  0  0  0  0
 20 19  2  0  0  0  0
 21 11  1  0  0  0  0
 22 23  1  0  0  0  0
 23 14  1  0  0  0  0
 23 25  1  0  0  0  0
 24 23  1  0  0  0  0
 26 27  1  0  0  0  0
 27 20  1  0  0  0  0
 28 29  2  0  0  0  0
 30 33  1  6  0  0  0
 30 32  1  0  0  0  0
 30 31  1  0  0  0  0
 32 28  1  6  0  0  0
 32 31  1  0  0  0  0
 34 33  1  0  0  0  0
 35 34  1  0  0  0  0
 36 35  1  0  0  0  0
 37 39  1  0  0  0  0
 38 39  1  0  0  0  0
 39 36  1  0  0  0  0
 40 41  1  0  0  0  0
 42 41  1  0  0  0  0
 43 42  3  0  0  0  0
 44 43  1  0  0  0  0
 46 45  1  6  0  0  0
 46 44  1  0  0  0  0
 47 46  1  0  0  0  0
 47 49  1  1  0  0  0
 48 47  1  0  0  0  0
 50 47  1  0  0  0  0
 51 52  2  0  0  0  0
 52 50  1  0  0  0  0
 52 54  1  0  0  0  0
 53 54  1  0  0  0  0
M  END
>  <MODEL>
4

>  <REMARK>
 VINA RESULT:      -5.7      4.505      9.965
  Name = 
  21 active torsions:
  status: ('A' for Active; 'I' for Inactive)
    1  A    between atoms: C_2  and  N_10
    2  A    between atoms: C_2  and  C_41
    3  A    between atoms: N_3  and  C_52
    4  A    between atoms: C_4  and  N_10
    5  A    between atoms: O_6  and  C_50
    6  A    between atoms: O_7  and  C_49
    7  A    between atoms: C_8  and  C_27
    8  A    between atoms: C_9  and  C_35
    9  A    between atoms: C_9  and  C_39
   10  A    between atoms: N_10  and  C_42
   11  A    between atoms: C_13  and  C_25
   12  A    between atoms: C_17  and  C_28
   13  A    between atoms: C_17  and  C_35
   14  A    between atoms: C_25  and  C_45
   15  A    between atoms: C_28  and  C_49
   16  A    between atoms: C_31  and  C_36
   17  A    between atoms: C_33  and  C_37
   18  A    between atoms: C_33  and  C_43
   19  A    between atoms: C_38  and  C_54
   20  A    between atoms: C_42  and  C_54
   21  A    between atoms: C_43  and  C_45
                            x       y       z     vdW  Elec       q    Type
                         _______ _______ _______ _____ _____    ______ ____

>  <TORSDO>
F 21

$$$$
=
 OpenBabel11042417423D

 54 57  0  0  1  0  0  0  0  0999 V2000
  189.0880  175.9900  145.4300 N   0  0  0  0  0  0  0  0  0  0  0  0
  189.3410  176.2540  144.0110 C   0  0  1  0  0  3  0  0  0  0  0  0
  187.7420  174.6000  142.9340 N   0  0  0  0  0  0  0  0  0  0  0  0
  191.1730  175.2460  142.6920 N   0  0  0  0  0  0  0  0  0  0  0  0
  190.8750  176.3170  143.6720 C   0  0  0  0  0  3  0  0  0  0  0  0
  189.5350  173.6340  141.6550 C   0  0  0  0  0  0  0  0  0  0  0  0
  188.0910  173.6160  141.9390 C   0  0  0  0  0  0  0  0  0  0  0  0
  188.8960  175.1140  143.1920 C   0  0  1  0  0  3  0  0  0  0  0  0
  187.2420  172.7730  141.4480 N   0  0  0  0  0  1  0  0  0  0  0  0
  189.9510  174.5750  142.4750 C   0  0  0  0  0  0  0  0  0  0  0  0
  190.2420  173.1990  139.2850 N   0  0  0  0  0  2  0  0  0  0  0  0
  190.3070  172.8640  140.6760 C   0  0  0  0  0  0  0  0  0  0  0  0
  190.9900  171.8890  141.0760 O   0  0  0  0  0  0  0  0  0  0  0  0
  192.1860  170.3250  136.4510 C   0  0  0  0  0  0  0  0  0  0  0  0
  190.8860  170.5880  136.6160 C   0  0  0  0  0  3  0  0  0  0  0  0
  192.3050  174.5120  137.5420 O   0  0  0  0  0  1  0  0  0  0  0  0
  190.3410  171.4800  137.6680 C   0  0  0  0  0  3  0  0  0  0  0  0
  193.2020  170.8840  137.3970 C   0  0  0  0  0  2  0  0  0  0  0  0
  192.2070  173.1270  137.6650 C   0  0  0  0  0  0  0  0  0  0  0  0
  193.2560  172.3770  137.2950 C   0  0  0  0  0  0  0  0  0  0  0  0
  190.9380  172.5490  138.2140 C   0  0  0  0  0  0  0  0  0  0  0  0
  191.5740  169.0950  134.5180 F   0  0  0  0  0  0  0  0  0  0  0  0
  192.6240  169.3610  135.3810 C   0  0  0  0  0  0  0  0  0  0  0  0
  193.0550  168.1710  135.9400 F   0  0  0  0  0  0  0  0  0  0  0  0
  193.6780  169.9110  134.6660 F   0  0  0  0  0  0  0  0  0  0  0  0
  194.8640  172.9070  135.4960 C   0  0  0  0  0  1  0  0  0  0  0  0
  194.4070  173.0150  136.8350 O   0  0  0  0  0  0  0  0  0  0  0  0
  188.4290  176.9460  146.2700 C   0  0  0  0  0  0  0  0  0  0  0  0
  189.1760  177.8560  146.8960 C   0  0  0  0  0  2  0  0  0  0  0  0
  185.8860  177.2170  146.2860 C   0  0  2  0  0  3  0  0  0  0  0  0
  186.4310  177.5990  147.6010 N   0  0  0  0  0  2  0  0  0  0  0  0
  187.0870  176.5300  146.8210 C   0  0  2  0  0  3  0  0  0  0  0  0
  186.1150  178.3650  145.3050 C   0  0  0  0  0  2  0  0  0  0  0  0
  185.0810  178.3390  144.1790 C   0  0  0  0  0  2  0  0  0  0  0  0
  185.5890  178.9800  142.8820 C   0  0  0  0  0  2  0  0  0  0  0  0
  186.7240  178.1720  142.2540 C   0  0  0  0  0  2  0  0  0  0  0  0
  187.0640  176.7090  140.4100 O   0  0  0  0  0  1  0  0  0  0  0  0
  185.1110  177.8780  140.5110 O   0  0  0  0  0  1  0  0  0  0  0  0
  186.4820  177.9220  140.7750 C   0  0  0  0  0  3  0  0  0  0  0  0
  189.6130  174.7570  146.0050 C   0  0  0  0  0  2  0  0  0  0  0  0
  190.3610  175.0550  147.3000 C   0  0  0  0  0  2  0  0  0  0  0  0
  191.7760  175.3170  147.0020 C   0  0  0  0  0  0  0  0  0  0  0  0
  192.9330  175.5540  146.7600 C   0  0  0  0  0  0  0  0  0  0  0  0
  194.3450  175.8710  146.5130 C   0  0  0  0  0  2  0  0  0  0  0  0
  194.9040  177.7170  145.0820 O   0  0  0  0  0  1  0  0  0  0  0  0
  194.5360  176.3650  145.0820 C   0  0  1  0  0  3  0  0  0  0  0  0
  195.5660  175.5290  144.3040 C   0  0  1  0  0  0  0  0  0  0  0  0
  196.5720  176.3830  143.8580 O   0  0  0  0  0  1  0  0  0  0  0  0
  196.2120  174.4900  145.2200 C   0  0  0  0  0  1  0  0  0  0  0  0
  194.8910  174.9320  143.0490 C   0  0  0  0  0  2  0  0  0  0  0  0
  195.7120  172.7080  142.8100 O   0  0  0  0  0  0  0  0  0  0  0  0
  194.7140  173.4470  143.0360 C   0  0  0  0  0  0  0  0  0  0  0  0
  192.9710  172.6170  144.5610 C   0  0  0  0  0  1  0  0  0  0  0  0
  193.4480  172.8960  143.2560 O   0  0  0  0  0  0  0  0  0  0  0  0
  1 40  1  0  0  0  0
  1 28  1  0  0  0  0
  2  1  1  1  0  0  0
  3  8  1  0  0  0  0
  4  5  2  0  0  0  0
  5  2  1  0  0  0  0
  6  7  1  0  0  0  0
  6 10  2  0  0  0  0
  7  3  2  0  0  0  0
  8 10  1  6  0  0  0
  8  2  1  0  0  0  0
  9  7  1  0  0  0  0
 10  4  1  0  0  0  0
 11 12  1  0  0  0  0
 12 13  2  0  0  0  0
 12  6  1  0  0  0  0
 14 15  2  0  0  0  0
 14 18  1  0  0  0  0
 15 17  1  0  0  0  0
 16 19  1  0  0  0  0
 17 21  2  0  0  0  0
 19 21  1  0  0  0  0
 20 18  1  0  0  0  0
 20 19  2  0  0  0  0
 21 11  1  0  0  0  0
 22 23  1  0  0  0  0
 23 24  1  0  0  0  0
 23 14  1  0  0  0  0
 25 23  1  0  0  0  0
 26 27  1  0  0  0  0
 27 20  1  0  0  0  0
 28 29  2  0  0  0  0
 30 33  1  6  0  0  0
 30 32  1  0  0  0  0
 30 31  1  0  0  0  0
 32 28  1  6  0  0  0
 32 31  1  0  0  0  0
 34 33  1  0  0  0  0
 35 34  1  0  0  0  0
 36 35  1  0  0  0  0
 37 39  1  0  0  0  0
 38 39  1  0  0  0  0
 39 36  1  0  0  0  0
 40 41  1  0  0  0  0
 42 41  1  0  0  0  0
 43 42  3  0  0  0  0
 44 43  1  0  0  0  0
 46 45  1  1  0  0  0
 46 44  1  0  0  0  0
 47 46  1  0  0  0  0
 47 49  1  1  0  0  0
 48 47  1  0  0  0  0
 50 47  1  0  0  0  0
 51 52  2  0  0  0  0
 52 50  1  0  0  0  0
 52 54  1  0  0  0  0
 54 53  1  0  0  0  0
M  END
>  <MODEL>
5

>  <REMARK>
 VINA RESULT:      -5.6      4.697      9.752
  Name = 
  21 active torsions:
  status: ('A' for Active; 'I' for Inactive)
    1  A    between atoms: C_2  and  N_10
    2  A    between atoms: C_2  and  C_41
    3  A    between atoms: N_3  and  C_52
    4  A    between atoms: C_4  and  N_10
    5  A    between atoms: O_6  and  C_50
    6  A    between atoms: O_7  and  C_49
    7  A    between atoms: C_8  and  C_27
    8  A    between atoms: C_9  and  C_35
    9  A    between atoms: C_9  and  C_39
   10  A    between atoms: N_10  and  C_42
   11  A    between atoms: C_13  and  C_25
   12  A    between atoms: C_17  and  C_28
   13  A    between atoms: C_17  and  C_35
   14  A    between atoms: C_25  and  C_45
   15  A    between atoms: C_28  and  C_49
   16  A    between atoms: C_31  and  C_36
   17  A    between atoms: C_33  and  C_37
   18  A    between atoms: C_33  and  C_43
   19  A    between atoms: C_38  and  C_54
   20  A    between atoms: C_42  and  C_54
   21  A    between atoms: C_43  and  C_45
                            x       y       z     vdW  Elec       q    Type
                         _______ _______ _______ _____ _____    ______ ____

>  <TORSDO>
F 21

$$$$
=
 OpenBabel11042417423D

 54 57  0  0  1  0  0  0  0  0999 V2000
  188.2990  176.7060  144.3500 N   0  0  0  0  0  0  0  0  0  0  0  0
  188.1650  175.4440  143.6180 C   0  0  1  0  0  3  0  0  0  0  0  0
  189.9990  174.0690  144.7130 N   0  0  0  0  0  0  0  0  0  0  0  0
  189.2040  174.9680  141.4260 N   0  0  0  0  0  0  0  0  0  0  0  0
  188.0570  175.6560  142.0630 C   0  0  0  0  0  3  0  0  0  0  0  0
  190.9930  173.6120  142.5720 C   0  0  0  0  0  0  0  0  0  0  0  0
  191.0580  173.3750  144.0220 C   0  0  0  0  0  0  0  0  0  0  0  0
  189.4020  174.6540  143.7300 C   0  0  0  0  0  0  0  0  0  0  0  0
  191.9880  172.7160  144.6330 N   0  0  0  0  0  2  0  0  0  0  0  0
  189.9550  174.4150  142.4840 C   0  0  0  0  0  0  0  0  0  0  0  0
  192.4520  173.9290  140.5530 N   0  0  0  0  0  2  0  0  0  0  0  0
  191.8160  173.0560  141.4940 C   0  0  0  0  0  0  0  0  0  0  0  0
  191.9170  171.8090  141.3910 O   0  0  0  0  0  0  0  0  0  0  0  0
  194.5750  171.8350  137.2100 C   0  0  0  0  0  0  0  0  0  0  0  0
  193.3360  172.3340  137.2320 C   0  0  0  0  0  3  0  0  0  0  0  0
  195.0770  175.2160  139.8640 O   0  0  0  0  0  1  0  0  0  0  0  0
  192.6890  172.9100  138.4350 C   0  0  0  0  0  3  0  0  0  0  0  0
  195.3900  171.7630  138.4640 C   0  0  0  0  0  2  0  0  0  0  0  0
  194.7310  173.9450  139.4120 C   0  0  0  0  0  0  0  0  0  0  0  0
  195.7060  173.1360  138.9680 C   0  0  0  0  0  0  0  0  0  0  0  0
  193.2880  173.5430  139.4540 C   0  0  0  0  0  0  0  0  0  0  0  0
  195.6930  169.9960  136.2120 F   0  0  0  0  0  0  0  0  0  0  0  0
  195.1140  171.2260  135.9430 C   0  0  0  0  0  0  0  0  0  0  0  0
  196.0660  172.0500  135.3690 F   0  0  0  0  0  0  0  0  0  0  0  0
  194.0810  171.0580  135.0330 F   0  0  0  0  0  0  0  0  0  0  0  0
  197.9400  173.3870  137.9460 C   0  0  0  0  0  1  0  0  0  0  0  0
  197.0230  173.5910  139.0090 O   0  0  0  0  0  0  0  0  0  0  0  0
  187.7260  176.8890  145.6510 C   0  0  0  0  0  0  0  0  0  0  0  0
  188.5420  176.8730  146.7070 C   0  0  0  0  0  2  0  0  0  0  0  0
  185.2780  177.6260  145.6520 C   0  0  2  0  0  3  0  0  0  0  0  0
  185.6420  177.1260  146.9890 N   0  0  0  0  0  2  0  0  0  0  0  0
  186.2670  176.5300  145.7900 C   0  0  2  0  0  3  0  0  0  0  0  0
  185.8210  179.0450  145.4910 C   0  0  0  0  0  2  0  0  0  0  0  0
  185.2870  179.6960  144.2140 C   0  0  0  0  0  2  0  0  0  0  0  0
  184.5230  178.7170  143.3160 C   0  0  0  0  0  2  0  0  0  0  0  0
  185.4420  178.0400  142.3000 C   0  0  0  0  0  2  0  0  0  0  0  0
  185.7410  177.5790  139.9860 O   0  0  0  0  0  1  0  0  0  0  0  0
  183.7040  178.3270  140.6790 O   0  0  0  0  0  1  0  0  0  0  0  0
  185.0840  178.4280  140.8750 C   0  0  0  0  0  3  0  0  0  0  0  0
  188.9540  177.8240  143.6810 C   0  0  0  0  0  2  0  0  0  0  0  0
  190.1470  178.3050  144.5020 C   0  0  0  0  0  2  0  0  0  0  0  0
  191.3480  177.5580  144.1060 C   0  0  0  0  0  0  0  0  0  0  0  0
  192.3220  176.9290  143.7700 C   0  0  0  0  0  0  0  0  0  0  0  0
  193.4880  176.1670  143.3080 C   0  0  0  0  0  2  0  0  0  0  0  0
  193.9350  175.8460  145.6450 O   0  0  0  0  0  1  0  0  0  0  0  0
  194.5430  176.0920  144.4070 C   0  0  1  0  0  3  0  0  0  0  0  0
  195.6190  175.0330  144.1180 C   0  0  1  0  0  0  0  0  0  0  0  0
  196.6190  175.6260  143.3510 O   0  0  0  0  0  1  0  0  0  0  0  0
  196.2590  174.5520  145.4210 C   0  0  0  0  0  1  0  0  0  0  0  0
  195.0040  173.9040  143.2630 C   0  0  0  0  0  2  0  0  0  0  0  0
  196.8230  172.7540  142.2390 O   0  0  0  0  0  0  0  0  0  0  0  0
  195.8580  172.6930  143.0500 C   0  0  0  0  0  0  0  0  0  0  0  0
  194.6210  170.5760  143.2480 C   0  0  0  0  0  1  0  0  0  0  0  0
  195.5700  171.5100  143.7350 O   0  0  0  0  0  0  0  0  0  0  0  0
  1 28  1  0  0  0  0
  2  8  1  0  0  0  0
  2  1  1  1  0  0  0
  4  5  2  0  0  0  0
  4 10  1  0  0  0  0
  5  2  1  0  0  0  0
  6  7  1  0  0  0  0
  7  9  2  0  0  0  0
  7  3  1  0  0  0  0
  8  3  2  0  0  0  0
 10  6  2  0  0  0  0
 10  8  1  0  0  0  0
 11 12  1  0  0  0  0
 12  6  1  0  0  0  0
 13 12  2  0  0  0  0
 14 15  2  0  0  0  0
 14 18  1  0  0  0  0
 15 17  1  0  0  0  0
 17 21  2  0  0  0  0
 18 20  1  0  0  0  0
 19 21  1  0  0  0  0
 19 16  1  0  0  0  0
 20 27  1  0  0  0  0
 20 19  2  0  0  0  0
 21 11  1  0  0  0  0
 23 22  1  0  0  0  0
 23 14  1  0  0  0  0
 24 23  1  0  0  0  0
 25 23  1  0  0  0  0
 26 27  1  0  0  0  0
 28 29  2  0  0  0  0
 30 33  1  1  0  0  0
 30 32  1  0  0  0  0
 30 31  1  0  0  0  0
 32 28  1  1  0  0  0
 32 31  1  0  0  0  0
 34 33  1  0  0  0  0
 35 34  1  0  0  0  0
 36 35  1  0  0  0  0
 37 39  1  0  0  0  0
 38 39  1  0  0  0  0
 39 36  1  0  0  0  0
 40  1  1  0  0  0  0
 40 41  1  0  0  0  0
 42 41  1  0  0  0  0
 43 42  3  0  0  0  0
 44 43  1  0  0  0  0
 44 46  1  0  0  0  0
 46 45  1  1  0  0  0
 47 46  1  0  0  0  0
 47 49  1  1  0  0  0
 48 47  1  0  0  0  0
 50 47  1  0  0  0  0
 51 52  2  0  0  0  0
 52 50  1  0  0  0  0
 52 54  1  0  0  0  0
 53 54  1  0  0  0  0
M  END
>  <MODEL>
6

>  <REMARK>
 VINA RESULT:      -5.6      4.500     10.136
  Name = 
  21 active torsions:
  status: ('A' for Active; 'I' for Inactive)
    1  A    between atoms: C_2  and  N_10
    2  A    between atoms: C_2  and  C_41
    3  A    between atoms: N_3  and  C_52
    4  A    between atoms: C_4  and  N_10
    5  A    between atoms: O_6  and  C_50
    6  A    between atoms: O_7  and  C_49
    7  A    between atoms: C_8  and  C_27
    8  A    between atoms: C_9  and  C_35
    9  A    between atoms: C_9  and  C_39
   10  A    between atoms: N_10  and  C_42
   11  A    between atoms: C_13  and  C_25
   12  A    between atoms: C_17  and  C_28
   13  A    between atoms: C_17  and  C_35
   14  A    between atoms: C_25  and  C_45
   15  A    between atoms: C_28  and  C_49
   16  A    between atoms: C_31  and  C_36
   17  A    between atoms: C_33  and  C_37
   18  A    between atoms: C_33  and  C_43
   19  A    between atoms: C_38  and  C_54
   20  A    between atoms: C_42  and  C_54
   21  A    between atoms: C_43  and  C_45
                            x       y       z     vdW  Elec       q    Type
                         _______ _______ _______ _____ _____    ______ ____

>  <TORSDO>
F 21

$$$$
=
 OpenBabel11042417423D

 54 57  0  0  1  0  0  0  0  0999 V2000
  192.8550  172.6620  138.1810 N   0  0  0  0  0  0  0  0  0  0  0  0
  191.7300  171.9660  138.8100 C   0  0  1  0  0  3  0  0  0  0  0  0
  189.7970  173.4460  138.0820 N   0  0  0  0  0  0  0  0  0  0  0  0
  191.0060  172.2820  141.1520 N   0  0  0  0  0  0  0  0  0  0  0  0
  192.0130  171.5920  140.3110 C   0  0  0  0  0  3  0  0  0  0  0  0
  189.1050  173.7390  140.3660 C   0  0  0  0  0  0  0  0  0  0  0  0
  188.8160  174.0410  138.9560 C   0  0  0  0  0  0  0  0  0  0  0  0
  190.5750  172.8710  138.9360 C   0  0  0  0  0  0  0  0  0  0  0  0
  187.8710  174.8160  138.5350 N   0  0  0  0  0  2  0  0  0  0  0  0
  190.2060  173.0260  140.2610 C   0  0  0  0  0  0  0  0  0  0  0  0
  188.5430  175.3390  142.2180 N   0  0  0  0  0  2  0  0  0  0  0  0
  188.3440  174.0760  141.5730 C   0  0  0  0  0  0  0  0  0  0  0  0
  187.5510  173.2250  142.0450 O   0  0  0  0  0  0  0  0  0  0  0  0
  186.1880  177.5990  145.2860 C   0  0  0  0  0  0  0  0  0  0  0  0
  185.7420  176.8550  144.2690 C   0  0  0  0  0  3  0  0  0  0  0  0
  189.2810  174.5830  145.0290 O   0  0  0  0  0  1  0  0  0  0  0  0
  186.6130  176.2400  143.2390 C   0  0  0  0  0  3  0  0  0  0  0  0
  187.6440  177.9230  145.4120 C   0  0  0  0  0  2  0  0  0  0  0  0
  188.5330  175.7210  144.7370 C   0  0  0  0  0  0  0  0  0  0  0  0
  188.4410  176.6820  145.6680 C   0  0  0  0  0  0  0  0  0  0  0  0
  187.8760  175.8160  143.3930 C   0  0  0  0  0  0  0  0  0  0  0  0
  184.6580  179.3650  145.6930 F   0  0  0  0  0  0  0  0  0  0  0  0
  185.2070  178.2190  146.2450 C   0  0  0  0  0  0  0  0  0  0  0  0
  185.8300  178.5530  147.4350 F   0  0  0  0  0  0  0  0  0  0  0  0
  184.1950  177.3140  146.5240 F   0  0  0  0  0  0  0  0  0  0  0  0
  190.4890  176.8660  147.0370 C   0  0  0  0  0  1  0  0  0  0  0  0
  189.1240  176.5160  146.8720 O   0  0  0  0  0  0  0  0  0  0  0  0
  193.8610  171.9580  137.4410 C   0  0  0  0  0  0  0  0  0  0  0  0
  193.5680  171.5580  136.2030 C   0  0  0  0  0  2  0  0  0  0  0  0
  196.2930  171.7830  138.2100 C   0  0  2  0  0  3  0  0  0  0  0  0
  195.9360  170.5860  137.4280 N   0  0  0  0  0  2  0  0  0  0  0  0
  194.9110  171.2480  138.2600 C   0  0  2  0  0  3  0  0  0  0  0  0
  196.5640  172.9380  137.2480 C   0  0  0  0  0  2  0  0  0  0  0  0
  197.4290  174.0110  137.9090 C   0  0  0  0  0  2  0  0  0  0  0  0
  197.2270  175.4040  137.3020 C   0  0  0  0  0  2  0  0  0  0  0  0
  196.0050  175.4540  136.3860 C   0  0  0  0  0  2  0  0  0  0  0  0
  196.3000  177.5220  135.2490 O   0  0  0  0  0  1  0  0  0  0  0  0
  197.5820  175.7500  134.6100 O   0  0  0  0  0  1  0  0  0  0  0  0
  196.3210  176.1400  135.0670 C   0  0  0  0  0  3  0  0  0  0  0  0
  192.9890  174.0970  138.4040 C   0  0  0  0  0  2  0  0  0  0  0  0
  194.0570  174.3690  139.4590 C   0  0  0  0  0  2  0  0  0  0  0  0
  193.4140  174.7790  140.7150 C   0  0  0  0  0  0  0  0  0  0  0  0
  192.8980  175.0990  141.7580 C   0  0  0  0  0  0  0  0  0  0  0  0
  192.3220  175.4970  143.0470 C   0  0  0  0  0  2  0  0  0  0  0  0
  192.6080  177.5200  144.3080 O   0  0  0  0  0  1  0  0  0  0  0  0
  193.2870  176.4040  143.8040 C   0  0  1  0  0  3  0  0  0  0  0  0
  194.0220  175.6670  144.9360 C   0  0  1  0  0  0  0  0  0  0  0  0
  194.1770  176.5510  146.0020 O   0  0  0  0  0  1  0  0  0  0  0  0
  193.1880  174.4850  145.4330 C   0  0  0  0  0  1  0  0  0  0  0  0
  195.4390  175.2830  144.4570 C   0  0  0  0  0  2  0  0  0  0  0  0
  195.5300  173.2680  143.1900 O   0  0  0  0  0  0  0  0  0  0  0  0
  195.7140  173.8200  144.3090 C   0  0  0  0  0  0  0  0  0  0  0  0
  196.9630  173.6550  146.4230 C   0  0  0  0  0  1  0  0  0  0  0  0
  196.1540  173.0800  145.4110 O   0  0  0  0  0  0  0  0  0  0  0  0
  1 40  1  0  0  0  0
  2  1  1  1  0  0  0
  2  8  1  0  0  0  0
  2  5  1  0  0  0  0
  3  8  2  0  0  0  0
  3  7  1  0  0  0  0
  5  4  2  0  0  0  0
  6 12  1  0  0  0  0
  7  6  1  0  0  0  0
  8 10  1  0  0  0  0
  9  7  2  0  0  0  0
 10  6  2  0  0  0  0
 10  4  1  0  0  0  0
 11 21  1  0  0  0  0
 12 13  2  0  0  0  0
 12 11  1  0  0  0  0
 14 18  1  0  0  0  0
 14 23  1  0  0  0  0
 15 14  2  0  0  0  0
 17 21  2  0  0  0  0
 17 15  1  0  0  0  0
 18 20  1  0  0  0  0
 19 16  1  0  0  0  0
 19 20  2  0  0  0  0
 20 27  1  0  0  0  0
 21 19  1  0  0  0  0
 22 23  1  0  0  0  0
 23 25  1  0  0  0  0
 23 24  1  0  0  0  0
 27 26  1  0  0  0  0
 28  1  1  0  0  0  0
 29 28  2  0  0  0  0
 30 33  1  6  0  0  0
 30 32  1  0  0  0  0
 31 30  1  0  0  0  0
 31 32  1  0  0  0  0
 32 28  1  6  0  0  0
 33 34  1  0  0  0  0
 35 34  1  0  0  0  0
 36 35  1  0  0  0  0
 38 39  1  0  0  0  0
 39 37  1  0  0  0  0
 39 36  1  0  0  0  0
 40 41  1  0  0  0  0
 41 42  1  0  0  0  0
 42 43  3  0  0  0  0
 43 44  1  0  0  0  0
 44 46  1  0  0  0  0
 46 45  1  1  0  0  0
 46 47  1  0  0  0  0
 47 49  1  1  0  0  0
 47 48  1  0  0  0  0
 50 47  1  0  0  0  0
 51 52  2  0  0  0  0
 52 50  1  0  0  0  0
 52 54  1  0  0  0  0
 54 53  1  0  0  0  0
M  END
>  <MODEL>
7

>  <REMARK>
 VINA RESULT:      -5.5      2.377      3.994
  Name = 
  21 active torsions:
  status: ('A' for Active; 'I' for Inactive)
    1  A    between atoms: C_2  and  N_10
    2  A    between atoms: C_2  and  C_41
    3  A    between atoms: N_3  and  C_52
    4  A    between atoms: C_4  and  N_10
    5  A    between atoms: O_6  and  C_50
    6  A    between atoms: O_7  and  C_49
    7  A    between atoms: C_8  and  C_27
    8  A    between atoms: C_9  and  C_35
    9  A    between atoms: C_9  and  C_39
   10  A    between atoms: N_10  and  C_42
   11  A    between atoms: C_13  and  C_25
   12  A    between atoms: C_17  and  C_28
   13  A    between atoms: C_17  and  C_35
   14  A    between atoms: C_25  and  C_45
   15  A    between atoms: C_28  and  C_49
   16  A    between atoms: C_31  and  C_36
   17  A    between atoms: C_33  and  C_37
   18  A    between atoms: C_33  and  C_43
   19  A    between atoms: C_38  and  C_54
   20  A    between atoms: C_42  and  C_54
   21  A    between atoms: C_43  and  C_45
                            x       y       z     vdW  Elec       q    Type
                         _______ _______ _______ _____ _____    ______ ____

>  <TORSDO>
F 21

$$$$
=
 OpenBabel11042417423D

 54 57  0  0  1  0  0  0  0  0999 V2000
  191.8960  170.6540  140.0400 N   0  0  0  0  0  0  0  0  0  0  0  0
  190.7700  170.8900  140.9470 C   0  0  1  0  0  3  0  0  0  0  0  0
  189.3540  172.4600  139.5380 N   0  0  0  0  0  0  0  0  0  0  0  0
  190.7380  172.5810  142.7500 N   0  0  0  0  0  0  0  0  0  0  0  0
  191.2320  171.2250  142.4120 C   0  0  0  0  0  3  0  0  0  0  0  0
  189.3300  174.0920  141.3050 C   0  0  0  0  0  0  0  0  0  0  0  0
  188.8570  173.7490  139.9550 C   0  0  0  0  0  0  0  0  0  0  0  0
  190.0550  172.1200  140.5660 C   0  0  1  0  0  3  0  0  0  0  0  0
  188.1680  174.5240  139.1830 N   0  0  0  0  0  1  0  0  0  0  0  0
  190.0660  173.0420  141.5990 C   0  0  0  0  0  0  0  0  0  0  0  0
  187.7930  175.3040  142.8770 N   0  0  0  0  0  2  0  0  0  0  0  0
  189.0200  175.2560  142.1400 C   0  0  0  0  0  0  0  0  0  0  0  0
  189.8270  176.2180  142.1610 O   0  0  0  0  0  0  0  0  0  0  0  0
  186.2990  177.8610  146.2390 C   0  0  0  0  0  0  0  0  0  0  0  0
  187.5070  177.3150  146.0750 C   0  0  0  0  0  3  0  0  0  0  0  0
  186.6750  177.9240  141.9280 O   0  0  0  0  0  1  0  0  0  0  0  0
  187.8630  176.3870  144.9750 C   0  0  0  0  0  3  0  0  0  0  0  0
  185.1700  177.4990  145.3240 C   0  0  0  0  0  2  0  0  0  0  0  0
  186.4540  177.4450  143.2170 C   0  0  0  0  0  0  0  0  0  0  0  0
  185.4470  177.9700  143.9310 C   0  0  0  0  0  0  0  0  0  0  0  0
  187.3500  176.3620  143.7370 C   0  0  0  0  0  0  0  0  0  0  0  0
  184.8560  178.3750  148.0500 F   0  0  0  0  0  0  0  0  0  0  0  0
  186.0330  178.7510  147.4230 C   0  0  0  0  0  0  0  0  0  0  0  0
  185.9260  180.0730  147.0290 F   0  0  0  0  0  0  0  0  0  0  0  0
  187.0840  178.6510  148.3230 F   0  0  0  0  0  0  0  0  0  0  0  0
  183.3600  178.6660  142.8070 C   0  0  0  0  0  1  0  0  0  0  0  0
  184.6450  178.9460  143.3400 O   0  0  0  0  0  0  0  0  0  0  0  0
  191.8670  169.6170  139.0520 C   0  0  0  0  0  0  0  0  0  0  0  0
  191.5720  168.3770  139.4480 C   0  0  0  0  0  2  0  0  0  0  0  0
  191.9860  170.4220  136.6280 C   0  0  2  0  0  3  0  0  0  0  0  0
  192.3020  168.9830  136.6860 N   0  0  0  0  0  2  0  0  0  0  0  0
  192.6870  169.8620  137.8090 C   0  0  2  0  0  3  0  0  0  0  0  0
  190.4720  170.5980  136.7300 C   0  0  0  0  0  2  0  0  0  0  0  0
  189.9080  171.2410  135.4620 C   0  0  0  0  0  2  0  0  0  0  0  0
  190.4050  172.6750  135.2430 C   0  0  0  0  0  2  0  0  0  0  0  0
  190.4060  173.4810  136.5410 C   0  0  0  0  0  2  0  0  0  0  0  0
  191.9320  175.2840  136.2600 O   0  0  0  0  0  1  0  0  0  0  0  0
  191.9520  174.1560  138.2390 O   0  0  0  0  0  1  0  0  0  0  0  0
  191.7860  174.0330  136.8570 C   0  0  0  0  0  3  0  0  0  0  0  0
  193.1070  171.4460  140.2270 C   0  0  0  0  0  2  0  0  0  0  0  0
  194.1600  170.6320  140.9720 C   0  0  0  0  0  2  0  0  0  0  0  0
  194.7490  171.4510  142.0410 C   0  0  0  0  0  0  0  0  0  0  0  0
  195.2180  172.1400  142.9130 C   0  0  0  0  0  0  0  0  0  0  0  0
  195.7360  172.9860  143.9930 C   0  0  0  0  0  2  0  0  0  0  0  0
  194.5650  174.6090  142.6670 O   0  0  0  0  0  1  0  0  0  0  0  0
  195.0940  174.3690  143.9420 C   0  0  1  0  0  3  0  0  0  0  0  0
  194.0090  174.5540  145.0160 C   0  0  1  0  0  0  0  0  0  0  0  0
  193.8450  173.3410  145.6830 O   0  0  0  0  0  1  0  0  0  0  0  0
  194.4510  175.5930  146.0470 C   0  0  0  0  0  1  0  0  0  0  0  0
  192.6640  174.8770  144.3290 C   0  0  0  0  0  2  0  0  0  0  0  0
  190.8820  174.5890  145.8850 O   0  0  0  0  0  0  0  0  0  0  0  0
  191.5780  175.4010  145.2150 C   0  0  0  0  0  0  0  0  0  0  0  0
  191.7720  177.6600  144.2590 C   0  0  0  0  0  1  0  0  0  0  0  0
  191.3350  176.7760  145.2780 O   0  0  0  0  0  0  0  0  0  0  0  0
  1 40  1  0  0  0  0
  2  1  1  6  0  0  0
  2  5  1  0  0  0  0
  3  7  2  0  0  0  0
  5  4  2  0  0  0  0
  6 10  2  0  0  0  0
  6 12  1  0  0  0  0
  7  6  1  0  0  0  0
  8  3  1  1  0  0  0
  8  2  1  0  0  0  0
  8 10  1  0  0  0  0
  9  7  1  0  0  0  0
 10  4  1  0  0  0  0
 11 21  1  0  0  0  0
 12 13  2  0  0  0  0
 12 11  1  0  0  0  0
 14 23  1  0  0  0  0
 15 14  2  0  0  0  0
 16 19  1  0  0  0  0
 17 15  1  0  0  0  0
 18 14  1  0  0  0  0
 19 21  1  0  0  0  0
 19 20  2  0  0  0  0
 20 18  1  0  0  0  0
 21 17  2  0  0  0  0
 23 22  1  0  0  0  0
 23 25  1  0  0  0  0
 24 23  1  0  0  0  0
 26 27  1  0  0  0  0
 27 20  1  0  0  0  0
 28 29  2  0  0  0  0
 28  1  1  0  0  0  0
 30 31  1  0  0  0  0
 30 33  1  1  0  0  0
 30 32  1  0  0  0  0
 31 32  1  0  0  0  0
 32 28  1  1  0  0  0
 34 33  1  0  0  0  0
 35 34  1  0  0  0  0
 35 36  1  0  0  0  0
 36 39  1  0  0  0  0
 37 39  1  0  0  0  0
 39 38  1  0  0  0  0
 40 41  1  0  0  0  0
 41 42  1  0  0  0  0
 42 43  3  0  0  0  0
 43 44  1  0  0  0  0
 46 45  1  6  0  0  0
 46 44  1  0  0  0  0
 46 47  1  0  0  0  0
 47 48  1  0  0  0  0
 47 49  1  1  0  0  0
 50 47  1  0  0  0  0
 50 52  1  0  0  0  0
 52 54  1  0  0  0  0
 52 51  2  0  0  0  0
 53 54  1  0  0  0  0
M  END
>  <MODEL>
8

>  <REMARK>
 VINA RESULT:      -5.5      2.322      4.087
  Name = 
  21 active torsions:
  status: ('A' for Active; 'I' for Inactive)
    1  A    between atoms: C_2  and  N_10
    2  A    between atoms: C_2  and  C_41
    3  A    between atoms: N_3  and  C_52
    4  A    between atoms: C_4  and  N_10
    5  A    between atoms: O_6  and  C_50
    6  A    between atoms: O_7  and  C_49
    7  A    between atoms: C_8  and  C_27
    8  A    between atoms: C_9  and  C_35
    9  A    between atoms: C_9  and  C_39
   10  A    between atoms: N_10  and  C_42
   11  A    between atoms: C_13  and  C_25
   12  A    between atoms: C_17  and  C_28
   13  A    between atoms: C_17  and  C_35
   14  A    between atoms: C_25  and  C_45
   15  A    between atoms: C_28  and  C_49
   16  A    between atoms: C_31  and  C_36
   17  A    between atoms: C_33  and  C_37
   18  A    between atoms: C_33  and  C_43
   19  A    between atoms: C_38  and  C_54
   20  A    between atoms: C_42  and  C_54
   21  A    between atoms: C_43  and  C_45
                            x       y       z     vdW  Elec       q    Type
                         _______ _______ _______ _____ _____    ______ ____

>  <TORSDO>
F 21

$$$$
=
 OpenBabel11042417423D

 54 57  0  0  1  0  0  0  0  0999 V2000
  192.8760  171.0250  141.2850 N   0  0  0  0  0  0  0  0  0  0  0  0
  191.5380  170.8720  141.8610 C   0  0  1  0  0  3  0  0  0  0  0  0
  190.0970  171.6080  139.9020 N   0  0  0  0  0  0  0  0  0  0  0  0
  190.3980  172.5650  143.2550 N   0  0  0  0  0  0  0  0  0  0  0  0
  191.4230  171.4960  143.2990 C   0  0  0  0  0  3  0  0  0  0  0  0
  188.9950  173.2470  141.2740 C   0  0  0  0  0  0  0  0  0  0  0  0
  189.0720  172.6220  139.9450 C   0  0  0  0  0  0  0  0  0  0  0  0
  190.5610  171.6720  141.1040 C   0  0  1  0  0  3  0  0  0  0  0  0
  188.3910  172.9820  138.9070 N   0  0  0  0  0  1  0  0  0  0  0  0
  189.9500  172.6110  141.9180 C   0  0  0  0  0  0  0  0  0  0  0  0
  188.3540  175.6520  141.6050 N   0  0  0  0  0  2  0  0  0  0  0  0
  188.0650  174.2600  141.7810 C   0  0  0  0  0  0  0  0  0  0  0  0
  187.0410  173.8840  142.4030 O   0  0  0  0  0  0  0  0  0  0  0  0
  185.7310  178.5470  143.7980 C   0  0  0  0  0  0  0  0  0  0  0  0
  187.0300  178.2910  143.9780 C   0  0  0  0  0  3  0  0  0  0  0  0
  186.9690  177.5800  139.7650 O   0  0  0  0  0  1  0  0  0  0  0  0
  187.7780  177.2260  143.2700 C   0  0  0  0  0  3  0  0  0  0  0  0
  184.9070  177.6960  142.8830 C   0  0  0  0  0  2  0  0  0  0  0  0
  186.5850  177.4130  141.0940 C   0  0  0  0  0  0  0  0  0  0  0  0
  185.3690  177.8420  141.4660 C   0  0  0  0  0  0  0  0  0  0  0  0
  187.5470  176.7550  142.0360 C   0  0  0  0  0  0  0  0  0  0  0  0
  185.2780  179.4060  145.9620 F   0  0  0  0  0  0  0  0  0  0  0  0
  185.0590  179.6210  144.6110 C   0  0  0  0  0  0  0  0  0  0  0  0
  183.6950  179.6330  144.3760 F   0  0  0  0  0  0  0  0  0  0  0  0
  185.5700  180.8600  144.2550 F   0  0  0  0  0  0  0  0  0  0  0  0
  183.1190  178.2870  140.5480 C   0  0  0  0  0  1  0  0  0  0  0  0
  184.5330  178.4030  140.5030 O   0  0  0  0  0  0  0  0  0  0  0  0
  193.2740  172.2230  140.6040 C   0  0  0  0  0  0  0  0  0  0  0  0
  193.0630  172.3000  139.2890 C   0  0  0  0  0  2  0  0  0  0  0  0
  193.9750  174.3240  141.8820 C   0  0  2  0  0  3  0  0  0  0  0  0
  194.6380  174.3030  140.5670 N   0  0  0  0  0  2  0  0  0  0  0  0
  194.3620  173.0310  141.2670 C   0  0  2  0  0  3  0  0  0  0  0  0
  192.5290  174.7820  141.6990 C   0  0  0  0  0  2  0  0  0  0  0  0
  192.2860  176.1230  142.3930 C   0  0  0  0  0  2  0  0  0  0  0  0
  191.2960  176.0250  143.5580 C   0  0  0  0  0  2  0  0  0  0  0  0
  191.9860  175.6230  144.8600 C   0  0  0  0  0  2  0  0  0  0  0  0
  191.6990  175.2650  147.1950 O   0  0  0  0  0  1  0  0  0  0  0  0
  190.4610  176.8960  146.1950 O   0  0  0  0  0  1  0  0  0  0  0  0
  191.0190  175.6260  146.0320 C   0  0  0  0  0  3  0  0  0  0  0  0
  193.7820  169.8830  141.3340 C   0  0  0  0  0  2  0  0  0  0  0  0
  193.6410  169.1540  142.6670 C   0  0  0  0  0  2  0  0  0  0  0  0
  194.3840  169.8820  143.7060 C   0  0  0  0  0  0  0  0  0  0  0  0
  194.9760  170.4930  144.5610 C   0  0  0  0  0  0  0  0  0  0  0  0
  195.6520  171.2300  145.6340 C   0  0  0  0  0  2  0  0  0  0  0  0
  197.5900  170.7130  144.3140 O   0  0  0  0  0  1  0  0  0  0  0  0
  197.0440  171.6650  145.1860 C   0  0  1  0  0  3  0  0  0  0  0  0
  197.0430  173.0550  144.5290 C   0  0  1  0  0  0  0  0  0  0  0  0
  197.9000  173.8800  145.2550 O   0  0  0  0  0  1  0  0  0  0  0  0
  197.5820  172.9720  143.1010 C   0  0  0  0  0  1  0  0  0  0  0  0
  195.6290  173.6670  144.6360 C   0  0  0  0  0  2  0  0  0  0  0  0
  195.5650  175.1350  146.5110 O   0  0  0  0  0  0  0  0  0  0  0  0
  195.5410  175.0270  145.2540 C   0  0  0  0  0  0  0  0  0  0  0  0
  196.4480  176.5540  143.5520 C   0  0  0  0  0  1  0  0  0  0  0  0
  195.4160  176.1540  144.4390 O   0  0  0  0  0  0  0  0  0  0  0  0
  1 40  1  0  0  0  0
  2  1  1  6  0  0  0
  2  5  1  0  0  0  0
  3  7  2  0  0  0  0
  4  5  2  0  0  0  0
  6 12  1  0  0  0  0
  6 10  2  0  0  0  0
  7  6  1  0  0  0  0
  8  3  1  1  0  0  0
  8  2  1  0  0  0  0
  8 10  1  0  0  0  0
  9  7  1  0  0  0  0
 10  4  1  0  0  0  0
 11 12  1  0  0  0  0
 11 21  1  0  0  0  0
 12 13  2  0  0  0  0
 14 15  2  0  0  0  0
 14 23  1  0  0  0  0
 16 19  1  0  0  0  0
 17 15  1  0  0  0  0
 18 14  1  0  0  0  0
 19 20  2  0  0  0  0
 19 21  1  0  0  0  0
 20 18  1  0  0  0  0
 21 17  2  0  0  0  0
 23 22  1  0  0  0  0
 24 23  1  0  0  0  0
 25 23  1  0  0  0  0
 27 26  1  0  0  0  0
 27 20  1  0  0  0  0
 28  1  1  0  0  0  0
 29 28  2  0  0  0  0
 30 33  1  6  0  0  0
 31 32  1  0  0  0  0
 31 30  1  0  0  0  0
 32 28  1  6  0  0  0
 32 30  1  0  0  0  0
 33 34  1  0  0  0  0
 34 35  1  0  0  0  0
 35 36  1  0  0  0  0
 36 39  1  0  0  0  0
 39 38  1  0  0  0  0
 39 37  1  0  0  0  0
 40 41  1  0  0  0  0
 41 42  1  0  0  0  0
 42 43  3  0  0  0  0
 43 44  1  0  0  0  0
 46 45  1  6  0  0  0
 46 44  1  0  0  0  0
 47 49  1  6  0  0  0
 47 50  1  0  0  0  0
 47 46  1  0  0  0  0
 47 48  1  0  0  0  0
 50 52  1  0  0  0  0
 52 51  2  0  0  0  0
 53 54  1  0  0  0  0
 54 52  1  0  0  0  0
M  END
>  <MODEL>
9

>  <REMARK>
 VINA RESULT:      -5.5      1.953      4.316
  Name = 
  21 active torsions:
  status: ('A' for Active; 'I' for Inactive)
    1  A    between atoms: C_2  and  N_10
    2  A    between atoms: C_2  and  C_41
    3  A    between atoms: N_3  and  C_52
    4  A    between atoms: C_4  and  N_10
    5  A    between atoms: O_6  and  C_50
    6  A    between atoms: O_7  and  C_49
    7  A    between atoms: C_8  and  C_27
    8  A    between atoms: C_9  and  C_35
    9  A    between atoms: C_9  and  C_39
   10  A    between atoms: N_10  and  C_42
   11  A    between atoms: C_13  and  C_25
   12  A    between atoms: C_17  and  C_28
   13  A    between atoms: C_17  and  C_35
   14  A    between atoms: C_25  and  C_45
   15  A    between atoms: C_28  and  C_49
   16  A    between atoms: C_31  and  C_36
   17  A    between atoms: C_33  and  C_37
   18  A    between atoms: C_33  and  C_43
   19  A    between atoms: C_38  and  C_54
   20  A    between atoms: C_42  and  C_54
   21  A    between atoms: C_43  and  C_45
                            x       y       z     vdW  Elec       q    Type
                         _______ _______ _______ _____ _____    ______ ____

>  <TORSDO>
F 21

$$$$
