=
 OpenBabel11042417143D

 49 54  0  0  1  0  0  0  0  0999 V2000
  193.5350  171.2660  142.7430 C   0  0  1  0  0  3  0  0  0  0  0  0
  189.2100  174.6210  141.8910 C   0  0  0  0  0  0  0  0  0  0  0  0
  187.5080  176.6080  142.9680 C   0  0  0  0  0  0  0  0  0  0  0  0
  193.4890  172.3620  143.8090 C   0  0  0  0  0  2  0  0  0  0  0  0
  189.6470  175.4280  142.9800 C   0  0  0  0  0  0  0  0  0  0  0  0
  192.7730  173.5680  143.1860 C   0  0  2  0  0  3  0  0  0  0  0  0
  190.0050  173.4480  141.3630 C   0  0  2  0  0  3  0  0  0  0  0  0
  187.0850  175.8190  141.8950 C   0  0  0  0  0  3  0  0  0  0  0  0
  192.4630  171.1320  140.4620 O   0  0  0  0  0  1  0  0  0  0  0  0
  191.5660  174.0360  144.0290 C   0  0  2  0  0  3  0  0  0  0  0  0
  191.4170  173.8110  140.9510 C   0  0  0  0  0  2  0  0  0  0  0  0
  187.9230  174.8360  141.3710 C   0  0  0  0  0  3  0  0  0  0  0  0
  192.3490  173.0710  141.8500 C   0  0  0  0  0  0  0  0  0  0  0  0
  188.7900  176.4090  143.4930 C   0  0  0  0  0  3  0  0  0  0  0  0
  192.7590  171.8390  141.6220 C   0  0  0  0  0  0  0  0  0  0  0  0
  191.9330  176.1400  142.7970 O   0  0  0  0  0  1  0  0  0  0  0  0
  189.3630  172.8120  140.2990 O   0  0  0  0  0  1  0  0  0  0  0  0
  191.0290  175.4070  143.5730 C   0  0  1  0  0  3  0  0  0  0  0  0
  196.3760  169.0040  146.9260 C   0  0  0  0  0  2  0  0  0  0  0  0
  195.0600  168.5400  146.7450 O   0  0  0  0  0  0  0  0  0  0  0  0
  194.1140  169.0750  144.6420 C   0  0  0  0  0  2  0  0  0  0  0  0
  196.6780  168.4210  144.4440 C   0  0  2  0  0  3  0  0  0  0  0  0
  195.7870  170.0480  142.8720 C   0  0  0  0  0  0  0  0  0  0  0  0
  197.0220  170.0080  142.4980 N   0  0  0  0  0  0  0  0  0  0  0  0
  197.1120  169.3010  145.6170 C   0  0  0  0  0  2  0  0  0  0  0  0
  197.9400  168.6430  143.1500 S   0  0  0  0  0  0  0  0  0  0  0  0
  195.3850  168.9250  143.7820 C   0  0  2  0  0  3  0  0  0  0  0  0
  194.3640  169.5430  146.0660 C   0  0  0  0  0  2  0  0  0  0  0  0
  194.9120  171.0460  142.3300 N   0  0  0  0  0  2  0  0  0  0  0  0
  186.6360  177.5990  143.5340 N   0  0  0  0  0  0  0  0  0  0  0  0
  185.4880  177.2460  144.2590 N   0  0  0  0  0  2  0  0  0  0  0  0
  185.6330  179.6430  144.0150 C   0  0  0  0  0  2  0  0  0  0  0  0
  184.7100  178.4760  144.3400 C   0  0  2  0  0  3  0  0  0  0  0  0
  186.7820  179.0170  143.2820 C   0  0  0  0  0  2  0  0  0  0  0  0
  184.1010  178.6180  145.7250 C   0  0  0  0  0  2  0  0  0  0  0  0
  184.7890  177.6800  146.7010 C   0  0  0  0  0  2  0  0  0  0  0  0
  185.9100  178.3240  147.2820 O   0  0  0  0  0  0  0  0  0  0  0  0
  187.1740  177.7520  147.1680 C   0  0  0  0  0  3  0  0  0  0  0  0
  187.2970  176.5010  147.1210 O   0  0  0  0  0  0  0  0  0  0  0  0
  191.9500  174.1480  145.4980 C   0  0  0  0  0  2  0  0  0  0  0  0
  191.6690  175.5430  146.0260 C   0  0  0  0  0  2  0  0  0  0  0  0
  192.9670  176.1940  146.4640 C   0  0  0  0  0  2  0  0  0  0  0  0
  194.1060  175.1810  146.4310 C   0  0  0  0  0  2  0  0  0  0  0  0
  195.3170  175.6770  145.6390 C   0  0  2  0  0  3  0  0  0  0  0  0
  194.9210  176.5920  144.4880 C   0  0  0  0  0  1  0  0  0  0  0  0
  196.4030  173.3260  145.9870 C   0  0  0  0  0  1  0  0  0  0  0  0
  197.3980  174.7750  142.9390 O   0  0  0  0  0  0  0  0  0  0  0  0
  196.8310  174.6760  144.0360 C   0  0  0  0  0  0  0  0  0  0  0  0
  196.2320  174.5740  145.1890 C   0  0  0  0  0  0  0  0  0  0  0  0
  1 29  1  6  0  0  0
  1  4  1  0  0  0  0
  2  5  1  0  0  0  0
  3 14  1  0  0  0  0
  3 30  1  0  0  0  0
  5 14  2  0  0  0  0
  5 18  1  0  0  0  0
  6  4  1  1  0  0  0
  6 10  1  0  0  0  0
  7 17  1  6  0  0  0
  7  2  1  0  0  0  0
  8  3  2  0  0  0  0
  9 15  1  0  0  0  0
 10 40  1  1  0  0  0
 11  7  1  0  0  0  0
 11 13  1  0  0  0  0
 12  2  2  0  0  0  0
 12  8  1  0  0  0  0
 13  6  1  0  0  0  0
 15 13  2  0  0  0  0
 15  1  1  0  0  0  0
 18 16  1  6  0  0  0
 18 10  1  0  0  0  0
 20 19  1  0  0  0  0
 21 28  1  0  0  0  0
 22 25  1  1  0  0  0
 23 27  1  0  0  0  0
 24 23  2  0  0  0  0
 24 26  1  0  0  0  0
 25 19  1  0  0  0  0
 26 22  1  0  0  0  0
 27 22  1  0  0  0  0
 27 21  1  1  0  0  0
 28 20  1  0  0  0  0
 29 23  1  0  0  0  0
 30 31  1  0  0  0  0
 31 33  1  0  0  0  0
 32 33  1  0  0  0  0
 33 35  1  1  0  0  0
 34 30  1  0  0  0  0
 34 32  1  0  0  0  0
 35 36  1  0  0  0  0
 36 37  1  0  0  0  0
 38 37  1  0  0  0  0
 39 38  2  0  0  0  0
 40 41  1  0  0  0  0
 41 42  1  0  0  0  0
 43 42  1  0  0  0  0
 44 45  1  6  0  0  0
 44 43  1  0  0  0  0
 47 48  2  0  0  0  0
 48 49  2  0  0  0  0
 49 44  1  0  0  0  0
 49 46  1  0  0  0  0
M  END
>  <MODEL>
1

>  <REMARK>
 VINA RESULT:      -7.2      0.000      0.000
  Name = 
  12 active torsions:
  status: ('A' for Active; 'I' for Inactive)
    1  A    between atoms: C_1  and  C_24
    2  A    between atoms: C_1  and  C_27
    3  A    between atoms: N_2  and  C_14
    4  A    between atoms: O_4  and  C_13
    5  A    between atoms: O_4  and  C_29
    6  A    between atoms: C_7  and  C_9
    7  A    between atoms: C_9  and  C_29
    8  A    between atoms: C_11  and  N_48
    9  A    between atoms: C_27  and  C_40
   10  A    between atoms: C_32  and  C_38
   11  A    between atoms: C_32  and  C_41
   12  A    between atoms: C_40  and  C_41
                            x       y       z     vdW  Elec       q    Type
                         _______ _______ _______ _____ _____    ______ ____

>  <TORSDO>
F 12

$$$$
=
 OpenBabel11042417143D

 49 54  0  0  1  0  0  0  0  0999 V2000
  189.2930  175.9320  143.3620 C   0  0  1  0  0  3  0  0  0  0  0  0
  191.8220  172.7810  139.5720 C   0  0  0  0  0  0  0  0  0  0  0  0
  194.2160  172.2290  138.1680 C   0  0  0  0  0  0  0  0  0  0  0  0
  190.8110  176.0810  143.4680 C   0  0  0  0  0  2  0  0  0  0  0  0
  193.0780  173.1720  140.1140 C   0  0  0  0  0  0  0  0  0  0  0  0
  191.4310  174.7810  142.9370 C   0  0  2  0  0  3  0  0  0  0  0  0
  190.4980  173.1700  140.1920 C   0  0  2  0  0  3  0  0  0  0  0  0
  192.9800  171.8400  137.6430 C   0  0  0  0  0  3  0  0  0  0  0  0
  187.8780  174.1350  142.2950 O   0  0  0  0  0  1  0  0  0  0  0  0
  192.4520  175.0340  141.8050 C   0  0  2  0  0  3  0  0  0  0  0  0
  190.3670  172.7580  141.6450 C   0  0  0  0  0  2  0  0  0  0  0  0
  191.8020  172.1200  138.3330 C   0  0  0  0  0  3  0  0  0  0  0  0
  190.2570  174.0070  142.4540 C   0  0  0  0  0  0  0  0  0  0  0  0
  194.2510  172.8840  139.4050 C   0  0  0  0  0  3  0  0  0  0  0  0
  189.1180  174.6300  142.6840 C   0  0  0  0  0  0  0  0  0  0  0  0
  193.2650  172.8070  142.4800 O   0  0  0  0  0  1  0  0  0  0  0  0
  189.4110  172.6720  139.4720 O   0  0  0  0  0  1  0  0  0  0  0  0
  193.2830  173.7790  141.4750 C   0  0  1  0  0  3  0  0  0  0  0  0
  185.4960  179.9310  143.8900 C   0  0  0  0  0  2  0  0  0  0  0  0
  185.5300  179.2650  142.6510 O   0  0  0  0  0  0  0  0  0  0  0  0
  186.7220  177.2200  142.6710 C   0  0  0  0  0  2  0  0  0  0  0  0
  185.3140  177.5740  144.8910 C   0  0  2  0  0  3  0  0  0  0  0  0
  187.4030  176.3400  145.0450 C   0  0  0  0  0  0  0  0  0  0  0  0
  187.0320  176.3320  146.2810 N   0  0  0  0  0  0  0  0  0  0  0  0
  185.7720  179.0200  145.0890 C   0  0  0  0  0  2  0  0  0  0  0  0
  185.3460  176.8030  146.5410 S   0  0  0  0  0  0  0  0  0  0  0  0
  186.3270  176.7460  144.0830 C   0  0  2  0  0  3  0  0  0  0  0  0
  186.8130  178.7290  142.5110 C   0  0  0  0  0  2  0  0  0  0  0  0
  188.7140  175.8780  144.6950 N   0  0  0  0  0  2  0  0  0  0  0  0
  195.4300  171.9740  137.4450 N   0  0  0  0  0  0  0  0  0  0  0  0
  195.7170  172.6190  136.2330 N   0  0  0  0  0  2  0  0  0  0  0  0
  197.4310  171.0040  136.7620 C   0  0  0  0  0  2  0  0  0  0  0  0
  196.8130  171.8490  135.6560 C   0  0  2  0  0  3  0  0  0  0  0  0
  196.3710  170.9410  137.8210 C   0  0  0  0  0  2  0  0  0  0  0  0
  197.8360  172.7830  135.0320 C   0  0  0  0  0  2  0  0  0  0  0  0
  197.1550  174.0380  134.5150 C   0  0  0  0  0  2  0  0  0  0  0  0
  197.8250  175.1880  135.0010 O   0  0  0  0  0  0  0  0  0  0  0  0
  197.1950  176.0190  135.9230 C   0  0  0  0  0  3  0  0  0  0  0  0
  196.0290  176.4360  135.7020 O   0  0  0  0  0  0  0  0  0  0  0  0
  193.4160  176.1470  142.1920 C   0  0  0  0  0  2  0  0  0  0  0  0
  194.8200  175.6050  142.3790 C   0  0  0  0  0  2  0  0  0  0  0  0
  195.4660  176.2650  143.5820 C   0  0  0  0  0  2  0  0  0  0  0  0
  194.4380  176.4760  144.6870 C   0  0  0  0  0  2  0  0  0  0  0  0
  194.6030  175.4910  145.8460 C   0  0  2  0  0  3  0  0  0  0  0  0
  195.9130  174.7180  145.7660 C   0  0  0  0  0  1  0  0  0  0  0  0
  193.4930  173.1320  145.6720 C   0  0  0  0  0  1  0  0  0  0  0  0
  191.3130  175.4870  147.1160 O   0  0  0  0  0  0  0  0  0  0  0  0
  192.3410  175.0440  146.5860 C   0  0  0  0  0  0  0  0  0  0  0  0
  193.4240  174.5780  146.0290 C   0  0  0  0  0  0  0  0  0  0  0  0
  1  4  1  0  0  0  0
  1 29  1  1  0  0  0
  2  5  1  0  0  0  0
  2  7  1  0  0  0  0
  3 14  1  0  0  0  0
  5 18  1  0  0  0  0
  6  4  1  6  0  0  0
  7 17  1  6  0  0  0
  7 11  1  0  0  0  0
  8  3  2  0  0  0  0
  8 12  1  0  0  0  0
  9 15  1  0  0  0  0
 10 40  1  1  0  0  0
 10  6  1  0  0  0  0
 11 13  1  0  0  0  0
 12  2  2  0  0  0  0
 13 15  2  0  0  0  0
 13  6  1  0  0  0  0
 14  5  2  0  0  0  0
 15  1  1  0  0  0  0
 18 10  1  0  0  0  0
 18 16  1  1  0  0  0
 19 25  1  0  0  0  0
 20 19  1  0  0  0  0
 22 25  1  1  0  0  0
 22 26  1  0  0  0  0
 23 24  2  0  0  0  0
 24 26  1  0  0  0  0
 27 21  1  6  0  0  0
 27 22  1  0  0  0  0
 27 23  1  0  0  0  0
 28 20  1  0  0  0  0
 28 21  1  0  0  0  0
 29 23  1  0  0  0  0
 30 34  1  0  0  0  0
 30  3  1  0  0  0  0
 31 30  1  0  0  0  0
 32 34  1  0  0  0  0
 33 35  1  1  0  0  0
 33 31  1  0  0  0  0
 33 32  1  0  0  0  0
 36 37  1  0  0  0  0
 36 35  1  0  0  0  0
 37 38  1  0  0  0  0
 39 38  2  0  0  0  0
 40 41  1  0  0  0  0
 41 42  1  0  0  0  0
 42 43  1  0  0  0  0
 43 44  1  0  0  0  0
 44 45  1  6  0  0  0
 44 49  1  0  0  0  0
 46 49  1  0  0  0  0
 48 47  2  0  0  0  0
 49 48  2  0  0  0  0
M  END
>  <MODEL>
2

>  <REMARK>
 VINA RESULT:      -6.5      4.336     10.064
  Name = 
  12 active torsions:
  status: ('A' for Active; 'I' for Inactive)
    1  A    between atoms: C_1  and  C_24
    2  A    between atoms: C_1  and  C_27
    3  A    between atoms: N_2  and  C_14
    4  A    between atoms: O_4  and  C_13
    5  A    between atoms: O_4  and  C_29
    6  A    between atoms: C_7  and  C_9
    7  A    between atoms: C_9  and  C_29
    8  A    between atoms: C_11  and  N_48
    9  A    between atoms: C_27  and  C_40
   10  A    between atoms: C_32  and  C_38
   11  A    between atoms: C_32  and  C_41
   12  A    between atoms: C_40  and  C_41
                            x       y       z     vdW  Elec       q    Type
                         _______ _______ _______ _____ _____    ______ ____

>  <TORSDO>
F 12

$$$$
=
 OpenBabel11042417143D

 49 54  0  0  1  0  0  0  0  0999 V2000
  194.3040  173.5990  142.3900 C   0  0  1  0  0  3  0  0  0  0  0  0
  190.8150  176.0320  145.9400 C   0  0  0  0  0  0  0  0  0  0  0  0
  188.2170  177.0660  146.3710 C   0  0  0  0  0  0  0  0  0  0  0  0
  192.8630  173.4770  141.8940 C   0  0  0  0  0  2  0  0  0  0  0  0
  189.7240  175.5890  145.1400 C   0  0  0  0  0  0  0  0  0  0  0  0
  191.9540  173.5250  143.1290 C   0  0  2  0  0  3  0  0  0  0  0  0
  192.2500  175.6350  145.6710 C   0  0  2  0  0  3  0  0  0  0  0  0
  189.2900  177.4930  147.1590 C   0  0  0  0  0  3  0  0  0  0  0  0
  195.2250  174.0860  144.6890 O   0  0  0  0  0  1  0  0  0  0  0  0
  190.8770  174.6280  143.0270 C   0  0  2  0  0  3  0  0  0  0  0  0
  192.4650  174.1350  145.6310 C   0  0  0  0  0  2  0  0  0  0  0  0
  190.5700  176.9880  146.9400 C   0  0  0  0  0  3  0  0  0  0  0  0
  192.8990  173.7830  144.2480 C   0  0  0  0  0  0  0  0  0  0  0  0
  188.4460  176.1100  145.3750 C   0  0  0  0  0  3  0  0  0  0  0  0
  194.1530  173.8230  143.8440 C   0  0  0  0  0  0  0  0  0  0  0  0
  189.7410  173.2270  144.7070 O   0  0  0  0  0  1  0  0  0  0  0  0
  193.1360  176.2040  146.5880 O   0  0  0  0  0  1  0  0  0  0  0  0
  189.7930  174.4920  144.1130 C   0  0  1  0  0  3  0  0  0  0  0  0
  196.2750  173.5480  137.2130 C   0  0  0  0  0  2  0  0  0  0  0  0
  196.3590  174.7740  137.9000 O   0  0  0  0  0  0  0  0  0  0  0  0
  196.0700  174.6070  140.2430 C   0  0  0  0  0  2  0  0  0  0  0  0
  197.4770  172.5810  139.2650 C   0  0  2  0  0  3  0  0  0  0  0  0
  196.0680  172.1660  141.2030 C   0  0  0  0  0  0  0  0  0  0  0  0
  196.5540  170.9870  141.0070 N   0  0  0  0  0  0  0  0  0  0  0  0
  196.5180  172.3250  138.1020 C   0  0  0  0  0  2  0  0  0  0  0  0
  197.9410  170.9420  139.9090 S   0  0  0  0  0  0  0  0  0  0  0  0
  196.7800  173.2560  140.4590 C   0  0  2  0  0  3  0  0  0  0  0  0
  195.3800  174.7520  138.8960 C   0  0  0  0  0  2  0  0  0  0  0  0
  195.0090  172.3500  142.1530 N   0  0  0  0  0  2  0  0  0  0  0  0
  186.9030  177.6090  146.5710 N   0  0  0  0  0  0  0  0  0  0  0  0
  186.2640  178.3780  145.5870 N   0  0  0  0  0  2  0  0  0  0  0  0
  184.9210  178.2770  147.5900 C   0  0  0  0  0  2  0  0  0  0  0  0
  185.1580  179.0230  146.2830 C   0  0  2  0  0  3  0  0  0  0  0  0
  186.2020  177.5380  147.8360 C   0  0  0  0  0  2  0  0  0  0  0  0
  183.9160  179.0190  145.4080 C   0  0  0  0  0  2  0  0  0  0  0  0
  184.2960  179.2480  143.9560 C   0  0  0  0  0  2  0  0  0  0  0  0
  184.1090  178.0560  143.2120 O   0  0  0  0  0  0  0  0  0  0  0  0
  185.1380  177.5690  142.4130 C   0  0  0  0  0  3  0  0  0  0  0  0
  185.7930  176.5580  142.7750 O   0  0  0  0  0  0  0  0  0  0  0  0
  190.1900  174.5800  141.6690 C   0  0  0  0  0  2  0  0  0  0  0  0
  188.7100  174.2810  141.8220 C   0  0  0  0  0  2  0  0  0  0  0  0
  188.3140  173.1670  140.8720 C   0  0  0  0  0  2  0  0  0  0  0  0
  189.5400  172.6340  140.1400 C   0  0  0  0  0  2  0  0  0  0  0  0
  189.7780  173.3280  138.7980 C   0  0  2  0  0  3  0  0  0  0  0  0
  188.6160  173.1360  137.8320 C   0  0  0  0  0  1  0  0  0  0  0  0
  191.9570  174.0130  137.5290 C   0  0  0  0  0  1  0  0  0  0  0  0
  191.9410  170.5840  138.3200 O   0  0  0  0  0  0  0  0  0  0  0  0
  191.5300  171.7500  138.2440 C   0  0  0  0  0  0  0  0  0  0  0  0
  191.0950  172.9760  138.1660 C   0  0  0  0  0  0  0  0  0  0  0  0
  1 29  1  1  0  0  0
  1 15  1  0  0  0  0
  2 12  1  0  0  0  0
  3 30  1  0  0  0  0
  3  8  1  0  0  0  0
  4  1  1  0  0  0  0
  5 14  1  0  0  0  0
  5  2  2  0  0  0  0
  6  4  1  6  0  0  0
  6 13  1  0  0  0  0
  7  2  1  0  0  0  0
  7 17  1  1  0  0  0
 10 40  1  6  0  0  0
 10  6  1  0  0  0  0
 10 18  1  0  0  0  0
 11  7  1  0  0  0  0
 12  8  2  0  0  0  0
 13 11  1  0  0  0  0
 14  3  2  0  0  0  0
 15 13  2  0  0  0  0
 15  9  1  0  0  0  0
 18 16  1  1  0  0  0
 18  5  1  0  0  0  0
 19 20  1  0  0  0  0
 19 25  1  0  0  0  0
 20 28  1  0  0  0  0
 22 25  1  6  0  0  0
 22 26  1  0  0  0  0
 22 27  1  0  0  0  0
 23 29  1  0  0  0  0
 24 23  2  0  0  0  0
 26 24  1  0  0  0  0
 27 21  1  6  0  0  0
 27 23  1  0  0  0  0
 28 21  1  0  0  0  0
 30 34  1  0  0  0  0
 31 33  1  0  0  0  0
 31 30  1  0  0  0  0
 32 34  1  0  0  0  0
 33 35  1  6  0  0  0
 33 32  1  0  0  0  0
 36 35  1  0  0  0  0
 37 36  1  0  0  0  0
 38 39  2  0  0  0  0
 38 37  1  0  0  0  0
 40 41  1  0  0  0  0
 42 41  1  0  0  0  0
 43 42  1  0  0  0  0
 44 45  1  6  0  0  0
 44 43  1  0  0  0  0
 46 49  1  0  0  0  0
 48 47  2  0  0  0  0
 49 48  2  0  0  0  0
 49 44  1  0  0  0  0
M  END
>  <MODEL>
3

>  <REMARK>
 VINA RESULT:      -6.4      2.893      5.814
  Name = 
  12 active torsions:
  status: ('A' for Active; 'I' for Inactive)
    1  A    between atoms: C_1  and  C_24
    2  A    between atoms: C_1  and  C_27
    3  A    between atoms: N_2  and  C_14
    4  A    between atoms: O_4  and  C_13
    5  A    between atoms: O_4  and  C_29
    6  A    between atoms: C_7  and  C_9
    7  A    between atoms: C_9  and  C_29
    8  A    between atoms: C_11  and  N_48
    9  A    between atoms: C_27  and  C_40
   10  A    between atoms: C_32  and  C_38
   11  A    between atoms: C_32  and  C_41
   12  A    between atoms: C_40  and  C_41
                            x       y       z     vdW  Elec       q    Type
                         _______ _______ _______ _____ _____    ______ ____

>  <TORSDO>
F 12

$$$$
=
 OpenBabel11042417143D

 49 54  0  0  1  0  0  0  0  0999 V2000
  188.6570  175.9910  146.3120 C   0  0  1  0  0  3  0  0  0  0  0  0
  193.5770  175.0500  143.9450 C   0  0  0  0  0  0  0  0  0  0  0  0
  195.0680  174.9590  141.5420 C   0  0  0  0  0  0  0  0  0  0  0  0
  188.6850  176.5560  144.8910 C   0  0  0  0  0  2  0  0  0  0  0  0
  193.1450  175.7840  142.8040 C   0  0  0  0  0  0  0  0  0  0  0  0
  190.1480  176.8790  144.5620 C   0  0  2  0  0  3  0  0  0  0  0  0
  192.7550  174.9340  145.2100 C   0  0  2  0  0  3  0  0  0  0  0  0
  195.4920  174.2450  142.6670 C   0  0  0  0  0  3  0  0  0  0  0  0
  190.5330  175.3550  147.8750 O   0  0  0  0  0  1  0  0  0  0  0  0
  190.6270  176.1910  143.2640 C   0  0  2  0  0  3  0  0  0  0  0  0
  192.3780  176.2740  145.8100 C   0  0  0  0  0  2  0  0  0  0  0  0
  194.7510  174.2860  143.8470 C   0  0  0  0  0  3  0  0  0  0  0  0
  190.8910  176.3860  145.7510 C   0  0  0  0  0  0  0  0  0  0  0  0
  193.9030  175.7290  141.6270 C   0  0  0  0  0  3  0  0  0  0  0  0
  190.0860  175.9110  146.6820 C   0  0  0  0  0  0  0  0  0  0  0  0
  192.3230  177.9790  143.3220 O   0  0  0  0  0  1  0  0  0  0  0  0
  193.3880  174.1560  146.1810 O   0  0  0  0  0  1  0  0  0  0  0  0
  191.9830  176.7380  142.7760 C   0  0  1  0  0  3  0  0  0  0  0  0
  184.7580  178.6980  143.4550 C   0  0  0  0  0  2  0  0  0  0  0  0
  184.9080  177.3300  143.1620 O   0  0  0  0  0  0  0  0  0  0  0  0
  186.1310  176.1090  144.7800 C   0  0  0  0  0  2  0  0  0  0  0  0
  184.5350  177.9140  145.8900 C   0  0  2  0  0  3  0  0  0  0  0  0
  186.6250  177.3880  147.0140 C   0  0  0  0  0  0  0  0  0  0  0  0
  186.1510  178.2910  147.8050 N   0  0  0  0  0  0  0  0  0  0  0  0
  184.9480  179.0360  144.9360 C   0  0  0  0  0  2  0  0  0  0  0  0
  184.4410  178.6660  147.5460 S   0  0  0  0  0  0  0  0  0  0  0  0
  185.6270  176.8410  146.0380 C   0  0  2  0  0  3  0  0  0  0  0  0
  186.2070  176.9730  143.5310 C   0  0  0  0  0  2  0  0  0  0  0  0
  187.9690  176.9220  147.1930 N   0  0  0  0  0  2  0  0  0  0  0  0
  195.8090  174.8930  140.3140 N   0  0  0  0  0  0  0  0  0  0  0  0
  195.4040  174.0750  139.2490 N   0  0  0  0  0  2  0  0  0  0  0  0
  197.5050  175.1490  138.7410 C   0  0  0  0  0  2  0  0  0  0  0  0
  196.5660  174.0080  138.3720 C   0  0  2  0  0  3  0  0  0  0  0  0
  197.0930  175.5370  140.1300 C   0  0  0  0  0  2  0  0  0  0  0  0
  196.1300  174.0960  136.9190 C   0  0  0  0  0  2  0  0  0  0  0  0
  194.8610  174.9220  136.8000 C   0  0  0  0  0  2  0  0  0  0  0  0
  194.9760  175.8340  135.7210 O   0  0  0  0  0  0  0  0  0  0  0  0
  196.2300  176.3040  135.3410 C   0  0  0  0  0  3  0  0  0  0  0  0
  196.4420  177.5410  135.2630 O   0  0  0  0  0  0  0  0  0  0  0  0
  189.6120  176.3880  142.1470 C   0  0  0  0  0  2  0  0  0  0  0  0
  189.3040  175.0720  141.4580 C   0  0  0  0  0  2  0  0  0  0  0  0
  188.6270  174.1300  142.4340 C   0  0  0  0  0  2  0  0  0  0  0  0
  189.0580  172.6920  142.1690 C   0  0  0  0  0  2  0  0  0  0  0  0
  189.9330  172.1200  143.2860 C   0  0  2  0  0  3  0  0  0  0  0  0
  189.7280  172.8440  144.6110 C   0  0  0  0  0  1  0  0  0  0  0  0
  191.8950  172.5170  141.6070 C   0  0  0  0  0  1  0  0  0  0  0  0
  193.0410  171.1440  144.6380 O   0  0  0  0  0  0  0  0  0  0  0  0
  192.2360  171.5730  143.8000 C   0  0  0  0  0  0  0  0  0  0  0  0
  191.3870  172.0250  142.9200 C   0  0  0  0  0  0  0  0  0  0  0  0
  1 15  1  0  0  0  0
  1 29  1  1  0  0  0
  2  7  1  0  0  0  0
  3 14  2  0  0  0  0
  3  8  1  0  0  0  0
  4  1  1  0  0  0  0
  5  2  2  0  0  0  0
  6  4  1  1  0  0  0
  6 13  1  0  0  0  0
  7 11  1  0  0  0  0
  7 17  1  1  0  0  0
  8 12  2  0  0  0  0
 10 40  1  6  0  0  0
 10  6  1  0  0  0  0
 12  2  1  0  0  0  0
 13 11  1  0  0  0  0
 13 15  2  0  0  0  0
 14  5  1  0  0  0  0
 15  9  1  0  0  0  0
 18  5  1  0  0  0  0
 18 10  1  0  0  0  0
 18 16  1  1  0  0  0
 19 25  1  0  0  0  0
 20 19  1  0  0  0  0
 20 28  1  0  0  0  0
 22 25  1  6  0  0  0
 22 27  1  0  0  0  0
 22 26  1  0  0  0  0
 23 29  1  0  0  0  0
 23 24  2  0  0  0  0
 26 24  1  0  0  0  0
 27 21  1  6  0  0  0
 27 23  1  0  0  0  0
 28 21  1  0  0  0  0
 30  3  1  0  0  0  0
 31 30  1  0  0  0  0
 32 34  1  0  0  0  0
 33 35  1  6  0  0  0
 33 32  1  0  0  0  0
 33 31  1  0  0  0  0
 34 30  1  0  0  0  0
 36 35  1  0  0  0  0
 37 36  1  0  0  0  0
 38 37  1  0  0  0  0
 39 38  2  0  0  0  0
 41 40  1  0  0  0  0
 41 42  1  0  0  0  0
 43 42  1  0  0  0  0
 43 44  1  0  0  0  0
 44 45  1  1  0  0  0
 46 49  1  0  0  0  0
 48 47  2  0  0  0  0
 49 44  1  0  0  0  0
 49 48  2  0  0  0  0
M  END
>  <MODEL>
4

>  <REMARK>
 VINA RESULT:      -6.3      4.165     10.088
  Name = 
  12 active torsions:
  status: ('A' for Active; 'I' for Inactive)
    1  A    between atoms: C_1  and  C_24
    2  A    between atoms: C_1  and  C_27
    3  A    between atoms: N_2  and  C_14
    4  A    between atoms: O_4  and  C_13
    5  A    between atoms: O_4  and  C_29
    6  A    between atoms: C_7  and  C_9
    7  A    between atoms: C_9  and  C_29
    8  A    between atoms: C_11  and  N_48
    9  A    between atoms: C_27  and  C_40
   10  A    between atoms: C_32  and  C_38
   11  A    between atoms: C_32  and  C_41
   12  A    between atoms: C_40  and  C_41
                            x       y       z     vdW  Elec       q    Type
                         _______ _______ _______ _____ _____    ______ ____

>  <TORSDO>
F 12

$$$$
=
 OpenBabel11042417143D

 49 54  0  0  1  0  0  0  0  0999 V2000
  188.6730  175.9790  146.2670 C   0  0  1  0  0  3  0  0  0  0  0  0
  193.6230  174.9700  143.9930 C   0  0  0  0  0  0  0  0  0  0  0  0
  195.1500  174.8250  141.6150 C   0  0  0  0  0  0  0  0  0  0  0  0
  188.7250  176.5140  144.8350 C   0  0  0  0  0  2  0  0  0  0  0  0
  193.2120  175.6820  142.8300 C   0  0  0  0  0  0  0  0  0  0  0  0
  190.1940  176.8250  144.5210 C   0  0  2  0  0  3  0  0  0  0  0  0
  192.7830  174.8840  145.2470 C   0  0  2  0  0  3  0  0  0  0  0  0
  195.5540  174.1330  142.7600 C   0  0  0  0  0  3  0  0  0  0  0  0
  190.5240  175.3680  147.8710 O   0  0  0  0  0  1  0  0  0  0  0  0
  190.6890  176.1080  143.2460 C   0  0  2  0  0  3  0  0  0  0  0  0
  192.4020  176.2370  145.8140 C   0  0  0  0  0  2  0  0  0  0  0  0
  194.7960  174.2000  143.9280 C   0  0  0  0  0  3  0  0  0  0  0  0
  190.9170  176.3530  145.7320 C   0  0  0  0  0  0  0  0  0  0  0  0
  193.9860  175.6000  141.6660 C   0  0  0  0  0  3  0  0  0  0  0  0
  190.0970  175.9000  146.6600 C   0  0  0  0  0  0  0  0  0  0  0  0
  192.3910  177.8910  143.2920 O   0  0  0  0  0  1  0  0  0  0  0  0
  193.3990  174.1230  146.2440 O   0  0  0  0  0  1  0  0  0  0  0  0
  192.0530  176.6400  142.7660 C   0  0  1  0  0  3  0  0  0  0  0  0
  184.7770  178.5870  143.3170 C   0  0  0  0  0  2  0  0  0  0  0  0
  184.9350  177.2120  143.0620 O   0  0  0  0  0  0  0  0  0  0  0  0
  186.1550  176.0420  144.7190 C   0  0  0  0  0  2  0  0  0  0  0  0
  184.5450  177.8700  145.7710 C   0  0  2  0  0  3  0  0  0  0  0  0
  186.6320  177.3850  146.9210 C   0  0  0  0  0  0  0  0  0  0  0  0
  186.1490  178.3070  147.6840 N   0  0  0  0  0  0  0  0  0  0  0  0
  184.9580  178.9670  144.7890 C   0  0  0  0  0  2  0  0  0  0  0  0
  184.4390  178.6660  147.4050 S   0  0  0  0  0  0  0  0  0  0  0  0
  185.6410  176.8060  145.9550 C   0  0  2  0  0  3  0  0  0  0  0  0
  186.2340  176.8720  143.4470 C   0  0  0  0  0  2  0  0  0  0  0  0
  187.9770  176.9300  147.1180 N   0  0  0  0  0  2  0  0  0  0  0  0
  195.9080  174.7310  140.3990 N   0  0  0  0  0  0  0  0  0  0  0  0
  195.7820  173.6360  139.5320 N   0  0  0  0  0  2  0  0  0  0  0  0
  197.4960  175.1430  138.7500 C   0  0  0  0  0  2  0  0  0  0  0  0
  196.9350  173.7310  138.6460 C   0  0  2  0  0  3  0  0  0  0  0  0
  196.9560  175.6660  140.0480 C   0  0  0  0  0  2  0  0  0  0  0  0
  196.5280  173.3990  137.2200 C   0  0  0  0  0  2  0  0  0  0  0  0
  196.2910  174.6740  136.4300 C   0  0  0  0  0  2  0  0  0  0  0  0
  195.0160  174.6300  135.8120 O   0  0  0  0  0  0  0  0  0  0  0  0
  193.8690  174.8340  136.5720 C   0  0  0  0  0  3  0  0  0  0  0  0
  193.8830  175.6550  137.5250 O   0  0  0  0  0  0  0  0  0  0  0  0
  189.6910  176.2860  142.1100 C   0  0  0  0  0  2  0  0  0  0  0  0
  188.9890  174.9780  141.7960 C   0  0  0  0  0  2  0  0  0  0  0  0
  189.8630  174.1360  140.8870 C   0  0  0  0  0  2  0  0  0  0  0  0
  190.0980  172.7610  141.5030 C   0  0  0  0  0  2  0  0  0  0  0  0
  191.4150  172.6750  142.2760 C   0  0  2  0  0  3  0  0  0  0  0  0
  192.4890  171.9150  141.5070 C   0  0  0  0  0  1  0  0  0  0  0  0
  190.0370  172.4470  144.4840 C   0  0  0  0  0  1  0  0  0  0  0  0
  193.0370  170.6150  144.6340 O   0  0  0  0  0  0  0  0  0  0  0  0
  192.1690  171.3650  144.1680 C   0  0  0  0  0  0  0  0  0  0  0  0
  191.2560  172.1540  143.6760 C   0  0  0  0  0  0  0  0  0  0  0  0
  1 15  1  0  0  0  0
  1 29  1  1  0  0  0
  2  7  1  0  0  0  0
  3 14  2  0  0  0  0
  3  8  1  0  0  0  0
  4  1  1  0  0  0  0
  5  2  2  0  0  0  0
  6  4  1  1  0  0  0
  6 13  1  0  0  0  0
  7 11  1  0  0  0  0
  7 17  1  1  0  0  0
  8 12  2  0  0  0  0
 10 40  1  6  0  0  0
 10  6  1  0  0  0  0
 12  2  1  0  0  0  0
 13 11  1  0  0  0  0
 13 15  2  0  0  0  0
 14  5  1  0  0  0  0
 15  9  1  0  0  0  0
 18  5  1  0  0  0  0
 18 10  1  0  0  0  0
 18 16  1  1  0  0  0
 19 25  1  0  0  0  0
 20 19  1  0  0  0  0
 20 28  1  0  0  0  0
 22 25  1  6  0  0  0
 22 27  1  0  0  0  0
 22 26  1  0  0  0  0
 23 29  1  0  0  0  0
 23 24  2  0  0  0  0
 26 24  1  0  0  0  0
 27 21  1  6  0  0  0
 27 23  1  0  0  0  0
 28 21  1  0  0  0  0
 30  3  1  0  0  0  0
 31 30  1  0  0  0  0
 32 34  1  0  0  0  0
 33 35  1  6  0  0  0
 33 32  1  0  0  0  0
 33 31  1  0  0  0  0
 34 30  1  0  0  0  0
 36 35  1  0  0  0  0
 37 36  1  0  0  0  0
 37 38  1  0  0  0  0
 38 39  2  0  0  0  0
 41 40  1  0  0  0  0
 42 43  1  0  0  0  0
 42 41  1  0  0  0  0
 43 44  1  0  0  0  0
 44 45  1  6  0  0  0
 44 49  1  0  0  0  0
 48 47  2  0  0  0  0
 49 48  2  0  0  0  0
 49 46  1  0  0  0  0
M  END
>  <MODEL>
5

>  <REMARK>
 VINA RESULT:      -6.1      3.950      9.992
  Name = 
  12 active torsions:
  status: ('A' for Active; 'I' for Inactive)
    1  A    between atoms: C_1  and  C_24
    2  A    between atoms: C_1  and  C_27
    3  A    between atoms: N_2  and  C_14
    4  A    between atoms: O_4  and  C_13
    5  A    between atoms: O_4  and  C_29
    6  A    between atoms: C_7  and  C_9
    7  A    between atoms: C_9  and  C_29
    8  A    between atoms: C_11  and  N_48
    9  A    between atoms: C_27  and  C_40
   10  A    between atoms: C_32  and  C_38
   11  A    between atoms: C_32  and  C_41
   12  A    between atoms: C_40  and  C_41
                            x       y       z     vdW  Elec       q    Type
                         _______ _______ _______ _____ _____    ______ ____

>  <TORSDO>
F 12

$$$$
=
 OpenBabel11042417143D

 49 54  0  0  1  0  0  0  0  0999 V2000
  193.6410  170.7600  141.9730 C   0  0  1  0  0  3  0  0  0  0  0  0
  189.5970  174.1800  140.3470 C   0  0  0  0  0  0  0  0  0  0  0  0
  187.5410  175.9560  141.1340 C   0  0  0  0  0  0  0  0  0  0  0  0
  193.2130  171.6690  143.1250 C   0  0  0  0  0  2  0  0  0  0  0  0
  189.6380  174.8030  141.6260 C   0  0  0  0  0  0  0  0  0  0  0  0
  192.6530  172.9550  142.5020 C   0  0  2  0  0  3  0  0  0  0  0  0
  190.5790  173.1120  139.9180 C   0  0  2  0  0  3  0  0  0  0  0  0
  187.5090  175.3470  139.8760 C   0  0  0  0  0  3  0  0  0  0  0  0
  193.3200  170.9870  139.4800 O   0  0  0  0  0  1  0  0  0  0  0  0
  191.2230  173.2740  142.9930 C   0  0  2  0  0  3  0  0  0  0  0  0
  192.0280  173.5460  140.0220 C   0  0  0  0  0  2  0  0  0  0  0  0
  188.5190  174.4660  139.4940 C   0  0  0  0  0  3  0  0  0  0  0  0
  192.6830  172.6770  141.0420 C   0  0  0  0  0  0  0  0  0  0  0  0
  188.6120  175.6840  141.9920 C   0  0  0  0  0  3  0  0  0  0  0  0
  193.2110  171.5000  140.7680 C   0  0  0  0  0  0  0  0  0  0  0  0
  191.8280  175.5510  142.2670 O   0  0  0  0  0  1  0  0  0  0  0  0
  190.3270  172.6510  138.6240 O   0  0  0  0  0  1  0  0  0  0  0  0
  190.7740  174.6960  142.6060 C   0  0  1  0  0  3  0  0  0  0  0  0
  195.2900  168.7920  146.8820 C   0  0  0  0  0  2  0  0  0  0  0  0
  194.1080  168.2400  146.3550 O   0  0  0  0  0  0  0  0  0  0  0  0
  193.7730  168.6590  144.0500 C   0  0  0  0  0  2  0  0  0  0  0  0
  196.3180  168.1660  144.6140 C   0  0  2  0  0  3  0  0  0  0  0  0
  195.8250  169.6920  142.7860 C   0  0  0  0  0  0  0  0  0  0  0  0
  197.1160  169.7220  142.7790 N   0  0  0  0  0  0  0  0  0  0  0  0
  196.3510  169.1020  145.8230 C   0  0  0  0  0  2  0  0  0  0  0  0
  197.8820  168.4350  143.7210 S   0  0  0  0  0  0  0  0  0  0  0  0
  195.2420  168.5690  143.5920 C   0  0  2  0  0  3  0  0  0  0  0  0
  193.5800  169.1790  145.4660 C   0  0  0  0  0  2  0  0  0  0  0  0
  195.0880  170.6180  141.9770 N   0  0  0  0  0  2  0  0  0  0  0  0
  186.4850  176.8370  141.5460 N   0  0  0  0  0  0  0  0  0  0  0  0
  186.0940  176.9450  142.8890 N   0  0  0  0  0  2  0  0  0  0  0  0
  184.6670  178.2880  141.4800 C   0  0  0  0  0  2  0  0  0  0  0  0
  184.8060  177.6280  142.8450 C   0  0  2  0  0  3  0  0  0  0  0  0
  185.6500  177.5610  140.6110 C   0  0  0  0  0  2  0  0  0  0  0  0
  184.7170  178.6480  143.9670 C   0  0  0  0  0  2  0  0  0  0  0  0
  186.1080  179.0790  144.3970 C   0  0  0  0  0  2  0  0  0  0  0  0
  186.2900  178.8200  145.7790 O   0  0  0  0  0  0  0  0  0  0  0  0
  185.7970  177.6430  146.3340 C   0  0  0  0  0  3  0  0  0  0  0  0
  185.3850  177.6310  147.5230 O   0  0  0  0  0  0  0  0  0  0  0  0
  191.1370  173.1500  144.5080 C   0  0  0  0  0  2  0  0  0  0  0  0
  189.7510  173.5190  145.0020 C   0  0  0  0  0  2  0  0  0  0  0  0
  189.8480  174.1280  146.3870 C   0  0  0  0  0  2  0  0  0  0  0  0
  188.8940  175.3100  146.5160 C   0  0  0  0  0  2  0  0  0  0  0  0
  189.5870  176.6570  146.3000 C   0  0  2  0  0  3  0  0  0  0  0  0
  189.4360  177.1630  144.8710 C   0  0  0  0  0  1  0  0  0  0  0  0
  192.1420  176.4370  145.8000 C   0  0  0  0  0  1  0  0  0  0  0  0
  191.5480  177.2740  149.1650 O   0  0  0  0  0  0  0  0  0  0  0  0
  191.2910  176.9820  147.9890 C   0  0  0  0  0  0  0  0  0  0  0  0
  191.0190  176.6750  146.7520 C   0  0  0  0  0  0  0  0  0  0  0  0
  1 29  1  6  0  0  0
  1  4  1  0  0  0  0
  2  5  1  0  0  0  0
  3 30  1  0  0  0  0
  3 14  1  0  0  0  0
  5 14  2  0  0  0  0
  5 18  1  0  0  0  0
  6 10  1  0  0  0  0
  6  4  1  1  0  0  0
  7 17  1  6  0  0  0
  7 11  1  0  0  0  0
  7  2  1  0  0  0  0
  8  3  2  0  0  0  0
  9 15  1  0  0  0  0
 10 40  1  1  0  0  0
 11 13  1  0  0  0  0
 12  8  1  0  0  0  0
 12  2  2  0  0  0  0
 13  6  1  0  0  0  0
 15 13  2  0  0  0  0
 15  1  1  0  0  0  0
 18 16  1  6  0  0  0
 18 10  1  0  0  0  0
 20 19  1  0  0  0  0
 21 28  1  0  0  0  0
 22 25  1  1  0  0  0
 23 27  1  0  0  0  0
 24 23  2  0  0  0  0
 24 26  1  0  0  0  0
 25 19  1  0  0  0  0
 26 22  1  0  0  0  0
 27 21  1  1  0  0  0
 27 22  1  0  0  0  0
 28 20  1  0  0  0  0
 29 23  1  0  0  0  0
 30 31  1  0  0  0  0
 32 33  1  0  0  0  0
 33 31  1  0  0  0  0
 33 35  1  1  0  0  0
 34 32  1  0  0  0  0
 34 30  1  0  0  0  0
 35 36  1  0  0  0  0
 36 37  1  0  0  0  0
 37 38  1  0  0  0  0
 38 39  2  0  0  0  0
 40 41  1  0  0  0  0
 41 42  1  0  0  0  0
 42 43  1  0  0  0  0
 44 45  1  6  0  0  0
 44 43  1  0  0  0  0
 44 49  1  0  0  0  0
 46 49  1  0  0  0  0
 48 47  2  0  0  0  0
 49 48  2  0  0  0  0
M  END
>  <MODEL>
6

>  <REMARK>
 VINA RESULT:      -5.9      1.893      2.881
  Name = 
  12 active torsions:
  status: ('A' for Active; 'I' for Inactive)
    1  A    between atoms: C_1  and  C_24
    2  A    between atoms: C_1  and  C_27
    3  A    between atoms: N_2  and  C_14
    4  A    between atoms: O_4  and  C_13
    5  A    between atoms: O_4  and  C_29
    6  A    between atoms: C_7  and  C_9
    7  A    between atoms: C_9  and  C_29
    8  A    between atoms: C_11  and  N_48
    9  A    between atoms: C_27  and  C_40
   10  A    between atoms: C_32  and  C_38
   11  A    between atoms: C_32  and  C_41
   12  A    between atoms: C_40  and  C_41
                            x       y       z     vdW  Elec       q    Type
                         _______ _______ _______ _____ _____    ______ ____

>  <TORSDO>
F 12

$$$$
=
 OpenBabel11042417143D

 49 54  0  0  1  0  0  0  0  0999 V2000
  194.1900  171.9680  143.7050 C   0  0  1  0  0  3  0  0  0  0  0  0
  190.9310  175.9120  145.8300 C   0  0  0  0  0  0  0  0  0  0  0  0
  188.4200  177.2120  145.7340 C   0  0  0  0  0  0  0  0  0  0  0  0
  192.7380  171.7500  143.2780 C   0  0  0  0  0  2  0  0  0  0  0  0
  189.8010  175.2510  145.2690 C   0  0  0  0  0  0  0  0  0  0  0  0
  191.8500  172.3800  144.3600 C   0  0  2  0  0  3  0  0  0  0  0  0
  192.3290  175.3380  145.7820 C   0  0  2  0  0  3  0  0  0  0  0  0
  189.5300  177.8550  146.2900 C   0  0  0  0  0  3  0  0  0  0  0  0
  195.1720  173.3120  145.6030 O   0  0  0  0  0  1  0  0  0  0  0  0
  190.8550  173.4100  143.7810 C   0  0  2  0  0  3  0  0  0  0  0  0
  192.4340  173.9500  146.3820 C   0  0  0  0  0  2  0  0  0  0  0  0
  190.7680  177.2150  146.3290 C   0  0  0  0  0  3  0  0  0  0  0  0
  192.8240  173.0180  145.2850 C   0  0  0  0  0  0  0  0  0  0  0  0
  188.5660  175.9120  145.2380 C   0  0  0  0  0  3  0  0  0  0  0  0
  194.0740  172.7940  144.9260 C   0  0  0  0  0  0  0  0  0  0  0  0
  189.6400  172.9320  145.8720 O   0  0  0  0  0  1  0  0  0  0  0  0
  193.2650  176.1760  146.3910 O   0  0  0  0  0  1  0  0  0  0  0  0
  189.7770  173.8220  144.8020 C   0  0  1  0  0  3  0  0  0  0  0  0
  197.0680  170.1340  139.3420 C   0  0  0  0  0  2  0  0  0  0  0  0
  197.1450  171.5150  139.6030 O   0  0  0  0  0  0  0  0  0  0  0  0
  196.4130  172.1460  141.7630 C   0  0  0  0  0  2  0  0  0  0  0  0
  197.7680  169.8650  141.7970 C   0  0  2  0  0  3  0  0  0  0  0  0
  195.9920  170.1650  143.4300 C   0  0  0  0  0  0  0  0  0  0  0  0
  196.3870  168.9730  143.7250 N   0  0  0  0  0  0  0  0  0  0  0  0
  197.0200  169.2690  140.6040 C   0  0  0  0  0  2  0  0  0  0  0  0
  197.9410  168.5190  143.0110 S   0  0  0  0  0  0  0  0  0  0  0  0
  196.9340  170.9220  142.5410 C   0  0  2  0  0  3  0  0  0  0  0  0
  196.0020  171.8580  140.3280 C   0  0  0  0  0  2  0  0  0  0  0  0
  194.8000  170.6880  144.0300 N   0  0  0  0  0  2  0  0  0  0  0  0
  187.1510  177.8810  145.6600 N   0  0  0  0  0  0  0  0  0  0  0  0
  186.6790  178.4400  144.4640 N   0  0  0  0  0  2  0  0  0  0  0  0
  185.1580  178.9110  146.2770 C   0  0  0  0  0  2  0  0  0  0  0  0
  185.5820  179.3100  144.8700 C   0  0  2  0  0  3  0  0  0  0  0  0
  186.3360  178.1600  146.8240 C   0  0  0  0  0  2  0  0  0  0  0  0
  184.4290  179.1900  143.8880 C   0  0  0  0  0  2  0  0  0  0  0  0
  184.5790  177.9310  143.0520 C   0  0  0  0  0  2  0  0  0  0  0  0
  184.7900  178.2740  141.6930 O   0  0  0  0  0  0  0  0  0  0  0  0
  185.8830  177.7530  141.0080 C   0  0  0  0  0  3  0  0  0  0  0  0
  185.8930  177.7450  139.7500 O   0  0  0  0  0  0  0  0  0  0  0  0
  190.1500  172.8430  142.5560 C   0  0  0  0  0  2  0  0  0  0  0  0
  189.6340  173.9570  141.6650 C   0  0  0  0  0  2  0  0  0  0  0  0
  190.3950  173.9540  140.3530 C   0  0  0  0  0  2  0  0  0  0  0  0
  191.8450  173.5430  140.5810 C   0  0  0  0  0  2  0  0  0  0  0  0
  192.8410  174.4620  139.8710 C   0  0  2  0  0  3  0  0  0  0  0  0
  193.4770  173.7970  138.6570 C   0  0  0  0  0  1  0  0  0  0  0  0
  193.6070  175.2350  142.2460 C   0  0  0  0  0  1  0  0  0  0  0  0
  196.1730  175.6150  139.8690 O   0  0  0  0  0  0  0  0  0  0  0  0
  195.0520  175.3420  140.3180 C   0  0  0  0  0  0  0  0  0  0  0  0
  193.8710  175.0530  140.7900 C   0  0  0  0  0  0  0  0  0  0  0  0
  1 29  1  1  0  0  0
  1 15  1  0  0  0  0
  2 12  1  0  0  0  0
  3  8  1  0  0  0  0
  4  1  1  0  0  0  0
  5  2  2  0  0  0  0
  6  4  1  6  0  0  0
  6 13  1  0  0  0  0
  7  2  1  0  0  0  0
  7 11  1  0  0  0  0
  7 17  1  1  0  0  0
  8 12  2  0  0  0  0
 10 40  1  6  0  0  0
 10  6  1  0  0  0  0
 10 18  1  0  0  0  0
 13 11  1  0  0  0  0
 14  5  1  0  0  0  0
 14  3  2  0  0  0  0
 15 13  2  0  0  0  0
 15  9  1  0  0  0  0
 18  5  1  0  0  0  0
 18 16  1  1  0  0  0
 19 20  1  0  0  0  0
 19 25  1  0  0  0  0
 20 28  1  0  0  0  0
 22 25  1  6  0  0  0
 22 27  1  0  0  0  0
 22 26  1  0  0  0  0
 23 24  2  0  0  0  0
 23 29  1  0  0  0  0
 26 24  1  0  0  0  0
 27 21  1  6  0  0  0
 27 23  1  0  0  0  0
 28 21  1  0  0  0  0
 30  3  1  0  0  0  0
 30 34  1  0  0  0  0
 31 33  1  0  0  0  0
 31 30  1  0  0  0  0
 32 34  1  0  0  0  0
 33 35  1  6  0  0  0
 33 32  1  0  0  0  0
 36 35  1  0  0  0  0
 37 36  1  0  0  0  0
 38 37  1  0  0  0  0
 39 38  2  0  0  0  0
 41 40  1  0  0  0  0
 42 43  1  0  0  0  0
 42 41  1  0  0  0  0
 44 45  1  6  0  0  0
 44 43  1  0  0  0  0
 44 49  1  0  0  0  0
 47 48  2  0  0  0  0
 48 49  2  0  0  0  0
 49 46  1  0  0  0  0
M  END
>  <MODEL>
7

>  <REMARK>
 VINA RESULT:      -5.8      2.523      4.604
  Name = 
  12 active torsions:
  status: ('A' for Active; 'I' for Inactive)
    1  A    between atoms: C_1  and  C_24
    2  A    between atoms: C_1  and  C_27
    3  A    between atoms: N_2  and  C_14
    4  A    between atoms: O_4  and  C_13
    5  A    between atoms: O_4  and  C_29
    6  A    between atoms: C_7  and  C_9
    7  A    between atoms: C_9  and  C_29
    8  A    between atoms: C_11  and  N_48
    9  A    between atoms: C_27  and  C_40
   10  A    between atoms: C_32  and  C_38
   11  A    between atoms: C_32  and  C_41
   12  A    between atoms: C_40  and  C_41
                            x       y       z     vdW  Elec       q    Type
                         _______ _______ _______ _____ _____    ______ ____

>  <TORSDO>
F 12

$$$$
=
 OpenBabel11042417143D

 49 54  0  0  1  0  0  0  0  0999 V2000
  187.7670  176.5690  142.3630 C   0  0  1  0  0  3  0  0  0  0  0  0
  191.3190  172.3550  141.7910 C   0  0  0  0  0  0  0  0  0  0  0  0
  193.1640  170.6270  143.0610 C   0  0  0  0  0  0  0  0  0  0  0  0
  188.1130  175.9700  143.7270 C   0  0  0  0  0  2  0  0  0  0  0  0
  191.2370  172.1230  143.1930 C   0  0  0  0  0  0  0  0  0  0  0  0
  188.4950  174.5020  143.4930 C   0  0  2  0  0  3  0  0  0  0  0  0
  190.4630  173.3750  141.0730 C   0  0  2  0  0  3  0  0  0  0  0  0
  193.2370  170.8520  141.6830 C   0  0  0  0  0  3  0  0  0  0  0  0
  187.9910  175.6170  140.0350 O   0  0  0  0  0  1  0  0  0  0  0  0
  189.8880  174.1570  144.0640 C   0  0  2  0  0  3  0  0  0  0  0  0
  188.9760  173.1700  141.2820 C   0  0  0  0  0  2  0  0  0  0  0  0
  192.3310  171.7100  141.0610 C   0  0  0  0  0  3  0  0  0  0  0  0
  188.4600  174.3640  142.0130 C   0  0  0  0  0  0  0  0  0  0  0  0
  192.1580  171.2580  143.8000 C   0  0  0  0  0  3  0  0  0  0  0  0
  188.0710  175.4740  141.4160 C   0  0  0  0  0  0  0  0  0  0  0  0
  188.9900  171.8620  144.0000 O   0  0  0  0  0  1  0  0  0  0  0  0
  190.7350  173.4220  139.7040 O   0  0  0  0  0  1  0  0  0  0  0  0
  190.1490  172.6390  144.0950 C   0  0  1  0  0  3  0  0  0  0  0  0
  185.9810  177.8160  147.4560 C   0  0  0  0  0  2  0  0  0  0  0  0
  187.2540  178.3030  147.1060 O   0  0  0  0  0  0  0  0  0  0  0  0
  187.7130  178.2650  144.7840 C   0  0  0  0  0  2  0  0  0  0  0  0
  185.2030  178.9590  145.2920 C   0  0  2  0  0  3  0  0  0  0  0  0
  185.6600  177.7350  143.2410 C   0  0  0  0  0  0  0  0  0  0  0  0
  184.3790  177.8650  143.1590 N   0  0  0  0  0  0  0  0  0  0  0  0
  184.9750  177.8330  146.3020 C   0  0  0  0  0  2  0  0  0  0  0  0
  183.6910  179.0480  144.2820 S   0  0  0  0  0  0  0  0  0  0  0  0
  186.3020  178.6150  144.2720 C   0  0  2  0  0  3  0  0  0  0  0  0
  187.7390  177.4800  146.0870 C   0  0  0  0  0  2  0  0  0  0  0  0
  186.3490  176.8850  142.3140 N   0  0  0  0  0  2  0  0  0  0  0  0
  194.1160  169.7710  143.7120 N   0  0  0  0  0  0  0  0  0  0  0  0
  195.3870  169.5320  143.1680 N   0  0  0  0  0  2  0  0  0  0  0  0
  195.0560  168.2150  145.1640 C   0  0  0  0  0  2  0  0  0  0  0  0
  195.8890  168.3740  143.8990 C   0  0  2  0  0  3  0  0  0  0  0  0
  193.7970  168.9810  144.8820 C   0  0  0  0  0  2  0  0  0  0  0  0
  197.3620  168.5580  144.2220 C   0  0  0  0  0  2  0  0  0  0  0  0
  197.5230  169.3950  145.4790 C   0  0  0  0  0  2  0  0  0  0  0  0
  197.8610  170.7270  145.1330 O   0  0  0  0  0  0  0  0  0  0  0  0
  197.1590  171.7890  145.6960 C   0  0  0  0  0  3  0  0  0  0  0  0
  195.9030  171.7530  145.7530 O   0  0  0  0  0  0  0  0  0  0  0  0
  190.0300  174.6860  145.4850 C   0  0  0  0  0  2  0  0  0  0  0  0
  191.3810  175.3470  145.6840 C   0  0  0  0  0  2  0  0  0  0  0  0
  191.9340  175.7900  144.3440 C   0  0  0  0  0  2  0  0  0  0  0  0
  193.4490  175.9430  144.4200 C   0  0  0  0  0  2  0  0  0  0  0  0
  194.1090  176.0020  143.0410 C   0  0  2  0  0  3  0  0  0  0  0  0
  193.2600  175.3390  141.9650 C   0  0  0  0  0  1  0  0  0  0  0  0
  196.6760  176.3880  143.3430 C   0  0  0  0  0  1  0  0  0  0  0  0
  195.9470  173.0220  142.6210 O   0  0  0  0  0  0  0  0  0  0  0  0
  195.7410  174.2270  142.8200 C   0  0  0  0  0  0  0  0  0  0  0  0
  195.5230  175.4950  143.0310 C   0  0  0  0  0  0  0  0  0  0  0  0
  1 29  1  1  0  0  0
  1  4  1  0  0  0  0
  2  5  1  0  0  0  0
  3 30  1  0  0  0  0
  3 14  1  0  0  0  0
  5 14  2  0  0  0  0
  5 18  1  0  0  0  0
  6  4  1  6  0  0  0
  6 10  1  0  0  0  0
  7 17  1  6  0  0  0
  7 11  1  0  0  0  0
  7  2  1  0  0  0  0
  8  3  2  0  0  0  0
  9 15  1  0  0  0  0
 10 18  1  0  0  0  0
 10 40  1  1  0  0  0
 11 13  1  0  0  0  0
 12  8  1  0  0  0  0
 12  2  2  0  0  0  0
 13  6  1  0  0  0  0
 15 13  2  0  0  0  0
 15  1  1  0  0  0  0
 18 16  1  6  0  0  0
 20 19  1  0  0  0  0
 21 28  1  0  0  0  0
 22 25  1  1  0  0  0
 23 27  1  0  0  0  0
 24 23  2  0  0  0  0
 24 26  1  0  0  0  0
 25 19  1  0  0  0  0
 26 22  1  0  0  0  0
 27 21  1  1  0  0  0
 27 22  1  0  0  0  0
 28 20  1  0  0  0  0
 29 23  1  0  0  0  0
 30 34  1  0  0  0  0
 31 30  1  0  0  0  0
 31 33  1  0  0  0  0
 33 35  1  1  0  0  0
 33 32  1  0  0  0  0
 34 32  1  0  0  0  0
 35 36  1  0  0  0  0
 37 36  1  0  0  0  0
 37 38  1  0  0  0  0
 38 39  2  0  0  0  0
 40 41  1  0  0  0  0
 42 43  1  0  0  0  0
 42 41  1  0  0  0  0
 44 45  1  6  0  0  0
 44 43  1  0  0  0  0
 47 48  2  0  0  0  0
 48 49  2  0  0  0  0
 49 44  1  0  0  0  0
 49 46  1  0  0  0  0
M  END
>  <MODEL>
8

>  <REMARK>
 VINA RESULT:      -5.8      3.046      9.474
  Name = 
  12 active torsions:
  status: ('A' for Active; 'I' for Inactive)
    1  A    between atoms: C_1  and  C_24
    2  A    between atoms: C_1  and  C_27
    3  A    between atoms: N_2  and  C_14
    4  A    between atoms: O_4  and  C_13
    5  A    between atoms: O_4  and  C_29
    6  A    between atoms: C_7  and  C_9
    7  A    between atoms: C_9  and  C_29
    8  A    between atoms: C_11  and  N_48
    9  A    between atoms: C_27  and  C_40
   10  A    between atoms: C_32  and  C_38
   11  A    between atoms: C_32  and  C_41
   12  A    between atoms: C_40  and  C_41
                            x       y       z     vdW  Elec       q    Type
                         _______ _______ _______ _____ _____    ______ ____

>  <TORSDO>
F 12

$$$$
=
 OpenBabel11042417143D

 49 54  0  0  1  0  0  0  0  0999 V2000
  189.3090  176.4420  144.0820 C   0  0  1  0  0  3  0  0  0  0  0  0
  184.7950  177.9740  141.2580 C   0  0  0  0  0  0  0  0  0  0  0  0
  182.0090  178.4600  141.3330 C   0  0  0  0  0  0  0  0  0  0  0  0
  188.1790  176.8170  145.0410 C   0  0  0  0  0  2  0  0  0  0  0  0
  184.1530  178.2790  142.4910 C   0  0  0  0  0  0  0  0  0  0  0  0
  187.2770  177.8190  144.3080 C   0  0  2  0  0  3  0  0  0  0  0  0
  186.2470  177.5600  141.1650 C   0  0  2  0  0  3  0  0  0  0  0  0
  182.6450  178.1660  140.1230 C   0  0  0  0  0  3  0  0  0  0  0  0
  189.6640  177.0010  141.6460 O   0  0  0  0  0  1  0  0  0  0  0  0
  185.8000  177.3670  144.2730 C   0  0  2  0  0  3  0  0  0  0  0  0
  187.2010  178.5590  141.7900 C   0  0  0  0  0  2  0  0  0  0  0  0
  184.0170  177.9200  140.0910 C   0  0  0  0  0  3  0  0  0  0  0  0
  187.8640  177.8830  142.9430 C   0  0  0  0  0  0  0  0  0  0  0  0
  182.7730  178.5230  142.5040 C   0  0  0  0  0  3  0  0  0  0  0  0
  188.9490  177.1420  142.8300 C   0  0  0  0  0  0  0  0  0  0  0  0
  185.4100  179.7710  143.8910 O   0  0  0  0  0  1  0  0  0  0  0  0
  186.6410  177.3060  139.8500 O   0  0  0  0  0  1  0  0  0  0  0  0
  184.8550  178.4910  143.8050 C   0  0  1  0  0  3  0  0  0  0  0  0
  192.8710  172.2540  144.7590 C   0  0  0  0  0  2  0  0  0  0  0  0
  192.0600  172.2020  143.6100 O   0  0  0  0  0  0  0  0  0  0  0  0
  191.0100  174.2500  143.0590 C   0  0  0  0  0  2  0  0  0  0  0  0
  193.4890  174.6060  143.9330 C   0  0  2  0  0  3  0  0  0  0  0  0
  191.8510  176.3410  144.3990 C   0  0  0  0  0  0  0  0  0  0  0  0
  192.8920  176.8350  144.9820 N   0  0  0  0  0  0  0  0  0  0  0  0
  193.3240  173.6680  145.1310 C   0  0  0  0  0  2  0  0  0  0  0  0
  194.4160  176.0490  144.5440 S   0  0  0  0  0  0  0  0  0  0  0  0
  192.1490  175.2030  143.4700 C   0  0  2  0  0  3  0  0  0  0  0  0
  190.9250  172.9720  143.8770 C   0  0  0  0  0  2  0  0  0  0  0  0
  190.5710  176.9570  144.5910 N   0  0  0  0  0  2  0  0  0  0  0  0
  180.5910  178.6810  141.3780 N   0  0  0  0  0  0  0  0  0  0  0  0
  180.0280  179.9320  141.0890 N   0  0  0  0  0  2  0  0  0  0  0  0
  178.3200  178.3740  141.7800 C   0  0  0  0  0  2  0  0  0  0  0  0
  178.6600  179.8450  141.5850 C   0  0  2  0  0  3  0  0  0  0  0  0
  179.6520  177.6900  141.8610 C   0  0  0  0  0  2  0  0  0  0  0  0
  177.7060  180.5110  140.6070 C   0  0  0  0  0  2  0  0  0  0  0  0
  178.1680  180.2750  139.1800 C   0  0  0  0  0  2  0  0  0  0  0  0
  178.4340  181.5140  138.5450 O   0  0  0  0  0  0  0  0  0  0  0  0
  178.3680  182.6960  139.2760 C   0  0  0  0  0  3  0  0  0  0  0  0
  179.1820  183.6260  139.0450 O   0  0  0  0  0  0  0  0  0  0  0  0
  185.3450  176.9160  145.6540 C   0  0  0  0  0  2  0  0  0  0  0  0
  184.2890  177.8530  146.2080 C   0  0  0  0  0  2  0  0  0  0  0  0
  184.7420  178.3980  147.5490 C   0  0  0  0  0  2  0  0  0  0  0  0
  185.9120  177.5810  148.0850 C   0  0  0  0  0  2  0  0  0  0  0  0
  187.1220  178.4450  148.4480 C   0  0  2  0  0  3  0  0  0  0  0  0
  186.9730  179.8810  147.9610 C   0  0  0  0  0  1  0  0  0  0  0  0
  189.6880  178.6510  148.0060 C   0  0  0  0  0  1  0  0  0  0  0  0
  188.5460  175.3610  147.5010 O   0  0  0  0  0  0  0  0  0  0  0  0
  188.4920  176.5720  147.7590 C   0  0  0  0  0  0  0  0  0  0  0  0
  188.4340  177.8450  148.0310 C   0  0  0  0  0  0  0  0  0  0  0  0
  1 29  1  1  0  0  0
  1  4  1  0  0  0  0
  2  5  1  0  0  0  0
  3 30  1  0  0  0  0
  3 14  1  0  0  0  0
  5 14  2  0  0  0  0
  5 18  1  0  0  0  0
  6  4  1  1  0  0  0
  7 17  1  6  0  0  0
  7  2  1  0  0  0  0
  7 11  1  0  0  0  0
  8  3  2  0  0  0  0
  9 15  1  0  0  0  0
 10  6  1  0  0  0  0
 10 40  1  1  0  0  0
 11 13  1  0  0  0  0
 12  8  1  0  0  0  0
 12  2  2  0  0  0  0
 13  6  1  0  0  0  0
 15 13  2  0  0  0  0
 15  1  1  0  0  0  0
 18 16  1  6  0  0  0
 18 10  1  0  0  0  0
 19 25  1  0  0  0  0
 20 28  1  0  0  0  0
 20 19  1  0  0  0  0
 21 28  1  0  0  0  0
 22 26  1  0  0  0  0
 22 25  1  1  0  0  0
 23 29  1  0  0  0  0
 23 24  2  0  0  0  0
 26 24  1  0  0  0  0
 27 21  1  1  0  0  0
 27 22  1  0  0  0  0
 27 23  1  0  0  0  0
 30 34  1  0  0  0  0
 31 30  1  0  0  0  0
 31 33  1  0  0  0  0
 32 34  1  0  0  0  0
 33 35  1  6  0  0  0
 33 32  1  0  0  0  0
 36 35  1  0  0  0  0
 37 36  1  0  0  0  0
 37 38  1  0  0  0  0
 39 38  2  0  0  0  0
 40 41  1  0  0  0  0
 41 42  1  0  0  0  0
 42 43  1  0  0  0  0
 43 44  1  0  0  0  0
 44 45  1  6  0  0  0
 46 49  1  0  0  0  0
 47 48  2  0  0  0  0
 48 49  2  0  0  0  0
 49 44  1  0  0  0  0
M  END
>  <MODEL>
9

>  <REMARK>
 VINA RESULT:      -5.7      4.605      7.737
  Name = 
  12 active torsions:
  status: ('A' for Active; 'I' for Inactive)
    1  A    between atoms: C_1  and  C_24
    2  A    between atoms: C_1  and  C_27
    3  A    between atoms: N_2  and  C_14
    4  A    between atoms: O_4  and  C_13
    5  A    between atoms: O_4  and  C_29
    6  A    between atoms: C_7  and  C_9
    7  A    between atoms: C_9  and  C_29
    8  A    between atoms: C_11  and  N_48
    9  A    between atoms: C_27  and  C_40
   10  A    between atoms: C_32  and  C_38
   11  A    between atoms: C_32  and  C_41
   12  A    between atoms: C_40  and  C_41
                            x       y       z     vdW  Elec       q    Type
                         _______ _______ _______ _____ _____    ______ ____

>  <TORSDO>
F 12

$$$$
