=
 OpenBabel11042414203D

 27 30  0  0  1  0  0  0  0  0999 V2000
  184.2560  178.5830  141.1780 C   0  0  2  0  0  3  0  0  0  0  0  0
  188.9940  175.3750  145.5660 C   0  0  0  0  0  3  0  0  0  0  0  0
  187.3020  176.5880  142.5930 O   0  0  0  0  0  0  0  0  0  0  0  0
  186.1490  177.2900  142.2260 C   0  0  0  0  0  0  0  0  0  0  0  0
  185.3920  177.8660  143.1370 C   0  0  0  0  0  0  0  0  0  0  0  0
  188.8540  175.7220  144.2770 C   0  0  0  0  0  0  0  0  0  0  0  0
  187.1460  176.7930  146.3500 C   0  0  0  0  0  0  0  0  0  0  0  0
  185.5610  177.4460  140.5530 S   0  0  0  0  0  0  0  0  0  0  0  0
  188.1580  175.9670  146.6290 C   0  0  0  0  0  3  0  0  0  0  0  0
  185.6830  177.6900  144.5710 C   0  0  0  0  0  3  0  0  0  0  0  0
  187.8930  176.8190  143.8800 C   0  0  2  0  0  3  0  0  0  0  0  0
  186.8410  177.1130  144.9380 C   0  0  0  0  0  0  0  0  0  0  0  0
  184.2510  178.5380  142.6350 N   0  0  0  0  0  2  0  0  0  0  0  0
  190.7400  176.0340  142.5920 C   0  0  0  0  0  2  0  0  0  0  0  0
  189.7420  175.0890  143.2420 C   0  0  0  0  0  0  0  0  0  0  0  0
  191.2120  175.0110  143.6150 C   0  0  0  0  0  2  0  0  0  0  0  0
  189.1810  173.9330  142.3930 C   0  0  2  0  0  3  0  0  0  0  0  0
  189.5710  172.5900  142.9890 C   0  0  0  0  0  1  0  0  0  0  0  0
  188.4710  174.4920  140.1270 N   0  0  0  0  0  1  0  0  0  0  0  0
  189.5770  173.9800  140.9190 C   0  0  0  0  0  2  0  0  0  0  0  0
  185.6890  177.7090  148.2970 N   0  0  0  0  0  0  0  0  0  0  0  0
  186.3390  177.3000  147.4300 C   0  0  0  0  0  0  0  0  0  0  0  0
  182.8880  178.2300  140.6050 C   0  0  0  0  0  2  0  0  0  0  0  0
  179.8850  178.9550  142.5850 O   0  0  0  0  0  0  0  0  0  0  0  0
  180.7060  179.0050  141.6280 C   0  0  0  0  0  0  0  0  0  0  0  0
  181.8720  178.1740  141.6510 N   0  0  0  0  0  2  0  0  0  0  0  0
  180.4520  179.9390  140.4910 C   0  0  0  0  0  1  0  0  0  0  0  0
  1 23  1  6  0  0  0
  1 13  1  0  0  0  0
  2  9  1  0  0  0  0
  4  3  1  0  0  0  0
  4  5  2  0  0  0  0
  5 10  1  0  0  0  0
  6  2  2  0  0  0  0
  7  9  2  0  0  0  0
  7 22  1  0  0  0  0
  8  1  1  0  0  0  0
  8  4  1  0  0  0  0
 10 12  2  0  0  0  0
 11  3  1  6  0  0  0
 11  6  1  0  0  0  0
 11 12  1  0  0  0  0
 12  7  1  0  0  0  0
 13  5  1  0  0  0  0
 14 15  1  0  0  0  0
 14 16  1  0  0  0  0
 15 16  1  0  0  0  0
 15  6  1  0  0  0  0
 17 18  1  1  0  0  0
 17 15  1  0  0  0  0
 19 20  1  0  0  0  0
 20 17  1  0  0  0  0
 22 21  3  0  0  0  0
 23 26  1  0  0  0  0
 25 26  1  0  0  0  0
 25 24  2  0  0  0  0
 27 25  1  0  0  0  0
M  END
>  <MODEL>
1

>  <REMARK>
 VINA RESULT:      -6.5      0.000      0.000
  Name = 
  6 active torsions:
  status: ('A' for Active; 'I' for Inactive)
    1  A    between atoms: C_1  and  C_22
    2  A    between atoms: C_5  and  C_9
    3  A    between atoms: C_5  and  C_20
    4  A    between atoms: C_9  and  C_15
    5  A    between atoms: N_10  and  C_22
    6  A    between atoms: C_14  and  C_16
                            x       y       z     vdW  Elec       q    Type
                         _______ _______ _______ _____ _____    ______ ____

>  <TORSDO>
F 6

$$$$
=
 OpenBabel11042414203D

 27 30  0  0  1  0  0  0  0  0999 V2000
  193.0880  176.1260  145.6210 C   0  0  2  0  0  3  0  0  0  0  0  0
  186.1700  176.2390  143.5920 C   0  0  0  0  0  3  0  0  0  0  0  0
  189.2280  176.7090  145.4900 O   0  0  0  0  0  0  0  0  0  0  0  0
  190.5910  176.4000  145.4220 C   0  0  0  0  0  0  0  0  0  0  0  0
  191.1100  175.8810  144.3290 C   0  0  0  0  0  0  0  0  0  0  0  0
  186.9810  176.7720  144.5190 C   0  0  0  0  0  0  0  0  0  0  0  0
  188.0060  175.4590  142.1540 C   0  0  0  0  0  0  0  0  0  0  0  0
  191.7360  176.6200  146.7670 S   0  0  0  0  0  0  0  0  0  0  0  0
  186.6950  175.6200  142.3580 C   0  0  0  0  0  3  0  0  0  0  0  0
  190.2470  175.5120  143.1930 C   0  0  0  0  0  3  0  0  0  0  0  0
  188.4720  176.8490  144.2780 C   0  0  2  0  0  3  0  0  0  0  0  0
  188.9590  175.8970  143.1970 C   0  0  0  0  0  0  0  0  0  0  0  0
  192.4990  175.6090  144.3920 N   0  0  0  0  0  2  0  0  0  0  0  0
  185.2700  176.5890  146.3980 C   0  0  0  0  0  2  0  0  0  0  0  0
  186.3850  177.3950  145.7510 C   0  0  0  0  0  0  0  0  0  0  0  0
  186.6470  176.6430  147.0430 C   0  0  0  0  0  2  0  0  0  0  0  0
  186.3160  178.9310  145.8440 C   0  0  2  0  0  3  0  0  0  0  0  0
  185.5970  179.3600  147.1130 C   0  0  0  0  0  1  0  0  0  0  0  0
  184.2640  179.2910  144.5750 N   0  0  0  0  0  1  0  0  0  0  0  0
  185.6810  179.6100  144.6330 C   0  0  0  0  0  2  0  0  0  0  0  0
  188.8090  174.2800  139.9820 N   0  0  0  0  0  0  0  0  0  0  0  0
  188.4500  174.8070  140.9500 C   0  0  0  0  0  0  0  0  0  0  0  0
  194.0200  175.1050  146.2650 C   0  0  0  0  0  2  0  0  0  0  0  0
  197.4220  174.3510  145.1160 O   0  0  0  0  0  0  0  0  0  0  0  0
  196.2250  174.1550  145.4630 C   0  0  0  0  0  0  0  0  0  0  0  0
  195.3930  175.2700  145.7990 N   0  0  0  0  0  2  0  0  0  0  0  0
  195.6980  172.7590  145.5270 C   0  0  0  0  0  1  0  0  0  0  0  0
  1 23  1  1  0  0  0
  1  8  1  0  0  0  0
  2  6  2  0  0  0  0
  4  3  1  0  0  0  0
  4  8  1  0  0  0  0
  5 13  1  0  0  0  0
  5  4  2  0  0  0  0
  6 15  1  0  0  0  0
  7  9  2  0  0  0  0
  7 12  1  0  0  0  0
  9  2  1  0  0  0  0
 10 12  2  0  0  0  0
 10  5  1  0  0  0  0
 11 12  1  6  0  0  0
 11  6  1  0  0  0  0
 11  3  1  0  0  0  0
 13  1  1  0  0  0  0
 14 16  1  0  0  0  0
 15 17  1  0  0  0  0
 15 14  1  0  0  0  0
 15 16  1  0  0  0  0
 17 18  1  1  0  0  0
 19 20  1  0  0  0  0
 20 17  1  0  0  0  0
 21 22  3  0  0  0  0
 22  7  1  0  0  0  0
 24 25  2  0  0  0  0
 25 27  1  0  0  0  0
 25 26  1  0  0  0  0
 26 23  1  0  0  0  0
M  END
>  <MODEL>
2

>  <REMARK>
 VINA RESULT:      -6.4      4.045      9.079
  Name = 
  6 active torsions:
  status: ('A' for Active; 'I' for Inactive)
    1  A    between atoms: C_1  and  C_22
    2  A    between atoms: C_5  and  C_9
    3  A    between atoms: C_5  and  C_20
    4  A    between atoms: C_9  and  C_15
    5  A    between atoms: N_10  and  C_22
    6  A    between atoms: C_14  and  C_16
                            x       y       z     vdW  Elec       q    Type
                         _______ _______ _______ _____ _____    ______ ____

>  <TORSDO>
F 6

$$$$
=
 OpenBabel11042414203D

 27 30  0  0  1  0  0  0  0  0999 V2000
  189.6260  174.0240  140.8440 C   0  0  2  0  0  3  0  0  0  0  0  0
  185.3890  178.0980  145.0200 C   0  0  0  0  0  3  0  0  0  0  0  0
  188.0400  175.8950  143.8840 O   0  0  0  0  0  0  0  0  0  0  0  0
  188.4770  175.2550  142.7200 C   0  0  0  0  0  0  0  0  0  0  0  0
  187.9320  175.5310  141.5540 C   0  0  0  0  0  0  0  0  0  0  0  0
  186.5670  177.4560  145.0620 C   0  0  0  0  0  0  0  0  0  0  0  0
  185.1890  177.9770  142.5730 C   0  0  0  0  0  0  0  0  0  0  0  0
  189.7430  174.0030  142.6800 S   0  0  0  0  0  0  0  0  0  0  0  0
  184.7160  178.4130  143.7440 C   0  0  0  0  0  3  0  0  0  0  0  0
  186.7750  176.4390  141.4650 C   0  0  0  0  0  3  0  0  0  0  0  0
  187.3010  177.1210  143.7840 C   0  0  2  0  0  3  0  0  0  0  0  0
  186.4100  177.1430  142.5510 C   0  0  0  0  0  0  0  0  0  0  0  0
  188.4600  174.8090  140.4550 N   0  0  0  0  0  2  0  0  0  0  0  0
  186.8010  178.1200  147.5110 C   0  0  0  0  0  2  0  0  0  0  0  0
  187.2050  177.1710  146.3930 C   0  0  0  0  0  0  0  0  0  0  0  0
  186.2510  176.7010  147.4770 C   0  0  0  0  0  2  0  0  0  0  0  0
  188.6280  176.5850  146.4210 C   0  0  2  0  0  3  0  0  0  0  0  0
  188.6470  175.2560  147.1600 C   0  0  0  0  0  1  0  0  0  0  0  0
  190.7480  176.7380  147.6200 N   0  0  0  0  0  1  0  0  0  0  0  0
  189.6860  177.5180  147.0050 C   0  0  0  0  0  2  0  0  0  0  0  0
  183.8750  178.5260  140.3990 N   0  0  0  0  0  0  0  0  0  0  0  0
  184.4610  178.2800  141.3680 C   0  0  0  0  0  0  0  0  0  0  0  0
  189.5620  172.6110  140.2730 C   0  0  0  0  0  2  0  0  0  0  0  0
  191.3700  172.2080  137.1060 O   0  0  0  0  0  0  0  0  0  0  0  0
  190.4230  172.4720  137.8970 C   0  0  0  0  0  0  0  0  0  0  0  0
  190.6330  172.3780  139.3100 N   0  0  0  0  0  2  0  0  0  0  0  0
  189.0930  172.8670  137.3440 C   0  0  0  0  0  1  0  0  0  0  0  0
  1 23  1  1  0  0  0
  1  8  1  0  0  0  0
  2  6  2  0  0  0  0
  4  3  1  0  0  0  0
  5  4  2  0  0  0  0
  6 15  1  0  0  0  0
  7  9  2  0  0  0  0
  8  4  1  0  0  0  0
  9  2  1  0  0  0  0
 10  5  1  0  0  0  0
 10 12  2  0  0  0  0
 11 12  1  6  0  0  0
 11  3  1  0  0  0  0
 11  6  1  0  0  0  0
 12  7  1  0  0  0  0
 13  1  1  0  0  0  0
 13  5  1  0  0  0  0
 15 17  1  0  0  0  0
 15 16  1  0  0  0  0
 15 14  1  0  0  0  0
 16 14  1  0  0  0  0
 17 20  1  0  0  0  0
 17 18  1  1  0  0  0
 20 19  1  0  0  0  0
 21 22  3  0  0  0  0
 22  7  1  0  0  0  0
 24 25  2  0  0  0  0
 25 26  1  0  0  0  0
 26 23  1  0  0  0  0
 27 25  1  0  0  0  0
M  END
>  <MODEL>
3

>  <REMARK>
 VINA RESULT:      -6.3      2.872      6.954
  Name = 
  6 active torsions:
  status: ('A' for Active; 'I' for Inactive)
    1  A    between atoms: C_1  and  C_22
    2  A    between atoms: C_5  and  C_9
    3  A    between atoms: C_5  and  C_20
    4  A    between atoms: C_9  and  C_15
    5  A    between atoms: N_10  and  C_22
    6  A    between atoms: C_14  and  C_16
                            x       y       z     vdW  Elec       q    Type
                         _______ _______ _______ _____ _____    ______ ____

>  <TORSDO>
F 6

$$$$
=
 OpenBabel11042414203D

 27 30  0  0  1  0  0  0  0  0999 V2000
  189.5690  173.2420  141.2260 C   0  0  2  0  0  3  0  0  0  0  0  0
  188.6590  177.8910  146.6610 C   0  0  0  0  0  3  0  0  0  0  0  0
  188.0470  175.7870  143.7680 O   0  0  0  0  0  0  0  0  0  0  0  0
  188.7300  174.9200  142.9090 C   0  0  0  0  0  0  0  0  0  0  0  0
  189.9670  174.5500  143.1680 C   0  0  0  0  0  0  0  0  0  0  0  0
  187.9380  177.2000  145.7650 C   0  0  0  0  0  0  0  0  0  0  0  0
  190.7130  176.5890  146.3040 C   0  0  0  0  0  0  0  0  0  0  0  0
  188.0540  174.2720  141.3940 S   0  0  0  0  0  0  0  0  0  0  0  0
  190.0580  177.5400  146.9750 C   0  0  0  0  0  3  0  0  0  0  0  0
  190.6970  175.1290  144.3100 C   0  0  0  0  0  3  0  0  0  0  0  0
  188.5110  175.9610  145.1150 C   0  0  2  0  0  3  0  0  0  0  0  0
  190.0270  175.8770  145.2040 C   0  0  0  0  0  0  0  0  0  0  0  0
  190.5470  173.6760  142.2160 N   0  0  0  0  0  2  0  0  0  0  0  0
  185.4660  176.6660  146.0730 C   0  0  0  0  0  2  0  0  0  0  0  0
  186.5150  177.6020  145.4940 C   0  0  0  0  0  0  0  0  0  0  0  0
  185.7210  178.0200  146.7190 C   0  0  0  0  0  2  0  0  0  0  0  0
  186.1890  178.3290  144.1770 C   0  0  2  0  0  3  0  0  0  0  0  0
  185.5820  179.6950  144.4520 C   0  0  0  0  0  1  0  0  0  0  0  0
  184.0690  178.2920  142.9700 N   0  0  0  0  0  1  0  0  0  0  0  0
  185.2880  177.5430  143.2270 C   0  0  0  0  0  2  0  0  0  0  0  0
  193.2010  176.1160  146.8880 N   0  0  0  0  0  0  0  0  0  0  0  0
  192.0910  176.3260  146.6290 C   0  0  0  0  0  0  0  0  0  0  0  0
  190.1370  173.3130  139.8120 C   0  0  0  0  0  2  0  0  0  0  0  0
  188.5630  174.5450  136.7350 O   0  0  0  0  0  0  0  0  0  0  0  0
  189.4600  174.1020  137.5040 C   0  0  0  0  0  0  0  0  0  0  0  0
  189.1330  173.7720  138.8580 N   0  0  0  0  0  2  0  0  0  0  0  0
  190.8530  173.9400  136.9910 C   0  0  0  0  0  1  0  0  0  0  0  0
  1 23  1  6  0  0  0
  1  8  1  0  0  0  0
  1 13  1  0  0  0  0
  2  9  1  0  0  0  0
  4  5  2  0  0  0  0
  4  3  1  0  0  0  0
  5 10  1  0  0  0  0
  6  2  2  0  0  0  0
  7 22  1  0  0  0  0
  7  9  2  0  0  0  0
  8  4  1  0  0  0  0
 10 12  2  0  0  0  0
 11  3  1  6  0  0  0
 11 12  1  0  0  0  0
 11  6  1  0  0  0  0
 12  7  1  0  0  0  0
 13  5  1  0  0  0  0
 14 16  1  0  0  0  0
 15  6  1  0  0  0  0
 15 14  1  0  0  0  0
 15 16  1  0  0  0  0
 17 18  1  1  0  0  0
 17 15  1  0  0  0  0
 19 20  1  0  0  0  0
 20 17  1  0  0  0  0
 22 21  3  0  0  0  0
 24 25  2  0  0  0  0
 25 26  1  0  0  0  0
 26 23  1  0  0  0  0
 27 25  1  0  0  0  0
M  END
>  <MODEL>
4

>  <REMARK>
 VINA RESULT:      -6.2      2.997      6.688
  Name = 
  6 active torsions:
  status: ('A' for Active; 'I' for Inactive)
    1  A    between atoms: C_1  and  C_22
    2  A    between atoms: C_5  and  C_9
    3  A    between atoms: C_5  and  C_20
    4  A    between atoms: C_9  and  C_15
    5  A    between atoms: N_10  and  C_22
    6  A    between atoms: C_14  and  C_16
                            x       y       z     vdW  Elec       q    Type
                         _______ _______ _______ _____ _____    ______ ____

>  <TORSDO>
F 6

$$$$
=
 OpenBabel11042414203D

 27 30  0  0  1  0  0  0  0  0999 V2000
  189.3720  173.7910  139.6730 C   0  0  2  0  0  3  0  0  0  0  0  0
  187.3390  176.6670  145.9650 C   0  0  0  0  0  3  0  0  0  0  0  0
  189.1970  174.8560  143.4280 O   0  0  0  0  0  0  0  0  0  0  0  0
  189.1130  174.5190  142.0730 C   0  0  0  0  0  0  0  0  0  0  0  0
  188.1850  175.0480  141.3030 C   0  0  0  0  0  0  0  0  0  0  0  0
  188.3960  176.0610  145.4020 C   0  0  0  0  0  0  0  0  0  0  0  0
  186.2140  177.1210  143.8260 C   0  0  0  0  0  0  0  0  0  0  0  0
  190.1780  173.3420  141.2650 S   0  0  0  0  0  0  0  0  0  0  0  0
  186.2550  177.2570  145.1550 C   0  0  0  0  0  3  0  0  0  0  0  0
  187.1480  175.9240  141.8760 C   0  0  0  0  0  3  0  0  0  0  0  0
  188.5630  176.0540  143.9000 C   0  0  2  0  0  3  0  0  0  0  0  0
  187.2740  176.3440  143.1470 C   0  0  0  0  0  0  0  0  0  0  0  0
  188.2040  174.6170  139.9530 N   0  0  0  0  0  2  0  0  0  0  0  0
  188.9750  174.5390  147.3620 C   0  0  0  0  0  2  0  0  0  0  0  0
  189.4720  175.4870  146.2820 C   0  0  0  0  0  0  0  0  0  0  0  0
  189.6920  173.9920  146.1370 C   0  0  0  0  0  2  0  0  0  0  0  0
  190.7140  176.3440  146.5870 C   0  0  2  0  0  3  0  0  0  0  0  0
  191.9180  175.4610  146.8740 C   0  0  0  0  0  1  0  0  0  0  0  0
  191.5660  177.1670  148.7200 N   0  0  0  0  0  1  0  0  0  0  0  0
  190.5270  177.3490  147.7200 C   0  0  0  0  0  2  0  0  0  0  0  0
  184.2120  178.1320  142.5160 N   0  0  0  0  0  0  0  0  0  0  0  0
  185.1050  177.6810  143.0990 C   0  0  0  0  0  0  0  0  0  0  0  0
  188.9980  172.5510  138.8690 C   0  0  0  0  0  2  0  0  0  0  0  0
  190.9380  169.4440  138.6580 O   0  0  0  0  0  0  0  0  0  0  0  0
  190.2670  170.4420  138.2770 C   0  0  0  0  0  0  0  0  0  0  0  0
  189.8270  171.4080  139.2380 N   0  0  0  0  0  2  0  0  0  0  0  0
  189.9340  170.5940  136.8300 C   0  0  0  0  0  1  0  0  0  0  0  0
  1 23  1  1  0  0  0
  1 13  1  0  0  0  0
  1  8  1  0  0  0  0
  3 11  1  0  0  0  0
  4  3  1  0  0  0  0
  5 10  1  0  0  0  0
  5  4  2  0  0  0  0
  6  2  2  0  0  0  0
  6 15  1  0  0  0  0
  7  9  2  0  0  0  0
  8  4  1  0  0  0  0
  9  2  1  0  0  0  0
 10 12  2  0  0  0  0
 11 12  1  6  0  0  0
 11  6  1  0  0  0  0
 12  7  1  0  0  0  0
 13  5  1  0  0  0  0
 15 17  1  0  0  0  0
 15 14  1  0  0  0  0
 16 15  1  0  0  0  0
 16 14  1  0  0  0  0
 17 18  1  1  0  0  0
 17 20  1  0  0  0  0
 20 19  1  0  0  0  0
 21 22  3  0  0  0  0
 22  7  1  0  0  0  0
 23 26  1  0  0  0  0
 25 24  2  0  0  0  0
 25 26  1  0  0  0  0
 27 25  1  0  0  0  0
M  END
>  <MODEL>
5

>  <REMARK>
 VINA RESULT:      -6.2      3.318      6.936
  Name = 
  6 active torsions:
  status: ('A' for Active; 'I' for Inactive)
    1  A    between atoms: C_1  and  C_22
    2  A    between atoms: C_5  and  C_9
    3  A    between atoms: C_5  and  C_20
    4  A    between atoms: C_9  and  C_15
    5  A    between atoms: N_10  and  C_22
    6  A    between atoms: C_14  and  C_16
                            x       y       z     vdW  Elec       q    Type
                         _______ _______ _______ _____ _____    ______ ____

>  <TORSDO>
F 6

$$$$
=
 OpenBabel11042414203D

 27 30  0  0  1  0  0  0  0  0999 V2000
  189.4480  173.7830  139.4190 C   0  0  2  0  0  3  0  0  0  0  0  0
  187.1430  177.4290  145.1970 C   0  0  0  0  0  3  0  0  0  0  0  0
  189.1420  175.3700  142.9760 O   0  0  0  0  0  0  0  0  0  0  0  0
  189.1030  174.8350  141.6840 C   0  0  0  0  0  0  0  0  0  0  0  0
  188.1670  175.1980  140.8320 C   0  0  0  0  0  0  0  0  0  0  0  0
  188.2410  176.8040  144.7430 C   0  0  0  0  0  0  0  0  0  0  0  0
  186.0430  177.5080  143.0000 C   0  0  0  0  0  0  0  0  0  0  0  0
  190.2420  173.6120  141.0700 S   0  0  0  0  0  0  0  0  0  0  0  0
  186.0480  177.8380  144.2950 C   0  0  0  0  0  3  0  0  0  0  0  0
  187.0750  176.0920  141.2570 C   0  0  0  0  0  3  0  0  0  0  0  0
  188.4400  176.5880  143.2600 C   0  0  2  0  0  3  0  0  0  0  0  0
  187.1530  176.6980  142.4560 C   0  0  0  0  0  0  0  0  0  0  0  0
  188.2350  174.5780  139.5600 N   0  0  0  0  0  2  0  0  0  0  0  0
  190.5540  177.3150  145.6830 C   0  0  0  0  0  2  0  0  0  0  0  0
  189.3250  176.4200  145.7110 C   0  0  0  0  0  0  0  0  0  0  0  0
  189.5650  177.4130  146.8350 C   0  0  0  0  0  2  0  0  0  0  0  0
  189.5220  174.9310  146.0490 C   0  0  2  0  0  3  0  0  0  0  0  0
  189.0600  174.6350  147.4660 C   0  0  0  0  0  1  0  0  0  0  0  0
  190.9550  173.3360  144.8840 N   0  0  0  0  0  1  0  0  0  0  0  0
  190.9480  174.4210  145.8520 C   0  0  0  0  0  2  0  0  0  0  0  0
  184.0200  178.2130  141.5290 N   0  0  0  0  0  0  0  0  0  0  0  0
  184.9220  177.8990  142.1840 C   0  0  0  0  0  0  0  0  0  0  0  0
  189.1530  172.4210  138.7990 C   0  0  0  0  0  2  0  0  0  0  0  0
  190.8760  169.2350  139.3850 O   0  0  0  0  0  0  0  0  0  0  0  0
  190.2410  170.1350  138.7710 C   0  0  0  0  0  0  0  0  0  0  0  0
  189.9360  171.3660  139.4350 N   0  0  0  0  0  2  0  0  0  0  0  0
  189.8060  169.8970  137.3620 C   0  0  0  0  0  1  0  0  0  0  0  0
  1 23  1  1  0  0  0
  1 13  1  0  0  0  0
  1  8  1  0  0  0  0
  3 11  1  0  0  0  0
  4  3  1  0  0  0  0
  5 10  1  0  0  0  0
  5  4  2  0  0  0  0
  6  2  2  0  0  0  0
  6 15  1  0  0  0  0
  7  9  2  0  0  0  0
  8  4  1  0  0  0  0
  9  2  1  0  0  0  0
 10 12  2  0  0  0  0
 11 12  1  6  0  0  0
 11  6  1  0  0  0  0
 12  7  1  0  0  0  0
 13  5  1  0  0  0  0
 14 15  1  0  0  0  0
 14 16  1  0  0  0  0
 15 17  1  0  0  0  0
 15 16  1  0  0  0  0
 17 18  1  1  0  0  0
 19 20  1  0  0  0  0
 20 17  1  0  0  0  0
 21 22  3  0  0  0  0
 22  7  1  0  0  0  0
 23 26  1  0  0  0  0
 25 24  2  0  0  0  0
 25 26  1  0  0  0  0
 27 25  1  0  0  0  0
M  END
>  <MODEL>
6

>  <REMARK>
 VINA RESULT:      -6.1      3.270      6.766
  Name = 
  6 active torsions:
  status: ('A' for Active; 'I' for Inactive)
    1  A    between atoms: C_1  and  C_22
    2  A    between atoms: C_5  and  C_9
    3  A    between atoms: C_5  and  C_20
    4  A    between atoms: C_9  and  C_15
    5  A    between atoms: N_10  and  C_22
    6  A    between atoms: C_14  and  C_16
                            x       y       z     vdW  Elec       q    Type
                         _______ _______ _______ _____ _____    ______ ____

>  <TORSDO>
F 6

$$$$
=
 OpenBabel11042414203D

 27 30  0  0  1  0  0  0  0  0999 V2000
  191.7300  176.5460  143.9150 C   0  0  2  0  0  3  0  0  0  0  0  0
  184.7830  178.1060  142.7810 C   0  0  0  0  0  3  0  0  0  0  0  0
  188.0150  177.6630  144.3710 O   0  0  0  0  0  0  0  0  0  0  0  0
  189.3010  177.1990  144.0750 C   0  0  0  0  0  0  0  0  0  0  0  0
  189.6440  176.9060  142.8380 C   0  0  0  0  0  0  0  0  0  0  0  0
  185.7380  178.2730  143.7080 C   0  0  0  0  0  0  0  0  0  0  0  0
  186.3510  177.4710  140.9980 C   0  0  0  0  0  0  0  0  0  0  0  0
  190.5680  176.9150  145.2930 S   0  0  0  0  0  0  0  0  0  0  0  0
  185.1040  177.7520  141.3840 C   0  0  0  0  0  3  0  0  0  0  0  0
  188.6470  176.9550  141.7540 C   0  0  0  0  0  3  0  0  0  0  0  0
  187.1980  178.2040  143.3230 C   0  0  2  0  0  3  0  0  0  0  0  0
  187.4410  177.4980  141.9980 C   0  0  0  0  0  0  0  0  0  0  0  0
  190.9720  176.4400  142.6750 N   0  0  0  0  0  2  0  0  0  0  0  0
  185.1160  180.1260  145.3430 C   0  0  0  0  0  2  0  0  0  0  0  0
  185.3470  178.6410  145.1130 C   0  0  0  0  0  0  0  0  0  0  0  0
  183.9330  179.1710  145.2690 C   0  0  0  0  0  2  0  0  0  0  0  0
  185.9070  177.8060  146.2790 C   0  0  2  0  0  3  0  0  0  0  0  0
  185.3110  176.4080  146.2740 C   0  0  0  0  0  1  0  0  0  0  0  0
  187.0180  178.8430  148.1880 N   0  0  0  0  0  1  0  0  0  0  0  0
  185.7260  178.4420  147.6560 C   0  0  0  0  0  2  0  0  0  0  0  0
  186.7850  176.7790  138.5310 N   0  0  0  0  0  0  0  0  0  0  0  0
  186.5910  177.0890  139.6310 C   0  0  0  0  0  0  0  0  0  0  0  0
  192.5340  175.2790  144.1870 C   0  0  0  0  0  2  0  0  0  0  0  0
  196.1240  176.0300  144.2760 O   0  0  0  0  0  0  0  0  0  0  0  0
  194.9460  175.8590  144.6920 C   0  0  0  0  0  0  0  0  0  0  0  0
  193.9270  175.4360  143.7800 N   0  0  0  0  0  2  0  0  0  0  0  0
  194.6310  176.1120  146.1300 C   0  0  0  0  0  1  0  0  0  0  0  0
  1 23  1  1  0  0  0
  1  8  1  0  0  0  0
  2  6  2  0  0  0  0
  4  3  1  0  0  0  0
  4  8  1  0  0  0  0
  5  4  2  0  0  0  0
  6 15  1  0  0  0  0
  7  9  2  0  0  0  0
  7 12  1  0  0  0  0
  9  2  1  0  0  0  0
 10 12  2  0  0  0  0
 10  5  1  0  0  0  0
 11 12  1  6  0  0  0
 11  6  1  0  0  0  0
 11  3  1  0  0  0  0
 13  5  1  0  0  0  0
 13  1  1  0  0  0  0
 15 16  1  0  0  0  0
 15 14  1  0  0  0  0
 15 17  1  0  0  0  0
 16 14  1  0  0  0  0
 17 18  1  1  0  0  0
 17 20  1  0  0  0  0
 20 19  1  0  0  0  0
 21 22  3  0  0  0  0
 22  7  1  0  0  0  0
 24 25  2  0  0  0  0
 25 27  1  0  0  0  0
 26 23  1  0  0  0  0
 26 25  1  0  0  0  0
M  END
>  <MODEL>
7

>  <REMARK>
 VINA RESULT:      -6.0      3.479      8.478
  Name = 
  6 active torsions:
  status: ('A' for Active; 'I' for Inactive)
    1  A    between atoms: C_1  and  C_22
    2  A    between atoms: C_5  and  C_9
    3  A    between atoms: C_5  and  C_20
    4  A    between atoms: C_9  and  C_15
    5  A    between atoms: N_10  and  C_22
    6  A    between atoms: C_14  and  C_16
                            x       y       z     vdW  Elec       q    Type
                         _______ _______ _______ _____ _____    ______ ____

>  <TORSDO>
F 6

$$$$
=
 OpenBabel11042414203D

 27 30  0  0  1  0  0  0  0  0999 V2000
  186.5770  178.2180  143.7000 C   0  0  2  0  0  3  0  0  0  0  0  0
  192.2900  174.2280  145.5530 C   0  0  0  0  0  3  0  0  0  0  0  0
  189.4770  175.6010  143.7160 O   0  0  0  0  0  0  0  0  0  0  0  0
  188.4640  176.5550  143.8610 C   0  0  0  0  0  0  0  0  0  0  0  0
  188.4630  177.3870  144.8810 C   0  0  0  0  0  0  0  0  0  0  0  0
  191.5190  174.4920  144.4870 C   0  0  0  0  0  0  0  0  0  0  0  0
  191.4850  176.1530  146.8540 C   0  0  0  0  0  0  0  0  0  0  0  0
  187.0810  176.7240  142.7520 S   0  0  0  0  0  0  0  0  0  0  0  0
  192.3120  175.1100  146.7370 C   0  0  0  0  0  3  0  0  0  0  0  0
  189.4680  177.2600  145.9510 C   0  0  0  0  0  3  0  0  0  0  0  0
  190.7160  175.7700  144.4200 C   0  0  2  0  0  3  0  0  0  0  0  0
  190.5070  176.4240  145.7780 C   0  0  0  0  0  0  0  0  0  0  0  0
  187.3790  178.2980  144.9150 N   0  0  0  0  0  2  0  0  0  0  0  0
  192.1170  174.1570  142.0320 C   0  0  0  0  0  2  0  0  0  0  0  0
  191.5470  173.5580  143.3080 C   0  0  0  0  0  0  0  0  0  0  0  0
  192.9330  173.1570  142.8380 C   0  0  0  0  0  2  0  0  0  0  0  0
  190.4370  172.4990  143.1770 C   0  0  2  0  0  3  0  0  0  0  0  0
  189.7430  172.2800  144.5110 C   0  0  0  0  0  1  0  0  0  0  0  0
  190.4490  171.0200  141.2370 N   0  0  0  0  0  1  0  0  0  0  0  0
  190.9040  171.1610  142.6100 C   0  0  0  0  0  2  0  0  0  0  0  0
  191.5610  177.5850  149.0210 N   0  0  0  0  0  0  0  0  0  0  0  0
  191.5260  176.9470  148.0550 C   0  0  0  0  0  0  0  0  0  0  0  0
  185.0860  178.2010  144.0160 C   0  0  0  0  0  2  0  0  0  0  0  0
  184.4320  178.6590  147.5980 O   0  0  0  0  0  0  0  0  0  0  0  0
  184.7270  178.0750  146.5190 C   0  0  0  0  0  0  0  0  0  0  0  0
  184.8090  178.8290  145.3050 N   0  0  0  0  0  2  0  0  0  0  0  0
  184.9750  176.6020  146.5260 C   0  0  0  0  0  1  0  0  0  0  0  0
  1 23  1  1  0  0  0
  1 13  1  0  0  0  0
  2  9  1  0  0  0  0
  3  4  1  0  0  0  0
  4  5  2  0  0  0  0
  5 13  1  0  0  0  0
  5 10  1  0  0  0  0
  6  2  2  0  0  0  0
  7 22  1  0  0  0  0
  8  1  1  0  0  0  0
  8  4  1  0  0  0  0
  9  7  2  0  0  0  0
 11  3  1  1  0  0  0
 11  6  1  0  0  0  0
 11 12  1  0  0  0  0
 12 10  2  0  0  0  0
 12  7  1  0  0  0  0
 14 16  1  0  0  0  0
 14 15  1  0  0  0  0
 15  6  1  0  0  0  0
 16 15  1  0  0  0  0
 17 15  1  0  0  0  0
 17 18  1  1  0  0  0
 19 20  1  0  0  0  0
 20 17  1  0  0  0  0
 22 21  3  0  0  0  0
 23 26  1  0  0  0  0
 25 27  1  0  0  0  0
 25 24  2  0  0  0  0
 26 25  1  0  0  0  0
M  END
>  <MODEL>
8

>  <REMARK>
 VINA RESULT:      -5.9      3.046      4.184
  Name = 
  6 active torsions:
  status: ('A' for Active; 'I' for Inactive)
    1  A    between atoms: C_1  and  C_22
    2  A    between atoms: C_5  and  C_9
    3  A    between atoms: C_5  and  C_20
    4  A    between atoms: C_9  and  C_15
    5  A    between atoms: N_10  and  C_22
    6  A    between atoms: C_14  and  C_16
                            x       y       z     vdW  Elec       q    Type
                         _______ _______ _______ _____ _____    ______ ____

>  <TORSDO>
F 6

$$$$
=
 OpenBabel11042414203D

 27 30  0  0  1  0  0  0  0  0999 V2000
  180.0070  178.3180  140.7230 C   0  0  2  0  0  3  0  0  0  0  0  0
  186.9740  178.3220  142.5790 C   0  0  0  0  0  3  0  0  0  0  0  0
  183.3590  178.6150  142.7060 O   0  0  0  0  0  0  0  0  0  0  0  0
  182.2440  178.5070  141.8680 C   0  0  0  0  0  0  0  0  0  0  0  0
  182.3650  178.0430  140.6420 C   0  0  0  0  0  0  0  0  0  0  0  0
  185.7580  178.3890  143.1420 C   0  0  0  0  0  0  0  0  0  0  0  0
  186.1380  177.5400  140.4030 C   0  0  0  0  0  0  0  0  0  0  0  0
  180.5970  179.0090  142.3220 S   0  0  0  0  0  0  0  0  0  0  0  0
  187.1700  177.8340  141.1990 C   0  0  0  0  0  3  0  0  0  0  0  0
  183.6940  177.7300  140.0880 C   0  0  0  0  0  3  0  0  0  0  0  0
  184.5450  177.8650  142.4070 C   0  0  2  0  0  3  0  0  0  0  0  0
  184.7600  177.7240  140.9080 C   0  0  0  0  0  0  0  0  0  0  0  0
  181.1620  177.9920  139.8950 N   0  0  0  0  0  2  0  0  0  0  0  0
  185.3820  180.3830  144.6830 C   0  0  0  0  0  2  0  0  0  0  0  0
  185.6250  178.8880  144.5540 C   0  0  0  0  0  0  0  0  0  0  0  0
  184.2460  179.4010  144.9280 C   0  0  0  0  0  2  0  0  0  0  0  0
  186.4280  178.1860  145.6650 C   0  0  2  0  0  3  0  0  0  0  0  0
  186.2470  176.6790  145.5880 C   0  0  0  0  0  1  0  0  0  0  0  0
  186.0250  177.5410  147.9830 N   0  0  0  0  0  1  0  0  0  0  0  0
  186.1140  178.6740  147.0770 C   0  0  0  0  0  2  0  0  0  0  0  0
  186.6040  176.7710  137.9650 N   0  0  0  0  0  0  0  0  0  0  0  0
  186.3960  177.1130  139.0520 C   0  0  0  0  0  0  0  0  0  0  0  0
  179.0670  179.2850  140.0110 C   0  0  0  0  0  2  0  0  0  0  0  0
  179.7780  182.7220  138.9390 O   0  0  0  0  0  0  0  0  0  0  0  0
  179.2200  181.5910  138.9770 C   0  0  0  0  0  0  0  0  0  0  0  0
  179.6310  180.6310  139.9550 N   0  0  0  0  0  2  0  0  0  0  0  0
  178.1460  181.2690  137.9900 C   0  0  0  0  0  1  0  0  0  0  0  0
  1 23  1  6  0  0  0
  1  8  1  0  0  0  0
  2  6  2  0  0  0  0
  4  8  1  0  0  0  0
  4  3  1  0  0  0  0
  5  4  2  0  0  0  0
  6 15  1  0  0  0  0
  7 12  1  0  0  0  0
  7  9  2  0  0  0  0
  9  2  1  0  0  0  0
 10  5  1  0  0  0  0
 10 12  2  0  0  0  0
 11 12  1  6  0  0  0
 11  3  1  0  0  0  0
 11  6  1  0  0  0  0
 13  5  1  0  0  0  0
 13  1  1  0  0  0  0
 14 16  1  0  0  0  0
 15 14  1  0  0  0  0
 15 16  1  0  0  0  0
 15 17  1  0  0  0  0
 17 18  1  1  0  0  0
 17 20  1  0  0  0  0
 20 19  1  0  0  0  0
 21 22  3  0  0  0  0
 22  7  1  0  0  0  0
 24 25  2  0  0  0  0
 25 26  1  0  0  0  0
 26 23  1  0  0  0  0
 27 25  1  0  0  0  0
M  END
>  <MODEL>
9

>  <REMARK>
 VINA RESULT:      -5.9      3.228      5.862
  Name = 
  6 active torsions:
  status: ('A' for Active; 'I' for Inactive)
    1  A    between atoms: C_1  and  C_22
    2  A    between atoms: C_5  and  C_9
    3  A    between atoms: C_5  and  C_20
    4  A    between atoms: C_9  and  C_15
    5  A    between atoms: N_10  and  C_22
    6  A    between atoms: C_14  and  C_16
                            x       y       z     vdW  Elec       q    Type
                         _______ _______ _______ _____ _____    ______ ____

>  <TORSDO>
F 6

$$$$
