=
 OpenBabel11042418263D

 28 29  0  0  1  0  0  0  0  0999 V2000
  192.1190  176.3840  144.6840 C   0  0  2  0  0  3  0  0  0  0  0  0
  193.3830  177.0260  145.2360 C   0  0  0  0  0  1  0  0  0  0  0  0
  191.0730  177.3270  144.4450 O   0  0  0  0  0  0  0  0  0  0  0  0
  189.8630  177.0480  143.7980 C   0  0  0  0  0  0  0  0  0  0  0  0
  189.8870  176.4790  142.6740 O   0  0  0  0  0  0  0  0  0  0  0  0
  188.6120  177.4240  144.3780 N   0  0  0  0  0  2  0  0  0  0  0  0
  186.0470  179.2040  143.0370 N   0  0  0  0  0  2  0  0  0  0  0  0
  187.1780  178.3710  142.6200 C   0  0  1  0  0  3  0  0  0  0  0  0
  185.5360  178.6520  144.2290 C   0  0  0  0  0  0  0  0  0  0  0  0
  184.4500  179.1210  144.9630 C   0  0  0  0  0  3  0  0  0  0  0  0
  184.8300  177.2740  146.5000 C   0  0  0  0  0  3  0  0  0  0  0  0
  184.0940  178.4150  146.1250 C   0  0  0  0  0  3  0  0  0  0  0  0
  185.8870  176.8560  145.7410 N   0  0  0  0  0  0  0  0  0  0  0  0
  187.3400  177.2570  143.6870 C   0  0  2  0  0  3  0  0  0  0  0  0
  186.8830  177.7490  141.2690 C   0  0  0  0  0  1  0  0  0  0  0  0
  186.2270  177.5490  144.6240 C   0  0  0  0  0  0  0  0  0  0  0  0
  191.6320  175.1380  145.4430 C   0  0  1  0  0  3  0  0  0  0  0  0
  189.6120  173.5570  144.1560 O   0  0  0  0  0  0  0  0  0  0  0  0
  191.1350  172.0330  143.2580 N   0  0  0  0  0  2  0  0  0  0  0  0
  190.8120  173.1830  144.0400 C   0  0  0  0  0  0  0  0  0  0  0  0
  191.8600  173.9030  144.6900 N   0  0  0  0  0  2  0  0  0  0  0  0
  190.1240  171.2920  142.5190 C   0  0  0  0  0  2  0  0  0  0  0  0
  189.0660  172.8330  140.8560 O   0  0  0  0  0  1  0  0  0  0  0  0
  190.6680  171.3320  140.2040 O   0  0  0  0  0  0  0  0  0  0  0  0
  189.9940  171.8340  141.1370 C   0  0  0  0  0  0  0  0  0  0  0  0
  192.0710  175.0550  146.7870 O   0  0  0  0  0  0  0  0  0  0  0  0
  189.7230  174.9970  147.1990 C   0  0  0  0  0  1  0  0  0  0  0  0
  191.0670  175.5370  147.6430 C   0  0  0  0  0  2  0  0  0  0  0  0
  1  2  1  1  0  0  0
  1 17  1  0  0  0  0
  3  1  1  0  0  0  0
  4  6  1  0  0  0  0
  4  3  1  0  0  0  0
  5  4  2  0  0  0  0
  7  9  1  0  0  0  0
  8 15  1  6  0  0  0
  8  7  1  0  0  0  0
  8 14  1  0  0  0  0
  9 16  2  0  0  0  0
  9 10  1  0  0  0  0
 10 12  2  0  0  0  0
 12 11  1  0  0  0  0
 13 11  2  0  0  0  0
 14  6  1  1  0  0  0
 14 16  1  0  0  0  0
 16 13  1  0  0  0  0
 17 21  1  6  0  0  0
 17 26  1  0  0  0  0
 19 20  1  0  0  0  0
 20 18  2  0  0  0  0
 20 21  1  0  0  0  0
 22 19  1  0  0  0  0
 23 25  1  0  0  0  0
 24 25  2  0  0  0  0
 25 22  1  0  0  0  0
 26 28  1  0  0  0  0
 27 28  1  0  0  0  0
M  END
>  <MODEL>
1

>  <REMARK>
 VINA RESULT:      -6.0      0.000      0.000
  Name = 
  9 active torsions:
  status: ('A' for Active; 'I' for Inactive)
    1  A    between atoms: C_1  and  O_6
    2  A    between atoms: C_1  and  C_12
    3  A    between atoms: C_2  and  O_6
    4  A    between atoms: N_7  and  C_28
    5  A    between atoms: N_8  and  C_22
    6  A    between atoms: C_12  and  N_19
    7  A    between atoms: C_12  and  O_24
    8  A    between atoms: C_14  and  C_28
    9  A    between atoms: C_23  and  O_24
                            x       y       z     vdW  Elec       q    Type
                         _______ _______ _______ _____ _____    ______ ____

>  <TORSDO>
F 9

$$$$
=
 OpenBabel11042418263D

 28 29  0  0  1  0  0  0  0  0999 V2000
  191.7230  176.0060  143.6730 C   0  0  2  0  0  3  0  0  0  0  0  0
  192.9150  176.3520  142.7920 C   0  0  0  0  0  1  0  0  0  0  0  0
  190.6800  176.9790  143.6090 O   0  0  0  0  0  0  0  0  0  0  0  0
  189.3380  176.7100  143.3140 C   0  0  0  0  0  0  0  0  0  0  0  0
  189.0480  175.6570  142.6870 O   0  0  0  0  0  0  0  0  0  0  0  0
  188.3030  177.6240  143.6860 N   0  0  0  0  0  2  0  0  0  0  0  0
  185.4090  179.3430  143.2250 N   0  0  0  0  0  2  0  0  0  0  0  0
  186.4420  178.6520  142.4510 C   0  0  1  0  0  3  0  0  0  0  0  0
  185.2280  178.6220  144.4230 C   0  0  0  0  0  0  0  0  0  0  0  0
  184.3320  178.9200  145.4460 C   0  0  0  0  0  3  0  0  0  0  0  0
  185.1610  176.9460  146.6000 C   0  0  0  0  0  3  0  0  0  0  0  0
  184.3030  178.0630  146.5580 C   0  0  0  0  0  3  0  0  0  0  0  0
  186.0210  176.6990  145.5670 N   0  0  0  0  0  0  0  0  0  0  0  0
  186.9110  177.4400  143.2980 C   0  0  2  0  0  3  0  0  0  0  0  0
  185.8580  178.1650  141.1390 C   0  0  0  0  0  1  0  0  0  0  0  0
  186.0460  177.5370  144.5000 C   0  0  0  0  0  0  0  0  0  0  0  0
  192.0710  175.6030  145.1160 C   0  0  1  0  0  3  0  0  0  0  0  0
  193.8540  173.4480  145.7630 O   0  0  0  0  0  0  0  0  0  0  0  0
  195.7440  174.8140  145.8620 N   0  0  0  0  0  2  0  0  0  0  0  0
  194.3420  174.6080  145.6780 C   0  0  0  0  0  0  0  0  0  0  0  0
  193.5020  175.7290  145.4000 N   0  0  0  0  0  2  0  0  0  0  0  0
  196.6640  173.7100  146.0860 C   0  0  0  0  0  2  0  0  0  0  0  0
  197.9410  174.5880  144.1220 O   0  0  0  0  0  0  0  0  0  0  0  0
  197.8000  172.3360  144.5110 O   0  0  0  0  0  1  0  0  0  0  0  0
  197.5220  173.5020  144.8840 C   0  0  0  0  0  0  0  0  0  0  0  0
  191.2560  176.1970  146.1090 O   0  0  0  0  0  0  0  0  0  0  0  0
  189.5510  174.5520  146.3760 C   0  0  0  0  0  1  0  0  0  0  0  0
  190.7750  175.2070  146.9820 C   0  0  0  0  0  2  0  0  0  0  0  0
  1  2  1  1  0  0  0
  1 17  1  0  0  0  0
  3  1  1  0  0  0  0
  4  3  1  0  0  0  0
  4  6  1  0  0  0  0
  5  4  2  0  0  0  0
  7  9  1  0  0  0  0
  8 15  1  6  0  0  0
  8  7  1  0  0  0  0
  8 14  1  0  0  0  0
  9 16  2  0  0  0  0
  9 10  1  0  0  0  0
 10 12  2  0  0  0  0
 12 11  1  0  0  0  0
 13 11  2  0  0  0  0
 14  6  1  1  0  0  0
 14 16  1  0  0  0  0
 16 13  1  0  0  0  0
 17 21  1  1  0  0  0
 17 26  1  0  0  0  0
 19 22  1  0  0  0  0
 20 18  2  0  0  0  0
 20 19  1  0  0  0  0
 21 20  1  0  0  0  0
 23 25  2  0  0  0  0
 24 25  1  0  0  0  0
 25 22  1  0  0  0  0
 26 28  1  0  0  0  0
 27 28  1  0  0  0  0
M  END
>  <MODEL>
2

>  <REMARK>
 VINA RESULT:      -6.0      2.635      3.769
  Name = 
  9 active torsions:
  status: ('A' for Active; 'I' for Inactive)
    1  A    between atoms: C_1  and  O_6
    2  A    between atoms: C_1  and  C_12
    3  A    between atoms: C_2  and  O_6
    4  A    between atoms: N_7  and  C_28
    5  A    between atoms: N_8  and  C_22
    6  A    between atoms: C_12  and  N_19
    7  A    between atoms: C_12  and  O_24
    8  A    between atoms: C_14  and  C_28
    9  A    between atoms: C_23  and  O_24
                            x       y       z     vdW  Elec       q    Type
                         _______ _______ _______ _____ _____    ______ ____

>  <TORSDO>
F 9

$$$$
=
 OpenBabel11042418263D

 28 29  0  0  1  0  0  0  0  0999 V2000
  190.0650  174.0850  145.4550 C   0  0  2  0  0  3  0  0  0  0  0  0
  189.6910  172.6700  145.0370 C   0  0  0  0  0  1  0  0  0  0  0  0
  189.1680  174.6380  146.4190 O   0  0  0  0  0  0  0  0  0  0  0  0
  188.8620  175.9970  146.5560 C   0  0  0  0  0  0  0  0  0  0  0  0
  189.7080  176.7640  147.0890 O   0  0  0  0  0  0  0  0  0  0  0  0
  187.6010  176.5170  146.1290 N   0  0  0  0  0  2  0  0  0  0  0  0
  185.0720  178.3840  147.4210 N   0  0  0  0  0  2  0  0  0  0  0  0
  186.4570  178.0060  147.7160 C   0  0  1  0  0  3  0  0  0  0  0  0
  184.9650  178.5250  146.0220 C   0  0  0  0  0  0  0  0  0  0  0  0
  183.8250  178.8880  145.3090 C   0  0  0  0  0  3  0  0  0  0  0  0
  185.1690  178.7180  143.2880 C   0  0  0  0  0  3  0  0  0  0  0  0
  183.9340  178.9830  143.9110 C   0  0  0  0  0  3  0  0  0  0  0  0
  186.2570  178.3680  144.0370 N   0  0  0  0  0  0  0  0  0  0  0  0
  187.1990  177.8990  146.3580 C   0  0  2  0  0  3  0  0  0  0  0  0
  187.1060  179.0760  148.5730 C   0  0  0  0  0  1  0  0  0  0  0  0
  186.1410  178.2730  145.3870 C   0  0  0  0  0  0  0  0  0  0  0  0
  190.3600  175.0530  144.2960 C   0  0  1  0  0  3  0  0  0  0  0  0
  192.4910  176.7680  145.1650 O   0  0  0  0  0  0  0  0  0  0  0  0
  194.1250  175.6500  143.9280 N   0  0  0  0  0  2  0  0  0  0  0  0
  192.7750  175.8440  144.3540 C   0  0  0  0  0  0  0  0  0  0  0  0
  191.7540  174.9820  143.8520 N   0  0  0  0  0  2  0  0  0  0  0  0
  195.2220  176.4510  144.4480 C   0  0  0  0  0  2  0  0  0  0  0  0
  196.9840  176.8860  142.7260 O   0  0  0  0  0  0  0  0  0  0  0  0
  197.0850  175.0240  144.0560 O   0  0  0  0  0  1  0  0  0  0  0  0
  196.4940  176.0920  143.7580 C   0  0  0  0  0  0  0  0  0  0  0  0
  189.4350  174.9940  143.2260 O   0  0  0  0  0  0  0  0  0  0  0  0
  189.5090  177.3770  143.1800 C   0  0  0  0  0  1  0  0  0  0  0  0
  189.6220  176.0970  142.3770 C   0  0  0  0  0  2  0  0  0  0  0  0
  1  2  1  6  0  0  0
  1  3  1  0  0  0  0
  3  4  1  0  0  0  0
  4  5  2  0  0  0  0
  6  4  1  0  0  0  0
  7  8  1  0  0  0  0
  8 15  1  1  0  0  0
  9  7  1  0  0  0  0
 10  9  2  0  0  0  0
 11 12  2  0  0  0  0
 11 13  1  0  0  0  0
 12 10  1  0  0  0  0
 13 16  2  0  0  0  0
 14  6  1  6  0  0  0
 14  8  1  0  0  0  0
 16  9  1  0  0  0  0
 16 14  1  0  0  0  0
 17 26  1  6  0  0  0
 17  1  1  0  0  0  0
 19 20  1  0  0  0  0
 19 22  1  0  0  0  0
 20 18  2  0  0  0  0
 21 17  1  0  0  0  0
 21 20  1  0  0  0  0
 23 25  2  0  0  0  0
 25 24  1  0  0  0  0
 25 22  1  0  0  0  0
 28 27  1  0  0  0  0
 28 26  1  0  0  0  0
M  END
>  <MODEL>
3

>  <REMARK>
 VINA RESULT:      -5.9      2.475      4.765
  Name = 
  9 active torsions:
  status: ('A' for Active; 'I' for Inactive)
    1  A    between atoms: C_1  and  O_6
    2  A    between atoms: C_1  and  C_12
    3  A    between atoms: C_2  and  O_6
    4  A    between atoms: N_7  and  C_28
    5  A    between atoms: N_8  and  C_22
    6  A    between atoms: C_12  and  N_19
    7  A    between atoms: C_12  and  O_24
    8  A    between atoms: C_14  and  C_28
    9  A    between atoms: C_23  and  O_24
                            x       y       z     vdW  Elec       q    Type
                         _______ _______ _______ _____ _____    ______ ____

>  <TORSDO>
F 9

$$$$
=
 OpenBabel11042418263D

 28 29  0  0  1  0  0  0  0  0999 V2000
  190.0460  173.7070  144.4920 C   0  0  2  0  0  3  0  0  0  0  0  0
  190.3390  172.2410  144.2060 C   0  0  0  0  0  1  0  0  0  0  0  0
  189.7830  174.4640  143.3100 O   0  0  0  0  0  0  0  0  0  0  0  0
  188.5190  174.8980  142.8910 C   0  0  0  0  0  0  0  0  0  0  0  0
  187.9310  174.2710  141.9700 O   0  0  0  0  0  0  0  0  0  0  0  0
  187.9060  176.0520  143.4690 N   0  0  0  0  0  2  0  0  0  0  0  0
  186.4370  178.9910  142.6010 N   0  0  0  0  0  2  0  0  0  0  0  0
  186.9360  177.7580  141.9870 C   0  0  1  0  0  3  0  0  0  0  0  0
  185.8680  178.6410  143.8430 C   0  0  0  0  0  0  0  0  0  0  0  0
  185.2630  179.5040  144.7520 C   0  0  0  0  0  3  0  0  0  0  0  0
  184.8520  177.5620  146.1570 C   0  0  0  0  0  3  0  0  0  0  0  0
  184.7480  178.9490  145.9350 C   0  0  0  0  0  3  0  0  0  0  0  0
  185.4550  176.7590  145.2290 N   0  0  0  0  0  0  0  0  0  0  0  0
  186.6480  176.6040  142.9830 C   0  0  2  0  0  3  0  0  0  0  0  0
  186.2060  177.5040  140.6820 C   0  0  0  0  0  1  0  0  0  0  0  0
  185.9550  177.3070  144.0920 C   0  0  0  0  0  0  0  0  0  0  0  0
  191.0450  174.4030  145.4320 C   0  0  1  0  0  3  0  0  0  0  0  0
  193.5760  173.7400  144.2520 O   0  0  0  0  0  0  0  0  0  0  0  0
  193.9190  175.8760  143.3740 N   0  0  0  0  0  2  0  0  0  0  0  0
  193.1600  174.9240  144.1220 C   0  0  0  0  0  0  0  0  0  0  0  0
  191.9280  175.3290  144.7200 N   0  0  0  0  0  2  0  0  0  0  0  0
  195.1500  175.5140  142.6880 C   0  0  0  0  0  2  0  0  0  0  0  0
  196.9410  175.0000  144.3580 O   0  0  0  0  0  1  0  0  0  0  0  0
  196.7300  177.1060  143.4820 O   0  0  0  0  0  0  0  0  0  0  0  0
  196.3320  175.9150  143.5040 C   0  0  0  0  0  0  0  0  0  0  0  0
  190.4660  174.9720  146.5920 O   0  0  0  0  0  0  0  0  0  0  0  0
  191.3860  176.6510  148.0130 C   0  0  0  0  0  1  0  0  0  0  0  0
  190.7850  176.3390  146.6580 C   0  0  0  0  0  2  0  0  0  0  0  0
  1  2  1  6  0  0  0
  1 17  1  0  0  0  0
  3  1  1  0  0  0  0
  4  3  1  0  0  0  0
  4  6  1  0  0  0  0
  5  4  2  0  0  0  0
  7  9  1  0  0  0  0
  8 15  1  6  0  0  0
  8  7  1  0  0  0  0
  8 14  1  0  0  0  0
  9 16  2  0  0  0  0
  9 10  1  0  0  0  0
 10 12  2  0  0  0  0
 12 11  1  0  0  0  0
 13 11  2  0  0  0  0
 14  6  1  1  0  0  0
 14 16  1  0  0  0  0
 16 13  1  0  0  0  0
 17 21  1  6  0  0  0
 17 26  1  0  0  0  0
 19 20  1  0  0  0  0
 20 18  2  0  0  0  0
 20 21  1  0  0  0  0
 22 19  1  0  0  0  0
 22 25  1  0  0  0  0
 24 25  2  0  0  0  0
 25 23  1  0  0  0  0
 26 28  1  0  0  0  0
 28 27  1  0  0  0  0
M  END
>  <MODEL>
4

>  <REMARK>
 VINA RESULT:      -5.9      2.275      3.815
  Name = 
  9 active torsions:
  status: ('A' for Active; 'I' for Inactive)
    1  A    between atoms: C_1  and  O_6
    2  A    between atoms: C_1  and  C_12
    3  A    between atoms: C_2  and  O_6
    4  A    between atoms: N_7  and  C_28
    5  A    between atoms: N_8  and  C_22
    6  A    between atoms: C_12  and  N_19
    7  A    between atoms: C_12  and  O_24
    8  A    between atoms: C_14  and  C_28
    9  A    between atoms: C_23  and  O_24
                            x       y       z     vdW  Elec       q    Type
                         _______ _______ _______ _____ _____    ______ ____

>  <TORSDO>
F 9

$$$$
=
 OpenBabel11042418263D

 28 29  0  0  1  0  0  0  0  0999 V2000
  189.0320  174.3990  141.8210 C   0  0  2  0  0  3  0  0  0  0  0  0
  188.2250  173.4630  140.9320 C   0  0  0  0  0  1  0  0  0  0  0  0
  188.7580  175.7780  141.5720 O   0  0  0  0  0  0  0  0  0  0  0  0
  188.6880  176.7790  142.5490 C   0  0  0  0  0  0  0  0  0  0  0  0
  189.2610  177.8810  142.3380 O   0  0  0  0  0  0  0  0  0  0  0  0
  188.0050  176.5580  143.7850 N   0  0  0  0  0  2  0  0  0  0  0  0
  187.0900  176.9280  147.0360 N   0  0  0  0  0  2  0  0  0  0  0  0
  188.2950  176.8060  146.2140 C   0  0  1  0  0  3  0  0  0  0  0  0
  186.1510  177.6760  146.2960 C   0  0  0  0  0  0  0  0  0  0  0  0
  184.8710  178.0410  146.7050 C   0  0  0  0  0  3  0  0  0  0  0  0
  184.6250  179.1660  144.5620 C   0  0  0  0  0  3  0  0  0  0  0  0
  184.0940  178.8000  145.8140 C   0  0  0  0  0  3  0  0  0  0  0  0
  185.8900  178.7820  144.2120 N   0  0  0  0  0  0  0  0  0  0  0  0
  188.0070  177.5280  144.8720 C   0  0  2  0  0  3  0  0  0  0  0  0
  189.4630  177.4730  146.9160 C   0  0  0  0  0  1  0  0  0  0  0  0
  186.6300  178.0430  145.0770 C   0  0  0  0  0  0  0  0  0  0  0  0
  190.5380  174.0960  141.8940 C   0  0  1  0  0  3  0  0  0  0  0  0
  192.2600  176.2320  142.7370 O   0  0  0  0  0  0  0  0  0  0  0  0
  192.3180  175.5370  144.9640 N   0  0  0  0  0  2  0  0  0  0  0  0
  191.9020  175.3900  143.6050 C   0  0  0  0  0  0  0  0  0  0  0  0
  191.0790  174.2810  143.2420 N   0  0  0  0  0  2  0  0  0  0  0  0
  193.1040  176.6750  145.4130 C   0  0  0  0  0  2  0  0  0  0  0  0
  195.4210  176.7060  144.4700 O   0  0  0  0  0  0  0  0  0  0  0  0
  194.9640  175.5740  146.4070 O   0  0  0  0  0  1  0  0  0  0  0  0
  194.5480  176.3110  145.4790 C   0  0  0  0  0  0  0  0  0  0  0  0
  190.9240  172.8670  141.3070 O   0  0  0  0  0  0  0  0  0  0  0  0
  190.6820  170.6040  142.0180 C   0  0  0  0  0  1  0  0  0  0  0  0
  191.2940  171.9580  142.3120 C   0  0  0  0  0  2  0  0  0  0  0  0
  1  2  1  6  0  0  0
  1 17  1  0  0  0  0
  3  1  1  0  0  0  0
  3  4  1  0  0  0  0
  4  6  1  0  0  0  0
  5  4  2  0  0  0  0
  8 15  1  1  0  0  0
  8  7  1  0  0  0  0
  9 10  1  0  0  0  0
  9  7  1  0  0  0  0
 11 12  1  0  0  0  0
 12 10  2  0  0  0  0
 13 11  2  0  0  0  0
 13 16  1  0  0  0  0
 14  6  1  6  0  0  0
 14 16  1  0  0  0  0
 14  8  1  0  0  0  0
 16  9  2  0  0  0  0
 17 26  1  1  0  0  0
 17 21  1  0  0  0  0
 18 20  2  0  0  0  0
 19 22  1  0  0  0  0
 20 19  1  0  0  0  0
 21 20  1  0  0  0  0
 22 25  1  0  0  0  0
 23 25  2  0  0  0  0
 25 24  1  0  0  0  0
 26 28  1  0  0  0  0
 27 28  1  0  0  0  0
M  END
>  <MODEL>
5

>  <REMARK>
 VINA RESULT:      -5.9      1.912      4.768
  Name = 
  9 active torsions:
  status: ('A' for Active; 'I' for Inactive)
    1  A    between atoms: C_1  and  O_6
    2  A    between atoms: C_1  and  C_12
    3  A    between atoms: C_2  and  O_6
    4  A    between atoms: N_7  and  C_28
    5  A    between atoms: N_8  and  C_22
    6  A    between atoms: C_12  and  N_19
    7  A    between atoms: C_12  and  O_24
    8  A    between atoms: C_14  and  C_28
    9  A    between atoms: C_23  and  O_24
                            x       y       z     vdW  Elec       q    Type
                         _______ _______ _______ _____ _____    ______ ____

>  <TORSDO>
F 9

$$$$
=
 OpenBabel11042418263D

 28 29  0  0  1  0  0  0  0  0999 V2000
  186.4030  177.7990  144.5800 C   0  0  2  0  0  3  0  0  0  0  0  0
  185.5710  178.9420  145.1420 C   0  0  0  0  0  1  0  0  0  0  0  0
  187.7970  177.9320  144.8640 O   0  0  0  0  0  0  0  0  0  0  0  0
  188.6280  176.9080  145.3350 C   0  0  0  0  0  0  0  0  0  0  0  0
  188.1390  176.0130  146.0730 O   0  0  0  0  0  0  0  0  0  0  0  0
  190.0210  176.8830  145.0150 N   0  0  0  0  0  2  0  0  0  0  0  0
  192.8650  176.6430  146.8590 N   0  0  0  0  0  2  0  0  0  0  0  0
  191.4270  176.3870  146.9700 C   0  0  1  0  0  3  0  0  0  0  0  0
  193.2480  176.3270  145.5390 C   0  0  0  0  0  0  0  0  0  0  0  0
  194.5300  176.4110  145.0020 C   0  0  0  0  0  3  0  0  0  0  0  0
  193.5910  175.5920  142.9130 C   0  0  0  0  0  3  0  0  0  0  0  0
  194.7000  176.0370  143.6590 C   0  0  0  0  0  3  0  0  0  0  0  0
  192.3540  175.5270  143.4910 N   0  0  0  0  0  0  0  0  0  0  0  0
  190.9420  175.9040  145.5780 C   0  0  2  0  0  3  0  0  0  0  0  0
  191.1800  175.3040  148.0030 C   0  0  0  0  0  1  0  0  0  0  0  0
  192.1980  175.8970  144.7880 C   0  0  0  0  0  0  0  0  0  0  0  0
  186.1280  177.4520  143.1070 C   0  0  1  0  0  3  0  0  0  0  0  0
  188.3360  176.4790  141.5520 O   0  0  0  0  0  0  0  0  0  0  0  0
  187.7950  174.2310  141.8750 N   0  0  0  0  0  2  0  0  0  0  0  0
  187.5510  175.6270  142.0530 C   0  0  0  0  0  0  0  0  0  0  0  0
  186.4110  176.0470  142.8030 N   0  0  0  0  0  2  0  0  0  0  0  0
  188.9700  173.7350  141.1760 C   0  0  0  0  0  2  0  0  0  0  0  0
  187.8170  172.3770  139.4190 O   0  0  0  0  0  1  0  0  0  0  0  0
  189.1720  174.1300  138.8390 O   0  0  0  0  0  0  0  0  0  0  0  0
  188.6400  173.4490  139.7510 C   0  0  0  0  0  0  0  0  0  0  0  0
  184.8680  177.8790  142.6230 O   0  0  0  0  0  0  0  0  0  0  0  0
  183.6300  178.2910  140.6280 C   0  0  0  0  0  1  0  0  0  0  0  0
  184.9920  178.3070  141.2910 C   0  0  0  0  0  2  0  0  0  0  0  0
  1  3  1  0  0  0  0
  1  2  1  6  0  0  0
  3  4  1  0  0  0  0
  4  5  2  0  0  0  0
  6  4  1  0  0  0  0
  7  8  1  0  0  0  0
  8 15  1  1  0  0  0
  9  7  1  0  0  0  0
 10  9  1  0  0  0  0
 11 13  2  0  0  0  0
 11 12  1  0  0  0  0
 12 10  2  0  0  0  0
 13 16  1  0  0  0  0
 14  6  1  6  0  0  0
 14  8  1  0  0  0  0
 16  9  2  0  0  0  0
 16 14  1  0  0  0  0
 17 26  1  1  0  0  0
 17  1  1  0  0  0  0
 18 20  2  0  0  0  0
 19 20  1  0  0  0  0
 20 21  1  0  0  0  0
 21 17  1  0  0  0  0
 22 19  1  0  0  0  0
 23 25  1  0  0  0  0
 24 25  2  0  0  0  0
 25 22  1  0  0  0  0
 27 28  1  0  0  0  0
 28 26  1  0  0  0  0
M  END
>  <MODEL>
6

>  <REMARK>
 VINA RESULT:      -5.8      2.426      6.620
  Name = 
  9 active torsions:
  status: ('A' for Active; 'I' for Inactive)
    1  A    between atoms: C_1  and  O_6
    2  A    between atoms: C_1  and  C_12
    3  A    between atoms: C_2  and  O_6
    4  A    between atoms: N_7  and  C_28
    5  A    between atoms: N_8  and  C_22
    6  A    between atoms: C_12  and  N_19
    7  A    between atoms: C_12  and  O_24
    8  A    between atoms: C_14  and  C_28
    9  A    between atoms: C_23  and  O_24
                            x       y       z     vdW  Elec       q    Type
                         _______ _______ _______ _____ _____    ______ ____

>  <TORSDO>
F 9

$$$$
=
 OpenBabel11042418263D

 28 29  0  0  1  0  0  0  0  0999 V2000
  190.3140  176.9390  143.1610 C   0  0  2  0  0  3  0  0  0  0  0  0
  190.1100  178.1800  144.0180 C   0  0  0  0  0  1  0  0  0  0  0  0
  189.2150  176.6770  142.2870 O   0  0  0  0  0  0  0  0  0  0  0  0
  187.8930  176.4530  142.6930 C   0  0  0  0  0  0  0  0  0  0  0  0
  187.4910  175.2690  142.8390 O   0  0  0  0  0  0  0  0  0  0  0  0
  186.9940  177.5420  142.9110 N   0  0  0  0  0  2  0  0  0  0  0  0
  184.1720  179.2660  143.6950 N   0  0  0  0  0  2  0  0  0  0  0  0
  184.7510  178.4980  142.5900 C   0  0  1  0  0  3  0  0  0  0  0  0
  184.5770  178.6460  144.8950 C   0  0  0  0  0  0  0  0  0  0  0  0
  184.2420  179.0390  146.1880 C   0  0  0  0  0  3  0  0  0  0  0  0
  185.5510  177.1500  146.9850 C   0  0  0  0  0  3  0  0  0  0  0  0
  184.7440  178.2730  147.2530 C   0  0  0  0  0  3  0  0  0  0  0  0
  185.8470  176.8070  145.6950 N   0  0  0  0  0  0  0  0  0  0  0  0
  185.5830  177.3500  143.2200 C   0  0  2  0  0  3  0  0  0  0  0  0
  183.6410  177.9180  141.7340 C   0  0  0  0  0  1  0  0  0  0  0  0
  185.3620  177.5570  144.6730 C   0  0  0  0  0  0  0  0  0  0  0  0
  190.7770  175.6860  143.9230 C   0  0  1  0  0  3  0  0  0  0  0  0
  193.2350  176.9020  144.7680 O   0  0  0  0  0  0  0  0  0  0  0  0
  194.5830  175.3570  143.6530 N   0  0  0  0  0  2  0  0  0  0  0  0
  193.3090  175.8880  144.0210 C   0  0  0  0  0  0  0  0  0  0  0  0
  192.1230  175.2610  143.5330 N   0  0  0  0  0  2  0  0  0  0  0  0
  195.8270  175.9080  144.1650 C   0  0  0  0  0  2  0  0  0  0  0  0
  196.3870  176.9100  141.9420 O   0  0  0  0  0  0  0  0  0  0  0  0
  197.9150  175.6200  143.0600 O   0  0  0  0  0  1  0  0  0  0  0  0
  196.7800  176.1580  143.0450 C   0  0  0  0  0  0  0  0  0  0  0  0
  190.6030  175.7500  145.3270 O   0  0  0  0  0  0  0  0  0  0  0  0
  188.8910  175.2000  146.8920 C   0  0  0  0  0  1  0  0  0  0  0  0
  189.7550  174.7120  145.7480 C   0  0  0  0  0  2  0  0  0  0  0  0
  1 17  1  0  0  0  0
  1  2  1  1  0  0  0
  3  4  1  0  0  0  0
  3  1  1  0  0  0  0
  4  5  2  0  0  0  0
  4  6  1  0  0  0  0
  7  9  1  0  0  0  0
  8 15  1  6  0  0  0
  8 14  1  0  0  0  0
  8  7  1  0  0  0  0
  9 10  1  0  0  0  0
 10 12  2  0  0  0  0
 11 12  1  0  0  0  0
 13 11  2  0  0  0  0
 14  6  1  1  0  0  0
 14 16  1  0  0  0  0
 16  9  2  0  0  0  0
 16 13  1  0  0  0  0
 17 21  1  1  0  0  0
 17 26  1  0  0  0  0
 19 20  1  0  0  0  0
 19 22  1  0  0  0  0
 20 18  2  0  0  0  0
 21 20  1  0  0  0  0
 23 25  2  0  0  0  0
 25 24  1  0  0  0  0
 25 22  1  0  0  0  0
 26 28  1  0  0  0  0
 28 27  1  0  0  0  0
M  END
>  <MODEL>
7

>  <REMARK>
 VINA RESULT:      -5.8      2.521      3.921
  Name = 
  9 active torsions:
  status: ('A' for Active; 'I' for Inactive)
    1  A    between atoms: C_1  and  O_6
    2  A    between atoms: C_1  and  C_12
    3  A    between atoms: C_2  and  O_6
    4  A    between atoms: N_7  and  C_28
    5  A    between atoms: N_8  and  C_22
    6  A    between atoms: C_12  and  N_19
    7  A    between atoms: C_12  and  O_24
    8  A    between atoms: C_14  and  C_28
    9  A    between atoms: C_23  and  O_24
                            x       y       z     vdW  Elec       q    Type
                         _______ _______ _______ _____ _____    ______ ____

>  <TORSDO>
F 9

$$$$
=
 OpenBabel11042418263D

 28 29  0  0  1  0  0  0  0  0999 V2000
  192.1720  175.8430  145.7760 C   0  0  2  0  0  3  0  0  0  0  0  0
  193.3530  176.4610  146.5100 C   0  0  0  0  0  1  0  0  0  0  0  0
  191.1350  175.4070  146.6550 O   0  0  0  0  0  0  0  0  0  0  0  0
  189.7680  175.3880  146.3490 C   0  0  0  0  0  0  0  0  0  0  0  0
  189.0510  174.4620  146.8120 O   0  0  0  0  0  0  0  0  0  0  0  0
  189.1880  176.3800  145.5000 N   0  0  0  0  0  2  0  0  0  0  0  0
  186.8270  178.2180  143.8890 N   0  0  0  0  0  2  0  0  0  0  0  0
  187.6600  177.0300  143.6860 C   0  0  1  0  0  3  0  0  0  0  0  0
  186.4580  178.2450  145.2490 C   0  0  0  0  0  0  0  0  0  0  0  0
  185.6550  179.1960  145.8730 C   0  0  0  0  0  3  0  0  0  0  0  0
  185.9460  177.9310  147.9310 C   0  0  0  0  0  3  0  0  0  0  0  0
  185.3980  179.0330  147.2450 C   0  0  0  0  0  3  0  0  0  0  0  0
  186.7260  177.0260  147.2680 N   0  0  0  0  0  0  0  0  0  0  0  0
  187.7990  176.3310  145.0640 C   0  0  2  0  0  3  0  0  0  0  0  0
  186.9860  176.0950  142.7010 C   0  0  0  0  0  1  0  0  0  0  0  0
  186.9730  177.1950  145.9440 C   0  0  0  0  0  0  0  0  0  0  0  0
  192.5380  174.7870  144.7190 C   0  0  1  0  0  3  0  0  0  0  0  0
  190.6710  172.8050  143.8100 O   0  0  0  0  0  0  0  0  0  0  0  0
  189.9250  174.0880  142.0080 N   0  0  0  0  0  2  0  0  0  0  0  0
  190.7610  173.8750  143.1460 C   0  0  0  0  0  0  0  0  0  0  0  0
  191.7000  174.8830  143.5220 N   0  0  0  0  0  2  0  0  0  0  0  0
  188.9060  173.1300  141.6080 C   0  0  0  0  0  2  0  0  0  0  0  0
  188.1040  172.3210  139.3800 O   0  0  0  0  0  0  0  0  0  0  0  0
  188.5660  174.5380  139.7200 O   0  0  0  0  0  1  0  0  0  0  0  0
  188.4900  173.3790  140.1980 C   0  0  0  0  0  0  0  0  0  0  0  0
  193.9190  174.7020  144.4220 O   0  0  0  0  0  0  0  0  0  0  0  0
  193.8530  172.5260  145.3940 C   0  0  0  0  0  1  0  0  0  0  0  0
  194.2750  173.3600  144.2030 C   0  0  0  0  0  2  0  0  0  0  0  0
  1  2  1  1  0  0  0
  1  3  1  0  0  0  0
  4  3  1  0  0  0  0
  4  5  2  0  0  0  0
  6  4  1  0  0  0  0
  7  9  1  0  0  0  0
  8 15  1  6  0  0  0
  8  7  1  0  0  0  0
  8 14  1  0  0  0  0
  9 10  2  0  0  0  0
  9 16  1  0  0  0  0
 10 12  1  0  0  0  0
 12 11  2  0  0  0  0
 13 11  1  0  0  0  0
 14  6  1  1  0  0  0
 14 16  1  0  0  0  0
 16 13  2  0  0  0  0
 17 21  1  6  0  0  0
 17  1  1  0  0  0  0
 19 20  1  0  0  0  0
 20 21  1  0  0  0  0
 20 18  2  0  0  0  0
 22 19  1  0  0  0  0
 23 25  2  0  0  0  0
 24 25  1  0  0  0  0
 25 22  1  0  0  0  0
 26 17  1  0  0  0  0
 28 26  1  0  0  0  0
 28 27  1  0  0  0  0
M  END
>  <MODEL>
8

>  <REMARK>
 VINA RESULT:      -5.8      1.910      2.550
  Name = 
  9 active torsions:
  status: ('A' for Active; 'I' for Inactive)
    1  A    between atoms: C_1  and  O_6
    2  A    between atoms: C_1  and  C_12
    3  A    between atoms: C_2  and  O_6
    4  A    between atoms: N_7  and  C_28
    5  A    between atoms: N_8  and  C_22
    6  A    between atoms: C_12  and  N_19
    7  A    between atoms: C_12  and  O_24
    8  A    between atoms: C_14  and  C_28
    9  A    between atoms: C_23  and  O_24
                            x       y       z     vdW  Elec       q    Type
                         _______ _______ _______ _____ _____    ______ ____

>  <TORSDO>
F 9

$$$$
=
 OpenBabel11042418263D

 28 29  0  0  1  0  0  0  0  0999 V2000
  185.8390  177.6610  143.1720 C   0  0  2  0  0  3  0  0  0  0  0  0
  184.4490  178.1030  142.7380 C   0  0  0  0  0  1  0  0  0  0  0  0
  186.1490  176.3240  142.7760 O   0  0  0  0  0  0  0  0  0  0  0  0
  187.2870  175.9350  142.0590 C   0  0  0  0  0  0  0  0  0  0  0  0
  187.4120  176.3060  140.8620 O   0  0  0  0  0  0  0  0  0  0  0  0
  188.2860  175.1030  142.6540 N   0  0  0  0  0  2  0  0  0  0  0  0
  190.7300  172.7480  142.8130 N   0  0  0  0  0  2  0  0  0  0  0  0
  189.4960  173.0410  142.0800 C   0  0  1  0  0  3  0  0  0  0  0  0
  191.3780  173.9770  143.0530 C   0  0  0  0  0  0  0  0  0  0  0  0
  192.5920  174.1620  143.7090 C   0  0  0  0  0  3  0  0  0  0  0  0
  192.3270  176.5440  143.2970 C   0  0  0  0  0  3  0  0  0  0  0  0
  193.0720  175.4760  143.8340 C   0  0  0  0  0  3  0  0  0  0  0  0
  191.1420  176.3060  142.6600 N   0  0  0  0  0  0  0  0  0  0  0  0
  189.4230  174.5810  141.9080 C   0  0  2  0  0  3  0  0  0  0  0  0
  189.5400  172.3740  140.7190 C   0  0  0  0  0  1  0  0  0  0  0  0
  190.6830  175.0330  142.5500 C   0  0  0  0  0  0  0  0  0  0  0  0
  186.1830  177.9380  144.6460 C   0  0  1  0  0  3  0  0  0  0  0  0
  187.6100  176.0700  146.2930 O   0  0  0  0  0  0  0  0  0  0  0  0
  189.7040  176.9810  145.8100 N   0  0  0  0  0  2  0  0  0  0  0  0
  188.2810  176.9540  145.6920 C   0  0  0  0  0  0  0  0  0  0  0  0
  187.6280  177.9380  144.8900 N   0  0  0  0  0  2  0  0  0  0  0  0
  190.4370  175.9720  146.5590 C   0  0  0  0  0  2  0  0  0  0  0  0
  192.8310  176.5380  147.0140 O   0  0  0  0  0  0  0  0  0  0  0  0
  191.1850  177.1590  148.4810 O   0  0  0  0  0  1  0  0  0  0  0  0
  191.4940  176.6150  147.3920 C   0  0  0  0  0  0  0  0  0  0  0  0
  185.5280  179.0620  145.2050 O   0  0  0  0  0  0  0  0  0  0  0  0
  185.3930  178.6850  147.5560 C   0  0  0  0  0  1  0  0  0  0  0  0
  184.6620  178.6430  146.2290 C   0  0  0  0  0  2  0  0  0  0  0  0
  1  2  1  1  0  0  0
  1 17  1  0  0  0  0
  3  1  1  0  0  0  0
  4  6  1  0  0  0  0
  4  3  1  0  0  0  0
  5  4  2  0  0  0  0
  7  9  1  0  0  0  0
  8 15  1  6  0  0  0
  8  7  1  0  0  0  0
  9 10  1  0  0  0  0
 10 12  2  0  0  0  0
 11 12  1  0  0  0  0
 13 11  2  0  0  0  0
 14  8  1  0  0  0  0
 14 16  1  0  0  0  0
 14  6  1  1  0  0  0
 16 13  1  0  0  0  0
 16  9  2  0  0  0  0
 17 21  1  6  0  0  0
 17 26  1  0  0  0  0
 19 22  1  0  0  0  0
 20 19  1  0  0  0  0
 20 18  2  0  0  0  0
 21 20  1  0  0  0  0
 22 25  1  0  0  0  0
 23 25  2  0  0  0  0
 25 24  1  0  0  0  0
 26 28  1  0  0  0  0
 28 27  1  0  0  0  0
M  END
>  <MODEL>
9

>  <REMARK>
 VINA RESULT:      -5.8      2.361      6.752
  Name = 
  9 active torsions:
  status: ('A' for Active; 'I' for Inactive)
    1  A    between atoms: C_1  and  O_6
    2  A    between atoms: C_1  and  C_12
    3  A    between atoms: C_2  and  O_6
    4  A    between atoms: N_7  and  C_28
    5  A    between atoms: N_8  and  C_22
    6  A    between atoms: C_12  and  N_19
    7  A    between atoms: C_12  and  O_24
    8  A    between atoms: C_14  and  C_28
    9  A    between atoms: C_23  and  O_24
                            x       y       z     vdW  Elec       q    Type
                         _______ _______ _______ _____ _____    ______ ____

>  <TORSDO>
F 9

$$$$
