=
 OpenBabel11042417203D

 26 27  0  0  1  0  0  0  0  0999 V2000
  188.9320  177.5320  143.3470 C   0  0  1  0  0  3  0  0  0  0  0  0
  191.6540  174.3010  143.7560 C   0  0  0  0  0  0  0  0  0  0  0  0
  191.2890  176.7380  143.7070 C   0  0  0  0  0  0  0  0  0  0  0  0
  192.3170  173.2890  144.3210 C   0  0  0  0  0  0  0  0  0  0  0  0
  195.2220  175.1370  145.9850 C   0  0  0  0  0  1  0  0  0  0  0  0
  192.3180  175.6500  143.6010 C   0  0  1  0  0  3  0  0  0  0  0  0
  189.6410  175.1860  142.6500 C   0  0  0  0  0  2  0  0  0  0  0  0
  191.7330  171.9910  144.3950 N   0  0  0  0  0  1  0  0  0  0  0  0
  189.9370  176.4680  143.2990 N   0  0  0  0  0  0  0  0  0  0  0  0
  193.4260  175.8550  144.5430 N   0  0  0  0  0  0  0  0  0  0  0  0
  191.6180  177.8890  144.1050 O   0  0  0  0  0  0  0  0  0  0  0  0
  194.0600  174.8670  145.1000 C   0  0  0  0  0  0  0  0  0  0  0  0
  190.3450  174.1270  143.2960 O   0  0  0  0  0  0  0  0  0  0  0  0
  193.5850  173.5270  144.9370 N   0  0  0  0  0  2  0  0  0  0  0  0
  188.6110  178.0840  141.9510 C   0  0  0  0  0  2  0  0  0  0  0  0
  187.1420  176.7910  140.5720 O   0  0  0  0  0  1  0  0  0  0  0  0
  187.1760  177.8280  141.5040 C   0  0  0  0  0  2  0  0  0  0  0  0
  187.7030  177.1120  144.1470 C   0  0  0  0  0  2  0  0  0  0  0  0
  187.9580  177.2730  145.6340 C   0  0  0  0  0  2  0  0  0  0  0  0
  186.8780  176.6520  146.3780 N   0  0  0  0  0  2  0  0  0  0  0  0
  185.6550  176.9120  145.6340 C   0  0  0  0  0  2  0  0  0  0  0  0
  185.2630  178.1500  147.6490 O   0  0  0  0  0  1  0  0  0  0  0  0
  184.6470  177.6690  146.4900 C   0  0  1  0  0  3  0  0  0  0  0  0
  184.0270  178.8140  145.7060 C   0  0  0  0  0  2  0  0  0  0  0  0
  184.5750  178.8470  144.2920 C   0  0  0  0  0  2  0  0  0  0  0  0
  185.4140  180.0190  144.1280 N   0  0  0  0  0  1  0  0  0  0  0  0
  1 15  1  6  0  0  0
  1 18  1  0  0  0  0
  2  4  2  0  0  0  0
  3 11  2  0  0  0  0
  4  8  1  0  0  0  0
  4 14  1  0  0  0  0
  6  3  1  1  0  0  0
  6  2  1  0  0  0  0
  6 10  1  0  0  0  0
  7 13  1  0  0  0  0
  7  9  1  0  0  0  0
  9  1  1  0  0  0  0
  9  3  1  0  0  0  0
 10 12  2  0  0  0  0
 12  5  1  0  0  0  0
 13  2  1  0  0  0  0
 14 12  1  0  0  0  0
 16 17  1  0  0  0  0
 17 15  1  0  0  0  0
 18 19  1  0  0  0  0
 19 20  1  0  0  0  0
 21 20  1  0  0  0  0
 21 23  1  0  0  0  0
 23 22  1  1  0  0  0
 24 23  1  0  0  0  0
 25 24  1  0  0  0  0
 26 25  1  0  0  0  0
M  END
>  <MODEL>
1

>  <REMARK>
 VINA RESULT:      -5.6      0.000      0.000
  Name = 
  10 active torsions:
  status: ('A' for Active; 'I' for Inactive)
    1  A    between atoms: C_3  and  C_23
    2  A    between atoms: C_5  and  C_12
    3  A    between atoms: C_5  and  N_15
    4  A    between atoms: C_5  and  C_26
    5  A    between atoms: C_8  and  C_23
    6  A    between atoms: C_8  and  C_24
    7  A    between atoms: C_12  and  C_19
    8  A    between atoms: C_21  and  N_22
    9  A    between atoms: C_21  and  C_26
   10  A    between atoms: N_22  and  C_24
                            x       y       z     vdW  Elec       q    Type
                         _______ _______ _______ _____ _____    ______ ____

>  <TORSDO>
F 10

$$$$
=
 OpenBabel11042417203D

 26 27  0  0  1  0  0  0  0  0999 V2000
  186.4180  178.0040  146.2270 C   0  0  1  0  0  3  0  0  0  0  0  0
  184.4250  178.5400  142.5190 C   0  0  0  0  0  0  0  0  0  0  0  0
  186.5540  178.2820  143.7340 C   0  0  0  0  0  0  0  0  0  0  0  0
  183.7320  178.2420  141.4170 C   0  0  0  0  0  0  0  0  0  0  0  0
  186.5300  177.1500  139.0500 C   0  0  0  0  0  1  0  0  0  0  0  0
  185.9240  178.7260  142.4450 C   0  0  1  0  0  3  0  0  0  0  0  0
  184.4990  179.0560  144.9250 C   0  0  0  0  0  2  0  0  0  0  0  0
  182.3100  178.1490  141.4580 N   0  0  0  0  0  1  0  0  0  0  0  0
  185.8010  178.3830  144.9540 N   0  0  0  0  0  0  0  0  0  0  0  0
  186.5270  178.0570  141.2860 N   0  0  0  0  0  0  0  0  0  0  0  0
  187.7460  177.8720  143.7500 O   0  0  0  0  0  0  0  0  0  0  0  0
  185.8450  177.7570  140.2210 C   0  0  0  0  0  0  0  0  0  0  0  0
  183.7770  178.6930  143.7490 O   0  0  0  0  0  0  0  0  0  0  0  0
  184.4250  177.9230  140.2070 N   0  0  0  0  0  2  0  0  0  0  0  0
  185.5800  178.4560  147.4310 C   0  0  0  0  0  2  0  0  0  0  0  0
  187.3180  179.3500  148.8120 O   0  0  0  0  0  1  0  0  0  0  0  0
  186.1390  179.6810  148.1440 C   0  0  0  0  0  2  0  0  0  0  0  0
  186.7960  176.5260  146.2530 C   0  0  0  0  0  2  0  0  0  0  0  0
  188.1140  176.3290  146.9780 C   0  0  0  0  0  2  0  0  0  0  0  0
  188.9580  175.4320  146.2080 N   0  0  0  0  0  2  0  0  0  0  0  0
  190.2650  176.0650  146.1160 C   0  0  0  0  0  2  0  0  0  0  0  0
  191.8390  175.4220  144.4280 O   0  0  0  0  0  1  0  0  0  0  0  0
  191.3250  175.0640  145.6760 C   0  0  1  0  0  3  0  0  0  0  0  0
  192.4420  174.9750  146.7030 C   0  0  0  0  0  2  0  0  0  0  0  0
  193.7180  175.5830  146.1520 C   0  0  0  0  0  2  0  0  0  0  0  0
  193.9370  176.8790  146.7640 N   0  0  0  0  0  1  0  0  0  0  0  0
  1 18  1  6  0  0  0
  1 15  1  0  0  0  0
  2 13  1  0  0  0  0
  3 11  2  0  0  0  0
  3  9  1  0  0  0  0
  4  8  1  0  0  0  0
  4  2  2  0  0  0  0
  5 12  1  0  0  0  0
  6 10  1  6  0  0  0
  6  2  1  0  0  0  0
  6  3  1  0  0  0  0
  7  9  1  0  0  0  0
  9  1  1  0  0  0  0
 12 10  2  0  0  0  0
 13  7  1  0  0  0  0
 14 12  1  0  0  0  0
 14  4  1  0  0  0  0
 15 17  1  0  0  0  0
 17 16  1  0  0  0  0
 18 19  1  0  0  0  0
 20 19  1  0  0  0  0
 21 20  1  0  0  0  0
 23 22  1  6  0  0  0
 23 21  1  0  0  0  0
 23 24  1  0  0  0  0
 25 24  1  0  0  0  0
 25 26  1  0  0  0  0
M  END
>  <MODEL>
2

>  <REMARK>
 VINA RESULT:      -5.5      2.611      7.736
  Name = 
  10 active torsions:
  status: ('A' for Active; 'I' for Inactive)
    1  A    between atoms: C_3  and  C_23
    2  A    between atoms: C_5  and  C_12
    3  A    between atoms: C_5  and  N_15
    4  A    between atoms: C_5  and  C_26
    5  A    between atoms: C_8  and  C_23
    6  A    between atoms: C_8  and  C_24
    7  A    between atoms: C_12  and  C_19
    8  A    between atoms: C_21  and  N_22
    9  A    between atoms: C_21  and  C_26
   10  A    between atoms: N_22  and  C_24
                            x       y       z     vdW  Elec       q    Type
                         _______ _______ _______ _____ _____    ______ ____

>  <TORSDO>
F 10

$$$$
=
 OpenBabel11042417203D

 26 27  0  0  1  0  0  0  0  0999 V2000
  190.3500  176.0450  146.1670 C   0  0  1  0  0  3  0  0  0  0  0  0
  188.7880  176.5570  142.2540 C   0  0  0  0  0  0  0  0  0  0  0  0
  190.1450  175.2070  143.8070 C   0  0  0  0  0  0  0  0  0  0  0  0
  187.9130  176.5450  141.2450 C   0  0  0  0  0  0  0  0  0  0  0  0
  188.3260  172.9720  139.9440 C   0  0  0  0  0  1  0  0  0  0  0  0
  189.8370  175.4730  142.3610 C   0  0  1  0  0  3  0  0  0  0  0  0
  189.7090  177.6230  144.2720 C   0  0  0  0  0  2  0  0  0  0  0  0
  186.9750  177.6060  141.0860 N   0  0  0  0  0  1  0  0  0  0  0  0
  190.0040  176.2720  144.7620 N   0  0  0  0  0  0  0  0  0  0  0  0
  189.4650  174.2440  141.6490 N   0  0  0  0  0  0  0  0  0  0  0  0
  190.5690  174.0760  144.1690 O   0  0  0  0  0  0  0  0  0  0  0  0
  188.6020  174.2350  140.6770 C   0  0  0  0  0  0  0  0  0  0  0  0
  188.7530  177.5720  143.2150 O   0  0  0  0  0  0  0  0  0  0  0  0
  187.8530  175.4140  140.3720 N   0  0  0  0  0  2  0  0  0  0  0  0
  191.7880  176.4810  146.4840 C   0  0  0  0  0  2  0  0  0  0  0  0
  194.0610  175.7310  146.4920 O   0  0  0  0  0  1  0  0  0  0  0  0
  192.7460  175.3180  146.7080 C   0  0  0  0  0  2  0  0  0  0  0  0
  189.3020  176.6300  147.1080 C   0  0  0  0  0  2  0  0  0  0  0  0
  187.9480  175.9930  146.8560 C   0  0  0  0  0  2  0  0  0  0  0  0
  186.9270  177.0240  146.8350 N   0  0  0  0  0  2  0  0  0  0  0  0
  186.0260  176.6970  145.7410 C   0  0  0  0  0  2  0  0  0  0  0  0
  184.1720  177.9220  146.6380 O   0  0  0  0  0  1  0  0  0  0  0  0
  185.0070  177.8080  145.5230 C   0  0  1  0  0  3  0  0  0  0  0  0
  185.7030  179.1310  145.2460 C   0  0  0  0  0  2  0  0  0  0  0  0
  185.4920  179.5480  143.8030 C   0  0  0  0  0  2  0  0  0  0  0  0
  184.3820  178.8020  143.2430 N   0  0  0  0  0  1  0  0  0  0  0  0
  1 15  1  1  0  0  0
  1 18  1  0  0  0  0
  2  6  1  0  0  0  0
  2 13  1  0  0  0  0
  3 11  2  0  0  0  0
  3  9  1  0  0  0  0
  4  2  2  0  0  0  0
  5 12  1  0  0  0  0
  6 10  1  1  0  0  0
  6  3  1  0  0  0  0
  7  9  1  0  0  0  0
  8  4  1  0  0  0  0
  9  1  1  0  0  0  0
 12 10  2  0  0  0  0
 13  7  1  0  0  0  0
 14 12  1  0  0  0  0
 14  4  1  0  0  0  0
 15 17  1  0  0  0  0
 16 17  1  0  0  0  0
 19 18  1  0  0  0  0
 20 19  1  0  0  0  0
 21 20  1  0  0  0  0
 23 21  1  0  0  0  0
 23 22  1  1  0  0  0
 24 23  1  0  0  0  0
 25 24  1  0  0  0  0
 26 25  1  0  0  0  0
M  END
>  <MODEL>
3

>  <REMARK>
 VINA RESULT:      -5.4      2.248      4.864
  Name = 
  10 active torsions:
  status: ('A' for Active; 'I' for Inactive)
    1  A    between atoms: C_3  and  C_23
    2  A    between atoms: C_5  and  C_12
    3  A    between atoms: C_5  and  N_15
    4  A    between atoms: C_5  and  C_26
    5  A    between atoms: C_8  and  C_23
    6  A    between atoms: C_8  and  C_24
    7  A    between atoms: C_12  and  C_19
    8  A    between atoms: C_21  and  N_22
    9  A    between atoms: C_21  and  C_26
   10  A    between atoms: N_22  and  C_24
                            x       y       z     vdW  Elec       q    Type
                         _______ _______ _______ _____ _____    ______ ____

>  <TORSDO>
F 10

$$$$
=
 OpenBabel11042417203D

 26 27  0  0  1  0  0  0  0  0999 V2000
  190.1850  175.5670  143.5380 C   0  0  1  0  0  3  0  0  0  0  0  0
  186.3700  176.9460  142.2870 C   0  0  0  0  0  0  0  0  0  0  0  0
  187.8220  176.1870  144.1290 C   0  0  0  0  0  0  0  0  0  0  0  0
  185.4090  177.7910  141.9070 C   0  0  0  0  0  0  0  0  0  0  0  0
  184.0160  178.9050  145.2900 C   0  0  0  0  0  1  0  0  0  0  0  0
  186.4010  176.4190  143.7050 C   0  0  1  0  0  3  0  0  0  0  0  0
  188.3580  175.5930  141.7620 C   0  0  0  0  0  2  0  0  0  0  0  0
  185.3200  178.2270  140.5530 N   0  0  0  0  0  1  0  0  0  0  0  0
  188.8050  175.8480  143.1360 N   0  0  0  0  0  0  0  0  0  0  0  0
  185.6840  177.2830  144.6520 N   0  0  0  0  0  0  0  0  0  0  0  0
  188.1390  176.2410  145.3490 O   0  0  0  0  0  0  0  0  0  0  0  0
  184.7580  178.1140  144.2750 C   0  0  0  0  0  0  0  0  0  0  0  0
  187.3520  176.5300  141.3830 O   0  0  0  0  0  0  0  0  0  0  0  0
  184.5170  178.3370  142.8830 N   0  0  0  0  0  2  0  0  0  0  0  0
  190.5500  174.0880  143.3490 C   0  0  0  0  0  2  0  0  0  0  0  0
  189.2790  172.1300  143.8770 O   0  0  0  0  0  1  0  0  0  0  0  0
  190.0060  173.1770  144.4430 C   0  0  0  0  0  2  0  0  0  0  0  0
  191.1690  176.5380  142.8940 C   0  0  0  0  0  2  0  0  0  0  0  0
  192.5610  175.9350  142.8570 C   0  0  0  0  0  2  0  0  0  0  0  0
  193.3740  176.5350  143.8980 N   0  0  0  0  0  2  0  0  0  0  0  0
  194.1250  175.4540  144.5180 C   0  0  0  0  0  2  0  0  0  0  0  0
  194.0750  176.8040  146.4970 O   0  0  0  0  0  1  0  0  0  0  0  0
  193.9800  175.4890  146.0340 C   0  0  1  0  0  3  0  0  0  0  0  0
  192.6600  174.8700  146.4640 C   0  0  0  0  0  2  0  0  0  0  0  0
  191.6970  175.9460  146.9300 C   0  0  0  0  0  2  0  0  0  0  0  0
  190.7170  175.3600  147.8230 N   0  0  0  0  0  1  0  0  0  0  0  0
  1 18  1  6  0  0  0
  3 11  2  0  0  0  0
  4  2  2  0  0  0  0
  4 14  1  0  0  0  0
  6  2  1  6  0  0  0
  6  3  1  0  0  0  0
  6 10  1  0  0  0  0
  7  9  1  0  0  0  0
  8  4  1  0  0  0  0
  9  1  1  0  0  0  0
  9  3  1  0  0  0  0
 12 10  2  0  0  0  0
 12  5  1  0  0  0  0
 13  7  1  0  0  0  0
 13  2  1  0  0  0  0
 14 12  1  0  0  0  0
 15  1  1  0  0  0  0
 15 17  1  0  0  0  0
 16 17  1  0  0  0  0
 19 18  1  0  0  0  0
 19 20  1  0  0  0  0
 20 21  1  0  0  0  0
 21 23  1  0  0  0  0
 23 24  1  0  0  0  0
 23 22  1  6  0  0  0
 24 25  1  0  0  0  0
 25 26  1  0  0  0  0
M  END
>  <MODEL>
4

>  <REMARK>
 VINA RESULT:      -5.4      2.134      7.249
  Name = 
  10 active torsions:
  status: ('A' for Active; 'I' for Inactive)
    1  A    between atoms: C_3  and  C_23
    2  A    between atoms: C_5  and  C_12
    3  A    between atoms: C_5  and  N_15
    4  A    between atoms: C_5  and  C_26
    5  A    between atoms: C_8  and  C_23
    6  A    between atoms: C_8  and  C_24
    7  A    between atoms: C_12  and  C_19
    8  A    between atoms: C_21  and  N_22
    9  A    between atoms: C_21  and  C_26
   10  A    between atoms: N_22  and  C_24
                            x       y       z     vdW  Elec       q    Type
                         _______ _______ _______ _____ _____    ______ ____

>  <TORSDO>
F 10

$$$$
=
 OpenBabel11042417203D

 26 27  0  0  1  0  0  0  0  0999 V2000
  187.2650  177.3530  142.2520 C   0  0  1  0  0  3  0  0  0  0  0  0
  189.9410  174.4050  143.7210 C   0  0  0  0  0  0  0  0  0  0  0  0
  189.4830  176.7870  143.2870 C   0  0  0  0  0  0  0  0  0  0  0  0
  190.4840  173.5120  144.5530 C   0  0  0  0  0  0  0  0  0  0  0  0
  192.7660  175.7440  146.6580 C   0  0  0  0  0  1  0  0  0  0  0  0
  190.5570  175.7780  143.5760 C   0  0  1  0  0  3  0  0  0  0  0  0
  188.2420  175.0100  142.0450 C   0  0  0  0  0  2  0  0  0  0  0  0
  189.9630  172.1870  144.6340 N   0  0  0  0  0  1  0  0  0  0  0  0
  188.2990  176.3720  142.5870 N   0  0  0  0  0  0  0  0  0  0  0  0
  191.3710  176.1660  144.7350 N   0  0  0  0  0  0  0  0  0  0  0  0
  189.6430  177.9960  143.6120 O   0  0  0  0  0  0  0  0  0  0  0  0
  191.8870  175.2930  145.5480 C   0  0  0  0  0  0  0  0  0  0  0  0
  188.8060  174.0820  142.9700 O   0  0  0  0  0  0  0  0  0  0  0  0
  191.5360  173.9110  145.4350 N   0  0  0  0  0  2  0  0  0  0  0  0
  187.4040  177.8670  140.8120 C   0  0  0  0  0  2  0  0  0  0  0  0
  186.5510  176.8780  138.8060 O   0  0  0  0  0  1  0  0  0  0  0  0
  186.1820  177.5980  139.9430 C   0  0  0  0  0  2  0  0  0  0  0  0
  185.8690  176.8440  142.5970 C   0  0  0  0  0  2  0  0  0  0  0  0
  185.6790  176.7970  144.1020 C   0  0  0  0  0  2  0  0  0  0  0  0
  184.8650  177.9240  144.5200 N   0  0  0  0  0  2  0  0  0  0  0  0
  184.7860  177.8650  145.9720 C   0  0  0  0  0  2  0  0  0  0  0  0
  185.7890  179.4530  147.4600 O   0  0  0  0  0  1  0  0  0  0  0  0
  186.0690  178.3820  146.6090 C   0  0  1  0  0  3  0  0  0  0  0  0
  186.7780  177.2720  147.3700 C   0  0  0  0  0  2  0  0  0  0  0  0
  188.1590  177.0310  146.7910 C   0  0  0  0  0  2  0  0  0  0  0  0
  188.4270  175.6060  146.7640 N   0  0  0  0  0  1  0  0  0  0  0  0
  1 15  1  6  0  0  0
  1  9  1  0  0  0  0
  1 18  1  0  0  0  0
  2  4  2  0  0  0  0
  3 11  2  0  0  0  0
  4  8  1  0  0  0  0
  4 14  1  0  0  0  0
  6  3  1  1  0  0  0
  6  2  1  0  0  0  0
  6 10  1  0  0  0  0
  7  9  1  0  0  0  0
  7 13  1  0  0  0  0
  9  3  1  0  0  0  0
 10 12  2  0  0  0  0
 12  5  1  0  0  0  0
 13  2  1  0  0  0  0
 14 12  1  0  0  0  0
 16 17  1  0  0  0  0
 17 15  1  0  0  0  0
 18 19  1  0  0  0  0
 19 20  1  0  0  0  0
 20 21  1  0  0  0  0
 21 23  1  0  0  0  0
 23 24  1  0  0  0  0
 23 22  1  1  0  0  0
 25 24  1  0  0  0  0
 26 25  1  0  0  0  0
M  END
>  <MODEL>
5

>  <REMARK>
 VINA RESULT:      -5.4      1.719      2.502
  Name = 
  10 active torsions:
  status: ('A' for Active; 'I' for Inactive)
    1  A    between atoms: C_3  and  C_23
    2  A    between atoms: C_5  and  C_12
    3  A    between atoms: C_5  and  N_15
    4  A    between atoms: C_5  and  C_26
    5  A    between atoms: C_8  and  C_23
    6  A    between atoms: C_8  and  C_24
    7  A    between atoms: C_12  and  C_19
    8  A    between atoms: C_21  and  N_22
    9  A    between atoms: C_21  and  C_26
   10  A    between atoms: N_22  and  C_24
                            x       y       z     vdW  Elec       q    Type
                         _______ _______ _______ _____ _____    ______ ____

>  <TORSDO>
F 10

$$$$
=
 OpenBabel11042417203D

 26 27  0  0  1  0  0  0  0  0999 V2000
  189.8840  175.6920  144.8880 C   0  0  1  0  0  3  0  0  0  0  0  0
  193.9810  176.1990  143.9000 C   0  0  0  0  0  0  0  0  0  0  0  0
  192.2960  175.5530  145.5790 C   0  0  0  0  0  0  0  0  0  0  0  0
  195.1820  175.9420  143.3760 C   0  0  0  0  0  0  0  0  0  0  0  0
  196.7490  173.7920  146.1230 C   0  0  0  0  0  1  0  0  0  0  0  0
  193.7270  175.9570  145.3710 C   0  0  1  0  0  3  0  0  0  0  0  0
  191.6740  177.0240  143.6580 C   0  0  0  0  0  2  0  0  0  0  0  0
  195.4580  176.2470  142.0110 N   0  0  0  0  0  1  0  0  0  0  0  0
  191.2920  176.0340  144.6700 N   0  0  0  0  0  0  0  0  0  0  0  0
  194.6580  174.9850  145.9590 N   0  0  0  0  0  0  0  0  0  0  0  0
  191.9740  174.8400  146.5680 O   0  0  0  0  0  0  0  0  0  0  0  0
  195.8210  174.7280  145.4380 C   0  0  0  0  0  0  0  0  0  0  0  0
  192.9480  176.7030  143.1030 O   0  0  0  0  0  0  0  0  0  0  0  0
  196.1710  175.2710  144.1620 N   0  0  0  0  0  2  0  0  0  0  0  0
  189.1600  176.7490  145.7340 C   0  0  0  0  0  2  0  0  0  0  0  0
  188.7040  174.9600  147.2570 O   0  0  0  0  0  1  0  0  0  0  0  0
  188.1990  176.1610  146.7600 C   0  0  0  0  0  2  0  0  0  0  0  0
  189.1770  175.3510  143.5800 C   0  0  0  0  0  2  0  0  0  0  0  0
  188.2590  176.4840  143.1620 C   0  0  0  0  0  2  0  0  0  0  0  0
  186.9410  175.9530  142.8680 N   0  0  0  0  0  2  0  0  0  0  0  0
  185.9920  176.7370  143.6440 C   0  0  0  0  0  2  0  0  0  0  0  0
  185.8400  178.8610  142.5440 O   0  0  0  0  0  1  0  0  0  0  0  0
  186.3820  178.2100  143.6550 C   0  0  1  0  0  3  0  0  0  0  0  0
  185.9210  178.8800  144.9390 C   0  0  0  0  0  2  0  0  0  0  0  0
  184.5010  178.4640  145.2730 C   0  0  0  0  0  2  0  0  0  0  0  0
  184.3520  178.3710  146.7130 N   0  0  0  0  0  1  0  0  0  0  0  0
  1 18  1  6  0  0  0
  1 15  1  0  0  0  0
  3 11  2  0  0  0  0
  4  2  2  0  0  0  0
  4 14  1  0  0  0  0
  6  2  1  6  0  0  0
  6  3  1  0  0  0  0
  6 10  1  0  0  0  0
  7  9  1  0  0  0  0
  8  4  1  0  0  0  0
  9  1  1  0  0  0  0
  9  3  1  0  0  0  0
 12 10  2  0  0  0  0
 12  5  1  0  0  0  0
 13  7  1  0  0  0  0
 13  2  1  0  0  0  0
 14 12  1  0  0  0  0
 15 17  1  0  0  0  0
 17 16  1  0  0  0  0
 19 18  1  0  0  0  0
 20 19  1  0  0  0  0
 20 21  1  0  0  0  0
 21 23  1  0  0  0  0
 23 22  1  6  0  0  0
 23 24  1  0  0  0  0
 24 25  1  0  0  0  0
 25 26  1  0  0  0  0
M  END
>  <MODEL>
6

>  <REMARK>
 VINA RESULT:      -5.4      2.310      3.539
  Name = 
  10 active torsions:
  status: ('A' for Active; 'I' for Inactive)
    1  A    between atoms: C_3  and  C_23
    2  A    between atoms: C_5  and  C_12
    3  A    between atoms: C_5  and  N_15
    4  A    between atoms: C_5  and  C_26
    5  A    between atoms: C_8  and  C_23
    6  A    between atoms: C_8  and  C_24
    7  A    between atoms: C_12  and  C_19
    8  A    between atoms: C_21  and  N_22
    9  A    between atoms: C_21  and  C_26
   10  A    between atoms: N_22  and  C_24
                            x       y       z     vdW  Elec       q    Type
                         _______ _______ _______ _____ _____    ______ ____

>  <TORSDO>
F 10

$$$$
=
 OpenBabel11042417203D

 26 27  0  0  1  0  0  0  0  0999 V2000
  188.8370  176.2760  142.0280 C   0  0  1  0  0  3  0  0  0  0  0  0
  190.6170  176.1060  145.8770 C   0  0  0  0  0  0  0  0  0  0  0  0
  190.7370  175.5170  143.4860 C   0  0  0  0  0  0  0  0  0  0  0  0
  191.2940  176.4950  146.9600 C   0  0  0  0  0  0  0  0  0  0  0  0
  194.8800  175.6430  145.9430 C   0  0  0  0  0  1  0  0  0  0  0  0
  191.2750  175.2070  144.8540 C   0  0  1  0  0  3  0  0  0  0  0  0
  188.5440  176.0680  144.5500 C   0  0  0  0  0  2  0  0  0  0  0  0
  190.6580  177.2710  147.9720 N   0  0  0  0  0  1  0  0  0  0  0  0
  189.3950  176.0180  143.3560 N   0  0  0  0  0  0  0  0  0  0  0  0
  192.7410  175.2760  144.8900 N   0  0  0  0  0  0  0  0  0  0  0  0
  191.4380  175.2940  142.4620 O   0  0  0  0  0  0  0  0  0  0  0  0
  193.3950  175.6690  145.9420 C   0  0  0  0  0  0  0  0  0  0  0  0
  189.2940  176.5130  145.6780 O   0  0  0  0  0  0  0  0  0  0  0  0
  192.6920  176.2120  147.0630 N   0  0  0  0  0  2  0  0  0  0  0  0
  187.8060  175.2140  141.6200 C   0  0  0  0  0  2  0  0  0  0  0  0
  188.4160  172.9300  141.9980 O   0  0  0  0  0  1  0  0  0  0  0  0
  188.4260  173.9470  141.0430 C   0  0  0  0  0  2  0  0  0  0  0  0
  188.3360  177.7110  141.8950 C   0  0  0  0  0  2  0  0  0  0  0  0
  186.8720  177.7270  141.4970 C   0  0  0  0  0  2  0  0  0  0  0  0
  186.1560  178.6740  142.3320 N   0  0  0  0  0  2  0  0  0  0  0  0
  185.4620  177.8960  143.3460 C   0  0  0  0  0  2  0  0  0  0  0  0
  185.7940  179.8580  144.6820 O   0  0  0  0  0  1  0  0  0  0  0  0
  185.7160  178.4640  144.7370 C   0  0  1  0  0  3  0  0  0  0  0  0
  184.6230  178.0320  145.7020 C   0  0  0  0  0  2  0  0  0  0  0  0
  185.0890  176.8540  146.5370 C   0  0  0  0  0  2  0  0  0  0  0  0
  186.2830  177.2270  147.2710 N   0  0  0  0  0  1  0  0  0  0  0  0
  1 15  1  1  0  0  0
  1  9  1  0  0  0  0
  2  4  2  0  0  0  0
  4 14  1  0  0  0  0
  4  8  1  0  0  0  0
  6  3  1  6  0  0  0
  6 10  1  0  0  0  0
  6  2  1  0  0  0  0
  7 13  1  0  0  0  0
  9  3  1  0  0  0  0
  9  7  1  0  0  0  0
 10 12  2  0  0  0  0
 11  3  2  0  0  0  0
 12  5  1  0  0  0  0
 12 14  1  0  0  0  0
 13  2  1  0  0  0  0
 17 15  1  0  0  0  0
 17 16  1  0  0  0  0
 18  1  1  0  0  0  0
 19 18  1  0  0  0  0
 19 20  1  0  0  0  0
 20 21  1  0  0  0  0
 21 23  1  0  0  0  0
 23 22  1  6  0  0  0
 23 24  1  0  0  0  0
 24 25  1  0  0  0  0
 25 26  1  0  0  0  0
M  END
>  <MODEL>
7

>  <REMARK>
 VINA RESULT:      -5.4      2.032      3.175
  Name = 
  10 active torsions:
  status: ('A' for Active; 'I' for Inactive)
    1  A    between atoms: C_3  and  C_23
    2  A    between atoms: C_5  and  C_12
    3  A    between atoms: C_5  and  N_15
    4  A    between atoms: C_5  and  C_26
    5  A    between atoms: C_8  and  C_23
    6  A    between atoms: C_8  and  C_24
    7  A    between atoms: C_12  and  C_19
    8  A    between atoms: C_21  and  N_22
    9  A    between atoms: C_21  and  C_26
   10  A    between atoms: N_22  and  C_24
                            x       y       z     vdW  Elec       q    Type
                         _______ _______ _______ _____ _____    ______ ____

>  <TORSDO>
F 10

$$$$
=
 OpenBabel11042417203D

 26 27  0  0  1  0  0  0  0  0999 V2000
  190.0040  175.7360  145.1740 C   0  0  1  0  0  3  0  0  0  0  0  0
  186.3130  177.8250  145.3280 C   0  0  0  0  0  0  0  0  0  0  0  0
  188.2670  177.1220  144.0010 C   0  0  0  0  0  0  0  0  0  0  0  0
  184.9940  178.0350  145.3370 C   0  0  0  0  0  0  0  0  0  0  0  0
  184.2460  178.2420  141.5920 C   0  0  0  0  0  1  0  0  0  0  0  0
  187.1120  178.0790  144.0700 C   0  0  1  0  0  3  0  0  0  0  0  0
  188.3860  177.1940  146.4950 C   0  0  0  0  0  2  0  0  0  0  0  0
  184.2440  177.8810  146.5380 N   0  0  0  0  0  1  0  0  0  0  0  0
  188.8440  176.6290  145.2220 N   0  0  0  0  0  0  0  0  0  0  0  0
  186.2940  178.0330  142.8510 N   0  0  0  0  0  0  0  0  0  0  0  0
  188.7550  176.7930  142.8850 O   0  0  0  0  0  0  0  0  0  0  0  0
  185.0080  178.2250  142.8670 C   0  0  0  0  0  0  0  0  0  0  0  0
  186.9710  177.3790  146.4770 O   0  0  0  0  0  0  0  0  0  0  0  0
  184.3130  178.3260  144.1130 N   0  0  0  0  0  2  0  0  0  0  0  0
  191.2340  176.3530  145.8530 C   0  0  0  0  0  2  0  0  0  0  0  0
  191.8780  177.6510  143.9490 O   0  0  0  0  0  1  0  0  0  0  0  0
  192.3480  176.7290  144.8830 C   0  0  0  0  0  2  0  0  0  0  0  0
  189.6580  174.3350  145.6680 C   0  0  0  0  0  2  0  0  0  0  0  0
  190.3130  173.2860  144.7910 C   0  0  0  0  0  2  0  0  0  0  0  0
  190.3030  173.7370  143.4110 N   0  0  0  0  0  2  0  0  0  0  0  0
  189.7820  172.6350  142.6160 C   0  0  0  0  0  2  0  0  0  0  0  0
  187.7020  173.7740  142.2690 O   0  0  0  0  0  1  0  0  0  0  0  0
  188.7520  173.1300  141.6090 C   0  0  1  0  0  3  0  0  0  0  0  0
  189.3930  174.0660  140.5970 C   0  0  0  0  0  2  0  0  0  0  0  0
  189.3340  173.4630  139.2060 C   0  0  0  0  0  2  0  0  0  0  0  0
  188.1550  172.6270  139.0940 N   0  0  0  0  0  1  0  0  0  0  0  0
  1  9  1  0  0  0  0
  1 18  1  1  0  0  0
  1 15  1  0  0  0  0
  2  4  2  0  0  0  0
  2 13  1  0  0  0  0
  3  6  1  0  0  0  0
  3  9  1  0  0  0  0
  4  8  1  0  0  0  0
  5 12  1  0  0  0  0
  6 10  1  6  0  0  0
  6  2  1  0  0  0  0
  9  7  1  0  0  0  0
 10 12  2  0  0  0  0
 11  3  2  0  0  0  0
 12 14  1  0  0  0  0
 13  7  1  0  0  0  0
 14  4  1  0  0  0  0
 16 17  1  0  0  0  0
 17 15  1  0  0  0  0
 19 18  1  0  0  0  0
 20 19  1  0  0  0  0
 21 20  1  0  0  0  0
 23 22  1  1  0  0  0
 23 21  1  0  0  0  0
 24 23  1  0  0  0  0
 25 24  1  0  0  0  0
 26 25  1  0  0  0  0
M  END
>  <MODEL>
8

>  <REMARK>
 VINA RESULT:      -5.3      2.474      7.116
  Name = 
  10 active torsions:
  status: ('A' for Active; 'I' for Inactive)
    1  A    between atoms: C_3  and  C_23
    2  A    between atoms: C_5  and  C_12
    3  A    between atoms: C_5  and  N_15
    4  A    between atoms: C_5  and  C_26
    5  A    between atoms: C_8  and  C_23
    6  A    between atoms: C_8  and  C_24
    7  A    between atoms: C_12  and  C_19
    8  A    between atoms: C_21  and  N_22
    9  A    between atoms: C_21  and  C_26
   10  A    between atoms: N_22  and  C_24
                            x       y       z     vdW  Elec       q    Type
                         _______ _______ _______ _____ _____    ______ ____

>  <TORSDO>
F 10

$$$$
=
 OpenBabel11042417203D

 26 27  0  0  1  0  0  0  0  0999 V2000
  188.1060  177.5010  142.8830 C   0  0  1  0  0  3  0  0  0  0  0  0
  190.7830  175.8370  145.7250 C   0  0  0  0  0  0  0  0  0  0  0  0
  190.4700  177.0070  143.5780 C   0  0  0  0  0  0  0  0  0  0  0  0
  191.5220  175.7260  146.8320 C   0  0  0  0  0  0  0  0  0  0  0  0
  194.7370  177.4990  145.7620 C   0  0  0  0  0  1  0  0  0  0  0  0
  191.4340  176.2150  144.4130 C   0  0  1  0  0  3  0  0  0  0  0  0
  188.6120  175.6670  144.5770 C   0  0  0  0  0  2  0  0  0  0  0  0
  190.9350  175.2880  148.0540 N   0  0  0  0  0  1  0  0  0  0  0  0
  189.0590  176.7750  143.7260 N   0  0  0  0  0  0  0  0  0  0  0  0
  192.7090  176.9210  144.5900 N   0  0  0  0  0  0  0  0  0  0  0  0
  190.8960  177.8310  142.7240 O   0  0  0  0  0  0  0  0  0  0  0  0
  193.4180  176.8210  145.6740 C   0  0  0  0  0  0  0  0  0  0  0  0
  189.4060  175.5970  145.7600 O   0  0  0  0  0  0  0  0  0  0  0  0
  192.8920  176.1380  146.8150 N   0  0  0  0  0  2  0  0  0  0  0  0
  187.4720  176.5950  141.8180 C   0  0  0  0  0  2  0  0  0  0  0  0
  186.1650  177.7010  140.1460 O   0  0  0  0  0  1  0  0  0  0  0  0
  187.4410  177.2130  140.4250 C   0  0  0  0  0  2  0  0  0  0  0  0
  187.0950  178.2810  143.7170 C   0  0  0  0  0  2  0  0  0  0  0  0
  185.7120  177.6730  143.5780 C   0  0  0  0  0  2  0  0  0  0  0  0
  184.7430  178.5220  144.2480 N   0  0  0  0  0  2  0  0  0  0  0  0
  185.4720  179.2710  145.2590 C   0  0  0  0  0  2  0  0  0  0  0  0
  184.0490  177.9150  146.6300 O   0  0  0  0  0  1  0  0  0  0  0  0
  184.8780  179.0400  146.6420 C   0  0  1  0  0  3  0  0  0  0  0  0
  185.9760  178.8770  147.6810 C   0  0  0  0  0  2  0  0  0  0  0  0
  187.0370  177.9150  147.1830 C   0  0  0  0  0  2  0  0  0  0  0  0
  186.6930  176.5660  147.5910 N   0  0  0  0  0  1  0  0  0  0  0  0
  1 15  1  1  0  0  0
  1 18  1  0  0  0  0
  1  9  1  0  0  0  0
  2 13  1  0  0  0  0
  2  4  2  0  0  0  0
  3  9  1  0  0  0  0
  4  8  1  0  0  0  0
  6  3  1  1  0  0  0
  6 10  1  0  0  0  0
  6  2  1  0  0  0  0
  7 13  1  0  0  0  0
  9  7  1  0  0  0  0
 10 12  2  0  0  0  0
 11  3  2  0  0  0  0
 12  5  1  0  0  0  0
 12 14  1  0  0  0  0
 14  4  1  0  0  0  0
 16 17  1  0  0  0  0
 17 15  1  0  0  0  0
 19 18  1  0  0  0  0
 19 20  1  0  0  0  0
 20 21  1  0  0  0  0
 21 23  1  0  0  0  0
 23 22  1  6  0  0  0
 23 24  1  0  0  0  0
 25 26  1  0  0  0  0
 25 24  1  0  0  0  0
M  END
>  <MODEL>
9

>  <REMARK>
 VINA RESULT:      -5.3      2.051      2.620
  Name = 
  10 active torsions:
  status: ('A' for Active; 'I' for Inactive)
    1  A    between atoms: C_3  and  C_23
    2  A    between atoms: C_5  and  C_12
    3  A    between atoms: C_5  and  N_15
    4  A    between atoms: C_5  and  C_26
    5  A    between atoms: C_8  and  C_23
    6  A    between atoms: C_8  and  C_24
    7  A    between atoms: C_12  and  C_19
    8  A    between atoms: C_21  and  N_22
    9  A    between atoms: C_21  and  C_26
   10  A    between atoms: N_22  and  C_24
                            x       y       z     vdW  Elec       q    Type
                         _______ _______ _______ _____ _____    ______ ____

>  <TORSDO>
F 10

$$$$
