=
 OpenBabel11042416513D

 29 32  0  0  1  0  0  0  0  0999 V2000
  187.3520  176.9450  142.7040 C   0  0  2  0  0  3  0  0  0  0  0  0
  186.1990  177.1460  141.7560 C   0  0  0  0  0  2  0  0  0  0  0  0
  185.2550  178.2590  142.1990 C   0  0  0  0  0  2  0  0  0  0  0  0
  189.6880  174.0050  142.8220 C   0  0  0  0  0  0  0  0  0  0  0  0
  189.2250  175.6600  144.5620 C   0  0  0  0  0  0  0  0  0  0  0  0
  188.8040  177.3600  144.9710 S   0  0  0  0  0  0  0  0  0  0  0  0
  189.1580  175.2590  143.2150 C   0  0  0  0  0  0  0  0  0  0  0  0
  186.1570  178.2010  144.5060 C   0  0  0  0  0  2  0  0  0  0  0  0
  190.2230  173.5350  145.1520 C   0  0  0  0  0  3  0  0  0  0  0  0
  188.3880  176.0430  142.2900 N   0  0  0  0  0  2  0  0  0  0  0  0
  187.3130  177.3970  143.9750 C   0  0  1  0  0  3  0  0  0  0  0  0
  184.8940  178.0520  143.6590 C   0  0  1  0  0  3  0  0  0  0  0  0
  189.7320  174.7860  145.5400 C   0  0  0  0  0  0  0  0  0  0  0  0
  190.2080  173.1550  143.8100 C   0  0  0  0  0  3  0  0  0  0  0  0
  188.5300  172.5780  139.4920 C   0  0  0  0  0  3  0  0  0  0  0  0
  189.6840  173.5360  141.4100 C   0  0  0  0  0  0  0  0  0  0  0  0
  189.6860  172.6970  138.7160 C   0  0  0  0  0  0  0  0  0  0  0  0
  190.8410  173.2420  139.2890 C   0  0  0  0  0  3  0  0  0  0  0  0
  190.8390  173.6590  140.6230 C   0  0  0  0  0  3  0  0  0  0  0  0
  188.5270  172.9970  140.8240 C   0  0  0  0  0  3  0  0  0  0  0  0
  189.4960  173.0710  136.1880 C   0  0  0  0  0  0  0  0  0  0  0  0
  189.5670  172.4460  134.8420 C   0  0  0  0  0  1  0  0  0  0  0  0
  189.2860  174.3100  136.2830 O   0  0  0  0  0  0  0  0  0  0  0  0
  189.6520  172.2510  137.3530 N   0  0  0  0  0  2  0  0  0  0  0  0
  189.8010  175.1990  146.9790 C   0  0  2  0  0  3  0  0  0  0  0  0
  191.2340  175.1670  147.4810 C   0  0  0  0  0  1  0  0  0  0  0  0
  189.0040  174.3670  147.7680 O   0  0  0  0  0  1  0  0  0  0  0  0
  183.8590  179.0780  144.0780 C   0  0  0  0  0  2  0  0  0  0  0  0
  183.6940  179.0570  145.5210 N   0  0  0  0  0  1  0  0  0  0  0  0
  1  2  1  1  0  0  0
  1 11  1  0  0  0  0
  2  3  1  0  0  0  0
  3 12  1  0  0  0  0
  4  7  2  0  0  0  0
  4 14  1  0  0  0  0
  5  6  1  0  0  0  0
  5 13  2  0  0  0  0
  7  5  1  0  0  0  0
  9 13  1  0  0  0  0
 10  1  1  0  0  0  0
 10  7  1  0  0  0  0
 11  8  1  6  0  0  0
 11  6  1  0  0  0  0
 12 28  1  1  0  0  0
 12  8  1  0  0  0  0
 13 25  1  0  0  0  0
 14  9  2  0  0  0  0
 15 20  1  0  0  0  0
 16  4  1  0  0  0  0
 17 18  1  0  0  0  0
 17 15  2  0  0  0  0
 18 19  2  0  0  0  0
 19 16  1  0  0  0  0
 20 16  2  0  0  0  0
 21 23  2  0  0  0  0
 21 24  1  0  0  0  0
 22 21  1  0  0  0  0
 24 17  1  0  0  0  0
 25 26  1  1  0  0  0
 25 27  1  0  0  0  0
 28 29  1  0  0  0  0
M  END
>  <MODEL>
1

>  <REMARK>
 VINA RESULT:      -7.2      0.000      0.000
  Name = 
  4 active torsions:
  status: ('A' for Active; 'I' for Inactive)
    1  A    between atoms: C_1  and  C_24
    2  A    between atoms: C_4  and  C_25
    3  A    between atoms: C_8  and  C_10
    4  A    between atoms: C_14  and  N_29
                            x       y       z     vdW  Elec       q    Type
                         _______ _______ _______ _____ _____    ______ ____

>  <TORSDO>
F 4

$$$$
=
 OpenBabel11042416513D

 29 32  0  0  1  0  0  0  0  0999 V2000
  186.6870  178.0650  142.2360 C   0  0  2  0  0  3  0  0  0  0  0  0
  186.4780  177.6600  140.8000 C   0  0  0  0  0  2  0  0  0  0  0  0
  185.1630  178.1730  140.2240 C   0  0  0  0  0  2  0  0  0  0  0  0
  189.2110  176.6530  144.6330 C   0  0  0  0  0  0  0  0  0  0  0  0
  187.1620  177.8940  145.1260 C   0  0  0  0  0  0  0  0  0  0  0  0
  186.0020  179.1740  144.6270 S   0  0  0  0  0  0  0  0  0  0  0  0
  188.1500  177.4910  144.2090 C   0  0  0  0  0  0  0  0  0  0  0  0
  184.2570  178.6000  142.4920 C   0  0  0  0  0  2  0  0  0  0  0  0
  188.1970  176.5410  146.8460 C   0  0  0  0  0  3  0  0  0  0  0  0
  187.9690  177.7820  142.8140 N   0  0  0  0  0  2  0  0  0  0  0  0
  185.6610  178.4600  143.0180 C   0  0  1  0  0  3  0  0  0  0  0  0
  184.0360  177.8370  141.1860 C   0  0  1  0  0  3  0  0  0  0  0  0
  187.1670  177.3960  146.4410 C   0  0  0  0  0  0  0  0  0  0  0  0
  189.2090  176.1830  145.9550 C   0  0  0  0  0  3  0  0  0  0  0  0
  192.5100  176.5540  142.7440 C   0  0  0  0  0  3  0  0  0  0  0  0
  190.3080  176.2200  143.7260 C   0  0  0  0  0  0  0  0  0  0  0  0
  192.3960  175.3540  142.0370 C   0  0  0  0  0  0  0  0  0  0  0  0
  191.2360  174.5850  142.1810 C   0  0  0  0  0  3  0  0  0  0  0  0
  190.2030  175.0130  143.0190 C   0  0  0  0  0  3  0  0  0  0  0  0
  191.4790  176.9810  143.5840 C   0  0  0  0  0  3  0  0  0  0  0  0
  194.6370  174.2070  141.5630 C   0  0  0  0  0  0  0  0  0  0  0  0
  195.6180  173.8030  140.5220 C   0  0  0  0  0  1  0  0  0  0  0  0
  194.8510  173.8990  142.7650 O   0  0  0  0  0  0  0  0  0  0  0  0
  193.4740  174.9520  141.1800 N   0  0  0  0  0  2  0  0  0  0  0  0
  186.1150  177.8110  147.4250 C   0  0  2  0  0  3  0  0  0  0  0  0
  186.5830  179.0000  148.2450 C   0  0  0  0  0  1  0  0  0  0  0  0
  185.7870  176.7500  148.2710 O   0  0  0  0  0  1  0  0  0  0  0  0
  182.7070  178.2300  140.5700 C   0  0  0  0  0  2  0  0  0  0  0  0
  181.6780  178.2740  141.5940 N   0  0  0  0  0  1  0  0  0  0  0  0
  1  2  1  1  0  0  0
  1 10  1  0  0  0  0
  1 11  1  0  0  0  0
  3  2  1  0  0  0  0
  3 12  1  0  0  0  0
  4 14  1  0  0  0  0
  5 13  2  0  0  0  0
  6  5  1  0  0  0  0
  7  4  2  0  0  0  0
  7  5  1  0  0  0  0
 10  7  1  0  0  0  0
 11  8  1  6  0  0  0
 11  6  1  0  0  0  0
 12 28  1  6  0  0  0
 12  8  1  0  0  0  0
 13  9  1  0  0  0  0
 13 25  1  0  0  0  0
 14  9  2  0  0  0  0
 15 20  1  0  0  0  0
 16  4  1  0  0  0  0
 17 18  1  0  0  0  0
 17 15  2  0  0  0  0
 18 19  2  0  0  0  0
 19 16  1  0  0  0  0
 20 16  2  0  0  0  0
 21 23  2  0  0  0  0
 22 21  1  0  0  0  0
 24 21  1  0  0  0  0
 24 17  1  0  0  0  0
 25 26  1  1  0  0  0
 25 27  1  0  0  0  0
 28 29  1  0  0  0  0
M  END
>  <MODEL>
2

>  <REMARK>
 VINA RESULT:      -7.1      3.554      4.510
  Name = 
  4 active torsions:
  status: ('A' for Active; 'I' for Inactive)
    1  A    between atoms: C_1  and  C_24
    2  A    between atoms: C_4  and  C_25
    3  A    between atoms: C_8  and  C_10
    4  A    between atoms: C_14  and  N_29
                            x       y       z     vdW  Elec       q    Type
                         _______ _______ _______ _____ _____    ______ ____

>  <TORSDO>
F 4

$$$$
=
 OpenBabel11042416513D

 29 32  0  0  1  0  0  0  0  0999 V2000
  191.7440  173.6520  142.3850 C   0  0  2  0  0  3  0  0  0  0  0  0
  190.7070  174.0070  141.3510 C   0  0  0  0  0  2  0  0  0  0  0  0
  191.0040  173.4020  139.9830 C   0  0  0  0  0  2  0  0  0  0  0  0
  192.2290  175.2740  145.7390 C   0  0  0  0  0  0  0  0  0  0  0  0
  193.8110  173.9270  144.4490 C   0  0  0  0  0  0  0  0  0  0  0  0
  194.0680  172.5670  143.3000 S   0  0  0  0  0  0  0  0  0  0  0  0
  192.4950  174.3640  144.6860 C   0  0  0  0  0  0  0  0  0  0  0  0
  193.3660  172.9800  140.6040 C   0  0  0  0  0  2  0  0  0  0  0  0
  194.6180  175.3830  146.2070 C   0  0  0  0  0  3  0  0  0  0  0  0
  191.4660  174.0270  143.7420 N   0  0  0  0  0  2  0  0  0  0  0  0
  192.9730  173.2180  142.0380 C   0  0  1  0  0  3  0  0  0  0  0  0
  192.4480  173.6950  139.6140 C   0  0  1  0  0  3  0  0  0  0  0  0
  194.8810  174.4580  145.1910 C   0  0  0  0  0  0  0  0  0  0  0  0
  193.3090  175.7780  146.4800 C   0  0  0  0  0  3  0  0  0  0  0  0
  189.1040  177.4330  145.9450 C   0  0  0  0  0  3  0  0  0  0  0  0
  190.8580  175.7480  146.0670 C   0  0  0  0  0  0  0  0  0  0  0  0
  188.2350  176.6040  146.6610 C   0  0  0  0  0  0  0  0  0  0  0  0
  188.6790  175.3430  147.0750 C   0  0  0  0  0  3  0  0  0  0  0  0
  189.9770  174.9190  146.7790 C   0  0  0  0  0  3  0  0  0  0  0  0
  190.4010  177.0070  145.6480 C   0  0  0  0  0  3  0  0  0  0  0  0
  185.7890  177.0760  146.0630 C   0  0  0  0  0  0  0  0  0  0  0  0
  184.4650  177.5310  146.5620 C   0  0  0  0  0  1  0  0  0  0  0  0
  185.9030  176.7090  144.8630 O   0  0  0  0  0  0  0  0  0  0  0  0
  186.9130  177.0780  146.9520 N   0  0  0  0  0  2  0  0  0  0  0  0
  196.2890  174.0060  144.9430 C   0  0  2  0  0  3  0  0  0  0  0  0
  196.9500  173.5660  146.2360 C   0  0  0  0  0  1  0  0  0  0  0  0
  197.0350  175.0280  144.3520 O   0  0  0  0  0  1  0  0  0  0  0  0
  192.7210  173.2080  138.2040 C   0  0  0  0  0  2  0  0  0  0  0  0
  191.6200  172.3810  137.7410 N   0  0  0  0  0  1  0  0  0  0  0  0
  1  2  1  6  0  0  0
  1 10  1  0  0  0  0
  3  2  1  0  0  0  0
  4 16  1  0  0  0  0
  4 14  1  0  0  0  0
  5  7  1  0  0  0  0
  5 13  2  0  0  0  0
  6  5  1  0  0  0  0
  7  4  2  0  0  0  0
  9 14  2  0  0  0  0
 10  7  1  0  0  0  0
 11  8  1  6  0  0  0
 11  1  1  0  0  0  0
 11  6  1  0  0  0  0
 12 28  1  6  0  0  0
 12  3  1  0  0  0  0
 12  8  1  0  0  0  0
 13  9  1  0  0  0  0
 15 17  1  0  0  0  0
 16 19  2  0  0  0  0
 17 24  1  0  0  0  0
 17 18  2  0  0  0  0
 19 18  1  0  0  0  0
 20 15  2  0  0  0  0
 20 16  1  0  0  0  0
 21 22  1  0  0  0  0
 21 24  1  0  0  0  0
 23 21  2  0  0  0  0
 25 13  1  0  0  0  0
 25 26  1  1  0  0  0
 27 25  1  0  0  0  0
 29 28  1  0  0  0  0
M  END
>  <MODEL>
3

>  <REMARK>
 VINA RESULT:      -7.0      3.603      8.081
  Name = 
  4 active torsions:
  status: ('A' for Active; 'I' for Inactive)
    1  A    between atoms: C_1  and  C_24
    2  A    between atoms: C_4  and  C_25
    3  A    between atoms: C_8  and  C_10
    4  A    between atoms: C_14  and  N_29
                            x       y       z     vdW  Elec       q    Type
                         _______ _______ _______ _____ _____    ______ ____

>  <TORSDO>
F 4

$$$$
=
 OpenBabel11042416513D

 29 32  0  0  1  0  0  0  0  0999 V2000
  191.0430  172.6380  143.0230 C   0  0  2  0  0  3  0  0  0  0  0  0
  189.9450  172.8230  142.0090 C   0  0  0  0  0  2  0  0  0  0  0  0
  190.0880  171.8980  140.8050 C   0  0  0  0  0  2  0  0  0  0  0  0
  191.9080  174.9480  145.8570 C   0  0  0  0  0  0  0  0  0  0  0  0
  193.2920  173.2210  144.8150 C   0  0  0  0  0  0  0  0  0  0  0  0
  193.3700  171.6180  144.0050 S   0  0  0  0  0  0  0  0  0  0  0  0
  192.0290  173.8010  145.0330 C   0  0  0  0  0  0  0  0  0  0  0  0
  192.4660  171.4510  141.3430 C   0  0  0  0  0  2  0  0  0  0  0  0
  194.3300  174.9770  146.1200 C   0  0  0  0  0  3  0  0  0  0  0  0
  190.9050  173.3360  144.2690 N   0  0  0  0  0  2  0  0  0  0  0  0
  192.2110  172.0420  142.7040 C   0  0  1  0  0  3  0  0  0  0  0  0
  191.5100  171.9860  140.2780 C   0  0  1  0  0  3  0  0  0  0  0  0
  194.4500  173.8260  145.3350 C   0  0  0  0  0  0  0  0  0  0  0  0
  193.0740  175.5240  146.3830 C   0  0  0  0  0  3  0  0  0  0  0  0
  189.0210  177.4240  145.9010 C   0  0  0  0  0  3  0  0  0  0  0  0
  190.5990  175.5880  146.1590 C   0  0  0  0  0  0  0  0  0  0  0  0
  188.0910  176.7610  146.7060 C   0  0  0  0  0  0  0  0  0  0  0  0
  188.4170  175.5070  147.2350 C   0  0  0  0  0  3  0  0  0  0  0  0
  189.6580  174.9250  146.9620 C   0  0  0  0  0  3  0  0  0  0  0  0
  190.2610  176.8420  145.6260 C   0  0  0  0  0  3  0  0  0  0  0  0
  185.6460  177.3050  146.1690 C   0  0  0  0  0  0  0  0  0  0  0  0
  184.3990  177.9610  146.6400 C   0  0  0  0  0  1  0  0  0  0  0  0
  185.6450  176.6950  145.0680 O   0  0  0  0  0  0  0  0  0  0  0  0
  186.8310  177.3930  146.9710 N   0  0  0  0  0  2  0  0  0  0  0  0
  195.8030  173.2220  145.1030 C   0  0  2  0  0  3  0  0  0  0  0  0
  196.7750  173.6430  146.1910 C   0  0  0  0  0  1  0  0  0  0  0  0
  196.3000  173.5950  143.8530 O   0  0  0  0  0  1  0  0  0  0  0  0
  191.6330  171.1680  139.0070 C   0  0  0  0  0  2  0  0  0  0  0  0
  190.3150  170.7640  138.5460 N   0  0  0  0  0  1  0  0  0  0  0  0
  1  2  1  6  0  0  0
  1 10  1  0  0  0  0
  3  2  1  0  0  0  0
  4 16  1  0  0  0  0
  4 14  1  0  0  0  0
  5  7  1  0  0  0  0
  5 13  2  0  0  0  0
  6  5  1  0  0  0  0
  7  4  2  0  0  0  0
  9 14  2  0  0  0  0
 10  7  1  0  0  0  0
 11  8  1  1  0  0  0
 11  1  1  0  0  0  0
 11  6  1  0  0  0  0
 12 28  1  6  0  0  0
 12  3  1  0  0  0  0
 12  8  1  0  0  0  0
 13  9  1  0  0  0  0
 15 17  1  0  0  0  0
 16 19  2  0  0  0  0
 17 24  1  0  0  0  0
 17 18  2  0  0  0  0
 19 18  1  0  0  0  0
 20 15  2  0  0  0  0
 20 16  1  0  0  0  0
 21 22  1  0  0  0  0
 21 24  1  0  0  0  0
 23 21  2  0  0  0  0
 25 13  1  0  0  0  0
 25 26  1  1  0  0  0
 27 25  1  0  0  0  0
 29 28  1  0  0  0  0
M  END
>  <MODEL>
4

>  <REMARK>
 VINA RESULT:      -6.9      3.571      8.099
  Name = 
  4 active torsions:
  status: ('A' for Active; 'I' for Inactive)
    1  A    between atoms: C_1  and  C_24
    2  A    between atoms: C_4  and  C_25
    3  A    between atoms: C_8  and  C_10
    4  A    between atoms: C_14  and  N_29
                            x       y       z     vdW  Elec       q    Type
                         _______ _______ _______ _____ _____    ______ ____

>  <TORSDO>
F 4

$$$$
=
 OpenBabel11042416513D

 29 32  0  0  1  0  0  0  0  0999 V2000
  189.4930  173.8240  141.6900 C   0  0  2  0  0  3  0  0  0  0  0  0
  188.8640  173.5210  140.3540 C   0  0  0  0  0  2  0  0  0  0  0  0
  189.5670  172.3900  139.6110 C   0  0  0  0  0  2  0  0  0  0  0  0
  188.9210  176.8700  143.8120 C   0  0  0  0  0  0  0  0  0  0  0  0
  190.7840  175.2870  143.8800 C   0  0  0  0  0  0  0  0  0  0  0  0
  191.3490  173.5930  143.6690 S   0  0  0  0  0  0  0  0  0  0  0  0
  189.4800  175.6150  143.4660 C   0  0  0  0  0  0  0  0  0  0  0  0
  191.5800  172.6080  141.0410 C   0  0  0  0  0  2  0  0  0  0  0  0
  191.0290  177.4830  144.8690 C   0  0  0  0  0  3  0  0  0  0  0  0
  188.8030  174.7500  142.5410 N   0  0  0  0  0  2  0  0  0  0  0  0
  190.7500  173.4360  141.9860 C   0  0  1  0  0  3  0  0  0  0  0  0
  191.0630  172.6560  139.6040 C   0  0  1  0  0  3  0  0  0  0  0  0
  191.5730  176.2330  144.5580 C   0  0  0  0  0  0  0  0  0  0  0  0
  189.7190  177.7930  144.5070 C   0  0  0  0  0  3  0  0  0  0  0  0
  185.1310  177.1830  143.8030 C   0  0  0  0  0  3  0  0  0  0  0  0
  187.5370  177.2660  143.4390 C   0  0  0  0  0  0  0  0  0  0  0  0
  184.9220  178.0700  142.7430 C   0  0  0  0  0  0  0  0  0  0  0  0
  186.0260  178.5590  142.0350 C   0  0  0  0  0  3  0  0  0  0  0  0
  187.3210  178.1620  142.3810 C   0  0  0  0  0  3  0  0  0  0  0  0
  186.4250  176.7880  144.1500 C   0  0  0  0  0  3  0  0  0  0  0  0
  182.9360  178.2920  141.1410 C   0  0  0  0  0  0  0  0  0  0  0  0
  181.5050  178.6650  140.9980 C   0  0  0  0  0  1  0  0  0  0  0  0
  183.5630  177.8580  140.1390 O   0  0  0  0  0  0  0  0  0  0  0  0
  183.5790  178.4480  142.4120 N   0  0  0  0  0  2  0  0  0  0  0  0
  192.9670  175.8980  144.9990 C   0  0  2  0  0  3  0  0  0  0  0  0
  193.0750  175.9230  146.5130 C   0  0  0  0  0  1  0  0  0  0  0  0
  193.8850  176.7910  144.4430 O   0  0  0  0  0  1  0  0  0  0  0  0
  191.7610  171.6060  138.7620 C   0  0  0  0  0  2  0  0  0  0  0  0
  190.7840  170.8520  137.9950 N   0  0  0  0  0  1  0  0  0  0  0  0
  1  2  1  6  0  0  0
  1 11  1  0  0  0  0
  1 10  1  0  0  0  0
  3  2  1  0  0  0  0
  4 14  1  0  0  0  0
  5 13  2  0  0  0  0
  6  5  1  0  0  0  0
  7  4  2  0  0  0  0
  7  5  1  0  0  0  0
 10  7  1  0  0  0  0
 11  8  1  1  0  0  0
 11  6  1  0  0  0  0
 12 28  1  6  0  0  0
 12  3  1  0  0  0  0
 12  8  1  0  0  0  0
 13  9  1  0  0  0  0
 13 25  1  0  0  0  0
 14  9  2  0  0  0  0
 15 20  1  0  0  0  0
 16  4  1  0  0  0  0
 16 20  2  0  0  0  0
 17 15  2  0  0  0  0
 18 19  2  0  0  0  0
 18 17  1  0  0  0  0
 19 16  1  0  0  0  0
 21 24  1  0  0  0  0
 22 21  1  0  0  0  0
 23 21  2  0  0  0  0
 24 17  1  0  0  0  0
 25 26  1  1  0  0  0
 27 25  1  0  0  0  0
 29 28  1  0  0  0  0
M  END
>  <MODEL>
5

>  <REMARK>
 VINA RESULT:      -6.7      2.744      6.978
  Name = 
  4 active torsions:
  status: ('A' for Active; 'I' for Inactive)
    1  A    between atoms: C_1  and  C_24
    2  A    between atoms: C_4  and  C_25
    3  A    between atoms: C_8  and  C_10
    4  A    between atoms: C_14  and  N_29
                            x       y       z     vdW  Elec       q    Type
                         _______ _______ _______ _____ _____    ______ ____

>  <TORSDO>
F 4

$$$$
=
 OpenBabel11042416513D

 29 32  0  0  1  0  0  0  0  0999 V2000
  187.9980  176.5660  143.4440 C   0  0  2  0  0  3  0  0  0  0  0  0
  186.6120  176.3340  142.9010 C   0  0  0  0  0  2  0  0  0  0  0  0
  185.5640  177.2350  143.5450 C   0  0  0  0  0  2  0  0  0  0  0  0
  190.9930  174.3400  143.0100 C   0  0  0  0  0  0  0  0  0  0  0  0
  190.6080  176.0740  144.6910 C   0  0  0  0  0  0  0  0  0  0  0  0
  189.8650  177.6610  145.0970 S   0  0  0  0  0  0  0  0  0  0  0  0
  190.2700  175.4710  143.4660 C   0  0  0  0  0  0  0  0  0  0  0  0
  187.0720  177.7480  145.4450 C   0  0  0  0  0  2  0  0  0  0  0  0
  192.2860  174.3720  145.0740 C   0  0  0  0  0  3  0  0  0  0  0  0
  189.0790  175.8930  142.7830 N   0  0  0  0  0  2  0  0  0  0  0  0
  188.2020  177.1810  144.6270 C   0  0  1  0  0  3  0  0  0  0  0  0
  185.7130  177.1680  145.0550 C   0  0  1  0  0  3  0  0  0  0  0  0
  191.5980  175.5080  145.5130 C   0  0  0  0  0  0  0  0  0  0  0  0
  191.9910  173.8020  143.8360 C   0  0  0  0  0  3  0  0  0  0  0  0
  191.3310  173.1580  139.4110 C   0  0  0  0  0  3  0  0  0  0  0  0
  190.7130  173.6770  141.7080 C   0  0  0  0  0  0  0  0  0  0  0  0
  190.1860  172.3690  139.2630 C   0  0  0  0  0  0  0  0  0  0  0  0
  189.3070  172.2320  140.3440 C   0  0  0  0  0  3  0  0  0  0  0  0
  189.5700  172.8780  141.5550 C   0  0  0  0  0  3  0  0  0  0  0  0
  191.5940  173.8010  140.6220 C   0  0  0  0  0  3  0  0  0  0  0  0
  189.4240  172.3420  136.8170 C   0  0  0  0  0  0  0  0  0  0  0  0
  189.3180  171.5420  135.5700 C   0  0  0  0  0  1  0  0  0  0  0  0
  189.0390  173.5410  136.8160 O   0  0  0  0  0  0  0  0  0  0  0  0
  189.9470  171.7280  138.0020 N   0  0  0  0  0  2  0  0  0  0  0  0
  191.9620  176.1370  146.8250 C   0  0  2  0  0  3  0  0  0  0  0  0
  193.4530  176.4150  146.8940 C   0  0  0  0  0  1  0  0  0  0  0  0
  191.5830  175.3130  147.8860 O   0  0  0  0  0  1  0  0  0  0  0  0
  184.5990  177.9600  145.7120 C   0  0  0  0  0  2  0  0  0  0  0  0
  184.9450  178.2570  147.0910 N   0  0  0  0  0  1  0  0  0  0  0  0
  1  2  1  1  0  0  0
  1 11  1  0  0  0  0
  2  3  1  0  0  0  0
  3 12  1  0  0  0  0
  4  7  2  0  0  0  0
  4 14  1  0  0  0  0
  5  6  1  0  0  0  0
  5 13  2  0  0  0  0
  7  5  1  0  0  0  0
  9 13  1  0  0  0  0
 10  1  1  0  0  0  0
 10  7  1  0  0  0  0
 11  6  1  0  0  0  0
 11  8  1  6  0  0  0
 12  8  1  0  0  0  0
 12 28  1  1  0  0  0
 13 25  1  0  0  0  0
 14  9  2  0  0  0  0
 15 20  1  0  0  0  0
 16  4  1  0  0  0  0
 17 15  2  0  0  0  0
 17 18  1  0  0  0  0
 18 19  2  0  0  0  0
 19 16  1  0  0  0  0
 20 16  2  0  0  0  0
 21 24  1  0  0  0  0
 22 21  1  0  0  0  0
 23 21  2  0  0  0  0
 24 17  1  0  0  0  0
 25 26  1  6  0  0  0
 25 27  1  0  0  0  0
 28 29  1  0  0  0  0
M  END
>  <MODEL>
6

>  <REMARK>
 VINA RESULT:      -6.7      1.454      1.795
  Name = 
  4 active torsions:
  status: ('A' for Active; 'I' for Inactive)
    1  A    between atoms: C_1  and  C_24
    2  A    between atoms: C_4  and  C_25
    3  A    between atoms: C_8  and  C_10
    4  A    between atoms: C_14  and  N_29
                            x       y       z     vdW  Elec       q    Type
                         _______ _______ _______ _____ _____    ______ ____

>  <TORSDO>
F 4

$$$$
=
 OpenBabel11042416513D

 29 32  0  0  1  0  0  0  0  0999 V2000
  190.2400  173.0310  142.2590 C   0  0  2  0  0  3  0  0  0  0  0  0
  189.2430  173.6030  141.2850 C   0  0  0  0  0  2  0  0  0  0  0  0
  189.2610  172.8950  139.9340 C   0  0  0  0  0  2  0  0  0  0  0  0
  191.4010  174.5900  145.4740 C   0  0  0  0  0  0  0  0  0  0  0  0
  192.4770  172.8390  144.1480 C   0  0  0  0  0  0  0  0  0  0  0  0
  192.2850  171.4200  143.0600 S   0  0  0  0  0  0  0  0  0  0  0  0
  191.3390  173.6060  144.4560 C   0  0  0  0  0  0  0  0  0  0  0  0
  191.4850  171.9060  140.4040 C   0  0  0  0  0  2  0  0  0  0  0  0
  193.7700  174.1000  145.7600 C   0  0  0  0  0  3  0  0  0  0  0  0
  190.1820  173.5110  143.6100 N   0  0  0  0  0  2  0  0  0  0  0  0
  191.2870  172.2860  141.8470 C   0  0  1  0  0  3  0  0  0  0  0  0
  190.6960  172.7970  139.4450 C   0  0  1  0  0  3  0  0  0  0  0  0
  193.7050  173.1050  144.7790 C   0  0  0  0  0  0  0  0  0  0  0  0
  192.6310  174.8260  146.1060 C   0  0  0  0  0  3  0  0  0  0  0  0
  188.8660  177.4180  145.6730 C   0  0  0  0  0  3  0  0  0  0  0  0
  190.2260  175.4090  145.8760 C   0  0  0  0  0  0  0  0  0  0  0  0
  187.9620  176.9230  146.6170 C   0  0  0  0  0  0  0  0  0  0  0  0
  188.1910  175.6650  147.1870 C   0  0  0  0  0  3  0  0  0  0  0  0
  189.3110  174.9150  146.8180 C   0  0  0  0  0  3  0  0  0  0  0  0
  189.9830  176.6670  145.3020 C   0  0  0  0  0  3  0  0  0  0  0  0
  185.5260  177.6800  146.3820 C   0  0  0  0  0  0  0  0  0  0  0  0
  184.4420  178.5300  146.9380 C   0  0  0  0  0  1  0  0  0  0  0  0
  185.2860  176.9440  145.3880 O   0  0  0  0  0  0  0  0  0  0  0  0
  186.8290  177.7260  146.9770 N   0  0  0  0  0  2  0  0  0  0  0  0
  194.9280  172.3000  144.4540 C   0  0  2  0  0  3  0  0  0  0  0  0
  195.5530  171.7350  145.7160 C   0  0  0  0  0  1  0  0  0  0  0  0
  195.8620  173.0810  143.7700 O   0  0  0  0  0  1  0  0  0  0  0  0
  190.7170  172.2080  138.0480 C   0  0  0  0  0  2  0  0  0  0  0  0
  191.9390  171.4490  137.8460 N   0  0  0  0  0  1  0  0  0  0  0  0
  1  2  1  6  0  0  0
  1 10  1  0  0  0  0
  3  2  1  0  0  0  0
  4 16  1  0  0  0  0
  4 14  1  0  0  0  0
  5  7  1  0  0  0  0
  5 13  2  0  0  0  0
  6  5  1  0  0  0  0
  7  4  2  0  0  0  0
  9 14  2  0  0  0  0
 10  7  1  0  0  0  0
 11  8  1  6  0  0  0
 11  1  1  0  0  0  0
 11  6  1  0  0  0  0
 12 28  1  6  0  0  0
 12  3  1  0  0  0  0
 12  8  1  0  0  0  0
 13  9  1  0  0  0  0
 15 17  1  0  0  0  0
 16 19  2  0  0  0  0
 17 24  1  0  0  0  0
 17 18  2  0  0  0  0
 19 18  1  0  0  0  0
 20 15  2  0  0  0  0
 20 16  1  0  0  0  0
 21 22  1  0  0  0  0
 21 24  1  0  0  0  0
 23 21  2  0  0  0  0
 25 13  1  0  0  0  0
 25 26  1  1  0  0  0
 27 25  1  0  0  0  0
 29 28  1  0  0  0  0
M  END
>  <MODEL>
7

>  <REMARK>
 VINA RESULT:      -6.6      3.367      7.915
  Name = 
  4 active torsions:
  status: ('A' for Active; 'I' for Inactive)
    1  A    between atoms: C_1  and  C_24
    2  A    between atoms: C_4  and  C_25
    3  A    between atoms: C_8  and  C_10
    4  A    between atoms: C_14  and  N_29
                            x       y       z     vdW  Elec       q    Type
                         _______ _______ _______ _____ _____    ______ ____

>  <TORSDO>
F 4

$$$$
=
 OpenBabel11042416513D

 29 32  0  0  1  0  0  0  0  0999 V2000
  193.3600  175.4400  144.2610 C   0  0  2  0  0  3  0  0  0  0  0  0
  193.6150  175.5830  145.7390 C   0  0  0  0  0  2  0  0  0  0  0  0
  195.0630  175.2920  146.1220 C   0  0  0  0  0  2  0  0  0  0  0  0
  190.0180  175.2220  142.5600 C   0  0  0  0  0  0  0  0  0  0  0  0
  192.2090  174.5330  141.7190 C   0  0  0  0  0  0  0  0  0  0  0  0
  193.9840  174.8220  141.6830 S   0  0  0  0  0  0  0  0  0  0  0  0
  191.4320  175.2530  142.6450 C   0  0  0  0  0  0  0  0  0  0  0  0
  195.4700  174.1280  143.9720 C   0  0  0  0  0  2  0  0  0  0  0  0
  190.1950  173.6520  140.7050 C   0  0  0  0  0  3  0  0  0  0  0  0
  192.0770  175.8600  143.7760 N   0  0  0  0  0  2  0  0  0  0  0  0
  194.1930  174.7410  143.4620 C   0  0  1  0  0  3  0  0  0  0  0  0
  195.4870  173.9760  145.4930 C   0  0  1  0  0  3  0  0  0  0  0  0
  191.5910  173.7070  140.7640 C   0  0  0  0  0  0  0  0  0  0  0  0
  189.4210  174.4060  141.5860 C   0  0  0  0  0  3  0  0  0  0  0  0
  188.1470  176.3330  145.6790 C   0  0  0  0  0  3  0  0  0  0  0  0
  189.1380  175.9890  143.4820 C   0  0  0  0  0  0  0  0  0  0  0  0
  187.5030  177.4880  145.2270 C   0  0  0  0  0  0  0  0  0  0  0  0
  187.6830  177.8950  143.9000 C   0  0  0  0  0  3  0  0  0  0  0  0
  188.4950  177.1540  143.0370 C   0  0  0  0  0  3  0  0  0  0  0  0
  188.9600  175.5940  144.8180 C   0  0  0  0  0  3  0  0  0  0  0  0
  185.3840  177.8220  146.6270 C   0  0  0  0  0  0  0  0  0  0  0  0
  184.6960  178.6660  147.6380 C   0  0  0  0  0  1  0  0  0  0  0  0
  184.8170  176.7790  146.2050 O   0  0  0  0  0  0  0  0  0  0  0  0
  186.6720  178.2190  146.1400 N   0  0  0  0  0  2  0  0  0  0  0  0
  192.4080  172.9280  139.7770 C   0  0  2  0  0  3  0  0  0  0  0  0
  191.6750  172.7960  138.4540 C   0  0  0  0  0  1  0  0  0  0  0  0
  192.7110  171.6610  140.2800 O   0  0  0  0  0  1  0  0  0  0  0  0
  196.8810  173.6120  145.9660 C   0  0  0  0  0  2  0  0  0  0  0  0
  197.8720  174.1350  145.0420 N   0  0  0  0  0  1  0  0  0  0  0  0
  1  2  1  1  0  0  0
  2  3  1  0  0  0  0
  4  7  1  0  0  0  0
  4 16  1  0  0  0  0
  5  7  2  0  0  0  0
  6  5  1  0  0  0  0
  6 11  1  0  0  0  0
  7 10  1  0  0  0  0
  8 12  1  0  0  0  0
  9 13  2  0  0  0  0
  9 14  1  0  0  0  0
 10  1  1  0  0  0  0
 11  8  1  6  0  0  0
 11  1  1  0  0  0  0
 12 28  1  1  0  0  0
 12  3  1  0  0  0  0
 13  5  1  0  0  0  0
 14  4  2  0  0  0  0
 16 20  1  0  0  0  0
 17 15  1  0  0  0  0
 17 24  1  0  0  0  0
 18 17  2  0  0  0  0
 19 16  2  0  0  0  0
 19 18  1  0  0  0  0
 20 15  2  0  0  0  0
 21 22  1  0  0  0  0
 23 21  2  0  0  0  0
 24 21  1  0  0  0  0
 25 26  1  6  0  0  0
 25 27  1  0  0  0  0
 25 13  1  0  0  0  0
 29 28  1  0  0  0  0
M  END
>  <MODEL>
8

>  <REMARK>
 VINA RESULT:      -6.5      3.800      8.660
  Name = 
  4 active torsions:
  status: ('A' for Active; 'I' for Inactive)
    1  A    between atoms: C_1  and  C_24
    2  A    between atoms: C_4  and  C_25
    3  A    between atoms: C_8  and  C_10
    4  A    between atoms: C_14  and  N_29
                            x       y       z     vdW  Elec       q    Type
                         _______ _______ _______ _____ _____    ______ ____

>  <TORSDO>
F 4

$$$$
=
 OpenBabel11042416513D

 29 32  0  0  1  0  0  0  0  0999 V2000
  187.7730  176.7500  142.3510 C   0  0  2  0  0  3  0  0  0  0  0  0
  186.7770  176.8450  141.2250 C   0  0  0  0  0  2  0  0  0  0  0  0
  185.7050  177.9030  141.4690 C   0  0  0  0  0  2  0  0  0  0  0  0
  190.2400  173.9810  142.9510 C   0  0  0  0  0  0  0  0  0  0  0  0
  189.4000  175.6480  144.5300 C   0  0  0  0  0  0  0  0  0  0  0  0
  188.8130  177.3260  144.8020 S   0  0  0  0  0  0  0  0  0  0  0  0
  189.5760  175.2060  143.2060 C   0  0  0  0  0  0  0  0  0  0  0  0
  186.2260  177.9710  143.8920 C   0  0  0  0  0  2  0  0  0  0  0  0
  190.4220  173.6140  145.3520 C   0  0  0  0  0  3  0  0  0  0  0  0
  188.9170  175.9090  142.1410 N   0  0  0  0  0  2  0  0  0  0  0  0
  187.5020  177.2340  143.5810 C   0  0  1  0  0  3  0  0  0  0  0  0
  185.1280  177.7120  142.8610 C   0  0  1  0  0  3  0  0  0  0  0  0
  189.7970  174.8380  145.6090 C   0  0  0  0  0  0  0  0  0  0  0  0
  190.6470  173.1960  144.0410 C   0  0  0  0  0  3  0  0  0  0  0  0
  191.8070  173.4490  139.5260 C   0  0  0  0  0  3  0  0  0  0  0  0
  190.4920  173.4730  141.5750 C   0  0  0  0  0  0  0  0  0  0  0  0
  190.9800  172.4590  138.9870 C   0  0  0  0  0  0  0  0  0  0  0  0
  189.9110  171.9730  139.7490 C   0  0  0  0  0  3  0  0  0  0  0  0
  189.6710  172.4740  141.0310 C   0  0  0  0  0  3  0  0  0  0  0  0
  191.5680  173.9480  140.8080 C   0  0  0  0  0  3  0  0  0  0  0  0
  192.0250  170.8170  137.3200 C   0  0  0  0  0  0  0  0  0  0  0  0
  192.1370  170.4140  135.8950 C   0  0  0  0  0  1  0  0  0  0  0  0
  192.6220  170.1430  138.2010 O   0  0  0  0  0  0  0  0  0  0  0  0
  191.2530  171.9750  137.6650 N   0  0  0  0  0  2  0  0  0  0  0  0
  189.6080  175.2950  147.0250 C   0  0  2  0  0  3  0  0  0  0  0  0
  190.9450  175.4320  147.7300 C   0  0  0  0  0  1  0  0  0  0  0  0
  188.7920  174.4030  147.7230 O   0  0  0  0  0  1  0  0  0  0  0  0
  183.9770  178.6770  143.0710 C   0  0  0  0  0  2  0  0  0  0  0  0
  182.8830  178.3470  142.1740 N   0  0  0  0  0  1  0  0  0  0  0  0
  1  2  1  1  0  0  0
  1 11  1  0  0  0  0
  2  3  1  0  0  0  0
  3 12  1  0  0  0  0
  4  7  2  0  0  0  0
  4 14  1  0  0  0  0
  5  6  1  0  0  0  0
  5 13  2  0  0  0  0
  7  5  1  0  0  0  0
  9 13  1  0  0  0  0
 10  1  1  0  0  0  0
 10  7  1  0  0  0  0
 11  8  1  6  0  0  0
 11  6  1  0  0  0  0
 12 28  1  1  0  0  0
 12  8  1  0  0  0  0
 13 25  1  0  0  0  0
 14  9  2  0  0  0  0
 15 20  1  0  0  0  0
 16  4  1  0  0  0  0
 17 15  2  0  0  0  0
 17 18  1  0  0  0  0
 18 19  2  0  0  0  0
 19 16  1  0  0  0  0
 20 16  2  0  0  0  0
 21 24  1  0  0  0  0
 21 23  2  0  0  0  0
 22 21  1  0  0  0  0
 24 17  1  0  0  0  0
 25 27  1  0  0  0  0
 25 26  1  1  0  0  0
 29 28  1  0  0  0  0
M  END
>  <MODEL>
9

>  <REMARK>
 VINA RESULT:      -6.5      1.694      1.927
  Name = 
  4 active torsions:
  status: ('A' for Active; 'I' for Inactive)
    1  A    between atoms: C_1  and  C_24
    2  A    between atoms: C_4  and  C_25
    3  A    between atoms: C_8  and  C_10
    4  A    between atoms: C_14  and  N_29
                            x       y       z     vdW  Elec       q    Type
                         _______ _______ _______ _____ _____    ______ ____

>  <TORSDO>
F 4

$$$$
