=
 OpenBabel11042418353D

 37 41  0  0  1  0  0  0  0  0999 V2000
  191.3990  172.5170  140.0030 C   0  0  0  0  0  2  0  0  0  0  0  0
  190.7870  174.4640  144.3350 C   0  0  1  0  0  3  0  0  0  0  0  0
  190.6590  173.4210  142.2010 C   0  0  0  0  0  0  0  0  0  0  0  0
  192.0780  173.9560  143.8820 N   0  0  0  0  0  0  0  0  0  0  0  0
  189.7900  174.0560  143.2370 C   0  0  2  0  0  3  0  0  0  0  0  0
  192.4770  171.8740  140.7600 N   0  0  0  0  0  2  0  0  0  0  0  0
  190.1970  172.7950  140.9180 C   0  0  0  0  0  2  0  0  0  0  0  0
  193.0110  172.8250  141.7420 C   0  0  0  0  0  2  0  0  0  0  0  0
  191.9070  173.3540  142.6130 C   0  0  0  0  0  0  0  0  0  0  0  0
  188.7790  177.2200  142.0050 O   0  0  0  0  0  0  0  0  0  0  0  0
  189.1010  175.2690  142.6980 C   0  0  0  0  0  0  0  0  0  0  0  0
  189.7240  176.4300  142.4110 N   0  0  0  0  0  0  0  0  0  0  0  0
  187.6310  176.5900  142.0420 C   0  0  0  0  0  0  0  0  0  0  0  0
  187.7710  175.3250  142.4830 N   0  0  0  0  0  0  0  0  0  0  0  0
  184.1390  178.0940  141.4390 C   0  0  0  0  0  0  0  0  0  0  0  0
  186.3510  177.1850  141.6560 C   0  0  0  0  0  0  0  0  0  0  0  0
  186.0670  177.6050  140.4030 N   0  0  0  0  0  0  0  0  0  0  0  0
  185.0480  177.4310  142.6940 S   0  0  0  0  0  0  0  0  0  0  0  0
  184.8400  178.1110  140.2830 N   0  0  0  0  0  0  0  0  0  0  0  0
  182.2840  179.0040  142.8000 O   0  0  0  0  0  1  0  0  0  0  0  0
  182.0210  178.6540  140.5530 O   0  0  0  0  0  0  0  0  0  0  0  0
  182.7690  178.5940  141.5650 C   0  0  0  0  0  0  0  0  0  0  0  0
  193.3570  174.4240  144.3960 C   0  0  0  0  0  2  0  0  0  0  0  0
  195.6520  174.1030  145.5990 C   0  0  0  0  0  1  0  0  0  0  0  0
  194.1380  173.1240  145.3970 S   0  0  0  0  0  0  0  0  0  0  0  0
  190.3870  173.8170  145.6540 C   0  0  0  0  0  2  0  0  0  0  0  0
  186.0830  177.5690  146.3670 C   0  0  0  0  0  0  0  0  0  0  0  0
  190.6330  176.2040  146.2800 C   0  0  0  0  0  0  0  0  0  0  0  0
  191.7310  176.7160  146.8260 C   0  0  0  0  0  2  0  0  0  0  0  0
  188.7140  175.0200  146.9470 N   0  0  0  0  0  0  0  0  0  0  0  0
  190.1410  174.8670  146.7280 C   0  0  1  0  0  3  0  0  0  0  0  0
  186.6560  178.5290  145.7870 O   0  0  0  0  0  0  0  0  0  0  0  0
  188.1980  176.1340  146.5420 C   0  0  0  0  0  0  0  0  0  0  0  0
  186.8040  176.3930  146.7520 N   0  0  0  0  0  2  0  0  0  0  0  0
  189.3180  177.2870  145.7480 S   0  0  0  0  0  0  0  0  0  0  0  0
  184.0170  178.8240  145.9190 C   0  0  0  0  0  1  0  0  0  0  0  0
  184.6330  177.6690  146.6840 C   0  0  0  0  0  2  0  0  0  0  0  0
  1  6  1  0  0  0  0
  1  7  1  0  0  0  0
  2 26  1  1  0  0  0
  3  9  2  0  0  0  0
  3  5  1  0  0  0  0
  4  2  1  0  0  0  0
  4 23  1  0  0  0  0
  5 11  1  6  0  0  0
  5  2  1  0  0  0  0
  6  8  1  0  0  0  0
  7  3  1  0  0  0  0
  8  9  1  0  0  0  0
  9  4  1  0  0  0  0
 10 13  1  0  0  0  0
 10 12  1  0  0  0  0
 12 11  2  0  0  0  0
 13 14  2  0  0  0  0
 14 11  1  0  0  0  0
 15 22  1  0  0  0  0
 15 18  1  0  0  0  0
 16 13  1  0  0  0  0
 16 18  1  0  0  0  0
 17 16  2  0  0  0  0
 19 17  1  0  0  0  0
 19 15  2  0  0  0  0
 21 22  2  0  0  0  0
 22 20  1  0  0  0  0
 23 25  1  0  0  0  0
 25 24  1  0  0  0  0
 27 37  1  0  0  0  0
 27 34  1  0  0  0  0
 28 31  1  0  0  0  0
 28 29  2  0  0  0  0
 31 26  1  6  0  0  0
 31 30  1  0  0  0  0
 32 27  2  0  0  0  0
 33 34  1  0  0  0  0
 33 30  2  0  0  0  0
 35 28  1  0  0  0  0
 35 33  1  0  0  0  0
 36 37  1  0  0  0  0
M  END
>  <MODEL>
1

>  <REMARK>
 VINA RESULT:      -7.1      0.000      0.000
  Name = 
  8 active torsions:
  status: ('A' for Active; 'I' for Inactive)
    1  A    between atoms: C_1  and  C_10
    2  A    between atoms: C_6  and  C_32
    3  A    between atoms: C_11  and  C_24
    4  A    between atoms: C_12  and  C_31
    5  A    between atoms: C_13  and  C_35
    6  A    between atoms: C_17  and  C_35
    7  A    between atoms: N_23  and  C_28
    8  A    between atoms: C_28  and  S_37
                            x       y       z     vdW  Elec       q    Type
                         _______ _______ _______ _____ _____    ______ ____

>  <TORSDO>
F 8

$$$$
=
 OpenBabel11042418353D

 37 41  0  0  1  0  0  0  0  0999 V2000
  185.1440  178.2790  147.1270 C   0  0  0  0  0  2  0  0  0  0  0  0
  187.6230  176.6910  143.3500 C   0  0  1  0  0  3  0  0  0  0  0  0
  186.5260  177.1090  145.4190 C   0  0  0  0  0  0  0  0  0  0  0  0
  186.5310  177.6510  143.2200 N   0  0  0  0  0  0  0  0  0  0  0  0
  187.6010  176.2570  144.8260 C   0  0  2  0  0  3  0  0  0  0  0  0
  184.1660  178.4550  146.0490 N   0  0  0  0  0  2  0  0  0  0  0  0
  186.0440  177.0680  146.8400 C   0  0  0  0  0  2  0  0  0  0  0  0
  184.8680  178.8380  144.8180 C   0  0  0  0  0  2  0  0  0  0  0  0
  185.9390  177.8360  144.4920 C   0  0  0  0  0  0  0  0  0  0  0  0
  190.3720  177.2850  146.7780 O   0  0  0  0  0  0  0  0  0  0  0  0
  188.9260  176.5360  145.4600 C   0  0  0  0  0  0  0  0  0  0  0  0
  189.0890  177.2540  146.5890 N   0  0  0  0  0  0  0  0  0  0  0  0
  190.9740  176.6280  145.8180 C   0  0  0  0  0  0  0  0  0  0  0  0
  190.0950  176.1210  144.9320 N   0  0  0  0  0  0  0  0  0  0  0  0
  194.7280  176.1340  145.1200 C   0  0  0  0  0  0  0  0  0  0  0  0
  192.4250  176.4660  145.7150 C   0  0  0  0  0  0  0  0  0  0  0  0
  193.2670  176.5510  146.7680 N   0  0  0  0  0  0  0  0  0  0  0  0
  193.2620  176.1480  144.2880 S   0  0  0  0  0  0  0  0  0  0  0  0
  194.5440  176.3670  146.4380 N   0  0  0  0  0  0  0  0  0  0  0  0
  196.5670  176.8190  143.6130 O   0  0  0  0  0  0  0  0  0  0  0  0
  196.6960  174.8650  144.7990 O   0  0  0  0  0  1  0  0  0  0  0  0
  196.0390  175.9010  144.5110 C   0  0  0  0  0  0  0  0  0  0  0  0
  186.4130  178.5980  142.1210 C   0  0  0  0  0  2  0  0  0  0  0  0
  186.2150  177.5040  139.7590 C   0  0  0  0  0  1  0  0  0  0  0  0
  185.0560  178.1040  141.0190 S   0  0  0  0  0  0  0  0  0  0  0  0
  187.3840  175.4810  142.4580 C   0  0  0  0  0  2  0  0  0  0  0  0
  189.1530  172.9070  137.6250 C   0  0  0  0  0  0  0  0  0  0  0  0
  188.5770  173.3100  142.3240 C   0  0  0  0  0  0  0  0  0  0  0  0
  189.1960  172.7410  143.3530 C   0  0  0  0  0  2  0  0  0  0  0  0
  188.9920  174.9650  140.7060 N   0  0  0  0  0  0  0  0  0  0  0  0
  188.6940  174.7840  142.1160 C   0  0  1  0  0  3  0  0  0  0  0  0
  188.8120  171.7450  137.9700 O   0  0  0  0  0  0  0  0  0  0  0  0
  188.8950  173.9080  139.9690 C   0  0  0  0  0  0  0  0  0  0  0  0
  189.2090  173.9790  138.5730 N   0  0  0  0  0  2  0  0  0  0  0  0
  188.3760  172.4050  140.7990 S   0  0  0  0  0  0  0  0  0  0  0  0
  189.4160  171.8890  135.4030 C   0  0  0  0  0  1  0  0  0  0  0  0
  189.5340  173.1660  136.2110 C   0  0  0  0  0  2  0  0  0  0  0  0
  2 26  1  6  0  0  0
  2  5  1  0  0  0  0
  3  7  1  0  0  0  0
  4  2  1  0  0  0  0
  4  9  1  0  0  0  0
  5  3  1  0  0  0  0
  5 11  1  1  0  0  0
  6  1  1  0  0  0  0
  7  1  1  0  0  0  0
  8  6  1  0  0  0  0
  9  8  1  0  0  0  0
  9  3  2  0  0  0  0
 11 12  2  0  0  0  0
 12 10  1  0  0  0  0
 13 10  1  0  0  0  0
 14 11  1  0  0  0  0
 14 13  2  0  0  0  0
 15 19  2  0  0  0  0
 16 13  1  0  0  0  0
 16 17  2  0  0  0  0
 18 15  1  0  0  0  0
 18 16  1  0  0  0  0
 19 17  1  0  0  0  0
 20 22  2  0  0  0  0
 22 21  1  0  0  0  0
 22 15  1  0  0  0  0
 23  4  1  0  0  0  0
 24 25  1  0  0  0  0
 25 23  1  0  0  0  0
 27 32  2  0  0  0  0
 27 34  1  0  0  0  0
 28 29  2  0  0  0  0
 30 31  1  0  0  0  0
 31 28  1  0  0  0  0
 31 26  1  6  0  0  0
 33 30  2  0  0  0  0
 33 35  1  0  0  0  0
 34 33  1  0  0  0  0
 35 28  1  0  0  0  0
 36 37  1  0  0  0  0
 37 27  1  0  0  0  0
M  END
>  <MODEL>
2

>  <REMARK>
 VINA RESULT:      -7.1      3.468      9.093
  Name = 
  8 active torsions:
  status: ('A' for Active; 'I' for Inactive)
    1  A    between atoms: C_1  and  C_10
    2  A    between atoms: C_6  and  C_32
    3  A    between atoms: C_11  and  C_24
    4  A    between atoms: C_12  and  C_31
    5  A    between atoms: C_13  and  C_35
    6  A    between atoms: C_17  and  C_35
    7  A    between atoms: N_23  and  C_28
    8  A    between atoms: C_28  and  S_37
                            x       y       z     vdW  Elec       q    Type
                         _______ _______ _______ _____ _____    ______ ____

>  <TORSDO>
F 8

$$$$
=
 OpenBabel11042418353D

 37 41  0  0  1  0  0  0  0  0999 V2000
  185.2670  177.7640  140.7390 C   0  0  0  0  0  2  0  0  0  0  0  0
  188.1930  176.4200  144.2830 C   0  0  1  0  0  3  0  0  0  0  0  0
  187.1090  177.1300  142.2890 C   0  0  0  0  0  0  0  0  0  0  0  0
  186.8600  176.9590  144.5330 N   0  0  0  0  0  0  0  0  0  0  0  0
  188.4140  176.5840  142.7700 C   0  0  2  0  0  3  0  0  0  0  0  0
  184.7760  178.5930  141.8440 N   0  0  0  0  0  2  0  0  0  0  0  0
  186.7780  177.5260  140.8800 C   0  0  0  0  0  2  0  0  0  0  0  0
  184.8860  177.8390  143.0990 C   0  0  0  0  0  2  0  0  0  0  0  0
  186.2940  177.3550  143.2980 C   0  0  0  0  0  0  0  0  0  0  0  0
  188.4800  173.2690  141.5230 O   0  0  0  0  0  0  0  0  0  0  0  0
  188.7070  175.2550  142.1500 C   0  0  0  0  0  0  0  0  0  0  0  0
  187.8330  174.2300  142.1080 N   0  0  0  0  0  0  0  0  0  0  0  0
  189.6900  173.6710  141.2240 C   0  0  0  0  0  0  0  0  0  0  0  0
  189.9010  174.9460  141.6050 N   0  0  0  0  0  0  0  0  0  0  0  0
  192.0850  171.1410  139.5850 C   0  0  0  0  0  0  0  0  0  0  0  0
  190.6950  172.8390  140.5600 C   0  0  0  0  0  0  0  0  0  0  0  0
  191.8140  173.3310  139.9840 N   0  0  0  0  0  0  0  0  0  0  0  0
  190.6190  171.1630  140.4150 S   0  0  0  0  0  0  0  0  0  0  0  0
  192.5850  172.3890  139.4420 N   0  0  0  0  0  0  0  0  0  0  0  0
  192.8700  168.8140  139.8820 O   0  0  0  0  0  1  0  0  0  0  0  0
  193.2070  169.9170  137.9040 O   0  0  0  0  0  0  0  0  0  0  0  0
  192.7460  169.9380  139.0760 C   0  0  0  0  0  0  0  0  0  0  0  0
  186.0830  176.6720  145.7310 C   0  0  0  0  0  2  0  0  0  0  0  0
  184.3030  178.3170  146.7010 C   0  0  0  0  0  1  0  0  0  0  0  0
  186.0990  178.1110  146.8400 S   0  0  0  0  0  0  0  0  0  0  0  0
  189.2460  177.2170  145.0420 C   0  0  0  0  0  2  0  0  0  0  0  0
  192.8320  172.9710  143.5490 C   0  0  0  0  0  0  0  0  0  0  0  0
  189.4260  175.0110  146.1600 C   0  0  0  0  0  0  0  0  0  0  0  0
  188.9640  174.7590  147.3810 C   0  0  0  0  0  2  0  0  0  0  0  0
  191.3250  175.9590  145.1490 N   0  0  0  0  0  0  0  0  0  0  0  0
  190.1220  176.3030  145.8870 C   0  0  1  0  0  3  0  0  0  0  0  0
  191.9960  172.0410  143.7010 O   0  0  0  0  0  0  0  0  0  0  0  0
  191.4120  174.7320  144.7520 C   0  0  0  0  0  0  0  0  0  0  0  0
  192.5810  174.2880  144.0530 N   0  0  0  0  0  2  0  0  0  0  0  0
  190.0220  173.6690  145.1440 S   0  0  0  0  0  0  0  0  0  0  0  0
  194.6440  173.9550  142.2110 C   0  0  0  0  0  1  0  0  0  0  0  0
  194.1180  172.6890  142.8580 C   0  0  0  0  0  2  0  0  0  0  0  0
  1  7  1  0  0  0  0
  1  6  1  0  0  0  0
  2  4  1  0  0  0  0
  2 26  1  1  0  0  0
  3  5  1  0  0  0  0
  3  9  2  0  0  0  0
  4 23  1  0  0  0  0
  5 11  1  6  0  0  0
  5  2  1  0  0  0  0
  6  8  1  0  0  0  0
  7  3  1  0  0  0  0
  8  9  1  0  0  0  0
  9  4  1  0  0  0  0
 10 12  1  0  0  0  0
 12 11  2  0  0  0  0
 13 10  1  0  0  0  0
 13 14  2  0  0  0  0
 14 11  1  0  0  0  0
 15 18  1  0  0  0  0
 16 13  1  0  0  0  0
 17 16  2  0  0  0  0
 18 16  1  0  0  0  0
 19 15  2  0  0  0  0
 19 17  1  0  0  0  0
 21 22  2  0  0  0  0
 22 15  1  0  0  0  0
 22 20  1  0  0  0  0
 23 25  1  0  0  0  0
 24 25  1  0  0  0  0
 27 32  2  0  0  0  0
 27 34  1  0  0  0  0
 28 29  2  0  0  0  0
 30 31  1  0  0  0  0
 31 26  1  6  0  0  0
 31 28  1  0  0  0  0
 33 35  1  0  0  0  0
 33 30  2  0  0  0  0
 34 33  1  0  0  0  0
 35 28  1  0  0  0  0
 36 37  1  0  0  0  0
 37 27  1  0  0  0  0
M  END
>  <MODEL>
3

>  <REMARK>
 VINA RESULT:      -6.9      3.190      7.892
  Name = 
  8 active torsions:
  status: ('A' for Active; 'I' for Inactive)
    1  A    between atoms: C_1  and  C_10
    2  A    between atoms: C_6  and  C_32
    3  A    between atoms: C_11  and  C_24
    4  A    between atoms: C_12  and  C_31
    5  A    between atoms: C_13  and  C_35
    6  A    between atoms: C_17  and  C_35
    7  A    between atoms: N_23  and  C_28
    8  A    between atoms: C_28  and  S_37
                            x       y       z     vdW  Elec       q    Type
                         _______ _______ _______ _____ _____    ______ ____

>  <TORSDO>
F 8

$$$$
=
 OpenBabel11042418353D

 37 41  0  0  1  0  0  0  0  0999 V2000
  195.6800  171.3070  145.2840 C   0  0  0  0  0  2  0  0  0  0  0  0
  192.7130  175.0640  145.2550 C   0  0  1  0  0  3  0  0  0  0  0  0
  193.8380  172.9750  145.4170 C   0  0  0  0  0  0  0  0  0  0  0  0
  194.1620  175.2150  145.3300 N   0  0  0  0  0  0  0  0  0  0  0  0
  192.4600  173.5520  145.3760 C   0  0  2  0  0  3  0  0  0  0  0  0
  196.4890  172.3140  145.9760 N   0  0  0  0  0  2  0  0  0  0  0  0
  194.1890  171.5250  145.5780 C   0  0  0  0  0  2  0  0  0  0  0  0
  196.2180  173.6340  145.3930 C   0  0  0  0  0  2  0  0  0  0  0  0
  194.7450  173.9280  145.4250 C   0  0  0  0  0  0  0  0  0  0  0  0
  190.5220  171.8510  142.9470 O   0  0  0  0  0  0  0  0  0  0  0  0
  191.7020  173.0630  144.1830 C   0  0  0  0  0  0  0  0  0  0  0  0
  190.9880  171.9210  144.1560 N   0  0  0  0  0  0  0  0  0  0  0  0
  190.9280  172.8900  142.2590 C   0  0  0  0  0  0  0  0  0  0  0  0
  191.6970  173.7100  143.0000 N   0  0  0  0  0  0  0  0  0  0  0  0
  189.6430  173.6120  138.7020 C   0  0  0  0  0  0  0  0  0  0  0  0
  190.5930  173.1300  140.8540 C   0  0  0  0  0  0  0  0  0  0  0  0
  191.4750  172.9980  139.8400 N   0  0  0  0  0  0  0  0  0  0  0  0
  189.0770  173.5980  140.2900 S   0  0  0  0  0  0  0  0  0  0  0  0
  190.9480  173.2660  138.6460 N   0  0  0  0  0  0  0  0  0  0  0  0
  187.6870  174.7130  137.6610 O   0  0  0  0  0  1  0  0  0  0  0  0
  189.1930  173.5550  136.3830 O   0  0  0  0  0  0  0  0  0  0  0  0
  188.8410  173.9520  137.5250 C   0  0  0  0  0  0  0  0  0  0  0  0
  194.8770  176.4020  144.8850 C   0  0  0  0  0  2  0  0  0  0  0  0
  196.9200  176.7790  143.3040 C   0  0  0  0  0  1  0  0  0  0  0  0
  195.1800  176.3100  143.0960 S   0  0  0  0  0  0  0  0  0  0  0  0
  192.0360  175.7890  146.4100 C   0  0  0  0  0  2  0  0  0  0  0  0
  186.4040  176.8190  145.8250 C   0  0  0  0  0  0  0  0  0  0  0  0
  190.9580  176.8990  144.4720 C   0  0  0  0  0  0  0  0  0  0  0  0
  191.6140  177.6380  143.5830 C   0  0  0  0  0  2  0  0  0  0  0  0
  190.0160  177.1300  146.6130 N   0  0  0  0  0  0  0  0  0  0  0  0
  191.2890  177.0230  145.9220 C   0  0  1  0  0  3  0  0  0  0  0  0
  186.3440  176.5000  144.6090 O   0  0  0  0  0  0  0  0  0  0  0  0
  188.9640  176.9080  145.8950 C   0  0  0  0  0  0  0  0  0  0  0  0
  187.6610  177.0300  146.4790 N   0  0  0  0  0  2  0  0  0  0  0  0
  189.2500  176.4700  144.1800 S   0  0  0  0  0  0  0  0  0  0  0  0
  184.4480  178.2750  146.1330 C   0  0  0  0  0  1  0  0  0  0  0  0
  185.1450  177.0100  146.5930 C   0  0  0  0  0  2  0  0  0  0  0  0
  1  7  1  0  0  0  0
  1  6  1  0  0  0  0
  2  4  1  0  0  0  0
  2  5  1  0  0  0  0
  2 26  1  1  0  0  0
  3  9  2  0  0  0  0
  3  7  1  0  0  0  0
  4  9  1  0  0  0  0
  5 11  1  6  0  0  0
  5  3  1  0  0  0  0
  8  9  1  0  0  0  0
  8  6  1  0  0  0  0
 10 12  1  0  0  0  0
 12 11  2  0  0  0  0
 13 10  1  0  0  0  0
 13 14  2  0  0  0  0
 14 11  1  0  0  0  0
 15 18  1  0  0  0  0
 16 13  1  0  0  0  0
 17 16  2  0  0  0  0
 18 16  1  0  0  0  0
 19 15  2  0  0  0  0
 19 17  1  0  0  0  0
 21 22  2  0  0  0  0
 22 20  1  0  0  0  0
 22 15  1  0  0  0  0
 23  4  1  0  0  0  0
 25 24  1  0  0  0  0
 25 23  1  0  0  0  0
 27 34  1  0  0  0  0
 27 37  1  0  0  0  0
 28 31  1  0  0  0  0
 29 28  2  0  0  0  0
 31 26  1  1  0  0  0
 31 30  1  0  0  0  0
 32 27  2  0  0  0  0
 33 34  1  0  0  0  0
 33 30  2  0  0  0  0
 35 28  1  0  0  0  0
 35 33  1  0  0  0  0
 36 37  1  0  0  0  0
M  END
>  <MODEL>
4

>  <REMARK>
 VINA RESULT:      -6.9      3.177      4.944
  Name = 
  8 active torsions:
  status: ('A' for Active; 'I' for Inactive)
    1  A    between atoms: C_1  and  C_10
    2  A    between atoms: C_6  and  C_32
    3  A    between atoms: C_11  and  C_24
    4  A    between atoms: C_12  and  C_31
    5  A    between atoms: C_13  and  C_35
    6  A    between atoms: C_17  and  C_35
    7  A    between atoms: N_23  and  C_28
    8  A    between atoms: C_28  and  S_37
                            x       y       z     vdW  Elec       q    Type
                         _______ _______ _______ _____ _____    ______ ____

>  <TORSDO>
F 8

$$$$
=
 OpenBabel11042418353D

 37 41  0  0  1  0  0  0  0  0999 V2000
  184.5880  178.1130  141.8850 C   0  0  0  0  0  2  0  0  0  0  0  0
  188.2270  176.7170  144.6670 C   0  0  1  0  0  3  0  0  0  0  0  0
  186.7290  177.4690  142.9790 C   0  0  0  0  0  0  0  0  0  0  0  0
  186.9720  177.2180  145.2170 N   0  0  0  0  0  0  0  0  0  0  0  0
  188.1150  176.9360  143.1480 C   0  0  2  0  0  3  0  0  0  0  0  0
  184.3350  178.8940  143.1000 N   0  0  0  0  0  2  0  0  0  0  0  0
  186.0960  177.9030  141.6900 C   0  0  0  0  0  2  0  0  0  0  0  0
  184.7230  178.1020  144.2730 C   0  0  0  0  0  2  0  0  0  0  0  0
  186.1470  177.6430  144.1470 C   0  0  0  0  0  0  0  0  0  0  0  0
  187.8990  173.7080  141.7040 O   0  0  0  0  0  0  0  0  0  0  0  0
  188.2860  175.6350  142.4310 C   0  0  0  0  0  0  0  0  0  0  0  0
  187.3510  174.6650  142.3880 N   0  0  0  0  0  0  0  0  0  0  0  0
  189.1100  174.0600  141.3470 C   0  0  0  0  0  0  0  0  0  0  0  0
  189.4210  175.2940  141.7880 N   0  0  0  0  0  0  0  0  0  0  0  0
  191.1850  171.8300  138.9920 C   0  0  0  0  0  0  0  0  0  0  0  0
  190.0170  173.2170  140.5670 C   0  0  0  0  0  0  0  0  0  0  0  0
  191.2440  172.8420  140.9930 N   0  0  0  0  0  0  0  0  0  0  0  0
  189.6800  172.5880  139.0420 S   0  0  0  0  0  0  0  0  0  0  0  0
  191.8910  172.0730  140.1190 N   0  0  0  0  0  0  0  0  0  0  0  0
  190.8430  170.6940  136.8210 O   0  0  0  0  0  0  0  0  0  0  0  0
  192.8680  170.5940  137.8860 O   0  0  0  0  0  1  0  0  0  0  0  0
  191.6790  171.0130  137.8830 C   0  0  0  0  0  0  0  0  0  0  0  0
  186.4750  176.8760  146.5420 C   0  0  0  0  0  2  0  0  0  0  0  0
  184.8920  178.6400  147.6370 C   0  0  0  0  0  1  0  0  0  0  0  0
  186.6720  178.2920  147.6640 S   0  0  0  0  0  0  0  0  0  0  0  0
  189.4070  177.5120  145.2100 C   0  0  0  0  0  2  0  0  0  0  0  0
  194.3170  174.7270  144.0940 C   0  0  0  0  0  0  0  0  0  0  0  0
  189.9570  175.2000  145.9210 C   0  0  0  0  0  0  0  0  0  0  0  0
  189.3170  174.5510  146.8890 C   0  0  0  0  0  2  0  0  0  0  0  0
  191.6780  176.7850  145.6930 N   0  0  0  0  0  0  0  0  0  0  0  0
  190.2900  176.6450  146.0970 C   0  0  1  0  0  3  0  0  0  0  0  0
  193.7770  173.6210  143.8280 O   0  0  0  0  0  0  0  0  0  0  0  0
  192.2080  175.7510  145.1260 C   0  0  0  0  0  0  0  0  0  0  0  0
  193.5850  175.7810  144.7300 N   0  0  0  0  0  2  0  0  0  0  0  0
  191.1360  174.3320  144.9000 S   0  0  0  0  0  0  0  0  0  0  0  0
  196.0420  176.4140  143.6260 C   0  0  0  0  0  1  0  0  0  0  0  0
  195.7540  174.9330  143.7690 C   0  0  0  0  0  2  0  0  0  0  0  0
  1  6  1  0  0  0  0
  2 26  1  1  0  0  0
  2  4  1  0  0  0  0
  3  5  1  0  0  0  0
  3  9  2  0  0  0  0
  4 23  1  0  0  0  0
  5 11  1  6  0  0  0
  5  2  1  0  0  0  0
  6  8  1  0  0  0  0
  7  1  1  0  0  0  0
  7  3  1  0  0  0  0
  9  8  1  0  0  0  0
  9  4  1  0  0  0  0
 10 12  1  0  0  0  0
 12 11  2  0  0  0  0
 13 10  1  0  0  0  0
 13 14  2  0  0  0  0
 14 11  1  0  0  0  0
 15 18  1  0  0  0  0
 15 19  2  0  0  0  0
 16 17  2  0  0  0  0
 16 13  1  0  0  0  0
 18 16  1  0  0  0  0
 19 17  1  0  0  0  0
 20 22  2  0  0  0  0
 22 21  1  0  0  0  0
 22 15  1  0  0  0  0
 23 25  1  0  0  0  0
 24 25  1  0  0  0  0
 27 34  1  0  0  0  0
 28 31  1  0  0  0  0
 28 29  2  0  0  0  0
 30 31  1  0  0  0  0
 31 26  1  6  0  0  0
 32 27  2  0  0  0  0
 33 30  2  0  0  0  0
 34 33  1  0  0  0  0
 35 33  1  0  0  0  0
 35 28  1  0  0  0  0
 36 37  1  0  0  0  0
 37 27  1  0  0  0  0
M  END
>  <MODEL>
5

>  <REMARK>
 VINA RESULT:      -6.8      3.198      7.773
  Name = 
  8 active torsions:
  status: ('A' for Active; 'I' for Inactive)
    1  A    between atoms: C_1  and  C_10
    2  A    between atoms: C_6  and  C_32
    3  A    between atoms: C_11  and  C_24
    4  A    between atoms: C_12  and  C_31
    5  A    between atoms: C_13  and  C_35
    6  A    between atoms: C_17  and  C_35
    7  A    between atoms: N_23  and  C_28
    8  A    between atoms: C_28  and  S_37
                            x       y       z     vdW  Elec       q    Type
                         _______ _______ _______ _____ _____    ______ ____

>  <TORSDO>
F 8

$$$$
=
 OpenBabel11042418353D

 37 41  0  0  1  0  0  0  0  0999 V2000
  185.1150  177.8640  147.5710 C   0  0  0  0  0  2  0  0  0  0  0  0
  187.6520  176.7460  143.6670 C   0  0  1  0  0  3  0  0  0  0  0  0
  186.5450  176.9220  145.7650 C   0  0  0  0  0  0  0  0  0  0  0  0
  186.5130  177.6560  143.6230 N   0  0  0  0  0  0  0  0  0  0  0  0
  187.6590  176.1810  145.0980 C   0  0  2  0  0  3  0  0  0  0  0  0
  184.1240  178.0850  146.5130 N   0  0  0  0  0  2  0  0  0  0  0  0
  186.0730  176.7310  147.1770 C   0  0  0  0  0  2  0  0  0  0  0  0
  184.7990  178.6110  145.3210 C   0  0  0  0  0  2  0  0  0  0  0  0
  185.9180  177.6980  144.9070 C   0  0  0  0  0  0  0  0  0  0  0  0
  190.4120  177.3320  147.0090 O   0  0  0  0  0  0  0  0  0  0  0  0
  188.9720  176.4690  145.7540 C   0  0  0  0  0  0  0  0  0  0  0  0
  189.1410  177.3620  146.7500 N   0  0  0  0  0  0  0  0  0  0  0  0
  191.0020  176.4730  146.2150 C   0  0  0  0  0  0  0  0  0  0  0  0
  190.1260  175.8830  145.3780 N   0  0  0  0  0  0  0  0  0  0  0  0
  194.6950  175.4200  145.9520 C   0  0  0  0  0  0  0  0  0  0  0  0
  192.4370  176.1890  146.2290 C   0  0  0  0  0  0  0  0  0  0  0  0
  193.3220  176.8350  147.0200 N   0  0  0  0  0  0  0  0  0  0  0  0
  193.2010  175.0260  145.2790 S   0  0  0  0  0  0  0  0  0  0  0  0
  194.5750  176.4090  146.8660 N   0  0  0  0  0  0  0  0  0  0  0  0
  196.6700  175.1950  144.4780 O   0  0  0  0  0  0  0  0  0  0  0  0
  196.4340  173.8640  146.3270 O   0  0  0  0  0  1  0  0  0  0  0  0
  195.9690  174.7850  145.6050 C   0  0  0  0  0  0  0  0  0  0  0  0
  186.3420  178.6900  142.6130 C   0  0  0  0  0  2  0  0  0  0  0  0
  185.9990  177.9140  140.1440 C   0  0  0  0  0  1  0  0  0  0  0  0
  184.9210  178.2930  141.5520 S   0  0  0  0  0  0  0  0  0  0  0  0
  187.4700  175.6080  142.6710 C   0  0  0  0  0  2  0  0  0  0  0  0
  189.6490  171.4340  139.3630 C   0  0  0  0  0  0  0  0  0  0  0  0
  189.8740  175.2620  142.1690 C   0  0  0  0  0  0  0  0  0  0  0  0
  190.8080  176.1930  142.3380 C   0  0  0  0  0  2  0  0  0  0  0  0
  188.2550  174.6500  140.5770 N   0  0  0  0  0  0  0  0  0  0  0  0
  188.5480  175.6420  141.5970 C   0  0  1  0  0  3  0  0  0  0  0  0
  190.6290  171.1800  140.1110 O   0  0  0  0  0  0  0  0  0  0  0  0
  189.0480  173.6300  140.5390 C   0  0  0  0  0  0  0  0  0  0  0  0
  188.8630  172.6190  139.5400 N   0  0  0  0  0  2  0  0  0  0  0  0
  190.3520  173.5890  141.7690 S   0  0  0  0  0  0  0  0  0  0  0  0
  190.1870  170.7990  137.0500 C   0  0  0  0  0  1  0  0  0  0  0  0
  189.3160  170.5000  138.2540 C   0  0  0  0  0  2  0  0  0  0  0  0
  2 26  1  6  0  0  0
  2  5  1  0  0  0  0
  3  7  1  0  0  0  0
  4  2  1  0  0  0  0
  4  9  1  0  0  0  0
  5 11  1  1  0  0  0
  5  3  1  0  0  0  0
  6  1  1  0  0  0  0
  7  1  1  0  0  0  0
  8  6  1  0  0  0  0
  9  8  1  0  0  0  0
  9  3  2  0  0  0  0
 11 12  2  0  0  0  0
 12 10  1  0  0  0  0
 13 16  1  0  0  0  0
 13 10  1  0  0  0  0
 14 11  1  0  0  0  0
 14 13  2  0  0  0  0
 15 19  2  0  0  0  0
 16 17  2  0  0  0  0
 18 15  1  0  0  0  0
 18 16  1  0  0  0  0
 19 17  1  0  0  0  0
 20 22  2  0  0  0  0
 22 15  1  0  0  0  0
 22 21  1  0  0  0  0
 23  4  1  0  0  0  0
 24 25  1  0  0  0  0
 25 23  1  0  0  0  0
 27 34  1  0  0  0  0
 27 32  2  0  0  0  0
 28 29  2  0  0  0  0
 30 31  1  0  0  0  0
 31 28  1  0  0  0  0
 31 26  1  1  0  0  0
 33 30  2  0  0  0  0
 33 35  1  0  0  0  0
 34 33  1  0  0  0  0
 35 28  1  0  0  0  0
 36 37  1  0  0  0  0
 37 27  1  0  0  0  0
M  END
>  <MODEL>
6

>  <REMARK>
 VINA RESULT:      -6.7      3.432      9.113
  Name = 
  8 active torsions:
  status: ('A' for Active; 'I' for Inactive)
    1  A    between atoms: C_1  and  C_10
    2  A    between atoms: C_6  and  C_32
    3  A    between atoms: C_11  and  C_24
    4  A    between atoms: C_12  and  C_31
    5  A    between atoms: C_13  and  C_35
    6  A    between atoms: C_17  and  C_35
    7  A    between atoms: N_23  and  C_28
    8  A    between atoms: C_28  and  S_37
                            x       y       z     vdW  Elec       q    Type
                         _______ _______ _______ _____ _____    ______ ____

>  <TORSDO>
F 8

$$$$
=
 OpenBabel11042418353D

 37 41  0  0  1  0  0  0  0  0999 V2000
  192.0870  173.3200  138.1980 C   0  0  0  0  0  2  0  0  0  0  0  0
  193.0390  174.7630  142.6630 C   0  0  1  0  0  3  0  0  0  0  0  0
  192.3640  173.7090  140.6410 C   0  0  0  0  0  0  0  0  0  0  0  0
  193.8410  175.1830  141.5200 N   0  0  0  0  0  0  0  0  0  0  0  0
  192.0660  173.7100  142.1050 C   0  0  2  0  0  3  0  0  0  0  0  0
  193.5220  173.6050  138.1060 N   0  0  0  0  0  2  0  0  0  0  0  0
  191.7300  172.8250  139.6070 C   0  0  0  0  0  2  0  0  0  0  0  0
  193.8420  174.7550  138.9610 C   0  0  0  0  0  2  0  0  0  0  0  0
  193.3730  174.5080  140.3670 C   0  0  0  0  0  0  0  0  0  0  0  0
  188.6060  174.0230  142.7990 O   0  0  0  0  0  0  0  0  0  0  0  0
  190.6550  174.1270  142.3710 C   0  0  0  0  0  0  0  0  0  0  0  0
  189.6580  173.2740  142.6790 N   0  0  0  0  0  0  0  0  0  0  0  0
  188.9290  175.2730  142.5730 C   0  0  0  0  0  0  0  0  0  0  0  0
  190.2390  175.4070  142.2880 N   0  0  0  0  0  0  0  0  0  0  0  0
  186.1510  177.9250  142.8470 C   0  0  0  0  0  0  0  0  0  0  0  0
  187.9840  176.3900  142.6190 C   0  0  0  0  0  0  0  0  0  0  0  0
  188.2890  177.6470  142.2310 N   0  0  0  0  0  0  0  0  0  0  0  0
  186.3890  176.2840  143.1500 S   0  0  0  0  0  0  0  0  0  0  0  0
  187.2730  178.4990  142.3580 N   0  0  0  0  0  0  0  0  0  0  0  0
  183.7270  178.2370  142.4610 O   0  0  0  0  0  0  0  0  0  0  0  0
  184.8830  179.6560  143.8370 O   0  0  0  0  0  1  0  0  0  0  0  0
  184.9010  178.6510  143.0780 C   0  0  0  0  0  0  0  0  0  0  0  0
  194.6170  176.4140  141.4840 C   0  0  0  0  0  2  0  0  0  0  0  0
  196.9270  176.6690  142.6730 C   0  0  0  0  0  1  0  0  0  0  0  0
  196.3480  176.0470  141.0710 S   0  0  0  0  0  0  0  0  0  0  0  0
  193.9180  174.1280  143.7330 C   0  0  0  0  0  2  0  0  0  0  0  0
  189.1900  176.2860  146.2040 C   0  0  0  0  0  0  0  0  0  0  0  0
  193.7710  176.2870  144.9460 C   0  0  0  0  0  0  0  0  0  0  0  0
  194.8270  176.9470  145.4120 C   0  0  0  0  0  2  0  0  0  0  0  0
  192.3810  174.5010  145.5820 N   0  0  0  0  0  0  0  0  0  0  0  0
  193.7110  174.8010  145.0830 C   0  0  1  0  0  3  0  0  0  0  0  0
  189.3790  177.4710  145.8240 O   0  0  0  0  0  0  0  0  0  0  0  0
  191.5490  175.4900  145.6010 C   0  0  0  0  0  0  0  0  0  0  0  0
  190.2250  175.3000  146.1150 N   0  0  0  0  0  2  0  0  0  0  0  0
  192.1610  177.0550  144.9750 S   0  0  0  0  0  0  0  0  0  0  0  0
  186.9560  177.1140  146.8110 C   0  0  0  0  0  1  0  0  0  0  0  0
  187.8740  175.9080  146.7850 C   0  0  0  0  0  2  0  0  0  0  0  0
  1  7  1  0  0  0  0
  2 26  1  1  0  0  0
  3  5  1  0  0  0  0
  4  2  1  0  0  0  0
  5 11  1  6  0  0  0
  5  2  1  0  0  0  0
  6  1  1  0  0  0  0
  6  8  1  0  0  0  0
  7  3  1  0  0  0  0
  8  9  1  0  0  0  0
  9  3  2  0  0  0  0
  9  4  1  0  0  0  0
 11 12  2  0  0  0  0
 12 10  1  0  0  0  0
 13 16  1  0  0  0  0
 13 10  1  0  0  0  0
 14 11  1  0  0  0  0
 14 13  2  0  0  0  0
 15 22  1  0  0  0  0
 15 18  1  0  0  0  0
 16 18  1  0  0  0  0
 17 19  1  0  0  0  0
 17 16  2  0  0  0  0
 19 15  2  0  0  0  0
 20 22  2  0  0  0  0
 22 21  1  0  0  0  0
 23  4  1  0  0  0  0
 25 23  1  0  0  0  0
 25 24  1  0  0  0  0
 27 37  1  0  0  0  0
 28 35  1  0  0  0  0
 28 31  1  0  0  0  0
 28 29  2  0  0  0  0
 30 33  2  0  0  0  0
 31 26  1  6  0  0  0
 31 30  1  0  0  0  0
 32 27  2  0  0  0  0
 33 34  1  0  0  0  0
 34 27  1  0  0  0  0
 35 33  1  0  0  0  0
 37 36  1  0  0  0  0
M  END
>  <MODEL>
7

>  <REMARK>
 VINA RESULT:      -6.6      2.353      3.208
  Name = 
  8 active torsions:
  status: ('A' for Active; 'I' for Inactive)
    1  A    between atoms: C_1  and  C_10
    2  A    between atoms: C_6  and  C_32
    3  A    between atoms: C_11  and  C_24
    4  A    between atoms: C_12  and  C_31
    5  A    between atoms: C_13  and  C_35
    6  A    between atoms: C_17  and  C_35
    7  A    between atoms: N_23  and  C_28
    8  A    between atoms: C_28  and  S_37
                            x       y       z     vdW  Elec       q    Type
                         _______ _______ _______ _____ _____    ______ ____

>  <TORSDO>
F 8

$$$$
=
 OpenBabel11042418353D

 37 41  0  0  1  0  0  0  0  0999 V2000
  189.1840  173.0290  137.4330 C   0  0  0  0  0  2  0  0  0  0  0  0
  190.7800  172.5190  141.9190 C   0  0  1  0  0  3  0  0  0  0  0  0
  189.5900  172.7840  139.8770 C   0  0  0  0  0  0  0  0  0  0  0  0
  191.5530  172.0820  140.7610 N   0  0  0  0  0  0  0  0  0  0  0  0
  189.4140  172.9430  141.3520 C   0  0  2  0  0  3  0  0  0  0  0  0
  190.0980  171.8930  137.2830 N   0  0  0  0  0  2  0  0  0  0  0  0
  188.5420  173.0180  138.8280 C   0  0  0  0  0  2  0  0  0  0  0  0
  191.2420  172.0710  138.1850 C   0  0  0  0  0  2  0  0  0  0  0  0
  190.7700  172.2740  139.5970 C   0  0  0  0  0  0  0  0  0  0  0  0
  189.4230  176.3900  142.1660 O   0  0  0  0  0  0  0  0  0  0  0  0
  189.1300  174.3650  141.7150 C   0  0  0  0  0  0  0  0  0  0  0  0
  190.0700  175.3270  141.8010 N   0  0  0  0  0  0  0  0  0  0  0  0
  188.1510  176.1050  142.3040 C   0  0  0  0  0  0  0  0  0  0  0  0
  187.8970  174.8110  142.0290 N   0  0  0  0  0  0  0  0  0  0  0  0
  185.2650  178.3130  143.5760 C   0  0  0  0  0  0  0  0  0  0  0  0
  187.1300  177.0710  142.7120 C   0  0  0  0  0  0  0  0  0  0  0  0
  187.1550  178.3780  142.3720 N   0  0  0  0  0  0  0  0  0  0  0  0
  185.7780  176.7090  143.6500 S   0  0  0  0  0  0  0  0  0  0  0  0
  186.1210  179.0670  142.8520 N   0  0  0  0  0  0  0  0  0  0  0  0
  182.9190  179.0890  143.4470 O   0  0  0  0  0  0  0  0  0  0  0  0
  184.0340  179.0670  145.4470 O   0  0  0  0  0  1  0  0  0  0  0  0
  184.0530  178.8390  144.2080 C   0  0  0  0  0  0  0  0  0  0  0  0
  193.0030  171.9580  140.7550 C   0  0  0  0  0  2  0  0  0  0  0  0
  195.3400  173.0080  140.2520 C   0  0  0  0  0  1  0  0  0  0  0  0
  193.7670  173.5970  140.9370 S   0  0  0  0  0  0  0  0  0  0  0  0
  190.5910  171.3730  142.9030 C   0  0  0  0  0  2  0  0  0  0  0  0
  189.7020  176.3220  145.7010 C   0  0  0  0  0  0  0  0  0  0  0  0
  192.2420  172.5470  144.3330 C   0  0  0  0  0  0  0  0  0  0  0  0
  193.3290  171.9700  144.8370 C   0  0  0  0  0  2  0  0  0  0  0  0
  189.9490  172.7280  144.8190 N   0  0  0  0  0  0  0  0  0  0  0  0
  190.9490  171.8010  144.3190 C   0  0  1  0  0  3  0  0  0  0  0  0
  190.8290  176.8190  145.4390 O   0  0  0  0  0  0  0  0  0  0  0  0
  190.3360  173.9530  144.9590 C   0  0  0  0  0  0  0  0  0  0  0  0
  189.4310  174.9320  145.4850 N   0  0  0  0  0  2  0  0  0  0  0  0
  192.0270  174.3130  144.4820 S   0  0  0  0  0  0  0  0  0  0  0  0
  187.5800  176.3340  146.9410 C   0  0  0  0  0  1  0  0  0  0  0  0
  188.6380  177.1900  146.2740 C   0  0  0  0  0  2  0  0  0  0  0  0
  1  7  1  0  0  0  0
  2 26  1  1  0  0  0
  3  5  1  0  0  0  0
  4  2  1  0  0  0  0
  5 11  1  6  0  0  0
  5  2  1  0  0  0  0
  6  1  1  0  0  0  0
  6  8  1  0  0  0  0
  7  3  1  0  0  0  0
  8  9  1  0  0  0  0
  9  3  2  0  0  0  0
  9  4  1  0  0  0  0
 10 13  1  0  0  0  0
 11 12  2  0  0  0  0
 11 14  1  0  0  0  0
 12 10  1  0  0  0  0
 13 16  1  0  0  0  0
 14 13  2  0  0  0  0
 15 18  1  0  0  0  0
 15 22  1  0  0  0  0
 16 18  1  0  0  0  0
 17 16  2  0  0  0  0
 17 19  1  0  0  0  0
 19 15  2  0  0  0  0
 20 22  2  0  0  0  0
 22 21  1  0  0  0  0
 23  4  1  0  0  0  0
 23 25  1  0  0  0  0
 24 25  1  0  0  0  0
 27 37  1  0  0  0  0
 28 35  1  0  0  0  0
 28 29  2  0  0  0  0
 30 33  2  0  0  0  0
 31 26  1  6  0  0  0
 31 28  1  0  0  0  0
 31 30  1  0  0  0  0
 32 27  2  0  0  0  0
 33 34  1  0  0  0  0
 34 27  1  0  0  0  0
 35 33  1  0  0  0  0
 37 36  1  0  0  0  0
M  END
>  <MODEL>
8

>  <REMARK>
 VINA RESULT:      -6.5      2.148      3.443
  Name = 
  8 active torsions:
  status: ('A' for Active; 'I' for Inactive)
    1  A    between atoms: C_1  and  C_10
    2  A    between atoms: C_6  and  C_32
    3  A    between atoms: C_11  and  C_24
    4  A    between atoms: C_12  and  C_31
    5  A    between atoms: C_13  and  C_35
    6  A    between atoms: C_17  and  C_35
    7  A    between atoms: N_23  and  C_28
    8  A    between atoms: C_28  and  S_37
                            x       y       z     vdW  Elec       q    Type
                         _______ _______ _______ _____ _____    ______ ____

>  <TORSDO>
F 8

$$$$
=
 OpenBabel11042418353D

 37 41  0  0  1  0  0  0  0  0999 V2000
  193.8730  170.6000  143.5250 C   0  0  0  0  0  2  0  0  0  0  0  0
  191.9770  174.8760  144.5490 C   0  0  1  0  0  3  0  0  0  0  0  0
  192.5440  172.5920  144.2040 C   0  0  0  0  0  0  0  0  0  0  0  0
  193.4160  174.6710  144.4190 N   0  0  0  0  0  0  0  0  0  0  0  0
  191.3630  173.4680  144.4700 C   0  0  2  0  0  3  0  0  0  0  0  0
  194.9850  171.2440  144.2300 N   0  0  0  0  0  2  0  0  0  0  0  0
  192.5300  171.0970  144.0790 C   0  0  0  0  0  2  0  0  0  0  0  0
  194.9950  172.6760  143.9110 C   0  0  0  0  0  2  0  0  0  0  0  0
  193.6590  173.2910  144.2190 C   0  0  0  0  0  0  0  0  0  0  0  0
  188.6040  173.0460  142.2880 O   0  0  0  0  0  0  0  0  0  0  0  0
  190.3760  173.4030  143.3490 C   0  0  0  0  0  0  0  0  0  0  0  0
  189.1040  172.9760  143.4830 N   0  0  0  0  0  0  0  0  0  0  0  0
  189.5150  173.4870  141.4550 C   0  0  0  0  0  0  0  0  0  0  0  0
  190.6830  173.7340  142.0790 N   0  0  0  0  0  0  0  0  0  0  0  0
  189.3250  173.8150  137.6240 C   0  0  0  0  0  0  0  0  0  0  0  0
  189.2960  173.6840  140.0220 C   0  0  0  0  0  0  0  0  0  0  0  0
  188.1980  174.2800  139.5060 N   0  0  0  0  0  0  0  0  0  0  0  0
  190.3620  173.2100  138.8070 S   0  0  0  0  0  0  0  0  0  0  0  0
  188.2140  174.3520  138.1760 N   0  0  0  0  0  0  0  0  0  0  0  0
  190.1060  174.8800  135.5320 O   0  0  0  0  0  1  0  0  0  0  0  0
  189.3150  172.7310  135.5240 O   0  0  0  0  0  0  0  0  0  0  0  0
  189.5770  173.7730  136.1820 C   0  0  0  0  0  0  0  0  0  0  0  0
  194.3540  175.7240  144.0590 C   0  0  0  0  0  2  0  0  0  0  0  0
  196.1360  175.8620  142.1560 C   0  0  0  0  0  1  0  0  0  0  0  0
  194.3300  175.9890  142.2620 S   0  0  0  0  0  0  0  0  0  0  0  0
  191.6420  175.5040  145.8950 C   0  0  0  0  0  2  0  0  0  0  0  0
  186.0550  176.8630  145.6850 C   0  0  0  0  0  0  0  0  0  0  0  0
  190.5900  177.0680  144.2840 C   0  0  0  0  0  0  0  0  0  0  0  0
  191.2670  177.9640  143.5720 C   0  0  0  0  0  2  0  0  0  0  0  0
  189.6860  176.8420  146.4420 N   0  0  0  0  0  0  0  0  0  0  0  0
  190.9440  176.8450  145.7170 C   0  0  1  0  0  3  0  0  0  0  0  0
  185.9650  176.8320  144.4290 O   0  0  0  0  0  0  0  0  0  0  0  0
  188.6160  176.8310  145.7160 C   0  0  0  0  0  0  0  0  0  0  0  0
  187.3280  176.8690  146.3420 N   0  0  0  0  0  2  0  0  0  0  0  0
  188.8610  176.7850  143.9400 S   0  0  0  0  0  0  0  0  0  0  0  0
  184.4570  178.3680  146.7910 C   0  0  0  0  0  1  0  0  0  0  0  0
  184.8140  176.9240  146.5030 C   0  0  0  0  0  2  0  0  0  0  0  0
  1  7  1  0  0  0  0
  1  6  1  0  0  0  0
  2 26  1  1  0  0  0
  3  9  2  0  0  0  0
  3  5  1  0  0  0  0
  4  2  1  0  0  0  0
  5 11  1  6  0  0  0
  5  2  1  0  0  0  0
  7  3  1  0  0  0  0
  8  9  1  0  0  0  0
  8  6  1  0  0  0  0
  9  4  1  0  0  0  0
 10 12  1  0  0  0  0
 11 12  2  0  0  0  0
 13 14  2  0  0  0  0
 13 10  1  0  0  0  0
 14 11  1  0  0  0  0
 15 19  2  0  0  0  0
 15 18  1  0  0  0  0
 16 13  1  0  0  0  0
 17 16  2  0  0  0  0
 18 16  1  0  0  0  0
 19 17  1  0  0  0  0
 20 22  1  0  0  0  0
 21 22  2  0  0  0  0
 22 15  1  0  0  0  0
 23  4  1  0  0  0  0
 24 25  1  0  0  0  0
 25 23  1  0  0  0  0
 27 34  1  0  0  0  0
 27 37  1  0  0  0  0
 28 31  1  0  0  0  0
 29 28  2  0  0  0  0
 31 26  1  6  0  0  0
 31 30  1  0  0  0  0
 32 27  2  0  0  0  0
 33 34  1  0  0  0  0
 33 30  2  0  0  0  0
 35 28  1  0  0  0  0
 35 33  1  0  0  0  0
 37 36  1  0  0  0  0
M  END
>  <MODEL>
9

>  <REMARK>
 VINA RESULT:      -6.4      3.227      4.553
  Name = 
  8 active torsions:
  status: ('A' for Active; 'I' for Inactive)
    1  A    between atoms: C_1  and  C_10
    2  A    between atoms: C_6  and  C_32
    3  A    between atoms: C_11  and  C_24
    4  A    between atoms: C_12  and  C_31
    5  A    between atoms: C_13  and  C_35
    6  A    between atoms: C_17  and  C_35
    7  A    between atoms: N_23  and  C_28
    8  A    between atoms: C_28  and  S_37
                            x       y       z     vdW  Elec       q    Type
                         _______ _______ _______ _____ _____    ______ ____

>  <TORSDO>
F 8

$$$$
