=
 OpenBabel11042414043D

 31 33  0  0  1  0  0  0  0  0999 V2000
  189.2150  177.2680  142.5520 N   0  0  0  0  0  0  0  0  0  0  0  0
  190.4880  175.3000  142.4660 O   0  0  0  0  0  0  0  0  0  0  0  0
  189.4380  175.9110  142.1260 C   0  0  0  0  0  0  0  0  0  0  0  0
  188.4180  175.1930  141.3050 C   0  0  0  0  0  2  0  0  0  0  0  0
  187.9910  173.9190  142.0090 C   0  0  0  0  0  1  0  0  0  0  0  0
  187.9940  177.9050  142.2800 N   0  0  0  0  0  2  0  0  0  0  0  0
  187.4070  178.2180  143.5140 N   0  0  0  0  0  2  0  0  0  0  0  0
  185.5560  176.8290  142.7400 C   0  0  0  0  0  2  0  0  0  0  0  0
  184.7890  178.5250  145.0060 C   0  0  0  0  0  0  0  0  0  0  0  0
  184.5470  177.9330  142.5960 C   0  0  0  0  0  0  0  0  0  0  0  0
  186.5380  177.1080  143.8790 C   0  0  2  0  0  3  0  0  0  0  0  0
  185.7780  177.3990  145.1870 C   0  0  1  0  0  3  0  0  0  0  0  0
  183.9850  178.1250  141.4870 O   0  0  0  0  0  0  0  0  0  0  0  0
  184.4320  179.2380  145.9840 O   0  0  0  0  0  0  0  0  0  0  0  0
  184.1860  178.7360  143.7240 N   0  0  0  0  0  2  0  0  0  0  0  0
  186.1510  177.0200  147.6130 C   0  0  0  0  0  2  0  0  0  0  0  0
  186.7330  177.6400  146.3560 C   0  0  0  0  0  3  0  0  0  0  0  0
  187.2640  176.3140  146.8710 C   0  0  0  0  0  2  0  0  0  0  0  0
  190.1850  177.9610  143.3950 C   0  0  0  0  0  2  0  0  0  0  0  0
  190.1570  177.4250  144.8250 C   0  0  0  0  0  2  0  0  0  0  0  0
  190.4660  175.5630  146.9950 F   0  0  0  0  0  0  0  0  0  0  0  0
  191.4630  176.8080  145.2040 C   0  0  0  0  0  0  0  0  0  0  0  0
  192.6160  177.1430  144.4880 C   0  0  0  0  0  3  0  0  0  0  0  0
  193.9400  175.7260  145.8690 C   0  0  0  0  0  0  0  0  0  0  0  0
  192.8060  175.3730  146.6130 C   0  0  0  0  0  3  0  0  0  0  0  0
  191.5630  175.9130  146.2770 C   0  0  0  0  0  0  0  0  0  0  0  0
  193.8150  176.6000  144.8320 N   0  0  0  0  0  0  0  0  0  0  0  0
  197.1170  173.5060  146.1760 C   0  0  0  0  0  1  0  0  0  0  0  0
  195.1440  173.2240  144.8880 O   0  0  0  0  0  0  0  0  0  0  0  0
  195.2360  175.1870  146.1760 N   0  0  0  0  0  2  0  0  0  0  0  0
  195.7750  173.9420  145.7080 C   0  0  0  0  0  0  0  0  0  0  0  0
  1 19  1  0  0  0  0
  3  2  2  0  0  0  0
  3  1  1  0  0  0  0
  4  5  1  0  0  0  0
  4  3  1  0  0  0  0
  6  1  1  0  0  0  0
  6  7  1  0  0  0  0
  8 11  1  0  0  0  0
  9 12  1  0  0  0  0
  9 14  2  0  0  0  0
 10  8  1  0  0  0  0
 10 15  1  0  0  0  0
 11  7  1  6  0  0  0
 11 12  1  0  0  0  0
 12 17  1  1  0  0  0
 13 10  2  0  0  0  0
 15  9  1  0  0  0  0
 17 18  1  0  0  0  0
 17 16  1  0  0  0  0
 18 16  1  0  0  0  0
 19 20  1  0  0  0  0
 20 22  1  0  0  0  0
 22 26  1  0  0  0  0
 23 27  1  0  0  0  0
 23 22  2  0  0  0  0
 24 30  1  0  0  0  0
 24 25  1  0  0  0  0
 26 25  2  0  0  0  0
 26 21  1  0  0  0  0
 27 24  2  0  0  0  0
 29 31  2  0  0  0  0
 31 28  1  0  0  0  0
 31 30  1  0  0  0  0
M  END
>  <MODEL>
1

>  <REMARK>
 VINA RESULT:      -7.2      0.000      0.000
  Name = 
  9 active torsions:
  status: ('A' for Active; 'I' for Inactive)
    1  A    between atoms: N_2  and  N_3
    2  A    between atoms: N_2  and  N_9
    3  A    between atoms: N_3  and  C_15
    4  A    between atoms: C_7  and  C_27
    5  A    between atoms: N_9  and  C_25
    6  A    between atoms: C_10  and  C_14
    7  A    between atoms: C_14  and  C_25
    8  A    between atoms: N_17  and  C_19
    9  A    between atoms: C_18  and  C_26
                            x       y       z     vdW  Elec       q    Type
                         _______ _______ _______ _____ _____    ______ ____

>  <TORSDO>
F 9

$$$$
=
 OpenBabel11042414043D

 31 33  0  0  1  0  0  0  0  0999 V2000
  189.7540  176.3800  144.5710 N   0  0  0  0  0  0  0  0  0  0  0  0
  190.5180  174.1630  144.6180 O   0  0  0  0  0  0  0  0  0  0  0  0
  189.8030  175.0600  145.1430 C   0  0  0  0  0  0  0  0  0  0  0  0
  189.0370  174.7380  146.3830 C   0  0  0  0  0  2  0  0  0  0  0  0
  189.9070  174.9710  147.6040 C   0  0  0  0  0  1  0  0  0  0  0  0
  189.0590  177.4100  145.2250 N   0  0  0  0  0  2  0  0  0  0  0  0
  188.1140  177.9110  144.3180 N   0  0  0  0  0  2  0  0  0  0  0  0
  186.5990  176.4450  143.0870 C   0  0  0  0  0  2  0  0  0  0  0  0
  185.2960  178.9420  143.9060 C   0  0  0  0  0  0  0  0  0  0  0  0
  186.1360  177.4640  142.0830 C   0  0  0  0  0  0  0  0  0  0  0  0
  186.9160  177.0900  144.4380 C   0  0  2  0  0  3  0  0  0  0  0  0
  185.7170  177.9200  144.9340 C   0  0  1  0  0  3  0  0  0  0  0  0
  186.2780  177.2370  140.8530 O   0  0  0  0  0  0  0  0  0  0  0  0
  184.7070  180.0030  144.2510 O   0  0  0  0  0  0  0  0  0  0  0  0
  185.4940  178.6680  142.5150 N   0  0  0  0  0  2  0  0  0  0  0  0
  184.7650  178.3620  147.1850 C   0  0  0  0  0  2  0  0  0  0  0  0
  185.9870  178.5430  146.3040 C   0  0  0  0  0  3  0  0  0  0  0  0
  185.9690  177.4660  147.3740 C   0  0  0  0  0  2  0  0  0  0  0  0
  190.5380  176.7160  143.3870 C   0  0  0  0  0  2  0  0  0  0  0  0
  191.8380  177.4230  143.7660 C   0  0  0  0  0  2  0  0  0  0  0  0
  192.4770  176.8950  146.5200 F   0  0  0  0  0  0  0  0  0  0  0  0
  192.8840  176.4480  144.1990 C   0  0  0  0  0  0  0  0  0  0  0  0
  193.6140  175.7480  143.2350 C   0  0  0  0  0  3  0  0  0  0  0  0
  194.8720  174.6410  144.9260 C   0  0  0  0  0  0  0  0  0  0  0  0
  194.1650  175.3310  145.9190 C   0  0  0  0  0  3  0  0  0  0  0  0
  193.1650  176.2340  145.5550 C   0  0  0  0  0  0  0  0  0  0  0  0
  194.5800  174.8700  143.6140 N   0  0  0  0  0  0  0  0  0  0  0  0
  196.8930  171.4940  145.9860 C   0  0  0  0  0  1  0  0  0  0  0  0
  194.5740  171.7850  145.5820 O   0  0  0  0  0  0  0  0  0  0  0  0
  195.9030  173.6960  145.2570 N   0  0  0  0  0  2  0  0  0  0  0  0
  195.7150  172.3180  145.6100 C   0  0  0  0  0  0  0  0  0  0  0  0
  1  3  1  0  0  0  0
  1  6  1  0  0  0  0
  2  3  2  0  0  0  0
  3  4  1  0  0  0  0
  4  5  1  0  0  0  0
  7  6  1  0  0  0  0
  8 11  1  0  0  0  0
  9 14  2  0  0  0  0
  9 12  1  0  0  0  0
 10 15  1  0  0  0  0
 10  8  1  0  0  0  0
 11  7  1  6  0  0  0
 11 12  1  0  0  0  0
 12 17  1  1  0  0  0
 13 10  2  0  0  0  0
 15  9  1  0  0  0  0
 16 18  1  0  0  0  0
 17 16  1  0  0  0  0
 17 18  1  0  0  0  0
 19 20  1  0  0  0  0
 19  1  1  0  0  0  0
 20 22  1  0  0  0  0
 22 26  1  0  0  0  0
 23 27  1  0  0  0  0
 23 22  2  0  0  0  0
 24 30  1  0  0  0  0
 24 25  1  0  0  0  0
 26 25  2  0  0  0  0
 26 21  1  0  0  0  0
 27 24  2  0  0  0  0
 29 31  2  0  0  0  0
 30 31  1  0  0  0  0
 31 28  1  0  0  0  0
M  END
>  <MODEL>
2

>  <REMARK>
 VINA RESULT:      -7.1      1.774      2.338
  Name = 
  9 active torsions:
  status: ('A' for Active; 'I' for Inactive)
    1  A    between atoms: N_2  and  N_3
    2  A    between atoms: N_2  and  N_9
    3  A    between atoms: N_3  and  C_15
    4  A    between atoms: C_7  and  C_27
    5  A    between atoms: N_9  and  C_25
    6  A    between atoms: C_10  and  C_14
    7  A    between atoms: C_14  and  C_25
    8  A    between atoms: N_17  and  C_19
    9  A    between atoms: C_18  and  C_26
                            x       y       z     vdW  Elec       q    Type
                         _______ _______ _______ _____ _____    ______ ____

>  <TORSDO>
F 9

$$$$
=
 OpenBabel11042414043D

 31 33  0  0  1  0  0  0  0  0999 V2000
  189.9230  175.7290  144.6830 N   0  0  0  0  0  0  0  0  0  0  0  0
  192.2010  176.1130  145.0870 O   0  0  0  0  0  0  0  0  0  0  0  0
  191.0170  176.1410  145.5230 C   0  0  0  0  0  0  0  0  0  0  0  0
  190.7700  176.6360  146.9090 C   0  0  0  0  0  2  0  0  0  0  0  0
  191.0310  175.5260  147.9090 C   0  0  0  0  0  1  0  0  0  0  0  0
  188.5980  175.8770  145.1230 N   0  0  0  0  0  2  0  0  0  0  0  0
  188.0400  176.9450  144.4060 N   0  0  0  0  0  2  0  0  0  0  0  0
  186.6070  176.1960  142.5770 C   0  0  0  0  0  2  0  0  0  0  0  0
  185.9260  178.9030  143.4750 C   0  0  0  0  0  0  0  0  0  0  0  0
  186.7990  177.3960  141.6930 C   0  0  0  0  0  0  0  0  0  0  0  0
  186.6750  176.5730  144.0590 C   0  0  2  0  0  3  0  0  0  0  0  0
  185.6870  177.7120  144.3720 C   0  0  1  0  0  3  0  0  0  0  0  0
  187.2330  177.2440  140.5210 O   0  0  0  0  0  0  0  0  0  0  0  0
  185.6050  180.0670  143.8450 O   0  0  0  0  0  0  0  0  0  0  0  0
  186.4460  178.7030  142.1570 N   0  0  0  0  0  2  0  0  0  0  0  0
  184.2750  178.2600  146.3390 C   0  0  0  0  0  2  0  0  0  0  0  0
  185.7020  178.0830  145.8550 C   0  0  0  0  0  3  0  0  0  0  0  0
  185.0280  176.9910  146.6670 C   0  0  0  0  0  2  0  0  0  0  0  0
  190.1520  175.2890  143.3100 C   0  0  0  0  0  2  0  0  0  0  0  0
  189.5800  173.8920  143.0740 C   0  0  0  0  0  2  0  0  0  0  0  0
  187.2140  172.7920  141.8660 F   0  0  0  0  0  0  0  0  0  0  0  0
  189.4620  173.5890  141.6170 C   0  0  0  0  0  0  0  0  0  0  0  0
  190.5480  173.8340  140.7720 C   0  0  0  0  0  2  0  0  0  0  0  0
  189.3310  173.0190  138.8950 C   0  0  0  0  0  0  0  0  0  0  0  0
  188.2260  172.7540  139.7140 C   0  0  0  0  0  2  0  0  0  0  0  0
  188.2900  173.0430  141.0780 C   0  0  0  0  0  0  0  0  0  0  0  0
  190.4600  173.5480  139.4450 N   0  0  0  0  0  0  0  0  0  0  0  0
  189.5940  171.3990  135.3710 C   0  0  0  0  0  1  0  0  0  0  0  0
  189.8650  170.4630  137.5340 O   0  0  0  0  0  0  0  0  0  0  0  0
  189.3050  172.7440  137.4850 N   0  0  0  0  0  2  0  0  0  0  0  0
  189.6100  171.4920  136.8550 C   0  0  0  0  0  0  0  0  0  0  0  0
  1  6  1  0  0  0  0
  1  3  1  0  0  0  0
  2  3  2  0  0  0  0
  3  4  1  0  0  0  0
  4  5  1  0  0  0  0
  7  6  1  0  0  0  0
  8 11  1  0  0  0  0
  9 14  2  0  0  0  0
  9 12  1  0  0  0  0
 10 15  1  0  0  0  0
 10  8  1  0  0  0  0
 11 12  1  0  0  0  0
 11  7  1  6  0  0  0
 12 17  1  1  0  0  0
 13 10  2  0  0  0  0
 15  9  1  0  0  0  0
 16 18  1  0  0  0  0
 17 16  1  0  0  0  0
 17 18  1  0  0  0  0
 19  1  1  0  0  0  0
 20 19  1  0  0  0  0
 22 20  1  0  0  0  0
 23 22  1  0  0  0  0
 24 27  2  0  0  0  0
 24 25  1  0  0  0  0
 25 26  1  0  0  0  0
 26 22  2  0  0  0  0
 26 21  1  0  0  0  0
 27 23  1  0  0  0  0
 28 31  1  0  0  0  0
 30 24  1  0  0  0  0
 31 30  1  0  0  0  0
 31 29  2  0  0  0  0
M  END
>  <MODEL>
3

>  <REMARK>
 VINA RESULT:      -7.0      3.388      5.859
  Name = 
  9 active torsions:
  status: ('A' for Active; 'I' for Inactive)
    1  A    between atoms: N_2  and  N_3
    2  A    between atoms: N_2  and  N_9
    3  A    between atoms: N_3  and  C_15
    4  A    between atoms: C_7  and  C_27
    5  A    between atoms: N_9  and  C_25
    6  A    between atoms: C_10  and  C_14
    7  A    between atoms: C_14  and  C_25
    8  A    between atoms: N_17  and  C_19
    9  A    between atoms: C_18  and  C_26
                            x       y       z     vdW  Elec       q    Type
                         _______ _______ _______ _____ _____    ______ ____

>  <TORSDO>
F 9

$$$$
=
 OpenBabel11042414043D

 31 33  0  0  1  0  0  0  0  0999 V2000
  186.8790  176.7870  142.2810 N   0  0  0  0  0  0  0  0  0  0  0  0
  186.6390  177.9460  140.2560 O   0  0  0  0  0  0  0  0  0  0  0  0
  186.1390  177.6180  141.3670 C   0  0  0  0  0  0  0  0  0  0  0  0
  184.7580  178.0770  141.7010 C   0  0  0  0  0  2  0  0  0  0  0  0
  183.9640  178.2960  140.4270 C   0  0  0  0  0  1  0  0  0  0  0  0
  186.2760  176.3190  143.4590 N   0  0  0  0  0  2  0  0  0  0  0  0
  186.8620  177.0140  144.5270 N   0  0  0  0  0  2  0  0  0  0  0  0
  185.2880  176.6520  146.3580 C   0  0  0  0  0  2  0  0  0  0  0  0
  187.8100  177.8240  147.2870 C   0  0  0  0  0  0  0  0  0  0  0  0
  185.3530  178.0400  146.9300 C   0  0  0  0  0  0  0  0  0  0  0  0
  186.6230  176.2370  145.7360 C   0  0  2  0  0  3  0  0  0  0  0  0
  187.7690  176.4140  146.7510 C   0  0  1  0  0  3  0  0  0  0  0  0
  184.2980  178.7170  147.0490 O   0  0  0  0  0  0  0  0  0  0  0  0
  188.8870  178.3220  147.7170 O   0  0  0  0  0  0  0  0  0  0  0  0
  186.5980  178.5800  147.3850 N   0  0  0  0  0  2  0  0  0  0  0  0
  189.9880  175.4440  147.2960 C   0  0  0  0  0  2  0  0  0  0  0  0
  189.1110  175.9660  146.1730 C   0  0  0  0  0  3  0  0  0  0  0  0
  189.2870  174.4720  146.3740 C   0  0  0  0  0  2  0  0  0  0  0  0
  188.2100  176.2950  141.9410 C   0  0  0  0  0  2  0  0  0  0  0  0
  189.2730  177.3670  142.1710 C   0  0  0  0  0  2  0  0  0  0  0  0
  190.9800  179.0360  143.7760 F   0  0  0  0  0  0  0  0  0  0  0  0
  190.4110  176.8450  142.9860 C   0  0  0  0  0  0  0  0  0  0  0  0
  190.6890  175.4750  142.9790 C   0  0  0  0  0  3  0  0  0  0  0  0
  192.5330  175.7970  144.4500 C   0  0  0  0  0  0  0  0  0  0  0  0
  192.2870  177.1760  144.4750 C   0  0  0  0  0  3  0  0  0  0  0  0
  191.2200  177.7010  143.7430 C   0  0  0  0  0  0  0  0  0  0  0  0
  191.7320  174.9870  143.7030 N   0  0  0  0  0  0  0  0  0  0  0  0
  195.8990  174.2160  145.5850 C   0  0  0  0  0  1  0  0  0  0  0  0
  195.2440  175.1430  143.5020 O   0  0  0  0  0  0  0  0  0  0  0  0
  193.6150  175.2140  145.1950 N   0  0  0  0  0  2  0  0  0  0  0  0
  194.9130  174.8730  144.6870 C   0  0  0  0  0  0  0  0  0  0  0  0
  1  6  1  0  0  0  0
  2  3  2  0  0  0  0
  3  4  1  0  0  0  0
  3  1  1  0  0  0  0
  5  4  1  0  0  0  0
  6  7  1  0  0  0  0
  8 10  1  0  0  0  0
  9 15  1  0  0  0  0
  9 14  2  0  0  0  0
 10 13  2  0  0  0  0
 10 15  1  0  0  0  0
 11  7  1  6  0  0  0
 11  8  1  0  0  0  0
 11 12  1  0  0  0  0
 12 17  1  6  0  0  0
 12  9  1  0  0  0  0
 17 18  1  0  0  0  0
 17 16  1  0  0  0  0
 18 16  1  0  0  0  0
 19 20  1  0  0  0  0
 19  1  1  0  0  0  0
 20 22  1  0  0  0  0
 22 26  1  0  0  0  0
 23 22  2  0  0  0  0
 23 27  1  0  0  0  0
 24 25  1  0  0  0  0
 24 30  1  0  0  0  0
 26 21  1  0  0  0  0
 26 25  2  0  0  0  0
 27 24  2  0  0  0  0
 29 31  2  0  0  0  0
 31 30  1  0  0  0  0
 31 28  1  0  0  0  0
M  END
>  <MODEL>
4

>  <REMARK>
 VINA RESULT:      -6.9      2.157      3.508
  Name = 
  9 active torsions:
  status: ('A' for Active; 'I' for Inactive)
    1  A    between atoms: N_2  and  N_3
    2  A    between atoms: N_2  and  N_9
    3  A    between atoms: N_3  and  C_15
    4  A    between atoms: C_7  and  C_27
    5  A    between atoms: N_9  and  C_25
    6  A    between atoms: C_10  and  C_14
    7  A    between atoms: C_14  and  C_25
    8  A    between atoms: N_17  and  C_19
    9  A    between atoms: C_18  and  C_26
                            x       y       z     vdW  Elec       q    Type
                         _______ _______ _______ _____ _____    ______ ____

>  <TORSDO>
F 9

$$$$
=
 OpenBabel11042414043D

 31 33  0  0  1  0  0  0  0  0999 V2000
  190.0100  176.0520  144.0880 N   0  0  0  0  0  0  0  0  0  0  0  0
  191.4450  175.0850  142.5040 O   0  0  0  0  0  0  0  0  0  0  0  0
  190.2890  175.1430  143.0060 C   0  0  0  0  0  0  0  0  0  0  0  0
  189.2280  174.2330  142.4830 C   0  0  0  0  0  2  0  0  0  0  0  0
  188.8730  174.6180  141.0590 C   0  0  0  0  0  1  0  0  0  0  0  0
  188.7620  176.0280  144.7280 N   0  0  0  0  0  2  0  0  0  0  0  0
  188.0430  177.1440  144.2750 N   0  0  0  0  0  2  0  0  0  0  0  0
  186.2080  176.3860  142.8550 C   0  0  0  0  0  2  0  0  0  0  0  0
  185.7820  179.1130  143.8470 C   0  0  0  0  0  0  0  0  0  0  0  0
  186.1910  177.5710  141.9320 C   0  0  0  0  0  0  0  0  0  0  0  0
  186.6320  176.7820  144.2710 C   0  0  2  0  0  3  0  0  0  0  0  0
  185.7560  177.9370  144.7940 C   0  0  1  0  0  3  0  0  0  0  0  0
  186.3310  177.3990  140.6930 O   0  0  0  0  0  0  0  0  0  0  0  0
  185.5680  180.2850  144.2640 O   0  0  0  0  0  0  0  0  0  0  0  0
  185.9700  178.8880  142.4460 N   0  0  0  0  0  2  0  0  0  0  0  0
  184.8630  178.4600  147.0500 C   0  0  0  0  0  2  0  0  0  0  0  0
  186.1280  178.3270  146.2240 C   0  0  0  0  0  3  0  0  0  0  0  0
  185.7220  177.2230  147.1830 C   0  0  0  0  0  2  0  0  0  0  0  0
  191.0550  176.9100  144.6370 C   0  0  0  0  0  2  0  0  0  0  0  0
  191.4940  176.4320  146.0200 C   0  0  0  0  0  2  0  0  0  0  0  0
  194.1640  177.4700  146.2820 F   0  0  0  0  0  0  0  0  0  0  0  0
  192.7210  175.5840  145.9420 C   0  0  0  0  0  0  0  0  0  0  0  0
  192.5940  174.2100  145.7210 C   0  0  0  0  0  3  0  0  0  0  0  0
  194.9600  173.9420  145.7510 C   0  0  0  0  0  0  0  0  0  0  0  0
  195.1240  175.3160  145.9660 C   0  0  0  0  0  3  0  0  0  0  0  0
  194.0010  176.1390  146.0660 C   0  0  0  0  0  0  0  0  0  0  0  0
  193.7030  173.4280  145.6330 N   0  0  0  0  0  0  0  0  0  0  0  0
  197.9410  171.7690  144.5250 C   0  0  0  0  0  1  0  0  0  0  0  0
  196.5910  173.3430  143.3730 O   0  0  0  0  0  0  0  0  0  0  0  0
  196.0880  173.0580  145.6510 N   0  0  0  0  0  2  0  0  0  0  0  0
  196.8350  172.7610  144.4630 C   0  0  0  0  0  0  0  0  0  0  0  0
  1 19  1  0  0  0  0
  1  6  1  0  0  0  0
  2  3  2  0  0  0  0
  3  1  1  0  0  0  0
  4  3  1  0  0  0  0
  5  4  1  0  0  0  0
  7  6  1  0  0  0  0
  8 11  1  0  0  0  0
  9 14  2  0  0  0  0
  9 12  1  0  0  0  0
 10 15  1  0  0  0  0
 10  8  1  0  0  0  0
 11  7  1  6  0  0  0
 11 12  1  0  0  0  0
 12 17  1  1  0  0  0
 13 10  2  0  0  0  0
 15  9  1  0  0  0  0
 16 18  1  0  0  0  0
 17 16  1  0  0  0  0
 17 18  1  0  0  0  0
 19 20  1  0  0  0  0
 22 20  1  0  0  0  0
 22 26  1  0  0  0  0
 23 22  2  0  0  0  0
 24 25  1  0  0  0  0
 25 26  2  0  0  0  0
 26 21  1  0  0  0  0
 27 23  1  0  0  0  0
 27 24  2  0  0  0  0
 29 31  2  0  0  0  0
 30 24  1  0  0  0  0
 31 28  1  0  0  0  0
 31 30  1  0  0  0  0
M  END
>  <MODEL>
5

>  <REMARK>
 VINA RESULT:      -6.9      1.752      2.153
  Name = 
  9 active torsions:
  status: ('A' for Active; 'I' for Inactive)
    1  A    between atoms: N_2  and  N_3
    2  A    between atoms: N_2  and  N_9
    3  A    between atoms: N_3  and  C_15
    4  A    between atoms: C_7  and  C_27
    5  A    between atoms: N_9  and  C_25
    6  A    between atoms: C_10  and  C_14
    7  A    between atoms: C_14  and  C_25
    8  A    between atoms: N_17  and  C_19
    9  A    between atoms: C_18  and  C_26
                            x       y       z     vdW  Elec       q    Type
                         _______ _______ _______ _____ _____    ______ ____

>  <TORSDO>
F 9

$$$$
=
 OpenBabel11042414043D

 31 33  0  0  1  0  0  0  0  0999 V2000
  190.1080  176.2080  144.6070 N   0  0  0  0  0  0  0  0  0  0  0  0
  192.3210  176.7400  145.1740 O   0  0  0  0  0  0  0  0  0  0  0  0
  191.1390  176.5260  145.5610 C   0  0  0  0  0  0  0  0  0  0  0  0
  190.8230  176.6420  147.0150 C   0  0  0  0  0  2  0  0  0  0  0  0
  191.2240  175.3680  147.7340 C   0  0  0  0  0  1  0  0  0  0  0  0
  188.7720  176.0940  145.0210 N   0  0  0  0  0  2  0  0  0  0  0  0
  188.0760  177.1840  144.4790 N   0  0  0  0  0  2  0  0  0  0  0  0
  186.5860  176.2900  142.7650 C   0  0  0  0  0  2  0  0  0  0  0  0
  185.8470  179.0150  143.5580 C   0  0  0  0  0  0  0  0  0  0  0  0
  186.6890  177.4480  141.8120 C   0  0  0  0  0  0  0  0  0  0  0  0
  186.7110  176.7460  144.2200 C   0  0  2  0  0  3  0  0  0  0  0  0
  185.6970  177.8650  144.5240 C   0  0  1  0  0  3  0  0  0  0  0  0
  187.0720  177.2520  140.6300 O   0  0  0  0  0  0  0  0  0  0  0  0
  185.5010  180.1850  143.8840 O   0  0  0  0  0  0  0  0  0  0  0  0
  186.3100  178.7650  142.2270 N   0  0  0  0  0  2  0  0  0  0  0  0
  184.3630  178.4050  146.5480 C   0  0  0  0  0  2  0  0  0  0  0  0
  185.7690  178.3130  145.9850 C   0  0  0  0  0  3  0  0  0  0  0  0
  185.2340  177.2160  146.8880 C   0  0  0  0  0  2  0  0  0  0  0  0
  190.4000  176.1400  143.1790 C   0  0  0  0  0  2  0  0  0  0  0  0
  190.3410  174.7010  142.6690 C   0  0  0  0  0  2  0  0  0  0  0  0
  190.2870  172.9140  144.9220 F   0  0  0  0  0  0  0  0  0  0  0  0
  191.5230  173.9110  143.1250 C   0  0  0  0  0  0  0  0  0  0  0  0
  192.7380  174.0340  142.4440 C   0  0  0  0  0  3  0  0  0  0  0  0
  193.7810  172.4970  143.9330 C   0  0  0  0  0  0  0  0  0  0  0  0
  192.5820  172.3550  144.6440 C   0  0  0  0  0  3  0  0  0  0  0  0
  191.4490  173.0610  144.2360 C   0  0  0  0  0  0  0  0  0  0  0  0
  193.8270  173.3330  142.8570 N   0  0  0  0  0  0  0  0  0  0  0  0
  197.1910  171.3990  145.4440 C   0  0  0  0  0  1  0  0  0  0  0  0
  195.8800  173.3400  145.8190 O   0  0  0  0  0  0  0  0  0  0  0  0
  194.9680  171.7830  144.3130 N   0  0  0  0  0  2  0  0  0  0  0  0
  195.9910  172.2440  145.2080 C   0  0  0  0  0  0  0  0  0  0  0  0
  1  6  1  0  0  0  0
  1  3  1  0  0  0  0
  2  3  2  0  0  0  0
  3  4  1  0  0  0  0
  4  5  1  0  0  0  0
  7  6  1  0  0  0  0
  8 11  1  0  0  0  0
  9 14  2  0  0  0  0
  9 12  1  0  0  0  0
 10 15  1  0  0  0  0
 10  8  1  0  0  0  0
 11  7  1  6  0  0  0
 11 12  1  0  0  0  0
 12 17  1  1  0  0  0
 13 10  2  0  0  0  0
 15  9  1  0  0  0  0
 16 18  1  0  0  0  0
 17 16  1  0  0  0  0
 17 18  1  0  0  0  0
 19  1  1  0  0  0  0
 20 22  1  0  0  0  0
 20 19  1  0  0  0  0
 22 26  1  0  0  0  0
 23 27  1  0  0  0  0
 23 22  2  0  0  0  0
 24 30  1  0  0  0  0
 24 25  1  0  0  0  0
 26 25  2  0  0  0  0
 26 21  1  0  0  0  0
 27 24  2  0  0  0  0
 30 31  1  0  0  0  0
 31 28  1  0  0  0  0
 31 29  2  0  0  0  0
M  END
>  <MODEL>
6

>  <REMARK>
 VINA RESULT:      -6.8      2.416      3.183
  Name = 
  9 active torsions:
  status: ('A' for Active; 'I' for Inactive)
    1  A    between atoms: N_2  and  N_3
    2  A    between atoms: N_2  and  N_9
    3  A    between atoms: N_3  and  C_15
    4  A    between atoms: C_7  and  C_27
    5  A    between atoms: N_9  and  C_25
    6  A    between atoms: C_10  and  C_14
    7  A    between atoms: C_14  and  C_25
    8  A    between atoms: N_17  and  C_19
    9  A    between atoms: C_18  and  C_26
                            x       y       z     vdW  Elec       q    Type
                         _______ _______ _______ _____ _____    ______ ____

>  <TORSDO>
F 9

$$$$
=
 OpenBabel11042414043D

 31 33  0  0  1  0  0  0  0  0999 V2000
  189.9960  176.2180  146.1830 N   0  0  0  0  0  0  0  0  0  0  0  0
  190.9440  176.1780  148.3280 O   0  0  0  0  0  0  0  0  0  0  0  0
  191.1210  176.2570  147.0810 C   0  0  0  0  0  0  0  0  0  0  0  0
  192.5140  176.3570  146.5540 C   0  0  0  0  0  2  0  0  0  0  0  0
  193.1000  174.9690  146.3750 C   0  0  0  0  0  1  0  0  0  0  0  0
  190.2000  176.1800  144.7940 N   0  0  0  0  0  2  0  0  0  0  0  0
  189.6980  174.9530  144.3360 N   0  0  0  0  0  2  0  0  0  0  0  0
  190.0480  175.9340  142.1280 C   0  0  0  0  0  2  0  0  0  0  0  0
  188.2090  173.6510  142.0430 C   0  0  0  0  0  0  0  0  0  0  0  0
  188.5970  176.0980  141.7710 C   0  0  0  0  0  0  0  0  0  0  0  0
  190.2730  174.7110  143.0190 C   0  0  2  0  0  3  0  0  0  0  0  0
  189.6700  173.4510  142.3690 C   0  0  1  0  0  3  0  0  0  0  0  0
  188.1540  177.2360  141.4670 O   0  0  0  0  0  0  0  0  0  0  0  0
  187.4210  172.6670  141.9740 O   0  0  0  0  0  0  0  0  0  0  0  0
  187.7280  174.9620  141.7270 N   0  0  0  0  0  2  0  0  0  0  0  0
  190.3760  171.0720  142.3170 C   0  0  0  0  0  2  0  0  0  0  0  0
  189.9160  172.2030  143.2170 C   0  0  0  0  0  3  0  0  0  0  0  0
  191.3840  171.8210  143.1580 C   0  0  0  0  0  2  0  0  0  0  0  0
  188.6350  176.0720  146.6870 C   0  0  0  0  0  2  0  0  0  0  0  0
  187.9760  177.4330  146.9040 C   0  0  0  0  0  2  0  0  0  0  0  0
  186.0400  179.5430  147.1700 F   0  0  0  0  0  0  0  0  0  0  0  0
  186.8700  177.6670  145.9280 C   0  0  0  0  0  0  0  0  0  0  0  0
  186.7390  176.8240  144.8210 C   0  0  0  0  0  2  0  0  0  0  0  0
  184.8160  178.0180  144.0820 C   0  0  0  0  0  0  0  0  0  0  0  0
  184.9130  178.8770  145.1840 C   0  0  0  0  0  2  0  0  0  0  0  0
  185.9450  178.7040  146.1080 C   0  0  0  0  0  0  0  0  0  0  0  0
  185.7280  177.0160  143.9320 N   0  0  0  0  0  0  0  0  0  0  0  0
  182.7610  178.5020  140.8180 C   0  0  0  0  0  1  0  0  0  0  0  0
  185.0900  178.2040  141.1550 O   0  0  0  0  0  0  0  0  0  0  0  0
  183.7750  178.1660  143.1030 N   0  0  0  0  0  2  0  0  0  0  0  0
  183.9510  178.2930  141.6840 C   0  0  0  0  0  0  0  0  0  0  0  0
  1 19  1  0  0  0  0
  1  3  1  0  0  0  0
  3  2  2  0  0  0  0
  4  3  1  0  0  0  0
  5  4  1  0  0  0  0
  6  1  1  0  0  0  0
  7  6  1  0  0  0  0
  8 11  1  0  0  0  0
  9 12  1  0  0  0  0
 10  8  1  0  0  0  0
 11  7  1  1  0  0  0
 12 11  1  0  0  0  0
 12 17  1  1  0  0  0
 13 10  2  0  0  0  0
 14  9  2  0  0  0  0
 15 10  1  0  0  0  0
 15  9  1  0  0  0  0
 16 18  1  0  0  0  0
 16 17  1  0  0  0  0
 18 17  1  0  0  0  0
 19 20  1  0  0  0  0
 22 26  2  0  0  0  0
 22 20  1  0  0  0  0
 23 22  1  0  0  0  0
 24 25  1  0  0  0  0
 25 26  1  0  0  0  0
 26 21  1  0  0  0  0
 27 24  2  0  0  0  0
 27 23  1  0  0  0  0
 28 31  1  0  0  0  0
 29 31  2  0  0  0  0
 30 24  1  0  0  0  0
 31 30  1  0  0  0  0
M  END
>  <MODEL>
7

>  <REMARK>
 VINA RESULT:      -6.7      2.774      7.537
  Name = 
  9 active torsions:
  status: ('A' for Active; 'I' for Inactive)
    1  A    between atoms: N_2  and  N_3
    2  A    between atoms: N_2  and  N_9
    3  A    between atoms: N_3  and  C_15
    4  A    between atoms: C_7  and  C_27
    5  A    between atoms: N_9  and  C_25
    6  A    between atoms: C_10  and  C_14
    7  A    between atoms: C_14  and  C_25
    8  A    between atoms: N_17  and  C_19
    9  A    between atoms: C_18  and  C_26
                            x       y       z     vdW  Elec       q    Type
                         _______ _______ _______ _____ _____    ______ ____

>  <TORSDO>
F 9

$$$$
=
 OpenBabel11042414043D

 31 33  0  0  1  0  0  0  0  0999 V2000
  186.7200  177.1930  146.4990 N   0  0  0  0  0  0  0  0  0  0  0  0
  186.2830  178.8970  148.0500 O   0  0  0  0  0  0  0  0  0  0  0  0
  185.8360  178.1100  147.1700 C   0  0  0  0  0  0  0  0  0  0  0  0
  184.3870  178.1680  146.8170 C   0  0  0  0  0  2  0  0  0  0  0  0
  184.1880  179.0410  145.5930 C   0  0  0  0  0  1  0  0  0  0  0  0
  186.2500  176.4060  145.4360 N   0  0  0  0  0  2  0  0  0  0  0  0
  186.8930  176.8550  144.2730 N   0  0  0  0  0  2  0  0  0  0  0  0
  187.0800  174.8380  142.9110 C   0  0  0  0  0  2  0  0  0  0  0  0
  187.7130  177.2620  141.3860 C   0  0  0  0  0  0  0  0  0  0  0  0
  188.4620  175.1020  142.3820 C   0  0  0  0  0  0  0  0  0  0  0  0
  186.3090  176.1380  143.1470 C   0  0  2  0  0  3  0  0  0  0  0  0
  186.3080  177.0040  141.8730 C   0  0  1  0  0  3  0  0  0  0  0  0
  189.3730  174.2540  142.5640 O   0  0  0  0  0  0  0  0  0  0  0  0
  187.9840  178.2880  140.7030 O   0  0  0  0  0  0  0  0  0  0  0  0
  188.7360  176.2900  141.6320 N   0  0  0  0  0  2  0  0  0  0  0  0
  184.5830  178.4880  140.8780 C   0  0  0  0  0  2  0  0  0  0  0  0
  185.5080  178.2930  142.0650 C   0  0  0  0  0  3  0  0  0  0  0  0
  184.0300  177.9700  142.1870 C   0  0  0  0  0  2  0  0  0  0  0  0
  188.1480  177.1640  146.8040 C   0  0  0  0  0  2  0  0  0  0  0  0
  188.6760  175.7310  146.8420 C   0  0  0  0  0  2  0  0  0  0  0  0
  189.7160  173.2560  145.8100 F   0  0  0  0  0  0  0  0  0  0  0  0
  189.9920  175.6150  146.1460 C   0  0  0  0  0  0  0  0  0  0  0  0
  190.7870  176.7530  145.9820 C   0  0  0  0  0  2  0  0  0  0  0  0
  192.4720  175.4750  144.8890 C   0  0  0  0  0  0  0  0  0  0  0  0
  191.7050  174.3120  145.0430 C   0  0  0  0  0  2  0  0  0  0  0  0
  190.4600  174.3840  145.6700 C   0  0  0  0  0  0  0  0  0  0  0  0
  191.9940  176.6600  145.3630 N   0  0  0  0  0  0  0  0  0  0  0  0
  196.2710  175.4390  144.0650 C   0  0  0  0  0  1  0  0  0  0  0  0
  195.1310  175.2920  146.1410 O   0  0  0  0  0  0  0  0  0  0  0  0
  193.7550  175.4480  144.2420 N   0  0  0  0  0  2  0  0  0  0  0  0
  195.0340  175.3980  144.8900 C   0  0  0  0  0  0  0  0  0  0  0  0
  1 19  1  0  0  0  0
  1  3  1  0  0  0  0
  3  2  2  0  0  0  0
  4  3  1  0  0  0  0
  5  4  1  0  0  0  0
  6  1  1  0  0  0  0
  7  6  1  0  0  0  0
  8 11  1  0  0  0  0
  9 15  1  0  0  0  0
  9 12  1  0  0  0  0
 10 13  2  0  0  0  0
 10  8  1  0  0  0  0
 11  7  1  1  0  0  0
 12 17  1  1  0  0  0
 12 11  1  0  0  0  0
 14  9  2  0  0  0  0
 15 10  1  0  0  0  0
 16 17  1  0  0  0  0
 16 18  1  0  0  0  0
 17 18  1  0  0  0  0
 19 20  1  0  0  0  0
 22 20  1  0  0  0  0
 23 22  1  0  0  0  0
 24 25  1  0  0  0  0
 24 27  2  0  0  0  0
 25 26  1  0  0  0  0
 26 21  1  0  0  0  0
 26 22  2  0  0  0  0
 27 23  1  0  0  0  0
 28 31  1  0  0  0  0
 30 24  1  0  0  0  0
 30 31  1  0  0  0  0
 31 29  2  0  0  0  0
M  END
>  <MODEL>
8

>  <REMARK>
 VINA RESULT:      -6.6      1.957      4.492
  Name = 
  9 active torsions:
  status: ('A' for Active; 'I' for Inactive)
    1  A    between atoms: N_2  and  N_3
    2  A    between atoms: N_2  and  N_9
    3  A    between atoms: N_3  and  C_15
    4  A    between atoms: C_7  and  C_27
    5  A    between atoms: N_9  and  C_25
    6  A    between atoms: C_10  and  C_14
    7  A    between atoms: C_14  and  C_25
    8  A    between atoms: N_17  and  C_19
    9  A    between atoms: C_18  and  C_26
                            x       y       z     vdW  Elec       q    Type
                         _______ _______ _______ _____ _____    ______ ____

>  <TORSDO>
F 9

$$$$
=
 OpenBabel11042414043D

 31 33  0  0  1  0  0  0  0  0999 V2000
  190.1040  176.7550  145.0680 N   0  0  0  0  0  0  0  0  0  0  0  0
  190.6490  176.9470  147.3410 O   0  0  0  0  0  0  0  0  0  0  0  0
  189.8390  176.5340  146.4660 C   0  0  0  0  0  0  0  0  0  0  0  0
  188.5910  175.8420  146.9060 C   0  0  0  0  0  2  0  0  0  0  0  0
  188.9400  174.5380  147.5980 C   0  0  0  0  0  1  0  0  0  0  0  0
  189.1460  176.4070  144.1030 N   0  0  0  0  0  2  0  0  0  0  0  0
  188.2020  177.4430  144.0640 N   0  0  0  0  0  2  0  0  0  0  0  0
  186.6860  176.4350  142.4380 C   0  0  0  0  0  2  0  0  0  0  0  0
  185.6680  178.9890  143.4600 C   0  0  0  0  0  0  0  0  0  0  0  0
  186.5400  177.6410  141.5530 C   0  0  0  0  0  0  0  0  0  0  0  0
  186.8900  176.8320  143.9010 C   0  0  2  0  0  3  0  0  0  0  0  0
  185.7690  177.7830  144.3630 C   0  0  1  0  0  3  0  0  0  0  0  0
  186.8290  177.5580  140.3310 O   0  0  0  0  0  0  0  0  0  0  0  0
  185.2020  180.0810  143.8870 O   0  0  0  0  0  0  0  0  0  0  0  0
  186.0300  178.8700  142.0800 N   0  0  0  0  0  2  0  0  0  0  0  0
  184.5490  178.4250  146.4280 C   0  0  0  0  0  2  0  0  0  0  0  0
  185.9210  178.1650  145.8360 C   0  0  0  0  0  3  0  0  0  0  0  0
  185.2560  177.1180  146.7120 C   0  0  0  0  0  2  0  0  0  0  0  0
  191.2980  177.4730  144.6330 C   0  0  0  0  0  2  0  0  0  0  0  0
  192.5560  176.6320  144.8420 C   0  0  0  0  0  2  0  0  0  0  0  0
  192.7480  176.2140  142.0020 F   0  0  0  0  0  0  0  0  0  0  0  0
  192.4320  175.2920  144.1940 C   0  0  0  0  0  0  0  0  0  0  0  0
  192.2010  174.1630  144.9860 C   0  0  0  0  0  2  0  0  0  0  0  0
  192.1570  172.7650  143.0590 C   0  0  0  0  0  0  0  0  0  0  0  0
  192.3810  173.8750  142.2350 C   0  0  0  0  0  2  0  0  0  0  0  0
  192.5230  175.1420  142.8040 C   0  0  0  0  0  0  0  0  0  0  0  0
  192.0710  172.9390  144.4080 N   0  0  0  0  0  0  0  0  0  0  0  0
  190.8120  169.4070  141.6340 C   0  0  0  0  0  1  0  0  0  0  0  0
  189.6910  171.4320  142.1540 O   0  0  0  0  0  0  0  0  0  0  0  0
  192.0140  171.4430  142.5160 N   0  0  0  0  0  2  0  0  0  0  0  0
  190.7870  170.8120  142.1210 C   0  0  0  0  0  0  0  0  0  0  0  0
  1  3  1  0  0  0  0
  3  4  1  0  0  0  0
  3  2  2  0  0  0  0
  4  5  1  0  0  0  0
  6  1  1  0  0  0  0
  7  6  1  0  0  0  0
  8 11  1  0  0  0  0
  9 14  2  0  0  0  0
  9 12  1  0  0  0  0
 10 15  1  0  0  0  0
 10  8  1  0  0  0  0
 11  7  1  6  0  0  0
 11 12  1  0  0  0  0
 12 17  1  1  0  0  0
 13 10  2  0  0  0  0
 15  9  1  0  0  0  0
 16 18  1  0  0  0  0
 17 16  1  0  0  0  0
 17 18  1  0  0  0  0
 19 20  1  0  0  0  0
 19  1  1  0  0  0  0
 21 26  1  0  0  0  0
 22 20  1  0  0  0  0
 22 23  1  0  0  0  0
 24 27  2  0  0  0  0
 25 26  1  0  0  0  0
 25 24  1  0  0  0  0
 26 22  2  0  0  0  0
 27 23  1  0  0  0  0
 28 31  1  0  0  0  0
 30 24  1  0  0  0  0
 31 29  2  0  0  0  0
 31 30  1  0  0  0  0
M  END
>  <MODEL>
9

>  <REMARK>
 VINA RESULT:      -6.5      2.977      4.011
  Name = 
  9 active torsions:
  status: ('A' for Active; 'I' for Inactive)
    1  A    between atoms: N_2  and  N_3
    2  A    between atoms: N_2  and  N_9
    3  A    between atoms: N_3  and  C_15
    4  A    between atoms: C_7  and  C_27
    5  A    between atoms: N_9  and  C_25
    6  A    between atoms: C_10  and  C_14
    7  A    between atoms: C_14  and  C_25
    8  A    between atoms: N_17  and  C_19
    9  A    between atoms: C_18  and  C_26
                            x       y       z     vdW  Elec       q    Type
                         _______ _______ _______ _____ _____    ______ ____

>  <TORSDO>
F 9

$$$$
