=
 OpenBabel11042419473D

 50 56  0  0  1  0  0  0  0  0999 V2000
  184.7350  179.0020  145.1960 C   0  0  0  0  0  3  0  0  0  0  0  0
  193.3260  174.6980  145.4480 C   0  0  1  0  0  3  0  0  0  0  0  0
  190.2230  176.7980  143.4320 C   0  0  2  0  0  3  0  0  0  0  0  0
  190.9930  178.0960  143.2530 C   0  0  0  0  0  1  0  0  0  0  0  0
  191.5620  175.5100  147.2910 S   0  0  0  0  0  0  0  0  0  0  0  0
  193.2260  175.5590  146.6890 C   0  0  2  0  0  3  0  0  0  0  0  0
  188.8070  177.0370  143.1310 N   0  0  1  0  0  0  0  0  0  0  0  0
  188.4110  176.3770  141.8910 C   0  0  2  0  0  3  0  0  0  0  0  0
  185.6250  178.6060  146.1920 C   0  0  0  0  0  0  0  0  0  0  0  0
  184.9170  178.5710  143.8820 C   0  0  0  0  0  3  0  0  0  0  0  0
  191.2880  176.1090  145.5930 C   0  0  0  0  0  0  0  0  0  0  0  0
  185.9910  177.7400  143.5190 C   0  0  0  0  0  0  0  0  0  0  0  0
  187.0790  176.8040  141.4510 N   0  0  0  0  0  0  0  0  0  0  0  0
  186.0500  177.3370  142.0690 C   0  0  0  0  0  0  0  0  0  0  0  0
  188.0400  176.4500  144.2300 C   0  0  2  0  0  3  0  0  0  0  0  0
  190.2200  176.3830  144.8540 C   0  0  0  0  0  0  0  0  0  0  0  0
  186.8920  177.3400  144.5380 C   0  0  0  0  0  0  0  0  0  0  0  0
  188.9320  176.2660  145.3140 O   0  0  0  0  0  0  0  0  0  0  0  0
  186.6960  177.7730  145.8590 C   0  0  0  0  0  3  0  0  0  0  0  0
  192.7870  176.1100  145.3750 C   0  0  2  0  0  3  0  0  0  0  0  0
  186.5040  179.5980  148.3520 C   0  0  0  0  0  1  0  0  0  0  0  0
  185.4290  179.0650  147.5320 N   0  0  0  0  0  2  0  0  0  0  0  0
  184.9000  177.5920  141.3110 O   0  0  0  0  0  0  0  0  0  0  0  0
  184.9190  178.3760  140.1270 C   0  0  0  0  0  1  0  0  0  0  0  0
  188.5180  174.8430  141.9390 C   0  0  0  0  0  2  0  0  0  0  0  0
  188.8660  173.1950  140.0430 C   0  0  0  0  0  0  0  0  0  0  0  0
  189.2740  174.3390  140.8020 N   0  0  0  0  0  2  0  0  0  0  0  0
  187.8400  172.4970  140.4090 N   0  0  0  0  0  2  0  0  0  0  0  0
  191.1620  172.9320  137.1700 C   0  0  0  0  0  2  0  0  0  0  0  0
  189.5300  171.6950  135.7530 C   0  0  0  0  0  1  0  0  0  0  0  0
  189.3860  171.7400  138.1770 N   0  0  0  0  0  0  0  0  0  0  0  0
  190.3080  171.6660  137.0540 C   0  0  2  0  0  3  0  0  0  0  0  0
  189.6240  172.8130  138.8460 C   0  0  0  0  0  0  0  0  0  0  0  0
  190.6530  173.5710  138.3270 O   0  0  0  0  0  0  0  0  0  0  0  0
  194.7670  174.6760  144.9740 C   0  0  0  0  0  2  0  0  0  0  0  0
  194.9950  173.4820  144.0610 C   0  0  0  0  0  2  0  0  0  0  0  0
  195.4730  173.9310  142.7640 N   0  0  0  0  0  2  0  0  0  0  0  0
  194.6840  173.2470  141.7500 C   0  0  0  0  0  2  0  0  0  0  0  0
  193.2440  173.7320  141.7990 C   0  0  2  0  0  3  0  0  0  0  0  0
  190.6460  168.2420  140.1360 C   0  0  0  0  0  1  0  0  0  0  0  0
  191.3610  172.4960  142.8780 C   0  0  0  0  0  3  0  0  0  0  0  0
  191.4910  170.4510  140.9900 C   0  0  0  0  0  0  0  0  0  0  0  0
  192.3730  171.5380  140.9010 C   0  0  0  0  0  3  0  0  0  0  0  0
  190.5790  170.4140  142.0050 N   0  0  0  0  0  0  0  0  0  0  0  0
  192.3040  172.5690  141.8480 C   0  0  0  0  0  0  0  0  0  0  0  0
  191.5410  169.3830  140.0250 N   0  0  0  0  0  0  0  0  0  0  0  0
  190.4990  171.4010  142.9400 C   0  0  0  0  0  3  0  0  0  0  0  0
  192.4850  169.4040  138.9160 C   0  0  0  0  0  1  0  0  0  0  0  0
  192.9530  174.5700  140.6450 N   0  0  0  0  0  2  0  0  0  0  0  0
  194.0100  174.4020  139.7420 N   0  0  0  0  0  1  0  0  0  0  0  0
  1  9  1  0  0  0  0
  2 35  1  6  0  0  0
  2  6  1  0  0  0  0
  3  4  1  1  0  0  0
  3 16  1  0  0  0  0
  6  5  1  1  0  0  0
  7  3  1  0  0  0  0
  7 15  1  0  0  0  0
  8 25  1  0  0  0  0
  8  7  1  0  0  0  0
  9 22  1  0  0  0  0
 10  1  2  0  0  0  0
 11  5  1  0  0  0  0
 12 10  1  0  0  0  0
 12 17  2  0  0  0  0
 13  8  1  0  0  0  0
 13 14  2  0  0  0  0
 14 12  1  0  0  0  0
 15 17  1  0  0  0  0
 15 18  1  0  0  0  0
 16 18  1  0  0  0  0
 16 11  2  0  0  0  0
 17 19  1  0  0  0  0
 19  9  2  0  0  0  0
 20  2  1  0  0  0  0
 20 11  1  0  0  0  0
 20  6  1  0  0  0  0
 22 21  1  0  0  0  0
 23 14  1  0  0  0  0
 24 23  1  0  0  0  0
 26 28  2  0  0  0  0
 26 27  1  0  0  0  0
 27 25  1  0  0  0  0
 29 34  1  0  0  0  0
 30 32  1  0  0  0  0
 31 33  2  0  0  0  0
 32 29  1  0  0  0  0
 32 31  1  0  0  0  0
 33 26  1  0  0  0  0
 34 33  1  0  0  0  0
 36 35  1  0  0  0  0
 37 36  1  0  0  0  0
 38 39  1  0  0  0  0
 38 37  1  0  0  0  0
 39 45  1  0  0  0  0
 41 47  1  0  0  0  0
 42 44  1  0  0  0  0
 43 42  2  0  0  0  0
 43 45  1  0  0  0  0
 44 47  2  0  0  0  0
 45 41  2  0  0  0  0
 46 40  1  0  0  0  0
 46 42  1  0  0  0  0
 48 46  1  0  0  0  0
 49 39  1  0  0  0  0
 50 49  1  0  0  0  0
M  END
>  <MODEL>
1

>  <REMARK>
 VINA RESULT:      -7.2      0.000      0.000
  Name = 
  12 active torsions:
  status: ('A' for Active; 'I' for Inactive)
    1  A    between atoms: C_2  and  C_42
    2  A    between atoms: N_6  and  C_16
    3  A    between atoms: C_8  and  C_44
    4  A    between atoms: N_9  and  C_25
    5  A    between atoms: C_10  and  N_19
    6  A    between atoms: C_10  and  C_29
    7  A    between atoms: O_14  and  C_31
    8  A    between atoms: C_15  and  C_25
    9  A    between atoms: N_19  and  C_20
   10  A    between atoms: C_20  and  C_42
   11  A    between atoms: N_23  and  C_29
   12  A    between atoms: C_29  and  C_37
                            x       y       z     vdW  Elec       q    Type
                         _______ _______ _______ _____ _____    ______ ____

>  <TORSDO>
F 12

$$$$
=
 OpenBabel11042419473D

 50 56  0  0  1  0  0  0  0  0999 V2000
  184.9210  179.0150  145.5550 C   0  0  0  0  0  3  0  0  0  0  0  0
  193.7320  175.1880  145.1900 C   0  0  1  0  0  3  0  0  0  0  0  0
  190.3800  177.1060  143.4010 C   0  0  2  0  0  3  0  0  0  0  0  0
  191.0640  178.4430  143.1670 C   0  0  0  0  0  1  0  0  0  0  0  0
  192.0630  175.9120  147.1550 S   0  0  0  0  0  0  0  0  0  0  0  0
  193.6740  176.0480  146.4340 C   0  0  2  0  0  3  0  0  0  0  0  0
  188.9360  177.2650  143.2040 N   0  0  1  0  0  0  0  0  0  0  0  0
  188.4880  176.5790  141.9960 C   0  0  2  0  0  3  0  0  0  0  0  0
  185.9010  178.6730  146.4840 C   0  0  0  0  0  0  0  0  0  0  0  0
  185.0310  178.5880  144.2320 C   0  0  0  0  0  3  0  0  0  0  0  0
  191.6340  176.4870  145.4810 C   0  0  0  0  0  0  0  0  0  0  0  0
  186.1200  177.8150  143.7930 C   0  0  0  0  0  0  0  0  0  0  0  0
  187.1070  176.9300  141.6530 N   0  0  0  0  0  0  0  0  0  0  0  0
  186.0970  177.4090  142.3420 C   0  0  0  0  0  0  0  0  0  0  0  0
  188.2840  176.6430  144.3560 C   0  0  2  0  0  3  0  0  0  0  0  0
  190.5030  176.6980  144.8200 C   0  0  0  0  0  0  0  0  0  0  0  0
  187.1130  177.4700  144.7440 C   0  0  0  0  0  0  0  0  0  0  0  0
  189.2600  176.5130  145.3730 O   0  0  0  0  0  0  0  0  0  0  0  0
  186.9890  177.8980  146.0760 C   0  0  0  0  0  3  0  0  0  0  0  0
  193.1120  176.5680  145.1550 C   0  0  2  0  0  3  0  0  0  0  0  0
  186.9210  179.3640  148.6990 C   0  0  0  0  0  1  0  0  0  0  0  0
  185.7770  179.1270  147.8340 N   0  0  0  0  0  2  0  0  0  0  0  0
  184.8840  177.5980  141.6700 O   0  0  0  0  0  0  0  0  0  0  0  0
  184.7800  178.3460  140.4670 C   0  0  0  0  0  1  0  0  0  0  0  0
  188.6820  175.0530  142.0370 C   0  0  0  0  0  2  0  0  0  0  0  0
  190.0100  173.8960  140.2130 C   0  0  0  0  0  0  0  0  0  0  0  0
  188.8080  174.5090  140.6930 N   0  0  0  0  0  2  0  0  0  0  0  0
  191.0800  173.8910  140.9410 N   0  0  0  0  0  2  0  0  0  0  0  0
  189.5530  172.9510  136.6780 C   0  0  0  0  0  2  0  0  0  0  0  0
  189.7710  170.5100  137.1190 C   0  0  0  0  0  1  0  0  0  0  0  0
  190.6700  172.1940  138.6200 N   0  0  0  0  0  0  0  0  0  0  0  0
  190.4700  171.8510  137.2190 C   0  0  2  0  0  3  0  0  0  0  0  0
  190.0240  173.2750  138.8830 C   0  0  0  0  0  0  0  0  0  0  0  0
  189.3420  173.7890  137.8000 O   0  0  0  0  0  0  0  0  0  0  0  0
  195.1330  175.2430  144.6140 C   0  0  0  0  0  2  0  0  0  0  0  0
  196.0730  174.3900  145.4510 C   0  0  0  0  0  2  0  0  0  0  0  0
  195.5040  173.0670  145.6460 N   0  0  0  0  0  2  0  0  0  0  0  0
  195.6920  172.3260  144.4060 C   0  0  0  0  0  2  0  0  0  0  0  0
  195.2310  170.8890  144.5850 C   0  0  2  0  0  3  0  0  0  0  0  0
  189.1750  171.7590  143.0980 C   0  0  0  0  0  1  0  0  0  0  0  0
  193.8540  169.7150  142.8640 C   0  0  0  0  0  3  0  0  0  0  0  0
  191.5910  171.2050  143.5160 C   0  0  0  0  0  0  0  0  0  0  0  0
  192.7920  171.4220  144.2090 C   0  0  0  0  0  3  0  0  0  0  0  0
  191.5530  170.2620  142.5300 N   0  0  0  0  0  0  0  0  0  0  0  0
  193.9290  170.6680  143.8840 C   0  0  0  0  0  0  0  0  0  0  0  0
  190.4110  171.9640  143.8370 N   0  0  0  0  0  0  0  0  0  0  0  0
  192.6460  169.5240  142.1930 C   0  0  0  0  0  3  0  0  0  0  0  0
  190.4120  172.9590  144.9000 C   0  0  0  0  0  1  0  0  0  0  0  0
  195.1060  170.5700  145.9990 N   0  0  0  0  0  2  0  0  0  0  0  0
  196.1700  169.7200  146.3210 N   0  0  0  0  0  1  0  0  0  0  0  0
  1  9  1  0  0  0  0
  2 35  1  6  0  0  0
  2  6  1  0  0  0  0
  3  4  1  1  0  0  0
  3 16  1  0  0  0  0
  6  5  1  1  0  0  0
  7  3  1  0  0  0  0
  7 15  1  0  0  0  0
  8 25  1  0  0  0  0
  8  7  1  0  0  0  0
  9 22  1  0  0  0  0
 10  1  2  0  0  0  0
 11  5  1  0  0  0  0
 12 10  1  0  0  0  0
 12 17  2  0  0  0  0
 13  8  1  0  0  0  0
 13 14  2  0  0  0  0
 14 12  1  0  0  0  0
 15 17  1  0  0  0  0
 15 18  1  0  0  0  0
 16 18  1  0  0  0  0
 16 11  2  0  0  0  0
 17 19  1  0  0  0  0
 19  9  2  0  0  0  0
 20  2  1  0  0  0  0
 20 11  1  0  0  0  0
 20  6  1  0  0  0  0
 22 21  1  0  0  0  0
 23 14  1  0  0  0  0
 24 23  1  0  0  0  0
 26 27  1  0  0  0  0
 26 28  2  0  0  0  0
 27 25  1  0  0  0  0
 29 32  1  0  0  0  0
 29 34  1  0  0  0  0
 30 32  1  0  0  0  0
 31 33  2  0  0  0  0
 32 31  1  0  0  0  0
 33 26  1  0  0  0  0
 34 33  1  0  0  0  0
 35 36  1  0  0  0  0
 36 37  1  0  0  0  0
 38 39  1  0  0  0  0
 38 37  1  0  0  0  0
 39 49  1  0  0  0  0
 40 46  1  0  0  0  0
 41 45  1  0  0  0  0
 42 46  1  0  0  0  0
 42 43  1  0  0  0  0
 44 42  2  0  0  0  0
 45 43  2  0  0  0  0
 45 39  1  0  0  0  0
 46 48  1  0  0  0  0
 47 44  1  0  0  0  0
 47 41  2  0  0  0  0
 49 50  1  0  0  0  0
M  END
>  <MODEL>
2

>  <REMARK>
 VINA RESULT:      -7.1      1.644      2.618
  Name = 
  12 active torsions:
  status: ('A' for Active; 'I' for Inactive)
    1  A    between atoms: C_2  and  C_42
    2  A    between atoms: N_6  and  C_16
    3  A    between atoms: C_8  and  C_44
    4  A    between atoms: N_9  and  C_25
    5  A    between atoms: C_10  and  N_19
    6  A    between atoms: C_10  and  C_29
    7  A    between atoms: O_14  and  C_31
    8  A    between atoms: C_15  and  C_25
    9  A    between atoms: N_19  and  C_20
   10  A    between atoms: C_20  and  C_42
   11  A    between atoms: N_23  and  C_29
   12  A    between atoms: C_29  and  C_37
                            x       y       z     vdW  Elec       q    Type
                         _______ _______ _______ _____ _____    ______ ____

>  <TORSDO>
F 12

$$$$
=
 OpenBabel11042419473D

 50 56  0  0  1  0  0  0  0  0999 V2000
  184.7710  178.9500  145.5040 C   0  0  0  0  0  3  0  0  0  0  0  0
  193.5020  174.9330  145.2770 C   0  0  1  0  0  3  0  0  0  0  0  0
  190.2290  176.9410  143.4400 C   0  0  2  0  0  3  0  0  0  0  0  0
  190.9460  178.2640  143.2310 C   0  0  0  0  0  1  0  0  0  0  0  0
  191.8100  175.6760  147.2150 S   0  0  0  0  0  0  0  0  0  0  0  0
  193.4380  175.7840  146.5270 C   0  0  2  0  0  3  0  0  0  0  0  0
  188.7920  177.1330  143.2160 N   0  0  1  0  0  0  0  0  0  0  0  0
  188.3540  176.4670  141.9930 C   0  0  2  0  0  3  0  0  0  0  0  0
  185.7240  178.5780  146.4490 C   0  0  0  0  0  0  0  0  0  0  0  0
  184.8980  178.5320  144.1790 C   0  0  0  0  0  3  0  0  0  0  0  0
  191.4280  176.2750  145.5380 C   0  0  0  0  0  0  0  0  0  0  0  0
  185.9780  177.7390  143.7550 C   0  0  0  0  0  0  0  0  0  0  0  0
  186.9880  176.8520  141.6260 N   0  0  0  0  0  0  0  0  0  0  0  0
  185.9750  177.3470  142.3000 C   0  0  0  0  0  0  0  0  0  0  0  0
  188.1040  176.5150  144.3490 C   0  0  2  0  0  3  0  0  0  0  0  0
  190.3140  176.5170  144.8570 C   0  0  0  0  0  0  0  0  0  0  0  0
  186.9440  177.3640  144.7220 C   0  0  0  0  0  0  0  0  0  0  0  0
  189.0570  176.3550  145.3840 O   0  0  0  0  0  0  0  0  0  0  0  0
  186.8030  177.7830  146.0550 C   0  0  0  0  0  3  0  0  0  0  0  0
  192.9130  176.3270  145.2420 C   0  0  2  0  0  3  0  0  0  0  0  0
  186.6640  179.6490  148.5460 C   0  0  0  0  0  1  0  0  0  0  0  0
  185.5830  179.0230  147.8010 N   0  0  0  0  0  2  0  0  0  0  0  0
  184.7790  177.5680  141.6060 O   0  0  0  0  0  0  0  0  0  0  0  0
  184.7140  178.3420  140.4170 C   0  0  0  0  0  1  0  0  0  0  0  0
  188.5140  174.9370  142.0230 C   0  0  0  0  0  2  0  0  0  0  0  0
  189.3240  173.0690  140.5130 C   0  0  0  0  0  0  0  0  0  0  0  0
  188.9510  174.4340  140.7290 N   0  0  0  0  0  2  0  0  0  0  0  0
  189.3790  172.2380  141.5040 N   0  0  0  0  0  2  0  0  0  0  0  0
  189.8520  171.2180  137.3680 C   0  0  0  0  0  2  0  0  0  0  0  0
  191.8640  172.5360  136.7240 C   0  0  0  0  0  1  0  0  0  0  0  0
  190.1920  173.3760  138.2720 N   0  0  0  0  0  0  0  0  0  0  0  0
  190.3850  172.6160  137.0450 C   0  0  2  0  0  3  0  0  0  0  0  0
  189.6500  172.6150  139.1560 C   0  0  0  0  0  0  0  0  0  0  0  0
  189.4130  171.3310  138.7090 O   0  0  0  0  0  0  0  0  0  0  0  0
  194.9150  174.9620  144.7280 C   0  0  0  0  0  2  0  0  0  0  0  0
  195.7930  173.9910  145.5010 C   0  0  0  0  0  2  0  0  0  0  0  0
  195.1850  172.6700  145.5100 N   0  0  0  0  0  2  0  0  0  0  0  0
  195.7140  171.9400  144.3670 C   0  0  0  0  0  2  0  0  0  0  0  0
  194.5730  171.4520  143.4890 C   0  0  2  0  0  3  0  0  0  0  0  0
  196.4430  175.1560  138.7520 C   0  0  0  0  0  1  0  0  0  0  0  0
  193.2180  172.4340  141.6350 C   0  0  0  0  0  3  0  0  0  0  0  0
  195.4440  173.7130  140.5520 C   0  0  0  0  0  0  0  0  0  0  0  0
  195.5810  172.9410  141.7150 C   0  0  0  0  0  3  0  0  0  0  0  0
  194.2150  173.8240  139.9680 N   0  0  0  0  0  0  0  0  0  0  0  0
  194.4600  172.3020  142.2630 C   0  0  0  0  0  0  0  0  0  0  0  0
  196.5800  174.3810  139.9750 N   0  0  0  0  0  0  0  0  0  0  0  0
  193.1140  173.2070  140.4780 C   0  0  0  0  0  3  0  0  0  0  0  0
  197.9000  174.3030  140.5870 C   0  0  0  0  0  1  0  0  0  0  0  0
  193.3230  171.4650  144.2320 N   0  0  0  0  0  2  0  0  0  0  0  0
  192.9490  170.1290  144.4230 N   0  0  0  0  0  1  0  0  0  0  0  0
  1  9  1  0  0  0  0
  2 35  1  6  0  0  0
  2  6  1  0  0  0  0
  3  4  1  1  0  0  0
  3 16  1  0  0  0  0
  6  5  1  1  0  0  0
  7  3  1  0  0  0  0
  7 15  1  0  0  0  0
  8 25  1  0  0  0  0
  8  7  1  0  0  0  0
  9 22  1  0  0  0  0
 10  1  2  0  0  0  0
 11  5  1  0  0  0  0
 12 10  1  0  0  0  0
 12 17  2  0  0  0  0
 13  8  1  0  0  0  0
 13 14  2  0  0  0  0
 14 12  1  0  0  0  0
 15 17  1  0  0  0  0
 15 18  1  0  0  0  0
 16 18  1  0  0  0  0
 16 11  2  0  0  0  0
 17 19  1  0  0  0  0
 19  9  2  0  0  0  0
 20  2  1  0  0  0  0
 20 11  1  0  0  0  0
 20  6  1  0  0  0  0
 22 21  1  0  0  0  0
 23 14  1  0  0  0  0
 24 23  1  0  0  0  0
 26 27  1  0  0  0  0
 26 28  2  0  0  0  0
 27 25  1  0  0  0  0
 29 34  1  0  0  0  0
 30 32  1  0  0  0  0
 31 33  2  0  0  0  0
 32 29  1  0  0  0  0
 32 31  1  0  0  0  0
 33 26  1  0  0  0  0
 34 33  1  0  0  0  0
 35 36  1  0  0  0  0
 36 37  1  0  0  0  0
 38 37  1  0  0  0  0
 39 49  1  0  0  0  0
 39 38  1  0  0  0  0
 40 46  1  0  0  0  0
 41 45  1  0  0  0  0
 42 43  1  0  0  0  0
 43 45  2  0  0  0  0
 44 47  1  0  0  0  0
 44 42  2  0  0  0  0
 45 39  1  0  0  0  0
 46 42  1  0  0  0  0
 46 48  1  0  0  0  0
 47 41  2  0  0  0  0
 49 50  1  0  0  0  0
M  END
>  <MODEL>
3

>  <REMARK>
 VINA RESULT:      -6.9      1.502      2.859
  Name = 
  12 active torsions:
  status: ('A' for Active; 'I' for Inactive)
    1  A    between atoms: C_2  and  C_42
    2  A    between atoms: N_6  and  C_16
    3  A    between atoms: C_8  and  C_44
    4  A    between atoms: N_9  and  C_25
    5  A    between atoms: C_10  and  N_19
    6  A    between atoms: C_10  and  C_29
    7  A    between atoms: O_14  and  C_31
    8  A    between atoms: C_15  and  C_25
    9  A    between atoms: N_19  and  C_20
   10  A    between atoms: C_20  and  C_42
   11  A    between atoms: N_23  and  C_29
   12  A    between atoms: C_29  and  C_37
                            x       y       z     vdW  Elec       q    Type
                         _______ _______ _______ _____ _____    ______ ____

>  <TORSDO>
F 12

$$$$
=
 OpenBabel11042419473D

 50 56  0  0  1  0  0  0  0  0999 V2000
  184.8030  178.8860  145.1790 C   0  0  0  0  0  3  0  0  0  0  0  0
  193.6930  175.2660  145.7180 C   0  0  1  0  0  3  0  0  0  0  0  0
  190.5060  177.1310  143.6020 C   0  0  2  0  0  3  0  0  0  0  0  0
  191.1780  178.4860  143.4560 C   0  0  0  0  0  1  0  0  0  0  0  0
  191.8060  175.9250  147.5000 S   0  0  0  0  0  0  0  0  0  0  0  0
  193.4820  176.1080  146.9580 C   0  0  2  0  0  3  0  0  0  0  0  0
  189.0870  177.2600  143.2520 N   0  0  1  0  0  0  0  0  0  0  0  0
  188.7880  176.5800  141.9960 C   0  0  2  0  0  3  0  0  0  0  0  0
  185.6870  178.5540  146.2050 C   0  0  0  0  0  0  0  0  0  0  0  0
  185.0650  178.4790  143.8710 C   0  0  0  0  0  3  0  0  0  0  0  0
  191.5450  176.5120  145.7960 C   0  0  0  0  0  0  0  0  0  0  0  0
  186.2130  177.7370  143.5430 C   0  0  0  0  0  0  0  0  0  0  0  0
  187.4430  176.9040  141.5110 N   0  0  0  0  0  0  0  0  0  0  0  0
  186.3550  177.3510  142.0940 C   0  0  0  0  0  0  0  0  0  0  0  0
  188.3310  176.6070  144.3210 C   0  0  2  0  0  3  0  0  0  0  0  0
  190.4860  176.7070  145.0210 C   0  0  0  0  0  0  0  0  0  0  0  0
  187.1060  177.4020  144.5910 C   0  0  0  0  0  0  0  0  0  0  0  0
  189.1960  176.4860  145.4350 O   0  0  0  0  0  0  0  0  0  0  0  0
  186.8300  177.8090  145.9070 C   0  0  0  0  0  3  0  0  0  0  0  0
  193.0470  176.6320  145.6320 C   0  0  2  0  0  3  0  0  0  0  0  0
  186.3760  179.6950  148.3600 C   0  0  0  0  0  1  0  0  0  0  0  0
  185.4080  178.9870  147.5390 N   0  0  0  0  0  2  0  0  0  0  0  0
  185.2150  177.5210  141.2970 O   0  0  0  0  0  0  0  0  0  0  0  0
  185.2820  177.9360  139.9410 C   0  0  0  0  0  1  0  0  0  0  0  0
  189.0130  175.0580  142.0410 C   0  0  0  0  0  2  0  0  0  0  0  0
  188.9880  173.5260  140.0210 C   0  0  0  0  0  0  0  0  0  0  0  0
  189.5800  174.5800  140.7880 N   0  0  0  0  0  2  0  0  0  0  0  0
  187.9600  172.8820  140.4730 N   0  0  0  0  0  2  0  0  0  0  0  0
  189.8630  172.0490  136.7580 C   0  0  0  0  0  2  0  0  0  0  0  0
  192.2750  172.6410  136.9370 C   0  0  0  0  0  1  0  0  0  0  0  0
  190.5470  173.8030  138.1880 N   0  0  0  0  0  0  0  0  0  0  0  0
  190.8650  173.1970  136.9030 C   0  0  2  0  0  3  0  0  0  0  0  0
  189.5580  173.1720  138.7160 C   0  0  0  0  0  0  0  0  0  0  0  0
  189.0920  172.1290  137.9430 O   0  0  0  0  0  0  0  0  0  0  0  0
  195.1460  175.3600  145.2950 C   0  0  0  0  0  2  0  0  0  0  0  0
  195.6520  173.9920  144.8670 C   0  0  0  0  0  2  0  0  0  0  0  0
  196.2960  174.0840  143.5670 N   0  0  0  0  0  2  0  0  0  0  0  0
  195.2790  174.4920  142.6080 C   0  0  0  0  0  2  0  0  0  0  0  0
  195.2550  173.5260  141.4340 C   0  0  2  0  0  3  0  0  0  0  0  0
  189.5700  171.6010  143.3350 C   0  0  0  0  0  1  0  0  0  0  0  0
  193.6750  171.9520  140.3110 C   0  0  0  0  0  3  0  0  0  0  0  0
  191.8140  172.1950  142.3700 C   0  0  0  0  0  0  0  0  0  0  0  0
  193.0250  172.9000  142.4390 C   0  0  0  0  0  3  0  0  0  0  0  0
  191.5680  171.3990  141.2890 N   0  0  0  0  0  0  0  0  0  0  0  0
  193.9640  172.7730  141.4050 C   0  0  0  0  0  0  0  0  0  0  0  0
  190.8380  172.3070  143.4220 N   0  0  0  0  0  0  0  0  0  0  0  0
  192.4610  171.2660  140.2710 C   0  0  0  0  0  3  0  0  0  0  0  0
  191.0800  173.1290  144.6000 C   0  0  0  0  0  1  0  0  0  0  0  0
  196.3790  172.6050  141.5150 N   0  0  0  0  0  2  0  0  0  0  0  0
  197.2400  172.9170  140.4570 N   0  0  0  0  0  1  0  0  0  0  0  0
  1  9  1  0  0  0  0
  2 35  1  6  0  0  0
  2  6  1  0  0  0  0
  3  4  1  1  0  0  0
  3 16  1  0  0  0  0
  6  5  1  1  0  0  0
  7  3  1  0  0  0  0
  7 15  1  0  0  0  0
  8 25  1  0  0  0  0
  8  7  1  0  0  0  0
  9 22  1  0  0  0  0
 10  1  2  0  0  0  0
 11  5  1  0  0  0  0
 12 10  1  0  0  0  0
 12 17  2  0  0  0  0
 13  8  1  0  0  0  0
 13 14  2  0  0  0  0
 14 12  1  0  0  0  0
 15 17  1  0  0  0  0
 15 18  1  0  0  0  0
 16 18  1  0  0  0  0
 16 11  2  0  0  0  0
 17 19  1  0  0  0  0
 19  9  2  0  0  0  0
 20  2  1  0  0  0  0
 20 11  1  0  0  0  0
 20  6  1  0  0  0  0
 22 21  1  0  0  0  0
 23 14  1  0  0  0  0
 24 23  1  0  0  0  0
 26 28  2  0  0  0  0
 26 27  1  0  0  0  0
 27 25  1  0  0  0  0
 29 32  1  0  0  0  0
 29 34  1  0  0  0  0
 31 33  2  0  0  0  0
 32 30  1  0  0  0  0
 32 31  1  0  0  0  0
 33 26  1  0  0  0  0
 34 33  1  0  0  0  0
 36 35  1  0  0  0  0
 37 36  1  0  0  0  0
 38 37  1  0  0  0  0
 39 49  1  0  0  0  0
 39 38  1  0  0  0  0
 40 46  1  0  0  0  0
 41 45  1  0  0  0  0
 42 43  1  0  0  0  0
 42 46  1  0  0  0  0
 44 42  2  0  0  0  0
 45 39  1  0  0  0  0
 45 43  2  0  0  0  0
 46 48  1  0  0  0  0
 47 41  2  0  0  0  0
 47 44  1  0  0  0  0
 50 49  1  0  0  0  0
M  END
>  <MODEL>
4

>  <REMARK>
 VINA RESULT:      -6.8      1.235      2.000
  Name = 
  12 active torsions:
  status: ('A' for Active; 'I' for Inactive)
    1  A    between atoms: C_2  and  C_42
    2  A    between atoms: N_6  and  C_16
    3  A    between atoms: C_8  and  C_44
    4  A    between atoms: N_9  and  C_25
    5  A    between atoms: C_10  and  N_19
    6  A    between atoms: C_10  and  C_29
    7  A    between atoms: O_14  and  C_31
    8  A    between atoms: C_15  and  C_25
    9  A    between atoms: N_19  and  C_20
   10  A    between atoms: C_20  and  C_42
   11  A    between atoms: N_23  and  C_29
   12  A    between atoms: C_29  and  C_37
                            x       y       z     vdW  Elec       q    Type
                         _______ _______ _______ _____ _____    ______ ____

>  <TORSDO>
F 12

$$$$
=
 OpenBabel11042419473D

 50 56  0  0  1  0  0  0  0  0999 V2000
  186.2410  177.8860  145.8380 C   0  0  0  0  0  3  0  0  0  0  0  0
  190.3500  172.9510  138.6840 C   0  0  1  0  0  3  0  0  0  0  0  0
  189.8720  173.9270  142.7990 C   0  0  2  0  0  3  0  0  0  0  0  0
  189.2380  172.6070  143.2060 C   0  0  0  0  0  1  0  0  0  0  0  0
  188.2000  174.5310  138.9020 S   0  0  0  0  0  0  0  0  0  0  0  0
  188.8610  172.9620  138.4150 C   0  0  2  0  0  3  0  0  0  0  0  0
  189.7000  174.8970  143.8860 N   0  0  1  0  0  0  0  0  0  0  0  0
  190.9740  175.1980  144.5320 C   0  0  2  0  0  3  0  0  0  0  0  0
  185.9390  177.6220  144.5030 C   0  0  0  0  0  0  0  0  0  0  0  0
  187.5030  177.5770  146.3440 C   0  0  0  0  0  3  0  0  0  0  0  0
  188.9630  173.9890  140.4640 C   0  0  0  0  0  0  0  0  0  0  0  0
  188.4990  176.9920  145.5420 C   0  0  0  0  0  0  0  0  0  0  0  0
  190.7870  175.9670  145.7660 N   0  0  0  0  0  0  0  0  0  0  0  0
  189.8200  176.7310  146.2180 C   0  0  0  0  0  0  0  0  0  0  0  0
  189.1920  176.1250  143.2750 C   0  0  2  0  0  3  0  0  0  0  0  0
  189.1370  174.5310  141.6630 C   0  0  0  0  0  0  0  0  0  0  0  0
  188.1850  176.7280  144.1850 C   0  0  0  0  0  0  0  0  0  0  0  0
  188.6830  175.7820  142.0000 O   0  0  0  0  0  0  0  0  0  0  0  0
  186.9140  177.0500  143.6820 C   0  0  0  0  0  3  0  0  0  0  0  0
  189.3560  172.6880  139.7940 C   0  0  2  0  0  3  0  0  0  0  0  0
  184.3430  178.0630  142.5840 C   0  0  0  0  0  1  0  0  0  0  0  0
  184.6370  177.9370  144.0030 N   0  0  0  0  0  2  0  0  0  0  0  0
  190.0060  177.3450  147.4630 O   0  0  0  0  0  0  0  0  0  0  0  0
  191.1570  177.1240  148.2630 C   0  0  0  0  0  1  0  0  0  0  0  0
  192.0010  175.8700  143.6050 C   0  0  0  0  0  2  0  0  0  0  0  0
  194.3760  175.8340  144.4920 C   0  0  0  0  0  0  0  0  0  0  0  0
  193.3090  175.2460  143.7390 N   0  0  0  0  0  2  0  0  0  0  0  0
  194.2420  177.0120  145.0110 N   0  0  0  0  0  2  0  0  0  0  0  0
  197.6600  174.1910  144.1660 C   0  0  0  0  0  2  0  0  0  0  0  0
  197.0940  172.3490  145.7440 C   0  0  0  0  0  1  0  0  0  0  0  0
  195.9400  174.4860  145.7600 N   0  0  0  0  0  0  0  0  0  0  0  0
  197.2400  173.8510  145.5980 C   0  0  2  0  0  3  0  0  0  0  0  0
  195.6300  175.0930  144.6690 C   0  0  0  0  0  0  0  0  0  0  0  0
  196.5860  174.9730  143.6810 O   0  0  0  0  0  0  0  0  0  0  0  0
  190.9320  171.6380  138.1980 C   0  0  0  0  0  2  0  0  0  0  0  0
  191.2430  171.7250  136.7120 C   0  0  0  0  0  2  0  0  0  0  0  0
  191.8660  173.0020  136.4080 N   0  0  0  0  0  2  0  0  0  0  0  0
  193.3070  172.8220  136.5290 C   0  0  0  0  0  2  0  0  0  0  0  0
  193.9510  174.1050  137.0270 C   0  0  2  0  0  3  0  0  0  0  0  0
  194.7620  171.9980  142.9050 C   0  0  0  0  0  1  0  0  0  0  0  0
  195.9500  174.3190  138.5090 C   0  0  0  0  0  3  0  0  0  0  0  0
  194.6810  172.9570  140.5820 C   0  0  0  0  0  0  0  0  0  0  0  0
  194.0000  173.1790  139.3760 C   0  0  0  0  0  3  0  0  0  0  0  0
  195.9600  173.4140  140.7190 N   0  0  0  0  0  0  0  0  0  0  0  0
  194.6370  173.8700  138.3350 C   0  0  0  0  0  0  0  0  0  0  0  0
  194.0450  172.2550  141.6660 N   0  0  0  0  0  0  0  0  0  0  0  0
  196.6000  174.0800  139.7190 C   0  0  0  0  0  3  0  0  0  0  0  0
  192.6730  171.7760  141.5610 C   0  0  0  0  0  1  0  0  0  0  0  0
  192.9500  175.1540  137.1610 N   0  0  0  0  0  2  0  0  0  0  0  0
  193.3710  176.2230  136.3610 N   0  0  0  0  0  1  0  0  0  0  0  0
  1 10  1  0  0  0  0
  2 35  1  6  0  0  0
  2 20  1  0  0  0  0
  3  4  1  1  0  0  0
  3  7  1  0  0  0  0
  5 11  1  0  0  0  0
  6  2  1  0  0  0  0
  6  5  1  1  0  0  0
  6 20  1  0  0  0  0
  7  8  1  0  0  0  0
  8 13  1  0  0  0  0
  9  1  2  0  0  0  0
 11 16  2  0  0  0  0
 12 14  1  0  0  0  0
 12 10  2  0  0  0  0
 13 14  2  0  0  0  0
 14 23  1  0  0  0  0
 15  7  1  0  0  0  0
 15 17  1  0  0  0  0
 16 18  1  0  0  0  0
 16  3  1  0  0  0  0
 17 12  1  0  0  0  0
 18 15  1  0  0  0  0
 19 17  2  0  0  0  0
 19  9  1  0  0  0  0
 20 11  1  0  0  0  0
 21 22  1  0  0  0  0
 22  9  1  0  0  0  0
 23 24  1  0  0  0  0
 25 27  1  0  0  0  0
 25  8  1  0  0  0  0
 26 33  1  0  0  0  0
 26 28  2  0  0  0  0
 27 26  1  0  0  0  0
 29 32  1  0  0  0  0
 32 30  1  0  0  0  0
 32 31  1  0  0  0  0
 33 31  2  0  0  0  0
 34 29  1  0  0  0  0
 34 33  1  0  0  0  0
 36 35  1  0  0  0  0
 37 38  1  0  0  0  0
 37 36  1  0  0  0  0
 38 39  1  0  0  0  0
 39 49  1  0  0  0  0
 39 45  1  0  0  0  0
 41 47  1  0  0  0  0
 42 44  1  0  0  0  0
 42 46  1  0  0  0  0
 43 42  2  0  0  0  0
 45 41  2  0  0  0  0
 45 43  1  0  0  0  0
 46 40  1  0  0  0  0
 47 44  2  0  0  0  0
 48 46  1  0  0  0  0
 50 49  1  0  0  0  0
M  END
>  <MODEL>
5

>  <REMARK>
 VINA RESULT:      -6.7      2.816      6.448
  Name = 
  12 active torsions:
  status: ('A' for Active; 'I' for Inactive)
    1  A    between atoms: C_2  and  C_42
    2  A    between atoms: N_6  and  C_16
    3  A    between atoms: C_8  and  C_44
    4  A    between atoms: N_9  and  C_25
    5  A    between atoms: C_10  and  N_19
    6  A    between atoms: C_10  and  C_29
    7  A    between atoms: O_14  and  C_31
    8  A    between atoms: C_15  and  C_25
    9  A    between atoms: N_19  and  C_20
   10  A    between atoms: C_20  and  C_42
   11  A    between atoms: N_23  and  C_29
   12  A    between atoms: C_29  and  C_37
                            x       y       z     vdW  Elec       q    Type
                         _______ _______ _______ _____ _____    ______ ____

>  <TORSDO>
F 12

$$$$
=
 OpenBabel11042419473D

 50 56  0  0  1  0  0  0  0  0999 V2000
  184.8170  179.1440  145.4010 C   0  0  0  0  0  3  0  0  0  0  0  0
  193.5060  175.0330  145.3310 C   0  0  1  0  0  3  0  0  0  0  0  0
  190.2460  176.9840  143.4130 C   0  0  2  0  0  3  0  0  0  0  0  0
  190.9750  178.2880  143.1400 C   0  0  0  0  0  1  0  0  0  0  0  0
  191.8300  175.8840  147.2380 S   0  0  0  0  0  0  0  0  0  0  0  0
  193.4560  175.9420  146.5390 C   0  0  2  0  0  3  0  0  0  0  0  0
  188.8100  177.1800  143.1860 N   0  0  1  0  0  0  0  0  0  0  0  0
  188.3590  176.4620  141.9980 C   0  0  2  0  0  3  0  0  0  0  0  0
  185.7710  178.8080  146.3590 C   0  0  0  0  0  0  0  0  0  0  0  0
  184.9340  178.6630  144.0970 C   0  0  0  0  0  3  0  0  0  0  0  0
  191.4460  176.4060  145.5360 C   0  0  0  0  0  0  0  0  0  0  0  0
  186.0040  177.8400  143.7060 C   0  0  0  0  0  0  0  0  0  0  0  0
  186.9960  176.8430  141.6190 N   0  0  0  0  0  0  0  0  0  0  0  0
  185.9910  177.3790  142.2720 C   0  0  0  0  0  0  0  0  0  0  0  0
  188.1200  176.6230  144.3500 C   0  0  2  0  0  3  0  0  0  0  0  0
  190.3330  176.6270  144.8490 C   0  0  0  0  0  0  0  0  0  0  0  0
  186.9710  177.5010  144.6870 C   0  0  0  0  0  0  0  0  0  0  0  0
  189.0760  176.5030  145.3870 O   0  0  0  0  0  0  0  0  0  0  0  0
  186.8400  177.9840  145.9990 C   0  0  0  0  0  3  0  0  0  0  0  0
  192.9310  176.4290  145.2320 C   0  0  2  0  0  3  0  0  0  0  0  0
  186.7470  179.3680  148.6300 C   0  0  0  0  0  1  0  0  0  0  0  0
  185.6400  179.3180  147.6880 N   0  0  0  0  0  2  0  0  0  0  0  0
  184.7950  177.5790  141.5720 O   0  0  0  0  0  0  0  0  0  0  0  0
  184.7330  178.2910  140.3450 C   0  0  0  0  0  1  0  0  0  0  0  0
  188.5040  174.9330  142.1000 C   0  0  0  0  0  2  0  0  0  0  0  0
  189.8760  173.3090  140.7180 C   0  0  0  0  0  0  0  0  0  0  0  0
  188.9130  174.3630  140.8250 N   0  0  0  0  0  2  0  0  0  0  0  0
  190.5020  172.8840  141.7680 N   0  0  0  0  0  2  0  0  0  0  0  0
  190.0800  171.2310  137.6800 C   0  0  0  0  0  2  0  0  0  0  0  0
  192.4250  171.8940  137.1690 C   0  0  0  0  0  1  0  0  0  0  0  0
  190.9550  173.2480  138.5500 N   0  0  0  0  0  0  0  0  0  0  0  0
  191.0110  172.4050  137.3640 C   0  0  2  0  0  3  0  0  0  0  0  0
  190.1560  172.7150  139.4060 C   0  0  0  0  0  0  0  0  0  0  0  0
  189.5960  171.5300  138.9760 O   0  0  0  0  0  0  0  0  0  0  0  0
  194.9170  175.0210  144.7760 C   0  0  0  0  0  2  0  0  0  0  0  0
  195.0060  174.0610  143.6000 C   0  0  0  0  0  2  0  0  0  0  0  0
  193.7230  173.9880  142.9200 N   0  0  0  0  0  2  0  0  0  0  0  0
  193.9300  174.4490  141.5540 C   0  0  0  0  0  2  0  0  0  0  0  0
  194.7620  173.4370  140.7840 C   0  0  2  0  0  3  0  0  0  0  0  0
  194.9820  176.4180  135.2430 C   0  0  0  0  0  1  0  0  0  0  0  0
  196.7590  174.1680  139.4740 C   0  0  0  0  0  3  0  0  0  0  0  0
  195.1650  175.2130  137.4410 C   0  0  0  0  0  0  0  0  0  0  0  0
  194.5650  174.6030  138.5540 C   0  0  0  0  0  3  0  0  0  0  0  0
  196.5260  175.2830  137.3750 N   0  0  0  0  0  0  0  0  0  0  0  0
  195.3670  174.0730  139.5730 C   0  0  0  0  0  0  0  0  0  0  0  0
  194.3600  175.7600  136.3800 N   0  0  0  0  0  0  0  0  0  0  0  0
  197.3250  174.7810  138.3560 C   0  0  0  0  0  3  0  0  0  0  0  0
  192.9060  175.6780  136.4090 C   0  0  0  0  0  1  0  0  0  0  0  0
  193.9450  172.2950  140.4020 N   0  0  0  0  0  2  0  0  0  0  0  0
  194.6510  171.1450  140.7750 N   0  0  0  0  0  1  0  0  0  0  0  0
  1  9  1  0  0  0  0
  2 35  1  6  0  0  0
  2  6  1  0  0  0  0
  3  4  1  1  0  0  0
  3 16  1  0  0  0  0
  6  5  1  1  0  0  0
  7  3  1  0  0  0  0
  7 15  1  0  0  0  0
  8 25  1  0  0  0  0
  8  7  1  0  0  0  0
  9 22  1  0  0  0  0
 10  1  2  0  0  0  0
 11  5  1  0  0  0  0
 12 10  1  0  0  0  0
 12 17  2  0  0  0  0
 13  8  1  0  0  0  0
 13 14  2  0  0  0  0
 14 12  1  0  0  0  0
 15 17  1  0  0  0  0
 15 18  1  0  0  0  0
 16 18  1  0  0  0  0
 16 11  2  0  0  0  0
 17 19  1  0  0  0  0
 19  9  2  0  0  0  0
 20  2  1  0  0  0  0
 20 11  1  0  0  0  0
 20  6  1  0  0  0  0
 22 21  1  0  0  0  0
 23 14  1  0  0  0  0
 24 23  1  0  0  0  0
 26 27  1  0  0  0  0
 26 28  2  0  0  0  0
 27 25  1  0  0  0  0
 29 34  1  0  0  0  0
 30 32  1  0  0  0  0
 31 33  2  0  0  0  0
 32 29  1  0  0  0  0
 32 31  1  0  0  0  0
 33 26  1  0  0  0  0
 34 33  1  0  0  0  0
 36 35  1  0  0  0  0
 37 36  1  0  0  0  0
 38 37  1  0  0  0  0
 39 38  1  0  0  0  0
 40 46  1  0  0  0  0
 41 45  1  0  0  0  0
 42 43  1  0  0  0  0
 43 45  2  0  0  0  0
 44 42  2  0  0  0  0
 44 47  1  0  0  0  0
 45 39  1  0  0  0  0
 46 48  1  0  0  0  0
 46 42  1  0  0  0  0
 47 41  2  0  0  0  0
 49 50  1  0  0  0  0
 49 39  1  0  0  0  0
M  END
>  <MODEL>
6

>  <REMARK>
 VINA RESULT:      -6.6      1.919      3.386
  Name = 
  12 active torsions:
  status: ('A' for Active; 'I' for Inactive)
    1  A    between atoms: C_2  and  C_42
    2  A    between atoms: N_6  and  C_16
    3  A    between atoms: C_8  and  C_44
    4  A    between atoms: N_9  and  C_25
    5  A    between atoms: C_10  and  N_19
    6  A    between atoms: C_10  and  C_29
    7  A    between atoms: O_14  and  C_31
    8  A    between atoms: C_15  and  C_25
    9  A    between atoms: N_19  and  C_20
   10  A    between atoms: C_20  and  C_42
   11  A    between atoms: N_23  and  C_29
   12  A    between atoms: C_29  and  C_37
                            x       y       z     vdW  Elec       q    Type
                         _______ _______ _______ _____ _____    ______ ____

>  <TORSDO>
F 12

$$$$
=
 OpenBabel11042419473D

 50 56  0  0  1  0  0  0  0  0999 V2000
  185.8590  177.7760  144.9460 C   0  0  0  0  0  3  0  0  0  0  0  0
  190.7950  172.3380  138.7430 C   0  0  1  0  0  3  0  0  0  0  0  0
  189.9160  173.7200  142.6710 C   0  0  2  0  0  3  0  0  0  0  0  0
  189.3100  172.4190  143.1690 C   0  0  0  0  0  1  0  0  0  0  0  0
  188.5640  173.8130  138.6080 S   0  0  0  0  0  0  0  0  0  0  0  0
  189.3360  172.2400  138.3540 C   0  0  2  0  0  3  0  0  0  0  0  0
  189.6070  174.7900  143.6260 N   0  0  1  0  0  0  0  0  0  0  0  0
  190.8040  175.2270  144.3370 C   0  0  2  0  0  3  0  0  0  0  0  0
  185.6860  177.3560  143.6280 C   0  0  0  0  0  0  0  0  0  0  0  0
  187.0850  177.5920  145.5840 C   0  0  0  0  0  3  0  0  0  0  0  0
  189.2120  173.4840  140.2770 C   0  0  0  0  0  0  0  0  0  0  0  0
  188.1720  176.9810  144.9360 C   0  0  0  0  0  0  0  0  0  0  0  0
  190.4760  176.1120  145.4580 N   0  0  0  0  0  0  0  0  0  0  0  0
  189.4390  176.8660  145.7420 C   0  0  0  0  0  0  0  0  0  0  0  0
  189.0990  175.9170  142.8430 C   0  0  2  0  0  3  0  0  0  0  0  0
  189.2560  174.1590  141.4190 C   0  0  0  0  0  0  0  0  0  0  0  0
  187.9900  176.5570  143.5960 C   0  0  0  0  0  0  0  0  0  0  0  0
  188.7180  175.4120  141.5770 O   0  0  0  0  0  0  0  0  0  0  0  0
  186.7540  176.7540  142.9580 C   0  0  0  0  0  3  0  0  0  0  0  0
  189.7210  172.1420  139.7900 C   0  0  2  0  0  3  0  0  0  0  0  0
  184.2500  178.3360  141.7840 C   0  0  0  0  0  1  0  0  0  0  0  0
  184.4200  177.5440  142.9920 N   0  0  0  0  0  2  0  0  0  0  0  0
  189.4880  177.6180  146.9230 O   0  0  0  0  0  0  0  0  0  0  0  0
  190.4700  177.4080  147.9260 C   0  0  0  0  0  1  0  0  0  0  0  0
  191.8770  175.8520  143.4280 C   0  0  0  0  0  2  0  0  0  0  0  0
  194.1770  175.7420  144.4890 C   0  0  0  0  0  0  0  0  0  0  0  0
  193.1670  175.2080  143.6270 N   0  0  0  0  0  2  0  0  0  0  0  0
  194.0110  176.8930  145.0600 N   0  0  0  0  0  2  0  0  0  0  0  0
  197.3710  173.9150  144.2700 C   0  0  0  0  0  2  0  0  0  0  0  0
  196.8220  172.3730  146.1470 C   0  0  0  0  0  1  0  0  0  0  0  0
  195.7540  174.5390  145.8780 N   0  0  0  0  0  0  0  0  0  0  0  0
  197.0180  173.8250  145.7570 C   0  0  2  0  0  3  0  0  0  0  0  0
  195.4090  174.9800  144.7200 C   0  0  0  0  0  0  0  0  0  0  0  0
  196.3020  174.6610  143.7190 O   0  0  0  0  0  0  0  0  0  0  0  0
  191.4760  171.0150  138.4540 C   0  0  0  0  0  2  0  0  0  0  0  0
  192.9690  171.1310  138.7120 C   0  0  0  0  0  2  0  0  0  0  0  0
  193.3650  172.5300  138.7240 N   0  0  0  0  0  2  0  0  0  0  0  0
  194.8200  172.5690  138.7690 C   0  0  0  0  0  2  0  0  0  0  0  0
  195.2810  173.3210  140.0080 C   0  0  2  0  0  3  0  0  0  0  0  0
  194.2730  169.9110  145.2040 C   0  0  0  0  0  1  0  0  0  0  0  0
  196.8060  171.7010  141.1420 C   0  0  0  0  0  3  0  0  0  0  0  0
  194.9280  171.1750  143.1320 C   0  0  0  0  0  0  0  0  0  0  0  0
  194.6270  172.0950  142.1170 C   0  0  0  0  0  3  0  0  0  0  0  0
  196.1420  170.5500  143.1270 N   0  0  0  0  0  0  0  0  0  0  0  0
  195.5750  172.3640  141.1180 C   0  0  0  0  0  0  0  0  0  0  0  0
  193.9720  170.8880  144.1700 N   0  0  0  0  0  0  0  0  0  0  0  0
  197.0740  170.7900  142.1640 C   0  0  0  0  0  3  0  0  0  0  0  0
  192.6790  171.5550  144.2180 C   0  0  0  0  0  1  0  0  0  0  0  0
  194.2690  174.2820  140.4210 N   0  0  0  0  0  2  0  0  0  0  0  0
  194.9090  175.5210  140.5430 N   0  0  0  0  0  1  0  0  0  0  0  0
  1 10  1  0  0  0  0
  2 35  1  6  0  0  0
  2 20  1  0  0  0  0
  3  4  1  1  0  0  0
  3  7  1  0  0  0  0
  5 11  1  0  0  0  0
  6  5  1  1  0  0  0
  6  2  1  0  0  0  0
  6 20  1  0  0  0  0
  7  8  1  0  0  0  0
  8 13  1  0  0  0  0
  9  1  2  0  0  0  0
 11 16  2  0  0  0  0
 12 10  2  0  0  0  0
 12 14  1  0  0  0  0
 13 14  2  0  0  0  0
 14 23  1  0  0  0  0
 15 17  1  0  0  0  0
 15  7  1  0  0  0  0
 16 18  1  0  0  0  0
 16  3  1  0  0  0  0
 17 12  1  0  0  0  0
 18 15  1  0  0  0  0
 19 17  2  0  0  0  0
 19  9  1  0  0  0  0
 20 11  1  0  0  0  0
 21 22  1  0  0  0  0
 22  9  1  0  0  0  0
 23 24  1  0  0  0  0
 25 27  1  0  0  0  0
 25  8  1  0  0  0  0
 26 33  1  0  0  0  0
 26 28  2  0  0  0  0
 27 26  1  0  0  0  0
 29 32  1  0  0  0  0
 32 31  1  0  0  0  0
 32 30  1  0  0  0  0
 33 31  2  0  0  0  0
 34 29  1  0  0  0  0
 34 33  1  0  0  0  0
 35 36  1  0  0  0  0
 36 37  1  0  0  0  0
 37 38  1  0  0  0  0
 38 39  1  0  0  0  0
 39 49  1  0  0  0  0
 39 45  1  0  0  0  0
 41 47  1  0  0  0  0
 42 46  1  0  0  0  0
 43 42  2  0  0  0  0
 44 42  1  0  0  0  0
 45 41  2  0  0  0  0
 45 43  1  0  0  0  0
 46 48  1  0  0  0  0
 46 40  1  0  0  0  0
 47 44  2  0  0  0  0
 49 50  1  0  0  0  0
M  END
>  <MODEL>
7

>  <REMARK>
 VINA RESULT:      -6.6      2.778      6.216
  Name = 
  12 active torsions:
  status: ('A' for Active; 'I' for Inactive)
    1  A    between atoms: C_2  and  C_42
    2  A    between atoms: N_6  and  C_16
    3  A    between atoms: C_8  and  C_44
    4  A    between atoms: N_9  and  C_25
    5  A    between atoms: C_10  and  N_19
    6  A    between atoms: C_10  and  C_29
    7  A    between atoms: O_14  and  C_31
    8  A    between atoms: C_15  and  C_25
    9  A    between atoms: N_19  and  C_20
   10  A    between atoms: C_20  and  C_42
   11  A    between atoms: N_23  and  C_29
   12  A    between atoms: C_29  and  C_37
                            x       y       z     vdW  Elec       q    Type
                         _______ _______ _______ _____ _____    ______ ____

>  <TORSDO>
F 12

$$$$
=
 OpenBabel11042419473D

 50 56  0  0  1  0  0  0  0  0999 V2000
  185.8490  177.8380  145.1070 C   0  0  0  0  0  3  0  0  0  0  0  0
  190.1920  172.5160  138.3830 C   0  0  1  0  0  3  0  0  0  0  0  0
  189.3820  173.5420  142.4330 C   0  0  2  0  0  3  0  0  0  0  0  0
  188.5850  172.2910  142.7620 C   0  0  0  0  0  1  0  0  0  0  0  0
  188.1920  174.2960  138.3880 S   0  0  0  0  0  0  0  0  0  0  0  0
  188.7480  172.6690  137.9610 C   0  0  2  0  0  3  0  0  0  0  0  0
  189.1910  174.5270  143.5040 N   0  0  1  0  0  0  0  0  0  0  0  0
  190.4130  174.7060  144.2820 C   0  0  2  0  0  3  0  0  0  0  0  0
  185.6640  177.6020  143.7470 C   0  0  0  0  0  0  0  0  0  0  0  0
  187.0160  177.4110  145.7400 C   0  0  0  0  0  3  0  0  0  0  0  0
  188.7330  173.6870  140.0170 C   0  0  0  0  0  0  0  0  0  0  0  0
  188.0290  176.7310  145.0420 C   0  0  0  0  0  0  0  0  0  0  0  0
  190.1730  175.4920  145.4950 N   0  0  0  0  0  0  0  0  0  0  0  0
  189.2410  176.3460  145.8500 C   0  0  0  0  0  0  0  0  0  0  0  0
  188.8700  175.7970  142.8530 C   0  0  2  0  0  3  0  0  0  0  0  0
  188.8310  174.2120  141.2320 C   0  0  0  0  0  0  0  0  0  0  0  0
  187.8350  176.4960  143.6580 C   0  0  0  0  0  0  0  0  0  0  0  0
  188.4660  175.5010  141.5290 O   0  0  0  0  0  0  0  0  0  0  0  0
  186.6600  176.9370  143.0270 C   0  0  0  0  0  3  0  0  0  0  0  0
  189.0670  172.3520  139.3810 C   0  0  2  0  0  3  0  0  0  0  0  0
  184.2340  177.9440  141.6820 C   0  0  0  0  0  1  0  0  0  0  0  0
  184.4580  178.0390  143.1160 N   0  0  0  0  0  2  0  0  0  0  0  0
  189.3530  176.9420  147.1120 O   0  0  0  0  0  0  0  0  0  0  0  0
  190.6040  177.1690  147.7450 C   0  0  0  0  0  1  0  0  0  0  0  0
  191.5910  175.2740  143.4720 C   0  0  0  0  0  2  0  0  0  0  0  0
  193.8290  175.1750  144.6600 C   0  0  0  0  0  0  0  0  0  0  0  0
  192.8320  174.5940  143.8120 N   0  0  0  0  0  2  0  0  0  0  0  0
  193.7010  176.3910  145.0860 N   0  0  0  0  0  2  0  0  0  0  0  0
  197.1900  173.8480  145.3880 C   0  0  0  0  0  2  0  0  0  0  0  0
  196.5640  171.4920  144.8790 C   0  0  0  0  0  1  0  0  0  0  0  0
  194.9250  173.1790  145.4860 N   0  0  0  0  0  0  0  0  0  0  0  0
  196.2670  172.6870  145.7640 C   0  0  2  0  0  3  0  0  0  0  0  0
  195.0040  174.3840  145.0430 C   0  0  0  0  0  0  0  0  0  0  0  0
  196.2970  174.8570  144.9560 O   0  0  0  0  0  0  0  0  0  0  0  0
  190.6940  171.1520  137.9500 C   0  0  0  0  0  2  0  0  0  0  0  0
  192.2090  171.1680  137.8330 C   0  0  0  0  0  2  0  0  0  0  0  0
  192.7680  169.9670  138.4320 N   0  0  0  0  0  2  0  0  0  0  0  0
  193.9550  170.3660  139.1770 C   0  0  0  0  0  2  0  0  0  0  0  0
  193.5660  171.3020  140.3090 C   0  0  2  0  0  3  0  0  0  0  0  0
  196.8280  176.4190  141.9890 C   0  0  0  0  0  1  0  0  0  0  0  0
  195.9610  171.4810  140.9950 C   0  0  0  0  0  3  0  0  0  0  0  0
  195.7590  174.2390  141.3380 C   0  0  0  0  0  0  0  0  0  0  0  0
  194.6400  173.5060  140.9150 C   0  0  0  0  0  3  0  0  0  0  0  0
  196.9330  173.5850  141.5750 N   0  0  0  0  0  0  0  0  0  0  0  0
  194.7440  172.1190  140.7370 C   0  0  0  0  0  0  0  0  0  0  0  0
  195.6770  175.6650  141.5220 N   0  0  0  0  0  0  0  0  0  0  0  0
  197.0550  172.2380  141.4160 C   0  0  0  0  0  3  0  0  0  0  0  0
  194.4460  176.3960  141.2530 C   0  0  0  0  0  1  0  0  0  0  0  0
  193.0400  170.5440  141.4340 N   0  0  0  0  0  2  0  0  0  0  0  0
  191.6940  170.9030  141.5740 N   0  0  0  0  0  1  0  0  0  0  0  0
  1 10  1  0  0  0  0
  2 35  1  6  0  0  0
  2 20  1  0  0  0  0
  3  4  1  1  0  0  0
  3  7  1  0  0  0  0
  5 11  1  0  0  0  0
  6  2  1  0  0  0  0
  6  5  1  1  0  0  0
  6 20  1  0  0  0  0
  7  8  1  0  0  0  0
  8 13  1  0  0  0  0
  9  1  2  0  0  0  0
 11 16  2  0  0  0  0
 12 10  2  0  0  0  0
 12 14  1  0  0  0  0
 13 14  2  0  0  0  0
 14 23  1  0  0  0  0
 15  7  1  0  0  0  0
 15 17  1  0  0  0  0
 16 18  1  0  0  0  0
 16  3  1  0  0  0  0
 17 12  1  0  0  0  0
 18 15  1  0  0  0  0
 19 17  2  0  0  0  0
 19  9  1  0  0  0  0
 20 11  1  0  0  0  0
 21 22  1  0  0  0  0
 22  9  1  0  0  0  0
 23 24  1  0  0  0  0
 25 27  1  0  0  0  0
 25  8  1  0  0  0  0
 26 33  1  0  0  0  0
 26 28  2  0  0  0  0
 27 26  1  0  0  0  0
 29 32  1  0  0  0  0
 30 32  1  0  0  0  0
 31 32  1  0  0  0  0
 33 31  2  0  0  0  0
 34 33  1  0  0  0  0
 34 29  1  0  0  0  0
 36 35  1  0  0  0  0
 36 37  1  0  0  0  0
 37 38  1  0  0  0  0
 38 39  1  0  0  0  0
 39 45  1  0  0  0  0
 39 49  1  0  0  0  0
 41 47  1  0  0  0  0
 42 46  1  0  0  0  0
 42 44  1  0  0  0  0
 43 42  2  0  0  0  0
 45 43  1  0  0  0  0
 45 41  2  0  0  0  0
 46 40  1  0  0  0  0
 47 44  2  0  0  0  0
 48 46  1  0  0  0  0
 49 50  1  0  0  0  0
M  END
>  <MODEL>
8

>  <REMARK>
 VINA RESULT:      -6.5      2.660      6.567
  Name = 
  12 active torsions:
  status: ('A' for Active; 'I' for Inactive)
    1  A    between atoms: C_2  and  C_42
    2  A    between atoms: N_6  and  C_16
    3  A    between atoms: C_8  and  C_44
    4  A    between atoms: N_9  and  C_25
    5  A    between atoms: C_10  and  N_19
    6  A    between atoms: C_10  and  C_29
    7  A    between atoms: O_14  and  C_31
    8  A    between atoms: C_15  and  C_25
    9  A    between atoms: N_19  and  C_20
   10  A    between atoms: C_20  and  C_42
   11  A    between atoms: N_23  and  C_29
   12  A    between atoms: C_29  and  C_37
                            x       y       z     vdW  Elec       q    Type
                         _______ _______ _______ _____ _____    ______ ____

>  <TORSDO>
F 12

$$$$
=
 OpenBabel11042419473D

 50 56  0  0  1  0  0  0  0  0999 V2000
  185.3460  178.1020  144.4910 C   0  0  0  0  0  3  0  0  0  0  0  0
  190.0820  172.7700  138.0460 C   0  0  1  0  0  3  0  0  0  0  0  0
  189.0780  173.8420  142.0400 C   0  0  2  0  0  3  0  0  0  0  0  0
  188.2950  172.5790  142.3560 C   0  0  0  0  0  1  0  0  0  0  0  0
  188.0460  174.5060  137.9360 S   0  0  0  0  0  0  0  0  0  0  0  0
  188.6530  172.8850  137.5600 C   0  0  2  0  0  3  0  0  0  0  0  0
  188.8220  174.8390  143.0850 N   0  0  1  0  0  0  0  0  0  0  0  0
  190.0060  175.0570  143.9110 C   0  0  2  0  0  3  0  0  0  0  0  0
  185.2240  177.8410  143.1280 C   0  0  0  0  0  0  0  0  0  0  0  0
  186.4940  177.7100  145.1800 C   0  0  0  0  0  3  0  0  0  0  0  0
  188.5300  173.9340  139.5970 C   0  0  0  0  0  0  0  0  0  0  0  0
  187.5500  177.0420  144.5360 C   0  0  0  0  0  0  0  0  0  0  0  0
  189.6980  175.8560  145.1000 N   0  0  0  0  0  0  0  0  0  0  0  0
  188.7340  176.6960  145.4010 C   0  0  0  0  0  0  0  0  0  0  0  0
  188.5020  176.0920  142.4010 C   0  0  2  0  0  3  0  0  0  0  0  0
  188.5650  174.4810  140.8060 C   0  0  0  0  0  0  0  0  0  0  0  0
  187.4200  176.7800  143.1490 C   0  0  0  0  0  0  0  0  0  0  0  0
  188.1610  175.7660  141.0650 O   0  0  0  0  0  0  0  0  0  0  0  0
  186.2640  177.1860  142.4620 C   0  0  0  0  0  3  0  0  0  0  0  0
  188.9180  172.5980  138.9980 C   0  0  2  0  0  3  0  0  0  0  0  0
  183.8490  178.0560  141.0100 C   0  0  0  0  0  1  0  0  0  0  0  0
  184.0370  178.2420  142.4400 N   0  0  0  0  0  2  0  0  0  0  0  0
  188.7800  177.3140  146.6570 O   0  0  0  0  0  0  0  0  0  0  0  0
  189.9810  177.4450  147.4040 C   0  0  0  0  0  1  0  0  0  0  0  0
  191.2050  175.6380  143.1420 C   0  0  0  0  0  2  0  0  0  0  0  0
  193.2200  174.1040  143.0030 C   0  0  0  0  0  0  0  0  0  0  0  0
  192.4600  175.1200  143.6680 N   0  0  0  0  0  2  0  0  0  0  0  0
  192.7590  173.5310  141.9380 N   0  0  0  0  0  2  0  0  0  0  0  0
  196.3080  172.3880  144.0550 C   0  0  0  0  0  2  0  0  0  0  0  0
  196.6120  173.7980  146.0840 C   0  0  0  0  0  1  0  0  0  0  0  0
  195.2990  174.5220  144.1730 N   0  0  0  0  0  0  0  0  0  0  0  0
  196.5070  173.8140  144.5720 C   0  0  2  0  0  3  0  0  0  0  0  0
  194.5270  173.7110  143.5400 C   0  0  0  0  0  0  0  0  0  0  0  0
  195.0420  172.4370  143.4220 O   0  0  0  0  0  0  0  0  0  0  0  0
  190.6290  171.4100  137.6570 C   0  0  0  0  0  2  0  0  0  0  0  0
  191.6910  171.5660  136.5800 C   0  0  0  0  0  2  0  0  0  0  0  0
  192.1340  172.9480  136.5140 N   0  0  0  0  0  2  0  0  0  0  0  0
  193.5910  172.9380  136.5260 C   0  0  0  0  0  2  0  0  0  0  0  0
  194.1190  174.3590  136.6390 C   0  0  2  0  0  3  0  0  0  0  0  0
  197.6600  175.7710  141.6500 C   0  0  0  0  0  1  0  0  0  0  0  0
  196.4760  173.6980  137.1310 C   0  0  0  0  0  3  0  0  0  0  0  0
  196.4670  175.0890  139.5450 C   0  0  0  0  0  0  0  0  0  0  0  0
  195.3210  175.0920  138.7350 C   0  0  0  0  0  3  0  0  0  0  0  0
  197.5710  174.4000  139.1340 N   0  0  0  0  0  0  0  0  0  0  0  0
  195.3280  174.3960  137.5180 C   0  0  0  0  0  0  0  0  0  0  0  0
  196.4830  175.8000  140.7970 N   0  0  0  0  0  0  0  0  0  0  0  0
  197.5980  173.7120  137.9600 C   0  0  0  0  0  3  0  0  0  0  0  0
  195.3300  176.5650  141.2520 C   0  0  0  0  0  1  0  0  0  0  0  0
  193.0860  175.2420  137.1600 N   0  0  0  0  0  2  0  0  0  0  0  0
  193.0010  176.3310  136.2850 N   0  0  0  0  0  1  0  0  0  0  0  0
  1 10  1  0  0  0  0
  2 35  1  6  0  0  0
  2 20  1  0  0  0  0
  3  4  1  1  0  0  0
  3  7  1  0  0  0  0
  5 11  1  0  0  0  0
  6  5  1  1  0  0  0
  6  2  1  0  0  0  0
  6 20  1  0  0  0  0
  7  8  1  0  0  0  0
  8 13  1  0  0  0  0
  9  1  2  0  0  0  0
 11 16  2  0  0  0  0
 12 10  2  0  0  0  0
 12 14  1  0  0  0  0
 13 14  2  0  0  0  0
 14 23  1  0  0  0  0
 15  7  1  0  0  0  0
 15 17  1  0  0  0  0
 16 18  1  0  0  0  0
 16  3  1  0  0  0  0
 17 12  1  0  0  0  0
 18 15  1  0  0  0  0
 19  9  1  0  0  0  0
 19 17  2  0  0  0  0
 20 11  1  0  0  0  0
 21 22  1  0  0  0  0
 22  9  1  0  0  0  0
 23 24  1  0  0  0  0
 25 27  1  0  0  0  0
 25  8  1  0  0  0  0
 26 33  1  0  0  0  0
 26 27  1  0  0  0  0
 28 26  2  0  0  0  0
 29 32  1  0  0  0  0
 31 32  1  0  0  0  0
 32 30  1  0  0  0  0
 33 31  2  0  0  0  0
 34 33  1  0  0  0  0
 34 29  1  0  0  0  0
 36 35  1  0  0  0  0
 37 38  1  0  0  0  0
 37 36  1  0  0  0  0
 38 39  1  0  0  0  0
 39 49  1  0  0  0  0
 39 45  1  0  0  0  0
 41 45  2  0  0  0  0
 41 47  1  0  0  0  0
 42 46  1  0  0  0  0
 43 42  2  0  0  0  0
 44 42  1  0  0  0  0
 45 43  1  0  0  0  0
 46 48  1  0  0  0  0
 46 40  1  0  0  0  0
 47 44  2  0  0  0  0
 50 49  1  0  0  0  0
M  END
>  <MODEL>
9

>  <REMARK>
 VINA RESULT:      -6.5      2.987      6.687
  Name = 
  12 active torsions:
  status: ('A' for Active; 'I' for Inactive)
    1  A    between atoms: C_2  and  C_42
    2  A    between atoms: N_6  and  C_16
    3  A    between atoms: C_8  and  C_44
    4  A    between atoms: N_9  and  C_25
    5  A    between atoms: C_10  and  N_19
    6  A    between atoms: C_10  and  C_29
    7  A    between atoms: O_14  and  C_31
    8  A    between atoms: C_15  and  C_25
    9  A    between atoms: N_19  and  C_20
   10  A    between atoms: C_20  and  C_42
   11  A    between atoms: N_23  and  C_29
   12  A    between atoms: C_29  and  C_37
                            x       y       z     vdW  Elec       q    Type
                         _______ _______ _______ _____ _____    ______ ____

>  <TORSDO>
F 12

$$$$
