=
 OpenBabel11042417363D

 33 36  0  0  1  0  0  0  0  0999 V2000
  196.5860  176.5990  143.3990 N   0  0  0  0  0  1  0  0  0  0  0  0
  195.5910  174.6250  142.1410 C   0  0  0  0  0  2  0  0  0  0  0  0
  192.7900  176.5720  145.4410 N   0  0  0  0  0  0  0  0  0  0  0  0
  192.1120  174.7130  144.0400 C   0  0  0  0  0  0  0  0  0  0  0  0
  193.9870  176.6610  144.9400 C   0  0  0  0  0  0  0  0  0  0  0  0
  191.8030  175.6050  145.0170 C   0  0  0  0  0  0  0  0  0  0  0  0
  193.9890  173.7320  142.1410 S   0  0  0  0  0  0  0  0  0  0  0  0
  193.4370  174.7340  143.4830 N   0  0  0  0  0  0  0  0  0  0  0  0
  195.5180  175.6760  143.1980 C   0  0  0  0  0  0  0  0  0  0  0  0
  194.3790  175.7090  143.8800 C   0  0  0  0  0  0  0  0  0  0  0  0
  189.5710  172.0410  144.2080 C   0  0  0  0  0  2  0  0  0  0  0  0
  188.9350  173.6100  142.5440 C   0  0  0  0  0  2  0  0  0  0  0  0
  190.3700  174.0990  142.3540 C   0  0  0  0  0  2  0  0  0  0  0  0
  191.0450  172.4320  144.1160 C   0  0  0  0  0  2  0  0  0  0  0  0
  188.9310  172.1940  142.9020 N   0  0  0  0  0  2  0  0  0  0  0  0
  191.1540  173.7710  143.5390 N   0  0  0  0  0  0  0  0  0  0  0  0
  190.4180  175.1840  147.0680 C   0  0  0  0  0  2  0  0  0  0  0  0
  189.0140  174.6560  147.3120 C   0  0  0  0  0  2  0  0  0  0  0  0
  188.1950  176.4640  145.9150 C   0  0  0  0  0  0  0  0  0  0  0  0
  190.5240  175.6060  145.6730 N   0  0  0  0  0  0  0  0  0  0  0  0
  188.0380  175.6720  146.9370 N   0  0  0  0  0  0  0  0  0  0  0  0
  189.4560  176.4180  145.0780 C   0  0  0  0  0  2  0  0  0  0  0  0
  187.1670  177.4740  145.6170 C   0  0  0  0  0  0  0  0  0  0  0  0
  186.4000  177.8810  146.5320 O   0  0  0  0  0  0  0  0  0  0  0  0
  186.1330  179.1080  144.2540 O   0  0  0  0  0  1  0  0  0  0  0  0
  187.0520  178.0580  144.2440 C   0  0  2  0  0  3  0  0  0  0  0  0
  186.6420  177.0810  143.3330 O   0  0  0  0  0  0  0  0  0  0  0  0
  187.4850  176.2690  140.8160 O   0  0  0  0  0  0  0  0  0  0  0  0
  188.5320  178.3330  142.0250 O   0  0  0  0  0  1  0  0  0  0  0  0
  186.1220  178.6340  141.1070 F   0  0  0  0  0  0  0  0  0  0  0  0
  187.2260  177.5990  141.8270 P   0  0  2  0  0  0  0  0  0  0  0  0
  194.7350  177.7790  146.8780 O   0  0  0  0  0  1  0  0  0  0  0  0
  194.9250  177.6750  145.4990 C   0  0  0  0  0  2  0  0  0  0  0  0
  2  7  1  0  0  0  0
  2  9  1  0  0  0  0
  4  6  2  0  0  0  0
  5  3  2  0  0  0  0
  5 33  1  0  0  0  0
  6  3  1  0  0  0  0
  6 20  1  0  0  0  0
  7  8  1  0  0  0  0
  8 10  1  0  0  0  0
  8  4  1  0  0  0  0
  9  1  1  0  0  0  0
  9 10  2  0  0  0  0
 10  5  1  0  0  0  0
 12 15  1  0  0  0  0
 13 12  1  0  0  0  0
 13 16  1  0  0  0  0
 14 11  1  0  0  0  0
 15 11  1  0  0  0  0
 16  4  1  0  0  0  0
 16 14  1  0  0  0  0
 17 18  1  0  0  0  0
 19 21  2  0  0  0  0
 20 17  1  0  0  0  0
 21 18  1  0  0  0  0
 22 20  1  0  0  0  0
 22 19  1  0  0  0  0
 23 19  1  0  0  0  0
 23 24  2  0  0  0  0
 26 25  1  1  0  0  0
 26 23  1  0  0  0  0
 27 26  1  0  0  0  0
 30 31  1  0  0  0  0
 31 28  2  6  0  0  0
 31 29  1  0  0  0  0
 31 27  1  0  0  0  0
 33 32  1  0  0  0  0
M  END
>  <MODEL>
1

>  <REMARK>
 VINA RESULT:      -6.8      0.000      0.000
  Name = 
  7 active torsions:
  status: ('A' for Active; 'I' for Inactive)
    1  A    between atoms: C_10  and  N_33
    2  A    between atoms: C_12  and  C_17
    3  A    between atoms: C_12  and  C_21
    4  A    between atoms: CA_14  and  C_19
    5  A    between atoms: C_18  and  N_26
    6  A    between atoms: P_20  and  O_29
    7  A    between atoms: C_21  and  O_29
                            x       y       z     vdW  Elec       q    Type
                         _______ _______ _______ _____ _____    ______ ____

>  <TORSDO>
F 7

$$$$
=
 OpenBabel11042417363D

 33 36  0  0  1  0  0  0  0  0999 V2000
  183.6730  179.0520  144.5510 N   0  0  0  0  0  1  0  0  0  0  0  0
  184.4610  178.1240  146.7840 C   0  0  0  0  0  2  0  0  0  0  0  0
  187.6090  177.8800  143.2400 N   0  0  0  0  0  0  0  0  0  0  0  0
  188.0760  177.1280  145.4970 C   0  0  0  0  0  0  0  0  0  0  0  0
  186.3830  178.2360  143.4900 C   0  0  0  0  0  0  0  0  0  0  0  0
  188.5070  177.3170  144.2230 C   0  0  0  0  0  0  0  0  0  0  0  0
  186.0080  177.3830  147.4330 S   0  0  0  0  0  0  0  0  0  0  0  0
  186.7150  177.4590  145.8190 N   0  0  0  0  0  0  0  0  0  0  0  0
  184.6720  178.4000  145.3320 C   0  0  0  0  0  0  0  0  0  0  0  0
  185.8600  178.0440  144.8580 C   0  0  0  0  0  0  0  0  0  0  0  0
  190.3130  174.7220  147.1790 C   0  0  0  0  0  2  0  0  0  0  0  0
  191.1540  176.9180  147.5040 C   0  0  0  0  0  2  0  0  0  0  0  0
  189.7850  177.5540  147.2730 C   0  0  0  0  0  2  0  0  0  0  0  0
  188.8920  175.2250  146.9320 C   0  0  0  0  0  2  0  0  0  0  0  0
  190.9980  175.6040  148.1230 N   0  0  0  0  0  2  0  0  0  0  0  0
  188.9400  176.6280  146.5260 N   0  0  0  0  0  0  0  0  0  0  0  0
  190.9110  177.9330  143.8390 C   0  0  0  0  0  2  0  0  0  0  0  0
  191.9510  177.5540  142.7980 C   0  0  0  0  0  2  0  0  0  0  0  0
  191.6090  175.2380  143.4380 C   0  0  0  0  0  0  0  0  0  0  0  0
  189.8310  176.9480  143.8020 N   0  0  0  0  0  0  0  0  0  0  0  0
  192.4030  176.1880  143.0330 N   0  0  0  0  0  0  0  0  0  0  0  0
  190.1560  175.5170  143.7570 C   0  0  0  0  0  2  0  0  0  0  0  0
  192.1530  173.8900  143.6660 C   0  0  0  0  0  0  0  0  0  0  0  0
  191.5000  172.8760  143.2970 O   0  0  0  0  0  0  0  0  0  0  0  0
  193.8230  172.3540  144.3360 O   0  0  0  0  0  1  0  0  0  0  0  0
  193.4990  173.7110  144.2960 C   0  0  2  0  0  3  0  0  0  0  0  0
  193.5050  174.2370  145.5900 O   0  0  0  0  0  0  0  0  0  0  0  0
  194.5380  176.6820  146.4020 O   0  0  0  0  0  1  0  0  0  0  0  0
  195.4250  175.4420  144.2820 O   0  0  0  0  0  0  0  0  0  0  0  0
  196.0790  174.4180  146.5760 F   0  0  0  0  0  0  0  0  0  0  0  0
  194.8990  175.1980  145.6770 P   0  0  2  0  0  0  0  0  0  0  0  0
  185.8490  178.0750  141.1980 O   0  0  0  0  0  1  0  0  0  0  0  0
  185.5470  178.7620  142.3750 C   0  0  0  0  0  2  0  0  0  0  0  0
  1  9  1  0  0  0  0
  2  7  1  0  0  0  0
  3  5  2  0  0  0  0
  3  6  1  0  0  0  0
  4  8  1  0  0  0  0
  4 16  1  0  0  0  0
  5 10  1  0  0  0  0
  6  4  2  0  0  0  0
  8  7  1  0  0  0  0
  9  2  1  0  0  0  0
 10  9  2  0  0  0  0
 10  8  1  0  0  0  0
 11 15  1  0  0  0  0
 12 15  1  0  0  0  0
 13 12  1  0  0  0  0
 14 11  1  0  0  0  0
 16 14  1  0  0  0  0
 16 13  1  0  0  0  0
 18 21  1  0  0  0  0
 18 17  1  0  0  0  0
 19 23  1  0  0  0  0
 19 22  1  0  0  0  0
 20 17  1  0  0  0  0
 20  6  1  0  0  0  0
 21 19  2  0  0  0  0
 22 20  1  0  0  0  0
 23 26  1  0  0  0  0
 24 23  2  0  0  0  0
 26 25  1  1  0  0  0
 26 27  1  0  0  0  0
 27 31  1  0  0  0  0
 31 29  2  6  0  0  0
 31 28  1  0  0  0  0
 31 30  1  0  0  0  0
 32 33  1  0  0  0  0
 33  5  1  0  0  0  0
M  END
>  <MODEL>
2

>  <REMARK>
 VINA RESULT:      -6.6      4.181      7.867
  Name = 
  7 active torsions:
  status: ('A' for Active; 'I' for Inactive)
    1  A    between atoms: C_10  and  N_33
    2  A    between atoms: C_12  and  C_17
    3  A    between atoms: C_12  and  C_21
    4  A    between atoms: CA_14  and  C_19
    5  A    between atoms: C_18  and  N_26
    6  A    between atoms: P_20  and  O_29
    7  A    between atoms: C_21  and  O_29
                            x       y       z     vdW  Elec       q    Type
                         _______ _______ _______ _____ _____    ______ ____

>  <TORSDO>
F 7

$$$$
=
 OpenBabel11042417363D

 33 36  0  0  1  0  0  0  0  0999 V2000
  196.3650  175.4170  142.5390 N   0  0  0  0  0  1  0  0  0  0  0  0
  195.6180  175.9890  144.9020 C   0  0  0  0  0  2  0  0  0  0  0  0
  192.1260  175.2410  141.7770 N   0  0  0  0  0  0  0  0  0  0  0  0
  191.7400  175.7530  144.1150 C   0  0  0  0  0  0  0  0  0  0  0  0
  193.4220  175.3080  141.8590 C   0  0  0  0  0  0  0  0  0  0  0  0
  191.2310  175.4550  142.8920 C   0  0  0  0  0  0  0  0  0  0  0  0
  194.0150  176.1630  145.7740 S   0  0  0  0  0  0  0  0  0  0  0  0
  193.1650  175.8860  144.2540 N   0  0  0  0  0  0  0  0  0  0  0  0
  195.3200  175.6860  143.4710 C   0  0  0  0  0  0  0  0  0  0  0  0
  194.0290  175.6370  143.1640 C   0  0  0  0  0  0  0  0  0  0  0  0
  188.9500  177.1030  146.1200 C   0  0  0  0  0  2  0  0  0  0  0  0
  189.2020  174.7920  146.6020 C   0  0  0  0  0  2  0  0  0  0  0  0
  190.6620  174.7840  146.1540 C   0  0  0  0  0  2  0  0  0  0  0  0
  190.3960  177.2360  145.6460 C   0  0  0  0  0  2  0  0  0  0  0  0
  188.8600  176.0930  147.1730 N   0  0  0  0  0  2  0  0  0  0  0  0
  190.9040  175.9180  145.2680 N   0  0  0  0  0  0  0  0  0  0  0  0
  189.0920  174.1420  142.9720 C   0  0  0  0  0  2  0  0  0  0  0  0
  187.8670  174.0530  142.0790 C   0  0  0  0  0  2  0  0  0  0  0  0
  187.5770  176.4410  142.4000 C   0  0  0  0  0  0  0  0  0  0  0  0
  189.8150  175.3710  142.6540 N   0  0  0  0  0  0  0  0  0  0  0  0
  187.0600  175.2570  142.2340 N   0  0  0  0  0  0  0  0  0  0  0  0
  189.0750  176.6310  142.5080 C   0  0  0  0  0  2  0  0  0  0  0  0
  186.6880  177.6020  142.5660 C   0  0  0  0  0  0  0  0  0  0  0  0
  186.7510  178.5650  141.7540 O   0  0  0  0  0  0  0  0  0  0  0  0
  184.3990  177.7970  143.1310 O   0  0  0  0  0  1  0  0  0  0  0  0
  185.6760  177.6310  143.6680 C   0  0  2  0  0  3  0  0  0  0  0  0
  185.9540  178.6720  144.5570 O   0  0  0  0  0  0  0  0  0  0  0  0
  185.9320  178.9820  147.3160 O   0  0  0  0  0  1  0  0  0  0  0  0
  185.1930  176.7550  146.1690 O   0  0  0  0  0  0  0  0  0  0  0  0
  183.5650  178.7640  145.9420 F   0  0  0  0  0  0  0  0  0  0  0  0
  185.1610  178.2560  145.9970 P   0  0  2  0  0  0  0  0  0  0  0  0
  193.4380  174.5210  139.6340 O   0  0  0  0  0  1  0  0  0  0  0  0
  194.2290  175.1100  140.6220 C   0  0  0  0  0  2  0  0  0  0  0  0
  1  9  1  0  0  0  0
  2  7  1  0  0  0  0
  3  5  2  0  0  0  0
  3  6  1  0  0  0  0
  4  8  1  0  0  0  0
  4 16  1  0  0  0  0
  5 10  1  0  0  0  0
  6  4  2  0  0  0  0
  8  7  1  0  0  0  0
  9  2  1  0  0  0  0
 10  9  2  0  0  0  0
 10  8  1  0  0  0  0
 11 15  1  0  0  0  0
 12 15  1  0  0  0  0
 13 12  1  0  0  0  0
 14 11  1  0  0  0  0
 16 14  1  0  0  0  0
 16 13  1  0  0  0  0
 18 21  1  0  0  0  0
 18 17  1  0  0  0  0
 19 22  1  0  0  0  0
 19 23  1  0  0  0  0
 20  6  1  0  0  0  0
 20 17  1  0  0  0  0
 21 19  2  0  0  0  0
 22 20  1  0  0  0  0
 23 26  1  0  0  0  0
 24 23  2  0  0  0  0
 26 25  1  6  0  0  0
 26 27  1  0  0  0  0
 27 31  1  0  0  0  0
 31 30  1  6  0  0  0
 31 29  2  0  0  0  0
 31 28  1  0  0  0  0
 32 33  1  0  0  0  0
 33  5  1  0  0  0  0
M  END
>  <MODEL>
3

>  <REMARK>
 VINA RESULT:      -6.6      2.559      4.170
  Name = 
  7 active torsions:
  status: ('A' for Active; 'I' for Inactive)
    1  A    between atoms: C_10  and  N_33
    2  A    between atoms: C_12  and  C_17
    3  A    between atoms: C_12  and  C_21
    4  A    between atoms: CA_14  and  C_19
    5  A    between atoms: C_18  and  N_26
    6  A    between atoms: P_20  and  O_29
    7  A    between atoms: C_21  and  O_29
                            x       y       z     vdW  Elec       q    Type
                         _______ _______ _______ _____ _____    ______ ____

>  <TORSDO>
F 7

$$$$
=
 OpenBabel11042417363D

 33 36  0  0  1  0  0  0  0  0999 V2000
  185.0510  179.0510  142.9770 N   0  0  0  0  0  1  0  0  0  0  0  0
  185.7400  178.4650  145.3540 C   0  0  0  0  0  2  0  0  0  0  0  0
  188.5480  176.7590  141.9290 N   0  0  0  0  0  0  0  0  0  0  0  0
  188.9650  176.4180  144.2920 C   0  0  0  0  0  0  0  0  0  0  0  0
  187.4470  177.4300  142.1040 C   0  0  0  0  0  0  0  0  0  0  0  0
  189.3540  176.2280  143.0050 C   0  0  0  0  0  0  0  0  0  0  0  0
  187.1190  177.5460  146.1400 S   0  0  0  0  0  0  0  0  0  0  0  0
  187.7320  177.1130  144.5440 N   0  0  0  0  0  0  0  0  0  0  0  0
  185.9230  178.3700  143.8760 C   0  0  0  0  0  0  0  0  0  0  0  0
  186.9740  177.6590  143.4840 C   0  0  0  0  0  0  0  0  0  0  0  0
  190.8080  176.6810  147.4800 C   0  0  0  0  0  2  0  0  0  0  0  0
  189.6550  174.6070  147.4220 C   0  0  0  0  0  2  0  0  0  0  0  0
  189.5910  174.6030  145.8960 C   0  0  0  0  0  2  0  0  0  0  0  0
  190.8170  176.8010  145.9570 C   0  0  0  0  0  2  0  0  0  0  0  0
  190.8760  175.2740  147.8710 N   0  0  0  0  0  2  0  0  0  0  0  0
  189.7550  175.9660  145.4000 N   0  0  0  0  0  0  0  0  0  0  0  0
  190.4370  174.2910  141.8310 C   0  0  0  0  0  2  0  0  0  0  0  0
  191.6040  173.3730  142.1500 C   0  0  0  0  0  2  0  0  0  0  0  0
  193.0000  175.3540  142.2920 C   0  0  0  0  0  0  0  0  0  0  0  0
  190.5380  175.4860  142.6660 N   0  0  0  0  0  0  0  0  0  0  0  0
  192.8580  174.0980  141.9780 N   0  0  0  0  0  0  0  0  0  0  0  0
  191.8300  176.1690  142.8020 C   0  0  0  0  0  2  0  0  0  0  0  0
  194.2960  176.0140  142.0690 C   0  0  0  0  0  0  0  0  0  0  0  0
  194.5950  176.4440  140.9220 O   0  0  0  0  0  0  0  0  0  0  0  0
  196.4330  176.7830  142.7310 O   0  0  0  0  0  1  0  0  0  0  0  0
  195.2480  176.2190  143.2060 C   0  0  2  0  0  3  0  0  0  0  0  0
  195.5220  175.0030  143.8370 O   0  0  0  0  0  0  0  0  0  0  0  0
  193.4650  174.4750  145.6240 O   0  0  0  0  0  0  0  0  0  0  0  0
  194.8750  176.6690  145.7500 O   0  0  0  0  0  1  0  0  0  0  0  0
  196.0680  174.4870  146.4960 F   0  0  0  0  0  0  0  0  0  0  0  0
  194.9830  175.1950  145.4330 P   0  0  2  0  0  0  0  0  0  0  0  0
  186.9220  177.0100  139.8420 O   0  0  0  0  0  1  0  0  0  0  0  0
  186.6860  177.8830  140.9060 C   0  0  0  0  0  2  0  0  0  0  0  0
  1  9  1  0  0  0  0
  2  7  1  0  0  0  0
  3  5  2  0  0  0  0
  3  6  1  0  0  0  0
  4  8  1  0  0  0  0
  4 16  1  0  0  0  0
  5 10  1  0  0  0  0
  6  4  2  0  0  0  0
  8  7  1  0  0  0  0
  9  2  1  0  0  0  0
 10  9  2  0  0  0  0
 10  8  1  0  0  0  0
 11 15  1  0  0  0  0
 12 15  1  0  0  0  0
 13 12  1  0  0  0  0
 14 11  1  0  0  0  0
 16 13  1  0  0  0  0
 16 14  1  0  0  0  0
 17 18  1  0  0  0  0
 17 20  1  0  0  0  0
 19 22  1  0  0  0  0
 20 22  1  0  0  0  0
 20  6  1  0  0  0  0
 21 18  1  0  0  0  0
 21 19  2  0  0  0  0
 23 19  1  0  0  0  0
 23 26  1  0  0  0  0
 24 23  2  0  0  0  0
 26 25  1  6  0  0  0
 26 27  1  0  0  0  0
 27 31  1  0  0  0  0
 31 28  2  1  0  0  0
 31 29  1  0  0  0  0
 31 30  1  0  0  0  0
 32 33  1  0  0  0  0
 33  5  1  0  0  0  0
M  END
>  <MODEL>
4

>  <REMARK>
 VINA RESULT:      -6.5      3.970      7.656
  Name = 
  7 active torsions:
  status: ('A' for Active; 'I' for Inactive)
    1  A    between atoms: C_10  and  N_33
    2  A    between atoms: C_12  and  C_17
    3  A    between atoms: C_12  and  C_21
    4  A    between atoms: CA_14  and  C_19
    5  A    between atoms: C_18  and  N_26
    6  A    between atoms: P_20  and  O_29
    7  A    between atoms: C_21  and  O_29
                            x       y       z     vdW  Elec       q    Type
                         _______ _______ _______ _____ _____    ______ ____

>  <TORSDO>
F 7

$$$$
=
 OpenBabel11042417363D

 33 36  0  0  1  0  0  0  0  0999 V2000
  190.1330  171.1510  138.5430 N   0  0  0  0  0  1  0  0  0  0  0  0
  192.3660  171.1510  139.7610 C   0  0  0  0  0  2  0  0  0  0  0  0
  189.2110  174.3580  141.2720 N   0  0  0  0  0  0  0  0  0  0  0  0
  191.4060  174.0740  142.2600 C   0  0  0  0  0  0  0  0  0  0  0  0
  189.3760  173.4410  140.3640 C   0  0  0  0  0  0  0  0  0  0  0  0
  190.2080  174.7140  142.2560 C   0  0  0  0  0  0  0  0  0  0  0  0
  193.1070  172.0780  141.1580 S   0  0  0  0  0  0  0  0  0  0  0  0
  191.6610  173.0840  141.2510 N   0  0  0  0  0  0  0  0  0  0  0  0
  191.0040  171.7130  139.5220 C   0  0  0  0  0  0  0  0  0  0  0  0
  190.6640  172.7200  140.3180 C   0  0  0  0  0  0  0  0  0  0  0  0
  193.7440  176.1200  144.2540 C   0  0  0  0  0  2  0  0  0  0  0  0
  192.7690  174.4720  145.6570 C   0  0  0  0  0  2  0  0  0  0  0  0
  192.4430  173.5570  144.4770 C   0  0  0  0  0  2  0  0  0  0  0  0
  193.4810  175.3040  142.9900 C   0  0  0  0  0  2  0  0  0  0  0  0
  193.9910  175.2260  145.3840 N   0  0  0  0  0  2  0  0  0  0  0  0
  192.4090  174.3440  143.2490 N   0  0  0  0  0  0  0  0  0  0  0  0
  190.1550  177.1570  142.8310 C   0  0  0  0  0  2  0  0  0  0  0  0
  190.3790  177.9540  144.1050 C   0  0  0  0  0  2  0  0  0  0  0  0
  188.5950  176.6570  145.1170 C   0  0  0  0  0  0  0  0  0  0  0  0
  189.8990  175.7640  143.1890 N   0  0  0  0  0  0  0  0  0  0  0  0
  189.2380  177.7830  144.9960 N   0  0  0  0  0  0  0  0  0  0  0  0
  188.9610  175.4540  144.2740 C   0  0  0  0  0  2  0  0  0  0  0  0
  187.4420  176.5770  146.0270 C   0  0  0  0  0  0  0  0  0  0  0  0
  187.5500  175.9740  147.1300 O   0  0  0  0  0  0  0  0  0  0  0  0
  185.1260  176.7460  146.4830 O   0  0  0  0  0  1  0  0  0  0  0  0
  186.1490  177.2450  145.6760 C   0  0  2  0  0  3  0  0  0  0  0  0
  185.8390  177.0260  144.3310 O   0  0  0  0  0  0  0  0  0  0  0  0
  184.0460  178.7570  143.1070 O   0  0  0  0  0  1  0  0  0  0  0  0
  186.5870  178.7450  142.5030 O   0  0  0  0  0  0  0  0  0  0  0  0
  185.9550  179.7440  144.8150 F   0  0  0  0  0  0  0  0  0  0  0  0
  185.6330  178.5710  143.6620 P   0  0  2  0  0  0  0  0  0  0  0  0
  188.3450  174.1660  138.3690 O   0  0  0  0  0  1  0  0  0  0  0  0
  188.2840  173.2040  139.3780 C   0  0  0  0  0  2  0  0  0  0  0  0
  1  9  1  0  0  0  0
  2  7  1  0  0  0  0
  3  6  1  0  0  0  0
  4 16  1  0  0  0  0
  5  3  2  0  0  0  0
  6  4  2  0  0  0  0
  6 20  1  0  0  0  0
  7  8  1  0  0  0  0
  8  4  1  0  0  0  0
  9  2  1  0  0  0  0
  9 10  2  0  0  0  0
 10  5  1  0  0  0  0
 10  8  1  0  0  0  0
 11 15  1  0  0  0  0
 13 12  1  0  0  0  0
 14 16  1  0  0  0  0
 14 11  1  0  0  0  0
 15 12  1  0  0  0  0
 16 13  1  0  0  0  0
 17 20  1  0  0  0  0
 17 18  1  0  0  0  0
 18 21  1  0  0  0  0
 19 23  1  0  0  0  0
 20 22  1  0  0  0  0
 21 19  2  0  0  0  0
 22 19  1  0  0  0  0
 23 24  2  0  0  0  0
 26 23  1  0  0  0  0
 26 25  1  1  0  0  0
 27 26  1  0  0  0  0
 28 31  1  0  0  0  0
 31 29  2  6  0  0  0
 31 27  1  0  0  0  0
 31 30  1  0  0  0  0
 32 33  1  0  0  0  0
 33  5  1  0  0  0  0
M  END
>  <MODEL>
5

>  <REMARK>
 VINA RESULT:      -6.5      2.500      4.975
  Name = 
  7 active torsions:
  status: ('A' for Active; 'I' for Inactive)
    1  A    between atoms: C_10  and  N_33
    2  A    between atoms: C_12  and  C_17
    3  A    between atoms: C_12  and  C_21
    4  A    between atoms: CA_14  and  C_19
    5  A    between atoms: C_18  and  N_26
    6  A    between atoms: P_20  and  O_29
    7  A    between atoms: C_21  and  O_29
                            x       y       z     vdW  Elec       q    Type
                         _______ _______ _______ _____ _____    ______ ____

>  <TORSDO>
F 7

$$$$
=
 OpenBabel11042417363D

 33 36  0  0  1  0  0  0  0  0999 V2000
  184.0670  179.2790  143.8800 N   0  0  0  0  0  1  0  0  0  0  0  0
  185.2010  178.1750  141.8900 C   0  0  0  0  0  2  0  0  0  0  0  0
  187.4450  177.7050  146.0450 N   0  0  0  0  0  0  0  0  0  0  0  0
  188.2430  176.7250  143.9770 C   0  0  0  0  0  0  0  0  0  0  0  0
  186.4060  178.2730  145.5080 C   0  0  0  0  0  0  0  0  0  0  0  0
  188.4030  176.9080  145.3130 C   0  0  0  0  0  0  0  0  0  0  0  0
  186.7080  177.1650  141.6230 S   0  0  0  0  0  0  0  0  0  0  0  0
  187.1380  177.3680  143.3210 N   0  0  0  0  0  0  0  0  0  0  0  0
  185.1640  178.5520  143.3340 C   0  0  0  0  0  0  0  0  0  0  0  0
  186.1890  178.1140  144.0550 C   0  0  0  0  0  0  0  0  0  0  0  0
  191.4490  175.6310  142.5100 C   0  0  0  0  0  2  0  0  0  0  0  0
  190.2260  173.7200  143.2100 C   0  0  0  0  0  2  0  0  0  0  0  0
  188.8920  174.4590  143.1380 C   0  0  0  0  0  2  0  0  0  0  0  0
  190.1880  176.4840  142.3930 C   0  0  0  0  0  2  0  0  0  0  0  0
  191.1410  174.2370  142.1940 N   0  0  0  0  0  2  0  0  0  0  0  0
  189.1290  175.8960  143.2110 N   0  0  0  0  0  0  0  0  0  0  0  0
  189.4320  175.0080  146.5920 C   0  0  0  0  0  2  0  0  0  0  0  0
  190.3710  174.9140  147.7820 C   0  0  0  0  0  2  0  0  0  0  0  0
  191.9630  176.2320  146.5100 C   0  0  0  0  0  0  0  0  0  0  0  0
  189.5190  176.3550  146.0320 N   0  0  0  0  0  0  0  0  0  0  0  0
  191.7200  175.2870  147.3720 N   0  0  0  0  0  0  0  0  0  0  0  0
  190.8350  176.9690  145.8190 C   0  0  0  0  0  2  0  0  0  0  0  0
  193.3550  176.5320  146.1390 C   0  0  0  0  0  0  0  0  0  0  0  0
  194.0430  177.3120  146.8520 O   0  0  0  0  0  0  0  0  0  0  0  0
  193.6610  174.5240  144.9260 O   0  0  0  0  0  1  0  0  0  0  0  0
  193.9790  175.8830  144.9430 C   0  0  2  0  0  3  0  0  0  0  0  0
  195.3670  176.0430  144.9710 O   0  0  0  0  0  0  0  0  0  0  0  0
  196.3750  174.4310  142.9490 O   0  0  0  0  0  0  0  0  0  0  0  0
  196.9960  176.9610  143.1390 O   0  0  0  0  0  1  0  0  0  0  0  0
  194.5820  176.4210  142.3490 F   0  0  0  0  0  0  0  0  0  0  0  0
  195.8560  175.9900  143.3480 P   0  0  2  0  0  0  0  0  0  0  0  0
  184.6120  178.2870  147.0400 O   0  0  0  0  0  1  0  0  0  0  0  0
  185.5200  179.1070  146.3680 C   0  0  0  0  0  2  0  0  0  0  0  0
  2  9  1  0  0  0  0
  4  6  2  0  0  0  0
  5  3  2  0  0  0  0
  5 33  1  0  0  0  0
  6 20  1  0  0  0  0
  6  3  1  0  0  0  0
  7  2  1  0  0  0  0
  7  8  1  0  0  0  0
  8  4  1  0  0  0  0
  8 10  1  0  0  0  0
  9  1  1  0  0  0  0
  9 10  2  0  0  0  0
 10  5  1  0  0  0  0
 13 12  1  0  0  0  0
 13 16  1  0  0  0  0
 14 11  1  0  0  0  0
 14 16  1  0  0  0  0
 15 11  1  0  0  0  0
 15 12  1  0  0  0  0
 16  4  1  0  0  0  0
 17 18  1  0  0  0  0
 19 21  2  0  0  0  0
 20 17  1  0  0  0  0
 21 18  1  0  0  0  0
 22 20  1  0  0  0  0
 22 19  1  0  0  0  0
 23 19  1  0  0  0  0
 23 24  2  0  0  0  0
 26 25  1  1  0  0  0
 26 27  1  0  0  0  0
 26 23  1  0  0  0  0
 28 31  2  0  0  0  0
 29 31  1  0  0  0  0
 31 30  1  6  0  0  0
 31 27  1  0  0  0  0
 33 32  1  0  0  0  0
M  END
>  <MODEL>
6

>  <REMARK>
 VINA RESULT:      -6.4      3.735      7.027
  Name = 
  7 active torsions:
  status: ('A' for Active; 'I' for Inactive)
    1  A    between atoms: C_10  and  N_33
    2  A    between atoms: C_12  and  C_17
    3  A    between atoms: C_12  and  C_21
    4  A    between atoms: CA_14  and  C_19
    5  A    between atoms: C_18  and  N_26
    6  A    between atoms: P_20  and  O_29
    7  A    between atoms: C_21  and  O_29
                            x       y       z     vdW  Elec       q    Type
                         _______ _______ _______ _____ _____    ______ ____

>  <TORSDO>
F 7

$$$$
=
 OpenBabel11042417363D

 33 36  0  0  1  0  0  0  0  0999 V2000
  183.6700  179.1360  144.4540 N   0  0  0  0  0  1  0  0  0  0  0  0
  184.4820  178.2820  146.7080 C   0  0  0  0  0  2  0  0  0  0  0  0
  187.5180  177.7440  143.1000 N   0  0  0  0  0  0  0  0  0  0  0  0
  188.0170  177.0800  145.3770 C   0  0  0  0  0  0  0  0  0  0  0  0
  186.3140  178.1600  143.3650 C   0  0  0  0  0  0  0  0  0  0  0  0
  188.4200  177.1910  144.0850 C   0  0  0  0  0  0  0  0  0  0  0  0
  186.0150  177.5100  147.3520 S   0  0  0  0  0  0  0  0  0  0  0  0
  186.6800  177.4820  145.7190 N   0  0  0  0  0  0  0  0  0  0  0  0
  184.6630  178.4810  145.2390 C   0  0  0  0  0  0  0  0  0  0  0  0
  185.8220  178.0540  144.7530 C   0  0  0  0  0  0  0  0  0  0  0  0
  190.3730  174.7580  147.0140 C   0  0  0  0  0  2  0  0  0  0  0  0
  191.0560  176.9880  147.4530 C   0  0  0  0  0  2  0  0  0  0  0  0
  189.6520  177.5410  147.2140 C   0  0  0  0  0  2  0  0  0  0  0  0
  188.9280  175.1750  146.7520 C   0  0  0  0  0  2  0  0  0  0  0  0
  190.9750  175.6410  148.0120 N   0  0  0  0  0  2  0  0  0  0  0  0
  188.8890  176.5940  146.4070 N   0  0  0  0  0  0  0  0  0  0  0  0
  190.8940  177.5780  143.9000 C   0  0  0  0  0  2  0  0  0  0  0  0
  191.9410  177.2700  142.8430 C   0  0  0  0  0  2  0  0  0  0  0  0
  191.3130  174.9330  143.0370 C   0  0  0  0  0  0  0  0  0  0  0  0
  189.7170  176.7490  143.6480 N   0  0  0  0  0  0  0  0  0  0  0  0
  192.2270  175.8400  142.8400 N   0  0  0  0  0  0  0  0  0  0  0  0
  189.8840  175.3210  143.3540 C   0  0  0  0  0  2  0  0  0  0  0  0
  191.6910  173.5120  143.0340 C   0  0  0  0  0  0  0  0  0  0  0  0
  192.5180  173.0780  143.8820 O   0  0  0  0  0  0  0  0  0  0  0  0
  191.8340  171.3980  141.9800 O   0  0  0  0  0  1  0  0  0  0  0  0
  191.0680  172.5620  142.0590 C   0  0  2  0  0  3  0  0  0  0  0  0
  190.9740  173.1540  140.7970 O   0  0  0  0  0  0  0  0  0  0  0  0
  188.8100  174.1670  139.3840 O   0  0  0  0  0  0  0  0  0  0  0  0
  188.5000  172.6420  141.4820 O   0  0  0  0  0  1  0  0  0  0  0  0
  189.3480  171.4750  139.3230 F   0  0  0  0  0  0  0  0  0  0  0  0
  189.3880  172.8520  140.2770 P   0  0  2  0  0  0  0  0  0  0  0  0
  185.8950  178.1030  141.0430 O   0  0  0  0  0  1  0  0  0  0  0  0
  185.4690  178.6670  142.2470 C   0  0  0  0  0  2  0  0  0  0  0  0
  1  9  1  0  0  0  0
  2  7  1  0  0  0  0
  3  5  2  0  0  0  0
  3  6  1  0  0  0  0
  4  8  1  0  0  0  0
  4 16  1  0  0  0  0
  5 10  1  0  0  0  0
  6  4  2  0  0  0  0
  8  7  1  0  0  0  0
  9  2  1  0  0  0  0
 10  9  2  0  0  0  0
 10  8  1  0  0  0  0
 11 15  1  0  0  0  0
 12 15  1  0  0  0  0
 13 12  1  0  0  0  0
 14 11  1  0  0  0  0
 16 14  1  0  0  0  0
 16 13  1  0  0  0  0
 18 17  1  0  0  0  0
 19 22  1  0  0  0  0
 20 17  1  0  0  0  0
 20  6  1  0  0  0  0
 21 18  1  0  0  0  0
 21 19  2  0  0  0  0
 22 20  1  0  0  0  0
 23 19  1  0  0  0  0
 23 24  2  0  0  0  0
 26 25  1  6  0  0  0
 26 23  1  0  0  0  0
 27 26  1  0  0  0  0
 28 31  2  0  0  0  0
 31 30  1  6  0  0  0
 31 27  1  0  0  0  0
 31 29  1  0  0  0  0
 32 33  1  0  0  0  0
 33  5  1  0  0  0  0
M  END
>  <MODEL>
7

>  <REMARK>
 VINA RESULT:      -6.3      3.778      7.345
  Name = 
  7 active torsions:
  status: ('A' for Active; 'I' for Inactive)
    1  A    between atoms: C_10  and  N_33
    2  A    between atoms: C_12  and  C_17
    3  A    between atoms: C_12  and  C_21
    4  A    between atoms: CA_14  and  C_19
    5  A    between atoms: C_18  and  N_26
    6  A    between atoms: P_20  and  O_29
    7  A    between atoms: C_21  and  O_29
                            x       y       z     vdW  Elec       q    Type
                         _______ _______ _______ _____ _____    ______ ____

>  <TORSDO>
F 7

$$$$
=
 OpenBabel11042417363D

 33 36  0  0  1  0  0  0  0  0999 V2000
  190.8070  169.9830  140.0520 N   0  0  0  0  0  1  0  0  0  0  0  0
  191.7620  170.0120  142.4090 C   0  0  0  0  0  2  0  0  0  0  0  0
  189.4680  173.9480  141.0820 N   0  0  0  0  0  0  0  0  0  0  0  0
  190.4440  173.6470  143.2800 C   0  0  0  0  0  0  0  0  0  0  0  0
  189.8520  172.7910  140.6280 C   0  0  0  0  0  0  0  0  0  0  0  0
  189.7400  174.4260  142.4180 C   0  0  0  0  0  0  0  0  0  0  0  0
  191.7710  171.1890  143.8150 S   0  0  0  0  0  0  0  0  0  0  0  0
  190.9340  172.3780  142.8170 N   0  0  0  0  0  0  0  0  0  0  0  0
  191.0500  170.6730  141.2750 C   0  0  0  0  0  0  0  0  0  0  0  0
  190.6280  171.9070  141.5210 C   0  0  0  0  0  0  0  0  0  0  0  0
  191.7740  175.7410  146.0140 C   0  0  0  0  0  2  0  0  0  0  0  0
  189.6080  174.9740  146.6100 C   0  0  0  0  0  2  0  0  0  0  0  0
  189.6910  173.7800  145.6620 C   0  0  0  0  0  2  0  0  0  0  0  0
  191.9900  174.5920  145.0320 C   0  0  0  0  0  2  0  0  0  0  0  0
  190.9360  175.2970  147.1270 N   0  0  0  0  0  2  0  0  0  0  0  0
  190.6930  174.0450  144.6350 N   0  0  0  0  0  0  0  0  0  0  0  0
  190.1940  176.8720  142.7600 C   0  0  0  0  0  2  0  0  0  0  0  0
  189.7030  177.9150  143.7490 C   0  0  0  0  0  2  0  0  0  0  0  0
  187.4460  177.4190  143.0060 C   0  0  0  0  0  0  0  0  0  0  0  0
  189.2740  175.7370  142.7810 N   0  0  0  0  0  0  0  0  0  0  0  0
  188.3270  178.2790  143.4330 N   0  0  0  0  0  0  0  0  0  0  0  0
  187.8260  175.9760  142.7440 C   0  0  0  0  0  2  0  0  0  0  0  0
  186.0820  177.8740  142.6950 C   0  0  0  0  0  0  0  0  0  0  0  0
  185.7360  178.0550  141.4960 O   0  0  0  0  0  0  0  0  0  0  0  0
  183.8210  178.3090  143.2390 O   0  0  0  0  0  1  0  0  0  0  0  0
  185.0830  178.0820  143.7900 C   0  0  2  0  0  3  0  0  0  0  0  0
  185.4530  179.1690  144.5870 O   0  0  0  0  0  0  0  0  0  0  0  0
  186.5350  177.2760  146.3060 O   0  0  0  0  0  0  0  0  0  0  0  0
  184.0710  178.1100  146.5420 O   0  0  0  0  0  1  0  0  0  0  0  0
  185.9290  179.7860  147.2370 F   0  0  0  0  0  0  0  0  0  0  0  0
  185.4620  178.5770  146.1760 P   0  0  2  0  0  0  0  0  0  0  0  0
  188.1940  172.6790  138.9530 O   0  0  0  0  0  1  0  0  0  0  0  0
  189.5440  172.4390  139.2130 C   0  0  0  0  0  2  0  0  0  0  0  0
  1  9  1  0  0  0  0
  2  7  1  0  0  0  0
  3  6  1  0  0  0  0
  4 16  1  0  0  0  0
  5  3  2  0  0  0  0
  5 10  1  0  0  0  0
  6 20  1  0  0  0  0
  6  4  2  0  0  0  0
  8  4  1  0  0  0  0
  8  7  1  0  0  0  0
  9 10  2  0  0  0  0
  9  2  1  0  0  0  0
 10  8  1  0  0  0  0
 11 15  1  0  0  0  0
 12 15  1  0  0  0  0
 13 12  1  0  0  0  0
 14 11  1  0  0  0  0
 16 14  1  0  0  0  0
 16 13  1  0  0  0  0
 17 20  1  0  0  0  0
 17 18  1  0  0  0  0
 19 21  2  0  0  0  0
 21 18  1  0  0  0  0
 22 20  1  0  0  0  0
 22 19  1  0  0  0  0
 23 19  1  0  0  0  0
 23 26  1  0  0  0  0
 24 23  2  0  0  0  0
 26 25  1  6  0  0  0
 26 27  1  0  0  0  0
 27 31  1  0  0  0  0
 31 28  2  1  0  0  0
 31 29  1  0  0  0  0
 31 30  1  0  0  0  0
 32 33  1  0  0  0  0
 33  5  1  0  0  0  0
M  END
>  <MODEL>
8

>  <REMARK>
 VINA RESULT:      -6.3      3.206      5.332
  Name = 
  7 active torsions:
  status: ('A' for Active; 'I' for Inactive)
    1  A    between atoms: C_10  and  N_33
    2  A    between atoms: C_12  and  C_17
    3  A    between atoms: C_12  and  C_21
    4  A    between atoms: CA_14  and  C_19
    5  A    between atoms: C_18  and  N_26
    6  A    between atoms: P_20  and  O_29
    7  A    between atoms: C_21  and  O_29
                            x       y       z     vdW  Elec       q    Type
                         _______ _______ _______ _____ _____    ______ ____

>  <TORSDO>
F 7

$$$$
=
 OpenBabel11042417363D

 33 36  0  0  1  0  0  0  0  0999 V2000
  196.2380  176.5780  141.9680 N   0  0  0  0  0  1  0  0  0  0  0  0
  194.7200  175.2080  140.4560 C   0  0  0  0  0  2  0  0  0  0  0  0
  192.9650  176.2160  144.7490 N   0  0  0  0  0  0  0  0  0  0  0  0
  191.7430  174.9730  143.0640 C   0  0  0  0  0  0  0  0  0  0  0  0
  194.0380  176.3590  144.0280 C   0  0  0  0  0  0  0  0  0  0  0  0
  191.7750  175.5250  144.3040 C   0  0  0  0  0  0  0  0  0  0  0  0
  193.0320  174.5010  140.5720 S   0  0  0  0  0  0  0  0  0  0  0  0
  192.9180  175.0600  142.2410 N   0  0  0  0  0  0  0  0  0  0  0  0
  195.0220  175.8640  141.7630 C   0  0  0  0  0  0  0  0  0  0  0  0
  194.0600  175.7710  142.6740 C   0  0  0  0  0  0  0  0  0  0  0  0
  188.9520  172.5590  142.9910 C   0  0  0  0  0  2  0  0  0  0  0  0
  188.1830  174.6550  142.1840 C   0  0  0  0  0  2  0  0  0  0  0  0
  189.5900  175.1030  141.7960 C   0  0  0  0  0  2  0  0  0  0  0  0
  190.4050  172.8790  142.6490 C   0  0  0  0  0  2  0  0  0  0  0  0
  188.0580  173.2070  142.0320 N   0  0  0  0  0  2  0  0  0  0  0  0
  190.5710  174.3280  142.5490 N   0  0  0  0  0  0  0  0  0  0  0  0
  190.8020  174.6460  146.4460 C   0  0  0  0  0  2  0  0  0  0  0  0
  189.4270  174.1550  146.8640 C   0  0  0  0  0  2  0  0  0  0  0  0
  188.5540  176.3170  146.1910 C   0  0  0  0  0  0  0  0  0  0  0  0
  190.6670  175.4230  145.2150 N   0  0  0  0  0  0  0  0  0  0  0  0
  188.5190  175.2890  146.9900 N   0  0  0  0  0  0  0  0  0  0  0  0
  189.6020  176.4260  145.1030 C   0  0  0  0  0  2  0  0  0  0  0  0
  187.6120  177.4270  146.4000 C   0  0  0  0  0  0  0  0  0  0  0  0
  187.8200  178.2660  147.3180 O   0  0  0  0  0  0  0  0  0  0  0  0
  186.1320  176.3850  144.8750 O   0  0  0  0  0  1  0  0  0  0  0  0
  186.4270  177.5970  145.5000 C   0  0  2  0  0  3  0  0  0  0  0  0
  186.6850  178.5750  144.5360 O   0  0  0  0  0  0  0  0  0  0  0  0
  184.1280  179.0460  145.5080 O   0  0  0  0  0  1  0  0  0  0  0  0
  184.5910  178.6590  142.9670 O   0  0  0  0  0  0  0  0  0  0  0  0
  185.3700  180.9330  143.9480 F   0  0  0  0  0  0  0  0  0  0  0  0
  185.1820  179.2880  144.2080 P   0  0  2  0  0  0  0  0  0  0  0  0
  194.8110  177.7760  145.7500 O   0  0  0  0  0  1  0  0  0  0  0  0
  195.2130  177.0550  144.6240 C   0  0  0  0  0  2  0  0  0  0  0  0
  2  7  1  0  0  0  0
  2  9  1  0  0  0  0
  4  6  2  0  0  0  0
  5 33  1  0  0  0  0
  5  3  2  0  0  0  0
  6  3  1  0  0  0  0
  6 20  1  0  0  0  0
  7  8  1  0  0  0  0
  8 10  1  0  0  0  0
  8  4  1  0  0  0  0
  9  1  1  0  0  0  0
  9 10  2  0  0  0  0
 10  5  1  0  0  0  0
 13 12  1  0  0  0  0
 13 16  1  0  0  0  0
 14 11  1  0  0  0  0
 15 12  1  0  0  0  0
 15 11  1  0  0  0  0
 16 14  1  0  0  0  0
 16  4  1  0  0  0  0
 17 18  1  0  0  0  0
 18 21  1  0  0  0  0
 19 23  1  0  0  0  0
 19 21  2  0  0  0  0
 20 17  1  0  0  0  0
 22 20  1  0  0  0  0
 22 19  1  0  0  0  0
 23 24  2  0  0  0  0
 26 25  1  6  0  0  0
 26 23  1  0  0  0  0
 27 26  1  0  0  0  0
 30 31  1  0  0  0  0
 31 29  2  6  0  0  0
 31 27  1  0  0  0  0
 31 28  1  0  0  0  0
 33 32  1  0  0  0  0
M  END
>  <MODEL>
9

>  <REMARK>
 VINA RESULT:      -6.2      1.712      2.046
  Name = 
  7 active torsions:
  status: ('A' for Active; 'I' for Inactive)
    1  A    between atoms: C_10  and  N_33
    2  A    between atoms: C_12  and  C_17
    3  A    between atoms: C_12  and  C_21
    4  A    between atoms: CA_14  and  C_19
    5  A    between atoms: C_18  and  N_26
    6  A    between atoms: P_20  and  O_29
    7  A    between atoms: C_21  and  O_29
                            x       y       z     vdW  Elec       q    Type
                         _______ _______ _______ _____ _____    ______ ____

>  <TORSDO>
F 7

$$$$
