=
 OpenBabel11042414503D

 64 69  0  0  1  0  0  0  0  0999 V2000
  192.9320  172.8640  144.1480 C   0  0  0  0  0  0  0  0  0  0  0  0
  193.4800  173.1730  142.9780 C   0  0  0  0  0  0  0  0  0  0  0  0
  193.7100  174.6020  145.6950 C   0  0  0  0  0  0  0  0  0  0  0  0
  194.4560  175.3690  144.8940 C   0  0  0  0  0  3  0  0  0  0  0  0
  194.7290  173.9570  142.8070 C   0  0  0  0  0  0  0  0  0  0  0  0
  192.7660  172.5950  141.8080 C   0  0  0  0  0  2  0  0  0  0  0  0
  195.1160  174.9380  143.6440 C   0  0  0  0  0  3  0  0  0  0  0  0
  191.9130  171.4590  142.3430 C   0  0  1  0  0  3  0  0  0  0  0  0
  193.5940  173.1340  145.4540 C   0  0  0  0  0  2  0  0  0  0  0  0
  191.4630  171.8610  144.0580 S   0  0  0  0  0  0  0  0  0  0  0  0
  192.1380  176.2100  146.9780 C   0  0  0  0  0  0  0  0  0  0  0  0
  193.0790  175.1320  146.8700 N   0  0  0  0  0  2  0  0  0  0  0  0
  191.7540  176.5520  148.1260 O   0  0  0  0  0  0  0  0  0  0  0  0
  191.6070  176.8940  145.7760 C   0  0  0  0  0  3  0  0  0  0  0  0
  190.3250  176.9950  145.4030 C   0  0  0  0  0  0  0  0  0  0  0  0
  188.3620  175.9920  146.7790 N   0  0  0  0  0  0  0  0  0  0  0  0
  189.2360  176.4370  146.1650 C   0  0  0  0  0  0  0  0  0  0  0  0
  190.0020  177.7410  144.1510 C   0  0  0  0  0  2  0  0  0  0  0  0
  189.9020  175.5430  142.9500 C   0  0  0  0  0  3  0  0  0  0  0  0
  187.7510  176.4390  141.3920 C   0  0  0  0  0  0  0  0  0  0  0  0
  188.2610  175.1420  141.2180 C   0  0  0  0  0  3  0  0  0  0  0  0
  189.3330  174.6960  141.9950 C   0  0  0  0  0  3  0  0  0  0  0  0
  189.4000  176.8370  143.1290 C   0  0  0  0  0  0  0  0  0  0  0  0
  188.3230  177.2790  142.3530 C   0  0  0  0  0  3  0  0  0  0  0  0
  186.6860  176.9150  140.6250 O   0  0  0  0  0  0  0  0  0  0  0  0
  186.1780  178.2380  140.7490 C   0  0  0  0  0  2  0  0  0  0  0  0
  185.0460  178.4420  139.7640 C   0  0  0  0  0  2  0  0  0  0  0  0
  183.7750  177.7740  140.2820 C   0  0  0  0  0  2  0  0  0  0  0  0
  183.3070  178.3370  141.5530 N   0  0  0  0  0  0  0  0  0  0  0  0
  181.8460  178.2940  141.6400 C   0  0  0  0  0  2  0  0  0  0  0  0
  181.2860  178.8240  140.4780 O   0  0  0  0  0  1  0  0  0  0  0  0
  184.0150  177.7250  142.6940 C   0  0  0  0  0  2  0  0  0  0  0  0
  185.7070  176.7270  144.8910 C   0  0  0  0  0  1  0  0  0  0  0  0
  184.2430  178.6320  143.9180 C   0  0  2  0  0  0  0  0  0  0  0  0
  185.6550  180.4410  144.6600 O   0  0  0  0  0  1  0  0  0  0  0  0
  185.6640  179.1630  144.0930 C   0  0  1  0  0  3  0  0  0  0  0  0
  185.1060  178.1130  145.0600 C   0  0  2  0  0  0  0  0  0  0  0  0
  183.2230  179.5130  144.2920 O   0  0  0  0  0  1  0  0  0  0  0  0
  184.7200  178.5640  146.4670 C   0  0  0  0  0  2  0  0  0  0  0  0
  185.8550  178.4300  147.3650 N   0  0  0  0  0  1  0  0  0  0  0  0
  190.4240  171.2790  141.3270 S   0  0  0  0  0  0  0  0  0  0  0  0
  190.8160  169.6330  140.9440 O   0  0  0  0  0  0  0  0  0  0  0  0
  192.3310  169.2290  139.1520 C   0  0  0  0  0  0  0  0  0  0  0  0
  192.0810  169.3210  140.4590 C   0  0  0  0  0  3  0  0  0  0  0  0
  189.4850  173.4340  135.9540 N   0  0  0  0  0  1  0  0  0  0  0  0
  191.5760  173.9200  137.5080 O   0  0  0  0  0  1  0  0  0  0  0  0
  191.2010  170.7720  137.4880 N   0  0  0  0  0  0  0  0  0  0  0  0
  191.2710  169.5080  138.1610 C   0  0  0  0  0  0  0  0  0  0  0  0
  191.8140  172.8790  136.6060 C   0  0  2  0  0  3  0  0  0  0  0  0
  190.0550  171.1840  136.7020 C   0  0  0  0  0  2  0  0  0  0  0  0
  190.4140  168.6180  137.9070 O   0  0  0  0  0  0  0  0  0  0  0  0
  190.5160  172.4090  135.9380 C   0  0  1  0  0  3  0  0  0  0  0  0
  192.3260  171.6780  137.3770 C   0  0  0  0  0  2  0  0  0  0  0  0
  193.8720  168.2690  137.4540 O   0  0  0  0  0  0  0  0  0  0  0  0
  194.6800  169.0160  139.4590 O   0  0  0  0  0  1  0  0  0  0  0  0
  193.6830  168.8380  138.7070 C   0  0  0  0  0  0  0  0  0  0  0  0
  195.5430  173.7000  141.5650 C   0  0  2  0  0  3  0  0  0  0  0  0
  196.8590  172.9880  141.8630 C   0  0  1  0  0  3  0  0  0  0  0  0
  197.4740  171.7320  139.6830 N   0  0  0  0  0  2  0  0  0  0  0  0
  196.6200  171.6940  142.2460 O   0  0  0  0  0  0  0  0  0  0  0  0
  197.1110  172.0570  140.8780 C   0  0  0  0  0  0  0  0  0  0  0  0
  195.7420  174.9410  140.7420 C   0  0  0  0  0  0  0  0  0  0  0  0
  194.5700  175.5890  140.0940 C   0  0  0  0  0  1  0  0  0  0  0  0
  196.8530  175.4300  140.6080 O   0  0  0  0  0  0  0  0  0  0  0  0
  1  9  1  0  0  0  0
  2  1  2  0  0  0  0
  3 12  1  0  0  0  0
  4  3  2  0  0  0  0
  5  2  1  0  0  0  0
  5  7  2  0  0  0  0
  6  8  1  0  0  0  0
  6  2  1  0  0  0  0
  7  4  1  0  0  0  0
  8 41  1  6  0  0  0
  8 10  1  0  0  0  0
  9  3  1  0  0  0  0
 10  1  1  0  0  0  0
 11 13  2  0  0  0  0
 12 11  1  0  0  0  0
 14 11  1  0  0  0  0
 15 14  2  0  0  0  0
 15 17  1  0  0  0  0
 17 16  3  0  0  0  0
 18 15  1  0  0  0  0
 19 23  1  0  0  0  0
 20 24  1  0  0  0  0
 21 20  2  0  0  0  0
 21 22  1  0  0  0  0
 22 19  2  0  0  0  0
 23 18  1  0  0  0  0
 24 23  2  0  0  0  0
 25 26  1  0  0  0  0
 25 20  1  0  0  0  0
 27 28  1  0  0  0  0
 27 26  1  0  0  0  0
 28 29  1  0  0  0  0
 29 30  1  0  0  0  0
 29 32  1  0  0  0  0
 31 30  1  0  0  0  0
 32 34  1  0  0  0  0
 34 36  1  0  0  0  0
 34 38  1  1  0  0  0
 34 37  1  0  0  0  0
 36 35  1  1  0  0  0
 36 37  1  0  0  0  0
 37 33  1  6  0  0  0
 37 39  1  0  0  0  0
 39 40  1  0  0  0  0
 42 41  1  0  0  0  0
 43 44  2  0  0  0  0
 44 42  1  0  0  0  0
 47 48  1  0  0  0  0
 48 43  1  0  0  0  0
 49 53  1  0  0  0  0
 49 46  1  1  0  0  0
 50 47  1  0  0  0  0
 51 48  2  0  0  0  0
 52 45  1  1  0  0  0
 52 49  1  0  0  0  0
 52 50  1  0  0  0  0
 53 47  1  0  0  0  0
 54 56  2  0  0  0  0
 56 43  1  0  0  0  0
 56 55  1  0  0  0  0
 57 62  1  1  0  0  0
 57  5  1  0  0  0  0
 58 57  1  6  0  0  0
 58 60  1  0  0  0  0
 59 61  2  0  0  0  0
 61 58  1  0  0  0  0
 61 60  1  0  0  0  0
 63 62  1  0  0  0  0
 64 62  2  0  0  0  0
M  END
>  <MODEL>
1

>  <REMARK>
 VINA RESULT:      -6.0      0.000      0.000
  Name = 
  22 active torsions:
  status: ('A' for Active; 'I' for Inactive)
    1  A    between atoms: C_3  and  C_10
    2  A    between atoms: C_4  and  N_17
    3  A    between atoms: N_5  and  C_6
    4  A    between atoms: N_5  and  C_54
    5  A    between atoms: N_5  and  C_61
    6  A    between atoms: C_8  and  C_38
    7  A    between atoms: C_9  and  C_38
    8  A    between atoms: C_12  and  C_19
    9  A    between atoms: C_12  and  C_61
   10  A    between atoms: C_13  and  O_39
   11  A    between atoms: C_19  and  O_39
   12  A    between atoms: C_20  and  C_53
   13  A    between atoms: C_21  and  C_38
   14  A    between atoms: C_25  and  C_54
   15  A    between atoms: C_30  and  C_33
   16  A    between atoms: C_30  and  C_58
   17  A    between atoms: C_32  and  C_42
   18  A    between atoms: C_37  and  O_46
   19  A    between atoms: C_42  and  C_56
   20  A    between atoms: O_46  and  S_63
   21  A    between atoms: C_50  and  C_56
   22  A    between atoms: C_51  and  S_63
                            x       y       z     vdW  Elec       q    Type
                         _______ _______ _______ _____ _____    ______ ____

>  <TORSDO>
F 22

$$$$
=
 OpenBabel11042414503D

 64 69  0  0  1  0  0  0  0  0999 V2000
  188.9310  173.0510  141.4960 C   0  0  0  0  0  0  0  0  0  0  0  0
  188.8770  174.2810  141.9950 C   0  0  0  0  0  0  0  0  0  0  0  0
  188.3800  173.3040  139.1190 C   0  0  0  0  0  0  0  0  0  0  0  0
  188.1970  174.6240  139.0180 C   0  0  0  0  0  3  0  0  0  0  0  0
  188.0690  175.3910  141.4300 C   0  0  0  0  0  0  0  0  0  0  0  0
  189.6540  174.4550  143.2510 C   0  0  0  0  0  2  0  0  0  0  0  0
  187.8140  175.5360  140.1160 C   0  0  0  0  0  3  0  0  0  0  0  0
  189.8840  173.0630  143.8120 C   0  0  1  0  0  3  0  0  0  0  0  0
  188.0570  172.5840  140.3850 C   0  0  0  0  0  2  0  0  0  0  0  0
  189.9360  171.9020  142.4140 S   0  0  0  0  0  0  0  0  0  0  0  0
  190.1130  172.3030  137.4770 C   0  0  0  0  0  0  0  0  0  0  0  0
  188.7910  172.5130  137.9940 N   0  0  0  0  0  2  0  0  0  0  0  0
  190.2400  171.6120  136.4320 O   0  0  0  0  0  0  0  0  0  0  0  0
  191.3060  172.8580  138.1570 C   0  0  0  0  0  3  0  0  0  0  0  0
  192.0430  173.9060  137.7700 C   0  0  0  0  0  0  0  0  0  0  0  0
  191.5150  175.3050  135.6450 N   0  0  0  0  0  0  0  0  0  0  0  0
  191.7520  174.6820  136.5910 C   0  0  0  0  0  0  0  0  0  0  0  0
  193.2080  174.3090  138.6110 C   0  0  0  0  0  2  0  0  0  0  0  0
  195.2160  174.6780  137.1550 C   0  0  0  0  0  3  0  0  0  0  0  0
  196.1790  172.1140  137.7560 C   0  0  0  0  0  0  0  0  0  0  0  0
  196.9000  172.9600  136.8970 C   0  0  0  0  0  3  0  0  0  0  0  0
  196.4190  174.2370  136.5990 C   0  0  0  0  0  3  0  0  0  0  0  0
  194.4910  173.8390  138.0120 C   0  0  0  0  0  0  0  0  0  0  0  0
  194.9770  172.5630  138.3130 C   0  0  0  0  0  3  0  0  0  0  0  0
  196.6290  170.8290  138.0650 O   0  0  0  0  0  0  0  0  0  0  0  0
  197.8860  170.5820  138.6840 C   0  0  0  0  0  2  0  0  0  0  0  0
  197.8590  171.0920  140.1100 C   0  0  0  0  0  2  0  0  0  0  0  0
  197.4340  169.9740  141.0570 C   0  0  0  0  0  2  0  0  0  0  0  0
  196.5230  170.4300  142.1130 N   0  0  0  0  0  0  0  0  0  0  0  0
  195.8690  171.6850  141.7360 C   0  0  0  0  0  2  0  0  0  0  0  0
  196.1520  172.6690  142.6820 O   0  0  0  0  0  1  0  0  0  0  0  0
  195.6040  169.3490  142.5210 C   0  0  0  0  0  2  0  0  0  0  0  0
  194.6130  168.4370  139.8990 C   0  0  0  0  0  1  0  0  0  0  0  0
  194.1160  169.5580  142.1830 C   0  0  2  0  0  0  0  0  0  0  0  0
  191.9670  168.5150  142.5150 O   0  0  0  0  0  1  0  0  0  0  0  0
  193.2750  168.2860  142.0820 C   0  0  1  0  0  3  0  0  0  0  0  0
  193.6040  169.0980  140.8250 C   0  0  2  0  0  0  0  0  0  0  0  0
  193.4610  170.6670  142.7260 O   0  0  0  0  0  1  0  0  0  0  0  0
  192.4910  169.9340  140.1970 C   0  0  0  0  0  2  0  0  0  0  0  0
  192.2800  169.5320  138.8160 N   0  0  0  0  0  1  0  0  0  0  0  0
  191.4490  173.0200  144.7250 S   0  0  0  0  0  0  0  0  0  0  0  0
  192.2300  174.0230  143.5440 O   0  0  0  0  0  0  0  0  0  0  0  0
  193.5270  175.9280  144.1400 C   0  0  0  0  0  0  0  0  0  0  0  0
  193.4430  174.6290  143.8490 C   0  0  0  0  0  3  0  0  0  0  0  0
  188.3470  177.0020  146.9690 N   0  0  0  0  0  1  0  0  0  0  0  0
  190.1210  175.2030  147.7660 O   0  0  0  0  0  1  0  0  0  0  0  0
  191.4620  176.7590  145.3510 N   0  0  0  0  0  0  0  0  0  0  0  0
  192.3130  176.7680  144.1970 C   0  0  0  0  0  0  0  0  0  0  0  0
  190.6930  176.4630  147.5680 C   0  0  2  0  0  3  0  0  0  0  0  0
  190.1450  177.3650  145.3630 C   0  0  0  0  0  2  0  0  0  0  0  0
  192.0220  177.5000  143.2130 O   0  0  0  0  0  0  0  0  0  0  0  0
  189.7370  177.4010  146.8210 C   0  0  1  0  0  3  0  0  0  0  0  0
  191.8970  176.3100  146.6580 C   0  0  0  0  0  2  0  0  0  0  0  0
  195.9570  176.1220  143.6500 O   0  0  0  0  0  0  0  0  0  0  0  0
  195.0050  177.3870  145.3000 O   0  0  0  0  0  1  0  0  0  0  0  0
  194.8550  176.5190  144.3990 C   0  0  0  0  0  0  0  0  0  0  0  0
  187.6040  176.4630  142.3820 C   0  0  2  0  0  3  0  0  0  0  0  0
  186.1920  176.2140  142.9030 C   0  0  1  0  0  3  0  0  0  0  0  0
  185.8240  177.9730  144.7680 N   0  0  0  0  0  2  0  0  0  0  0  0
  186.2330  175.4110  144.0120 O   0  0  0  0  0  0  0  0  0  0  0  0
  186.0150  176.8910  144.0910 C   0  0  0  0  0  0  0  0  0  0  0  0
  187.7640  177.8440  141.8120 C   0  0  0  0  0  0  0  0  0  0  0  0
  186.5790  178.5500  141.2540 C   0  0  0  0  0  1  0  0  0  0  0  0
  188.8520  178.3980  141.8100 O   0  0  0  0  0  0  0  0  0  0  0  0
  1  2  2  0  0  0  0
  1 10  1  0  0  0  0
  2  6  1  0  0  0  0
  3  9  1  0  0  0  0
  4  3  2  0  0  0  0
  4  7  1  0  0  0  0
  5  2  1  0  0  0  0
  5 57  1  0  0  0  0
  6  8  1  0  0  0  0
  7  5  2  0  0  0  0
  8 41  1  6  0  0  0
  9  1  1  0  0  0  0
 10  8  1  0  0  0  0
 11 12  1  0  0  0  0
 11 14  1  0  0  0  0
 12  3  1  0  0  0  0
 13 11  2  0  0  0  0
 15 14  2  0  0  0  0
 15 18  1  0  0  0  0
 16 17  3  0  0  0  0
 17 15  1  0  0  0  0
 19 23  1  0  0  0  0
 20 25  1  0  0  0  0
 20 24  1  0  0  0  0
 21 20  2  0  0  0  0
 22 21  1  0  0  0  0
 22 19  2  0  0  0  0
 23 24  2  0  0  0  0
 23 18  1  0  0  0  0
 25 26  1  0  0  0  0
 26 27  1  0  0  0  0
 27 28  1  0  0  0  0
 28 29  1  0  0  0  0
 29 32  1  0  0  0  0
 30 29  1  0  0  0  0
 30 31  1  0  0  0  0
 34 32  1  0  0  0  0
 34 38  1  1  0  0  0
 36 34  1  0  0  0  0
 36 35  1  1  0  0  0
 37 33  1  6  0  0  0
 37 36  1  0  0  0  0
 37 34  1  0  0  0  0
 39 37  1  0  0  0  0
 40 39  1  0  0  0  0
 42 44  1  0  0  0  0
 42 41  1  0  0  0  0
 43 48  1  0  0  0  0
 43 56  1  0  0  0  0
 44 43  2  0  0  0  0
 47 50  1  0  0  0  0
 47 53  1  0  0  0  0
 48 47  1  0  0  0  0
 49 46  1  6  0  0  0
 50 52  1  0  0  0  0
 51 48  2  0  0  0  0
 52 45  1  6  0  0  0
 52 49  1  0  0  0  0
 53 49  1  0  0  0  0
 54 56  2  0  0  0  0
 56 55  1  0  0  0  0
 57 62  1  6  0  0  0
 58 57  1  1  0  0  0
 58 60  1  0  0  0  0
 58 61  1  0  0  0  0
 60 61  1  0  0  0  0
 61 59  2  0  0  0  0
 63 62  1  0  0  0  0
 64 62  2  0  0  0  0
M  END
>  <MODEL>
2

>  <REMARK>
 VINA RESULT:      -5.6      2.469     10.675
  Name = 
  22 active torsions:
  status: ('A' for Active; 'I' for Inactive)
    1  A    between atoms: C_3  and  C_10
    2  A    between atoms: C_4  and  N_17
    3  A    between atoms: N_5  and  C_6
    4  A    between atoms: N_5  and  C_54
    5  A    between atoms: N_5  and  C_61
    6  A    between atoms: C_8  and  C_38
    7  A    between atoms: C_9  and  C_38
    8  A    between atoms: C_12  and  C_19
    9  A    between atoms: C_12  and  C_61
   10  A    between atoms: C_13  and  O_39
   11  A    between atoms: C_19  and  O_39
   12  A    between atoms: C_20  and  C_53
   13  A    between atoms: C_21  and  C_38
   14  A    between atoms: C_25  and  C_54
   15  A    between atoms: C_30  and  C_33
   16  A    between atoms: C_30  and  C_58
   17  A    between atoms: C_32  and  C_42
   18  A    between atoms: C_37  and  O_46
   19  A    between atoms: C_42  and  C_56
   20  A    between atoms: O_46  and  S_63
   21  A    between atoms: C_50  and  C_56
   22  A    between atoms: C_51  and  S_63
                            x       y       z     vdW  Elec       q    Type
                         _______ _______ _______ _____ _____    ______ ____

>  <TORSDO>
F 22

$$$$
=
 OpenBabel11042414503D

 64 69  0  0  1  0  0  0  0  0999 V2000
  190.8930  173.2260  142.5820 C   0  0  0  0  0  0  0  0  0  0  0  0
  190.7980  173.0760  141.2650 C   0  0  0  0  0  0  0  0  0  0  0  0
  192.9500  174.5180  142.9280 C   0  0  0  0  0  0  0  0  0  0  0  0
  193.3700  174.7060  141.6730 C   0  0  0  0  0  3  0  0  0  0  0  0
  191.9450  173.1040  140.3230 C   0  0  0  0  0  0  0  0  0  0  0  0
  189.4170  172.7930  140.7910 C   0  0  0  0  0  2  0  0  0  0  0  0
  193.0470  173.8550  140.5090 C   0  0  0  0  0  3  0  0  0  0  0  0
  188.6370  172.3080  142.0000 C   0  0  1  0  0  3  0  0  0  0  0  0
  192.1950  173.2870  143.3020 C   0  0  0  0  0  2  0  0  0  0  0  0
  189.3590  173.0860  143.4760 S   0  0  0  0  0  0  0  0  0  0  0  0
  194.5790  175.9660  144.3240 C   0  0  0  0  0  0  0  0  0  0  0  0
  193.2930  175.4310  143.9810 N   0  0  0  0  0  2  0  0  0  0  0  0
  194.6620  176.7120  145.3350 O   0  0  0  0  0  0  0  0  0  0  0  0
  195.7790  175.6760  143.5070 C   0  0  0  0  0  3  0  0  0  0  0  0
  196.8260  174.9140  143.8480 C   0  0  0  0  0  0  0  0  0  0  0  0
  197.0040  173.6800  146.1270 N   0  0  0  0  0  0  0  0  0  0  0  0
  196.9230  174.2290  145.1120 C   0  0  0  0  0  0  0  0  0  0  0  0
  197.9370  174.7450  142.8650 C   0  0  0  0  0  2  0  0  0  0  0  0
  197.7480  174.5950  140.3700 C   0  0  0  0  0  3  0  0  0  0  0  0
  196.2790  172.2160  140.5770 C   0  0  0  0  0  0  0  0  0  0  0  0
  196.5720  172.7610  139.3170 C   0  0  0  0  0  3  0  0  0  0  0  0
  197.3040  173.9470  139.2140 C   0  0  0  0  0  3  0  0  0  0  0  0
  197.4590  174.0570  141.6300 C   0  0  0  0  0  0  0  0  0  0  0  0
  196.7310  172.8680  141.7290 C   0  0  0  0  0  3  0  0  0  0  0  0
  195.5430  171.0380  140.7110 O   0  0  0  0  0  0  0  0  0  0  0  0
  195.9400  169.8080  140.1150 C   0  0  0  0  0  2  0  0  0  0  0  0
  196.0990  168.7520  141.1890 C   0  0  0  0  0  2  0  0  0  0  0  0
  194.7280  168.3060  141.6900 C   0  0  0  0  0  2  0  0  0  0  0  0
  194.3310  168.9610  142.9410 N   0  0  0  0  0  0  0  0  0  0  0  0
  192.9110  169.3170  142.9190 C   0  0  0  0  0  2  0  0  0  0  0  0
  192.1400  168.1760  142.7040 O   0  0  0  0  0  1  0  0  0  0  0  0
  194.7540  168.1670  144.1110 C   0  0  0  0  0  2  0  0  0  0  0  0
  197.4610  169.1920  144.6630 C   0  0  0  0  0  1  0  0  0  0  0  0
  194.9920  168.9510  145.4150 C   0  0  2  0  0  0  0  0  0  0  0  0
  194.7830  171.1800  146.3130 O   0  0  0  0  0  1  0  0  0  0  0  0
  195.2980  170.4390  145.2460 C   0  0  1  0  0  3  0  0  0  0  0  0
  196.3930  169.4710  145.7080 C   0  0  2  0  0  0  0  0  0  0  0  0
  194.2290  168.6200  146.5390 O   0  0  0  0  0  1  0  0  0  0  0  0
  196.8140  169.5090  147.1760 C   0  0  0  0  0  2  0  0  0  0  0  0
  196.7910  168.1690  147.7380 N   0  0  0  0  0  1  0  0  0  0  0  0
  186.8940  172.7720  141.8320 S   0  0  0  0  0  0  0  0  0  0  0  0
  187.1760  174.3170  142.5700 O   0  0  0  0  0  0  0  0  0  0  0  0
  187.6890  176.6200  142.2510 C   0  0  0  0  0  0  0  0  0  0  0  0
  187.2360  175.4580  141.7780 C   0  0  0  0  0  3  0  0  0  0  0  0
  186.5190  178.4080  147.8580 N   0  0  0  0  0  1  0  0  0  0  0  0
  184.7600  178.5010  145.8780 O   0  0  0  0  0  1  0  0  0  0  0  0
  187.3100  177.0110  144.7260 N   0  0  0  0  0  0  0  0  0  0  0  0
  188.1950  176.7240  143.6360 C   0  0  0  0  0  0  0  0  0  0  0  0
  185.3400  177.2370  146.0150 C   0  0  2  0  0  3  0  0  0  0  0  0
  187.7810  177.3650  146.0500 C   0  0  0  0  0  2  0  0  0  0  0  0
  189.4250  176.5610  143.8570 O   0  0  0  0  0  0  0  0  0  0  0  0
  186.5600  177.2780  146.9440 C   0  0  1  0  0  3  0  0  0  0  0  0
  185.8770  176.8020  144.6660 C   0  0  0  0  0  2  0  0  0  0  0  0
  188.3930  178.9440  141.7150 O   0  0  0  0  0  1  0  0  0  0  0  0
  187.0020  177.8010  140.3030 O   0  0  0  0  0  0  0  0  0  0  0  0
  187.6710  177.8060  141.3720 C   0  0  0  0  0  0  0  0  0  0  0  0
  191.8060  172.3260  139.0400 C   0  0  2  0  0  3  0  0  0  0  0  0
  192.5810  171.0110  139.0640 C   0  0  1  0  0  3  0  0  0  0  0  0
  191.2640  169.4050  137.5170 N   0  0  0  0  0  2  0  0  0  0  0  0
  192.0390  170.1610  139.9920 O   0  0  0  0  0  0  0  0  0  0  0  0
  191.8030  170.0100  138.5200 C   0  0  0  0  0  0  0  0  0  0  0  0
  192.1300  173.1540  137.8290 C   0  0  0  0  0  0  0  0  0  0  0  0
  191.0440  173.8940  137.1330 C   0  0  0  0  0  1  0  0  0  0  0  0
  193.2760  173.2340  137.4150 O   0  0  0  0  0  0  0  0  0  0  0  0
  1  9  1  0  0  0  0
  1 10  1  0  0  0  0
  2  1  2  0  0  0  0
  3  9  1  0  0  0  0
  3 12  1  0  0  0  0
  4  3  2  0  0  0  0
  5  7  2  0  0  0  0
  5  2  1  0  0  0  0
  6  2  1  0  0  0  0
  6  8  1  0  0  0  0
  7  4  1  0  0  0  0
  8 41  1  6  0  0  0
  8 10  1  0  0  0  0
 11 13  2  0  0  0  0
 12 11  1  0  0  0  0
 14 15  2  0  0  0  0
 14 11  1  0  0  0  0
 15 17  1  0  0  0  0
 17 16  3  0  0  0  0
 18 15  1  0  0  0  0
 19 23  1  0  0  0  0
 20 25  1  0  0  0  0
 20 24  1  0  0  0  0
 21 20  2  0  0  0  0
 22 21  1  0  0  0  0
 22 19  2  0  0  0  0
 23 24  2  0  0  0  0
 23 18  1  0  0  0  0
 26 25  1  0  0  0  0
 26 27  1  0  0  0  0
 27 28  1  0  0  0  0
 28 29  1  0  0  0  0
 29 32  1  0  0  0  0
 30 29  1  0  0  0  0
 31 30  1  0  0  0  0
 32 34  1  0  0  0  0
 34 37  1  0  0  0  0
 34 38  1  1  0  0  0
 36 34  1  0  0  0  0
 36 37  1  0  0  0  0
 36 35  1  1  0  0  0
 37 33  1  6  0  0  0
 37 39  1  0  0  0  0
 39 40  1  0  0  0  0
 41 42  1  0  0  0  0
 43 48  1  0  0  0  0
 44 43  2  0  0  0  0
 44 42  1  0  0  0  0
 47 50  1  0  0  0  0
 48 51  2  0  0  0  0
 48 47  1  0  0  0  0
 49 46  1  6  0  0  0
 49 52  1  0  0  0  0
 50 52  1  0  0  0  0
 52 45  1  1  0  0  0
 53 47  1  0  0  0  0
 53 49  1  0  0  0  0
 55 56  2  0  0  0  0
 56 54  1  0  0  0  0
 56 43  1  0  0  0  0
 57 62  1  6  0  0  0
 57  5  1  0  0  0  0
 58 57  1  1  0  0  0
 58 60  1  0  0  0  0
 59 61  2  0  0  0  0
 61 58  1  0  0  0  0
 61 60  1  0  0  0  0
 63 62  1  0  0  0  0
 64 62  2  0  0  0  0
M  END
>  <MODEL>
3

>  <REMARK>
 VINA RESULT:      -5.4      2.869      9.818
  Name = 
  22 active torsions:
  status: ('A' for Active; 'I' for Inactive)
    1  A    between atoms: C_3  and  C_10
    2  A    between atoms: C_4  and  N_17
    3  A    between atoms: N_5  and  C_6
    4  A    between atoms: N_5  and  C_54
    5  A    between atoms: N_5  and  C_61
    6  A    between atoms: C_8  and  C_38
    7  A    between atoms: C_9  and  C_38
    8  A    between atoms: C_12  and  C_19
    9  A    between atoms: C_12  and  C_61
   10  A    between atoms: C_13  and  O_39
   11  A    between atoms: C_19  and  O_39
   12  A    between atoms: C_20  and  C_53
   13  A    between atoms: C_21  and  C_38
   14  A    between atoms: C_25  and  C_54
   15  A    between atoms: C_30  and  C_33
   16  A    between atoms: C_30  and  C_58
   17  A    between atoms: C_32  and  C_42
   18  A    between atoms: C_37  and  O_46
   19  A    between atoms: C_42  and  C_56
   20  A    between atoms: O_46  and  S_63
   21  A    between atoms: C_50  and  C_56
   22  A    between atoms: C_51  and  S_63
                            x       y       z     vdW  Elec       q    Type
                         _______ _______ _______ _____ _____    ______ ____

>  <TORSDO>
F 22

$$$$
=
 OpenBabel11042414503D

 64 69  0  0  1  0  0  0  0  0999 V2000
  191.8570  172.4310  140.2560 C   0  0  0  0  0  0  0  0  0  0  0  0
  192.4160  172.2160  139.0700 C   0  0  0  0  0  0  0  0  0  0  0  0
  189.6800  173.4490  139.7580 C   0  0  0  0  0  0  0  0  0  0  0  0
  189.6890  173.4770  138.4220 C   0  0  0  0  0  3  0  0  0  0  0  0
  192.1030  172.9770  137.8340 C   0  0  0  0  0  0  0  0  0  0  0  0
  193.4710  171.1680  139.0840 C   0  0  0  0  0  2  0  0  0  0  0  0
  190.8890  173.4910  137.5600 C   0  0  0  0  0  3  0  0  0  0  0  0
  193.8950  171.0040  140.5320 C   0  0  1  0  0  3  0  0  0  0  0  0
  190.9490  173.5790  140.5320 C   0  0  0  0  0  2  0  0  0  0  0  0
  192.4660  171.4080  141.5800 S   0  0  0  0  0  0  0  0  0  0  0  0
  188.0240  174.2350  141.5860 C   0  0  0  0  0  0  0  0  0  0  0  0
  188.4530  173.3980  140.5020 N   0  0  0  0  0  2  0  0  0  0  0  0
  186.9240  173.9730  142.1390 O   0  0  0  0  0  0  0  0  0  0  0  0
  188.8320  175.3910  142.0370 C   0  0  0  0  0  3  0  0  0  0  0  0
  188.6220  176.6830  141.7570 C   0  0  0  0  0  0  0  0  0  0  0  0
  186.6310  177.5180  140.3110 N   0  0  0  0  0  0  0  0  0  0  0  0
  187.5190  177.1460  140.9530 C   0  0  0  0  0  0  0  0  0  0  0  0
  189.5580  177.6980  142.3240 C   0  0  0  0  0  2  0  0  0  0  0  0
  191.9010  177.3060  143.1240 C   0  0  0  0  0  3  0  0  0  0  0  0
  190.9700  175.6450  145.1820 C   0  0  0  0  0  0  0  0  0  0  0  0
  192.3450  175.8890  145.0350 C   0  0  0  0  0  3  0  0  0  0  0  0
  192.8080  176.7170  144.0100 C   0  0  0  0  0  3  0  0  0  0  0  0
  190.5290  177.0660  143.2640 C   0  0  0  0  0  0  0  0  0  0  0  0
  190.0680  176.2410  144.2950 C   0  0  0  0  0  3  0  0  0  0  0  0
  190.4780  174.8150  146.1910 O   0  0  0  0  0  0  0  0  0  0  0  0
  189.9580  175.3170  147.4160 C   0  0  0  0  0  2  0  0  0  0  0  0
  188.4460  175.3720  147.3410 C   0  0  0  0  0  2  0  0  0  0  0  0
  188.0010  176.7060  146.7470 C   0  0  0  0  0  2  0  0  0  0  0  0
  186.9220  177.3430  147.5110 N   0  0  0  0  0  0  0  0  0  0  0  0
  187.3230  178.6720  147.9770 C   0  0  0  0  0  2  0  0  0  0  0  0
  186.1920  179.4360  148.2610 O   0  0  0  0  0  1  0  0  0  0  0  0
  185.6510  177.3060  146.7610 C   0  0  0  0  0  2  0  0  0  0  0  0
  183.5100  178.8310  145.4290 C   0  0  0  0  0  1  0  0  0  0  0  0
  185.7500  177.5410  145.2420 C   0  0  2  0  0  0  0  0  0  0  0  0
  186.7730  179.0380  143.6520 O   0  0  0  0  0  1  0  0  0  0  0  0
  185.9940  178.9860  144.8110 C   0  0  1  0  0  3  0  0  0  0  0  0
  184.6390  178.3180  144.5500 C   0  0  2  0  0  0  0  0  0  0  0  0
  186.3780  176.5680  144.4590 O   0  0  0  0  0  1  0  0  0  0  0  0
  184.3060  177.9020  143.1190 C   0  0  0  0  0  2  0  0  0  0  0  0
  183.2510  178.7480  142.5840 N   0  0  0  0  0  1  0  0  0  0  0  0
  194.4290  169.2970  140.8250 S   0  0  0  0  0  0  0  0  0  0  0  0
  195.5770  169.8030  142.0240 O   0  0  0  0  0  0  0  0  0  0  0  0
  195.6720  171.2060  143.9440 C   0  0  0  0  0  0  0  0  0  0  0  0
  195.1360  170.1770  143.2870 C   0  0  0  0  0  3  0  0  0  0  0  0
  196.9700  175.4370  139.8930 N   0  0  0  0  0  1  0  0  0  0  0  0
  194.5080  174.6420  140.4630 O   0  0  0  0  0  1  0  0  0  0  0  0
  196.4120  173.1740  142.5290 N   0  0  0  0  0  0  0  0  0  0  0  0
  196.7340  172.0250  143.3240 C   0  0  0  0  0  0  0  0  0  0  0  0
  195.2280  175.0010  141.6060 C   0  0  2  0  0  3  0  0  0  0  0  0
  197.3880  173.8590  141.7050 C   0  0  0  0  0  2  0  0  0  0  0  0
  197.9410  171.7030  143.4960 O   0  0  0  0  0  0  0  0  0  0  0  0
  196.7230  175.1590  141.2980 C   0  0  1  0  0  3  0  0  0  0  0  0
  195.1420  173.8670  142.6090 C   0  0  0  0  0  2  0  0  0  0  0  0
  195.1840  172.8240  145.7680 O   0  0  0  0  0  0  0  0  0  0  0  0
  194.7890  170.5910  146.0660 O   0  0  0  0  0  1  0  0  0  0  0  0
  195.1930  171.5130  145.3070 C   0  0  0  0  0  0  0  0  0  0  0  0
  193.1870  173.0820  136.7920 C   0  0  2  0  0  3  0  0  0  0  0  0
  193.4020  174.5130  136.3090 C   0  0  1  0  0  3  0  0  0  0  0  0
  195.9700  174.8300  136.2090 N   0  0  0  0  0  2  0  0  0  0  0  0
  193.5900  175.3490  137.3780 O   0  0  0  0  0  0  0  0  0  0  0  0
  194.7170  174.8740  136.5130 C   0  0  0  0  0  0  0  0  0  0  0  0
  192.9820  172.1220  135.6540 C   0  0  0  0  0  0  0  0  0  0  0  0
  194.1460  171.7100  134.8230 C   0  0  0  0  0  1  0  0  0  0  0  0
  191.8750  171.6710  135.4090 O   0  0  0  0  0  0  0  0  0  0  0  0
  1  9  1  0  0  0  0
  1 10  1  0  0  0  0
  2  6  1  0  0  0  0
  2  1  2  0  0  0  0
  3 12  1  0  0  0  0
  3  9  1  0  0  0  0
  4  3  2  0  0  0  0
  5  2  1  0  0  0  0
  6  8  1  0  0  0  0
  7  5  2  0  0  0  0
  7  4  1  0  0  0  0
  8 41  1  6  0  0  0
  8 10  1  0  0  0  0
 11 14  1  0  0  0  0
 11 13  2  0  0  0  0
 12 11  1  0  0  0  0
 15 14  2  0  0  0  0
 15 18  1  0  0  0  0
 16 17  3  0  0  0  0
 17 15  1  0  0  0  0
 18 23  1  0  0  0  0
 19 23  2  0  0  0  0
 19 22  1  0  0  0  0
 20 25  1  0  0  0  0
 21 20  1  0  0  0  0
 22 21  2  0  0  0  0
 23 24  1  0  0  0  0
 24 20  2  0  0  0  0
 25 26  1  0  0  0  0
 27 26  1  0  0  0  0
 28 27  1  0  0  0  0
 28 29  1  0  0  0  0
 29 30  1  0  0  0  0
 30 31  1  0  0  0  0
 32 29  1  0  0  0  0
 34 38  1  6  0  0  0
 34 32  1  0  0  0  0
 36 35  1  6  0  0  0
 36 34  1  0  0  0  0
 37 36  1  0  0  0  0
 37 34  1  0  0  0  0
 37 33  1  1  0  0  0
 39 37  1  0  0  0  0
 40 39  1  0  0  0  0
 41 42  1  0  0  0  0
 42 44  1  0  0  0  0
 43 56  1  0  0  0  0
 44 43  2  0  0  0  0
 47 53  1  0  0  0  0
 47 48  1  0  0  0  0
 48 51  2  0  0  0  0
 48 43  1  0  0  0  0
 49 46  1  6  0  0  0
 49 53  1  0  0  0  0
 50 47  1  0  0  0  0
 52 45  1  6  0  0  0
 52 49  1  0  0  0  0
 52 50  1  0  0  0  0
 56 54  2  0  0  0  0
 56 55  1  0  0  0  0
 57 62  1  6  0  0  0
 57  5  1  0  0  0  0
 58 61  1  0  0  0  0
 58 57  1  1  0  0  0
 58 60  1  0  0  0  0
 59 61  2  0  0  0  0
 61 60  1  0  0  0  0
 63 62  1  0  0  0  0
 64 62  2  0  0  0  0
M  END
>  <MODEL>
4

>  <REMARK>
 VINA RESULT:      -5.2      2.534      6.161
  Name = 
  22 active torsions:
  status: ('A' for Active; 'I' for Inactive)
    1  A    between atoms: C_3  and  C_10
    2  A    between atoms: C_4  and  N_17
    3  A    between atoms: N_5  and  C_6
    4  A    between atoms: N_5  and  C_54
    5  A    between atoms: N_5  and  C_61
    6  A    between atoms: C_8  and  C_38
    7  A    between atoms: C_9  and  C_38
    8  A    between atoms: C_12  and  C_19
    9  A    between atoms: C_12  and  C_61
   10  A    between atoms: C_13  and  O_39
   11  A    between atoms: C_19  and  O_39
   12  A    between atoms: C_20  and  C_53
   13  A    between atoms: C_21  and  C_38
   14  A    between atoms: C_25  and  C_54
   15  A    between atoms: C_30  and  C_33
   16  A    between atoms: C_30  and  C_58
   17  A    between atoms: C_32  and  C_42
   18  A    between atoms: C_37  and  O_46
   19  A    between atoms: C_42  and  C_56
   20  A    between atoms: O_46  and  S_63
   21  A    between atoms: C_50  and  C_56
   22  A    between atoms: C_51  and  S_63
                            x       y       z     vdW  Elec       q    Type
                         _______ _______ _______ _____ _____    ______ ____

>  <TORSDO>
F 22

$$$$
=
 OpenBabel11042414503D

 64 69  0  0  1  0  0  0  0  0999 V2000
  191.1800  171.7670  139.8500 C   0  0  0  0  0  0  0  0  0  0  0  0
  191.6560  171.2270  140.9660 C   0  0  0  0  0  0  0  0  0  0  0  0
  192.0650  170.3690  138.0380 C   0  0  0  0  0  0  0  0  0  0  0  0
  192.7660  169.4540  138.7150 C   0  0  0  0  0  3  0  0  0  0  0  0
  192.8980  170.4190  141.0540 C   0  0  0  0  0  0  0  0  0  0  0  0
  190.8680  171.5640  142.1810 C   0  0  0  0  0  2  0  0  0  0  0  0
  193.3440  169.6230  140.0640 C   0  0  0  0  0  3  0  0  0  0  0  0
  190.0410  172.7880  141.8320 C   0  0  1  0  0  3  0  0  0  0  0  0
  191.9240  171.7600  138.5590 C   0  0  0  0  0  2  0  0  0  0  0  0
  189.7010  172.7400  140.0470 S   0  0  0  0  0  0  0  0  0  0  0  0
  191.5980  170.8660  135.5400 C   0  0  0  0  0  0  0  0  0  0  0  0
  191.5120  170.0880  136.7430 N   0  0  0  0  0  2  0  0  0  0  0  0
  190.9810  170.4570  134.5230 O   0  0  0  0  0  0  0  0  0  0  0  0
  192.4070  172.1050  135.4780 C   0  0  0  0  0  3  0  0  0  0  0  0
  191.9590  173.3660  135.5050 C   0  0  0  0  0  0  0  0  0  0  0  0
  189.4420  173.9780  135.7120 N   0  0  0  0  0  0  0  0  0  0  0  0
  190.5630  173.7030  135.6200 C   0  0  0  0  0  0  0  0  0  0  0  0
  192.9520  174.4780  135.4390 C   0  0  0  0  0  2  0  0  0  0  0  0
  195.2200  173.7580  134.6520 C   0  0  0  0  0  3  0  0  0  0  0  0
  196.0370  173.2870  137.2930 C   0  0  0  0  0  0  0  0  0  0  0  0
  196.9220  173.0630  136.2250 C   0  0  0  0  0  3  0  0  0  0  0  0
  196.5140  173.2980  134.9100 C   0  0  0  0  0  3  0  0  0  0  0  0
  194.3320  173.9820  135.7110 C   0  0  0  0  0  0  0  0  0  0  0  0
  194.7450  173.7510  137.0270 C   0  0  0  0  0  3  0  0  0  0  0  0
  196.4130  173.0520  138.6160 O   0  0  0  0  0  0  0  0  0  0  0  0
  197.6040  173.5850  139.1850 C   0  0  0  0  0  2  0  0  0  0  0  0
  197.3080  174.1220  140.5700 C   0  0  0  0  0  2  0  0  0  0  0  0
  195.8050  174.0920  140.8330 C   0  0  0  0  0  2  0  0  0  0  0  0
  195.3640  175.1340  141.7660 N   0  0  0  0  0  0  0  0  0  0  0  0
  194.7530  176.2560  141.0500 C   0  0  0  0  0  2  0  0  0  0  0  0
  194.8970  176.0750  139.6750 O   0  0  0  0  0  1  0  0  0  0  0  0
  194.5350  174.5610  142.8440 C   0  0  0  0  0  2  0  0  0  0  0  0
  192.8000  173.6720  145.0550 C   0  0  0  0  0  1  0  0  0  0  0  0
  194.8960  174.9860  144.2800 C   0  0  2  0  0  0  0  0  0  0  0  0
  196.3070  174.3220  146.1200 O   0  0  0  0  0  1  0  0  0  0  0  0
  195.3530  173.8610  145.2080 C   0  0  1  0  0  3  0  0  0  0  0  0
  193.9950  174.5380  145.4220 C   0  0  2  0  0  0  0  0  0  0  0  0
  195.5360  176.2150  144.4680 O   0  0  0  0  0  1  0  0  0  0  0  0
  193.8500  175.5050  146.5960 C   0  0  0  0  0  2  0  0  0  0  0  0
  192.6230  176.2730  146.4650 N   0  0  0  0  0  1  0  0  0  0  0  0
  188.4900  172.7700  142.7690 S   0  0  0  0  0  0  0  0  0  0  0  0
  188.2150  174.4540  142.4540 O   0  0  0  0  0  0  0  0  0  0  0  0
  189.5800  176.0430  143.5840 C   0  0  0  0  0  0  0  0  0  0  0  0
  189.2800  175.3450  142.4880 C   0  0  0  0  0  3  0  0  0  0  0  0
  185.3920  178.3080  147.2360 N   0  0  0  0  0  1  0  0  0  0  0  0
  186.0730  179.3910  144.9150 O   0  0  0  0  0  1  0  0  0  0  0  0
  187.6410  176.6420  145.1030 N   0  0  0  0  0  0  0  0  0  0  0  0
  188.8090  175.8560  144.8310 C   0  0  0  0  0  0  0  0  0  0  0  0
  185.7550  178.0350  144.7960 C   0  0  2  0  0  3  0  0  0  0  0  0
  186.9980  176.6740  146.4010 C   0  0  0  0  0  2  0  0  0  0  0  0
  189.1880  174.9920  145.6670 O   0  0  0  0  0  0  0  0  0  0  0  0
  185.6670  177.3580  146.1700 C   0  0  1  0  0  3  0  0  0  0  0  0
  186.8890  177.3330  144.0750 C   0  0  0  0  0  2  0  0  0  0  0  0
  190.4390  178.3750  143.6640 O   0  0  0  0  0  1  0  0  0  0  0  0
  191.8770  176.6220  143.3700 O   0  0  0  0  0  0  0  0  0  0  0  0
  190.6900  177.0140  143.5330 C   0  0  0  0  0  0  0  0  0  0  0  0
  193.6330  170.4190  142.3700 C   0  0  2  0  0  3  0  0  0  0  0  0
  195.1230  170.1310  142.2120 C   0  0  1  0  0  3  0  0  0  0  0  0
  196.1250  170.3490  144.5900 N   0  0  0  0  0  2  0  0  0  0  0  0
  195.8180  171.3050  142.0810 O   0  0  0  0  0  0  0  0  0  0  0  0
  195.7890  170.5170  143.3560 C   0  0  0  0  0  0  0  0  0  0  0  0
  192.9860  169.5210  143.3880 C   0  0  0  0  0  0  0  0  0  0  0  0
  192.5250  168.1660  142.9830 C   0  0  0  0  0  1  0  0  0  0  0  0
  192.8440  169.8870  144.5430 O   0  0  0  0  0  0  0  0  0  0  0  0
  1 10  1  0  0  0  0
  1  2  2  0  0  0  0
  2  5  1  0  0  0  0
  2  6  1  0  0  0  0
  3  9  1  0  0  0  0
  3  4  2  0  0  0  0
  4  7  1  0  0  0  0
  5 57  1  0  0  0  0
  7  5  2  0  0  0  0
  8  6  1  0  0  0  0
  8 41  1  1  0  0  0
  9  1  1  0  0  0  0
 10  8  1  0  0  0  0
 11 12  1  0  0  0  0
 12  3  1  0  0  0  0
 13 11  2  0  0  0  0
 14 15  2  0  0  0  0
 14 11  1  0  0  0  0
 15 17  1  0  0  0  0
 17 16  3  0  0  0  0
 18 15  1  0  0  0  0
 18 23  1  0  0  0  0
 19 22  2  0  0  0  0
 19 23  1  0  0  0  0
 20 25  1  0  0  0  0
 21 20  2  0  0  0  0
 22 21  1  0  0  0  0
 23 24  2  0  0  0  0
 24 20  1  0  0  0  0
 25 26  1  0  0  0  0
 26 27  1  0  0  0  0
 27 28  1  0  0  0  0
 28 29  1  0  0  0  0
 29 32  1  0  0  0  0
 30 29  1  0  0  0  0
 31 30  1  0  0  0  0
 32 34  1  0  0  0  0
 34 38  1  1  0  0  0
 34 36  1  0  0  0  0
 34 37  1  0  0  0  0
 36 37  1  0  0  0  0
 36 35  1  1  0  0  0
 37 33  1  6  0  0  0
 37 39  1  0  0  0  0
 40 39  1  0  0  0  0
 42 44  1  0  0  0  0
 42 41  1  0  0  0  0
 43 48  1  0  0  0  0
 44 43  2  0  0  0  0
 47 50  1  0  0  0  0
 48 47  1  0  0  0  0
 48 51  2  0  0  0  0
 49 46  1  1  0  0  0
 49 52  1  0  0  0  0
 52 50  1  0  0  0  0
 52 45  1  1  0  0  0
 53 49  1  0  0  0  0
 53 47  1  0  0  0  0
 55 56  2  0  0  0  0
 56 43  1  0  0  0  0
 56 54  1  0  0  0  0
 57 62  1  1  0  0  0
 58 57  1  1  0  0  0
 58 61  1  0  0  0  0
 60 58  1  0  0  0  0
 60 61  1  0  0  0  0
 61 59  2  0  0  0  0
 62 64  2  0  0  0  0
 63 62  1  0  0  0  0
M  END
>  <MODEL>
5

>  <REMARK>
 VINA RESULT:      -5.2      2.598      9.638
  Name = 
  22 active torsions:
  status: ('A' for Active; 'I' for Inactive)
    1  A    between atoms: C_3  and  C_10
    2  A    between atoms: C_4  and  N_17
    3  A    between atoms: N_5  and  C_6
    4  A    between atoms: N_5  and  C_54
    5  A    between atoms: N_5  and  C_61
    6  A    between atoms: C_8  and  C_38
    7  A    between atoms: C_9  and  C_38
    8  A    between atoms: C_12  and  C_19
    9  A    between atoms: C_12  and  C_61
   10  A    between atoms: C_13  and  O_39
   11  A    between atoms: C_19  and  O_39
   12  A    between atoms: C_20  and  C_53
   13  A    between atoms: C_21  and  C_38
   14  A    between atoms: C_25  and  C_54
   15  A    between atoms: C_30  and  C_33
   16  A    between atoms: C_30  and  C_58
   17  A    between atoms: C_32  and  C_42
   18  A    between atoms: C_37  and  O_46
   19  A    between atoms: C_42  and  C_56
   20  A    between atoms: O_46  and  S_63
   21  A    between atoms: C_50  and  C_56
   22  A    between atoms: C_51  and  S_63
                            x       y       z     vdW  Elec       q    Type
                         _______ _______ _______ _____ _____    ______ ____

>  <TORSDO>
F 22

$$$$
=
 OpenBabel11042414503D

 64 69  0  0  1  0  0  0  0  0999 V2000
  185.6600  177.3940  141.8030 C   0  0  0  0  0  0  0  0  0  0  0  0
  185.6440  177.5840  143.1180 C   0  0  0  0  0  0  0  0  0  0  0  0
  187.3180  175.6230  141.4370 C   0  0  0  0  0  0  0  0  0  0  0  0
  187.7140  175.3550  142.6850 C   0  0  0  0  0  3  0  0  0  0  0  0
  186.7740  177.2840  144.0330 C   0  0  0  0  0  0  0  0  0  0  0  0
  184.3920  178.2110  143.6200 C   0  0  0  0  0  2  0  0  0  0  0  0
  187.6480  176.2780  143.8360 C   0  0  0  0  0  3  0  0  0  0  0  0
  183.7230  178.8570  142.4190 C   0  0  1  0  0  3  0  0  0  0  0  0
  186.8840  176.9980  141.0530 C   0  0  0  0  0  2  0  0  0  0  0  0
  184.1850  177.8990  140.9440 S   0  0  0  0  0  0  0  0  0  0  0  0
  188.5520  174.0960  139.7490 C   0  0  0  0  0  0  0  0  0  0  0  0
  187.3900  174.6370  140.3960 N   0  0  0  0  0  2  0  0  0  0  0  0
  188.3810  173.2770  138.8090 O   0  0  0  0  0  0  0  0  0  0  0  0
  189.9190  174.4660  140.1800 C   0  0  0  0  0  3  0  0  0  0  0  0
  190.6800  173.8380  141.0850 C   0  0  0  0  0  0  0  0  0  0  0  0
  189.9120  171.6980  142.3420 N   0  0  0  0  0  0  0  0  0  0  0  0
  190.2550  172.6510  141.7840 C   0  0  0  0  0  0  0  0  0  0  0  0
  192.0430  174.3750  141.3690 C   0  0  0  0  0  2  0  0  0  0  0  0
  191.2860  176.1510  142.9680 C   0  0  0  0  0  3  0  0  0  0  0  0
  192.9850  175.1470  144.9600 C   0  0  0  0  0  0  0  0  0  0  0  0
  192.1760  176.2660  145.2160 C   0  0  0  0  0  3  0  0  0  0  0  0
  191.3300  176.7660  144.2230 C   0  0  0  0  0  3  0  0  0  0  0  0
  192.0910  175.0360  142.7060 C   0  0  0  0  0  0  0  0  0  0  0  0
  192.9340  174.5350  143.7040 C   0  0  0  0  0  3  0  0  0  0  0  0
  193.8470  174.6310  145.9290 O   0  0  0  0  0  0  0  0  0  0  0  0
  195.0620  175.2720  146.2990 C   0  0  0  0  0  2  0  0  0  0  0  0
  196.2200  174.3150  146.1060 C   0  0  0  0  0  2  0  0  0  0  0  0
  196.8590  174.5380  144.7380 C   0  0  0  0  0  2  0  0  0  0  0  0
  196.5940  173.4460  143.7940 N   0  0  0  0  0  0  0  0  0  0  0  0
  197.0220  173.8060  142.4410 C   0  0  0  0  0  2  0  0  0  0  0  0
  195.9490  174.3460  141.7330 O   0  0  0  0  0  1  0  0  0  0  0  0
  197.1360  172.1690  144.2980 C   0  0  0  0  0  2  0  0  0  0  0  0
  197.9130  169.3300  144.1500 C   0  0  0  0  0  1  0  0  0  0  0  0
  196.1000  171.1010  144.6960 C   0  0  2  0  0  0  0  0  0  0  0  0
  195.2350  169.9820  146.6500 O   0  0  0  0  0  1  0  0  0  0  0  0
  196.4100  170.3230  145.9750 C   0  0  1  0  0  3  0  0  0  0  0  0
  196.4960  169.6330  144.6090 C   0  0  2  0  0  0  0  0  0  0  0  0
  194.7470  171.3700  144.4720 O   0  0  0  0  0  1  0  0  0  0  0  0
  195.3900  168.6500  144.2290 C   0  0  0  0  0  2  0  0  0  0  0  0
  195.0120  168.8340  142.8380 N   0  0  0  0  0  1  0  0  0  0  0  0
  181.9250  178.8470  142.6400 S   0  0  0  0  0  0  0  0  0  0  0  0
  181.6590  179.0610  140.9380 O   0  0  0  0  0  0  0  0  0  0  0  0
  179.4900  178.5200  140.1200 C   0  0  0  0  0  0  0  0  0  0  0  0
  180.7810  178.2190  140.2670 C   0  0  0  0  0  3  0  0  0  0  0  0
  178.8460  184.4020  139.1280 N   0  0  0  0  0  1  0  0  0  0  0  0
  179.9310  182.7200  137.3920 O   0  0  0  0  0  1  0  0  0  0  0  0
  178.8330  180.9440  139.7770 N   0  0  0  0  0  0  0  0  0  0  0  0
  178.9520  179.7980  140.6310 C   0  0  0  0  0  0  0  0  0  0  0  0
  178.6790  182.2890  137.8390 C   0  0  2  0  0  3  0  0  0  0  0  0
  178.5490  182.2730  140.2800 C   0  0  0  0  0  2  0  0  0  0  0  0
  178.5950  179.8790  141.8370 O   0  0  0  0  0  0  0  0  0  0  0  0
  178.2090  183.0980  139.0540 C   0  0  1  0  0  3  0  0  0  0  0  0
  178.8060  180.8610  138.3310 C   0  0  0  0  0  2  0  0  0  0  0  0
  178.1030  176.4570  140.1370 O   0  0  0  0  0  1  0  0  0  0  0  0
  178.2870  177.7110  138.2330 O   0  0  0  0  0  0  0  0  0  0  0  0
  178.6020  177.5540  139.4440 C   0  0  0  0  0  0  0  0  0  0  0  0
  186.8720  178.0920  145.3010 C   0  0  2  0  0  3  0  0  0  0  0  0
  188.2390  177.9730  145.9700 C   0  0  1  0  0  3  0  0  0  0  0  0
  188.3260  175.5720  146.9380 N   0  0  0  0  0  2  0  0  0  0  0  0
  188.1330  178.2420  147.3090 O   0  0  0  0  0  0  0  0  0  0  0  0
  188.2610  176.8500  146.7700 C   0  0  0  0  0  0  0  0  0  0  0  0
  185.7460  177.8040  146.2530 C   0  0  0  0  0  0  0  0  0  0  0  0
  185.1900  176.4260  146.3370 C   0  0  0  0  0  1  0  0  0  0  0  0
  185.2890  178.6840  146.9650 O   0  0  0  0  0  0  0  0  0  0  0  0
  1  2  2  0  0  0  0
  2  6  1  0  0  0  0
  2  5  1  0  0  0  0
  3  4  2  0  0  0  0
  4  7  1  0  0  0  0
  5 57  1  0  0  0  0
  7  5  2  0  0  0  0
  8 41  1  1  0  0  0
  8  6  1  0  0  0  0
  9  3  1  0  0  0  0
  9  1  1  0  0  0  0
 10  1  1  0  0  0  0
 10  8  1  0  0  0  0
 11 14  1  0  0  0  0
 11 12  1  0  0  0  0
 12  3  1  0  0  0  0
 13 11  2  0  0  0  0
 14 15  2  0  0  0  0
 15 18  1  0  0  0  0
 15 17  1  0  0  0  0
 17 16  3  0  0  0  0
 18 23  1  0  0  0  0
 19 22  1  0  0  0  0
 20 21  1  0  0  0  0
 20 25  1  0  0  0  0
 22 21  2  0  0  0  0
 23 19  2  0  0  0  0
 23 24  1  0  0  0  0
 24 20  2  0  0  0  0
 25 26  1  0  0  0  0
 27 26  1  0  0  0  0
 28 27  1  0  0  0  0
 29 32  1  0  0  0  0
 29 28  1  0  0  0  0
 30 29  1  0  0  0  0
 31 30  1  0  0  0  0
 32 34  1  0  0  0  0
 34 38  1  6  0  0  0
 34 36  1  0  0  0  0
 36 35  1  1  0  0  0
 37 33  1  6  0  0  0
 37 34  1  0  0  0  0
 37 36  1  0  0  0  0
 39 37  1  0  0  0  0
 40 39  1  0  0  0  0
 42 41  1  0  0  0  0
 43 44  2  0  0  0  0
 43 48  1  0  0  0  0
 44 42  1  0  0  0  0
 47 50  1  0  0  0  0
 47 48  1  0  0  0  0
 48 51  2  0  0  0  0
 49 46  1  1  0  0  0
 49 53  1  0  0  0  0
 49 52  1  0  0  0  0
 52 45  1  1  0  0  0
 52 50  1  0  0  0  0
 53 47  1  0  0  0  0
 55 56  2  0  0  0  0
 56 43  1  0  0  0  0
 56 54  1  0  0  0  0
 57 62  1  1  0  0  0
 58 57  1  6  0  0  0
 58 61  1  0  0  0  0
 58 60  1  0  0  0  0
 61 59  2  0  0  0  0
 61 60  1  0  0  0  0
 62 63  1  0  0  0  0
 62 64  2  0  0  0  0
M  END
>  <MODEL>
6

>  <REMARK>
 VINA RESULT:      -4.9      3.764     12.274
  Name = 
  22 active torsions:
  status: ('A' for Active; 'I' for Inactive)
    1  A    between atoms: C_3  and  C_10
    2  A    between atoms: C_4  and  N_17
    3  A    between atoms: N_5  and  C_6
    4  A    between atoms: N_5  and  C_54
    5  A    between atoms: N_5  and  C_61
    6  A    between atoms: C_8  and  C_38
    7  A    between atoms: C_9  and  C_38
    8  A    between atoms: C_12  and  C_19
    9  A    between atoms: C_12  and  C_61
   10  A    between atoms: C_13  and  O_39
   11  A    between atoms: C_19  and  O_39
   12  A    between atoms: C_20  and  C_53
   13  A    between atoms: C_21  and  C_38
   14  A    between atoms: C_25  and  C_54
   15  A    between atoms: C_30  and  C_33
   16  A    between atoms: C_30  and  C_58
   17  A    between atoms: C_32  and  C_42
   18  A    between atoms: C_37  and  O_46
   19  A    between atoms: C_42  and  C_56
   20  A    between atoms: O_46  and  S_63
   21  A    between atoms: C_50  and  C_56
   22  A    between atoms: C_51  and  S_63
                            x       y       z     vdW  Elec       q    Type
                         _______ _______ _______ _____ _____    ______ ____

>  <TORSDO>
F 22

$$$$
=
 OpenBabel11042414503D

 64 69  0  0  1  0  0  0  0  0999 V2000
  185.6470  177.5300  141.4350 C   0  0  0  0  0  0  0  0  0  0  0  0
  185.5570  177.3880  142.7530 C   0  0  0  0  0  0  0  0  0  0  0  0
  187.3200  175.8800  140.7290 C   0  0  0  0  0  0  0  0  0  0  0  0
  187.6460  175.3050  141.8910 C   0  0  0  0  0  3  0  0  0  0  0  0
  186.6350  176.8540  143.6240 C   0  0  0  0  0  0  0  0  0  0  0  0
  184.2810  177.8900  143.3270 C   0  0  0  0  0  2  0  0  0  0  0  0
  187.5160  175.9160  143.2310 C   0  0  0  0  0  3  0  0  0  0  0  0
  183.6800  178.8230  142.2910 C   0  0  1  0  0  3  0  0  0  0  0  0
  186.9100  177.3140  140.6770 C   0  0  0  0  0  2  0  0  0  0  0  0
  184.2220  178.2550  140.6510 S   0  0  0  0  0  0  0  0  0  0  0  0
  188.6030  174.5320  138.9300 C   0  0  0  0  0  0  0  0  0  0  0  0
  187.4490  175.1820  139.4820 N   0  0  0  0  0  2  0  0  0  0  0  0
  188.5090  174.0280  137.7810 O   0  0  0  0  0  0  0  0  0  0  0  0
  189.8690  174.4300  139.6920 C   0  0  0  0  0  3  0  0  0  0  0  0
  190.5780  173.3210  139.9370 C   0  0  0  0  0  0  0  0  0  0  0  0
  189.8870  170.9720  139.0680 N   0  0  0  0  0  0  0  0  0  0  0  0
  190.1940  172.0170  139.4570 C   0  0  0  0  0  0  0  0  0  0  0  0
  191.8410  173.4400  140.7240 C   0  0  0  0  0  2  0  0  0  0  0  0
  190.6180  172.9840  142.8640 C   0  0  0  0  0  3  0  0  0  0  0  0
  192.6060  171.1780  143.6700 C   0  0  0  0  0  0  0  0  0  0  0  0
  191.4960  171.4260  144.4940 C   0  0  0  0  0  3  0  0  0  0  0  0
  190.5070  172.3260  144.0920 C   0  0  0  0  0  3  0  0  0  0  0  0
  191.7220  172.7430  142.0370 C   0  0  0  0  0  0  0  0  0  0  0  0
  192.7090  171.8370  142.4400 C   0  0  0  0  0  3  0  0  0  0  0  0
  193.6150  170.2910  144.0480 O   0  0  0  0  0  0  0  0  0  0  0  0
  194.3420  170.4260  145.2640 C   0  0  0  0  0  2  0  0  0  0  0  0
  195.6270  171.1850  145.0050 C   0  0  0  0  0  2  0  0  0  0  0  0
  195.6190  172.5030  145.7740 C   0  0  0  0  0  2  0  0  0  0  0  0
  195.9090  173.6650  144.9270 N   0  0  0  0  0  0  0  0  0  0  0  0
  197.0710  173.4150  144.0720 C   0  0  0  0  0  2  0  0  0  0  0  0
  197.7290  174.6140  143.8040 O   0  0  0  0  0  1  0  0  0  0  0  0
  194.6970  174.1130  144.2120 C   0  0  0  0  0  2  0  0  0  0  0  0
  192.4990  174.6490  146.1010 C   0  0  0  0  0  1  0  0  0  0  0  0
  194.2690  175.5740  144.4490 C   0  0  2  0  0  0  0  0  0  0  0  0
  194.8690  177.5000  145.7710 O   0  0  0  0  0  1  0  0  0  0  0  0
  194.5720  176.1360  145.8370 C   0  0  1  0  0  3  0  0  0  0  0  0
  193.1260  175.8520  145.4150 C   0  0  2  0  0  0  0  0  0  0  0  0
  194.3970  176.4830  143.3940 O   0  0  0  0  0  1  0  0  0  0  0  0
  192.2270  177.0410  145.0840 C   0  0  0  0  0  2  0  0  0  0  0  0
  191.8180  176.9880  143.6900 N   0  0  0  0  0  1  0  0  0  0  0  0
  181.8720  178.7860  142.4050 S   0  0  0  0  0  0  0  0  0  0  0  0
  181.7070  178.8110  140.6780 O   0  0  0  0  0  0  0  0  0  0  0  0
  179.4890  178.2880  139.9870 C   0  0  0  0  0  0  0  0  0  0  0  0
  180.7840  177.9750  140.0620 C   0  0  0  0  0  3  0  0  0  0  0  0
  178.9260  184.1860  139.0400 N   0  0  0  0  0  1  0  0  0  0  0  0
  179.9190  182.4910  137.2620 O   0  0  0  0  0  1  0  0  0  0  0  0
  178.8680  180.7260  139.6760 N   0  0  0  0  0  0  0  0  0  0  0  0
  178.9940  179.5740  140.5210 C   0  0  0  0  0  0  0  0  0  0  0  0
  178.6750  182.0820  137.7490 C   0  0  2  0  0  3  0  0  0  0  0  0
  178.6270  182.0580  140.1930 C   0  0  0  0  0  2  0  0  0  0  0  0
  178.6790  179.6560  141.7390 O   0  0  0  0  0  0  0  0  0  0  0  0
  178.2620  182.8940  138.9830 C   0  0  1  0  0  3  0  0  0  0  0  0
  178.7910  180.6500  138.2310 C   0  0  0  0  0  2  0  0  0  0  0  0
  178.2870  177.3880  138.0060 O   0  0  0  0  0  0  0  0  0  0  0  0
  177.9890  176.4440  140.0680 O   0  0  0  0  0  1  0  0  0  0  0  0
  178.5550  177.3270  139.3680 C   0  0  0  0  0  0  0  0  0  0  0  0
  186.6630  177.3210  145.0570 C   0  0  2  0  0  3  0  0  0  0  0  0
  186.1570  178.7510  145.2180 C   0  0  1  0  0  3  0  0  0  0  0  0
  186.5170  179.3340  147.7150 N   0  0  0  0  0  2  0  0  0  0  0  0
  184.8610  178.7460  145.6640 O   0  0  0  0  0  0  0  0  0  0  0  0
  186.0250  179.0430  146.5590 C   0  0  0  0  0  0  0  0  0  0  0  0
  188.0060  177.1180  145.6990 C   0  0  0  0  0  0  0  0  0  0  0  0
  188.1950  176.0060  146.6700 C   0  0  0  0  0  1  0  0  0  0  0  0
  188.9460  177.8470  145.4280 O   0  0  0  0  0  0  0  0  0  0  0  0
  1  2  2  0  0  0  0
  2  6  1  0  0  0  0
  2  5  1  0  0  0  0
  3  4  2  0  0  0  0
  4  7  1  0  0  0  0
  5 57  1  0  0  0  0
  7  5  2  0  0  0  0
  8 41  1  6  0  0  0
  8  6  1  0  0  0  0
  9  3  1  0  0  0  0
  9  1  1  0  0  0  0
 10  1  1  0  0  0  0
 10  8  1  0  0  0  0
 11 12  1  0  0  0  0
 11 14  1  0  0  0  0
 12  3  1  0  0  0  0
 13 11  2  0  0  0  0
 14 15  2  0  0  0  0
 15 18  1  0  0  0  0
 16 17  3  0  0  0  0
 17 15  1  0  0  0  0
 18 23  1  0  0  0  0
 19 22  1  0  0  0  0
 20 25  1  0  0  0  0
 20 21  1  0  0  0  0
 22 21  2  0  0  0  0
 23 24  1  0  0  0  0
 23 19  2  0  0  0  0
 24 20  2  0  0  0  0
 25 26  1  0  0  0  0
 27 26  1  0  0  0  0
 27 28  1  0  0  0  0
 29 28  1  0  0  0  0
 30 29  1  0  0  0  0
 31 30  1  0  0  0  0
 32 34  1  0  0  0  0
 32 29  1  0  0  0  0
 34 38  1  6  0  0  0
 34 37  1  0  0  0  0
 34 36  1  0  0  0  0
 36 35  1  6  0  0  0
 37 36  1  0  0  0  0
 37 33  1  1  0  0  0
 39 37  1  0  0  0  0
 40 39  1  0  0  0  0
 42 41  1  0  0  0  0
 43 44  2  0  0  0  0
 43 48  1  0  0  0  0
 44 42  1  0  0  0  0
 47 50  1  0  0  0  0
 47 48  1  0  0  0  0
 48 51  2  0  0  0  0
 49 46  1  1  0  0  0
 49 53  1  0  0  0  0
 49 52  1  0  0  0  0
 52 45  1  1  0  0  0
 52 50  1  0  0  0  0
 53 47  1  0  0  0  0
 54 56  2  0  0  0  0
 56 43  1  0  0  0  0
 56 55  1  0  0  0  0
 57 62  1  6  0  0  0
 58 57  1  1  0  0  0
 58 60  1  0  0  0  0
 58 61  1  0  0  0  0
 60 61  1  0  0  0  0
 61 59  2  0  0  0  0
 62 63  1  0  0  0  0
 64 62  2  0  0  0  0
M  END
>  <MODEL>
7

>  <REMARK>
 VINA RESULT:      -4.9      3.528     11.820
  Name = 
  22 active torsions:
  status: ('A' for Active; 'I' for Inactive)
    1  A    between atoms: C_3  and  C_10
    2  A    between atoms: C_4  and  N_17
    3  A    between atoms: N_5  and  C_6
    4  A    between atoms: N_5  and  C_54
    5  A    between atoms: N_5  and  C_61
    6  A    between atoms: C_8  and  C_38
    7  A    between atoms: C_9  and  C_38
    8  A    between atoms: C_12  and  C_19
    9  A    between atoms: C_12  and  C_61
   10  A    between atoms: C_13  and  O_39
   11  A    between atoms: C_19  and  O_39
   12  A    between atoms: C_20  and  C_53
   13  A    between atoms: C_21  and  C_38
   14  A    between atoms: C_25  and  C_54
   15  A    between atoms: C_30  and  C_33
   16  A    between atoms: C_30  and  C_58
   17  A    between atoms: C_32  and  C_42
   18  A    between atoms: C_37  and  O_46
   19  A    between atoms: C_42  and  C_56
   20  A    between atoms: O_46  and  S_63
   21  A    between atoms: C_50  and  C_56
   22  A    between atoms: C_51  and  S_63
                            x       y       z     vdW  Elec       q    Type
                         _______ _______ _______ _____ _____    ______ ____

>  <TORSDO>
F 22

$$$$
=
 OpenBabel11042414503D

 64 69  0  0  1  0  0  0  0  0999 V2000
  191.1370  174.5990  141.5650 C   0  0  0  0  0  0  0  0  0  0  0  0
  190.5410  174.0130  140.5320 C   0  0  0  0  0  0  0  0  0  0  0  0
  193.4290  175.0420  140.8090 C   0  0  0  0  0  0  0  0  0  0  0  0
  193.4020  174.5700  139.5590 C   0  0  0  0  0  3  0  0  0  0  0  0
  191.2410  173.2480  139.4700 C   0  0  0  0  0  0  0  0  0  0  0  0
  189.0580  174.1190  140.5560 C   0  0  0  0  0  2  0  0  0  0  0  0
  192.4840  173.5350  139.0390 C   0  0  0  0  0  3  0  0  0  0  0  0
  188.6720  174.4590  141.9840 C   0  0  1  0  0  3  0  0  0  0  0  0
  192.5840  174.4270  141.8740 C   0  0  0  0  0  2  0  0  0  0  0  0
  190.0440  175.3980  142.7210 S   0  0  0  0  0  0  0  0  0  0  0  0
  195.7370  176.2100  140.9050 C   0  0  0  0  0  0  0  0  0  0  0  0
  194.3390  176.0800  141.2030 N   0  0  0  0  0  2  0  0  0  0  0  0
  196.3640  177.1790  141.4070 O   0  0  0  0  0  0  0  0  0  0  0  0
  196.4300  175.2510  140.0150 C   0  0  0  0  0  3  0  0  0  0  0  0
  197.2840  174.2850  140.3750 C   0  0  0  0  0  0  0  0  0  0  0  0
  197.9400  173.8210  142.8450 N   0  0  0  0  0  0  0  0  0  0  0  0
  197.6490  174.0260  141.7450 C   0  0  0  0  0  0  0  0  0  0  0  0
  197.8690  173.4160  139.3120 C   0  0  0  0  0  2  0  0  0  0  0  0
  196.6620  171.8590  137.7610 C   0  0  0  0  0  3  0  0  0  0  0  0
  195.7700  170.3180  139.9270 C   0  0  0  0  0  0  0  0  0  0  0  0
  195.4200  169.9650  138.6130 C   0  0  0  0  0  3  0  0  0  0  0  0
  195.8650  170.7340  137.5350 C   0  0  0  0  0  3  0  0  0  0  0  0
  197.0140  172.2180  139.0680 C   0  0  0  0  0  0  0  0  0  0  0  0
  196.5710  171.4440  140.1450 C   0  0  0  0  0  3  0  0  0  0  0  0
  195.3330  169.5760  141.0250 O   0  0  0  0  0  0  0  0  0  0  0  0
  196.2090  169.1410  142.0580 C   0  0  0  0  0  2  0  0  0  0  0  0
  196.2540  170.1820  143.1570 C   0  0  0  0  0  2  0  0  0  0  0  0
  194.9800  170.1130  143.9950 C   0  0  0  0  0  2  0  0  0  0  0  0
  194.2640  171.3920  144.0610 N   0  0  0  0  0  0  0  0  0  0  0  0
  192.8460  171.2170  143.7440 C   0  0  0  0  0  2  0  0  0  0  0  0
  192.6750  170.0870  142.9450 O   0  0  0  0  0  1  0  0  0  0  0  0
  194.5340  172.0830  145.3380 C   0  0  0  0  0  2  0  0  0  0  0  0
  196.4810  174.1250  146.1880 C   0  0  0  0  0  1  0  0  0  0  0  0
  194.0700  173.5480  145.4290 C   0  0  2  0  0  0  0  0  0  0  0  0
  193.7690  175.4970  144.0390 O   0  0  0  0  0  1  0  0  0  0  0  0
  194.6800  174.5010  144.4010 C   0  0  1  0  0  3  0  0  0  0  0  0
  195.0710  174.6040  145.8800 C   0  0  2  0  0  0  0  0  0  0  0  0
  192.7380  173.8040  145.7660 O   0  0  0  0  0  1  0  0  0  0  0  0
  194.5120  175.7700  146.6920 C   0  0  0  0  0  2  0  0  0  0  0  0
  194.9350  177.0340  146.1100 N   0  0  0  0  0  1  0  0  0  0  0  0
  187.1550  175.4490  141.9920 S   0  0  0  0  0  0  0  0  0  0  0  0
  187.9300  176.7320  142.8670 O   0  0  0  0  0  0  0  0  0  0  0  0
  186.6830  177.9960  144.4530 C   0  0  0  0  0  0  0  0  0  0  0  0
  187.2000  177.8570  143.2310 C   0  0  0  0  0  3  0  0  0  0  0  0
  190.7630  174.8940  147.5720 N   0  0  0  0  0  1  0  0  0  0  0  0
  191.3640  176.8330  145.8690 O   0  0  0  0  0  1  0  0  0  0  0  0
  188.2020  176.7990  146.0910 N   0  0  0  0  0  0  0  0  0  0  0  0
  186.9110  176.9670  145.4890 C   0  0  0  0  0  0  0  0  0  0  0  0
  190.4120  177.2300  146.8120 C   0  0  2  0  0  3  0  0  0  0  0  0
  188.5410  175.6600  146.9200 C   0  0  0  0  0  2  0  0  0  0  0  0
  185.9560  176.2260  145.8450 O   0  0  0  0  0  0  0  0  0  0  0  0
  189.8530  176.0280  147.5840 C   0  0  1  0  0  3  0  0  0  0  0  0
  189.2250  177.8250  146.0810 C   0  0  0  0  0  2  0  0  0  0  0  0
  185.6950  180.1810  143.7950 O   0  0  0  0  0  0  0  0  0  0  0  0
  185.3270  179.3270  145.8840 O   0  0  0  0  0  1  0  0  0  0  0  0
  185.8700  179.1900  144.7540 C   0  0  0  0  0  0  0  0  0  0  0  0
  190.4650  172.1600  138.7740 C   0  0  2  0  0  3  0  0  0  0  0  0
  191.3360  170.9640  138.4000 C   0  0  1  0  0  3  0  0  0  0  0  0
  189.6830  169.0340  137.9040 N   0  0  0  0  0  2  0  0  0  0  0  0
  191.5450  170.1710  139.4970 O   0  0  0  0  0  0  0  0  0  0  0  0
  190.5720  169.8170  138.4150 C   0  0  0  0  0  0  0  0  0  0  0  0
  189.6770  172.6770  137.6040 C   0  0  0  0  0  0  0  0  0  0  0  0
  190.3730  173.4230  136.5210 C   0  0  0  0  0  1  0  0  0  0  0  0
  188.4740  172.4840  137.5260 O   0  0  0  0  0  0  0  0  0  0  0  0
  1  9  1  0  0  0  0
  1 10  1  0  0  0  0
  2  6  1  0  0  0  0
  2  1  2  0  0  0  0
  3 12  1  0  0  0  0
  3  9  1  0  0  0  0
  4  3  2  0  0  0  0
  5  2  1  0  0  0  0
  6  8  1  0  0  0  0
  7  5  2  0  0  0  0
  7  4  1  0  0  0  0
  8 41  1  6  0  0  0
  8 10  1  0  0  0  0
 11 12  1  0  0  0  0
 11 13  2  0  0  0  0
 14 15  2  0  0  0  0
 14 11  1  0  0  0  0
 15 17  1  0  0  0  0
 17 16  3  0  0  0  0
 18 15  1  0  0  0  0
 19 23  1  0  0  0  0
 20 24  1  0  0  0  0
 20 25  1  0  0  0  0
 21 20  2  0  0  0  0
 22 19  2  0  0  0  0
 22 21  1  0  0  0  0
 23 18  1  0  0  0  0
 23 24  2  0  0  0  0
 25 26  1  0  0  0  0
 26 27  1  0  0  0  0
 27 28  1  0  0  0  0
 28 29  1  0  0  0  0
 29 32  1  0  0  0  0
 30 29  1  0  0  0  0
 31 30  1  0  0  0  0
 32 34  1  0  0  0  0
 34 38  1  1  0  0  0
 34 37  1  0  0  0  0
 36 35  1  1  0  0  0
 36 34  1  0  0  0  0
 36 37  1  0  0  0  0
 37 33  1  1  0  0  0
 37 39  1  0  0  0  0
 40 39  1  0  0  0  0
 41 42  1  0  0  0  0
 42 44  1  0  0  0  0
 43 56  1  0  0  0  0
 43 48  1  0  0  0  0
 44 43  2  0  0  0  0
 47 50  1  0  0  0  0
 48 51  2  0  0  0  0
 48 47  1  0  0  0  0
 49 46  1  6  0  0  0
 49 52  1  0  0  0  0
 50 52  1  0  0  0  0
 52 45  1  6  0  0  0
 53 47  1  0  0  0  0
 53 49  1  0  0  0  0
 54 56  2  0  0  0  0
 56 55  1  0  0  0  0
 57 62  1  6  0  0  0
 57  5  1  0  0  0  0
 58 61  1  0  0  0  0
 58 57  1  1  0  0  0
 58 60  1  0  0  0  0
 59 61  2  0  0  0  0
 61 60  1  0  0  0  0
 63 62  1  0  0  0  0
 64 62  2  0  0  0  0
M  END
>  <MODEL>
8

>  <REMARK>
 VINA RESULT:      -4.7      2.578      9.869
  Name = 
  22 active torsions:
  status: ('A' for Active; 'I' for Inactive)
    1  A    between atoms: C_3  and  C_10
    2  A    between atoms: C_4  and  N_17
    3  A    between atoms: N_5  and  C_6
    4  A    between atoms: N_5  and  C_54
    5  A    between atoms: N_5  and  C_61
    6  A    between atoms: C_8  and  C_38
    7  A    between atoms: C_9  and  C_38
    8  A    between atoms: C_12  and  C_19
    9  A    between atoms: C_12  and  C_61
   10  A    between atoms: C_13  and  O_39
   11  A    between atoms: C_19  and  O_39
   12  A    between atoms: C_20  and  C_53
   13  A    between atoms: C_21  and  C_38
   14  A    between atoms: C_25  and  C_54
   15  A    between atoms: C_30  and  C_33
   16  A    between atoms: C_30  and  C_58
   17  A    between atoms: C_32  and  C_42
   18  A    between atoms: C_37  and  O_46
   19  A    between atoms: C_42  and  C_56
   20  A    between atoms: O_46  and  S_63
   21  A    between atoms: C_50  and  C_56
   22  A    between atoms: C_51  and  S_63
                            x       y       z     vdW  Elec       q    Type
                         _______ _______ _______ _____ _____    ______ ____

>  <TORSDO>
F 22

$$$$
=
 OpenBabel11042414503D

 64 69  0  0  1  0  0  0  0  0999 V2000
  193.8450  171.3630  141.7880 C   0  0  0  0  0  0  0  0  0  0  0  0
  194.4980  170.2440  142.0800 C   0  0  0  0  0  0  0  0  0  0  0  0
  195.2680  173.1720  142.6370 C   0  0  0  0  0  0  0  0  0  0  0  0
  196.3040  172.4930  143.1410 C   0  0  0  0  0  3  0  0  0  0  0  0
  195.4780  170.0980  143.1860 C   0  0  0  0  0  0  0  0  0  0  0  0
  194.1110  169.0830  141.2350 C   0  0  0  0  0  2  0  0  0  0  0  0
  196.2810  171.0910  143.6090 C   0  0  0  0  0  3  0  0  0  0  0  0
  192.7660  169.4290  140.6200 C   0  0  1  0  0  3  0  0  0  0  0  0
  193.8970  172.5840  142.6400 C   0  0  0  0  0  2  0  0  0  0  0  0
  192.6830  171.2360  140.4440 S   0  0  0  0  0  0  0  0  0  0  0  0
  195.2290  175.7470  142.9020 C   0  0  0  0  0  0  0  0  0  0  0  0
  195.4080  174.5230  142.1740 N   0  0  0  0  0  2  0  0  0  0  0  0
  195.3440  176.8330  142.2770 O   0  0  0  0  0  0  0  0  0  0  0  0
  194.9400  175.7460  144.3550 C   0  0  0  0  0  3  0  0  0  0  0  0
  193.9200  176.3520  144.9770 C   0  0  0  0  0  0  0  0  0  0  0  0
  192.1030  177.7200  143.7210 N   0  0  0  0  0  0  0  0  0  0  0  0
  192.9110  177.1090  144.2810 C   0  0  0  0  0  0  0  0  0  0  0  0
  193.8070  176.2170  146.4590 C   0  0  0  0  0  2  0  0  0  0  0  0
  191.7900  176.4830  147.9230 C   0  0  0  0  0  3  0  0  0  0  0  0
  190.4500  174.4560  146.5260 C   0  0  0  0  0  0  0  0  0  0  0  0
  189.8220  175.1140  147.5960 C   0  0  0  0  0  3  0  0  0  0  0  0
  190.4910  176.1240  148.2920 C   0  0  0  0  0  3  0  0  0  0  0  0
  192.4220  175.8310  146.8580 C   0  0  0  0  0  0  0  0  0  0  0  0
  191.7480  174.8240  146.1600 C   0  0  0  0  0  3  0  0  0  0  0  0
  189.8100  173.4370  145.8170 O   0  0  0  0  0  0  0  0  0  0  0  0
  190.1690  173.0810  144.4870 C   0  0  0  0  0  2  0  0  0  0  0  0
  189.2660  171.9670  143.9990 C   0  0  0  0  0  2  0  0  0  0  0  0
  188.7590  172.2830  142.5950 C   0  0  0  0  0  2  0  0  0  0  0  0
  188.9040  173.6980  142.2350 N   0  0  0  0  0  0  0  0  0  0  0  0
  189.5390  173.8440  140.9240 C   0  0  0  0  0  2  0  0  0  0  0  0
  188.6990  173.3380  139.9320 O   0  0  0  0  0  1  0  0  0  0  0  0
  187.6230  174.4150  142.3880 C   0  0  0  0  0  2  0  0  0  0  0  0
  187.5730  176.1610  144.7620 C   0  0  0  0  0  1  0  0  0  0  0  0
  187.6680  175.9400  142.1810 C   0  0  2  0  0  0  0  0  0  0  0  0
  189.2510  177.7260  141.8320 O   0  0  0  0  0  1  0  0  0  0  0  0
  188.9470  176.6340  142.6490 C   0  0  1  0  0  3  0  0  0  0  0  0
  187.6300  176.8440  143.4050 C   0  0  2  0  0  0  0  0  0  0  0  0
  187.0870  176.4710  141.0260 O   0  0  0  0  0  1  0  0  0  0  0  0
  186.9140  178.1830  143.2420 C   0  0  0  0  0  2  0  0  0  0  0  0
  186.1650  178.5010  144.4470 N   0  0  0  0  0  1  0  0  0  0  0  0
  192.6090  168.6300  139.0010 S   0  0  0  0  0  0  0  0  0  0  0  0
  193.3530  169.9790  138.2010 O   0  0  0  0  0  0  0  0  0  0  0  0
  195.3290  170.7300  137.1070 C   0  0  0  0  0  0  0  0  0  0  0  0
  194.4420  169.7680  137.3640 C   0  0  0  0  0  3  0  0  0  0  0  0
  192.9650  176.2330  136.7630 N   0  0  0  0  0  1  0  0  0  0  0  0
  192.4370  174.2870  135.0440 O   0  0  0  0  0  1  0  0  0  0  0  0
  194.2060  172.9910  137.3330 N   0  0  0  0  0  0  0  0  0  0  0  0
  195.2100  172.0560  137.7500 C   0  0  0  0  0  0  0  0  0  0  0  0
  192.2430  173.8920  136.3710 C   0  0  2  0  0  3  0  0  0  0  0  0
  194.2010  174.3780  137.7510 C   0  0  0  0  0  2  0  0  0  0  0  0
  196.0070  172.3670  138.6750 O   0  0  0  0  0  0  0  0  0  0  0  0
  192.8400  174.9100  137.3510 C   0  0  1  0  0  3  0  0  0  0  0  0
  193.0110  172.6070  136.6100 C   0  0  0  0  0  2  0  0  0  0  0  0
  197.3350  169.4310  136.4210 O   0  0  0  0  0  1  0  0  0  0  0  0
  196.5640  171.1440  135.1160 O   0  0  0  0  0  0  0  0  0  0  0  0
  196.4310  170.4550  136.1640 C   0  0  0  0  0  0  0  0  0  0  0  0
  195.6430  168.7260  143.7880 C   0  0  2  0  0  3  0  0  0  0  0  0
  194.7470  168.5060  145.0040 C   0  0  1  0  0  3  0  0  0  0  0  0
  192.3410  168.3200  144.0640 N   0  0  0  0  0  2  0  0  0  0  0  0
  194.2240  169.7000  145.4260 O   0  0  0  0  0  0  0  0  0  0  0  0
  193.4300  168.6980  144.6440 C   0  0  0  0  0  0  0  0  0  0  0  0
  197.0800  168.3940  144.0740 C   0  0  0  0  0  0  0  0  0  0  0  0
  197.5250  168.2070  145.4810 C   0  0  0  0  0  1  0  0  0  0  0  0
  197.8850  168.2680  143.1650 O   0  0  0  0  0  0  0  0  0  0  0  0
  1  2  2  0  0  0  0
  1  9  1  0  0  0  0
  2  5  1  0  0  0  0
  3  9  1  0  0  0  0
  3  4  2  0  0  0  0
  4  7  1  0  0  0  0
  5  7  2  0  0  0  0
  5 57  1  0  0  0  0
  6  2  1  0  0  0  0
  8 41  1  6  0  0  0
  8  6  1  0  0  0  0
 10  8  1  0  0  0  0
 10  1  1  0  0  0  0
 11 14  1  0  0  0  0
 12  3  1  0  0  0  0
 12 11  1  0  0  0  0
 13 11  2  0  0  0  0
 14 15  2  0  0  0  0
 15 18  1  0  0  0  0
 16 17  3  0  0  0  0
 17 15  1  0  0  0  0
 18 23  1  0  0  0  0
 19 22  1  0  0  0  0
 20 21  1  0  0  0  0
 21 22  2  0  0  0  0
 23 19  2  0  0  0  0
 24 20  2  0  0  0  0
 24 23  1  0  0  0  0
 25 20  1  0  0  0  0
 26 25  1  0  0  0  0
 27 26  1  0  0  0  0
 28 27  1  0  0  0  0
 29 32  1  0  0  0  0
 29 28  1  0  0  0  0
 30 29  1  0  0  0  0
 31 30  1  0  0  0  0
 34 38  1  6  0  0  0
 34 32  1  0  0  0  0
 34 36  1  0  0  0  0
 34 37  1  0  0  0  0
 36 35  1  6  0  0  0
 36 37  1  0  0  0  0
 37 33  1  1  0  0  0
 39 37  1  0  0  0  0
 39 40  1  0  0  0  0
 42 41  1  0  0  0  0
 43 44  2  0  0  0  0
 43 48  1  0  0  0  0
 44 42  1  0  0  0  0
 47 48  1  0  0  0  0
 47 50  1  0  0  0  0
 48 51  2  0  0  0  0
 49 46  1  6  0  0  0
 49 53  1  0  0  0  0
 49 52  1  0  0  0  0
 52 45  1  6  0  0  0
 52 50  1  0  0  0  0
 53 47  1  0  0  0  0
 55 56  2  0  0  0  0
 56 54  1  0  0  0  0
 56 43  1  0  0  0  0
 57 62  1  1  0  0  0
 58 57  1  6  0  0  0
 58 60  1  0  0  0  0
 59 61  2  0  0  0  0
 61 58  1  0  0  0  0
 61 60  1  0  0  0  0
 62 63  1  0  0  0  0
 64 62  2  0  0  0  0
M  END
>  <MODEL>
9

>  <REMARK>
 VINA RESULT:      -4.6      3.063      5.333
  Name = 
  22 active torsions:
  status: ('A' for Active; 'I' for Inactive)
    1  A    between atoms: C_3  and  C_10
    2  A    between atoms: C_4  and  N_17
    3  A    between atoms: N_5  and  C_6
    4  A    between atoms: N_5  and  C_54
    5  A    between atoms: N_5  and  C_61
    6  A    between atoms: C_8  and  C_38
    7  A    between atoms: C_9  and  C_38
    8  A    between atoms: C_12  and  C_19
    9  A    between atoms: C_12  and  C_61
   10  A    between atoms: C_13  and  O_39
   11  A    between atoms: C_19  and  O_39
   12  A    between atoms: C_20  and  C_53
   13  A    between atoms: C_21  and  C_38
   14  A    between atoms: C_25  and  C_54
   15  A    between atoms: C_30  and  C_33
   16  A    between atoms: C_30  and  C_58
   17  A    between atoms: C_32  and  C_42
   18  A    between atoms: C_37  and  O_46
   19  A    between atoms: C_42  and  C_56
   20  A    between atoms: O_46  and  S_63
   21  A    between atoms: C_50  and  C_56
   22  A    between atoms: C_51  and  S_63
                            x       y       z     vdW  Elec       q    Type
                         _______ _______ _______ _____ _____    ______ ____

>  <TORSDO>
F 22

$$$$
