=
 OpenBabel11042414223D

 27 28  0  0  1  0  0  0  0  0999 V2000
  183.7940  178.2760  146.5180 O   0  0  0  0  0  0  0  0  0  0  0  0
  187.7760  177.5620  144.8980 C   0  0  2  0  0  3  0  0  0  0  0  0
  187.9560  177.4150  146.3850 C   0  0  0  0  0  0  0  0  0  0  0  0
  191.1460  176.3730  147.8890 O   0  0  0  0  0  1  0  0  0  0  0  0
  185.5470  178.7660  145.0280 C   0  0  0  0  0  3  0  0  0  0  0  0
  189.3340  177.5640  146.9380 C   0  0  0  0  0  2  0  0  0  0  0  0
  184.9320  177.9490  146.0910 C   0  0  0  0  0  0  0  0  0  0  0  0
  186.7730  178.6130  144.5150 C   0  0  0  0  0  3  0  0  0  0  0  0
  187.4700  176.3260  144.3150 O   0  0  0  0  0  0  0  0  0  0  0  0
  188.6990  175.8030  143.8870 C   0  0  1  0  0  3  0  0  0  0  0  0
  186.9560  177.0260  147.1890 C   0  0  0  0  0  3  0  0  0  0  0  0
  190.4610  175.6760  145.6700 C   0  0  1  0  0  3  0  0  0  0  0  0
  189.3090  174.9390  144.9830 C   0  0  0  0  0  2  0  0  0  0  0  0
  190.0370  176.2120  147.0540 C   0  0  1  0  0  3  0  0  0  0  0  0
  185.5840  176.7300  146.6650 C   0  0  0  0  0  2  0  0  0  0  0  0
  191.7060  174.7800  145.7390 C   0  0  1  0  0  3  0  0  0  0  0  0
  191.4790  173.5590  145.0980 O   0  0  0  0  0  1  0  0  0  0  0  0
  192.9290  175.4610  145.1350 C   0  0  0  0  0  2  0  0  0  0  0  0
  192.6100  176.4730  142.9930 O   0  0  0  0  0  1  0  0  0  0  0  0
  192.5350  176.7130  144.3670 C   0  0  0  0  0  2  0  0  0  0  0  0
  188.4940  174.9510  142.6450 C   0  0  0  0  0  2  0  0  0  0  0  0
  187.8010  175.7450  141.5490 C   0  0  0  0  0  2  0  0  0  0  0  0
  188.3590  177.0210  141.4570 O   0  0  0  0  0  0  0  0  0  0  0  0
  187.3780  177.7900  140.8330 C   0  0  0  0  0  2  0  0  0  0  0  0
  186.0100  177.3080  141.2650 C   0  0  0  0  0  2  0  0  0  0  0  0
  184.9660  178.3380  140.8910 C   0  0  0  0  0  2  0  0  0  0  0  0
  183.7650  178.1880  141.8020 C   0  0  0  0  0  1  0  0  0  0  0  0
  2  8  1  1  0  0  0
  2  3  1  0  0  0  0
  3  6  1  0  0  0  0
  3 11  2  0  0  0  0
  5  7  1  0  0  0  0
  6 14  1  0  0  0  0
  7  1  2  0  0  0  0
  7 15  1  0  0  0  0
  8  5  2  0  0  0  0
  9  2  1  0  0  0  0
 10 21  1  6  0  0  0
 10  9  1  0  0  0  0
 10 13  1  0  0  0  0
 12 16  1  1  0  0  0
 12 14  1  0  0  0  0
 13 12  1  0  0  0  0
 14  4  1  1  0  0  0
 15 11  1  0  0  0  0
 16 17  1  6  0  0  0
 18 16  1  0  0  0  0
 19 20  1  0  0  0  0
 20 18  1  0  0  0  0
 22 21  1  0  0  0  0
 23 22  1  0  0  0  0
 24 25  1  0  0  0  0
 24 23  1  0  0  0  0
 26 25  1  0  0  0  0
 26 27  1  0  0  0  0
M  END
>  <MODEL>
1

>  <REMARK>
 VINA RESULT:      -6.3      0.000      0.000
  Name = 
  9 active torsions:
  status: ('A' for Active; 'I' for Inactive)
    1  A    between atoms: C_3  and  C_27
    2  A    between atoms: O_4  and  C_7
    3  A    between atoms: O_4  and  C_21
    4  A    between atoms: C_7  and  C_27
    5  A    between atoms: C_15  and  C_22
    6  A    between atoms: C_15  and  C_24
    7  A    between atoms: C_16  and  C_17
    8  A    between atoms: C_16  and  C_21
    9  A    between atoms: C_20  and  C_24
                            x       y       z     vdW  Elec       q    Type
                         _______ _______ _______ _____ _____    ______ ____

>  <TORSDO>
F 9

$$$$
=
 OpenBabel11042414223D

 27 28  0  0  1  0  0  0  0  0999 V2000
  185.1260  178.7180  140.8030 O   0  0  0  0  0  0  0  0  0  0  0  0
  187.4820  176.3700  143.6180 C   0  0  2  0  0  3  0  0  0  0  0  0
  188.3900  176.5330  142.4290 C   0  0  0  0  0  0  0  0  0  0  0  0
  191.8640  175.3280  142.4270 O   0  0  0  0  0  1  0  0  0  0  0  0
  185.3490  177.0040  142.3980 C   0  0  0  0  0  3  0  0  0  0  0  0
  189.5140  175.5630  142.2740 C   0  0  0  0  0  2  0  0  0  0  0  0
  185.8840  178.1410  141.6250 C   0  0  0  0  0  0  0  0  0  0  0  0
  186.0310  176.2310  143.2510 C   0  0  0  0  0  3  0  0  0  0  0  0
  187.6800  177.4100  144.5350 O   0  0  0  0  0  0  0  0  0  0  0  0
  188.6090  176.9150  145.4620 C   0  0  1  0  0  3  0  0  0  0  0  0
  188.3010  177.5840  141.6020 C   0  0  0  0  0  3  0  0  0  0  0  0
  190.7300  176.0340  144.4500 C   0  0  1  0  0  3  0  0  0  0  0  0
  190.0240  177.2660  145.0220 C   0  0  0  0  0  2  0  0  0  0  0  0
  190.7990  176.0920  142.9090 C   0  0  1  0  0  3  0  0  0  0  0  0
  187.2770  178.6610  141.7930 C   0  0  0  0  0  2  0  0  0  0  0  0
  192.1130  175.8600  145.0980 C   0  0  1  0  0  3  0  0  0  0  0  0
  192.8480  177.0460  145.0310 O   0  0  0  0  0  1  0  0  0  0  0  0
  192.0060  175.3990  146.5460 C   0  0  0  0  0  2  0  0  0  0  0  0
  191.4380  176.9550  148.2690 O   0  0  0  0  0  1  0  0  0  0  0  0
  192.5000  176.4740  147.5020 C   0  0  0  0  0  2  0  0  0  0  0  0
  188.3520  177.5280  146.8290 C   0  0  0  0  0  2  0  0  0  0  0  0
  186.9800  177.1340  147.3520 C   0  0  0  0  0  2  0  0  0  0  0  0
  186.4330  178.1790  148.0970 O   0  0  0  0  0  0  0  0  0  0  0  0
  185.7550  178.9600  147.1620 C   0  0  0  0  0  2  0  0  0  0  0  0
  184.6180  178.1580  146.5660 C   0  0  0  0  0  2  0  0  0  0  0  0
  184.1020  178.8520  145.3240 C   0  0  0  0  0  2  0  0  0  0  0  0
  185.1690  179.7880  144.7930 C   0  0  0  0  0  1  0  0  0  0  0  0
  1  7  2  0  0  0  0
  2  8  1  6  0  0  0
  2  9  1  0  0  0  0
  3  2  1  0  0  0  0
  5  8  2  0  0  0  0
  6  3  1  0  0  0  0
  6 14  1  0  0  0  0
  7 15  1  0  0  0  0
  7  5  1  0  0  0  0
  9 10  1  0  0  0  0
 10 21  1  1  0  0  0
 11 15  1  0  0  0  0
 11  3  2  0  0  0  0
 12 13  1  0  0  0  0
 12 16  1  1  0  0  0
 13 10  1  0  0  0  0
 14  4  1  6  0  0  0
 14 12  1  0  0  0  0
 16 17  1  1  0  0  0
 16 18  1  0  0  0  0
 18 20  1  0  0  0  0
 20 19  1  0  0  0  0
 21 22  1  0  0  0  0
 22 23  1  0  0  0  0
 24 23  1  0  0  0  0
 25 24  1  0  0  0  0
 26 25  1  0  0  0  0
 27 26  1  0  0  0  0
M  END
>  <MODEL>
2

>  <REMARK>
 VINA RESULT:      -6.3      1.665      4.393
  Name = 
  9 active torsions:
  status: ('A' for Active; 'I' for Inactive)
    1  A    between atoms: C_3  and  C_27
    2  A    between atoms: O_4  and  C_7
    3  A    between atoms: O_4  and  C_21
    4  A    between atoms: C_7  and  C_27
    5  A    between atoms: C_15  and  C_22
    6  A    between atoms: C_15  and  C_24
    7  A    between atoms: C_16  and  C_17
    8  A    between atoms: C_16  and  C_21
    9  A    between atoms: C_20  and  C_24
                            x       y       z     vdW  Elec       q    Type
                         _______ _______ _______ _____ _____    ______ ____

>  <TORSDO>
F 9

$$$$
=
 OpenBabel11042414223D

 27 28  0  0  1  0  0  0  0  0999 V2000
  190.7210  172.3970  141.6890 O   0  0  0  0  0  0  0  0  0  0  0  0
  189.2770  176.2130  143.2200 C   0  0  2  0  0  3  0  0  0  0  0  0
  188.5130  176.0210  141.9380 C   0  0  0  0  0  0  0  0  0  0  0  0
  185.8760  178.3440  140.8530 O   0  0  0  0  0  1  0  0  0  0  0  0
  191.0660  174.4870  142.7100 C   0  0  0  0  0  3  0  0  0  0  0  0
  187.9180  177.2300  141.2950 C   0  0  0  0  0  2  0  0  0  0  0  0
  190.1910  173.4410  142.1470 C   0  0  0  0  0  0  0  0  0  0  0  0
  190.6840  175.6860  143.1650 C   0  0  0  0  0  3  0  0  0  0  0  0
  188.5700  175.6700  144.3000 O   0  0  0  0  0  0  0  0  0  0  0  0
  187.8410  176.7400  144.8400 C   0  0  1  0  0  3  0  0  0  0  0  0
  188.2410  174.8050  141.4440 C   0  0  0  0  0  3  0  0  0  0  0  0
  186.3960  177.9600  143.1900 C   0  0  1  0  0  3  0  0  0  0  0  0
  186.4620  176.8090  144.1960 C   0  0  0  0  0  2  0  0  0  0  0  0
  186.4710  177.4410  141.7380 C   0  0  1  0  0  3  0  0  0  0  0  0
  188.6990  173.5510  142.1240 C   0  0  0  0  0  2  0  0  0  0  0  0
  185.1530  178.8260  143.4450 C   0  0  1  0  0  3  0  0  0  0  0  0
  183.9830  178.0800  143.2820 O   0  0  0  0  0  1  0  0  0  0  0  0
  185.1750  179.4540  144.8330 C   0  0  0  0  0  2  0  0  0  0  0  0
  184.4960  178.3970  146.8670 O   0  0  0  0  0  1  0  0  0  0  0  0
  184.0150  178.9550  145.6810 C   0  0  0  0  0  2  0  0  0  0  0  0
  187.6760  176.5490  146.3390 C   0  0  0  0  0  2  0  0  0  0  0  0
  188.9750  176.0820  146.9740 C   0  0  0  0  0  2  0  0  0  0  0  0
  189.7880  177.1790  147.2630 O   0  0  0  0  0  0  0  0  0  0  0  0
  191.0270  176.6250  147.5810 C   0  0  0  0  0  2  0  0  0  0  0  0
  191.1120  175.2230  147.0170 C   0  0  0  0  0  2  0  0  0  0  0  0
  192.5030  174.9770  146.4730 C   0  0  0  0  0  2  0  0  0  0  0  0
  193.3200  176.2470  146.5940 C   0  0  0  0  0  1  0  0  0  0  0  0
  1  7  2  0  0  0  0
  2  8  1  6  0  0  0
  2  9  1  0  0  0  0
  3  2  1  0  0  0  0
  5  8  2  0  0  0  0
  6 14  1  0  0  0  0
  6  3  1  0  0  0  0
  7  5  1  0  0  0  0
  9 10  1  0  0  0  0
 10 21  1  1  0  0  0
 11  3  2  0  0  0  0
 11 15  1  0  0  0  0
 12 16  1  6  0  0  0
 12 13  1  0  0  0  0
 13 10  1  0  0  0  0
 14  4  1  6  0  0  0
 14 12  1  0  0  0  0
 15  7  1  0  0  0  0
 16 17  1  1  0  0  0
 16 18  1  0  0  0  0
 18 20  1  0  0  0  0
 20 19  1  0  0  0  0
 21 22  1  0  0  0  0
 22 23  1  0  0  0  0
 23 24  1  0  0  0  0
 25 24  1  0  0  0  0
 26 27  1  0  0  0  0
 26 25  1  0  0  0  0
M  END
>  <MODEL>
3

>  <REMARK>
 VINA RESULT:      -6.2      1.839      7.121
  Name = 
  9 active torsions:
  status: ('A' for Active; 'I' for Inactive)
    1  A    between atoms: C_3  and  C_27
    2  A    between atoms: O_4  and  C_7
    3  A    between atoms: O_4  and  C_21
    4  A    between atoms: C_7  and  C_27
    5  A    between atoms: C_15  and  C_22
    6  A    between atoms: C_15  and  C_24
    7  A    between atoms: C_16  and  C_17
    8  A    between atoms: C_16  and  C_21
    9  A    between atoms: C_20  and  C_24
                            x       y       z     vdW  Elec       q    Type
                         _______ _______ _______ _____ _____    ______ ____

>  <TORSDO>
F 9

$$$$
=
 OpenBabel11042414223D

 27 28  0  0  1  0  0  0  0  0999 V2000
  184.9160  178.5400  140.7640 O   0  0  0  0  0  0  0  0  0  0  0  0
  187.4020  176.1400  143.4200 C   0  0  2  0  0  3  0  0  0  0  0  0
  187.8090  175.6980  142.0400 C   0  0  0  0  0  0  0  0  0  0  0  0
  190.5530  173.3180  141.4670 O   0  0  0  0  0  1  0  0  0  0  0  0
  185.2340  177.2470  142.7030 C   0  0  0  0  0  3  0  0  0  0  0  0
  188.4790  174.3710  141.9040 C   0  0  0  0  0  2  0  0  0  0  0  0
  185.7340  177.9120  141.4840 C   0  0  0  0  0  0  0  0  0  0  0  0
  185.9410  176.4750  143.5360 C   0  0  0  0  0  3  0  0  0  0  0  0
  188.2060  177.2010  143.8540 O   0  0  0  0  0  0  0  0  0  0  0  0
  189.2370  176.6050  144.5960 C   0  0  1  0  0  3  0  0  0  0  0  0
  187.7140  176.5070  140.9750 C   0  0  0  0  0  3  0  0  0  0  0  0
  190.4960  174.8070  143.3790 C   0  0  1  0  0  3  0  0  0  0  0  0
  190.4240  176.3040  143.6900 C   0  0  0  0  0  2  0  0  0  0  0  0
  190.0000  174.5070  141.9490 C   0  0  1  0  0  3  0  0  0  0  0  0
  187.1750  177.9010  141.0810 C   0  0  0  0  0  2  0  0  0  0  0  0
  191.9140  174.2740  143.6370 C   0  0  1  0  0  3  0  0  0  0  0  0
  192.8630  175.2890  143.4950 O   0  0  0  0  0  1  0  0  0  0  0  0
  192.0380  173.6400  145.0170 C   0  0  0  0  0  2  0  0  0  0  0  0
  191.8690  175.1240  146.8840 O   0  0  0  0  0  1  0  0  0  0  0  0
  192.7720  174.5600  145.9800 C   0  0  0  0  0  2  0  0  0  0  0  0
  189.6870  177.5450  145.7030 C   0  0  0  0  0  2  0  0  0  0  0  0
  188.6950  177.5420  146.8550 C   0  0  0  0  0  2  0  0  0  0  0  0
  187.9830  176.3420  146.8700 O   0  0  0  0  0  0  0  0  0  0  0  0
  186.7080  176.6950  147.3120 C   0  0  0  0  0  2  0  0  0  0  0  0
  186.3480  178.0600  146.7670 C   0  0  0  0  0  2  0  0  0  0  0  0
  184.9470  178.4300  147.2080 C   0  0  0  0  0  2  0  0  0  0  0  0
  184.0850  178.6690  145.9850 C   0  0  0  0  0  1  0  0  0  0  0  0
  1  7  2  0  0  0  0
  2  8  1  6  0  0  0
  2  9  1  0  0  0  0
  3  2  1  0  0  0  0
  5  8  2  0  0  0  0
  6 14  1  0  0  0  0
  6  3  1  0  0  0  0
  7  5  1  0  0  0  0
  9 10  1  0  0  0  0
 10 21  1  1  0  0  0
 11 15  1  0  0  0  0
 11  3  2  0  0  0  0
 12 16  1  6  0  0  0
 12 13  1  0  0  0  0
 13 10  1  0  0  0  0
 14  4  1  1  0  0  0
 14 12  1  0  0  0  0
 15  7  1  0  0  0  0
 16 17  1  1  0  0  0
 16 18  1  0  0  0  0
 18 20  1  0  0  0  0
 20 19  1  0  0  0  0
 21 22  1  0  0  0  0
 22 23  1  0  0  0  0
 23 24  1  0  0  0  0
 25 26  1  0  0  0  0
 25 24  1  0  0  0  0
 27 26  1  0  0  0  0
M  END
>  <MODEL>
4

>  <REMARK>
 VINA RESULT:      -6.1      1.737      4.530
  Name = 
  9 active torsions:
  status: ('A' for Active; 'I' for Inactive)
    1  A    between atoms: C_3  and  C_27
    2  A    between atoms: O_4  and  C_7
    3  A    between atoms: O_4  and  C_21
    4  A    between atoms: C_7  and  C_27
    5  A    between atoms: C_15  and  C_22
    6  A    between atoms: C_15  and  C_24
    7  A    between atoms: C_16  and  C_17
    8  A    between atoms: C_16  and  C_21
    9  A    between atoms: C_20  and  C_24
                            x       y       z     vdW  Elec       q    Type
                         _______ _______ _______ _____ _____    ______ ____

>  <TORSDO>
F 9

$$$$
=
 OpenBabel11042414223D

 27 28  0  0  1  0  0  0  0  0999 V2000
  183.7790  179.7050  144.5570 O   0  0  0  0  0  0  0  0  0  0  0  0
  186.8590  176.6400  144.8950 C   0  0  2  0  0  3  0  0  0  0  0  0
  186.5720  176.7080  143.4190 C   0  0  0  0  0  0  0  0  0  0  0  0
  188.4870  174.7680  140.9510 O   0  0  0  0  0  1  0  0  0  0  0  0
  184.7460  177.8430  145.6200 C   0  0  0  0  0  3  0  0  0  0  0  0
  186.9500  175.5320  142.5820 C   0  0  0  0  0  2  0  0  0  0  0  0
  184.7460  178.9000  144.5910 C   0  0  0  0  0  0  0  0  0  0  0  0
  185.6450  176.8620  145.7530 C   0  0  0  0  0  3  0  0  0  0  0  0
  187.8930  177.5200  145.2360 O   0  0  0  0  0  0  0  0  0  0  0  0
  189.0640  176.7470  145.2030 C   0  0  1  0  0  3  0  0  0  0  0  0
  186.1230  177.8260  142.8300 C   0  0  0  0  0  3  0  0  0  0  0  0
  189.4440  175.5160  143.0490 C   0  0  1  0  0  3  0  0  0  0  0  0
  189.6960  176.8150  143.8190 C   0  0  0  0  0  2  0  0  0  0  0  0
  188.3460  175.7010  141.9810 C   0  0  1  0  0  3  0  0  0  0  0  0
  185.8570  179.0800  143.6040 C   0  0  0  0  0  2  0  0  0  0  0  0
  190.7580  174.9800  142.4590 C   0  0  1  0  0  3  0  0  0  0  0  0
  191.7910  175.9080  142.6150 O   0  0  0  0  0  1  0  0  0  0  0  0
  191.1590  173.6500  143.0850 C   0  0  0  0  0  2  0  0  0  0  0  0
  189.4050  172.0250  143.0730 O   0  0  0  0  0  1  0  0  0  0  0  0
  189.9960  173.0280  143.8440 C   0  0  0  0  0  2  0  0  0  0  0  0
  190.0590  177.2710  146.2260 C   0  0  0  0  0  2  0  0  0  0  0  0
  190.4460  176.1830  147.2140 C   0  0  0  0  0  2  0  0  0  0  0  0
  191.0520  175.1200  146.5440 O   0  0  0  0  0  0  0  0  0  0  0  0
  192.3510  175.0810  147.0480 C   0  0  0  0  0  2  0  0  0  0  0  0
  193.3090  174.7000  145.9410 C   0  0  0  0  0  2  0  0  0  0  0  0
  194.5220  175.6050  145.9840 C   0  0  0  0  0  2  0  0  0  0  0  0
  194.1360  176.9310  146.6080 C   0  0  0  0  0  1  0  0  0  0  0  0
  1  7  2  0  0  0  0
  2  9  1  0  0  0  0
  2  8  1  1  0  0  0
  3  2  1  0  0  0  0
  5  8  2  0  0  0  0
  6  3  1  0  0  0  0
  7  5  1  0  0  0  0
 10  9  1  0  0  0  0
 10 21  1  1  0  0  0
 11  3  2  0  0  0  0
 11 15  1  0  0  0  0
 12 16  1  6  0  0  0
 12 13  1  0  0  0  0
 13 10  1  0  0  0  0
 14  4  1  6  0  0  0
 14  6  1  0  0  0  0
 14 12  1  0  0  0  0
 15  7  1  0  0  0  0
 16 17  1  1  0  0  0
 16 18  1  0  0  0  0
 18 20  1  0  0  0  0
 19 20  1  0  0  0  0
 21 22  1  0  0  0  0
 23 24  1  0  0  0  0
 23 22  1  0  0  0  0
 25 26  1  0  0  0  0
 25 24  1  0  0  0  0
 26 27  1  0  0  0  0
M  END
>  <MODEL>
5

>  <REMARK>
 VINA RESULT:      -6.0      1.752      5.407
  Name = 
  9 active torsions:
  status: ('A' for Active; 'I' for Inactive)
    1  A    between atoms: C_3  and  C_27
    2  A    between atoms: O_4  and  C_7
    3  A    between atoms: O_4  and  C_21
    4  A    between atoms: C_7  and  C_27
    5  A    between atoms: C_15  and  C_22
    6  A    between atoms: C_15  and  C_24
    7  A    between atoms: C_16  and  C_17
    8  A    between atoms: C_16  and  C_21
    9  A    between atoms: C_20  and  C_24
                            x       y       z     vdW  Elec       q    Type
                         _______ _______ _______ _____ _____    ______ ____

>  <TORSDO>
F 9

$$$$
=
 OpenBabel11042414223D

 27 28  0  0  1  0  0  0  0  0999 V2000
  191.5350  176.6840  148.4470 O   0  0  0  0  0  0  0  0  0  0  0  0
  188.2710  176.0450  145.6320 C   0  0  2  0  0  3  0  0  0  0  0  0
  187.6520  176.8700  146.7270 C   0  0  0  0  0  0  0  0  0  0  0  0
  184.1990  178.1200  146.5360 O   0  0  0  0  0  1  0  0  0  0  0  0
  190.3050  175.3290  146.9700 C   0  0  0  0  0  3  0  0  0  0  0  0
  186.1660  176.8430  146.8630 C   0  0  0  0  0  2  0  0  0  0  0  0
  190.5970  176.6260  147.6110 C   0  0  0  0  0  0  0  0  0  0  0  0
  189.3010  175.0680  146.1250 C   0  0  0  0  0  3  0  0  0  0  0  0
  188.7900  176.8710  144.6270 O   0  0  0  0  0  0  0  0  0  0  0  0
  187.7730  176.9700  143.6670 C   0  0  1  0  0  3  0  0  0  0  0  0
  188.3720  177.7150  147.4780 C   0  0  0  0  0  3  0  0  0  0  0  0
  185.5560  177.7330  144.5660 C   0  0  1  0  0  3  0  0  0  0  0  0
  186.8910  178.1770  143.9630 C   0  0  0  0  0  2  0  0  0  0  0  0
  185.5150  177.9880  146.0870 C   0  0  1  0  0  3  0  0  0  0  0  0
  189.8490  177.8820  147.2920 C   0  0  0  0  0  2  0  0  0  0  0  0
  184.3860  178.3950  143.8220 C   0  0  1  0  0  3  0  0  0  0  0  0
  184.4770  179.7870  143.8880 O   0  0  0  0  0  1  0  0  0  0  0  0
  184.3140  177.9490  142.3670 C   0  0  0  0  0  2  0  0  0  0  0  0
  183.0110  178.1150  140.3700 O   0  0  0  0  0  1  0  0  0  0  0  0
  182.9650  178.2920  141.7540 C   0  0  0  0  0  2  0  0  0  0  0  0
  188.3810  177.1330  142.2830 C   0  0  0  0  0  2  0  0  0  0  0  0
  188.2760  175.8410  141.4880 C   0  0  0  0  0  2  0  0  0  0  0  0
  188.6910  174.7620  142.2700 O   0  0  0  0  0  0  0  0  0  0  0  0
  188.2570  173.6360  141.5730 C   0  0  0  0  0  2  0  0  0  0  0  0
  188.5470  172.3960  142.3910 C   0  0  0  0  0  2  0  0  0  0  0  0
  189.8250  172.5930  143.1780 C   0  0  0  0  0  2  0  0  0  0  0  0
  189.6910  171.9160  144.5270 C   0  0  0  0  0  1  0  0  0  0  0  0
  2  8  1  1  0  0  0
  2  3  1  0  0  0  0
  3  6  1  0  0  0  0
  3 11  2  0  0  0  0
  5  7  1  0  0  0  0
  7  1  2  0  0  0  0
  8  5  2  0  0  0  0
  9  2  1  0  0  0  0
 10 21  1  6  0  0  0
 10 13  1  0  0  0  0
 10  9  1  0  0  0  0
 12 16  1  6  0  0  0
 12 14  1  0  0  0  0
 13 12  1  0  0  0  0
 14  4  1  1  0  0  0
 14  6  1  0  0  0  0
 15 11  1  0  0  0  0
 15  7  1  0  0  0  0
 16 17  1  6  0  0  0
 18 16  1  0  0  0  0
 19 20  1  0  0  0  0
 20 18  1  0  0  0  0
 22 23  1  0  0  0  0
 22 21  1  0  0  0  0
 24 23  1  0  0  0  0
 24 25  1  0  0  0  0
 25 26  1  0  0  0  0
 26 27  1  0  0  0  0
M  END
>  <MODEL>
6

>  <REMARK>
 VINA RESULT:      -5.9      1.899      6.034
  Name = 
  9 active torsions:
  status: ('A' for Active; 'I' for Inactive)
    1  A    between atoms: C_3  and  C_27
    2  A    between atoms: O_4  and  C_7
    3  A    between atoms: O_4  and  C_21
    4  A    between atoms: C_7  and  C_27
    5  A    between atoms: C_15  and  C_22
    6  A    between atoms: C_15  and  C_24
    7  A    between atoms: C_16  and  C_17
    8  A    between atoms: C_16  and  C_21
    9  A    between atoms: C_20  and  C_24
                            x       y       z     vdW  Elec       q    Type
                         _______ _______ _______ _____ _____    ______ ____

>  <TORSDO>
F 9

$$$$
=
 OpenBabel11042414223D

 27 28  0  0  1  0  0  0  0  0999 V2000
  193.7170  175.0110  146.3580 O   0  0  0  0  0  0  0  0  0  0  0  0
  189.6000  175.1760  144.9380 C   0  0  2  0  0  3  0  0  0  0  0  0
  189.5290  175.7420  146.3310 C   0  0  0  0  0  0  0  0  0  0  0  0
  186.4270  177.1310  147.7350 O   0  0  0  0  0  1  0  0  0  0  0  0
  191.8760  174.0900  145.2210 C   0  0  0  0  0  3  0  0  0  0  0  0
  188.2030  175.7410  147.0160 C   0  0  0  0  0  2  0  0  0  0  0  0
  192.5400  175.1860  145.9520 C   0  0  0  0  0  0  0  0  0  0  0  0
  190.6100  174.0720  144.7900 C   0  0  0  0  0  3  0  0  0  0  0  0
  189.8170  176.1960  144.0040 O   0  0  0  0  0  0  0  0  0  0  0  0
  188.5400  176.5580  143.5470 C   0  0  1  0  0  3  0  0  0  0  0  0
  190.5720  176.3590  146.9050 C   0  0  0  0  0  3  0  0  0  0  0  0
  186.9160  177.1690  145.3610 C   0  0  1  0  0  3  0  0  0  0  0  0
  187.9840  177.6930  144.3980 C   0  0  0  0  0  2  0  0  0  0  0  0
  187.4620  177.0600  146.7990 C   0  0  1  0  0  3  0  0  0  0  0  0
  191.8890  176.5100  146.2060 C   0  0  0  0  0  2  0  0  0  0  0  0
  185.6470  178.0310  145.2740 C   0  0  1  0  0  3  0  0  0  0  0  0
  185.9680  179.3900  145.2420 O   0  0  0  0  0  1  0  0  0  0  0  0
  184.8000  177.6720  144.0590 C   0  0  0  0  0  2  0  0  0  0  0  0
  185.4880  178.6740  142.0010 O   0  0  0  0  0  1  0  0  0  0  0  0
  184.6650  178.8560  143.1140 C   0  0  0  0  0  2  0  0  0  0  0  0
  188.6190  177.0190  142.1010 C   0  0  0  0  0  2  0  0  0  0  0  0
  187.7920  176.1190  141.1980 C   0  0  0  0  0  2  0  0  0  0  0  0
  187.8470  174.8010  141.6550 O   0  0  0  0  0  0  0  0  0  0  0  0
  188.8890  174.2220  140.9330 C   0  0  0  0  0  2  0  0  0  0  0  0
  188.9600  172.7440  141.2500 C   0  0  0  0  0  2  0  0  0  0  0  0
  190.3970  172.3470  141.5080 C   0  0  0  0  0  2  0  0  0  0  0  0
  190.4280  171.1500  142.4360 C   0  0  0  0  0  1  0  0  0  0  0  0
  2  8  1  1  0  0  0
  2  3  1  0  0  0  0
  3 11  2  0  0  0  0
  3  6  1  0  0  0  0
  5  7  1  0  0  0  0
  7 15  1  0  0  0  0
  7  1  2  0  0  0  0
  8  5  2  0  0  0  0
  9  2  1  0  0  0  0
 10 21  1  6  0  0  0
 10  9  1  0  0  0  0
 10 13  1  0  0  0  0
 12 16  1  1  0  0  0
 12 14  1  0  0  0  0
 13 12  1  0  0  0  0
 14  6  1  0  0  0  0
 14  4  1  1  0  0  0
 15 11  1  0  0  0  0
 16 17  1  6  0  0  0
 18 16  1  0  0  0  0
 19 20  1  0  0  0  0
 20 18  1  0  0  0  0
 22 23  1  0  0  0  0
 22 21  1  0  0  0  0
 24 25  1  0  0  0  0
 24 23  1  0  0  0  0
 25 26  1  0  0  0  0
 26 27  1  0  0  0  0
M  END
>  <MODEL>
7

>  <REMARK>
 VINA RESULT:      -5.7      2.039      5.866
  Name = 
  9 active torsions:
  status: ('A' for Active; 'I' for Inactive)
    1  A    between atoms: C_3  and  C_27
    2  A    between atoms: O_4  and  C_7
    3  A    between atoms: O_4  and  C_21
    4  A    between atoms: C_7  and  C_27
    5  A    between atoms: C_15  and  C_22
    6  A    between atoms: C_15  and  C_24
    7  A    between atoms: C_16  and  C_17
    8  A    between atoms: C_16  and  C_21
    9  A    between atoms: C_20  and  C_24
                            x       y       z     vdW  Elec       q    Type
                         _______ _______ _______ _____ _____    ______ ____

>  <TORSDO>
F 9

$$$$
=
 OpenBabel11042414223D

 27 28  0  0  1  0  0  0  0  0999 V2000
  184.0640  178.4520  146.5110 O   0  0  0  0  0  0  0  0  0  0  0  0
  187.6020  177.5280  144.1400 C   0  0  2  0  0  3  0  0  0  0  0  0
  188.1050  177.5380  145.5590 C   0  0  0  0  0  0  0  0  0  0  0  0
  191.5610  176.6270  146.4260 O   0  0  0  0  0  1  0  0  0  0  0  0
  185.4400  178.7630  144.6290 C   0  0  0  0  0  3  0  0  0  0  0  0
  189.5690  177.7300  145.7760 C   0  0  0  0  0  2  0  0  0  0  0  0
  185.0840  178.0700  145.8820 C   0  0  0  0  0  0  0  0  0  0  0  0
  186.5250  178.5440  143.8790 C   0  0  0  0  0  3  0  0  0  0  0  0
  187.1910  176.2410  143.7730 O   0  0  0  0  0  0  0  0  0  0  0  0
  188.3020  175.6620  143.1420 C   0  0  1  0  0  3  0  0  0  0  0  0
  187.3120  177.2470  146.5990 C   0  0  0  0  0  3  0  0  0  0  0  0
  190.4140  175.7070  144.4980 C   0  0  1  0  0  3  0  0  0  0  0  0
  189.1490  174.9130  144.1630 C   0  0  0  0  0  2  0  0  0  0  0  0
  190.2980  176.3900  145.8770 C   0  0  1  0  0  3  0  0  0  0  0  0
  185.8620  176.9120  146.4240 C   0  0  0  0  0  2  0  0  0  0  0  0
  191.6560  174.8090  144.3860 C   0  0  1  0  0  3  0  0  0  0  0  0
  191.3730  173.5090  144.8120 O   0  0  0  0  0  1  0  0  0  0  0  0
  192.2070  174.7790  142.9660 C   0  0  0  0  0  2  0  0  0  0  0  0
  193.9190  175.9640  144.1400 O   0  0  0  0  0  1  0  0  0  0  0  0
  193.5810  175.4290  142.8960 C   0  0  0  0  0  2  0  0  0  0  0  0
  187.8410  174.6860  142.0730 C   0  0  0  0  0  2  0  0  0  0  0  0
  188.1910  175.1960  140.6840 C   0  0  0  0  0  2  0  0  0  0  0  0
  188.5300  174.1270  139.8530 O   0  0  0  0  0  0  0  0  0  0  0  0
  189.8270  173.7850  140.2310 C   0  0  0  0  0  2  0  0  0  0  0  0
  190.0050  172.2870  140.1190 C   0  0  0  0  0  2  0  0  0  0  0  0
  190.7100  171.7650  141.3540 C   0  0  0  0  0  2  0  0  0  0  0  0
  189.6930  171.5460  142.4560 C   0  0  0  0  0  1  0  0  0  0  0  0
  2  8  1  1  0  0  0
  2  3  1  0  0  0  0
  3  6  1  0  0  0  0
  3 11  2  0  0  0  0
  5  7  1  0  0  0  0
  6 14  1  0  0  0  0
  7 15  1  0  0  0  0
  7  1  2  0  0  0  0
  8  5  2  0  0  0  0
  9  2  1  0  0  0  0
 10 21  1  6  0  0  0
 10  9  1  0  0  0  0
 10 13  1  0  0  0  0
 12 16  1  1  0  0  0
 12 14  1  0  0  0  0
 13 12  1  0  0  0  0
 14  4  1  6  0  0  0
 15 11  1  0  0  0  0
 16 17  1  6  0  0  0
 18 16  1  0  0  0  0
 20 18  1  0  0  0  0
 20 19  1  0  0  0  0
 22 21  1  0  0  0  0
 23 24  1  0  0  0  0
 23 22  1  0  0  0  0
 25 24  1  0  0  0  0
 25 26  1  0  0  0  0
 26 27  1  0  0  0  0
M  END
>  <MODEL>
8

>  <REMARK>
 VINA RESULT:      -5.7      1.861      3.110
  Name = 
  9 active torsions:
  status: ('A' for Active; 'I' for Inactive)
    1  A    between atoms: C_3  and  C_27
    2  A    between atoms: O_4  and  C_7
    3  A    between atoms: O_4  and  C_21
    4  A    between atoms: C_7  and  C_27
    5  A    between atoms: C_15  and  C_22
    6  A    between atoms: C_15  and  C_24
    7  A    between atoms: C_16  and  C_17
    8  A    between atoms: C_16  and  C_21
    9  A    between atoms: C_20  and  C_24
                            x       y       z     vdW  Elec       q    Type
                         _______ _______ _______ _____ _____    ______ ____

>  <TORSDO>
F 9

$$$$
=
 OpenBabel11042414223D

 27 28  0  0  1  0  0  0  0  0999 V2000
  197.0400  174.1660  145.4730 O   0  0  0  0  0  0  0  0  0  0  0  0
  192.6830  174.1720  145.3680 C   0  0  2  0  0  3  0  0  0  0  0  0
  193.0240  175.1970  146.4170 C   0  0  0  0  0  0  0  0  0  0  0  0
  190.4600  177.2510  148.0680 O   0  0  0  0  0  1  0  0  0  0  0  0
  194.9660  173.0640  145.3420 C   0  0  0  0  0  3  0  0  0  0  0  0
  191.9710  175.5500  147.4130 C   0  0  0  0  0  2  0  0  0  0  0  0
  195.7900  174.2870  145.3970 C   0  0  0  0  0  0  0  0  0  0  0  0
  193.6290  173.0050  145.3390 C   0  0  0  0  0  3  0  0  0  0  0  0
  192.5750  174.7740  144.1090 O   0  0  0  0  0  0  0  0  0  0  0  0
  191.2110  175.0600  143.9490 C   0  0  1  0  0  3  0  0  0  0  0  0
  194.1750  175.8840  146.3940 C   0  0  0  0  0  3  0  0  0  0  0  0
  190.2000  176.4080  145.8110 C   0  0  1  0  0  3  0  0  0  0  0  0
  190.9090  176.4650  144.4550 C   0  0  0  0  0  2  0  0  0  0  0  0
  191.1630  176.7670  146.9620 C   0  0  1  0  0  3  0  0  0  0  0  0
  195.2110  175.6660  145.3340 C   0  0  0  0  0  2  0  0  0  0  0  0
  188.9420  177.2890  145.7950 C   0  0  1  0  0  3  0  0  0  0  0  0
  188.7800  177.9050  144.5510 O   0  0  0  0  0  1  0  0  0  0  0  0
  187.6900  176.4950  146.1460 C   0  0  0  0  0  2  0  0  0  0  0  0
  185.6710  177.7070  145.7310 O   0  0  0  0  0  1  0  0  0  0  0  0
  186.6090  177.4000  146.7180 C   0  0  0  0  0  2  0  0  0  0  0  0
  190.8320  174.9730  142.4800 C   0  0  0  0  0  2  0  0  0  0  0  0
  189.7090  173.9700  142.2670 C   0  0  0  0  0  2  0  0  0  0  0  0
  188.5650  174.3790  142.9520 O   0  0  0  0  0  0  0  0  0  0  0  0
  187.9830  175.3380  142.1240 C   0  0  0  0  0  2  0  0  0  0  0  0
  186.7080  175.8460  142.7620 C   0  0  0  0  0  2  0  0  0  0  0  0
  186.2680  177.1200  142.0730 C   0  0  0  0  0  2  0  0  0  0  0  0
  187.4350  177.7010  141.3010 C   0  0  0  0  0  1  0  0  0  0  0  0
  2  8  1  6  0  0  0
  2  3  1  0  0  0  0
  3  6  1  0  0  0  0
  5  7  1  0  0  0  0
  7  1  2  0  0  0  0
  8  5  2  0  0  0  0
  9  2  1  0  0  0  0
 10 21  1  6  0  0  0
 10  9  1  0  0  0  0
 10 13  1  0  0  0  0
 11  3  2  0  0  0  0
 12 16  1  6  0  0  0
 12 14  1  0  0  0  0
 13 12  1  0  0  0  0
 14  6  1  0  0  0  0
 14  4  1  1  0  0  0
 15  7  1  0  0  0  0
 15 11  1  0  0  0  0
 16 17  1  6  0  0  0
 16 18  1  0  0  0  0
 18 20  1  0  0  0  0
 19 20  1  0  0  0  0
 22 21  1  0  0  0  0
 22 23  1  0  0  0  0
 24 25  1  0  0  0  0
 24 23  1  0  0  0  0
 26 25  1  0  0  0  0
 27 26  1  0  0  0  0
M  END
>  <MODEL>
9

>  <REMARK>
 VINA RESULT:      -5.7      2.073      6.143
  Name = 
  9 active torsions:
  status: ('A' for Active; 'I' for Inactive)
    1  A    between atoms: C_3  and  C_27
    2  A    between atoms: O_4  and  C_7
    3  A    between atoms: O_4  and  C_21
    4  A    between atoms: C_7  and  C_27
    5  A    between atoms: C_15  and  C_22
    6  A    between atoms: C_15  and  C_24
    7  A    between atoms: C_16  and  C_17
    8  A    between atoms: C_16  and  C_21
    9  A    between atoms: C_20  and  C_24
                            x       y       z     vdW  Elec       q    Type
                         _______ _______ _______ _____ _____    ______ ____

>  <TORSDO>
F 9

$$$$
