=
 OpenBabel11042417143D

 31 36  0  0  1  0  0  0  0  0999 V2000
  188.1530  176.3630  145.6530 N   0  0  2  0  0  0  0  0  0  0  0  0
  191.1280  172.9790  142.1150 O   0  0  0  0  0  0  0  0  0  0  0  0
  189.2170  175.2270  142.3890 C   0  0  1  0  0  3  0  0  0  0  0  0
  189.5500  176.4540  146.1420 C   0  0  2  0  0  3  0  0  0  0  0  0
  187.8410  177.6270  144.9500 C   0  0  1  0  0  3  0  0  0  0  0  0
  189.3590  174.6640  147.7130 O   0  0  0  0  0  1  0  0  0  0  0  0
  188.4190  174.7860  140.3880 C   0  0  0  0  0  0  0  0  0  0  0  0
  190.2250  172.7740  139.8690 C   0  0  0  0  0  3  0  0  0  0  0  0
  187.0940  176.1160  143.0900 N   0  0  0  0  0  2  0  0  0  0  0  0
  190.2400  173.4000  141.1240 C   0  0  0  0  0  0  0  0  0  0  0  0
  184.8840  177.5470  145.3590 C   0  0  1  0  0  3  0  0  0  0  0  0
  190.7080  172.8650  143.4710 C   0  0  0  0  0  2  0  0  0  0  0  0
  190.0700  175.0650  146.5780 C   0  0  1  0  0  0  0  0  0  0  0  0
  189.3170  174.4210  141.3520 C   0  0  0  0  0  0  0  0  0  0  0  0
  189.8410  174.0120  145.4790 C   0  0  0  0  0  2  0  0  0  0  0  0
  190.1770  175.3170  143.4420 N   0  0  0  0  0  2  0  0  0  0  0  0
  186.9170  177.4170  143.7230 C   0  0  1  0  0  3  0  0  0  0  0  0
  188.1670  176.2560  142.1170 C   0  0  2  0  0  3  0  0  0  0  0  0
  187.6920  175.8320  140.7500 C   0  0  0  0  0  2  0  0  0  0  0  0
  185.4620  177.6890  143.9850 C   0  0  0  0  0  0  0  0  0  0  0  0
  190.6940  174.1960  144.2250 C   0  0  2  0  0  3  0  0  0  0  0  0
  185.8250  176.7610  146.2640 C   0  0  0  0  0  2  0  0  0  0  0  0
  189.2760  173.1720  138.9040 C   0  0  0  0  0  3  0  0  0  0  0  0
  184.5720  178.9100  145.9540 C   0  0  0  0  0  1  0  0  0  0  0  0
  184.7370  178.0120  143.0580 O   0  0  0  0  0  0  0  0  0  0  0  0
  189.8080  177.5100  147.2370 C   0  0  0  0  0  1  0  0  0  0  0  0
  188.3840  174.1710  139.1780 N   0  0  0  0  0  0  0  0  0  0  0  0
  187.2400  177.3430  146.2780 C   0  0  1  0  0  3  0  0  0  0  0  0
  191.5690  175.1570  146.9220 C   0  0  0  0  0  2  0  0  0  0  0  0
  193.4130  176.6840  146.8440 O   0  0  0  0  0  1  0  0  0  0  0  0
  192.3110  176.2240  146.1230 C   0  0  0  0  0  2  0  0  0  0  0  0
  1  4  1  0  0  0  0
  1 28  1  0  0  0  0
  2 12  1  0  0  0  0
  3 16  1  0  0  0  0
  4 13  1  0  0  0  0
  4 26  1  0  0  0  0
  5  1  1  0  0  0  0
  5 28  1  0  0  0  0
  7 19  1  0  0  0  0
  7 14  1  0  0  0  0
  8 10  1  0  0  0  0
  9 17  1  0  0  0  0
 10 14  2  0  0  0  0
 10  2  1  0  0  0  0
 11 24  1  0  0  0  0
 11 22  1  0  0  0  0
 12 21  1  0  0  0  0
 13 29  1  0  0  0  0
 13  6  1  0  0  0  0
 14  3  1  0  0  0  0
 15 13  1  0  0  0  0
 16 21  1  0  0  0  0
 17 20  1  0  0  0  0
 17  5  1  0  0  0  0
 18  3  1  0  0  0  0
 18  9  1  0  0  0  0
 19 18  1  0  0  0  0
 20 11  1  0  0  0  0
 21 15  1  0  0  0  0
 22 28  1  0  0  0  0
 23 27  1  0  0  0  0
 23  8  2  0  0  0  0
 25 20  2  0  0  0  0
 27  7  2  0  0  0  0
 31 30  1  0  0  0  0
 31 29  1  0  0  0  0
M  END
>  <MODEL>
1

>  <REMARK>
 VINA RESULT:      -8.8      0.000      0.000
  Name = 
  2 active torsions:
  status: ('A' for Active; 'I' for Inactive)
    1  A    between atoms: C_14  and  C_24
    2  A    between atoms: C_19  and  C_24
                            x       y       z     vdW  Elec       q    Type
                         _______ _______ _______ _____ _____    ______ ____

>  <TORSDO>
F 2

$$$$
=
 OpenBabel11042417143D

 31 36  0  0  1  0  0  0  0  0999 V2000
  187.9950  176.4380  144.7620 N   0  0  2  0  0  0  0  0  0  0  0  0
  190.9810  172.2050  142.3180 O   0  0  0  0  0  0  0  0  0  0  0  0
  189.2500  174.5770  141.9270 C   0  0  1  0  0  3  0  0  0  0  0  0
  189.3440  176.5390  145.3690 C   0  0  2  0  0  3  0  0  0  0  0  0
  187.8550  177.5430  143.7900 C   0  0  1  0  0  3  0  0  0  0  0  0
  188.8610  175.1340  147.2400 O   0  0  0  0  0  1  0  0  0  0  0  0
  188.6020  173.7790  139.9830 C   0  0  0  0  0  0  0  0  0  0  0  0
  190.2710  171.5910  140.0760 C   0  0  0  0  0  3  0  0  0  0  0  0
  187.1550  175.7280  142.2040 N   0  0  0  0  0  2  0  0  0  0  0  0
  190.2250  172.4640  141.1740 C   0  0  0  0  0  0  0  0  0  0  0  0
  184.8770  177.7400  143.8910 C   0  0  1  0  0  3  0  0  0  0  0  0
  190.4320  172.4040  143.6160 C   0  0  0  0  0  2  0  0  0  0  0  0
  189.7040  175.2430  146.1290 C   0  0  1  0  0  0  0  0  0  0  0  0
  189.3750  173.5670  141.0910 C   0  0  0  0  0  0  0  0  0  0  0  0
  189.4870  173.9990  145.2470 C   0  0  0  0  0  2  0  0  0  0  0  0
  190.1150  174.8250  143.0360 N   0  0  0  0  0  2  0  0  0  0  0  0
  187.0320  177.1400  142.5390 C   0  0  1  0  0  3  0  0  0  0  0  0
  188.3200  175.5920  141.3430 C   0  0  2  0  0  3  0  0  0  0  0  0
  187.9360  174.9220  140.0480 C   0  0  0  0  0  2  0  0  0  0  0  0
  185.5870  177.5540  142.5850 C   0  0  0  0  0  0  0  0  0  0  0  0
  190.4630  173.8620  144.0800 C   0  0  2  0  0  3  0  0  0  0  0  0
  185.6630  177.1030  145.0300 C   0  0  0  0  0  2  0  0  0  0  0  0
  189.4500  171.8380  138.9560 C   0  0  0  0  0  3  0  0  0  0  0  0
  184.6290  179.2150  144.1600 C   0  0  0  0  0  1  0  0  0  0  0  0
  184.9790  177.7210  141.5400 O   0  0  0  0  0  0  0  0  0  0  0  0
  189.5900  177.7830  146.2490 C   0  0  0  0  0  1  0  0  0  0  0  0
  188.6250  172.9270  138.9260 N   0  0  0  0  0  0  0  0  0  0  0  0
  187.1150  177.5830  145.0760 C   0  0  1  0  0  3  0  0  0  0  0  0
  191.1670  175.3090  146.6040 C   0  0  0  0  0  2  0  0  0  0  0  0
  191.5380  176.5720  148.6060 O   0  0  0  0  0  1  0  0  0  0  0  0
  191.3150  175.2820  148.1220 C   0  0  0  0  0  2  0  0  0  0  0  0
  1 28  1  0  0  0  0
  1  4  1  0  0  0  0
  2 12  1  0  0  0  0
  3 16  1  0  0  0  0
  4 13  1  0  0  0  0
  4 26  1  0  0  0  0
  5  1  1  0  0  0  0
  5 28  1  0  0  0  0
  7 19  1  0  0  0  0
  7 14  1  0  0  0  0
  8 10  1  0  0  0  0
  9 17  1  0  0  0  0
 10  2  1  0  0  0  0
 11 24  1  0  0  0  0
 11 22  1  0  0  0  0
 12 21  1  0  0  0  0
 13 29  1  0  0  0  0
 13  6  1  0  0  0  0
 14 10  2  0  0  0  0
 14  3  1  0  0  0  0
 15 13  1  0  0  0  0
 16 21  1  0  0  0  0
 17 20  1  0  0  0  0
 17  5  1  0  0  0  0
 18  3  1  0  0  0  0
 18  9  1  0  0  0  0
 19 18  1  0  0  0  0
 20 11  1  0  0  0  0
 21 15  1  0  0  0  0
 22 28  1  0  0  0  0
 23  8  2  0  0  0  0
 25 20  2  0  0  0  0
 27 23  1  0  0  0  0
 27  7  2  0  0  0  0
 29 31  1  0  0  0  0
 31 30  1  0  0  0  0
M  END
>  <MODEL>
2

>  <REMARK>
 VINA RESULT:      -8.5      1.081      1.218
  Name = 
  2 active torsions:
  status: ('A' for Active; 'I' for Inactive)
    1  A    between atoms: C_14  and  C_24
    2  A    between atoms: C_19  and  C_24
                            x       y       z     vdW  Elec       q    Type
                         _______ _______ _______ _____ _____    ______ ____

>  <TORSDO>
F 2

$$$$
=
 OpenBabel11042417143D

 31 36  0  0  1  0  0  0  0  0999 V2000
  188.4220  176.5960  145.0620 N   0  0  2  0  0  0  0  0  0  0  0  0
  187.1650  175.5790  139.5660 O   0  0  0  0  0  0  0  0  0  0  0  0
  188.6020  174.6840  141.9980 C   0  0  1  0  0  3  0  0  0  0  0  0
  186.9420  176.6650  145.0020 C   0  0  2  0  0  3  0  0  0  0  0  0
  188.7870  175.3170  145.7100 C   0  0  1  0  0  3  0  0  0  0  0  0
  186.8370  179.0180  144.6030 O   0  0  0  0  0  1  0  0  0  0  0  0
  190.0440  173.5990  140.7410 C   0  0  0  0  0  0  0  0  0  0  0  0
  188.7560  174.1780  138.3770 C   0  0  0  0  0  3  0  0  0  0  0  0
  190.2660  175.0100  143.7050 N   0  0  0  0  0  2  0  0  0  0  0  0
  188.2650  174.7210  139.5750 C   0  0  0  0  0  0  0  0  0  0  0  0
  191.4450  176.1870  146.7550 C   0  0  1  0  0  3  0  0  0  0  0  0
  187.1410  176.7430  140.3860 C   0  0  0  0  0  2  0  0  0  0  0  0
  186.4820  177.7860  144.0440 C   0  0  1  0  0  0  0  0  0  0  0  0
  188.9360  174.4010  140.7560 C   0  0  0  0  0  0  0  0  0  0  0  0
  187.1760  177.6710  142.6740 C   0  0  0  0  0  2  0  0  0  0  0  0
  187.3520  175.2510  142.3930 N   0  0  0  0  0  2  0  0  0  0  0  0
  190.0720  174.6890  145.1130 C   0  0  1  0  0  3  0  0  0  0  0  0
  189.5500  174.0050  142.9330 C   0  0  2  0  0  3  0  0  0  0  0  0
  190.4840  173.3310  141.9610 C   0  0  0  0  0  2  0  0  0  0  0  0
  191.3230  174.9640  145.8990 C   0  0  0  0  0  0  0  0  0  0  0  0
  186.7520  176.4640  141.8390 C   0  0  2  0  0  3  0  0  0  0  0  0
  190.3670  177.2040  146.4030 C   0  0  0  0  0  2  0  0  0  0  0  0
  189.9070  173.3650  138.4030 C   0  0  0  0  0  3  0  0  0  0  0  0
  191.3840  175.8190  148.2290 C   0  0  0  0  0  1  0  0  0  0  0  0
  192.2610  174.1870  145.8230 O   0  0  0  0  0  0  0  0  0  0  0  0
  186.2230  176.7700  146.3630 C   0  0  0  0  0  1  0  0  0  0  0  0
  190.5370  173.0880  139.5840 N   0  0  0  0  0  0  0  0  0  0  0  0
  188.9620  176.5990  146.4370 C   0  0  1  0  0  3  0  0  0  0  0  0
  184.9530  177.7270  143.8710 C   0  0  0  0  0  2  0  0  0  0  0  0
  183.6670  178.9570  145.4760 O   0  0  0  0  0  1  0  0  0  0  0  0
  184.2520  179.0380  144.2110 C   0  0  0  0  0  2  0  0  0  0  0  0
  1  5  1  0  0  0  0
  1 28  1  0  0  0  0
  2 10  1  0  0  0  0
  2 12  1  0  0  0  0
  3 16  1  0  0  0  0
  3 18  1  0  0  0  0
  4  1  1  0  0  0  0
  4 26  1  0  0  0  0
  5 28  1  0  0  0  0
  7 14  1  0  0  0  0
  7 19  1  0  0  0  0
  8 23  2  0  0  0  0
  8 10  1  0  0  0  0
  9 17  1  0  0  0  0
 10 14  2  0  0  0  0
 11 24  1  0  0  0  0
 12 21  1  0  0  0  0
 13  6  1  0  0  0  0
 13  4  1  0  0  0  0
 14  3  1  0  0  0  0
 15 13  1  0  0  0  0
 17  5  1  0  0  0  0
 17 20  1  0  0  0  0
 18  9  1  0  0  0  0
 19 18  1  0  0  0  0
 20 11  1  0  0  0  0
 21 16  1  0  0  0  0
 21 15  1  0  0  0  0
 22 28  1  0  0  0  0
 22 11  1  0  0  0  0
 23 27  1  0  0  0  0
 25 20  2  0  0  0  0
 27  7  2  0  0  0  0
 29 13  1  0  0  0  0
 29 31  1  0  0  0  0
 31 30  1  0  0  0  0
M  END
>  <MODEL>
3

>  <REMARK>
 VINA RESULT:      -8.3      1.631      5.070
  Name = 
  2 active torsions:
  status: ('A' for Active; 'I' for Inactive)
    1  A    between atoms: C_14  and  C_24
    2  A    between atoms: C_19  and  C_24
                            x       y       z     vdW  Elec       q    Type
                         _______ _______ _______ _____ _____    ______ ____

>  <TORSDO>
F 2

$$$$
=
 OpenBabel11042417143D

 31 36  0  0  1  0  0  0  0  0999 V2000
  189.7150  175.6360  145.3600 N   0  0  2  0  0  0  0  0  0  0  0  0
  185.4370  178.2080  142.5500 O   0  0  0  0  0  0  0  0  0  0  0  0
  187.4700  176.0540  142.5550 C   0  0  1  0  0  3  0  0  0  0  0  0
  188.5980  175.6660  146.3340 C   0  0  2  0  0  3  0  0  0  0  0  0
  189.8410  174.2480  144.8640 C   0  0  1  0  0  3  0  0  0  0  0  0
  189.2150  177.7500  147.3270 O   0  0  0  0  0  1  0  0  0  0  0  0
  187.4620  176.0470  140.3560 C   0  0  0  0  0  0  0  0  0  0  0  0
  185.4540  177.9180  140.1370 C   0  0  0  0  0  3  0  0  0  0  0  0
  189.7600  175.3160  142.5940 N   0  0  0  0  0  2  0  0  0  0  0  0
  185.9350  177.5770  141.4100 C   0  0  0  0  0  0  0  0  0  0  0  0
  192.7330  174.3860  144.1350 C   0  0  1  0  0  3  0  0  0  0  0  0
  186.3080  178.6070  143.6040 C   0  0  0  0  0  2  0  0  0  0  0  0
  188.1730  177.1200  146.6380 C   0  0  1  0  0  0  0  0  0  0  0  0
  186.9480  176.6200  141.4870 C   0  0  0  0  0  0  0  0  0  0  0  0
  187.9170  177.9110  145.3420 C   0  0  0  0  0  2  0  0  0  0  0  0
  186.9630  176.2010  143.8820 N   0  0  0  0  0  2  0  0  0  0  0  0
  190.2440  174.1800  143.3680 C   0  0  1  0  0  3  0  0  0  0  0  0
  188.4210  174.9800  142.1330 C   0  0  2  0  0  3  0  0  0  0  0  0
  188.3420  175.0960  140.6320 C   0  0  0  0  0  2  0  0  0  0  0  0
  191.7110  173.9570  143.1280 C   0  0  0  0  0  0  0  0  0  0  0  0
  186.6850  177.4690  144.5540 C   0  0  2  0  0  3  0  0  0  0  0  0
  192.1280  175.3560  145.1420 C   0  0  0  0  0  2  0  0  0  0  0  0
  186.0170  177.3130  138.9950 C   0  0  0  0  0  3  0  0  0  0  0  0
  193.3340  173.1780  144.8370 C   0  0  0  0  0  1  0  0  0  0  0  0
  192.0740  173.4350  142.0860 O   0  0  0  0  0  0  0  0  0  0  0  0
  188.8260  174.8720  147.6380 C   0  0  0  0  0  1  0  0  0  0  0  0
  187.0160  176.3880  139.1200 N   0  0  0  0  0  0  0  0  0  0  0  0
  190.8570  174.8050  145.7910 C   0  0  1  0  0  3  0  0  0  0  0  0
  186.9090  177.1180  147.5180 C   0  0  0  0  0  2  0  0  0  0  0  0
  185.2130  178.8100  147.5430 O   0  0  0  0  0  1  0  0  0  0  0  0
  186.4980  178.5080  147.9940 C   0  0  0  0  0  2  0  0  0  0  0  0
  1 28  1  0  0  0  0
  1  4  1  0  0  0  0
  2 12  1  0  0  0  0
  3 16  1  0  0  0  0
  4 13  1  0  0  0  0
  4 26  1  0  0  0  0
  5  1  1  0  0  0  0
  5 28  1  0  0  0  0
  7 19  1  0  0  0  0
  7 14  1  0  0  0  0
  8 10  1  0  0  0  0
  9 17  1  0  0  0  0
 10 14  2  0  0  0  0
 10  2  1  0  0  0  0
 11 24  1  0  0  0  0
 11 22  1  0  0  0  0
 12 21  1  0  0  0  0
 13  6  1  0  0  0  0
 13 29  1  0  0  0  0
 14  3  1  0  0  0  0
 15 13  1  0  0  0  0
 16 21  1  0  0  0  0
 17  5  1  0  0  0  0
 18  3  1  0  0  0  0
 18  9  1  0  0  0  0
 19 18  1  0  0  0  0
 20 17  1  0  0  0  0
 20 11  1  0  0  0  0
 21 15  1  0  0  0  0
 22 28  1  0  0  0  0
 23 27  1  0  0  0  0
 23  8  2  0  0  0  0
 25 20  2  0  0  0  0
 27  7  2  0  0  0  0
 29 31  1  0  0  0  0
 30 31  1  0  0  0  0
M  END
>  <MODEL>
4

>  <REMARK>
 VINA RESULT:      -8.2      1.845      5.391
  Name = 
  2 active torsions:
  status: ('A' for Active; 'I' for Inactive)
    1  A    between atoms: C_14  and  C_24
    2  A    between atoms: C_19  and  C_24
                            x       y       z     vdW  Elec       q    Type
                         _______ _______ _______ _____ _____    ______ ____

>  <TORSDO>
F 2

$$$$
=
 OpenBabel11042417143D

 31 36  0  0  1  0  0  0  0  0999 V2000
  188.1620  176.3060  145.2510 N   0  0  2  0  0  0  0  0  0  0  0  0
  189.1670  174.1450  140.0420 O   0  0  0  0  0  0  0  0  0  0  0  0
  188.0480  176.3770  141.6370 C   0  0  1  0  0  3  0  0  0  0  0  0
  189.6090  175.9810  145.2580 C   0  0  2  0  0  3  0  0  0  0  0  0
  188.0320  177.7750  145.1390 C   0  0  1  0  0  3  0  0  0  0  0  0
  189.3450  173.7740  146.1360 O   0  0  0  0  0  1  0  0  0  0  0  0
  186.6940  176.8780  139.9790 C   0  0  0  0  0  0  0  0  0  0  0  0
  187.7160  174.9710  138.2760 C   0  0  0  0  0  3  0  0  0  0  0  0
  186.4770  177.2420  143.2420 N   0  0  0  0  0  2  0  0  0  0  0  0
  188.2060  175.0500  139.5880 C   0  0  0  0  0  0  0  0  0  0  0  0
  185.3560  178.0020  146.4420 C   0  0  1  0  0  3  0  0  0  0  0  0
  189.0800  173.5800  141.3460 C   0  0  0  0  0  2  0  0  0  0  0  0
  189.8340  174.4700  145.0250 C   0  0  1  0  0  0  0  0  0  0  0  0
  187.6720  176.0320  140.4230 C   0  0  0  0  0  0  0  0  0  0  0  0
  189.0700  173.9760  143.7830 C   0  0  0  0  0  2  0  0  0  0  0  0
  189.2270  175.9010  142.2880 N   0  0  0  0  0  2  0  0  0  0  0  0
  186.8120  178.2040  144.2830 C   0  0  1  0  0  3  0  0  0  0  0  0
  187.2750  177.5800  142.0730 C   0  0  2  0  0  3  0  0  0  0  0  0
  186.3820  177.8000  140.8770 C   0  0  0  0  0  2  0  0  0  0  0  0
  185.5930  178.5750  145.0790 C   0  0  0  0  0  0  0  0  0  0  0  0
  189.6060  174.4980  142.4510 C   0  0  2  0  0  3  0  0  0  0  0  0
  186.2480  176.7910  146.6830 C   0  0  0  0  0  2  0  0  0  0  0  0
  186.7000  175.8540  137.8590 C   0  0  0  0  0  3  0  0  0  0  0  0
  185.5720  179.0580  147.5140 C   0  0  0  0  0  1  0  0  0  0  0  0
  184.7740  179.3410  144.5970 O   0  0  0  0  0  0  0  0  0  0  0  0
  190.3990  176.4750  146.4880 C   0  0  0  0  0  1  0  0  0  0  0  0
  186.2000  176.7940  138.7170 N   0  0  0  0  0  0  0  0  0  0  0  0
  187.7250  177.0940  146.4210 C   0  0  1  0  0  3  0  0  0  0  0  0
  191.3400  174.1880  144.8710 C   0  0  0  0  0  2  0  0  0  0  0  0
  192.6400  172.5890  143.6470 O   0  0  0  0  0  1  0  0  0  0  0  0
  191.6620  172.7160  144.6340 C   0  0  0  0  0  2  0  0  0  0  0  0
  1  4  1  0  0  0  0
  1 28  1  0  0  0  0
  2 12  1  0  0  0  0
  3 18  1  0  0  0  0
  3 16  1  0  0  0  0
  4 26  1  0  0  0  0
  5  1  1  0  0  0  0
  5 28  1  0  0  0  0
  7 14  1  0  0  0  0
  7 19  1  0  0  0  0
  8 10  1  0  0  0  0
  9 17  1  0  0  0  0
 10  2  1  0  0  0  0
 10 14  2  0  0  0  0
 11 22  1  0  0  0  0
 11 24  1  0  0  0  0
 12 21  1  0  0  0  0
 13  4  1  0  0  0  0
 13  6  1  0  0  0  0
 14  3  1  0  0  0  0
 15 13  1  0  0  0  0
 16 21  1  0  0  0  0
 17 20  1  0  0  0  0
 17  5  1  0  0  0  0
 18  9  1  0  0  0  0
 19 18  1  0  0  0  0
 20 11  1  0  0  0  0
 21 15  1  0  0  0  0
 23  8  2  0  0  0  0
 23 27  1  0  0  0  0
 25 20  2  0  0  0  0
 27  7  2  0  0  0  0
 28 22  1  0  0  0  0
 29 13  1  0  0  0  0
 30 31  1  0  0  0  0
 31 29  1  0  0  0  0
M  END
>  <MODEL>
5

>  <REMARK>
 VINA RESULT:      -8.1      1.703      2.369
  Name = 
  2 active torsions:
  status: ('A' for Active; 'I' for Inactive)
    1  A    between atoms: C_14  and  C_24
    2  A    between atoms: C_19  and  C_24
                            x       y       z     vdW  Elec       q    Type
                         _______ _______ _______ _____ _____    ______ ____

>  <TORSDO>
F 2

$$$$
=
 OpenBabel11042417143D

 31 36  0  0  1  0  0  0  0  0999 V2000
  191.8720  174.2280  142.6150 N   0  0  2  0  0  0  0  0  0  0  0  0
  188.7350  177.7530  145.8630 O   0  0  0  0  0  0  0  0  0  0  0  0
  188.7540  175.6100  143.8170 C   0  0  1  0  0  3  0  0  0  0  0  0
  192.3730  174.0050  143.9930 C   0  0  2  0  0  3  0  0  0  0  0  0
  191.0430  173.0610  142.2440 C   0  0  1  0  0  3  0  0  0  0  0  0
  194.1090  175.6420  143.8730 O   0  0  0  0  0  1  0  0  0  0  0  0
  186.7930  176.2920  143.0920 C   0  0  0  0  0  0  0  0  0  0  0  0
  186.5050  178.2310  145.0250 C   0  0  0  0  0  3  0  0  0  0  0  0
  189.3280  174.7880  141.6300 N   0  0  0  0  0  2  0  0  0  0  0  0
  187.6930  177.4860  144.9750 C   0  0  0  0  0  0  0  0  0  0  0  0
  191.4090  173.2810  139.2890 C   0  0  1  0  0  3  0  0  0  0  0  0
  190.0880  177.7600  145.4200 C   0  0  0  0  0  2  0  0  0  0  0  0
  192.9520  175.3100  144.5840 C   0  0  1  0  0  0  0  0  0  0  0  0
  187.8040  176.5060  143.9880 C   0  0  0  0  0  0  0  0  0  0  0  0
  191.9580  176.4780  144.4420 C   0  0  0  0  0  2  0  0  0  0  0  0
  189.8090  175.3590  144.7460 N   0  0  0  0  0  2  0  0  0  0  0  0
  189.8270  173.4450  141.3620 C   0  0  1  0  0  3  0  0  0  0  0  0
  188.3640  174.6780  142.7150 C   0  0  2  0  0  3  0  0  0  0  0  0
  187.0380  175.2620  142.2960 C   0  0  0  0  0  2  0  0  0  0  0  0
  190.0360  173.2380  139.8880 C   0  0  0  0  0  0  0  0  0  0  0  0
  190.7070  176.3650  145.3110 C   0  0  2  0  0  3  0  0  0  0  0  0
  192.4020  173.9150  140.2550 C   0  0  0  0  0  2  0  0  0  0  0  0
  185.4910  177.9880  144.0760 C   0  0  0  0  0  3  0  0  0  0  0  0
  191.8600  171.8870  138.8830 C   0  0  0  0  0  1  0  0  0  0  0  0
  189.0700  173.0520  139.1670 O   0  0  0  0  0  0  0  0  0  0  0  0
  193.3620  172.8340  144.1630 C   0  0  0  0  0  1  0  0  0  0  0  0
  185.6500  177.0230  143.1210 N   0  0  0  0  0  0  0  0  0  0  0  0
  192.3810  173.2500  141.6320 C   0  0  1  0  0  3  0  0  0  0  0  0
  193.3100  175.0940  146.0660 C   0  0  0  0  0  2  0  0  0  0  0  0
  194.1930  177.1640  146.8880 O   0  0  0  0  0  1  0  0  0  0  0  0
  194.5460  175.8670  146.5130 C   0  0  0  0  0  2  0  0  0  0  0  0
  1  4  1  0  0  0  0
  3 14  1  0  0  0  0
  3 16  1  0  0  0  0
  4 26  1  0  0  0  0
  4 13  1  0  0  0  0
  5  1  1  0  0  0  0
  6 13  1  0  0  0  0
  7 27  2  0  0  0  0
  7 14  1  0  0  0  0
  9 18  1  0  0  0  0
 10  8  1  0  0  0  0
 10  2  1  0  0  0  0
 11 20  1  0  0  0  0
 11 22  1  0  0  0  0
 12  2  1  0  0  0  0
 13 29  1  0  0  0  0
 14 10  2  0  0  0  0
 15 13  1  0  0  0  0
 15 21  1  0  0  0  0
 16 21  1  0  0  0  0
 17  9  1  0  0  0  0
 17  5  1  0  0  0  0
 18  3  1  0  0  0  0
 19 18  1  0  0  0  0
 19  7  1  0  0  0  0
 20 17  1  0  0  0  0
 21 12  1  0  0  0  0
 22 28  1  0  0  0  0
 23  8  2  0  0  0  0
 24 11  1  0  0  0  0
 25 20  2  0  0  0  0
 27 23  1  0  0  0  0
 28  5  1  0  0  0  0
 28  1  1  0  0  0  0
 29 31  1  0  0  0  0
 31 30  1  0  0  0  0
M  END
>  <MODEL>
6

>  <REMARK>
 VINA RESULT:      -8.0      1.996      5.886
  Name = 
  2 active torsions:
  status: ('A' for Active; 'I' for Inactive)
    1  A    between atoms: C_14  and  C_24
    2  A    between atoms: C_19  and  C_24
                            x       y       z     vdW  Elec       q    Type
                         _______ _______ _______ _____ _____    ______ ____

>  <TORSDO>
F 2

$$$$
=
 OpenBabel11042417143D

 31 36  0  0  1  0  0  0  0  0999 V2000
  191.6580  175.4520  145.2630 N   0  0  2  0  0  0  0  0  0  0  0  0
  187.6120  175.2260  141.2140 O   0  0  0  0  0  0  0  0  0  0  0  0
  190.1640  174.1310  142.2460 C   0  0  1  0  0  3  0  0  0  0  0  0
  190.3860  175.3310  146.0160 C   0  0  2  0  0  3  0  0  0  0  0  0
  192.3430  174.1430  145.3230 C   0  0  1  0  0  3  0  0  0  0  0  0
  190.0350  177.6830  146.2530 O   0  0  0  0  0  1  0  0  0  0  0  0
  190.7010  173.4790  140.2160 C   0  0  0  0  0  0  0  0  0  0  0  0
  188.3160  174.2740  139.0910 C   0  0  0  0  0  3  0  0  0  0  0  0
  192.4850  174.3830  142.8280 N   0  0  0  0  0  2  0  0  0  0  0  0
  188.5520  174.5340  140.4500 C   0  0  0  0  0  0  0  0  0  0  0  0
  195.1210  175.1700  144.9520 C   0  0  1  0  0  3  0  0  0  0  0  0
  188.0190  176.2200  142.1480 C   0  0  0  0  0  2  0  0  0  0  0  0
  189.4550  176.5270  145.7190 C   0  0  1  0  0  0  0  0  0  0  0  0
  189.7670  174.1110  140.9910 C   0  0  0  0  0  0  0  0  0  0  0  0
  189.2860  176.7410  144.2030 C   0  0  0  0  0  2  0  0  0  0  0  0
  189.3250  174.4500  143.3570 N   0  0  0  0  0  2  0  0  0  0  0  0
  193.1020  173.8030  144.0140 C   0  0  1  0  0  3  0  0  0  0  0  0
  191.4830  173.4370  142.3610 C   0  0  2  0  0  3  0  0  0  0  0  0
  191.7430  173.0690  140.9220 C   0  0  0  0  0  2  0  0  0  0  0  0
  194.5730  174.1050  144.0520 C   0  0  0  0  0  0  0  0  0  0  0  0
  188.4960  175.6480  143.4850 C   0  0  2  0  0  3  0  0  0  0  0  0
  194.0070  176.0780  145.4560 C   0  0  0  0  0  2  0  0  0  0  0  0
  189.3080  173.6300  138.3240 C   0  0  0  0  0  3  0  0  0  0  0  0
  195.8860  174.5520  146.1110 C   0  0  0  0  0  1  0  0  0  0  0  0
  195.3300  173.4850  143.3220 O   0  0  0  0  0  0  0  0  0  0  0  0
  190.5290  175.1060  147.5360 C   0  0  0  0  0  1  0  0  0  0  0  0
  190.4880  173.2440  138.8960 N   0  0  0  0  0  0  0  0  0  0  0  0
  192.8630  175.2940  146.1020 C   0  0  1  0  0  3  0  0  0  0  0  0
  188.0830  176.2940  146.3790 C   0  0  0  0  0  2  0  0  0  0  0  0
  186.4000  177.9320  145.9070 O   0  0  0  0  0  1  0  0  0  0  0  0
  187.3940  177.5810  146.8200 C   0  0  0  0  0  2  0  0  0  0  0  0
  1  5  1  0  0  0  0
  1  4  1  0  0  0  0
  1 28  1  0  0  0  0
  2 12  1  0  0  0  0
  3 18  1  0  0  0  0
  3 16  1  0  0  0  0
  4 26  1  0  0  0  0
  5 28  1  0  0  0  0
  7 19  1  0  0  0  0
  7 14  1  0  0  0  0
  8 10  1  0  0  0  0
  9 17  1  0  0  0  0
 10 14  2  0  0  0  0
 10  2  1  0  0  0  0
 11 22  1  0  0  0  0
 11 24  1  0  0  0  0
 12 21  1  0  0  0  0
 13  4  1  0  0  0  0
 13  6  1  0  0  0  0
 13 29  1  0  0  0  0
 14  3  1  0  0  0  0
 15 13  1  0  0  0  0
 16 21  1  0  0  0  0
 17 20  1  0  0  0  0
 17  5  1  0  0  0  0
 18  9  1  0  0  0  0
 19 18  1  0  0  0  0
 20 11  1  0  0  0  0
 21 15  1  0  0  0  0
 22 28  1  0  0  0  0
 23 27  1  0  0  0  0
 23  8  2  0  0  0  0
 25 20  2  0  0  0  0
 27  7  2  0  0  0  0
 29 31  1  0  0  0  0
 30 31  1  0  0  0  0
M  END
>  <MODEL>
7

>  <REMARK>
 VINA RESULT:      -8.0      2.220      5.568
  Name = 
  2 active torsions:
  status: ('A' for Active; 'I' for Inactive)
    1  A    between atoms: C_14  and  C_24
    2  A    between atoms: C_19  and  C_24
                            x       y       z     vdW  Elec       q    Type
                         _______ _______ _______ _____ _____    ______ ____

>  <TORSDO>
F 2

$$$$
=
 OpenBabel11042417143D

 31 36  0  0  1  0  0  0  0  0999 V2000
  192.2290  174.2470  142.9940 N   0  0  2  0  0  0  0  0  0  0  0  0
  186.6930  175.6650  142.5970 O   0  0  0  0  0  0  0  0  0  0  0  0
  189.3550  176.3180  143.7210 C   0  0  1  0  0  3  0  0  0  0  0  0
  191.9600  174.2820  141.5360 C   0  0  2  0  0  3  0  0  0  0  0  0
  193.0060  175.4580  143.3370 C   0  0  1  0  0  3  0  0  0  0  0  0
  191.3930  171.9680  141.3510 O   0  0  0  0  0  1  0  0  0  0  0  0
  188.3870  177.3740  145.3890 C   0  0  0  0  0  0  0  0  0  0  0  0
  185.8340  177.0220  144.4200 C   0  0  0  0  0  3  0  0  0  0  0  0
  191.2500  175.7800  145.1030 N   0  0  0  0  0  2  0  0  0  0  0  0
  186.9120  176.4450  143.7320 C   0  0  0  0  0  0  0  0  0  0  0  0
  194.3490  174.3510  145.7630 C   0  0  1  0  0  3  0  0  0  0  0  0
  187.4220  174.4600  142.3880 C   0  0  0  0  0  2  0  0  0  0  0  0
  190.8740  173.2520  141.1530 C   0  0  1  0  0  0  0  0  0  0  0  0
  188.1940  176.6490  144.2460 C   0  0  0  0  0  0  0  0  0  0  0  0
  189.6250  173.3990  142.0410 C   0  0  0  0  0  2  0  0  0  0  0  0
  189.5340  175.8140  142.3970 N   0  0  0  0  0  2  0  0  0  0  0  0
  192.6370  176.0310  144.7300 C   0  0  1  0  0  3  0  0  0  0  0  0
  190.4570  176.8750  144.5650 C   0  0  2  0  0  3  0  0  0  0  0  0
  189.6710  177.5400  145.6660 C   0  0  0  0  0  2  0  0  0  0  0  0
  193.5690  175.6270  145.8370 C   0  0  0  0  0  0  0  0  0  0  0  0
  188.8220  174.6790  141.8120 C   0  0  2  0  0  3  0  0  0  0  0  0
  193.7830  173.4310  144.6890 C   0  0  0  0  0  2  0  0  0  0  0  0
  186.0730  177.7530  145.6020 C   0  0  0  0  0  3  0  0  0  0  0  0
  195.8210  174.6350  145.5140 C   0  0  0  0  0  1  0  0  0  0  0  0
  193.6760  176.3420  146.8200 O   0  0  0  0  0  0  0  0  0  0  0  0
  193.1980  174.1460  140.6250 C   0  0  0  0  0  1  0  0  0  0  0  0
  187.3460  177.9170  146.0720 N   0  0  0  0  0  0  0  0  0  0  0  0
  193.6620  174.1260  143.3310 C   0  0  1  0  0  3  0  0  0  0  0  0
  190.4960  173.4250  139.6700 C   0  0  0  0  0  2  0  0  0  0  0  0
  188.3610  172.6650  138.8920 O   0  0  0  0  0  1  0  0  0  0  0  0
  189.6790  172.2640  139.1120 C   0  0  0  0  0  2  0  0  0  0  0  0
  1 28  1  0  0  0  0
  1  5  1  0  0  0  0
  2 10  1  0  0  0  0
  3 14  1  0  0  0  0
  3 18  1  0  0  0  0
  4  1  1  0  0  0  0
  5 17  1  0  0  0  0
  7 19  1  0  0  0  0
  7 27  1  0  0  0  0
  8 23  1  0  0  0  0
 10 14  1  0  0  0  0
 10  8  2  0  0  0  0
 11 20  1  0  0  0  0
 12  2  1  0  0  0  0
 13  6  1  0  0  0  0
 13  4  1  0  0  0  0
 13 15  1  0  0  0  0
 14  7  2  0  0  0  0
 16  3  1  0  0  0  0
 17  9  1  0  0  0  0
 17 20  1  0  0  0  0
 18  9  1  0  0  0  0
 18 19  1  0  0  0  0
 20 25  2  0  0  0  0
 21 15  1  0  0  0  0
 21 12  1  0  0  0  0
 21 16  1  0  0  0  0
 22 11  1  0  0  0  0
 23 27  2  0  0  0  0
 24 11  1  0  0  0  0
 26  4  1  0  0  0  0
 28  5  1  0  0  0  0
 28 22  1  0  0  0  0
 29 13  1  0  0  0  0
 30 31  1  0  0  0  0
 31 29  1  0  0  0  0
M  END
>  <MODEL>
8

>  <REMARK>
 VINA RESULT:      -7.9      2.073      6.885
  Name = 
  2 active torsions:
  status: ('A' for Active; 'I' for Inactive)
    1  A    between atoms: C_14  and  C_24
    2  A    between atoms: C_19  and  C_24
                            x       y       z     vdW  Elec       q    Type
                         _______ _______ _______ _____ _____    ______ ____

>  <TORSDO>
F 2

$$$$
=
 OpenBabel11042417143D

 31 36  0  0  1  0  0  0  0  0999 V2000
  189.3140  176.0810  144.1290 N   0  0  2  0  0  0  0  0  0  0  0  0
  188.2340  173.1500  139.3280 O   0  0  0  0  0  0  0  0  0  0  0  0
  189.4920  173.1560  142.0100 C   0  0  1  0  0  3  0  0  0  0  0  0
  187.8470  176.1970  143.9480 C   0  0  2  0  0  3  0  0  0  0  0  0
  189.5570  175.1210  145.2280 C   0  0  1  0  0  3  0  0  0  0  0  0
  187.9300  178.2330  142.7000 O   0  0  0  0  0  1  0  0  0  0  0  0
  190.9070  171.6100  141.3460 C   0  0  0  0  0  0  0  0  0  0  0  0
  189.7720  171.3280  138.8530 C   0  0  0  0  0  3  0  0  0  0  0  0
  191.0980  174.0130  143.5840 N   0  0  0  0  0  2  0  0  0  0  0  0
  189.2680  172.3030  139.7290 C   0  0  0  0  0  0  0  0  0  0  0  0
  192.2210  176.1830  146.0560 C   0  0  1  0  0  3  0  0  0  0  0  0
  188.2580  174.5350  139.6550 C   0  0  0  0  0  2  0  0  0  0  0  0
  187.5130  176.9010  142.6140 C   0  0  1  0  0  0  0  0  0  0  0  0
  189.8610  172.4140  140.9870 C   0  0  0  0  0  0  0  0  0  0  0  0
  188.2570  176.2480  141.4340 C   0  0  0  0  0  2  0  0  0  0  0  0
  188.2710  173.8920  142.0810 N   0  0  0  0  0  2  0  0  0  0  0  0
  190.8190  174.2510  144.9950 C   0  0  1  0  0  3  0  0  0  0  0  0
  190.3470  172.8300  143.1930 C   0  0  2  0  0  3  0  0  0  0  0  0
  191.2730  171.7950  142.6050 C   0  0  0  0  0  2  0  0  0  0  0  0
  192.0500  174.7370  145.7070 C   0  0  0  0  0  0  0  0  0  0  0  0
  187.7840  174.8390  141.0790 C   0  0  2  0  0  3  0  0  0  0  0  0
  191.2360  177.0480  145.2800 C   0  0  0  0  0  2  0  0  0  0  0  0
  190.8590  170.5260  139.2560 C   0  0  0  0  0  3  0  0  0  0  0  0
  192.0680  176.3960  147.5540 C   0  0  0  0  0  1  0  0  0  0  0  0
  192.9320  173.9410  145.9880 O   0  0  0  0  0  0  0  0  0  0  0  0
  187.0770  176.8390  145.1200 C   0  0  0  0  0  1  0  0  0  0  0  0
  191.4140  170.6800  140.4960 N   0  0  0  0  0  0  0  0  0  0  0  0
  189.7910  176.5710  145.4390 C   0  0  1  0  0  3  0  0  0  0  0  0
  185.9930  176.8580  142.3710 C   0  0  0  0  0  2  0  0  0  0  0  0
  185.4500  178.1720  140.4430 O   0  0  0  0  0  1  0  0  0  0  0  0
  185.4250  178.1700  141.8380 C   0  0  0  0  0  2  0  0  0  0  0  0
  1  5  1  0  0  0  0
  1 28  1  0  0  0  0
  2 12  1  0  0  0  0
  2 10  1  0  0  0  0
  3 16  1  0  0  0  0
  3 18  1  0  0  0  0
  4  1  1  0  0  0  0
  4 26  1  0  0  0  0
  5 28  1  0  0  0  0
  7 19  1  0  0  0  0
  8 23  2  0  0  0  0
  8 10  1  0  0  0  0
  9 17  1  0  0  0  0
 10 14  2  0  0  0  0
 11 24  1  0  0  0  0
 12 21  1  0  0  0  0
 13  6  1  0  0  0  0
 13  4  1  0  0  0  0
 14  7  1  0  0  0  0
 14  3  1  0  0  0  0
 15 13  1  0  0  0  0
 17  5  1  0  0  0  0
 17 20  1  0  0  0  0
 18  9  1  0  0  0  0
 19 18  1  0  0  0  0
 20 25  2  0  0  0  0
 20 11  1  0  0  0  0
 21 15  1  0  0  0  0
 21 16  1  0  0  0  0
 22 28  1  0  0  0  0
 22 11  1  0  0  0  0
 23 27  1  0  0  0  0
 27  7  2  0  0  0  0
 29 13  1  0  0  0  0
 30 31  1  0  0  0  0
 31 29  1  0  0  0  0
M  END
>  <MODEL>
9

>  <REMARK>
 VINA RESULT:      -7.8      1.966      5.359
  Name = 
  2 active torsions:
  status: ('A' for Active; 'I' for Inactive)
    1  A    between atoms: C_14  and  C_24
    2  A    between atoms: C_19  and  C_24
                            x       y       z     vdW  Elec       q    Type
                         _______ _______ _______ _____ _____    ______ ____

>  <TORSDO>
F 2

$$$$
