=
 OpenBabel11042416363D

 32 34  0  0  0  0  0  0  0  0999 V2000
  189.8970  176.7410  144.7180 C   0  0  0  0  0  0  0  0  0  0  0  0
  188.6380  176.0650  144.6730 N   0  0  0  0  0  2  0  0  0  0  0  0
  189.9400  178.0030  144.7040 O   0  0  0  0  0  0  0  0  0  0  0  0
  185.3170  177.5750  147.8120 F   0  0  0  0  0  0  0  0  0  0  0  0
  184.4980  178.2090  143.2240 N   0  0  0  0  0  0  0  0  0  0  0  0
  184.8670  178.1330  141.9150 C   0  0  0  0  0  0  0  0  0  0  0  0
  186.1080  177.5630  141.5910 C   0  0  0  0  0  0  0  0  0  0  0  0
  186.9090  177.0900  142.5820 N   0  0  0  0  0  0  0  0  0  0  0  0
  186.5620  177.4680  140.1760 C   0  0  0  0  0  1  0  0  0  0  0  0
  184.9200  177.8600  145.5150 N   0  0  0  0  0  0  0  0  0  0  0  0
  186.5330  177.1470  143.8870 C   0  0  0  0  0  0  0  0  0  0  0  0
  186.9500  176.8330  146.2480 C   0  0  0  0  0  3  0  0  0  0  0  0
  185.2970  177.7390  144.2150 C   0  0  0  0  0  0  0  0  0  0  0  0
  185.7180  177.4280  146.5280 C   0  0  0  0  0  0  0  0  0  0  0  0
  187.3600  176.6670  144.9220 C   0  0  0  0  0  0  0  0  0  0  0  0
  184.0370  178.6170  140.8920 O   0  0  0  0  0  0  0  0  0  0  0  0
  182.8160  178.0500  140.5020 C   0  0  0  0  0  0  0  0  0  0  0  0
  181.5800  178.4190  141.2390 C   0  0  0  0  0  1  0  0  0  0  0  0
  182.7410  177.2350  139.5450 O   0  0  0  0  0  0  0  0  0  0  0  0
  191.0720  175.9800  144.7230 O   0  0  0  0  0  0  0  0  0  0  0  0
  191.0680  175.4430  146.9710 O   0  0  0  0  0  0  0  0  0  0  0  0
  191.6720  175.4250  145.8630 C   0  0  0  0  0  0  0  0  0  0  0  0
  193.1090  173.4640  145.3830 C   0  0  0  0  0  3  0  0  0  0  0  0
  194.2430  176.9290  146.5230 C   0  0  0  0  0  1  0  0  0  0  0  0
  194.3420  172.8200  145.2870 C   0  0  0  0  0  3  0  0  0  0  0  0
  195.4500  174.8460  145.9890 C   0  0  0  0  0  3  0  0  0  0  0  0
  193.0210  174.8070  145.7830 C   0  0  0  0  0  0  0  0  0  0  0  0
  194.2180  175.5020  146.0900 C   0  0  0  0  0  0  0  0  0  0  0  0
  195.5210  173.5060  145.5890 C   0  0  0  0  0  0  0  0  0  0  0  0
  196.8210  172.8240  145.4870 C   0  0  0  0  0  0  0  0  0  0  0  0
  197.8560  173.3960  144.7560 O   0  0  0  0  0  0  0  0  0  0  0  0
  197.0090  171.7180  146.0600 O   0  0  0  0  0  1  0  0  0  0  0  0
  1 20  1  0  0  0  0
  2  1  1  0  0  0  0
  2 15  1  0  0  0  0
  3  1  2  0  0  0  0
  5 13  1  0  0  0  0
  6  5  2  0  0  0  0
  7  6  1  0  0  0  0
  7  8  2  0  0  0  0
  8 11  1  0  0  0  0
  9  7  1  0  0  0  0
 10 14  1  0  0  0  0
 11 13  1  0  0  0  0
 11 15  2  0  0  0  0
 12 14  2  0  0  0  0
 13 10  2  0  0  0  0
 14  4  1  0  0  0  0
 15 12  1  0  0  0  0
 16  6  1  0  0  0  0
 17 16  1  0  0  0  0
 17 18  1  0  0  0  0
 19 17  2  0  0  0  0
 20 22  1  0  0  0  0
 22 21  2  0  0  0  0
 23 27  1  0  0  0  0
 25 23  2  0  0  0  0
 25 29  1  0  0  0  0
 26 28  1  0  0  0  0
 27 22  1  0  0  0  0
 27 28  2  0  0  0  0
 28 24  1  0  0  0  0
 29 26  2  0  0  0  0
 30 29  1  0  0  0  0
 30 32  1  0  0  0  0
 31 30  2  0  0  0  0
M  END
>  <MODEL>
1

>  <REMARK>
 VINA RESULT:      -7.9      0.000      0.000
  Name = 
  7 active torsions:
  status: ('A' for Active; 'I' for Inactive)
    1  A    between atoms: C_5  and  O_10
    2  A    between atoms: C_6  and  C_21
    3  A    between atoms: O_10  and  C_15
    4  A    between atoms: C_17  and  C_29
    5  A    between atoms: C_19  and  O_30
    6  A    between atoms: N_22  and  C_31
    7  A    between atoms: C_29  and  O_30
                            x       y       z     vdW  Elec       q    Type
                         _______ _______ _______ _____ _____    ______ ____

>  <TORSDO>
F 7

$$$$
=
 OpenBabel11042416363D

 32 34  0  0  0  0  0  0  0  0999 V2000
  189.1780  175.7730  147.0340 C   0  0  0  0  0  0  0  0  0  0  0  0
  188.8570  177.1240  146.6870 N   0  0  0  0  0  2  0  0  0  0  0  0
  188.2650  174.9710  147.3730 O   0  0  0  0  0  0  0  0  0  0  0  0
  184.5160  178.5490  148.2010 F   0  0  0  0  0  0  0  0  0  0  0  0
  185.4370  178.7240  143.5920 N   0  0  0  0  0  0  0  0  0  0  0  0
  186.2740  178.5780  142.5260 C   0  0  0  0  0  0  0  0  0  0  0  0
  187.5780  178.1090  142.7460 C   0  0  0  0  0  0  0  0  0  0  0  0
  187.9770  177.8000  144.0080 N   0  0  0  0  0  0  0  0  0  0  0  0
  188.5340  177.9440  141.6160 C   0  0  0  0  0  1  0  0  0  0  0  0
  184.9910  178.6060  145.9020 N   0  0  0  0  0  0  0  0  0  0  0  0
  187.1370  177.9250  145.0690 C   0  0  0  0  0  0  0  0  0  0  0  0
  186.6580  177.8480  147.4380 C   0  0  0  0  0  3  0  0  0  0  0  0
  185.8350  178.4170  144.8530 C   0  0  0  0  0  0  0  0  0  0  0  0
  185.3770  178.3380  147.1780 C   0  0  0  0  0  0  0  0  0  0  0  0
  187.5440  177.6150  146.3820 C   0  0  0  0  0  0  0  0  0  0  0  0
  185.8590  178.8930  141.2230 O   0  0  0  0  0  0  0  0  0  0  0  0
  185.0530  178.0830  140.4110 C   0  0  0  0  0  0  0  0  0  0  0  0
  183.5760  178.1680  140.5440 C   0  0  0  0  0  1  0  0  0  0  0  0
  185.5500  177.2850  139.5730 O   0  0  0  0  0  0  0  0  0  0  0  0
  190.5220  175.3810  147.0390 O   0  0  0  0  0  0  0  0  0  0  0  0
  191.6360  177.0740  148.1480 O   0  0  0  0  0  0  0  0  0  0  0  0
  191.6170  176.2420  147.1990 C   0  0  0  0  0  0  0  0  0  0  0  0
  193.9650  175.6120  146.7210 C   0  0  0  0  0  3  0  0  0  0  0  0
  191.5030  177.3070  144.3430 C   0  0  0  0  0  1  0  0  0  0  0  0
  195.0860  175.5260  145.8950 C   0  0  0  0  0  3  0  0  0  0  0  0
  193.8500  176.5870  144.1150 C   0  0  0  0  0  3  0  0  0  0  0  0
  192.7680  176.1860  146.2620 C   0  0  0  0  0  0  0  0  0  0  0  0
  192.7200  176.6800  144.9340 C   0  0  0  0  0  0  0  0  0  0  0  0
  195.0370  176.0130  144.5870 C   0  0  0  0  0  0  0  0  0  0  0  0
  196.2200  175.9220  143.7180 C   0  0  0  0  0  0  0  0  0  0  0  0
  196.3980  176.8270  142.6770 O   0  0  0  0  0  0  0  0  0  0  0  0
  197.0850  175.0250  143.9080 O   0  0  0  0  0  1  0  0  0  0  0  0
  1 20  1  0  0  0  0
  1  3  2  0  0  0  0
  2  1  1  0  0  0  0
  5 13  1  0  0  0  0
  6  7  1  0  0  0  0
  6  5  2  0  0  0  0
  7  8  2  0  0  0  0
  8 11  1  0  0  0  0
  9  7  1  0  0  0  0
 10 14  1  0  0  0  0
 11 15  2  0  0  0  0
 13 11  1  0  0  0  0
 13 10  2  0  0  0  0
 14 12  2  0  0  0  0
 14  4  1  0  0  0  0
 15  2  1  0  0  0  0
 15 12  1  0  0  0  0
 16  6  1  0  0  0  0
 17 18  1  0  0  0  0
 17 16  1  0  0  0  0
 19 17  2  0  0  0  0
 20 22  1  0  0  0  0
 22 21  2  0  0  0  0
 24 28  1  0  0  0  0
 25 23  2  0  0  0  0
 26 29  2  0  0  0  0
 26 28  1  0  0  0  0
 27 23  1  0  0  0  0
 27 22  1  0  0  0  0
 28 27  2  0  0  0  0
 29 25  1  0  0  0  0
 30 32  1  0  0  0  0
 30 29  1  0  0  0  0
 31 30  2  0  0  0  0
M  END
>  <MODEL>
2

>  <REMARK>
 VINA RESULT:      -7.9      1.946      2.461
  Name = 
  7 active torsions:
  status: ('A' for Active; 'I' for Inactive)
    1  A    between atoms: C_5  and  O_10
    2  A    between atoms: C_6  and  C_21
    3  A    between atoms: O_10  and  C_15
    4  A    between atoms: C_17  and  C_29
    5  A    between atoms: C_19  and  O_30
    6  A    between atoms: N_22  and  C_31
    7  A    between atoms: C_29  and  O_30
                            x       y       z     vdW  Elec       q    Type
                         _______ _______ _______ _____ _____    ______ ____

>  <TORSDO>
F 7

$$$$
=
 OpenBabel11042416363D

 32 34  0  0  0  0  0  0  0  0999 V2000
  189.9360  177.3890  145.3840 C   0  0  0  0  0  0  0  0  0  0  0  0
  190.7980  176.2480  145.3580 N   0  0  0  0  0  2  0  0  0  0  0  0
  190.0910  178.3210  144.5470 O   0  0  0  0  0  0  0  0  0  0  0  0
  195.2030  176.1480  143.4220 F   0  0  0  0  0  0  0  0  0  0  0  0
  191.6760  174.1440  141.0410 N   0  0  0  0  0  0  0  0  0  0  0  0
  190.3760  173.7580  140.9160 C   0  0  0  0  0  0  0  0  0  0  0  0
  189.4720  174.0750  141.9430 C   0  0  0  0  0  0  0  0  0  0  0  0
  189.9060  174.7670  143.0290 N   0  0  0  0  0  0  0  0  0  0  0  0
  188.0430  173.6660  141.8590 C   0  0  0  0  0  1  0  0  0  0  0  0
  193.4220  175.1740  142.2410 N   0  0  0  0  0  0  0  0  0  0  0  0
  191.1980  175.1700  143.1460 C   0  0  0  0  0  0  0  0  0  0  0  0
  193.0190  176.1900  144.3670 C   0  0  0  0  0  3  0  0  0  0  0  0
  192.1110  174.8330  142.1260 C   0  0  0  0  0  0  0  0  0  0  0  0
  193.8890  175.8350  143.3340 C   0  0  0  0  0  0  0  0  0  0  0  0
  191.6590  175.8800  144.2720 C   0  0  0  0  0  0  0  0  0  0  0  0
  189.9280  173.0490  139.7910 O   0  0  0  0  0  0  0  0  0  0  0  0
  189.7180  173.5970  138.5180 C   0  0  0  0  0  0  0  0  0  0  0  0
  188.3290  173.8800  138.0750 C   0  0  0  0  0  1  0  0  0  0  0  0
  190.6760  173.8530  137.7430 O   0  0  0  0  0  0  0  0  0  0  0  0
  188.9590  177.4740  146.3840 O   0  0  0  0  0  0  0  0  0  0  0  0
  187.3060  176.0810  147.2000 O   0  0  0  0  0  0  0  0  0  0  0  0
  187.6800  176.9020  146.3170 C   0  0  0  0  0  0  0  0  0  0  0  0
  186.8330  176.5230  144.0200 C   0  0  0  0  0  3  0  0  0  0  0  0
  185.6080  179.1310  146.5280 C   0  0  0  0  0  1  0  0  0  0  0  0
  185.9900  176.8010  142.9430 C   0  0  0  0  0  3  0  0  0  0  0  0
  184.9450  178.5600  144.2220 C   0  0  0  0  0  3  0  0  0  0  0  0
  186.7490  177.2560  145.2150 C   0  0  0  0  0  0  0  0  0  0  0  0
  185.7850  178.2910  145.3080 C   0  0  0  0  0  0  0  0  0  0  0  0
  185.0400  177.8210  143.0370 C   0  0  0  0  0  0  0  0  0  0  0  0
  184.1530  178.1120  141.9010 C   0  0  0  0  0  0  0  0  0  0  0  0
  182.7990  178.3490  142.1110 O   0  0  0  0  0  1  0  0  0  0  0  0
  184.6090  178.1520  140.7270 O   0  0  0  0  0  0  0  0  0  0  0  0
  1 20  1  0  0  0  0
  2  1  1  0  0  0  0
  3  1  2  0  0  0  0
  5 13  1  0  0  0  0
  6  5  2  0  0  0  0
  6  7  1  0  0  0  0
  7  8  2  0  0  0  0
  8 11  1  0  0  0  0
  9  7  1  0  0  0  0
 10 14  1  0  0  0  0
 11 15  2  0  0  0  0
 13 10  2  0  0  0  0
 13 11  1  0  0  0  0
 14  4  1  0  0  0  0
 14 12  2  0  0  0  0
 15 12  1  0  0  0  0
 15  2  1  0  0  0  0
 16  6  1  0  0  0  0
 17 16  1  0  0  0  0
 18 17  1  0  0  0  0
 19 17  2  0  0  0  0
 22 20  1  0  0  0  0
 22 21  2  0  0  0  0
 23 27  1  0  0  0  0
 25 29  1  0  0  0  0
 25 23  2  0  0  0  0
 26 28  1  0  0  0  0
 27 28  2  0  0  0  0
 27 22  1  0  0  0  0
 28 24  1  0  0  0  0
 29 26  2  0  0  0  0
 30 31  1  0  0  0  0
 30 29  1  0  0  0  0
 32 30  2  0  0  0  0
M  END
>  <MODEL>
3

>  <REMARK>
 VINA RESULT:      -7.7      4.063      8.381
  Name = 
  7 active torsions:
  status: ('A' for Active; 'I' for Inactive)
    1  A    between atoms: C_5  and  O_10
    2  A    between atoms: C_6  and  C_21
    3  A    between atoms: O_10  and  C_15
    4  A    between atoms: C_17  and  C_29
    5  A    between atoms: C_19  and  O_30
    6  A    between atoms: N_22  and  C_31
    7  A    between atoms: C_29  and  O_30
                            x       y       z     vdW  Elec       q    Type
                         _______ _______ _______ _____ _____    ______ ____

>  <TORSDO>
F 7

$$$$
=
 OpenBabel11042416363D

 32 34  0  0  0  0  0  0  0  0999 V2000
  189.8020  175.1970  146.5600 C   0  0  0  0  0  0  0  0  0  0  0  0
  190.7860  175.2200  145.5210 N   0  0  0  0  0  2  0  0  0  0  0  0
  190.1400  174.9360  147.7470 O   0  0  0  0  0  0  0  0  0  0  0  0
  194.6630  177.6520  147.0090 F   0  0  0  0  0  0  0  0  0  0  0  0
  195.2600  173.2700  145.4090 N   0  0  0  0  0  0  0  0  0  0  0  0
  194.7790  172.0890  144.9290 C   0  0  0  0  0  0  0  0  0  0  0  0
  193.3980  171.9540  144.7160 C   0  0  0  0  0  0  0  0  0  0  0  0
  192.5730  173.0020  144.9780 N   0  0  0  0  0  0  0  0  0  0  0  0
  192.8220  170.6800  144.2040 C   0  0  0  0  0  1  0  0  0  0  0  0
  194.9390  175.4710  146.1840 N   0  0  0  0  0  0  0  0  0  0  0  0
  193.0530  174.1870  145.4370 C   0  0  0  0  0  0  0  0  0  0  0  0
  192.7550  176.4370  146.2690 C   0  0  0  0  0  3  0  0  0  0  0  0
  194.4370  174.3160  145.6730 C   0  0  0  0  0  0  0  0  0  0  0  0
  194.1320  176.5210  146.4890 C   0  0  0  0  0  0  0  0  0  0  0  0
  192.2050  175.2760  145.7190 C   0  0  0  0  0  0  0  0  0  0  0  0
  195.6330  171.0100  144.6530 O   0  0  0  0  0  0  0  0  0  0  0  0
  196.7940  170.6900  145.3710 C   0  0  0  0  0  0  0  0  0  0  0  0
  196.6900  169.7830  146.5430 C   0  0  0  0  0  1  0  0  0  0  0  0
  197.9200  171.1530  145.0490 O   0  0  0  0  0  0  0  0  0  0  0  0
  188.4610  175.4170  146.2230 O   0  0  0  0  0  0  0  0  0  0  0  0
  187.7590  177.5190  146.8790 O   0  0  0  0  0  0  0  0  0  0  0  0
  187.8880  176.6690  145.9540 C   0  0  0  0  0  0  0  0  0  0  0  0
  186.1000  176.7290  144.2410 C   0  0  0  0  0  3  0  0  0  0  0  0
  189.6960  177.9600  143.8640 C   0  0  0  0  0  1  0  0  0  0  0  0
  185.6030  177.0260  142.9720 C   0  0  0  0  0  3  0  0  0  0  0  0
  187.7580  177.9070  142.3390 C   0  0  0  0  0  3  0  0  0  0  0  0
  187.4310  177.0140  144.5840 C   0  0  0  0  0  0  0  0  0  0  0  0
  188.2680  177.6140  143.6090 C   0  0  0  0  0  0  0  0  0  0  0  0
  186.4280  177.6170  142.0120 C   0  0  0  0  0  0  0  0  0  0  0  0
  185.9020  177.9280  140.6740 C   0  0  0  0  0  0  0  0  0  0  0  0
  186.6200  177.5730  139.5380 O   0  0  0  0  0  0  0  0  0  0  0  0
  184.7970  178.5200  140.5440 O   0  0  0  0  0  1  0  0  0  0  0  0
  1  3  2  0  0  0  0
  2 15  1  0  0  0  0
  2  1  1  0  0  0  0
  5 13  1  0  0  0  0
  6  5  2  0  0  0  0
  7  6  1  0  0  0  0
  7  8  2  0  0  0  0
  8 11  1  0  0  0  0
  9  7  1  0  0  0  0
 10 14  1  0  0  0  0
 11 13  1  0  0  0  0
 11 15  2  0  0  0  0
 12 14  2  0  0  0  0
 13 10  2  0  0  0  0
 14  4  1  0  0  0  0
 15 12  1  0  0  0  0
 16  6  1  0  0  0  0
 16 17  1  0  0  0  0
 17 18  1  0  0  0  0
 19 17  2  0  0  0  0
 20  1  1  0  0  0  0
 22 20  1  0  0  0  0
 22 21  2  0  0  0  0
 23 27  1  0  0  0  0
 25 23  2  0  0  0  0
 26 28  1  0  0  0  0
 27 22  1  0  0  0  0
 28 24  1  0  0  0  0
 28 27  2  0  0  0  0
 29 26  2  0  0  0  0
 29 25  1  0  0  0  0
 30 29  1  0  0  0  0
 31 30  2  0  0  0  0
 32 30  1  0  0  0  0
M  END
>  <MODEL>
4

>  <REMARK>
 VINA RESULT:      -7.6      3.099     10.044
  Name = 
  7 active torsions:
  status: ('A' for Active; 'I' for Inactive)
    1  A    between atoms: C_5  and  O_10
    2  A    between atoms: C_6  and  C_21
    3  A    between atoms: O_10  and  C_15
    4  A    between atoms: C_17  and  C_29
    5  A    between atoms: C_19  and  O_30
    6  A    between atoms: N_22  and  C_31
    7  A    between atoms: C_29  and  O_30
                            x       y       z     vdW  Elec       q    Type
                         _______ _______ _______ _____ _____    ______ ____

>  <TORSDO>
F 7

$$$$
=
 OpenBabel11042416363D

 32 34  0  0  0  0  0  0  0  0999 V2000
  189.2910  177.2480  145.3680 C   0  0  0  0  0  0  0  0  0  0  0  0
  189.6400  175.8800  145.1320 N   0  0  0  0  0  2  0  0  0  0  0  0
  189.9380  178.1740  144.8050 O   0  0  0  0  0  0  0  0  0  0  0  0
  190.0590  174.1870  140.6460 F   0  0  0  0  0  0  0  0  0  0  0  0
  193.9840  174.8680  143.1470 N   0  0  0  0  0  0  0  0  0  0  0  0
  194.6400  175.2850  144.2660 C   0  0  0  0  0  0  0  0  0  0  0  0
  193.8920  175.7700  145.3510 C   0  0  0  0  0  0  0  0  0  0  0  0
  192.5360  175.8030  145.2700 N   0  0  0  0  0  0  0  0  0  0  0  0
  194.5630  176.2480  146.5920 C   0  0  0  0  0  1  0  0  0  0  0  0
  192.0040  174.5140  141.9230 N   0  0  0  0  0  0  0  0  0  0  0  0
  191.8790  175.3680  144.1620 C   0  0  0  0  0  0  0  0  0  0  0  0
  189.8680  175.0240  142.8660 C   0  0  0  0  0  3  0  0  0  0  0  0
  192.6300  174.9020  143.0650 C   0  0  0  0  0  0  0  0  0  0  0  0
  190.6500  174.5700  141.8020 C   0  0  0  0  0  0  0  0  0  0  0  0
  190.4750  175.4060  144.0660 C   0  0  0  0  0  0  0  0  0  0  0  0
  196.0400  175.2440  144.3500 O   0  0  0  0  0  0  0  0  0  0  0  0
  196.9250  175.8490  143.4470 C   0  0  0  0  0  0  0  0  0  0  0  0
  197.9340  175.0080  142.7530 C   0  0  0  0  0  1  0  0  0  0  0  0
  196.8860  177.0850  143.2100 O   0  0  0  0  0  0  0  0  0  0  0  0
  188.2590  177.5330  146.2700 O   0  0  0  0  0  0  0  0  0  0  0  0
  186.4830  176.3140  147.1040 O   0  0  0  0  0  0  0  0  0  0  0  0
  186.9490  177.0420  146.1840 C   0  0  0  0  0  0  0  0  0  0  0  0
  186.4010  176.7860  143.7810 C   0  0  0  0  0  3  0  0  0  0  0  0
  184.5590  178.9320  146.3490 C   0  0  0  0  0  1  0  0  0  0  0  0
  185.6390  177.0520  142.6440 C   0  0  0  0  0  3  0  0  0  0  0  0
  184.2220  178.5120  143.9420 C   0  0  0  0  0  3  0  0  0  0  0  0
  186.0910  177.3750  145.0180 C   0  0  0  0  0  0  0  0  0  0  0  0
  184.9800  178.2520  145.0890 C   0  0  0  0  0  0  0  0  0  0  0  0
  184.5440  177.9180  142.7170 C   0  0  0  0  0  0  0  0  0  0  0  0
  183.7420  178.1980  141.5160 C   0  0  0  0  0  0  0  0  0  0  0  0
  182.3560  178.0970  141.5600 O   0  0  0  0  0  1  0  0  0  0  0  0
  184.3010  178.5330  140.4370 O   0  0  0  0  0  0  0  0  0  0  0  0
  1 20  1  0  0  0  0
  2  1  1  0  0  0  0
  3  1  2  0  0  0  0
  4 14  1  0  0  0  0
  5  6  2  0  0  0  0
  6 16  1  0  0  0  0
  6  7  1  0  0  0  0
  7  9  1  0  0  0  0
  8  7  2  0  0  0  0
 10 13  1  0  0  0  0
 11  8  1  0  0  0  0
 12 15  2  0  0  0  0
 13  5  1  0  0  0  0
 13 11  2  0  0  0  0
 14 10  2  0  0  0  0
 14 12  1  0  0  0  0
 15 11  1  0  0  0  0
 15  2  1  0  0  0  0
 17 16  1  0  0  0  0
 18 17  1  0  0  0  0
 19 17  2  0  0  0  0
 22 20  1  0  0  0  0
 22 21  2  0  0  0  0
 23 27  1  0  0  0  0
 25 29  1  0  0  0  0
 25 23  2  0  0  0  0
 26 28  1  0  0  0  0
 27 28  2  0  0  0  0
 27 22  1  0  0  0  0
 28 24  1  0  0  0  0
 29 26  2  0  0  0  0
 30 31  1  0  0  0  0
 30 29  1  0  0  0  0
 32 30  2  0  0  0  0
M  END
>  <MODEL>
5

>  <REMARK>
 VINA RESULT:      -7.6      2.978      9.910
  Name = 
  7 active torsions:
  status: ('A' for Active; 'I' for Inactive)
    1  A    between atoms: C_5  and  O_10
    2  A    between atoms: C_6  and  C_21
    3  A    between atoms: O_10  and  C_15
    4  A    between atoms: C_17  and  C_29
    5  A    between atoms: C_19  and  O_30
    6  A    between atoms: N_22  and  C_31
    7  A    between atoms: C_29  and  O_30
                            x       y       z     vdW  Elec       q    Type
                         _______ _______ _______ _____ _____    ______ ____

>  <TORSDO>
F 7

$$$$
=
 OpenBabel11042416363D

 32 34  0  0  0  0  0  0  0  0999 V2000
  189.3200  176.3410  146.2050 C   0  0  0  0  0  0  0  0  0  0  0  0
  189.4450  177.0090  144.9460 N   0  0  0  0  0  2  0  0  0  0  0  0
  188.3470  175.5650  146.4170 O   0  0  0  0  0  0  0  0  0  0  0  0
  189.3010  174.6200  140.7700 F   0  0  0  0  0  0  0  0  0  0  0  0
  185.5290  177.1310  142.0320 N   0  0  0  0  0  0  0  0  0  0  0  0
  184.8470  177.9180  142.9110 C   0  0  0  0  0  0  0  0  0  0  0  0
  185.4700  178.2920  144.1120 C   0  0  0  0  0  0  0  0  0  0  0  0
  186.7380  177.8760  144.3690 N   0  0  0  0  0  0  0  0  0  0  0  0
  184.7630  179.1410  145.1100 C   0  0  0  0  0  1  0  0  0  0  0  0
  187.4380  175.8990  141.4110 N   0  0  0  0  0  0  0  0  0  0  0  0
  187.4270  177.1080  143.4850 C   0  0  0  0  0  0  0  0  0  0  0  0
  189.3580  175.8070  142.8330 C   0  0  0  0  0  3  0  0  0  0  0  0
  186.7950  176.7130  142.2890 C   0  0  0  0  0  0  0  0  0  0  0  0
  188.6930  175.4390  141.6600 C   0  0  0  0  0  0  0  0  0  0  0  0
  188.7380  176.6640  143.7460 C   0  0  0  0  0  0  0  0  0  0  0  0
  183.5410  178.3520  142.6410 O   0  0  0  0  0  0  0  0  0  0  0  0
  182.9380  178.3740  141.3760 C   0  0  0  0  0  0  0  0  0  0  0  0
  181.4750  178.1390  141.2690 C   0  0  0  0  0  1  0  0  0  0  0  0
  183.6060  178.5860  140.3290 O   0  0  0  0  0  0  0  0  0  0  0  0
  190.2620  176.6070  147.2050 O   0  0  0  0  0  0  0  0  0  0  0  0
  191.4500  175.1380  148.5350 O   0  0  0  0  0  0  0  0  0  0  0  0
  191.3950  175.8270  147.4790 C   0  0  0  0  0  0  0  0  0  0  0  0
  193.5630  176.7430  146.7050 C   0  0  0  0  0  3  0  0  0  0  0  0
  191.6250  173.8180  145.1960 C   0  0  0  0  0  1  0  0  0  0  0  0
  194.6680  176.7730  145.8550 C   0  0  0  0  0  3  0  0  0  0  0  0
  193.7640  174.9040  144.6240 C   0  0  0  0  0  3  0  0  0  0  0  0
  192.5400  175.7970  146.5340 C   0  0  0  0  0  0  0  0  0  0  0  0
  192.6510  174.8650  145.4710 C   0  0  0  0  0  0  0  0  0  0  0  0
  194.7760  175.8540  144.8080 C   0  0  0  0  0  0  0  0  0  0  0  0
  195.9420  175.8870  143.9110 C   0  0  0  0  0  0  0  0  0  0  0  0
  196.5870  177.0890  143.6450 O   0  0  0  0  0  1  0  0  0  0  0  0
  196.3680  174.8280  143.3770 O   0  0  0  0  0  0  0  0  0  0  0  0
  1  3  2  0  0  0  0
  1 20  1  0  0  0  0
  2  1  1  0  0  0  0
  4 14  1  0  0  0  0
  5 13  1  0  0  0  0
  5  6  2  0  0  0  0
  6  7  1  0  0  0  0
  7  8  2  0  0  0  0
  7  9  1  0  0  0  0
 10 14  2  0  0  0  0
 10 13  1  0  0  0  0
 11 15  1  0  0  0  0
 11  8  1  0  0  0  0
 12 15  2  0  0  0  0
 13 11  2  0  0  0  0
 14 12  1  0  0  0  0
 15  2  1  0  0  0  0
 16  6  1  0  0  0  0
 17 16  1  0  0  0  0
 18 17  1  0  0  0  0
 19 17  2  0  0  0  0
 20 22  1  0  0  0  0
 22 21  2  0  0  0  0
 24 28  1  0  0  0  0
 25 23  2  0  0  0  0
 26 29  2  0  0  0  0
 26 28  1  0  0  0  0
 27 23  1  0  0  0  0
 27 22  1  0  0  0  0
 28 27  2  0  0  0  0
 29 25  1  0  0  0  0
 30 29  1  0  0  0  0
 31 30  1  0  0  0  0
 32 30  2  0  0  0  0
M  END
>  <MODEL>
6

>  <REMARK>
 VINA RESULT:      -7.6      2.437      3.352
  Name = 
  7 active torsions:
  status: ('A' for Active; 'I' for Inactive)
    1  A    between atoms: C_5  and  O_10
    2  A    between atoms: C_6  and  C_21
    3  A    between atoms: O_10  and  C_15
    4  A    between atoms: C_17  and  C_29
    5  A    between atoms: C_19  and  O_30
    6  A    between atoms: N_22  and  C_31
    7  A    between atoms: C_29  and  O_30
                            x       y       z     vdW  Elec       q    Type
                         _______ _______ _______ _____ _____    ______ ____

>  <TORSDO>
F 7

$$$$
=
 OpenBabel11042416363D

 32 34  0  0  0  0  0  0  0  0999 V2000
  189.2420  176.1290  147.0000 C   0  0  0  0  0  0  0  0  0  0  0  0
  188.6960  177.4470  146.8900 N   0  0  0  0  0  2  0  0  0  0  0  0
  188.4800  175.1230  146.9840 O   0  0  0  0  0  0  0  0  0  0  0  0
  184.0780  178.2900  147.9510 F   0  0  0  0  0  0  0  0  0  0  0  0
  185.4240  178.5970  143.4540 N   0  0  0  0  0  0  0  0  0  0  0  0
  186.3740  178.5650  142.4790 C   0  0  0  0  0  0  0  0  0  0  0  0
  187.7000  178.2690  142.8310 C   0  0  0  0  0  0  0  0  0  0  0  0
  188.0080  178.0100  144.1290 N   0  0  0  0  0  0  0  0  0  0  0  0
  188.7770  178.2330  141.8030 C   0  0  0  0  0  1  0  0  0  0  0  0
  184.7690  178.4150  145.7100 N   0  0  0  0  0  0  0  0  0  0  0  0
  187.0580  178.0220  145.1010 C   0  0  0  0  0  0  0  0  0  0  0  0
  186.3590  177.8750  147.4110 C   0  0  0  0  0  3  0  0  0  0  0  0
  185.7300  178.3400  144.7520 C   0  0  0  0  0  0  0  0  0  0  0  0
  185.0570  178.1950  147.0200 C   0  0  0  0  0  0  0  0  0  0  0  0
  187.3680  177.7630  146.4500 C   0  0  0  0  0  0  0  0  0  0  0  0
  186.0540  178.8260  141.1380 O   0  0  0  0  0  0  0  0  0  0  0  0
  185.4660  177.9130  140.2510 C   0  0  0  0  0  0  0  0  0  0  0  0
  186.3400  177.1150  139.3540 C   0  0  0  0  0  1  0  0  0  0  0  0
  184.2190  177.7540  140.1960 O   0  0  0  0  0  0  0  0  0  0  0  0
  190.6240  175.9840  147.1770 O   0  0  0  0  0  0  0  0  0  0  0  0
  192.6290  174.9220  146.7460 O   0  0  0  0  0  0  0  0  0  0  0  0
  191.4730  175.2360  146.3500 C   0  0  0  0  0  0  0  0  0  0  0  0
  190.5290  173.4920  144.8630 C   0  0  0  0  0  3  0  0  0  0  0  0
  191.5790  177.0330  143.8870 C   0  0  0  0  0  1  0  0  0  0  0  0
  190.0910  173.0150  143.6280 C   0  0  0  0  0  3  0  0  0  0  0  0
  190.6300  175.1410  142.6210 C   0  0  0  0  0  3  0  0  0  0  0  0
  191.0250  174.7990  145.0020 C   0  0  0  0  0  0  0  0  0  0  0  0
  191.0720  175.6300  143.8550 C   0  0  0  0  0  0  0  0  0  0  0  0
  190.1390  173.8360  142.4980 C   0  0  0  0  0  0  0  0  0  0  0  0
  189.6760  173.3300  141.1970 C   0  0  0  0  0  0  0  0  0  0  0  0
  188.7060  172.3370  141.1350 O   0  0  0  0  0  1  0  0  0  0  0  0
  190.1530  173.7920  140.1260 O   0  0  0  0  0  0  0  0  0  0  0  0
  1 20  1  0  0  0  0
  2  1  1  0  0  0  0
  3  1  2  0  0  0  0
  5 13  1  0  0  0  0
  6  7  1  0  0  0  0
  6  5  2  0  0  0  0
  7  8  2  0  0  0  0
  8 11  1  0  0  0  0
  9  7  1  0  0  0  0
 10 14  1  0  0  0  0
 11 15  2  0  0  0  0
 13 11  1  0  0  0  0
 13 10  2  0  0  0  0
 14 12  2  0  0  0  0
 14  4  1  0  0  0  0
 15  2  1  0  0  0  0
 15 12  1  0  0  0  0
 16  6  1  0  0  0  0
 17 16  1  0  0  0  0
 18 17  1  0  0  0  0
 19 17  2  0  0  0  0
 22 21  2  0  0  0  0
 22 20  1  0  0  0  0
 23 27  1  0  0  0  0
 25 23  2  0  0  0  0
 26 28  1  0  0  0  0
 27 22  1  0  0  0  0
 28 24  1  0  0  0  0
 28 27  2  0  0  0  0
 29 26  2  0  0  0  0
 29 25  1  0  0  0  0
 30 29  1  0  0  0  0
 31 30  1  0  0  0  0
 32 30  2  0  0  0  0
M  END
>  <MODEL>
7

>  <REMARK>
 VINA RESULT:      -7.5      2.803      3.965
  Name = 
  7 active torsions:
  status: ('A' for Active; 'I' for Inactive)
    1  A    between atoms: C_5  and  O_10
    2  A    between atoms: C_6  and  C_21
    3  A    between atoms: O_10  and  C_15
    4  A    between atoms: C_17  and  C_29
    5  A    between atoms: C_19  and  O_30
    6  A    between atoms: N_22  and  C_31
    7  A    between atoms: C_29  and  O_30
                            x       y       z     vdW  Elec       q    Type
                         _______ _______ _______ _____ _____    ______ ____

>  <TORSDO>
F 7

$$$$
=
 OpenBabel11042416363D

 32 34  0  0  0  0  0  0  0  0999 V2000
  189.3350  176.8010  145.5590 C   0  0  0  0  0  0  0  0  0  0  0  0
  188.0250  176.2390  145.6840 N   0  0  0  0  0  2  0  0  0  0  0  0
  189.4820  177.9720  145.1110 O   0  0  0  0  0  0  0  0  0  0  0  0
  184.4560  178.4800  148.0090 F   0  0  0  0  0  0  0  0  0  0  0  0
  184.3920  178.4710  143.3060 N   0  0  0  0  0  0  0  0  0  0  0  0
  184.9400  178.1660  142.0960 C   0  0  0  0  0  0  0  0  0  0  0  0
  186.1480  177.4520  142.0580 C   0  0  0  0  0  0  0  0  0  0  0  0
  186.7400  177.0720  143.2210 N   0  0  0  0  0  0  0  0  0  0  0  0
  186.7930  177.1040  140.7610 C   0  0  0  0  0  1  0  0  0  0  0  0
  184.4340  178.4430  145.6610 N   0  0  0  0  0  0  0  0  0  0  0  0
  186.1850  177.3580  144.4280 C   0  0  0  0  0  0  0  0  0  0  0  0
  186.2150  177.3760  146.8450 C   0  0  0  0  0  3  0  0  0  0  0  0
  184.9830  178.0930  144.4680 C   0  0  0  0  0  0  0  0  0  0  0  0
  185.0240  178.1050  146.8380 C   0  0  0  0  0  0  0  0  0  0  0  0
  186.7950  176.9750  145.6380 C   0  0  0  0  0  0  0  0  0  0  0  0
  184.3240  178.5540  140.8970 O   0  0  0  0  0  0  0  0  0  0  0  0
  183.1660  177.9790  140.3560 C   0  0  0  0  0  0  0  0  0  0  0  0
  181.8450  178.3360  140.9330 C   0  0  0  0  0  1  0  0  0  0  0  0
  183.2190  177.1660  139.3950 O   0  0  0  0  0  0  0  0  0  0  0  0
  190.4420  176.0120  145.8930 O   0  0  0  0  0  0  0  0  0  0  0  0
  192.3830  174.9510  145.2280 O   0  0  0  0  0  0  0  0  0  0  0  0
  191.1720  175.2210  144.9950 C   0  0  0  0  0  0  0  0  0  0  0  0
  190.6220  175.4510  142.5900 C   0  0  0  0  0  3  0  0  0  0  0  0
  189.6910  172.5550  144.9010 C   0  0  0  0  0  1  0  0  0  0  0  0
  190.0470  175.0110  141.3980 C   0  0  0  0  0  3  0  0  0  0  0  0
  189.2720  173.0170  142.5150 C   0  0  0  0  0  3  0  0  0  0  0  0
  190.5350  174.6860  143.7650 C   0  0  0  0  0  0  0  0  0  0  0  0
  189.8450  173.4480  143.7160 C   0  0  0  0  0  0  0  0  0  0  0  0
  189.3680  173.7910  141.3520 C   0  0  0  0  0  0  0  0  0  0  0  0
  188.7610  173.3280  140.0950 C   0  0  0  0  0  0  0  0  0  0  0  0
  188.1920  174.2410  139.2140 O   0  0  0  0  0  0  0  0  0  0  0  0
  188.7520  172.1030  139.8020 O   0  0  0  0  0  1  0  0  0  0  0  0
  1  2  1  0  0  0  0
  1 20  1  0  0  0  0
  3  1  2  0  0  0  0
  5 13  1  0  0  0  0
  6  5  2  0  0  0  0
  7  6  1  0  0  0  0
  7  8  2  0  0  0  0
  8 11  1  0  0  0  0
  9  7  1  0  0  0  0
 10 14  1  0  0  0  0
 11 13  1  0  0  0  0
 11 15  2  0  0  0  0
 13 10  2  0  0  0  0
 14 12  2  0  0  0  0
 14  4  1  0  0  0  0
 15  2  1  0  0  0  0
 15 12  1  0  0  0  0
 16  6  1  0  0  0  0
 17 16  1  0  0  0  0
 17 18  1  0  0  0  0
 19 17  2  0  0  0  0
 22 21  2  0  0  0  0
 22 20  1  0  0  0  0
 23 27  1  0  0  0  0
 25 23  2  0  0  0  0
 26 28  1  0  0  0  0
 27 22  1  0  0  0  0
 28 27  2  0  0  0  0
 28 24  1  0  0  0  0
 29 25  1  0  0  0  0
 29 26  2  0  0  0  0
 30 29  1  0  0  0  0
 31 30  2  0  0  0  0
 32 30  1  0  0  0  0
M  END
>  <MODEL>
8

>  <REMARK>
 VINA RESULT:      -7.5      2.569      4.304
  Name = 
  7 active torsions:
  status: ('A' for Active; 'I' for Inactive)
    1  A    between atoms: C_5  and  O_10
    2  A    between atoms: C_6  and  C_21
    3  A    between atoms: O_10  and  C_15
    4  A    between atoms: C_17  and  C_29
    5  A    between atoms: C_19  and  O_30
    6  A    between atoms: N_22  and  C_31
    7  A    between atoms: C_29  and  O_30
                            x       y       z     vdW  Elec       q    Type
                         _______ _______ _______ _____ _____    ______ ____

>  <TORSDO>
F 7

$$$$
=
 OpenBabel11042416363D

 32 34  0  0  0  0  0  0  0  0999 V2000
  188.7140  175.4820  146.8620 C   0  0  0  0  0  0  0  0  0  0  0  0
  189.6490  175.9580  145.8890 N   0  0  0  0  0  2  0  0  0  0  0  0
  189.0340  174.5410  147.6400 O   0  0  0  0  0  0  0  0  0  0  0  0
  194.0970  177.1740  147.2670 F   0  0  0  0  0  0  0  0  0  0  0  0
  193.5440  173.2560  144.7230 N   0  0  0  0  0  0  0  0  0  0  0  0
  192.7680  172.3370  144.0840 C   0  0  0  0  0  0  0  0  0  0  0  0
  191.3780  172.5270  144.0510 C   0  0  0  0  0  0  0  0  0  0  0  0
  190.8360  173.6240  144.6420 N   0  0  0  0  0  0  0  0  0  0  0  0
  190.4850  171.5440  143.3760 C   0  0  0  0  0  1  0  0  0  0  0  0
  193.7990  175.2340  145.9770 N   0  0  0  0  0  0  0  0  0  0  0  0
  191.6100  174.5530  145.2620 C   0  0  0  0  0  0  0  0  0  0  0  0
  191.9030  176.5600  146.5780 C   0  0  0  0  0  3  0  0  0  0  0  0
  193.0040  174.3520  145.3150 C   0  0  0  0  0  0  0  0  0  0  0  0
  193.2790  176.3210  146.6070 C   0  0  0  0  0  0  0  0  0  0  0  0
  191.0570  175.6890  145.8850 C   0  0  0  0  0  0  0  0  0  0  0  0
  193.3300  171.2070  143.4690 O   0  0  0  0  0  0  0  0  0  0  0  0
  193.7740  170.0570  144.1360 C   0  0  0  0  0  0  0  0  0  0  0  0
  195.2340  169.8330  144.2950 C   0  0  0  0  0  1  0  0  0  0  0  0
  192.9670  169.2100  144.6020 O   0  0  0  0  0  0  0  0  0  0  0  0
  187.4320  176.0410  146.8960 O   0  0  0  0  0  0  0  0  0  0  0  0
  187.4310  178.3260  147.2410 O   0  0  0  0  0  0  0  0  0  0  0  0
  187.1090  177.3500  146.5080 C   0  0  0  0  0  0  0  0  0  0  0  0
  187.0860  177.4040  144.0310 C   0  0  0  0  0  3  0  0  0  0  0  0
  184.2090  178.2900  146.3830 C   0  0  0  0  0  1  0  0  0  0  0  0
  186.4740  177.6260  142.7980 C   0  0  0  0  0  3  0  0  0  0  0  0
  184.4390  178.2630  143.9280 C   0  0  0  0  0  3  0  0  0  0  0  0
  186.3900  177.6070  145.2340 C   0  0  0  0  0  0  0  0  0  0  0  0
  185.0430  178.0440  145.1710 C   0  0  0  0  0  0  0  0  0  0  0  0
  185.1460  178.0570  142.7370 C   0  0  0  0  0  0  0  0  0  0  0  0
  184.5030  178.2900  141.4350 C   0  0  0  0  0  0  0  0  0  0  0  0
  183.1170  178.3370  141.3370 O   0  0  0  0  0  1  0  0  0  0  0  0
  185.1990  178.4510  140.3980 O   0  0  0  0  0  0  0  0  0  0  0  0
  1 20  1  0  0  0  0
  1  3  2  0  0  0  0
  2  1  1  0  0  0  0
  5 13  1  0  0  0  0
  6  5  2  0  0  0  0
  7  6  1  0  0  0  0
  7  8  2  0  0  0  0
  8 11  1  0  0  0  0
  9  7  1  0  0  0  0
 10 14  1  0  0  0  0
 11 13  1  0  0  0  0
 11 15  2  0  0  0  0
 12 14  2  0  0  0  0
 13 10  2  0  0  0  0
 14  4  1  0  0  0  0
 15  2  1  0  0  0  0
 15 12  1  0  0  0  0
 16  6  1  0  0  0  0
 16 17  1  0  0  0  0
 17 18  1  0  0  0  0
 17 19  2  0  0  0  0
 22 20  1  0  0  0  0
 22 21  2  0  0  0  0
 23 27  1  0  0  0  0
 25 23  2  0  0  0  0
 26 28  1  0  0  0  0
 27 22  1  0  0  0  0
 28 27  2  0  0  0  0
 28 24  1  0  0  0  0
 29 25  1  0  0  0  0
 29 26  2  0  0  0  0
 30 29  1  0  0  0  0
 31 30  1  0  0  0  0
 32 30  2  0  0  0  0
M  END
>  <MODEL>
9

>  <REMARK>
 VINA RESULT:      -7.4      3.143      9.630
  Name = 
  7 active torsions:
  status: ('A' for Active; 'I' for Inactive)
    1  A    between atoms: C_5  and  O_10
    2  A    between atoms: C_6  and  C_21
    3  A    between atoms: O_10  and  C_15
    4  A    between atoms: C_17  and  C_29
    5  A    between atoms: C_19  and  O_30
    6  A    between atoms: N_22  and  C_31
    7  A    between atoms: C_29  and  O_30
                            x       y       z     vdW  Elec       q    Type
                         _______ _______ _______ _____ _____    ______ ____

>  <TORSDO>
F 7

$$$$
