=
 OpenBabel11042416253D

 38 42  0  0  1  0  0  0  0  0999 V2000
  189.1410  175.1530  142.0500 C   0  0  2  0  0  3  0  0  0  0  0  0
  187.8770  175.9670  141.8250 C   0  0  0  0  0  2  0  0  0  0  0  0
  188.0710  177.2910  142.2950 O   0  0  0  0  0  0  0  0  0  0  0  0
  186.0120  177.7610  146.4800 C   0  0  0  0  0  0  0  0  0  0  0  0
  187.6460  177.5710  144.6390 C   0  0  0  0  0  2  0  0  0  0  0  0
  183.9040  178.7520  143.3270 C   0  0  0  0  0  3  0  0  0  0  0  0
  186.6860  176.8140  147.3020 N   0  0  0  0  0  1  0  0  0  0  0  0
  184.5890  177.9350  146.6310 N   0  0  0  0  0  0  0  0  0  0  0  0
  184.4020  179.3080  144.6290 C   0  0  0  0  0  0  0  0  0  0  0  0
  187.3450  177.8090  143.3660 C   0  0  1  0  0  3  0  0  0  0  0  0
  186.6210  178.2780  145.4120 C   0  0  0  0  0  0  0  0  0  0  0  0
  186.1700  178.6810  143.2750 C   0  0  1  0  0  3  0  0  0  0  0  0
  183.8670  178.5920  145.7990 N   0  0  0  0  0  0  0  0  0  0  0  0
  184.9320  178.4180  142.5410 C   0  0  0  0  0  3  0  0  0  0  0  0
  185.8550  179.0680  144.4780 C   0  0  0  0  0  0  0  0  0  0  0  0
  188.9330  174.0400  143.0840 C   0  0  0  0  0  2  0  0  0  0  0  0
  189.2450  172.6280  142.5780 C   0  0  2  0  0  3  0  0  0  0  0  0
  189.6770  172.4820  144.9240 O   0  0  0  0  0  1  0  0  0  0  0  0
  189.6670  171.7460  143.7390 C   0  0  0  0  0  2  0  0  0  0  0  0
  190.2600  172.6270  141.5210 N   0  0  0  0  0  2  0  0  0  0  0  0
  193.4760  174.1930  141.7780 C   0  0  0  0  0  0  0  0  0  0  0  0
  193.8910  174.7900  140.5950 O   0  0  0  0  0  1  0  0  0  0  0  0
  191.6510  172.3240  141.6820 C   0  0  0  0  0  3  0  0  0  0  0  0
  192.5660  173.2540  141.7270 C   0  0  0  0  0  0  0  0  0  0  0  0
  194.0720  174.6660  143.0770 C   0  0  2  0  0  3  0  0  0  0  0  0
  195.7660  176.1240  143.9470 N   0  0  0  0  0  0  0  0  0  0  0  0
  196.8400  176.7990  143.2440 C   0  0  0  0  0  1  0  0  0  0  0  0
  194.6320  176.0760  143.0380 C   0  0  0  0  0  2  0  0  0  0  0  0
  195.2440  173.8080  143.4630 C   0  0  0  0  0  2  0  0  0  0  0  0
  196.1990  174.7460  144.1700 C   0  0  0  0  0  2  0  0  0  0  0  0
  190.3120  176.0540  142.4080 C   0  0  0  0  0  2  0  0  0  0  0  0
  190.7300  175.7960  143.7770 N   0  0  0  0  0  2  0  0  0  0  0  0
  191.3060  176.8110  144.6030 C   0  0  0  0  0  0  0  0  0  0  0  0
  191.6590  176.5280  145.9550 N   0  0  0  0  0  2  0  0  0  0  0  0
  191.5180  177.9620  144.1380 O   0  0  0  0  0  0  0  0  0  0  0  0
  191.3950  175.2370  146.5670 C   0  0  0  0  0  3  0  0  0  0  0  0
  191.2750  175.4120  148.0690 C   0  0  0  0  0  2  0  0  0  0  0  0
  190.0300  175.2610  147.2200 C   0  0  0  0  0  2  0  0  0  0  0  0
  1  2  1  1  0  0  0
  1 31  1  0  0  0  0
  1 16  1  0  0  0  0
  2  3  1  0  0  0  0
  4  8  1  0  0  0  0
  4  7  1  0  0  0  0
  5 11  1  0  0  0  0
  6  9  1  0  0  0  0
  9 13  1  0  0  0  0
 10  3  1  1  0  0  0
 10  5  1  0  0  0  0
 11  4  2  0  0  0  0
 12 14  1  1  0  0  0
 12 10  1  0  0  0  0
 12 15  1  0  0  0  0
 13  8  2  0  0  0  0
 14  6  2  0  0  0  0
 15  9  2  0  0  0  0
 15 11  1  0  0  0  0
 17 16  1  1  0  0  0
 17 19  1  0  0  0  0
 19 18  1  0  0  0  0
 20 23  1  0  0  0  0
 20 17  1  0  0  0  0
 22 21  1  0  0  0  0
 23 24  2  0  0  0  0
 24 21  2  0  0  0  0
 25 21  1  6  0  0  0
 25 29  1  0  0  0  0
 26 30  1  0  0  0  0
 27 26  1  0  0  0  0
 28 25  1  0  0  0  0
 28 26  1  0  0  0  0
 29 30  1  0  0  0  0
 31 32  1  0  0  0  0
 32 33  1  0  0  0  0
 33 34  1  0  0  0  0
 34 36  1  0  0  0  0
 35 33  2  0  0  0  0
 36 38  1  0  0  0  0
 36 37  1  0  0  0  0
 38 37  1  0  0  0  0
M  END
>  <MODEL>
1

>  <REMARK>
 VINA RESULT:      -7.1      0.000      0.000
  Name = 
  12 active torsions:
  status: ('A' for Active; 'I' for Inactive)
    1  A    between atoms: C_2  and  N_23
    2  A    between atoms: N_3  and  C_36
    3  A    between atoms: C_4  and  C_14
    4  A    between atoms: C_4  and  O_15
    5  A    between atoms: N_8  and  CA_19
    6  A    between atoms: N_8  and  C_37
    7  A    between atoms: C_11  and  C_21
    8  A    between atoms: C_14  and  C_32
    9  A    between atoms: C_14  and  C_36
   10  A    between atoms: O_15  and  C_18
   11  A    between atoms: CA_19  and  C_26
   12  A    between atoms: CA_19  and  C_32
                            x       y       z     vdW  Elec       q    Type
                         _______ _______ _______ _____ _____    ______ ____

>  <TORSDO>
F 12

$$$$
=
 OpenBabel11042416253D

 38 42  0  0  1  0  0  0  0  0999 V2000
  189.1080  175.2440  141.9620 C   0  0  2  0  0  3  0  0  0  0  0  0
  187.9070  176.1650  141.8240 C   0  0  0  0  0  2  0  0  0  0  0  0
  188.1810  177.4070  142.4520 O   0  0  0  0  0  0  0  0  0  0  0  0
  185.9670  177.7420  146.5700 C   0  0  0  0  0  0  0  0  0  0  0  0
  187.6690  177.6220  144.7860 C   0  0  0  0  0  2  0  0  0  0  0  0
  183.9570  178.7790  143.3680 C   0  0  0  0  0  3  0  0  0  0  0  0
  186.6260  176.7840  147.3930 N   0  0  0  0  0  1  0  0  0  0  0  0
  184.5370  177.8900  146.6740 N   0  0  0  0  0  0  0  0  0  0  0  0
  184.4000  179.3100  144.7010 C   0  0  0  0  0  0  0  0  0  0  0  0
  187.4090  177.8860  143.5080 C   0  0  1  0  0  3  0  0  0  0  0  0
  186.6060  178.2940  145.5380 C   0  0  0  0  0  0  0  0  0  0  0  0
  186.2240  178.7430  143.3960 C   0  0  1  0  0  3  0  0  0  0  0  0
  183.8350  178.5570  145.8330 N   0  0  0  0  0  0  0  0  0  0  0  0
  185.0180  178.4800  142.6130 C   0  0  0  0  0  3  0  0  0  0  0  0
  185.8610  179.0960  144.5960 C   0  0  0  0  0  0  0  0  0  0  0  0
  188.8420  174.0950  142.9410 C   0  0  0  0  0  2  0  0  0  0  0  0
  188.9900  172.6930  142.3400 C   0  0  2  0  0  3  0  0  0  0  0  0
  189.6390  172.0930  144.5610 O   0  0  0  0  0  1  0  0  0  0  0  0
  189.9040  171.8520  143.2130 C   0  0  0  0  0  2  0  0  0  0  0  0
  189.4710  172.7280  140.9570 N   0  0  0  0  0  2  0  0  0  0  0  0
  188.3980  174.0970  137.8200 C   0  0  0  0  0  0  0  0  0  0  0  0
  187.4730  175.1230  137.9580 O   0  0  0  0  0  1  0  0  0  0  0  0
  188.7120  172.4030  139.7860 C   0  0  0  0  0  3  0  0  0  0  0  0
  188.5500  173.2470  138.8030 C   0  0  0  0  0  0  0  0  0  0  0  0
  189.2080  174.0160  136.5540 C   0  0  2  0  0  3  0  0  0  0  0  0
  191.2910  174.7310  135.6060 N   0  0  0  0  0  0  0  0  0  0  0  0
  192.2410  175.7030  136.1140 C   0  0  0  0  0  1  0  0  0  0  0  0
  190.7100  174.0660  136.7610 C   0  0  0  0  0  2  0  0  0  0  0  0
  188.9130  175.1890  135.6630 C   0  0  0  0  0  2  0  0  0  0  0  0
  190.2190  175.4800  134.9540 C   0  0  0  0  0  2  0  0  0  0  0  0
  190.3560  176.0290  142.3300 C   0  0  0  0  0  2  0  0  0  0  0  0
  190.7140  175.7650  143.7140 N   0  0  0  0  0  2  0  0  0  0  0  0
  191.1800  176.7930  144.5920 C   0  0  0  0  0  0  0  0  0  0  0  0
  191.4750  176.5000  145.9560 N   0  0  0  0  0  2  0  0  0  0  0  0
  191.3450  177.9660  144.1630 O   0  0  0  0  0  0  0  0  0  0  0  0
  191.2590  175.1820  146.5250 C   0  0  0  0  0  3  0  0  0  0  0  0
  191.0900  175.3080  148.0270 C   0  0  0  0  0  2  0  0  0  0  0  0
  189.8770  175.1210  147.1400 C   0  0  0  0  0  2  0  0  0  0  0  0
  1  2  1  1  0  0  0
  1 31  1  0  0  0  0
  1 16  1  0  0  0  0
  2  3  1  0  0  0  0
  4  8  1  0  0  0  0
  4  7  1  0  0  0  0
  5 11  1  0  0  0  0
  6  9  1  0  0  0  0
  9 13  1  0  0  0  0
 10  3  1  1  0  0  0
 10  5  1  0  0  0  0
 11  4  2  0  0  0  0
 12 14  1  1  0  0  0
 12 10  1  0  0  0  0
 12 15  1  0  0  0  0
 13  8  2  0  0  0  0
 14  6  2  0  0  0  0
 15  9  2  0  0  0  0
 15 11  1  0  0  0  0
 17 16  1  1  0  0  0
 17 19  1  0  0  0  0
 19 18  1  0  0  0  0
 20 17  1  0  0  0  0
 21 22  1  0  0  0  0
 21 24  2  0  0  0  0
 23 20  1  0  0  0  0
 24 23  2  0  0  0  0
 25 28  1  0  0  0  0
 25 21  1  1  0  0  0
 26 27  1  0  0  0  0
 26 28  1  0  0  0  0
 29 25  1  0  0  0  0
 30 26  1  0  0  0  0
 30 29  1  0  0  0  0
 31 32  1  0  0  0  0
 32 33  1  0  0  0  0
 33 34  1  0  0  0  0
 34 36  1  0  0  0  0
 35 33  2  0  0  0  0
 36 38  1  0  0  0  0
 36 37  1  0  0  0  0
 38 37  1  0  0  0  0
M  END
>  <MODEL>
2

>  <REMARK>
 VINA RESULT:      -7.0      2.789      4.114
  Name = 
  12 active torsions:
  status: ('A' for Active; 'I' for Inactive)
    1  A    between atoms: C_2  and  N_23
    2  A    between atoms: N_3  and  C_36
    3  A    between atoms: C_4  and  C_14
    4  A    between atoms: C_4  and  O_15
    5  A    between atoms: N_8  and  CA_19
    6  A    between atoms: N_8  and  C_37
    7  A    between atoms: C_11  and  C_21
    8  A    between atoms: C_14  and  C_32
    9  A    between atoms: C_14  and  C_36
   10  A    between atoms: O_15  and  C_18
   11  A    between atoms: CA_19  and  C_26
   12  A    between atoms: CA_19  and  C_32
                            x       y       z     vdW  Elec       q    Type
                         _______ _______ _______ _____ _____    ______ ____

>  <TORSDO>
F 12

$$$$
=
 OpenBabel11042416253D

 38 42  0  0  1  0  0  0  0  0999 V2000
  191.0980  176.6550  146.0970 C   0  0  2  0  0  3  0  0  0  0  0  0
  189.7370  176.9540  146.7050 C   0  0  0  0  0  2  0  0  0  0  0  0
  188.7640  176.0820  146.1510 O   0  0  0  0  0  0  0  0  0  0  0  0
  185.5060  178.3470  143.6550 C   0  0  0  0  0  0  0  0  0  0  0  0
  187.2940  176.8180  144.4040 C   0  0  0  0  0  2  0  0  0  0  0  0
  185.1230  178.3910  147.5560 C   0  0  0  0  0  3  0  0  0  0  0  0
  186.1770  178.6920  142.4480 N   0  0  0  0  0  1  0  0  0  0  0  0
  184.5930  179.2930  144.2460 N   0  0  0  0  0  0  0  0  0  0  0  0
  184.3800  178.0150  146.3070 C   0  0  0  0  0  0  0  0  0  0  0  0
  187.5370  176.5470  145.6840 C   0  0  1  0  0  3  0  0  0  0  0  0
  185.9090  177.2960  144.3710 C   0  0  0  0  0  0  0  0  0  0  0  0
  186.3410  176.8010  146.4930 C   0  0  1  0  0  3  0  0  0  0  0  0
  184.1160  179.1670  145.4290 N   0  0  0  0  0  0  0  0  0  0  0  0
  186.2400  177.6660  147.6680 C   0  0  0  0  0  3  0  0  0  0  0  0
  185.3580  177.0900  145.6900 C   0  0  0  0  0  0  0  0  0  0  0  0
  191.0060  175.6420  144.9500 C   0  0  0  0  0  2  0  0  0  0  0  0
  191.2950  176.2180  143.5600 C   0  0  2  0  0  3  0  0  0  0  0  0
  190.0870  178.1200  142.7630 O   0  0  0  0  0  1  0  0  0  0  0  0
  191.1420  177.7280  143.5870 C   0  0  0  0  0  2  0  0  0  0  0  0
  190.4490  175.6230  142.5230 N   0  0  0  0  0  2  0  0  0  0  0  0
  189.9250  172.1720  141.6990 C   0  0  0  0  0  0  0  0  0  0  0  0
  189.6870  171.9610  140.3480 O   0  0  0  0  0  1  0  0  0  0  0  0
  189.5150  174.5500  142.7020 C   0  0  0  0  0  3  0  0  0  0  0  0
  189.7150  173.3620  142.2000 C   0  0  0  0  0  0  0  0  0  0  0  0
  190.4400  171.0280  142.5320 C   0  0  2  0  0  3  0  0  0  0  0  0
  192.3760  170.3140  143.7530 N   0  0  0  0  0  0  0  0  0  0  0  0
  193.7110  170.8800  143.7610 C   0  0  0  0  0  1  0  0  0  0  0  0
  191.4490  171.4230  143.5930 C   0  0  0  0  0  2  0  0  0  0  0  0
  191.1700  170.0360  141.6710 C   0  0  0  0  0  2  0  0  0  0  0  0
  192.2690  169.4850  142.5550 C   0  0  0  0  0  2  0  0  0  0  0  0
  192.0870  176.2190  147.1660 C   0  0  0  0  0  2  0  0  0  0  0  0
  193.1850  175.4890  146.5520 N   0  0  0  0  0  2  0  0  0  0  0  0
  194.4320  176.1110  146.2350 C   0  0  0  0  0  0  0  0  0  0  0  0
  195.4990  175.3470  145.6770 N   0  0  0  0  0  2  0  0  0  0  0  0
  194.5950  177.3440  146.4340 O   0  0  0  0  0  0  0  0  0  0  0  0
  195.3940  173.9140  145.4680 C   0  0  0  0  0  3  0  0  0  0  0  0
  196.4880  173.4670  144.5170 C   0  0  0  0  0  2  0  0  0  0  0  0
  196.6360  173.2360  146.0070 C   0  0  0  0  0  2  0  0  0  0  0  0
  1 16  1  6  0  0  0
  1  2  1  0  0  0  0
  1 31  1  0  0  0  0
  3  2  1  0  0  0  0
  4  8  2  0  0  0  0
  4 11  1  0  0  0  0
  5 10  1  0  0  0  0
  6 14  2  0  0  0  0
  7  4  1  0  0  0  0
  8 13  1  0  0  0  0
  9  6  1  0  0  0  0
 10  3  1  6  0  0  0
 10 12  1  0  0  0  0
 11  5  1  0  0  0  0
 11 15  2  0  0  0  0
 12 14  1  1  0  0  0
 13  9  2  0  0  0  0
 15  9  1  0  0  0  0
 15 12  1  0  0  0  0
 17 19  1  1  0  0  0
 17 16  1  0  0  0  0
 18 19  1  0  0  0  0
 20 23  1  0  0  0  0
 20 17  1  0  0  0  0
 21 24  2  0  0  0  0
 22 21  1  0  0  0  0
 24 23  2  0  0  0  0
 25 21  1  6  0  0  0
 25 28  1  0  0  0  0
 26 27  1  0  0  0  0
 28 26  1  0  0  0  0
 29 25  1  0  0  0  0
 29 30  1  0  0  0  0
 30 26  1  0  0  0  0
 32 31  1  0  0  0  0
 33 35  2  0  0  0  0
 33 32  1  0  0  0  0
 34 33  1  0  0  0  0
 36 34  1  0  0  0  0
 36 38  1  0  0  0  0
 37 36  1  0  0  0  0
 37 38  1  0  0  0  0
M  END
>  <MODEL>
3

>  <REMARK>
 VINA RESULT:      -6.9      2.205      4.568
  Name = 
  12 active torsions:
  status: ('A' for Active; 'I' for Inactive)
    1  A    between atoms: C_2  and  N_23
    2  A    between atoms: N_3  and  C_36
    3  A    between atoms: C_4  and  C_14
    4  A    between atoms: C_4  and  O_15
    5  A    between atoms: N_8  and  CA_19
    6  A    between atoms: N_8  and  C_37
    7  A    between atoms: C_11  and  C_21
    8  A    between atoms: C_14  and  C_32
    9  A    between atoms: C_14  and  C_36
   10  A    between atoms: O_15  and  C_18
   11  A    between atoms: CA_19  and  C_26
   12  A    between atoms: CA_19  and  C_32
                            x       y       z     vdW  Elec       q    Type
                         _______ _______ _______ _____ _____    ______ ____

>  <TORSDO>
F 12

$$$$
=
 OpenBabel11042416253D

 38 42  0  0  1  0  0  0  0  0999 V2000
  191.1220  176.4030  146.1410 C   0  0  2  0  0  3  0  0  0  0  0  0
  189.8500  176.8980  146.8120 C   0  0  0  0  0  2  0  0  0  0  0  0
  188.7670  176.0490  146.4690 O   0  0  0  0  0  0  0  0  0  0  0  0
  185.8700  178.3530  143.5920 C   0  0  0  0  0  0  0  0  0  0  0  0
  187.5230  176.7940  144.5580 C   0  0  0  0  0  2  0  0  0  0  0  0
  185.0470  178.4610  147.4240 C   0  0  0  0  0  3  0  0  0  0  0  0
  186.6820  178.6660  142.4660 N   0  0  0  0  0  1  0  0  0  0  0  0
  184.9190  179.3280  144.0640 N   0  0  0  0  0  0  0  0  0  0  0  0
  184.4420  178.0840  146.1020 C   0  0  0  0  0  0  0  0  0  0  0  0
  187.6120  176.5360  145.8590 C   0  0  1  0  0  3  0  0  0  0  0  0
  186.1630  177.3040  144.3620 C   0  0  0  0  0  0  0  0  0  0  0  0
  186.3390  176.8280  146.5250 C   0  0  1  0  0  3  0  0  0  0  0  0
  184.3080  179.2300  145.1870 N   0  0  0  0  0  0  0  0  0  0  0  0
  186.1260  177.7110  147.6710 C   0  0  0  0  0  3  0  0  0  0  0  0
  185.4610  177.1290  145.6110 C   0  0  0  0  0  0  0  0  0  0  0  0
  190.8950  175.0950  145.3730 C   0  0  0  0  0  2  0  0  0  0  0  0
  191.0020  175.2190  143.8500 C   0  0  2  0  0  3  0  0  0  0  0  0
  189.2700  174.6580  142.3020 O   0  0  0  0  0  1  0  0  0  0  0  0
  190.2010  174.1140  143.1860 C   0  0  0  0  0  2  0  0  0  0  0  0
  192.3910  175.2120  143.3870 N   0  0  0  0  0  2  0  0  0  0  0  0
  195.5440  176.1610  141.9630 C   0  0  0  0  0  0  0  0  0  0  0  0
  196.3830  176.8000  142.8660 O   0  0  0  0  0  1  0  0  0  0  0  0
  192.9740  176.1140  142.4370 C   0  0  0  0  0  3  0  0  0  0  0  0
  194.2570  176.1430  142.2000 C   0  0  0  0  0  0  0  0  0  0  0  0
  196.1500  175.4930  140.7580 C   0  0  2  0  0  3  0  0  0  0  0  0
  196.6900  173.3270  139.8820 N   0  0  0  0  0  0  0  0  0  0  0  0
  196.6960  172.0430  140.5580 C   0  0  0  0  0  1  0  0  0  0  0  0
  195.6100  174.1060  140.4670 C   0  0  0  0  0  2  0  0  0  0  0  0
  197.6250  175.2870  140.9550 C   0  0  0  0  0  2  0  0  0  0  0  0
  197.9410  173.9980  140.2260 C   0  0  0  0  0  2  0  0  0  0  0  0
  192.2570  176.2860  147.1460 C   0  0  0  0  0  2  0  0  0  0  0  0
  193.3500  175.5230  146.5650 N   0  0  0  0  0  2  0  0  0  0  0  0
  194.5470  176.1450  146.0910 C   0  0  0  0  0  0  0  0  0  0  0  0
  195.6160  175.3560  145.5730 N   0  0  0  0  0  2  0  0  0  0  0  0
  194.6630  177.3990  146.1170 O   0  0  0  0  0  0  0  0  0  0  0  0
  195.5660  173.9040  145.5610 C   0  0  0  0  0  3  0  0  0  0  0  0
  196.6710  173.3750  144.6670 C   0  0  0  0  0  2  0  0  0  0  0  0
  196.8370  173.3540  146.1730 C   0  0  0  0  0  2  0  0  0  0  0  0
  1 16  1  1  0  0  0
  1  2  1  0  0  0  0
  1 31  1  0  0  0  0
  3  2  1  0  0  0  0
  4  8  2  0  0  0  0
  4 11  1  0  0  0  0
  5 10  1  0  0  0  0
  6 14  2  0  0  0  0
  7  4  1  0  0  0  0
  8 13  1  0  0  0  0
  9  6  1  0  0  0  0
 10  3  1  6  0  0  0
 10 12  1  0  0  0  0
 11  5  1  0  0  0  0
 11 15  2  0  0  0  0
 12 14  1  1  0  0  0
 13  9  2  0  0  0  0
 15  9  1  0  0  0  0
 15 12  1  0  0  0  0
 17 19  1  6  0  0  0
 17 16  1  0  0  0  0
 18 19  1  0  0  0  0
 20 17  1  0  0  0  0
 21 24  2  0  0  0  0
 21 22  1  0  0  0  0
 23 20  1  0  0  0  0
 24 23  2  0  0  0  0
 25 29  1  0  0  0  0
 25 21  1  1  0  0  0
 26 30  1  0  0  0  0
 26 28  1  0  0  0  0
 26 27  1  0  0  0  0
 28 25  1  0  0  0  0
 30 29  1  0  0  0  0
 32 31  1  0  0  0  0
 33 35  2  0  0  0  0
 33 32  1  0  0  0  0
 34 33  1  0  0  0  0
 36 34  1  0  0  0  0
 36 38  1  0  0  0  0
 37 36  1  0  0  0  0
 37 38  1  0  0  0  0
M  END
>  <MODEL>
4

>  <REMARK>
 VINA RESULT:      -6.9      2.418      4.021
  Name = 
  12 active torsions:
  status: ('A' for Active; 'I' for Inactive)
    1  A    between atoms: C_2  and  N_23
    2  A    between atoms: N_3  and  C_36
    3  A    between atoms: C_4  and  C_14
    4  A    between atoms: C_4  and  O_15
    5  A    between atoms: N_8  and  CA_19
    6  A    between atoms: N_8  and  C_37
    7  A    between atoms: C_11  and  C_21
    8  A    between atoms: C_14  and  C_32
    9  A    between atoms: C_14  and  C_36
   10  A    between atoms: O_15  and  C_18
   11  A    between atoms: CA_19  and  C_26
   12  A    between atoms: CA_19  and  C_32
                            x       y       z     vdW  Elec       q    Type
                         _______ _______ _______ _____ _____    ______ ____

>  <TORSDO>
F 12

$$$$
=
 OpenBabel11042416253D

 38 42  0  0  1  0  0  0  0  0999 V2000
  189.8360  175.0850  141.9560 C   0  0  2  0  0  3  0  0  0  0  0  0
  188.4920  175.7920  142.0300 C   0  0  0  0  0  2  0  0  0  0  0  0
  187.9020  175.5670  143.3000 O   0  0  0  0  0  0  0  0  0  0  0  0
  185.7740  177.9590  146.7240 C   0  0  0  0  0  0  0  0  0  0  0  0
  187.4120  176.7440  145.3310 C   0  0  0  0  0  2  0  0  0  0  0  0
  184.2640  178.2670  143.1190 C   0  0  0  0  0  3  0  0  0  0  0  0
  186.0900  177.2250  147.9020 N   0  0  0  0  0  1  0  0  0  0  0  0
  184.4530  178.5160  146.5770 N   0  0  0  0  0  0  0  0  0  0  0  0
  184.8070  179.1040  144.2410 C   0  0  0  0  0  0  0  0  0  0  0  0
  187.2810  176.5870  144.0170 C   0  0  1  0  0  3  0  0  0  0  0  0
  186.5790  177.9040  145.6620 C   0  0  0  0  0  0  0  0  0  0  0  0
  186.4130  177.6310  143.4630 C   0  0  1  0  0  3  0  0  0  0  0  0
  184.0090  178.9960  145.4740 N   0  0  0  0  0  0  0  0  0  0  0  0
  185.2070  177.4390  142.6590 C   0  0  0  0  0  3  0  0  0  0  0  0
  186.1380  178.4790  144.4130 C   0  0  0  0  0  0  0  0  0  0  0  0
  189.8320  173.7600  142.7260 C   0  0  0  0  0  2  0  0  0  0  0  0
  190.8050  172.7040  142.1910 C   0  0  2  0  0  3  0  0  0  0  0  0
  190.3680  170.4360  141.5790 O   0  0  0  0  0  1  0  0  0  0  0  0
  190.0760  171.7600  141.2530 C   0  0  0  0  0  2  0  0  0  0  0  0
  191.4710  171.9650  143.2660 N   0  0  0  0  0  2  0  0  0  0  0  0
  194.3450  172.1230  145.4070 C   0  0  0  0  0  0  0  0  0  0  0  0
  194.6660  170.9020  145.9840 O   0  0  0  0  0  1  0  0  0  0  0  0
  191.9170  172.5040  144.5170 C   0  0  0  0  0  3  0  0  0  0  0  0
  193.1280  172.3140  144.9670 C   0  0  0  0  0  0  0  0  0  0  0  0
  195.4170  173.1730  145.2880 C   0  0  2  0  0  3  0  0  0  0  0  0
  195.7130  175.5260  144.9330 N   0  0  0  0  0  0  0  0  0  0  0  0
  194.7410  176.5170  144.5120 C   0  0  0  0  0  1  0  0  0  0  0  0
  195.0010  174.5570  145.7500 C   0  0  0  0  0  2  0  0  0  0  0  0
  195.8140  173.3620  143.8510 C   0  0  0  0  0  2  0  0  0  0  0  0
  196.1640  174.8290  143.7310 C   0  0  0  0  0  2  0  0  0  0  0  0
  190.9600  176.0050  142.4080 C   0  0  0  0  0  2  0  0  0  0  0  0
  191.1590  175.8690  143.8420 N   0  0  0  0  0  2  0  0  0  0  0  0
  191.0280  176.9750  144.7380 C   0  0  0  0  0  0  0  0  0  0  0  0
  191.1860  176.7900  146.1430 N   0  0  0  0  0  2  0  0  0  0  0  0
  190.7840  178.1280  144.2920 O   0  0  0  0  0  0  0  0  0  0  0  0
  191.4190  175.4790  146.7260 C   0  0  0  0  0  3  0  0  0  0  0  0
  191.1280  175.5370  148.2130 C   0  0  0  0  0  2  0  0  0  0  0  0
  190.1150  174.9310  147.2640 C   0  0  0  0  0  2  0  0  0  0  0  0
  1  2  1  1  0  0  0
  1 31  1  0  0  0  0
  1 16  1  0  0  0  0
  2  3  1  0  0  0  0
  4  7  1  0  0  0  0
  5 11  1  0  0  0  0
  6  9  1  0  0  0  0
  8  4  1  0  0  0  0
  9 15  2  0  0  0  0
  9 13  1  0  0  0  0
 10  3  1  6  0  0  0
 10  5  1  0  0  0  0
 11  4  2  0  0  0  0
 12 14  1  1  0  0  0
 12 10  1  0  0  0  0
 12 15  1  0  0  0  0
 13  8  2  0  0  0  0
 14  6  2  0  0  0  0
 15 11  1  0  0  0  0
 17 19  1  6  0  0  0
 17 16  1  0  0  0  0
 17 20  1  0  0  0  0
 19 18  1  0  0  0  0
 20 23  1  0  0  0  0
 21 22  1  0  0  0  0
 23 24  2  0  0  0  0
 24 21  2  0  0  0  0
 25 21  1  6  0  0  0
 25 28  1  0  0  0  0
 26 28  1  0  0  0  0
 27 26  1  0  0  0  0
 29 25  1  0  0  0  0
 30 29  1  0  0  0  0
 30 26  1  0  0  0  0
 31 32  1  0  0  0  0
 32 33  1  0  0  0  0
 33 34  1  0  0  0  0
 34 36  1  0  0  0  0
 35 33  2  0  0  0  0
 36 38  1  0  0  0  0
 36 37  1  0  0  0  0
 38 37  1  0  0  0  0
M  END
>  <MODEL>
5

>  <REMARK>
 VINA RESULT:      -6.8      1.654      2.026
  Name = 
  12 active torsions:
  status: ('A' for Active; 'I' for Inactive)
    1  A    between atoms: C_2  and  N_23
    2  A    between atoms: N_3  and  C_36
    3  A    between atoms: C_4  and  C_14
    4  A    between atoms: C_4  and  O_15
    5  A    between atoms: N_8  and  CA_19
    6  A    between atoms: N_8  and  C_37
    7  A    between atoms: C_11  and  C_21
    8  A    between atoms: C_14  and  C_32
    9  A    between atoms: C_14  and  C_36
   10  A    between atoms: O_15  and  C_18
   11  A    between atoms: CA_19  and  C_26
   12  A    between atoms: CA_19  and  C_32
                            x       y       z     vdW  Elec       q    Type
                         _______ _______ _______ _____ _____    ______ ____

>  <TORSDO>
F 12

$$$$
=
 OpenBabel11042416253D

 38 42  0  0  1  0  0  0  0  0999 V2000
  190.7500  174.8610  145.3530 C   0  0  2  0  0  3  0  0  0  0  0  0
  189.3140  174.7490  145.8410 C   0  0  0  0  0  2  0  0  0  0  0  0
  188.8220  176.0360  146.1790 O   0  0  0  0  0  0  0  0  0  0  0  0
  185.5440  178.2740  143.6840 C   0  0  0  0  0  0  0  0  0  0  0  0
  187.3330  176.7480  144.4380 C   0  0  0  0  0  2  0  0  0  0  0  0
  185.2140  178.3930  147.5890 C   0  0  0  0  0  3  0  0  0  0  0  0
  186.2010  178.5920  142.4620 N   0  0  0  0  0  1  0  0  0  0  0  0
  184.6450  179.2360  144.2700 N   0  0  0  0  0  0  0  0  0  0  0  0
  184.4530  177.9980  146.3570 C   0  0  0  0  0  0  0  0  0  0  0  0
  187.5910  176.5000  145.7190 C   0  0  1  0  0  3  0  0  0  0  0  0
  185.9510  177.2350  144.4150 C   0  0  0  0  0  0  0  0  0  0  0  0
  186.4080  176.7760  146.5400 C   0  0  1  0  0  3  0  0  0  0  0  0
  184.1830  179.1360  145.4610 N   0  0  0  0  0  0  0  0  0  0  0  0
  186.3280  177.6630  147.7000 C   0  0  0  0  0  3  0  0  0  0  0  0
  185.4160  177.0560  145.7440 C   0  0  0  0  0  0  0  0  0  0  0  0
  190.8910  175.8730  144.2100 C   0  0  0  0  0  2  0  0  0  0  0  0
  191.6630  177.1460  144.5720 C   0  0  2  0  0  3  0  0  0  0  0  0
  190.2370  177.8550  142.7890 O   0  0  0  0  0  1  0  0  0  0  0  0
  191.2530  178.2770  143.6470 C   0  0  0  0  0  2  0  0  0  0  0  0
  193.1130  176.9450  144.5440 N   0  0  0  0  0  2  0  0  0  0  0  0
  196.4280  175.7940  143.8000 C   0  0  0  0  0  0  0  0  0  0  0  0
  197.2100  176.7500  143.1660 O   0  0  0  0  0  1  0  0  0  0  0  0
  193.8260  176.0230  143.7090 C   0  0  0  0  0  3  0  0  0  0  0  0
  195.1260  175.9080  143.7490 C   0  0  0  0  0  0  0  0  0  0  0  0
  197.1100  174.6760  144.5430 C   0  0  2  0  0  3  0  0  0  0  0  0
  197.2940  172.2860  144.5870 N   0  0  0  0  0  0  0  0  0  0  0  0
  196.4940  171.2940  143.8940 C   0  0  0  0  0  1  0  0  0  0  0  0
  197.3880  173.4410  143.7090 C   0  0  0  0  0  2  0  0  0  0  0  0
  196.2410  174.1820  145.6650 C   0  0  0  0  0  2  0  0  0  0  0  0
  196.5360  172.7010  145.7660 C   0  0  0  0  0  2  0  0  0  0  0  0
  191.3050  173.4970  144.9790 C   0  0  0  0  0  2  0  0  0  0  0  0
  191.0890  173.2490  143.5630 N   0  0  0  0  0  2  0  0  0  0  0  0
  189.9980  172.4580  143.0850 C   0  0  0  0  0  0  0  0  0  0  0  0
  189.7940  172.2780  141.6850 N   0  0  0  0  0  2  0  0  0  0  0  0
  189.2140  171.9010  143.8980 O   0  0  0  0  0  0  0  0  0  0  0  0
  190.6320  172.9320  140.6940 C   0  0  0  0  0  3  0  0  0  0  0  0
  190.6160  172.1200  139.4130 C   0  0  0  0  0  2  0  0  0  0  0  0
  189.7760  173.3750  139.5270 C   0  0  0  0  0  2  0  0  0  0  0  0
  1 16  1  6  0  0  0
  1  2  1  0  0  0  0
  2  3  1  0  0  0  0
  4  8  2  0  0  0  0
  4 11  1  0  0  0  0
  5 10  1  0  0  0  0
  6 14  2  0  0  0  0
  7  4  1  0  0  0  0
  8 13  1  0  0  0  0
  9  6  1  0  0  0  0
 10  3  1  6  0  0  0
 10 12  1  0  0  0  0
 11  5  1  0  0  0  0
 11 15  2  0  0  0  0
 12 14  1  1  0  0  0
 13  9  2  0  0  0  0
 15  9  1  0  0  0  0
 15 12  1  0  0  0  0
 16 17  1  0  0  0  0
 17 19  1  6  0  0  0
 18 19  1  0  0  0  0
 20 17  1  0  0  0  0
 22 21  1  0  0  0  0
 23 24  2  0  0  0  0
 23 20  1  0  0  0  0
 24 21  2  0  0  0  0
 25 21  1  6  0  0  0
 25 29  1  0  0  0  0
 26 30  1  0  0  0  0
 27 26  1  0  0  0  0
 28 25  1  0  0  0  0
 28 26  1  0  0  0  0
 29 30  1  0  0  0  0
 31  1  1  0  0  0  0
 32 31  1  0  0  0  0
 33 32  1  0  0  0  0
 33 35  2  0  0  0  0
 34 33  1  0  0  0  0
 36 34  1  0  0  0  0
 37 38  1  0  0  0  0
 37 36  1  0  0  0  0
 38 36  1  0  0  0  0
M  END
>  <MODEL>
6

>  <REMARK>
 VINA RESULT:      -6.7      2.072      4.620
  Name = 
  12 active torsions:
  status: ('A' for Active; 'I' for Inactive)
    1  A    between atoms: C_2  and  N_23
    2  A    between atoms: N_3  and  C_36
    3  A    between atoms: C_4  and  C_14
    4  A    between atoms: C_4  and  O_15
    5  A    between atoms: N_8  and  CA_19
    6  A    between atoms: N_8  and  C_37
    7  A    between atoms: C_11  and  C_21
    8  A    between atoms: C_14  and  C_32
    9  A    between atoms: C_14  and  C_36
   10  A    between atoms: O_15  and  C_18
   11  A    between atoms: CA_19  and  C_26
   12  A    between atoms: CA_19  and  C_32
                            x       y       z     vdW  Elec       q    Type
                         _______ _______ _______ _____ _____    ______ ____

>  <TORSDO>
F 12

$$$$
=
 OpenBabel11042416253D

 38 42  0  0  1  0  0  0  0  0999 V2000
  190.7680  175.6060  146.1750 C   0  0  2  0  0  3  0  0  0  0  0  0
  189.7410  176.5730  146.7430 C   0  0  0  0  0  2  0  0  0  0  0  0
  189.2010  177.3650  145.6990 O   0  0  0  0  0  0  0  0  0  0  0  0
  185.1000  178.1380  143.5630 C   0  0  0  0  0  0  0  0  0  0  0  0
  187.3620  177.3470  144.1580 C   0  0  0  0  0  2  0  0  0  0  0  0
  185.2250  178.6720  147.4450 C   0  0  0  0  0  3  0  0  0  0  0  0
  185.4670  178.4750  142.2290 N   0  0  0  0  0  1  0  0  0  0  0  0
  184.0170  178.8490  144.1940 N   0  0  0  0  0  0  0  0  0  0  0  0
  184.4880  177.9020  146.3870 C   0  0  0  0  0  0  0  0  0  0  0  0
  187.8400  177.3650  145.3990 C   0  0  1  0  0  3  0  0  0  0  0  0
  185.9050  177.3800  144.3100 C   0  0  0  0  0  0  0  0  0  0  0  0
  186.7400  177.3730  146.3680 C   0  0  1  0  0  3  0  0  0  0  0  0
  183.7600  178.7720  145.4480 N   0  0  0  0  0  0  0  0  0  0  0  0
  186.5190  178.3400  147.4430 C   0  0  0  0  0  3  0  0  0  0  0  0
  185.6210  177.2270  145.7170 C   0  0  0  0  0  0  0  0  0  0  0  0
  190.1130  174.3410  145.6080 C   0  0  0  0  0  2  0  0  0  0  0  0
  190.4470  174.0490  144.1410 C   0  0  2  0  0  3  0  0  0  0  0  0
  190.0870  175.7630  142.5150 O   0  0  0  0  0  1  0  0  0  0  0  0
  190.9860  175.3020  143.4760 C   0  0  0  0  0  2  0  0  0  0  0  0
  189.2990  173.5160  143.4040 N   0  0  0  0  0  2  0  0  0  0  0  0
  189.0900  172.4950  139.9720 C   0  0  0  0  0  0  0  0  0  0  0  0
  187.8450  172.7300  139.4050 O   0  0  0  0  0  1  0  0  0  0  0  0
  189.2900  172.3480  142.5730 C   0  0  0  0  0  3  0  0  0  0  0  0
  189.1880  172.4170  141.2740 C   0  0  0  0  0  0  0  0  0  0  0  0
  190.2860  172.3640  139.0660 C   0  0  2  0  0  3  0  0  0  0  0  0
  192.3120  171.1090  138.7970 N   0  0  0  0  0  0  0  0  0  0  0  0
  192.9590  170.2070  139.7300 C   0  0  0  0  0  1  0  0  0  0  0  0
  190.8790  170.9690  139.0000 C   0  0  0  0  0  2  0  0  0  0  0  0
  191.4150  173.2280  139.5550 C   0  0  0  0  0  2  0  0  0  0  0  0
  192.6730  172.4680  139.1930 C   0  0  0  0  0  2  0  0  0  0  0  0
  191.8390  175.2830  147.2040 C   0  0  0  0  0  2  0  0  0  0  0  0
  193.0970  174.9990  146.5310 N   0  0  0  0  0  2  0  0  0  0  0  0
  194.1450  175.9660  146.4330 C   0  0  0  0  0  0  0  0  0  0  0  0
  195.3810  175.6310  145.8070 N   0  0  0  0  0  2  0  0  0  0  0  0
  193.9790  177.1280  146.8900 O   0  0  0  0  0  0  0  0  0  0  0  0
  195.6540  174.2960  145.3050 C   0  0  0  0  0  3  0  0  0  0  0  0
  197.0530  174.2600  144.7190 C   0  0  0  0  0  2  0  0  0  0  0  0
  196.7910  173.6850  146.0960 C   0  0  0  0  0  2  0  0  0  0  0  0
  1 16  1  1  0  0  0
  1  2  1  0  0  0  0
  1 31  1  0  0  0  0
  3  2  1  0  0  0  0
  4  8  2  0  0  0  0
  4 11  1  0  0  0  0
  5 11  1  0  0  0  0
  5 10  1  0  0  0  0
  7  4  1  0  0  0  0
  8 13  1  0  0  0  0
  9  6  1  0  0  0  0
 10  3  1  1  0  0  0
 10 12  1  0  0  0  0
 11 15  2  0  0  0  0
 12 14  1  6  0  0  0
 13  9  2  0  0  0  0
 14  6  2  0  0  0  0
 15 12  1  0  0  0  0
 15  9  1  0  0  0  0
 17 19  1  6  0  0  0
 17 16  1  0  0  0  0
 18 19  1  0  0  0  0
 20 17  1  0  0  0  0
 21 24  2  0  0  0  0
 22 21  1  0  0  0  0
 23 20  1  0  0  0  0
 24 23  2  0  0  0  0
 25 29  1  0  0  0  0
 25 21  1  1  0  0  0
 26 28  1  0  0  0  0
 26 30  1  0  0  0  0
 26 27  1  0  0  0  0
 28 25  1  0  0  0  0
 30 29  1  0  0  0  0
 32 31  1  0  0  0  0
 33 32  1  0  0  0  0
 33 35  2  0  0  0  0
 34 33  1  0  0  0  0
 36 34  1  0  0  0  0
 36 38  1  0  0  0  0
 37 36  1  0  0  0  0
 37 38  1  0  0  0  0
M  END
>  <MODEL>
7

>  <REMARK>
 VINA RESULT:      -6.7      2.264      4.630
  Name = 
  12 active torsions:
  status: ('A' for Active; 'I' for Inactive)
    1  A    between atoms: C_2  and  N_23
    2  A    between atoms: N_3  and  C_36
    3  A    between atoms: C_4  and  C_14
    4  A    between atoms: C_4  and  O_15
    5  A    between atoms: N_8  and  CA_19
    6  A    between atoms: N_8  and  C_37
    7  A    between atoms: C_11  and  C_21
    8  A    between atoms: C_14  and  C_32
    9  A    between atoms: C_14  and  C_36
   10  A    between atoms: O_15  and  C_18
   11  A    between atoms: CA_19  and  C_26
   12  A    between atoms: CA_19  and  C_32
                            x       y       z     vdW  Elec       q    Type
                         _______ _______ _______ _____ _____    ______ ____

>  <TORSDO>
F 12

$$$$
=
 OpenBabel11042416253D

 38 42  0  0  1  0  0  0  0  0999 V2000
  190.9350  176.5130  143.9200 C   0  0  2  0  0  3  0  0  0  0  0  0
  189.5670  176.9940  143.4610 C   0  0  0  0  0  2  0  0  0  0  0  0
  188.5760  176.0570  143.8520 O   0  0  0  0  0  0  0  0  0  0  0  0
  184.4400  178.2130  144.3170 C   0  0  0  0  0  0  0  0  0  0  0  0
  186.3060  176.7790  143.5710 C   0  0  0  0  0  2  0  0  0  0  0  0
  186.7220  178.0120  147.4990 C   0  0  0  0  0  3  0  0  0  0  0  0
  184.1440  178.6740  143.0030 N   0  0  0  0  0  1  0  0  0  0  0  0
  184.1260  179.0560  145.4440 N   0  0  0  0  0  0  0  0  0  0  0  0
  185.3470  177.6530  147.0140 C   0  0  0  0  0  0  0  0  0  0  0  0
  187.3370  176.4570  144.3470 C   0  0  1  0  0  3  0  0  0  0  0  0
  185.2340  177.1570  144.4960 C   0  0  0  0  0  0  0  0  0  0  0  0
  186.9660  176.5770  145.7610 C   0  0  1  0  0  3  0  0  0  0  0  0
  184.5490  178.8300  146.6330 N   0  0  0  0  0  0  0  0  0  0  0  0
  187.6490  177.3650  146.7860 C   0  0  0  0  0  3  0  0  0  0  0  0
  185.6920  176.8380  145.8280 C   0  0  0  0  0  0  0  0  0  0  0  0
  191.0980  176.6100  145.4410 C   0  0  0  0  0  2  0  0  0  0  0  0
  191.0880  175.2640  146.1740 C   0  0  2  0  0  3  0  0  0  0  0  0
  191.1510  176.7880  148.0140 O   0  0  0  0  0  1  0  0  0  0  0  0
  190.8150  175.4840  147.6510 C   0  0  0  0  0  2  0  0  0  0  0  0
  192.3290  174.5130  145.9750 N   0  0  0  0  0  2  0  0  0  0  0  0
  190.7370  172.7390  143.2960 C   0  0  0  0  0  0  0  0  0  0  0  0
  189.6030  172.0450  143.6960 O   0  0  0  0  0  1  0  0  0  0  0  0
  192.5160  173.4000  145.0920 C   0  0  0  0  0  3  0  0  0  0  0  0
  191.6290  173.0640  144.1960 C   0  0  0  0  0  0  0  0  0  0  0  0
  190.8840  173.1110  141.8450 C   0  0  2  0  0  3  0  0  0  0  0  0
  189.5980  173.4320  139.8460 N   0  0  0  0  0  0  0  0  0  0  0  0
  188.2150  173.0850  139.5840 C   0  0  0  0  0  1  0  0  0  0  0  0
  189.6790  173.8130  141.2470 C   0  0  0  0  0  2  0  0  0  0  0  0
  191.0590  171.8810  140.9990 C   0  0  0  0  0  2  0  0  0  0  0  0
  190.3850  172.2110  139.6850 C   0  0  0  0  0  2  0  0  0  0  0  0
  192.0440  177.2430  143.1790 C   0  0  0  0  0  2  0  0  0  0  0  0
  193.0100  176.2820  142.6710 N   0  0  0  0  0  2  0  0  0  0  0  0
  194.2440  176.0130  143.3420 C   0  0  0  0  0  0  0  0  0  0  0  0
  195.1420  175.0290  142.8350 N   0  0  0  0  0  2  0  0  0  0  0  0
  194.5530  176.6530  144.3820 O   0  0  0  0  0  0  0  0  0  0  0  0
  194.8240  174.2210  141.6700 C   0  0  0  0  0  3  0  0  0  0  0  0
  195.9440  173.2270  141.4320 C   0  0  0  0  0  2  0  0  0  0  0  0
  194.6570  172.7770  142.0920 C   0  0  0  0  0  2  0  0  0  0  0  0
  1 31  1  6  0  0  0
  1 16  1  0  0  0  0
  2  3  1  0  0  0  0
  2  1  1  0  0  0  0
  4 11  2  0  0  0  0
  4  8  1  0  0  0  0
  5 10  1  0  0  0  0
  5 11  1  0  0  0  0
  7  4  1  0  0  0  0
  8 13  2  0  0  0  0
  9  6  1  0  0  0  0
 10  3  1  1  0  0  0
 10 12  1  0  0  0  0
 11 15  1  0  0  0  0
 12 15  1  0  0  0  0
 12 14  1  6  0  0  0
 13  9  1  0  0  0  0
 14  6  2  0  0  0  0
 15  9  2  0  0  0  0
 17 16  1  6  0  0  0
 17 19  1  0  0  0  0
 19 18  1  0  0  0  0
 20 17  1  0  0  0  0
 21 22  1  0  0  0  0
 21 24  2  0  0  0  0
 23 20  1  0  0  0  0
 24 23  2  0  0  0  0
 25 21  1  1  0  0  0
 26 28  1  0  0  0  0
 27 26  1  0  0  0  0
 28 25  1  0  0  0  0
 29 25  1  0  0  0  0
 30 26  1  0  0  0  0
 30 29  1  0  0  0  0
 32 31  1  0  0  0  0
 32 33  1  0  0  0  0
 33 35  2  0  0  0  0
 34 33  1  0  0  0  0
 36 38  1  0  0  0  0
 36 34  1  0  0  0  0
 37 36  1  0  0  0  0
 37 38  1  0  0  0  0
M  END
>  <MODEL>
8

>  <REMARK>
 VINA RESULT:      -6.6      1.865      4.766
  Name = 
  12 active torsions:
  status: ('A' for Active; 'I' for Inactive)
    1  A    between atoms: C_2  and  N_23
    2  A    between atoms: N_3  and  C_36
    3  A    between atoms: C_4  and  C_14
    4  A    between atoms: C_4  and  O_15
    5  A    between atoms: N_8  and  CA_19
    6  A    between atoms: N_8  and  C_37
    7  A    between atoms: C_11  and  C_21
    8  A    between atoms: C_14  and  C_32
    9  A    between atoms: C_14  and  C_36
   10  A    between atoms: O_15  and  C_18
   11  A    between atoms: CA_19  and  C_26
   12  A    between atoms: CA_19  and  C_32
                            x       y       z     vdW  Elec       q    Type
                         _______ _______ _______ _____ _____    ______ ____

>  <TORSDO>
F 12

$$$$
=
 OpenBabel11042416253D

 38 42  0  0  1  0  0  0  0  0999 V2000
  190.2420  174.6420  145.8710 C   0  0  2  0  0  3  0  0  0  0  0  0
  189.1330  175.2880  146.6850 C   0  0  0  0  0  2  0  0  0  0  0  0
  188.7610  176.5220  146.0920 O   0  0  0  0  0  0  0  0  0  0  0  0
  185.0260  178.0650  143.7170 C   0  0  0  0  0  0  0  0  0  0  0  0
  187.0400  176.8410  144.4520 C   0  0  0  0  0  2  0  0  0  0  0  0
  185.0610  178.6760  147.5890 C   0  0  0  0  0  3  0  0  0  0  0  0
  185.5220  178.2800  142.4000 N   0  0  0  0  0  1  0  0  0  0  0  0
  184.0840  179.0040  144.2740 N   0  0  0  0  0  0  0  0  0  0  0  0
  184.2350  178.0450  146.5070 C   0  0  0  0  0  0  0  0  0  0  0  0
  187.4460  176.7950  145.7170 C   0  0  1  0  0  3  0  0  0  0  0  0
  185.6150  177.1800  144.5210 C   0  0  0  0  0  0  0  0  0  0  0  0
  186.3240  177.0590  146.6230 C   0  0  1  0  0  3  0  0  0  0  0  0
  183.7530  179.0190  145.5130 N   0  0  0  0  0  0  0  0  0  0  0  0
  186.2560  178.0820  147.6660 C   0  0  0  0  0  3  0  0  0  0  0  0
  185.2350  177.1300  145.9130 C   0  0  0  0  0  0  0  0  0  0  0  0
  191.3910  175.6170  145.5900 C   0  0  0  0  0  2  0  0  0  0  0  0
  192.5980  175.4720  146.5220 C   0  0  2  0  0  3  0  0  0  0  0  0
  193.3460  177.1690  145.0140 O   0  0  0  0  0  1  0  0  0  0  0  0
  193.5890  176.5920  146.2600 C   0  0  0  0  0  2  0  0  0  0  0  0
  193.2420  174.1620  146.3990 N   0  0  0  0  0  2  0  0  0  0  0  0
  196.0550  172.1540  145.4400 C   0  0  0  0  0  0  0  0  0  0  0  0
  197.2760  172.7510  145.7230 O   0  0  0  0  0  1  0  0  0  0  0  0
  193.9270  173.6580  145.2450 C   0  0  0  0  0  3  0  0  0  0  0  0
  194.9920  172.9090  145.3380 C   0  0  0  0  0  0  0  0  0  0  0  0
  195.9980  170.6580  145.2840 C   0  0  2  0  0  3  0  0  0  0  0  0
  195.1440  168.6880  146.3530 N   0  0  0  0  0  0  0  0  0  0  0  0
  194.5820  168.5400  147.6810 C   0  0  0  0  0  1  0  0  0  0  0  0
  194.7620  170.0080  145.8780 C   0  0  0  0  0  2  0  0  0  0  0  0
  197.1450  170.0080  146.0040 C   0  0  0  0  0  2  0  0  0  0  0  0
  196.5980  168.6870  146.5010 C   0  0  0  0  0  2  0  0  0  0  0  0
  189.6920  174.0240  144.5960 C   0  0  0  0  0  2  0  0  0  0  0  0
  190.5250  172.9020  144.1940 N   0  0  0  0  0  2  0  0  0  0  0  0
  190.1340  171.9920  143.1630 C   0  0  0  0  0  0  0  0  0  0  0  0
  191.0020  170.9320  142.7670 N   0  0  0  0  0  2  0  0  0  0  0  0
  189.0120  172.1130  142.6040 O   0  0  0  0  0  0  0  0  0  0  0  0
  192.3280  170.7680  143.3360 C   0  0  0  0  0  3  0  0  0  0  0  0
  193.1230  169.8020  142.4790 C   0  0  0  0  0  2  0  0  0  0  0  0
  193.3610  171.2930  142.3620 C   0  0  0  0  0  2  0  0  0  0  0  0
  1 31  1  6  0  0  0
  1  2  1  0  0  0  0
  3  2  1  0  0  0  0
  4  8  2  0  0  0  0
  4 11  1  0  0  0  0
  5 11  1  0  0  0  0
  5 10  1  0  0  0  0
  6 14  2  0  0  0  0
  7  4  1  0  0  0  0
  8 13  1  0  0  0  0
  9  6  1  0  0  0  0
 10  3  1  1  0  0  0
 10 12  1  0  0  0  0
 11 15  2  0  0  0  0
 12 14  1  6  0  0  0
 13  9  2  0  0  0  0
 15  9  1  0  0  0  0
 15 12  1  0  0  0  0
 16  1  1  0  0  0  0
 17 16  1  6  0  0  0
 18 19  1  0  0  0  0
 19 17  1  0  0  0  0
 20 17  1  0  0  0  0
 21 22  1  0  0  0  0
 23 24  2  0  0  0  0
 23 20  1  0  0  0  0
 24 21  2  0  0  0  0
 25 21  1  1  0  0  0
 25 28  1  0  0  0  0
 25 29  1  0  0  0  0
 26 30  1  0  0  0  0
 26 27  1  0  0  0  0
 28 26  1  0  0  0  0
 29 30  1  0  0  0  0
 32 31  1  0  0  0  0
 33 32  1  0  0  0  0
 34 33  1  0  0  0  0
 34 36  1  0  0  0  0
 35 33  2  0  0  0  0
 37 36  1  0  0  0  0
 38 37  1  0  0  0  0
 38 36  1  0  0  0  0
M  END
>  <MODEL>
9

>  <REMARK>
 VINA RESULT:      -6.6      3.147      5.187
  Name = 
  12 active torsions:
  status: ('A' for Active; 'I' for Inactive)
    1  A    between atoms: C_2  and  N_23
    2  A    between atoms: N_3  and  C_36
    3  A    between atoms: C_4  and  C_14
    4  A    between atoms: C_4  and  O_15
    5  A    between atoms: N_8  and  CA_19
    6  A    between atoms: N_8  and  C_37
    7  A    between atoms: C_11  and  C_21
    8  A    between atoms: C_14  and  C_32
    9  A    between atoms: C_14  and  C_36
   10  A    between atoms: O_15  and  C_18
   11  A    between atoms: CA_19  and  C_26
   12  A    between atoms: CA_19  and  C_32
                            x       y       z     vdW  Elec       q    Type
                         _______ _______ _______ _____ _____    ______ ____

>  <TORSDO>
F 12

$$$$
