=
 OpenBabel11042416373D

 32 34  0  0  1  0  0  0  0  0999 V2000
  193.1640  172.3740  144.6650 C   0  0  0  0  0  3  0  0  0  0  0  0
  192.2300  174.5580  145.1740 C   0  0  0  0  0  0  0  0  0  0  0  0
  189.7720  175.2420  146.6030 N   0  0  0  0  0  0  0  0  0  0  0  0
  188.5170  176.1390  142.3060 C   0  0  0  0  0  3  0  0  0  0  0  0
  191.3270  175.7910  148.2620 O   0  0  0  0  0  0  0  0  0  0  0  0
  191.1680  174.3140  144.2810 C   0  0  0  0  0  0  0  0  0  0  0  0
  191.0870  175.6410  147.0340 C   0  0  0  0  0  0  0  0  0  0  0  0
  191.1190  173.0910  143.5900 C   0  0  0  0  0  3  0  0  0  0  0  0
  192.1150  172.1240  143.7780 C   0  0  0  0  0  0  0  0  0  0  0  0
  192.1940  175.7960  146.0260 C   0  0  1  0  0  3  0  0  0  0  0  0
  188.3600  177.5030  142.9180 C   0  0  2  0  0  3  0  0  0  0  0  0
  193.2160  173.5790  145.3690 C   0  0  0  0  0  3  0  0  0  0  0  0
  189.1920  175.6300  145.3100 C   0  0  2  0  0  3  0  0  0  0  0  0
  189.3000  175.1870  142.8280 C   0  0  0  0  0  3  0  0  0  0  0  0
  190.1060  175.3760  144.0870 C   0  0  2  0  0  3  0  0  0  0  0  0
  188.9280  174.4820  147.5100 C   0  0  0  0  0  1  0  0  0  0  0  0
  188.7700  177.0950  145.3650 C   0  0  0  0  0  2  0  0  0  0  0  0
  187.7280  177.4270  144.3050 C   0  0  0  0  0  2  0  0  0  0  0  0
  192.3620  169.7670  143.8940 O   0  0  0  0  0  1  0  0  0  0  0  0
  192.0800  170.8290  143.0320 C   0  0  1  0  0  3  0  0  0  0  0  0
  190.7250  170.6270  142.3750 C   0  0  0  0  0  2  0  0  0  0  0  0
  190.8720  170.6160  140.9310 N   0  0  0  0  0  1  0  0  0  0  0  0
  187.5450  178.4110  142.0010 C   0  0  0  0  0  2  0  0  0  0  0  0
  186.2010  178.5770  142.4920 N   0  0  0  0  0  0  0  0  0  0  0  0
  185.2230  178.0160  141.8840 C   0  0  0  0  0  3  0  0  0  0  0  0
  183.8340  178.1880  142.3910 C   0  0  0  0  0  1  0  0  0  0  0  0
  193.4510  176.0390  146.6470 O   0  0  0  0  0  0  0  0  0  0  0  0
  195.1120  177.2620  145.4870 C   0  0  0  0  0  3  0  0  0  0  0  0
  194.1500  177.2170  146.4000 C   0  0  0  0  0  3  0  0  0  0  0  0
  195.4620  176.1050  144.7320 N   0  0  0  0  0  2  0  0  0  0  0  0
  195.4130  176.1400  143.3120 C   0  0  0  0  0  3  0  0  0  0  0  0
  194.2470  176.0930  142.6890 C   0  0  0  0  0  2  0  0  0  0  0  0
  1 12  1  0  0  0  0
  2 12  2  0  0  0  0
  2 10  1  0  0  0  0
  3  7  1  0  0  0  0
  3 16  1  0  0  0  0
  4 14  2  0  0  0  0
  4 11  1  0  0  0  0
  6  2  1  0  0  0  0
  7  5  2  0  0  0  0
  8  9  1  0  0  0  0
  8  6  2  0  0  0  0
  9  1  2  0  0  0  0
 10 27  1  1  0  0  0
 10  7  1  0  0  0  0
 11 23  1  6  0  0  0
 11 18  1  0  0  0  0
 13 17  1  1  0  0  0
 13  3  1  0  0  0  0
 15 14  1  6  0  0  0
 15  6  1  0  0  0  0
 15 13  1  0  0  0  0
 18 17  1  0  0  0  0
 20  9  1  0  0  0  0
 20 19  1  1  0  0  0
 21 20  1  0  0  0  0
 22 21  1  0  0  0  0
 23 24  1  0  0  0  0
 25 26  1  0  0  0  0
 25 24  2  0  0  0  0
 28 29  2  0  0  0  0
 29 27  1  0  0  0  0
 30 28  1  0  0  0  0
 31 30  1  0  0  0  0
 32 31  2  0  0  0  0
M  END
>  <MODEL>
1

>  <REMARK>
 VINA RESULT:      -6.2      0.000      0.000
  Name = 
  8 active torsions:
  status: ('A' for Active; 'I' for Inactive)
    1  A    between atoms: C_1  and  N_16
    2  A    between atoms: N_3  and  C_12
    3  A    between atoms: C_5  and  N_16
    4  A    between atoms: C_10  and  C_15
    5  A    between atoms: C_10  and  C_20
    6  A    between atoms: C_12  and  C_24
    7  A    between atoms: C_13  and  O_22
    8  A    between atoms: O_22  and  C_23
                            x       y       z     vdW  Elec       q    Type
                         _______ _______ _______ _____ _____    ______ ____

>  <TORSDO>
F 8

$$$$
=
 OpenBabel11042416373D

 32 34  0  0  1  0  0  0  0  0999 V2000
  186.3600  176.5340  143.5870 C   0  0  0  0  0  3  0  0  0  0  0  0
  188.3310  175.3680  142.7770 C   0  0  0  0  0  0  0  0  0  0  0  0
  189.8760  173.2300  144.0380 N   0  0  0  0  0  0  0  0  0  0  0  0
  192.6970  176.7680  144.6420 C   0  0  0  0  0  3  0  0  0  0  0  0
  188.7610  171.9680  142.4140 O   0  0  0  0  0  0  0  0  0  0  0  0
  189.1060  175.9770  143.7820 C   0  0  0  0  0  0  0  0  0  0  0  0
  189.2040  173.0930  142.7720 C   0  0  0  0  0  0  0  0  0  0  0  0
  188.4900  176.8600  144.6850 C   0  0  0  0  0  3  0  0  0  0  0  0
  187.1220  177.1420  144.5860 C   0  0  0  0  0  0  0  0  0  0  0  0
  188.9580  174.3060  141.9160 C   0  0  1  0  0  3  0  0  0  0  0  0
  193.5670  175.8750  143.8030 C   0  0  2  0  0  3  0  0  0  0  0  0
  186.9570  175.6420  142.6940 C   0  0  0  0  0  3  0  0  0  0  0  0
  190.9340  174.2170  144.2900 C   0  0  2  0  0  3  0  0  0  0  0  0
  191.3620  176.6750  144.6700 C   0  0  0  0  0  3  0  0  0  0  0  0
  190.5860  175.6640  143.8650 C   0  0  2  0  0  3  0  0  0  0  0  0
  189.5610  172.3030  145.1130 C   0  0  0  0  0  1  0  0  0  0  0  0
  192.2230  173.7590  143.6150 C   0  0  0  0  0  2  0  0  0  0  0  0
  193.4520  174.4140  144.2300 C   0  0  0  0  0  2  0  0  0  0  0  0
  186.0730  179.2540  144.8540 O   0  0  0  0  0  1  0  0  0  0  0  0
  186.4630  178.0960  145.5300 C   0  0  1  0  0  3  0  0  0  0  0  0
  185.2610  177.4460  146.1950 C   0  0  0  0  0  2  0  0  0  0  0  0
  184.1280  178.3540  146.1650 N   0  0  0  0  0  1  0  0  0  0  0  0
  195.0200  176.3410  143.8540 C   0  0  0  0  0  2  0  0  0  0  0  0
  195.8570  175.3670  144.5080 N   0  0  0  0  0  0  0  0  0  0  0  0
  197.0170  175.0990  144.0360 C   0  0  0  0  0  3  0  0  0  0  0  0
  197.8820  174.0930  144.7110 C   0  0  0  0  0  1  0  0  0  0  0  0
  188.1480  174.0060  140.7850 O   0  0  0  0  0  0  0  0  0  0  0  0
  188.9800  173.4000  138.6540 C   0  0  0  0  0  3  0  0  0  0  0  0
  188.5720  174.3360  139.5010 C   0  0  0  0  0  3  0  0  0  0  0  0
  189.0000  172.0270  139.0330 N   0  0  0  0  0  2  0  0  0  0  0  0
  190.2390  171.3480  139.1890 C   0  0  0  0  0  3  0  0  0  0  0  0
  191.2410  171.9380  139.8200 C   0  0  0  0  0  2  0  0  0  0  0  0
  1  9  1  0  0  0  0
  2  6  2  0  0  0  0
  3 13  1  0  0  0  0
  3 16  1  0  0  0  0
  4 14  2  0  0  0  0
  5  7  2  0  0  0  0
  6 15  1  0  0  0  0
  6  8  1  0  0  0  0
  7  3  1  0  0  0  0
  9  8  2  0  0  0  0
  9 20  1  0  0  0  0
 10 27  1  6  0  0  0
 10  7  1  0  0  0  0
 10  2  1  0  0  0  0
 11 23  1  1  0  0  0
 11 18  1  0  0  0  0
 11  4  1  0  0  0  0
 12  2  1  0  0  0  0
 12  1  2  0  0  0  0
 13 17  1  6  0  0  0
 15 13  1  0  0  0  0
 15 14  1  1  0  0  0
 17 18  1  0  0  0  0
 20 19  1  6  0  0  0
 20 21  1  0  0  0  0
 22 21  1  0  0  0  0
 23 24  1  0  0  0  0
 25 24  2  0  0  0  0
 25 26  1  0  0  0  0
 28 30  1  0  0  0  0
 28 29  2  0  0  0  0
 29 27  1  0  0  0  0
 30 31  1  0  0  0  0
 31 32  2  0  0  0  0
M  END
>  <MODEL>
2

>  <REMARK>
 VINA RESULT:      -6.2      2.902      7.752
  Name = 
  8 active torsions:
  status: ('A' for Active; 'I' for Inactive)
    1  A    between atoms: C_1  and  N_16
    2  A    between atoms: N_3  and  C_12
    3  A    between atoms: C_5  and  N_16
    4  A    between atoms: C_10  and  C_15
    5  A    between atoms: C_10  and  C_20
    6  A    between atoms: C_12  and  C_24
    7  A    between atoms: C_13  and  O_22
    8  A    between atoms: O_22  and  C_23
                            x       y       z     vdW  Elec       q    Type
                         _______ _______ _______ _____ _____    ______ ____

>  <TORSDO>
F 8

$$$$
=
 OpenBabel11042416373D

 32 34  0  0  1  0  0  0  0  0999 V2000
  186.3070  176.1400  143.1260 C   0  0  0  0  0  3  0  0  0  0  0  0
  188.4890  175.1940  142.6290 C   0  0  0  0  0  0  0  0  0  0  0  0
  189.9910  173.1320  144.0570 N   0  0  0  0  0  0  0  0  0  0  0  0
  192.3190  176.8610  145.2850 C   0  0  0  0  0  3  0  0  0  0  0  0
  189.2950  171.8700  142.2140 O   0  0  0  0  0  0  0  0  0  0  0  0
  189.0200  175.8120  143.7780 C   0  0  0  0  0  0  0  0  0  0  0  0
  189.5620  173.0080  142.6880 C   0  0  0  0  0  0  0  0  0  0  0  0
  188.1780  176.5870  144.5930 C   0  0  0  0  0  3  0  0  0  0  0  0
  186.8260  176.7550  144.2670 C   0  0  0  0  0  0  0  0  0  0  0  0
  189.3520  174.2400  141.8510 C   0  0  1  0  0  3  0  0  0  0  0  0
  193.4010  176.0940  144.5770 C   0  0  2  0  0  3  0  0  0  0  0  0
  187.1300  175.3530  142.3180 C   0  0  0  0  0  3  0  0  0  0  0  0
  190.8920  174.1900  144.5290 C   0  0  2  0  0  3  0  0  0  0  0  0
  191.0140  176.6520  145.0740 C   0  0  0  0  0  3  0  0  0  0  0  0
  190.4870  175.6230  144.1070 C   0  0  2  0  0  3  0  0  0  0  0  0
  189.5860  172.1230  145.0220 C   0  0  0  0  0  1  0  0  0  0  0  0
  192.3150  173.8840  144.0730 C   0  0  0  0  0  2  0  0  0  0  0  0
  193.3530  174.6080  144.9190 C   0  0  0  0  0  2  0  0  0  0  0  0
  184.7830  177.9540  144.4040 O   0  0  0  0  0  1  0  0  0  0  0  0
  185.9280  177.5950  145.1180 C   0  0  1  0  0  3  0  0  0  0  0  0
  185.5450  176.8520  146.3870 C   0  0  0  0  0  2  0  0  0  0  0  0
  186.0110  177.5850  147.5500 N   0  0  0  0  0  1  0  0  0  0  0  0
  194.7730  176.6800  144.9000 C   0  0  0  0  0  2  0  0  0  0  0  0
  195.8170  175.9880  144.1880 N   0  0  0  0  0  0  0  0  0  0  0  0
  196.5820  176.6320  143.3890 C   0  0  0  0  0  3  0  0  0  0  0  0
  197.6610  175.9180  142.6530 C   0  0  0  0  0  1  0  0  0  0  0  0
  188.7800  173.9340  140.5840 O   0  0  0  0  0  0  0  0  0  0  0  0
  189.1600  173.9490  138.2490 C   0  0  0  0  0  3  0  0  0  0  0  0
  189.5900  173.6950  139.4780 C   0  0  0  0  0  3  0  0  0  0  0  0
  187.8550  174.4740  138.0220 N   0  0  0  0  0  2  0  0  0  0  0  0
  187.6130  175.3260  136.9100 C   0  0  0  0  0  3  0  0  0  0  0  0
  186.4940  176.0300  136.8480 C   0  0  0  0  0  2  0  0  0  0  0  0
  1  9  1  0  0  0  0
  2  6  2  0  0  0  0
  3 13  1  0  0  0  0
  3 16  1  0  0  0  0
  5  7  2  0  0  0  0
  6 15  1  0  0  0  0
  6  8  1  0  0  0  0
  7  3  1  0  0  0  0
  9  8  2  0  0  0  0
  9 20  1  0  0  0  0
 10 27  1  6  0  0  0
 10  2  1  0  0  0  0
 10  7  1  0  0  0  0
 11 23  1  1  0  0  0
 11 18  1  0  0  0  0
 11  4  1  0  0  0  0
 12  2  1  0  0  0  0
 12  1  2  0  0  0  0
 13 17  1  6  0  0  0
 14  4  2  0  0  0  0
 15 13  1  0  0  0  0
 15 14  1  1  0  0  0
 17 18  1  0  0  0  0
 20 19  1  6  0  0  0
 20 21  1  0  0  0  0
 21 22  1  0  0  0  0
 24 23  1  0  0  0  0
 25 24  2  0  0  0  0
 26 25  1  0  0  0  0
 28 29  2  0  0  0  0
 29 27  1  0  0  0  0
 30 28  1  0  0  0  0
 31 30  1  0  0  0  0
 32 31  2  0  0  0  0
M  END
>  <MODEL>
3

>  <REMARK>
 VINA RESULT:      -6.2      3.243      7.773
  Name = 
  8 active torsions:
  status: ('A' for Active; 'I' for Inactive)
    1  A    between atoms: C_1  and  N_16
    2  A    between atoms: N_3  and  C_12
    3  A    between atoms: C_5  and  N_16
    4  A    between atoms: C_10  and  C_15
    5  A    between atoms: C_10  and  C_20
    6  A    between atoms: C_12  and  C_24
    7  A    between atoms: C_13  and  O_22
    8  A    between atoms: O_22  and  C_23
                            x       y       z     vdW  Elec       q    Type
                         _______ _______ _______ _____ _____    ______ ____

>  <TORSDO>
F 8

$$$$
=
 OpenBabel11042416373D

 32 34  0  0  1  0  0  0  0  0999 V2000
  186.2300  178.2590  143.0110 C   0  0  0  0  0  3  0  0  0  0  0  0
  187.8430  176.7270  143.9880 C   0  0  0  0  0  0  0  0  0  0  0  0
  190.7200  176.5060  143.5170 N   0  0  0  0  0  0  0  0  0  0  0  0
  189.2160  172.8520  141.2320 C   0  0  0  0  0  3  0  0  0  0  0  0
  190.7700  177.5170  145.6260 O   0  0  0  0  0  0  0  0  0  0  0  0
  187.9940  176.0900  142.7410 C   0  0  0  0  0  0  0  0  0  0  0  0
  190.1380  176.8030  144.8000 C   0  0  0  0  0  0  0  0  0  0  0  0
  187.2580  176.5540  141.6380 C   0  0  0  0  0  3  0  0  0  0  0  0
  186.3750  177.6330  141.7720 C   0  0  0  0  0  0  0  0  0  0  0  0
  188.7460  176.3310  145.1220 C   0  0  1  0  0  3  0  0  0  0  0  0
  190.0940  172.1830  142.2520 C   0  0  2  0  0  3  0  0  0  0  0  0
  186.9690  177.8180  144.1110 C   0  0  0  0  0  3  0  0  0  0  0  0
  190.4480  175.2690  142.7720 C   0  0  2  0  0  3  0  0  0  0  0  0
  188.7010  174.0760  141.3970 C   0  0  0  0  0  3  0  0  0  0  0  0
  188.9480  174.9190  142.6210 C   0  0  2  0  0  3  0  0  0  0  0  0
  191.6870  177.4270  142.9460 C   0  0  0  0  0  1  0  0  0  0  0  0
  191.2020  174.1130  143.4220 C   0  0  0  0  0  2  0  0  0  0  0  0
  191.3980  172.9490  142.4590 C   0  0  0  0  0  2  0  0  0  0  0  0
  185.6550  177.2120  139.5500 O   0  0  0  0  0  1  0  0  0  0  0  0
  185.5730  178.1200  140.6080 C   0  0  1  0  0  3  0  0  0  0  0  0
  184.1220  178.3290  141.0080 C   0  0  0  0  0  2  0  0  0  0  0  0
  183.2430  177.7910  139.9850 N   0  0  0  0  0  1  0  0  0  0  0  0
  190.3740  170.7370  141.8530 C   0  0  0  0  0  2  0  0  0  0  0  0
  190.6010  170.6220  140.4340 N   0  0  0  0  0  0  0  0  0  0  0  0
  191.7130  170.1580  139.9990 C   0  0  0  0  0  3  0  0  0  0  0  0
  191.9480  170.0400  138.5340 C   0  0  0  0  0  1  0  0  0  0  0  0
  188.2810  176.8490  146.3640 O   0  0  0  0  0  0  0  0  0  0  0  0
  186.3390  176.8690  147.7150 C   0  0  0  0  0  3  0  0  0  0  0  0
  187.2850  176.1900  147.0790 C   0  0  0  0  0  3  0  0  0  0  0  0
  186.3120  178.2930  147.6870 N   0  0  0  0  0  2  0  0  0  0  0  0
  185.2260  178.9740  147.0740 C   0  0  0  0  0  3  0  0  0  0  0  0
  184.2370  178.2850  146.5270 C   0  0  0  0  0  2  0  0  0  0  0  0
  1 12  1  0  0  0  0
  2 12  2  0  0  0  0
  2 10  1  0  0  0  0
  3  7  1  0  0  0  0
  4 14  2  0  0  0  0
  4 11  1  0  0  0  0
  6  2  1  0  0  0  0
  7 10  1  0  0  0  0
  7  5  2  0  0  0  0
  8  9  1  0  0  0  0
  8  6  2  0  0  0  0
  9  1  2  0  0  0  0
 10 27  1  1  0  0  0
 11 23  1  6  0  0  0
 11 18  1  0  0  0  0
 13 17  1  1  0  0  0
 13  3  1  0  0  0  0
 15 14  1  6  0  0  0
 15  6  1  0  0  0  0
 15 13  1  0  0  0  0
 16  3  1  0  0  0  0
 18 17  1  0  0  0  0
 20 19  1  6  0  0  0
 20 21  1  0  0  0  0
 20  9  1  0  0  0  0
 22 21  1  0  0  0  0
 24 23  1  0  0  0  0
 25 24  2  0  0  0  0
 26 25  1  0  0  0  0
 27 29  1  0  0  0  0
 29 28  2  0  0  0  0
 30 28  1  0  0  0  0
 31 30  1  0  0  0  0
 32 31  2  0  0  0  0
M  END
>  <MODEL>
4

>  <REMARK>
 VINA RESULT:      -6.2      3.063      7.548
  Name = 
  8 active torsions:
  status: ('A' for Active; 'I' for Inactive)
    1  A    between atoms: C_1  and  N_16
    2  A    between atoms: N_3  and  C_12
    3  A    between atoms: C_5  and  N_16
    4  A    between atoms: C_10  and  C_15
    5  A    between atoms: C_10  and  C_20
    6  A    between atoms: C_12  and  C_24
    7  A    between atoms: C_13  and  O_22
    8  A    between atoms: O_22  and  C_23
                            x       y       z     vdW  Elec       q    Type
                         _______ _______ _______ _____ _____    ______ ____

>  <TORSDO>
F 8

$$$$
=
 OpenBabel11042416373D

 32 34  0  0  1  0  0  0  0  0999 V2000
  186.3870  176.4960  143.4680 C   0  0  0  0  0  3  0  0  0  0  0  0
  188.3880  175.3460  142.7090 C   0  0  0  0  0  0  0  0  0  0  0  0
  189.9520  173.2620  144.0350 N   0  0  0  0  0  0  0  0  0  0  0  0
  192.7050  176.8590  144.6000 C   0  0  0  0  0  3  0  0  0  0  0  0
  188.8800  171.9480  142.4230 O   0  0  0  0  0  0  0  0  0  0  0  0
  189.1400  175.9890  143.7110 C   0  0  0  0  0  0  0  0  0  0  0  0
  189.2990  173.0870  142.7630 C   0  0  0  0  0  0  0  0  0  0  0  0
  188.4970  176.8810  144.5860 C   0  0  0  0  0  3  0  0  0  0  0  0
  187.1260  177.1370  144.4650 C   0  0  0  0  0  0  0  0  0  0  0  0
  189.0440  174.2780  141.8790 C   0  0  1  0  0  3  0  0  0  0  0  0
  193.6020  175.9630  143.7910 C   0  0  2  0  0  3  0  0  0  0  0  0
  187.0110  175.5950  142.6020 C   0  0  0  0  0  3  0  0  0  0  0  0
  190.9900  174.2710  144.2790 C   0  0  2  0  0  3  0  0  0  0  0  0
  191.3720  176.7440  144.6120 C   0  0  0  0  0  3  0  0  0  0  0  0
  190.6230  175.7030  143.8190 C   0  0  2  0  0  3  0  0  0  0  0  0
  189.6380  172.3520  145.1240 C   0  0  0  0  0  1  0  0  0  0  0  0
  192.2950  173.8210  143.6300 C   0  0  0  0  0  2  0  0  0  0  0  0
  193.5050  174.5100  144.2470 C   0  0  0  0  0  2  0  0  0  0  0  0
  186.0400  179.2370  144.6750 O   0  0  0  0  0  1  0  0  0  0  0  0
  186.4390  178.0990  145.3790 C   0  0  1  0  0  3  0  0  0  0  0  0
  185.2370  177.4440  146.0400 C   0  0  0  0  0  2  0  0  0  0  0  0
  184.1540  178.4030  146.1600 N   0  0  0  0  0  1  0  0  0  0  0  0
  195.0450  176.4550  143.8510 C   0  0  0  0  0  2  0  0  0  0  0  0
  195.8340  175.8880  142.7870 N   0  0  0  0  0  0  0  0  0  0  0  0
  195.8960  176.4770  141.6520 C   0  0  0  0  0  3  0  0  0  0  0  0
  196.7110  175.8910  140.5530 C   0  0  0  0  0  1  0  0  0  0  0  0
  188.2550  173.9410  140.7440 O   0  0  0  0  0  0  0  0  0  0  0  0
  189.1560  173.3540  138.6360 C   0  0  0  0  0  3  0  0  0  0  0  0
  188.6770  174.2760  139.4600 C   0  0  0  0  0  3  0  0  0  0  0  0
  189.2560  171.9910  139.0380 N   0  0  0  0  0  2  0  0  0  0  0  0
  190.5280  171.3610  139.1140 C   0  0  0  0  0  3  0  0  0  0  0  0
  191.4510  171.8310  139.9370 C   0  0  0  0  0  2  0  0  0  0  0  0
  1  9  1  0  0  0  0
  2  6  2  0  0  0  0
  3 13  1  0  0  0  0
  3 16  1  0  0  0  0
  4 14  2  0  0  0  0
  5  7  2  0  0  0  0
  6 15  1  0  0  0  0
  6  8  1  0  0  0  0
  7  3  1  0  0  0  0
  9  8  2  0  0  0  0
  9 20  1  0  0  0  0
 10 27  1  6  0  0  0
 10  2  1  0  0  0  0
 10  7  1  0  0  0  0
 11 23  1  1  0  0  0
 11 18  1  0  0  0  0
 11  4  1  0  0  0  0
 12  2  1  0  0  0  0
 12  1  2  0  0  0  0
 13 17  1  6  0  0  0
 15 13  1  0  0  0  0
 15 14  1  1  0  0  0
 17 18  1  0  0  0  0
 20 19  1  6  0  0  0
 20 21  1  0  0  0  0
 21 22  1  0  0  0  0
 24 23  1  0  0  0  0
 25 24  2  0  0  0  0
 26 25  1  0  0  0  0
 28 30  1  0  0  0  0
 28 29  2  0  0  0  0
 29 27  1  0  0  0  0
 30 31  1  0  0  0  0
 31 32  2  0  0  0  0
M  END
>  <MODEL>
5

>  <REMARK>
 VINA RESULT:      -6.1      2.888      7.547
  Name = 
  8 active torsions:
  status: ('A' for Active; 'I' for Inactive)
    1  A    between atoms: C_1  and  N_16
    2  A    between atoms: N_3  and  C_12
    3  A    between atoms: C_5  and  N_16
    4  A    between atoms: C_10  and  C_15
    5  A    between atoms: C_10  and  C_20
    6  A    between atoms: C_12  and  C_24
    7  A    between atoms: C_13  and  O_22
    8  A    between atoms: O_22  and  C_23
                            x       y       z     vdW  Elec       q    Type
                         _______ _______ _______ _____ _____    ______ ____

>  <TORSDO>
F 8

$$$$
=
 OpenBabel11042416373D

 32 34  0  0  1  0  0  0  0  0999 V2000
  185.7850  176.7970  144.8380 C   0  0  0  0  0  3  0  0  0  0  0  0
  187.7160  176.2420  143.4730 C   0  0  0  0  0  0  0  0  0  0  0  0
  189.3120  173.7930  143.4170 N   0  0  0  0  0  0  0  0  0  0  0  0
  192.1620  176.5960  145.6210 C   0  0  0  0  0  3  0  0  0  0  0  0
  188.1250  173.5040  141.4220 O   0  0  0  0  0  0  0  0  0  0  0  0
  188.5360  176.2750  144.6180 C   0  0  0  0  0  0  0  0  0  0  0  0
  188.5850  174.3020  142.2830 C   0  0  0  0  0  0  0  0  0  0  0  0
  187.9610  176.5660  145.8670 C   0  0  0  0  0  3  0  0  0  0  0  0
  186.5900  176.8310  145.9780 C   0  0  0  0  0  0  0  0  0  0  0  0
  188.3040  175.7750  142.1700 C   0  0  1  0  0  3  0  0  0  0  0  0
  192.9940  176.2690  144.4130 C   0  0  2  0  0  3  0  0  0  0  0  0
  186.3410  176.4920  143.5940 C   0  0  0  0  0  3  0  0  0  0  0  0
  190.3820  174.5380  144.0930 C   0  0  2  0  0  3  0  0  0  0  0  0
  190.8290  176.4740  145.6490 C   0  0  0  0  0  3  0  0  0  0  0  0
  190.0170  175.9930  144.4740 C   0  0  2  0  0  3  0  0  0  0  0  0
  189.0430  172.4430  143.8850 C   0  0  0  0  0  1  0  0  0  0  0  0
  191.6390  174.5120  143.2300 C   0  0  0  0  0  2  0  0  0  0  0  0
  192.8950  174.7910  144.0450 C   0  0  0  0  0  2  0  0  0  0  0  0
  186.7110  178.1610  147.9390 O   0  0  0  0  0  1  0  0  0  0  0  0
  185.9750  177.1610  147.2990 C   0  0  1  0  0  3  0  0  0  0  0  0
  184.5320  177.6050  147.1210 C   0  0  0  0  0  2  0  0  0  0  0  0
  184.4770  179.0410  146.9170 N   0  0  0  0  0  1  0  0  0  0  0  0
  194.4470  176.6750  144.6370 C   0  0  0  0  0  2  0  0  0  0  0  0
  195.3110  176.0980  143.6380 N   0  0  0  0  0  0  0  0  0  0  0  0
  196.5120  176.5220  143.5070 C   0  0  0  0  0  3  0  0  0  0  0  0
  197.4030  175.9270  142.4740 C   0  0  0  0  0  1  0  0  0  0  0  0
  187.4450  176.0730  141.0750 O   0  0  0  0  0  0  0  0  0  0  0  0
  186.4170  177.9610  140.0870 C   0  0  0  0  0  3  0  0  0  0  0  0
  187.5170  177.3040  140.4300 C   0  0  0  0  0  3  0  0  0  0  0  0
  185.1260  177.4270  140.3680 N   0  0  0  0  0  2  0  0  0  0  0  0
  184.0690  178.2890  140.7670 C   0  0  0  0  0  3  0  0  0  0  0  0
  183.6550  178.2910  142.0240 C   0  0  0  0  0  2  0  0  0  0  0  0
  1  9  1  0  0  0  0
  2 12  1  0  0  0  0
  2  6  2  0  0  0  0
  3 16  1  0  0  0  0
  3 13  1  0  0  0  0
  4 14  2  0  0  0  0
  5  7  2  0  0  0  0
  6  8  1  0  0  0  0
  7  3  1  0  0  0  0
  8  9  2  0  0  0  0
  9 20  1  0  0  0  0
 10 27  1  6  0  0  0
 10  7  1  0  0  0  0
 10  2  1  0  0  0  0
 11 23  1  1  0  0  0
 11  4  1  0  0  0  0
 12  1  2  0  0  0  0
 13 17  1  6  0  0  0
 13 15  1  0  0  0  0
 15  6  1  0  0  0  0
 15 14  1  1  0  0  0
 17 18  1  0  0  0  0
 18 11  1  0  0  0  0
 20 19  1  6  0  0  0
 21 20  1  0  0  0  0
 22 21  1  0  0  0  0
 24 23  1  0  0  0  0
 25 24  2  0  0  0  0
 26 25  1  0  0  0  0
 28 30  1  0  0  0  0
 28 29  2  0  0  0  0
 29 27  1  0  0  0  0
 30 31  1  0  0  0  0
 31 32  2  0  0  0  0
M  END
>  <MODEL>
6

>  <REMARK>
 VINA RESULT:      -6.1      2.841      8.110
  Name = 
  8 active torsions:
  status: ('A' for Active; 'I' for Inactive)
    1  A    between atoms: C_1  and  N_16
    2  A    between atoms: N_3  and  C_12
    3  A    between atoms: C_5  and  N_16
    4  A    between atoms: C_10  and  C_15
    5  A    between atoms: C_10  and  C_20
    6  A    between atoms: C_12  and  C_24
    7  A    between atoms: C_13  and  O_22
    8  A    between atoms: O_22  and  C_23
                            x       y       z     vdW  Elec       q    Type
                         _______ _______ _______ _____ _____    ______ ____

>  <TORSDO>
F 8

$$$$
=
 OpenBabel11042416373D

 32 34  0  0  1  0  0  0  0  0999 V2000
  187.2030  175.7160  142.0770 C   0  0  0  0  0  3  0  0  0  0  0  0
  189.1820  174.5760  142.9060 C   0  0  0  0  0  0  0  0  0  0  0  0
  190.0440  174.1110  145.6610 N   0  0  0  0  0  0  0  0  0  0  0  0
  192.9400  177.4160  144.4260 C   0  0  0  0  0  3  0  0  0  0  0  0
  189.3190  171.9500  145.1330 O   0  0  0  0  0  0  0  0  0  0  0  0
  189.6930  175.8020  143.3750 C   0  0  0  0  0  0  0  0  0  0  0  0
  189.7600  173.0570  144.7210 C   0  0  0  0  0  0  0  0  0  0  0  0
  188.9420  176.9750  143.1900 C   0  0  0  0  0  3  0  0  0  0  0  0
  187.7020  176.9350  142.5400 C   0  0  0  0  0  0  0  0  0  0  0  0
  189.9110  173.3050  143.2450 C   0  0  1  0  0  3  0  0  0  0  0  0
  193.9130  176.3120  144.7320 C   0  0  2  0  0  3  0  0  0  0  0  0
  187.9320  174.5400  142.2690 C   0  0  0  0  0  3  0  0  0  0  0  0
  191.0850  175.1250  145.4490 C   0  0  2  0  0  3  0  0  0  0  0  0
  191.6540  177.1980  144.1270 C   0  0  0  0  0  3  0  0  0  0  0  0
  191.0390  175.8230  144.0690 C   0  0  2  0  0  3  0  0  0  0  0  0
  189.3280  174.1460  146.9250 C   0  0  0  0  0  1  0  0  0  0  0  0
  192.4560  174.4980  145.6840 C   0  0  0  0  0  2  0  0  0  0  0  0
  193.5170  175.5460  145.9910 C   0  0  0  0  0  2  0  0  0  0  0  0
  185.9050  177.9570  141.3750 O   0  0  0  0  0  1  0  0  0  0  0  0
  186.9070  178.1810  142.3220 C   0  0  1  0  0  3  0  0  0  0  0  0
  186.2970  178.6620  143.6280 C   0  0  0  0  0  2  0  0  0  0  0  0
  184.8870  178.9530  143.4380 N   0  0  0  0  0  1  0  0  0  0  0  0
  195.3300  176.8650  144.8590 C   0  0  0  0  0  2  0  0  0  0  0  0
  196.2300  176.2100  143.9440 N   0  0  0  0  0  0  0  0  0  0  0  0
  196.1170  176.4070  142.6830 C   0  0  0  0  0  3  0  0  0  0  0  0
  197.0470  175.7290  141.7390 C   0  0  0  0  0  1  0  0  0  0  0  0
  189.4390  172.2100  142.4680 O   0  0  0  0  0  0  0  0  0  0  0  0
  190.2420  171.3240  140.4270 C   0  0  0  0  0  3  0  0  0  0  0  0
  190.3260  171.4160  141.7470 C   0  0  0  0  0  3  0  0  0  0  0  0
  189.2420  172.0350  139.7040 N   0  0  0  0  0  2  0  0  0  0  0  0
  189.5640  173.2590  139.0550 C   0  0  0  0  0  3  0  0  0  0  0  0
  188.6000  174.0960  138.7070 C   0  0  0  0  0  2  0  0  0  0  0  0
  1 12  2  0  0  0  0
  1  9  1  0  0  0  0
  2 10  1  0  0  0  0
  2  6  2  0  0  0  0
  3 16  1  0  0  0  0
  4 11  1  0  0  0  0
  6 15  1  0  0  0  0
  7  5  2  0  0  0  0
  7  3  1  0  0  0  0
  8  6  1  0  0  0  0
  9  8  2  0  0  0  0
 10 27  1  6  0  0  0
 10  7  1  0  0  0  0
 11 23  1  1  0  0  0
 11 18  1  0  0  0  0
 12  2  1  0  0  0  0
 13  3  1  0  0  0  0
 13 17  1  6  0  0  0
 14  4  2  0  0  0  0
 15 14  1  1  0  0  0
 15 13  1  0  0  0  0
 17 18  1  0  0  0  0
 20 19  1  6  0  0  0
 20  9  1  0  0  0  0
 20 21  1  0  0  0  0
 22 21  1  0  0  0  0
 24 23  1  0  0  0  0
 25 24  2  0  0  0  0
 26 25  1  0  0  0  0
 28 29  2  0  0  0  0
 29 27  1  0  0  0  0
 30 28  1  0  0  0  0
 31 30  1  0  0  0  0
 32 31  2  0  0  0  0
M  END
>  <MODEL>
7

>  <REMARK>
 VINA RESULT:      -5.9      2.562      7.180
  Name = 
  8 active torsions:
  status: ('A' for Active; 'I' for Inactive)
    1  A    between atoms: C_1  and  N_16
    2  A    between atoms: N_3  and  C_12
    3  A    between atoms: C_5  and  N_16
    4  A    between atoms: C_10  and  C_15
    5  A    between atoms: C_10  and  C_20
    6  A    between atoms: C_12  and  C_24
    7  A    between atoms: C_13  and  O_22
    8  A    between atoms: O_22  and  C_23
                            x       y       z     vdW  Elec       q    Type
                         _______ _______ _______ _____ _____    ______ ____

>  <TORSDO>
F 8

$$$$
=
 OpenBabel11042416373D

 32 34  0  0  1  0  0  0  0  0999 V2000
  191.9040  172.8970  139.8300 C   0  0  0  0  0  3  0  0  0  0  0  0
  191.6760  174.1980  141.8690 C   0  0  0  0  0  0  0  0  0  0  0  0
  190.2470  173.5520  144.3370 N   0  0  0  0  0  0  0  0  0  0  0  0
  187.4150  176.6340  142.5160 C   0  0  0  0  0  3  0  0  0  0  0  0
  192.4390  173.2200  145.0840 O   0  0  0  0  0  0  0  0  0  0  0  0
  190.3060  174.3860  141.5970 C   0  0  0  0  0  0  0  0  0  0  0  0
  191.6650  173.7960  144.2720 C   0  0  0  0  0  0  0  0  0  0  0  0
  189.7520  173.8180  140.4380 C   0  0  0  0  0  3  0  0  0  0  0  0
  190.5480  173.0790  139.5540 C   0  0  0  0  0  0  0  0  0  0  0  0
  192.2280  174.6700  143.1860 C   0  0  1  0  0  3  0  0  0  0  0  0
  187.7770  177.3310  143.7980 C   0  0  2  0  0  3  0  0  0  0  0  0
  192.4640  173.4430  140.9870 C   0  0  0  0  0  3  0  0  0  0  0  0
  189.2370  174.5440  143.9490 C   0  0  2  0  0  3  0  0  0  0  0  0
  188.1720  175.6790  141.9620 C   0  0  0  0  0  3  0  0  0  0  0  0
  189.4660  175.1950  142.5630 C   0  0  2  0  0  3  0  0  0  0  0  0
  189.7680  172.2940  144.8850 C   0  0  0  0  0  1  0  0  0  0  0  0
  189.1380  175.6150  145.0310 C   0  0  0  0  0  2  0  0  0  0  0  0
  187.8120  176.3610  144.9750 C   0  0  0  0  0  2  0  0  0  0  0  0
  188.9610  171.5770  138.6280 O   0  0  0  0  0  1  0  0  0  0  0  0
  189.9700  172.4890  138.3080 C   0  0  1  0  0  3  0  0  0  0  0  0
  189.4230  173.5800  137.4030 C   0  0  0  0  0  2  0  0  0  0  0  0
  190.5040  174.1790  136.6410 N   0  0  0  0  0  1  0  0  0  0  0  0
  186.8130  178.4810  144.0730 C   0  0  0  0  0  2  0  0  0  0  0  0
  186.2520  178.3870  145.3970 N   0  0  0  0  0  0  0  0  0  0  0  0
  184.9810  178.3910  145.5560 C   0  0  0  0  0  3  0  0  0  0  0  0
  184.4030  178.2940  146.9240 C   0  0  0  0  0  1  0  0  0  0  0  0
  193.6510  174.6700  143.1840 O   0  0  0  0  0  0  0  0  0  0  0  0
  194.9340  176.4140  144.1390 C   0  0  0  0  0  3  0  0  0  0  0  0
  194.3620  175.8620  143.0770 C   0  0  0  0  0  3  0  0  0  0  0  0
  194.8390  175.8050  145.4230 N   0  0  0  0  0  2  0  0  0  0  0  0
  194.1720  176.4770  146.4830 C   0  0  0  0  0  3  0  0  0  0  0  0
  192.8620  176.3540  146.6240 C   0  0  0  0  0  2  0  0  0  0  0  0
  1 12  1  0  0  0  0
  2 10  1  0  0  0  0
  3 16  1  0  0  0  0
  4 11  1  0  0  0  0
  6  2  1  0  0  0  0
  6 15  1  0  0  0  0
  7  3  1  0  0  0  0
  7  5  2  0  0  0  0
  8  6  2  0  0  0  0
  9  1  2  0  0  0  0
  9  8  1  0  0  0  0
 10 27  1  6  0  0  0
 10  7  1  0  0  0  0
 11 23  1  1  0  0  0
 11 18  1  0  0  0  0
 12  2  2  0  0  0  0
 13  3  1  0  0  0  0
 13 17  1  1  0  0  0
 14  4  2  0  0  0  0
 15 14  1  6  0  0  0
 15 13  1  0  0  0  0
 18 17  1  0  0  0  0
 20 19  1  1  0  0  0
 20  9  1  0  0  0  0
 21 20  1  0  0  0  0
 22 21  1  0  0  0  0
 23 24  1  0  0  0  0
 24 25  2  0  0  0  0
 25 26  1  0  0  0  0
 28 30  1  0  0  0  0
 29 27  1  0  0  0  0
 29 28  2  0  0  0  0
 30 31  1  0  0  0  0
 31 32  2  0  0  0  0
M  END
>  <MODEL>
8

>  <REMARK>
 VINA RESULT:      -5.9      2.884      3.613
  Name = 
  8 active torsions:
  status: ('A' for Active; 'I' for Inactive)
    1  A    between atoms: C_1  and  N_16
    2  A    between atoms: N_3  and  C_12
    3  A    between atoms: C_5  and  N_16
    4  A    between atoms: C_10  and  C_15
    5  A    between atoms: C_10  and  C_20
    6  A    between atoms: C_12  and  C_24
    7  A    between atoms: C_13  and  O_22
    8  A    between atoms: O_22  and  C_23
                            x       y       z     vdW  Elec       q    Type
                         _______ _______ _______ _____ _____    ______ ____

>  <TORSDO>
F 8

$$$$
=
 OpenBabel11042416373D

 32 34  0  0  1  0  0  0  0  0999 V2000
  189.6920  176.3650  145.6240 C   0  0  0  0  0  3  0  0  0  0  0  0
  189.5250  175.6420  143.3110 C   0  0  0  0  0  0  0  0  0  0  0  0
  189.7910  172.9610  142.1770 N   0  0  0  0  0  0  0  0  0  0  0  0
  193.7680  174.8030  140.9050 C   0  0  0  0  0  3  0  0  0  0  0  0
  187.4690  173.1990  142.0150 O   0  0  0  0  0  0  0  0  0  0  0  0
  190.9020  175.3490  143.3020 C   0  0  0  0  0  0  0  0  0  0  0  0
  188.5970  173.7600  142.0730 C   0  0  0  0  0  0  0  0  0  0  0  0
  191.6590  175.5660  144.4650 C   0  0  0  0  0  3  0  0  0  0  0  0
  191.0580  176.0770  145.6230 C   0  0  0  0  0  0  0  0  0  0  0  0
  188.6910  175.2610  142.1190 C   0  0  1  0  0  3  0  0  0  0  0  0
  193.1760  174.4960  139.5580 C   0  0  2  0  0  3  0  0  0  0  0  0
  188.9260  176.1380  144.4790 C   0  0  0  0  0  3  0  0  0  0  0  0
  191.0910  173.3760  141.6370 C   0  0  2  0  0  3  0  0  0  0  0  0
  193.0330  174.9440  142.0150 C   0  0  0  0  0  3  0  0  0  0  0  0
  191.5330  174.8050  142.0360 C   0  0  2  0  0  3  0  0  0  0  0  0
  189.7100  171.6380  142.7730 C   0  0  0  0  0  1  0  0  0  0  0  0
  191.0800  173.2270  140.1190 C   0  0  0  0  0  2  0  0  0  0  0  0
  192.4870  173.1350  139.5450 C   0  0  0  0  0  2  0  0  0  0  0  0
  191.3480  175.5920  147.9280 O   0  0  0  0  0  1  0  0  0  0  0  0
  191.8610  176.3300  146.8580 C   0  0  1  0  0  3  0  0  0  0  0  0
  193.3210  175.9770  146.6290 C   0  0  0  0  0  2  0  0  0  0  0  0
  194.1460  177.1620  146.7780 N   0  0  0  0  0  1  0  0  0  0  0  0
  194.2460  174.5720  138.4720 C   0  0  0  0  0  2  0  0  0  0  0  0
  195.5000  175.0390  139.0070 N   0  0  0  0  0  0  0  0  0  0  0  0
  196.5700  174.9380  138.3110 C   0  0  0  0  0  3  0  0  0  0  0  0
  197.8650  175.4200  138.8640 C   0  0  0  0  0  1  0  0  0  0  0  0
  187.4080  175.8750  142.1630 O   0  0  0  0  0  0  0  0  0  0  0  0
  186.0970  177.7950  141.7190 C   0  0  0  0  0  3  0  0  0  0  0  0
  187.1520  177.0390  141.4440 C   0  0  0  0  0  3  0  0  0  0  0  0
  185.1910  177.4380  142.7590 N   0  0  0  0  0  0  0  0  0  0  0  0
  184.8860  178.3690  143.7890 C   0  0  0  0  0  3  0  0  0  0  0  0
  185.5960  179.4790  143.9090 C   0  0  0  0  0  1  0  0  0  0  0  0
  2 12  1  0  0  0  0
  3 16  1  0  0  0  0
  4 14  2  0  0  0  0
  5  7  2  0  0  0  0
  6  2  2  0  0  0  0
  6  8  1  0  0  0  0
  7 10  1  0  0  0  0
  7  3  1  0  0  0  0
  8  9  2  0  0  0  0
  9  1  1  0  0  0  0
  9 20  1  0  0  0  0
 10 27  1  1  0  0  0
 10  2  1  0  0  0  0
 11 23  1  6  0  0  0
 11  4  1  0  0  0  0
 12  1  2  0  0  0  0
 13 17  1  6  0  0  0
 13 15  1  0  0  0  0
 13  3  1  0  0  0  0
 15 14  1  1  0  0  0
 15  6  1  0  0  0  0
 18 11  1  0  0  0  0
 18 17  1  0  0  0  0
 20 19  1  1  0  0  0
 21 22  1  0  0  0  0
 21 20  1  0  0  0  0
 23 24  1  0  0  0  0
 25 26  1  0  0  0  0
 25 24  2  0  0  0  0
 28 30  1  0  0  0  0
 29 28  2  0  0  0  0
 29 27  1  0  0  0  0
 30 31  2  0  0  0  0
 31 32  1  0  0  0  0
M  END
>  <MODEL>
9

>  <REMARK>
 VINA RESULT:      -5.5      3.087      7.571
  Name = 
  8 active torsions:
  status: ('A' for Active; 'I' for Inactive)
    1  A    between atoms: C_1  and  N_16
    2  A    between atoms: N_3  and  C_12
    3  A    between atoms: C_5  and  N_16
    4  A    between atoms: C_10  and  C_15
    5  A    between atoms: C_10  and  C_20
    6  A    between atoms: C_12  and  C_24
    7  A    between atoms: C_13  and  O_22
    8  A    between atoms: O_22  and  C_23
                            x       y       z     vdW  Elec       q    Type
                         _______ _______ _______ _____ _____    ______ ____

>  <TORSDO>
F 8

$$$$
