=
 OpenBabel11042419393D

 61 68  0  0  1  0  0  0  0  0999 V2000
  191.0140  174.6010  141.3150 O   0  0  0  0  0  0  0  0  0  0  0  0
  191.1740  174.9400  144.9070 C   0  0  2  0  0  3  0  0  0  0  0  0
  192.7290  175.0600  145.1230 C   0  0  1  0  0  3  0  0  0  0  0  0
  190.5220  175.3450  143.5730 C   0  0  1  0  0  0  0  0  0  0  0  0
  191.5650  175.3860  142.3480 C   0  0  1  0  0  3  0  0  0  0  0  0
  189.2630  174.5490  143.1380 C   0  0  0  0  0  2  0  0  0  0  0  0
  196.5410  173.4220  143.0310 C   0  0  0  0  0  1  0  0  0  0  0  0
  195.6410  174.6460  142.6890 C   0  0  2  0  0  0  0  0  0  0  0  0
  189.5700  174.4300  141.6100 C   0  0  2  0  0  3  0  0  0  0  0  0
  194.9740  175.0060  144.0630 C   0  0  1  0  0  3  0  0  0  0  0  0
  193.5550  175.5610  143.9170 C   0  0  1  0  0  3  0  0  0  0  0  0
  193.2840  175.8030  146.4020 C   0  0  0  0  0  1  0  0  0  0  0  0
  193.0920  175.0420  142.5470 C   0  0  2  0  0  3  0  0  0  0  0  0
  194.3490  174.3920  141.7350 C   0  0  0  0  0  2  0  0  0  0  0  0
  190.8480  176.3790  144.7740 C   0  0  1  0  0  3  0  0  0  0  0  0
  190.1630  177.0480  147.4300 C   0  0  0  0  0  2  0  0  0  0  0  0
  188.9960  177.2350  146.3480 C   0  0  1  0  0  3  0  0  0  0  0  0
  190.2470  176.3190  146.0690 C   0  0  1  0  0  3  0  0  0  0  0  0
  187.7210  176.4460  146.4130 C   0  0  0  0  0  2  0  0  0  0  0  0
  186.3200  176.3250  143.9180 O   0  0  0  0  0  1  0  0  0  0  0  0
  186.7320  178.1710  145.6250 N   0  0  0  0  0  2  0  0  0  0  0  0
  186.9660  177.3720  144.3380 C   0  0  2  0  0  0  0  0  0  0  0  0
  186.5570  176.7910  145.6630 C   0  0  1  0  0  3  0  0  0  0  0  0
  186.1310  178.3080  143.5690 C   0  0  1  0  0  3  0  0  0  0  0  0
  186.6890  179.0390  142.5210 O   0  0  0  0  0  1  0  0  0  0  0  0
  184.6170  178.1010  143.2590 C   0  0  0  0  0  2  0  0  0  0  0  0
  182.8040  178.2910  141.4840 C   0  0  0  0  0  1  0  0  0  0  0  0
  184.3180  178.2340  141.7700 C   0  0  0  0  0  2  0  0  0  0  0  0
  196.0550  173.6860  146.0940 O   0  0  0  0  0  0  0  0  0  0  0  0
  195.0960  173.9160  145.2990 C   0  0  0  0  0  0  0  0  0  0  0  0
  194.2800  172.8880  144.9810 O   0  0  0  0  0  0  0  0  0  0  0  0
  194.7440  170.5740  146.1520 C   0  0  0  0  0  1  0  0  0  0  0  0
  194.7150  171.4700  144.9270 C   0  0  1  0  0  3  0  0  0  0  0  0
  194.0450  170.8040  143.8020 C   0  0  0  0  0  2  0  0  0  0  0  0
  193.0120  171.6830  143.3970 O   0  0  0  0  0  0  0  0  0  0  0  0
  192.3830  171.2470  142.2360 C   0  0  2  0  0  3  0  0  0  0  0  0
  190.9210  170.7640  142.3910 C   0  0  0  0  0  1  0  0  0  0  0  0
  193.2840  170.3230  141.4450 C   0  0  0  0  0  2  0  0  0  0  0  0
  194.7420  169.8380  139.7180 C   0  0  0  0  0  2  0  0  0  0  0  0
  192.6510  171.0340  139.2410 O   0  0  0  0  0  0  0  0  0  0  0  0
  193.0270  170.4830  138.0790 N   0  0  0  0  0  0  0  0  0  0  0  0
  193.7930  170.9860  140.1400 C   0  0  1  0  0  3  0  0  0  0  0  0
  193.9710  169.3930  138.4520 C   0  0  0  0  0  2  0  0  0  0  0  0
  191.5770  169.1920  136.0560 C   0  0  0  0  0  1  0  0  0  0  0  0
  190.7090  170.0670  138.5060 C   0  0  0  0  0  1  0  0  0  0  0  0
  191.7060  170.3070  137.2540 C   0  0  0  0  0  0  0  0  0  0  0  0
  192.4830  172.6670  136.4380 C   0  0  1  0  0  3  0  0  0  0  0  0
  191.2480  171.7310  136.7200 C   0  0  1  0  0  3  0  0  0  0  0  0
  191.6060  172.1500  135.2840 C   0  0  0  0  0  2  0  0  0  0  0  0
  192.2370  174.0160  137.1940 C   0  0  0  0  0  2  0  0  0  0  0  0
  193.0860  174.3480  138.2530 O   0  0  0  0  0  1  0  0  0  0  0  0
  196.4840  175.7900  142.0580 C   0  0  0  0  0  3  0  0  0  0  0  0
  197.1420  175.6560  140.8550 C   0  0  0  0  0  2  0  0  0  0  0  0
  188.8790  173.1690  140.9210 C   0  0  0  0  0  2  0  0  0  0  0  0
  188.4030  173.0350  139.0670 S   0  0  0  0  0  0  0  0  0  0  0  0
  188.2250  174.5410  138.5100 N   0  0  0  0  0  2  0  0  0  0  0  0
  188.6770  174.6470  134.8460 O   0  0  0  0  0  0  0  0  0  0  0  0
  188.9060  174.4510  136.0530 C   0  0  0  0  0  3  0  0  0  0  0  0
  188.0280  174.9220  137.0780 N   0  0  0  0  0  0  0  0  0  0  0  0
  186.8220  175.8060  136.7670 C   0  0  0  0  0  2  0  0  0  0  0  0
  187.0670  177.1230  136.2390 O   0  0  0  0  0  1  0  0  0  0  0  0
  1  9  1  0  0  0  0
  1  5  1  0  0  0  0
  2  3  1  0  0  0  0
  3 12  1  0  0  0  0
  4 15  1  0  0  0  0
  4  2  1  0  0  0  0
  5 13  1  0  0  0  0
  5  4  1  0  0  0  0
  6  4  1  0  0  0  0
  8  7  1  0  0  0  0
  8 10  1  0  0  0  0
  9  6  1  0  0  0  0
 10 30  1  0  0  0  0
 11 10  1  0  0  0  0
 11  3  1  0  0  0  0
 13 11  1  0  0  0  0
 14 13  1  0  0  0  0
 14  8  1  0  0  0  0
 15  2  1  0  0  0  0
 15 18  1  0  0  0  0
 17 19  1  0  0  0  0
 17 16  1  0  0  0  0
 18 17  1  0  0  0  0
 18 16  1  0  0  0  0
 20 22  1  0  0  0  0
 21 23  1  0  0  0  0
 22 21  1  0  0  0  0
 22 23  1  0  0  0  0
 23 19  1  0  0  0  0
 24 22  1  0  0  0  0
 25 24  1  0  0  0  0
 26 24  1  0  0  0  0
 27 28  1  0  0  0  0
 28 26  1  0  0  0  0
 30 29  2  0  0  0  0
 31 30  1  0  0  0  0
 33 31  1  0  0  0  0
 33 32  1  0  0  0  0
 34 33  1  0  0  0  0
 35 34  1  0  0  0  0
 36 37  1  0  0  0  0
 36 35  1  0  0  0  0
 38 36  1  0  0  0  0
 39 42  1  0  0  0  0
 40 42  1  0  0  0  0
 41 43  1  0  0  0  0
 41 40  1  0  0  0  0
 42 38  1  0  0  0  0
 43 39  1  0  0  0  0
 44 46  1  0  0  0  0
 46 41  1  0  0  0  0
 46 45  1  0  0  0  0
 47 48  1  0  0  0  0
 47 50  1  0  0  0  0
 48 46  1  0  0  0  0
 49 47  1  0  0  0  0
 49 48  1  0  0  0  0
 50 51  1  0  0  0  0
 52  8  1  0  0  0  0
 53 52  2  0  0  0  0
 54  9  1  0  0  0  0
 55 54  1  0  0  0  0
 56 55  1  0  0  0  0
 57 58  2  0  0  0  0
 58 59  1  0  0  0  0
 59 56  1  0  0  0  0
 60 59  1  0  0  0  0
 61 60  1  0  0  0  0
M  END
>  <MODEL>
1

>  <REMARK>
 VINA RESULT:      -6.0      0.000      0.000
  Name = 
  22 active torsions:
  status: ('A' for Active; 'I' for Inactive)
    1  A    between atoms: O_5  and  C_10
    2  A    between atoms: O_5  and  C_22
    3  A    between atoms: C_8  and  C_48
    4  A    between atoms: C_8  and  C_58
    5  A    between atoms: C_9  and  C_18
    6  A    between atoms: C_10  and  C_26
    7  A    between atoms: C_11  and  C_25
    8  A    between atoms: C_11  and  C_59
    9  A    between atoms: C_13  and  C_33
   10  A    between atoms: C_13  and  S_46
   11  A    between atoms: O_14  and  C_35
   12  A    between atoms: O_14  and  C_50
   13  A    between atoms: C_19  and  C_60
   14  A    between atoms: C_22  and  C_50
   15  A    between atoms: C_26  and  C_34
   16  A    between atoms: C_27  and  C_32
   17  A    between atoms: N_30  and  C_60
   18  A    between atoms: C_31  and  N_45
   19  A    between atoms: C_35  and  C_37
   20  A    between atoms: N_45  and  N_54
   21  A    between atoms: C_51  and  C_57
   22  A    between atoms: C_55  and  C_58
                            x       y       z     vdW  Elec       q    Type
                         _______ _______ _______ _____ _____    ______ ____

>  <TORSDO>
F 22

$$$$
=
 OpenBabel11042419393D

 61 68  0  0  1  0  0  0  0  0999 V2000
  191.3540  174.6470  141.5640 O   0  0  0  0  0  0  0  0  0  0  0  0
  191.7020  174.9330  145.1470 C   0  0  2  0  0  3  0  0  0  0  0  0
  193.2680  175.0250  145.2840 C   0  0  1  0  0  3  0  0  0  0  0  0
  190.9890  175.3670  143.8540 C   0  0  1  0  0  0  0  0  0  0  0  0
  191.9690  175.4090  142.5770 C   0  0  1  0  0  3  0  0  0  0  0  0
  189.6970  174.5970  143.4730 C   0  0  0  0  0  2  0  0  0  0  0  0
  196.9410  173.3570  142.9790 C   0  0  0  0  0  1  0  0  0  0  0  0
  196.0450  174.6000  142.7000 C   0  0  2  0  0  0  0  0  0  0  0  0
  189.9240  174.4950  141.9300 C   0  0  2  0  0  3  0  0  0  0  0  0
  195.4540  174.9510  144.1110 C   0  0  1  0  0  3  0  0  0  0  0  0
  194.0390  175.5300  144.0450 C   0  0  1  0  0  3  0  0  0  0  0  0
  193.9000  175.7410  146.5440 C   0  0  0  0  0  1  0  0  0  0  0  0
  193.4990  175.0370  142.6940 C   0  0  2  0  0  3  0  0  0  0  0  0
  194.7020  174.3790  141.8100 C   0  0  0  0  0  2  0  0  0  0  0  0
  191.3940  176.3790  145.0500 C   0  0  1  0  0  3  0  0  0  0  0  0
  190.9870  176.9070  147.7930 C   0  0  0  0  0  2  0  0  0  0  0  0
  189.8260  177.4150  146.8130 C   0  0  1  0  0  3  0  0  0  0  0  0
  190.8590  176.3100  146.3730 C   0  0  1  0  0  3  0  0  0  0  0  0
  188.4270  176.8810  146.8980 C   0  0  0  0  0  2  0  0  0  0  0  0
  186.9870  178.5740  145.0900 O   0  0  0  0  0  1  0  0  0  0  0  0
  186.3530  176.5450  146.4950 N   0  0  0  0  0  2  0  0  0  0  0  0
  186.4660  178.0350  146.1520 C   0  0  2  0  0  0  0  0  0  0  0  0
  187.4910  176.9850  145.8250 C   0  0  1  0  0  3  0  0  0  0  0  0
  185.1030  178.0410  145.5950 C   0  0  1  0  0  3  0  0  0  0  0  0
  184.0070  178.2050  146.4410 O   0  0  0  0  0  1  0  0  0  0  0  0
  184.7180  178.6020  144.1920 C   0  0  0  0  0  2  0  0  0  0  0  0
  184.7120  178.1310  141.6920 C   0  0  0  0  0  1  0  0  0  0  0  0
  184.8000  177.5320  143.1100 C   0  0  0  0  0  2  0  0  0  0  0  0
  196.5690  173.6650  146.1470 O   0  0  0  0  0  0  0  0  0  0  0  0
  195.6220  173.8410  145.3240 C   0  0  0  0  0  0  0  0  0  0  0  0
  194.8990  172.7620  144.9540 O   0  0  0  0  0  0  0  0  0  0  0  0
  196.1460  170.8210  146.2270 C   0  0  0  0  0  1  0  0  0  0  0  0
  195.4000  171.3660  145.0220 C   0  0  1  0  0  3  0  0  0  0  0  0
  194.3300  170.4500  144.6040 C   0  0  0  0  0  2  0  0  0  0  0  0
  194.2980  170.5200  143.1910 O   0  0  0  0  0  0  0  0  0  0  0  0
  192.9950  170.5510  142.7020 C   0  0  2  0  0  3  0  0  0  0  0  0
  192.0660  171.6330  143.3050 C   0  0  0  0  0  1  0  0  0  0  0  0
  192.4050  169.1590  142.6400 C   0  0  0  0  0  2  0  0  0  0  0  0
  190.8210  169.0520  140.9600 C   0  0  0  0  0  2  0  0  0  0  0  0
  193.1680  169.4900  140.3890 O   0  0  0  0  0  0  0  0  0  0  0  0
  192.4510  169.9530  139.3550 N   0  0  0  0  0  0  0  0  0  0  0  0
  192.2960  168.6400  141.1840 C   0  0  1  0  0  3  0  0  0  0  0  0
  191.0740  170.1420  139.8910 C   0  0  0  0  0  2  0  0  0  0  0  0
  193.6650  171.0680  137.0880 C   0  0  0  0  0  1  0  0  0  0  0  0
  192.4880  172.3420  139.2120 C   0  0  0  0  0  1  0  0  0  0  0  0
  193.3380  171.0640  138.6960 C   0  0  0  0  0  0  0  0  0  0  0  0
  195.9220  170.6630  138.7010 C   0  0  1  0  0  3  0  0  0  0  0  0
  194.6870  171.1940  139.5230 C   0  0  1  0  0  3  0  0  0  0  0  0
  195.7820  172.1590  139.0360 C   0  0  0  0  0  2  0  0  0  0  0  0
  196.6790  169.6280  139.5990 C   0  0  0  0  0  2  0  0  0  0  0  0
  197.8990  170.0070  140.1660 O   0  0  0  0  0  1  0  0  0  0  0  0
  196.8740  175.7380  142.0420 C   0  0  0  0  0  2  0  0  0  0  0  0
  196.3000  176.7460  141.2970 C   0  0  0  0  0  1  0  0  0  0  0  0
  189.1780  173.2550  141.2600 C   0  0  0  0  0  2  0  0  0  0  0  0
  188.7380  173.0930  139.4000 S   0  0  0  0  0  0  0  0  0  0  0  0
  188.1970  174.5330  138.9100 N   0  0  0  0  0  2  0  0  0  0  0  0
  186.6070  176.1810  136.0120 O   0  0  0  0  0  0  0  0  0  0  0  0
  186.7840  175.7420  137.1630 C   0  0  0  0  0  3  0  0  0  0  0  0
  187.9050  174.9190  137.4960 N   0  0  0  0  0  0  0  0  0  0  0  0
  188.8860  174.4210  136.4360 C   0  0  0  0  0  2  0  0  0  0  0  0
  189.4470  175.3850  135.5270 O   0  0  0  0  0  1  0  0  0  0  0  0
  1  9  1  0  0  0  0
  1  5  1  0  0  0  0
  2  3  1  0  0  0  0
  3 12  1  0  0  0  0
  4 15  1  0  0  0  0
  4  2  1  0  0  0  0
  5 13  1  0  0  0  0
  5  4  1  0  0  0  0
  6  4  1  0  0  0  0
  8  7  1  0  0  0  0
  8 10  1  0  0  0  0
  9  6  1  0  0  0  0
 10 30  1  0  0  0  0
 11 10  1  0  0  0  0
 11  3  1  0  0  0  0
 13 11  1  0  0  0  0
 14 13  1  0  0  0  0
 14  8  1  0  0  0  0
 15  2  1  0  0  0  0
 15 18  1  0  0  0  0
 17 19  1  0  0  0  0
 17 16  1  0  0  0  0
 18 17  1  0  0  0  0
 18 16  1  0  0  0  0
 20 22  1  0  0  0  0
 22 21  1  0  0  0  0
 23 22  1  0  0  0  0
 23 21  1  0  0  0  0
 23 19  1  0  0  0  0
 24 22  1  0  0  0  0
 24 25  1  0  0  0  0
 26 24  1  0  0  0  0
 27 28  1  0  0  0  0
 28 26  1  0  0  0  0
 30 29  2  0  0  0  0
 31 33  1  0  0  0  0
 31 30  1  0  0  0  0
 33 32  1  0  0  0  0
 34 33  1  0  0  0  0
 35 34  1  0  0  0  0
 36 35  1  0  0  0  0
 36 37  1  0  0  0  0
 38 36  1  0  0  0  0
 39 42  1  0  0  0  0
 40 42  1  0  0  0  0
 41 43  1  0  0  0  0
 41 40  1  0  0  0  0
 42 38  1  0  0  0  0
 43 39  1  0  0  0  0
 44 46  1  0  0  0  0
 46 45  1  0  0  0  0
 46 41  1  0  0  0  0
 46 48  1  0  0  0  0
 47 49  1  0  0  0  0
 47 48  1  0  0  0  0
 47 50  1  0  0  0  0
 49 48  1  0  0  0  0
 50 51  1  0  0  0  0
 52  8  1  0  0  0  0
 53 52  1  0  0  0  0
 54  9  1  0  0  0  0
 55 54  1  0  0  0  0
 56 55  1  0  0  0  0
 57 58  2  0  0  0  0
 58 59  1  0  0  0  0
 59 56  1  0  0  0  0
 60 59  1  0  0  0  0
 61 60  1  0  0  0  0
M  END
>  <MODEL>
2

>  <REMARK>
 VINA RESULT:      -5.8      1.467      2.349
  Name = 
  22 active torsions:
  status: ('A' for Active; 'I' for Inactive)
    1  A    between atoms: O_5  and  C_10
    2  A    between atoms: O_5  and  C_22
    3  A    between atoms: C_8  and  C_48
    4  A    between atoms: C_8  and  C_58
    5  A    between atoms: C_9  and  C_18
    6  A    between atoms: C_10  and  C_26
    7  A    between atoms: C_11  and  C_25
    8  A    between atoms: C_11  and  C_59
    9  A    between atoms: C_13  and  C_33
   10  A    between atoms: C_13  and  S_46
   11  A    between atoms: O_14  and  C_35
   12  A    between atoms: O_14  and  C_50
   13  A    between atoms: C_19  and  C_60
   14  A    between atoms: C_22  and  C_50
   15  A    between atoms: C_26  and  C_34
   16  A    between atoms: C_27  and  C_32
   17  A    between atoms: N_30  and  C_60
   18  A    between atoms: C_31  and  N_45
   19  A    between atoms: C_35  and  C_37
   20  A    between atoms: N_45  and  N_54
   21  A    between atoms: C_51  and  C_57
   22  A    between atoms: C_55  and  C_58
                            x       y       z     vdW  Elec       q    Type
                         _______ _______ _______ _____ _____    ______ ____

>  <TORSDO>
F 22

$$$$
=
 OpenBabel11042419393D

 61 68  0  0  1  0  0  0  0  0999 V2000
  191.1180  174.4930  141.4360 O   0  0  0  0  0  0  0  0  0  0  0  0
  191.4700  174.8940  145.0080 C   0  0  2  0  0  3  0  0  0  0  0  0
  193.0290  175.0820  145.1310 C   0  0  1  0  0  3  0  0  0  0  0  0
  190.7250  175.2510  143.7090 C   0  0  1  0  0  0  0  0  0  0  0  0
  191.6940  175.3160  142.4250 C   0  0  1  0  0  3  0  0  0  0  0  0
  189.4790  174.3970  143.3580 C   0  0  0  0  0  2  0  0  0  0  0  0
  196.7800  173.5710  142.8420 C   0  0  0  0  0  1  0  0  0  0  0  0
  195.8110  174.7520  142.5380 C   0  0  2  0  0  0  0  0  0  0  0  0
  189.7020  174.2670  141.8160 C   0  0  2  0  0  3  0  0  0  0  0  0
  195.2090  175.1050  143.9440 C   0  0  1  0  0  3  0  0  0  0  0  0
  193.7610  175.5980  143.8730 C   0  0  1  0  0  3  0  0  0  0  0  0
  193.6250  175.8670  146.3670 C   0  0  0  0  0  1  0  0  0  0  0  0
  193.2430  175.0390  142.5390 C   0  0  2  0  0  3  0  0  0  0  0  0
  194.4780  174.4290  141.6640 C   0  0  0  0  0  2  0  0  0  0  0  0
  191.0760  176.3160  144.8760 C   0  0  1  0  0  3  0  0  0  0  0  0
  190.5150  176.9990  147.5560 C   0  0  0  0  0  2  0  0  0  0  0  0
  189.2810  177.1150  146.5420 C   0  0  1  0  0  3  0  0  0  0  0  0
  190.5540  176.2510  146.2030 C   0  0  1  0  0  3  0  0  0  0  0  0
  188.0490  176.2710  146.6920 C   0  0  0  0  0  2  0  0  0  0  0  0
  185.2490  176.3160  146.0870 O   0  0  0  0  0  1  0  0  0  0  0  0
  186.9900  178.1230  146.5290 N   0  0  0  0  0  2  0  0  0  0  0  0
  186.0950  177.2150  145.6790 C   0  0  2  0  0  0  0  0  0  0  0  0
  186.7610  176.8220  146.9680 C   0  0  1  0  0  3  0  0  0  0  0  0
  185.0700  178.2650  145.5810 C   0  0  1  0  0  3  0  0  0  0  0  0
  184.3650  178.6590  146.7180 O   0  0  0  0  0  1  0  0  0  0  0  0
  185.1320  179.4820  144.6080 C   0  0  0  0  0  2  0  0  0  0  0  0
  184.8140  178.4310  142.3130 C   0  0  0  0  0  1  0  0  0  0  0  0
  185.7950  179.1170  143.2840 C   0  0  0  0  0  2  0  0  0  0  0  0
  196.4500  173.8810  145.9440 O   0  0  0  0  0  0  0  0  0  0  0  0
  195.4480  174.0390  145.1840 C   0  0  0  0  0  0  0  0  0  0  0  0
  194.6880  172.9570  144.9080 O   0  0  0  0  0  0  0  0  0  0  0  0
  195.8160  170.8040  145.9250 C   0  0  0  0  0  1  0  0  0  0  0  0
  195.2270  171.5820  144.7610 C   0  0  1  0  0  3  0  0  0  0  0  0
  194.2630  170.7650  144.0130 C   0  0  0  0  0  2  0  0  0  0  0  0
  194.9460  170.3390  142.8490 O   0  0  0  0  0  0  0  0  0  0  0  0
  194.1090  170.3090  141.7370 C   0  0  2  0  0  3  0  0  0  0  0  0
  192.9340  171.3170  141.7410 C   0  0  0  0  0  1  0  0  0  0  0  0
  193.7370  168.8880  141.3750 C   0  0  0  0  0  2  0  0  0  0  0  0
  193.5460  168.3170  139.1430 C   0  0  0  0  0  2  0  0  0  0  0  0
  195.6160  169.3580  139.9570 O   0  0  0  0  0  0  0  0  0  0  0  0
  195.5910  169.5840  138.6360 N   0  0  0  0  0  0  0  0  0  0  0  0
  194.6340  168.3240  140.2450 C   0  0  1  0  0  3  0  0  0  0  0  0
  194.1660  169.4080  138.2380 C   0  0  0  0  0  2  0  0  0  0  0  0
  197.1980  171.6380  139.6650 C   0  0  0  0  0  1  0  0  0  0  0  0
  197.4520  170.2750  137.3000 C   0  0  0  0  0  1  0  0  0  0  0  0
  196.4490  170.8770  138.4180 C   0  0  0  0  0  0  0  0  0  0  0  0
  194.9520  173.0180  138.5140 C   0  0  1  0  0  3  0  0  0  0  0  0
  195.5920  171.9200  137.5840 C   0  0  1  0  0  3  0  0  0  0  0  0
  196.0540  173.3860  137.5040 C   0  0  0  0  0  2  0  0  0  0  0  0
  193.4190  173.0700  138.2000 C   0  0  0  0  0  2  0  0  0  0  0  0
  192.7210  174.2470  138.4890 O   0  0  0  0  0  1  0  0  0  0  0  0
  196.5670  175.9190  141.8440 C   0  0  0  0  0  3  0  0  0  0  0  0
  196.9280  175.8900  140.5150 C   0  0  0  0  0  2  0  0  0  0  0  0
  189.0270  172.9680  141.1850 C   0  0  0  0  0  2  0  0  0  0  0  0
  188.4190  172.7980  139.3730 S   0  0  0  0  0  0  0  0  0  0  0  0
  189.4940  173.5560  138.4360 N   0  0  0  0  0  2  0  0  0  0  0  0
  189.1520  174.6710  134.9320 O   0  0  0  0  0  0  0  0  0  0  0  0
  189.0150  174.6200  136.1670 C   0  0  0  0  0  3  0  0  0  0  0  0
  189.5180  173.5290  136.9410 N   0  0  0  0  0  0  0  0  0  0  0  0
  190.1410  172.2940  136.2910 C   0  0  0  0  0  2  0  0  0  0  0  0
  189.2720  171.3920  135.5820 O   0  0  0  0  0  1  0  0  0  0  0  0
  1  9  1  0  0  0  0
  1  5  1  0  0  0  0
  2  3  1  0  0  0  0
  3 12  1  0  0  0  0
  4 15  1  0  0  0  0
  4  2  1  0  0  0  0
  5 13  1  0  0  0  0
  5  4  1  0  0  0  0
  6  4  1  0  0  0  0
  8  7  1  0  0  0  0
  8 10  1  0  0  0  0
  9  6  1  0  0  0  0
 10 30  1  0  0  0  0
 11 10  1  0  0  0  0
 11  3  1  0  0  0  0
 13 11  1  0  0  0  0
 14  8  1  0  0  0  0
 14 13  1  0  0  0  0
 15  2  1  0  0  0  0
 15 18  1  0  0  0  0
 17 19  1  0  0  0  0
 17 16  1  0  0  0  0
 18 17  1  0  0  0  0
 18 16  1  0  0  0  0
 19 23  1  0  0  0  0
 21 23  1  0  0  0  0
 22 20  1  0  0  0  0
 22 21  1  0  0  0  0
 22 23  1  0  0  0  0
 24 22  1  0  0  0  0
 24 25  1  0  0  0  0
 26 24  1  0  0  0  0
 27 28  1  0  0  0  0
 28 26  1  0  0  0  0
 30 29  2  0  0  0  0
 31 30  1  0  0  0  0
 33 31  1  0  0  0  0
 33 32  1  0  0  0  0
 34 33  1  0  0  0  0
 35 34  1  0  0  0  0
 36 37  1  0  0  0  0
 36 35  1  0  0  0  0
 38 36  1  0  0  0  0
 39 42  1  0  0  0  0
 40 42  1  0  0  0  0
 41 40  1  0  0  0  0
 42 38  1  0  0  0  0
 43 41  1  0  0  0  0
 43 39  1  0  0  0  0
 45 46  1  0  0  0  0
 46 41  1  0  0  0  0
 46 44  1  0  0  0  0
 48 46  1  0  0  0  0
 48 47  1  0  0  0  0
 49 48  1  0  0  0  0
 49 47  1  0  0  0  0
 50 51  1  0  0  0  0
 50 47  1  0  0  0  0
 52  8  1  0  0  0  0
 53 52  2  0  0  0  0
 54  9  1  0  0  0  0
 55 54  1  0  0  0  0
 56 55  1  0  0  0  0
 57 58  2  0  0  0  0
 58 59  1  0  0  0  0
 59 56  1  0  0  0  0
 60 59  1  0  0  0  0
 61 60  1  0  0  0  0
M  END
>  <MODEL>
3

>  <REMARK>
 VINA RESULT:      -5.6      1.606      2.419
  Name = 
  22 active torsions:
  status: ('A' for Active; 'I' for Inactive)
    1  A    between atoms: O_5  and  C_10
    2  A    between atoms: O_5  and  C_22
    3  A    between atoms: C_8  and  C_48
    4  A    between atoms: C_8  and  C_58
    5  A    between atoms: C_9  and  C_18
    6  A    between atoms: C_10  and  C_26
    7  A    between atoms: C_11  and  C_25
    8  A    between atoms: C_11  and  C_59
    9  A    between atoms: C_13  and  C_33
   10  A    between atoms: C_13  and  S_46
   11  A    between atoms: O_14  and  C_35
   12  A    between atoms: O_14  and  C_50
   13  A    between atoms: C_19  and  C_60
   14  A    between atoms: C_22  and  C_50
   15  A    between atoms: C_26  and  C_34
   16  A    between atoms: C_27  and  C_32
   17  A    between atoms: N_30  and  C_60
   18  A    between atoms: C_31  and  N_45
   19  A    between atoms: C_35  and  C_37
   20  A    between atoms: N_45  and  N_54
   21  A    between atoms: C_51  and  C_57
   22  A    between atoms: C_55  and  C_58
                            x       y       z     vdW  Elec       q    Type
                         _______ _______ _______ _____ _____    ______ ____

>  <TORSDO>
F 22

$$$$
=
 OpenBabel11042419393D

 61 68  0  0  1  0  0  0  0  0999 V2000
  186.6820  176.7340  140.6730 O   0  0  0  0  0  0  0  0  0  0  0  0
  188.7190  175.4010  143.3390 C   0  0  2  0  0  3  0  0  0  0  0  0
  189.6010  174.3640  142.5460 C   0  0  1  0  0  3  0  0  0  0  0  0
  188.1050  176.6240  142.6360 C   0  0  1  0  0  0  0  0  0  0  0  0
  188.0140  176.4540  141.0380 C   0  0  1  0  0  3  0  0  0  0  0  0
  186.7370  177.1250  143.1690 C   0  0  0  0  0  2  0  0  0  0  0  0
  189.0420  171.6480  138.8170 C   0  0  0  0  0  1  0  0  0  0  0  0
  189.4140  173.1560  138.9300 C   0  0  2  0  0  0  0  0  0  0  0  0
  186.0540  177.4610  141.8040 C   0  0  2  0  0  3  0  0  0  0  0  0
  190.0470  173.2730  140.3610 C   0  0  1  0  0  3  0  0  0  0  0  0
  189.7720  174.6210  141.0340 C   0  0  1  0  0  3  0  0  0  0  0  0
  191.0190  173.9540  143.1090 C   0  0  0  0  0  1  0  0  0  0  0  0
  188.5210  175.1470  140.3130 C   0  0  2  0  0  3  0  0  0  0  0  0
  188.1960  174.2310  139.0030 C   0  0  0  0  0  2  0  0  0  0  0  0
  189.6070  176.5830  143.2370 C   0  0  1  0  0  3  0  0  0  0  0  0
  190.5740  177.1170  145.8340 C   0  0  0  0  0  2  0  0  0  0  0  0
  188.9800  177.1330  145.6740 C   0  0  1  0  0  3  0  0  0  0  0  0
  189.9120  176.4210  144.6230 C   0  0  1  0  0  3  0  0  0  0  0  0
  188.1010  176.1590  146.4020 C   0  0  0  0  0  2  0  0  0  0  0  0
  185.2540  176.3740  146.6480 O   0  0  0  0  0  1  0  0  0  0  0  0
  187.1960  177.9400  147.1680 N   0  0  0  0  0  2  0  0  0  0  0  0
  186.0350  177.3690  146.3460 C   0  0  2  0  0  0  0  0  0  0  0  0
  186.9830  176.5650  147.1910 C   0  0  1  0  0  3  0  0  0  0  0  0
  185.1120  178.3760  146.8940 C   0  0  1  0  0  3  0  0  0  0  0  0
  185.5810  179.3370  147.7890 O   0  0  0  0  0  1  0  0  0  0  0  0
  183.9010  178.9850  146.1240 C   0  0  0  0  0  2  0  0  0  0  0  0
  185.1770  180.2350  144.3130 C   0  0  0  0  0  1  0  0  0  0  0  0
  184.1790  179.1030  144.6300 C   0  0  0  0  0  2  0  0  0  0  0  0
  188.9180  171.7400  142.2080 O   0  0  0  0  0  0  0  0  0  0  0  0
  189.8590  172.0040  141.4030 C   0  0  0  0  0  0  0  0  0  0  0  0
  191.1040  171.5940  141.7300 O   0  0  0  0  0  0  0  0  0  0  0  0
  191.0300  169.2610  140.5070 C   0  0  0  0  0  1  0  0  0  0  0  0
  191.7870  170.4360  141.1010 C   0  0  1  0  0  3  0  0  0  0  0  0
  192.8110  170.9290  140.1710 C   0  0  0  0  0  2  0  0  0  0  0  0
  193.2830  172.1410  140.7300 O   0  0  0  0  0  0  0  0  0  0  0  0
  193.7070  173.0340  139.7510 C   0  0  2  0  0  3  0  0  0  0  0  0
  194.7420  172.4930  138.7350 C   0  0  0  0  0  1  0  0  0  0  0  0
  194.0410  174.3820  140.3540 C   0  0  0  0  0  2  0  0  0  0  0  0
  195.7010  175.9330  140.7810 C   0  0  0  0  0  2  0  0  0  0  0  0
  195.3250  174.0920  142.3610 O   0  0  0  0  0  0  0  0  0  0  0  0
  195.9520  175.0470  143.0610 N   0  0  0  0  0  0  0  0  0  0  0  0
  195.4720  174.4110  140.9500 C   0  0  1  0  0  3  0  0  0  0  0  0
  195.7400  176.3000  142.2840 C   0  0  0  0  0  2  0  0  0  0  0  0
  196.5840  174.2030  145.6580 C   0  0  0  0  0  1  0  0  0  0  0  0
  195.0310  176.3200  144.8660 C   0  0  0  0  0  1  0  0  0  0  0  0
  195.5350  174.8140  144.5530 C   0  0  0  0  0  0  0  0  0  0  0  0
  194.3910  172.5510  145.1890 C   0  0  1  0  0  3  0  0  0  0  0  0
  194.1800  173.9870  144.5780 C   0  0  1  0  0  3  0  0  0  0  0  0
  193.5520  173.6060  145.9300 C   0  0  0  0  0  2  0  0  0  0  0  0
  193.8030  171.5130  144.1750 C   0  0  0  0  0  2  0  0  0  0  0  0
  193.3100  170.3030  144.6730 O   0  0  0  0  0  1  0  0  0  0  0  0
  190.3560  173.5790  137.7680 C   0  0  0  0  0  2  0  0  0  0  0  0
  189.9270  174.3280  136.6930 C   0  0  0  0  0  1  0  0  0  0  0  0
  184.4630  177.3930  141.8570 C   0  0  0  0  0  2  0  0  0  0  0  0
  183.2700  178.2510  140.6210 S   0  0  0  0  0  0  0  0  0  0  0  0
  181.7670  177.9950  141.1540 N   0  0  0  0  0  2  0  0  0  0  0  0
  178.5790  178.3880  139.3310 O   0  0  0  0  0  0  0  0  0  0  0  0
  179.6780  177.9290  139.6910 C   0  0  0  0  0  3  0  0  0  0  0  0
  180.5290  178.6270  140.6030 N   0  0  0  0  0  0  0  0  0  0  0  0
  180.2050  180.0370  141.0950 C   0  0  0  0  0  2  0  0  0  0  0  0
  180.2070  181.1060  140.1310 O   0  0  0  0  0  1  0  0  0  0  0  0
  1  5  1  0  0  0  0
  1  9  1  0  0  0  0
  3 12  1  0  0  0  0
  3  2  1  0  0  0  0
  4  6  1  0  0  0  0
  4 15  1  0  0  0  0
  4  2  1  0  0  0  0
  5  4  1  0  0  0  0
  7  8  1  0  0  0  0
  8 14  1  0  0  0  0
  8 10  1  0  0  0  0
  9 54  1  0  0  0  0
  9  6  1  0  0  0  0
 10 11  1  0  0  0  0
 10 30  1  0  0  0  0
 11  3  1  0  0  0  0
 13 11  1  0  0  0  0
 13  5  1  0  0  0  0
 14 13  1  0  0  0  0
 15  2  1  0  0  0  0
 15 18  1  0  0  0  0
 17 16  1  0  0  0  0
 17 19  1  0  0  0  0
 18 17  1  0  0  0  0
 18 16  1  0  0  0  0
 19 23  1  0  0  0  0
 21 23  1  0  0  0  0
 22 20  1  0  0  0  0
 22 24  1  0  0  0  0
 22 21  1  0  0  0  0
 22 23  1  0  0  0  0
 24 25  1  0  0  0  0
 26 24  1  0  0  0  0
 27 28  1  0  0  0  0
 28 26  1  0  0  0  0
 30 31  1  0  0  0  0
 30 29  2  0  0  0  0
 32 33  1  0  0  0  0
 33 31  1  0  0  0  0
 34 35  1  0  0  0  0
 34 33  1  0  0  0  0
 36 38  1  0  0  0  0
 36 35  1  0  0  0  0
 37 36  1  0  0  0  0
 38 42  1  0  0  0  0
 39 42  1  0  0  0  0
 39 43  1  0  0  0  0
 40 41  1  0  0  0  0
 41 46  1  0  0  0  0
 42 40  1  0  0  0  0
 43 41  1  0  0  0  0
 46 48  1  0  0  0  0
 46 45  1  0  0  0  0
 46 44  1  0  0  0  0
 47 49  1  0  0  0  0
 48 47  1  0  0  0  0
 48 49  1  0  0  0  0
 50 51  1  0  0  0  0
 50 47  1  0  0  0  0
 52  8  1  0  0  0  0
 53 52  1  0  0  0  0
 55 56  1  0  0  0  0
 55 54  1  0  0  0  0
 57 58  2  0  0  0  0
 58 59  1  0  0  0  0
 59 60  1  0  0  0  0
 59 56  1  0  0  0  0
 61 60  1  0  0  0  0
M  END
>  <MODEL>
4

>  <REMARK>
 VINA RESULT:      -5.5      3.052      6.384
  Name = 
  22 active torsions:
  status: ('A' for Active; 'I' for Inactive)
    1  A    between atoms: O_5  and  C_10
    2  A    between atoms: O_5  and  C_22
    3  A    between atoms: C_8  and  C_48
    4  A    between atoms: C_8  and  C_58
    5  A    between atoms: C_9  and  C_18
    6  A    between atoms: C_10  and  C_26
    7  A    between atoms: C_11  and  C_25
    8  A    between atoms: C_11  and  C_59
    9  A    between atoms: C_13  and  C_33
   10  A    between atoms: C_13  and  S_46
   11  A    between atoms: O_14  and  C_35
   12  A    between atoms: O_14  and  C_50
   13  A    between atoms: C_19  and  C_60
   14  A    between atoms: C_22  and  C_50
   15  A    between atoms: C_26  and  C_34
   16  A    between atoms: C_27  and  C_32
   17  A    between atoms: N_30  and  C_60
   18  A    between atoms: C_31  and  N_45
   19  A    between atoms: C_35  and  C_37
   20  A    between atoms: N_45  and  N_54
   21  A    between atoms: C_51  and  C_57
   22  A    between atoms: C_55  and  C_58
                            x       y       z     vdW  Elec       q    Type
                         _______ _______ _______ _____ _____    ______ ____

>  <TORSDO>
F 22

$$$$
=
 OpenBabel11042419393D

 61 68  0  0  1  0  0  0  0  0999 V2000
  186.8170  176.7240  140.8950 O   0  0  0  0  0  0  0  0  0  0  0  0
  188.8010  175.3850  143.6000 C   0  0  2  0  0  3  0  0  0  0  0  0
  189.6940  174.3460  142.8230 C   0  0  1  0  0  3  0  0  0  0  0  0
  188.2030  176.6100  142.8860 C   0  0  1  0  0  0  0  0  0  0  0  0
  188.1410  176.4410  141.2860 C   0  0  1  0  0  3  0  0  0  0  0  0
  186.8260  177.1140  143.3930 C   0  0  0  0  0  2  0  0  0  0  0  0
  189.2010  171.6340  139.0830 C   0  0  0  0  0  1  0  0  0  0  0  0
  189.5730  173.1410  139.2030 C   0  0  2  0  0  0  0  0  0  0  0  0
  186.1700  177.4520  142.0140 C   0  0  2  0  0  3  0  0  0  0  0  0
  190.1790  173.2560  140.6470 C   0  0  1  0  0  3  0  0  0  0  0  0
  189.8950  174.6030  141.3140 C   0  0  1  0  0  3  0  0  0  0  0  0
  191.1010  173.9330  143.4120 C   0  0  0  0  0  1  0  0  0  0  0  0
  188.6590  175.1330  140.5710 C   0  0  2  0  0  3  0  0  0  0  0  0
  188.3570  174.2180  139.2530 C   0  0  0  0  0  2  0  0  0  0  0  0
  189.6930  176.5650  143.5140 C   0  0  1  0  0  3  0  0  0  0  0  0
  190.6150  177.0950  146.1290 C   0  0  0  0  0  2  0  0  0  0  0  0
  189.0240  177.1200  145.9400 C   0  0  1  0  0  3  0  0  0  0  0  0
  189.9710  176.4020  144.9060 C   0  0  1  0  0  3  0  0  0  0  0  0
  188.1260  176.1510  146.6510 C   0  0  0  0  0  2  0  0  0  0  0  0
  185.3000  176.5740  146.4430 O   0  0  0  0  0  1  0  0  0  0  0  0
  187.2100  177.8890  147.4980 N   0  0  0  0  0  2  0  0  0  0  0  0
  186.1810  177.5290  146.4210 C   0  0  2  0  0  0  0  0  0  0  0  0
  186.9120  176.5450  147.2900 C   0  0  1  0  0  3  0  0  0  0  0  0
  185.2390  178.5320  146.9420 C   0  0  1  0  0  3  0  0  0  0  0  0
  185.7200  179.6680  147.5920 O   0  0  0  0  0  1  0  0  0  0  0  0
  183.8730  178.8960  146.2840 C   0  0  0  0  0  2  0  0  0  0  0  0
  185.1100  180.1250  144.4320 C   0  0  0  0  0  1  0  0  0  0  0  0
  184.0050  179.1080  144.7800 C   0  0  0  0  0  2  0  0  0  0  0  0
  189.0320  171.7460  142.5020 O   0  0  0  0  0  0  0  0  0  0  0  0
  189.9690  171.9860  141.6840 C   0  0  0  0  0  0  0  0  0  0  0  0
  191.2050  171.5370  141.9900 O   0  0  0  0  0  0  0  0  0  0  0  0
  190.8410  169.0180  141.3100 C   0  0  0  0  0  1  0  0  0  0  0  0
  191.7360  170.2170  141.5670 C   0  0  1  0  0  3  0  0  0  0  0  0
  192.6880  170.4110  140.4660 C   0  0  0  0  0  2  0  0  0  0  0  0
  193.8710  169.7440  140.8610 O   0  0  0  0  0  0  0  0  0  0  0  0
  194.8970  170.6360  141.1570 C   0  0  2  0  0  3  0  0  0  0  0  0
  195.7320  171.1390  139.9550 C   0  0  0  0  0  1  0  0  0  0  0  0
  195.7040  170.1610  142.3460 C   0  0  0  0  0  2  0  0  0  0  0  0
  196.0380  169.7670  144.5990 C   0  0  0  0  0  2  0  0  0  0  0  0
  194.8520  171.7940  143.8840 O   0  0  0  0  0  0  0  0  0  0  0  0
  195.3120  172.0580  145.1150 N   0  0  0  0  0  0  0  0  0  0  0  0
  194.9400  170.3570  143.6800 C   0  0  1  0  0  3  0  0  0  0  0  0
  196.4070  171.0740  145.3400 C   0  0  0  0  0  2  0  0  0  0  0  0
  194.2200  174.5780  145.6790 C   0  0  0  0  0  1  0  0  0  0  0  0
  196.7670  173.6660  146.1280 C   0  0  0  0  0  1  0  0  0  0  0  0
  195.4540  173.6180  145.1820 C   0  0  0  0  0  0  0  0  0  0  0  0
  196.4030  175.6610  143.8560 C   0  0  1  0  0  3  0  0  0  0  0  0
  196.0160  174.1360  143.7900 C   0  0  1  0  0  3  0  0  0  0  0  0
  197.4860  174.5810  143.6870 C   0  0  0  0  0  2  0  0  0  0  0  0
  195.6880  176.3830  142.6650 C   0  0  0  0  0  2  0  0  0  0  0  0
  196.4570  176.7640  141.5610 O   0  0  0  0  0  1  0  0  0  0  0  0
  190.5380  173.5620  138.0590 C   0  0  0  0  0  3  0  0  0  0  0  0
  191.8980  173.3510  138.1130 C   0  0  0  0  0  2  0  0  0  0  0  0
  184.5780  177.3880  142.0370 C   0  0  0  0  0  2  0  0  0  0  0  0
  183.4080  178.3370  140.8480 S   0  0  0  0  0  0  0  0  0  0  0  0
  181.8990  178.0920  141.3660 N   0  0  0  0  0  2  0  0  0  0  0  0
  179.7170  180.7370  139.9940 O   0  0  0  0  0  0  0  0  0  0  0  0
  180.6790  180.1790  140.5520 C   0  0  0  0  0  3  0  0  0  0  0  0
  180.6770  178.7810  140.8480 N   0  0  0  0  0  0  0  0  0  0  0  0
  179.4460  177.9060  140.6180 C   0  0  0  0  0  2  0  0  0  0  0  0
  178.8410  177.2760  141.7620 O   0  0  0  0  0  1  0  0  0  0  0  0
  1  5  1  0  0  0  0
  1  9  1  0  0  0  0
  3 12  1  0  0  0  0
  3  2  1  0  0  0  0
  4  6  1  0  0  0  0
  4 15  1  0  0  0  0
  4  2  1  0  0  0  0
  5  4  1  0  0  0  0
  7  8  1  0  0  0  0
  8 14  1  0  0  0  0
  8 10  1  0  0  0  0
  9 54  1  0  0  0  0
  9  6  1  0  0  0  0
 10 11  1  0  0  0  0
 10 30  1  0  0  0  0
 11  3  1  0  0  0  0
 13  5  1  0  0  0  0
 13 11  1  0  0  0  0
 14 13  1  0  0  0  0
 15  2  1  0  0  0  0
 15 18  1  0  0  0  0
 17 16  1  0  0  0  0
 17 19  1  0  0  0  0
 18 17  1  0  0  0  0
 18 16  1  0  0  0  0
 19 23  1  0  0  0  0
 22 20  1  0  0  0  0
 22 24  1  0  0  0  0
 22 23  1  0  0  0  0
 22 21  1  0  0  0  0
 23 21  1  0  0  0  0
 24 25  1  0  0  0  0
 26 24  1  0  0  0  0
 27 28  1  0  0  0  0
 28 26  1  0  0  0  0
 30 31  1  0  0  0  0
 30 29  2  0  0  0  0
 32 33  1  0  0  0  0
 33 31  1  0  0  0  0
 34 35  1  0  0  0  0
 34 33  1  0  0  0  0
 35 36  1  0  0  0  0
 36 38  1  0  0  0  0
 37 36  1  0  0  0  0
 38 42  1  0  0  0  0
 39 43  1  0  0  0  0
 40 41  1  0  0  0  0
 41 46  1  0  0  0  0
 41 43  1  0  0  0  0
 42 40  1  0  0  0  0
 42 39  1  0  0  0  0
 46 44  1  0  0  0  0
 46 45  1  0  0  0  0
 48 47  1  0  0  0  0
 48 46  1  0  0  0  0
 49 48  1  0  0  0  0
 49 47  1  0  0  0  0
 50 47  1  0  0  0  0
 51 50  1  0  0  0  0
 52 53  2  0  0  0  0
 52  8  1  0  0  0  0
 55 56  1  0  0  0  0
 55 54  1  0  0  0  0
 57 58  2  0  0  0  0
 58 59  1  0  0  0  0
 59 56  1  0  0  0  0
 60 59  1  0  0  0  0
 60 61  1  0  0  0  0
M  END
>  <MODEL>
5

>  <REMARK>
 VINA RESULT:      -5.3      3.061      6.204
  Name = 
  22 active torsions:
  status: ('A' for Active; 'I' for Inactive)
    1  A    between atoms: O_5  and  C_10
    2  A    between atoms: O_5  and  C_22
    3  A    between atoms: C_8  and  C_48
    4  A    between atoms: C_8  and  C_58
    5  A    between atoms: C_9  and  C_18
    6  A    between atoms: C_10  and  C_26
    7  A    between atoms: C_11  and  C_25
    8  A    between atoms: C_11  and  C_59
    9  A    between atoms: C_13  and  C_33
   10  A    between atoms: C_13  and  S_46
   11  A    between atoms: O_14  and  C_35
   12  A    between atoms: O_14  and  C_50
   13  A    between atoms: C_19  and  C_60
   14  A    between atoms: C_22  and  C_50
   15  A    between atoms: C_26  and  C_34
   16  A    between atoms: C_27  and  C_32
   17  A    between atoms: N_30  and  C_60
   18  A    between atoms: C_31  and  N_45
   19  A    between atoms: C_35  and  C_37
   20  A    between atoms: N_45  and  N_54
   21  A    between atoms: C_51  and  C_57
   22  A    between atoms: C_55  and  C_58
                            x       y       z     vdW  Elec       q    Type
                         _______ _______ _______ _____ _____    ______ ____

>  <TORSDO>
F 22

$$$$
=
 OpenBabel11042419393D

 61 68  0  0  1  0  0  0  0  0999 V2000
  192.4550  175.4080  146.3290 O   0  0  0  0  0  0  0  0  0  0  0  0
  191.8400  174.2610  142.9600 C   0  0  2  0  0  3  0  0  0  0  0  0
  193.3130  174.1400  142.4170 C   0  0  1  0  0  3  0  0  0  0  0  0
  191.5360  174.1530  144.4650 C   0  0  1  0  0  0  0  0  0  0  0  0
  192.8250  174.4240  145.3900 C   0  0  1  0  0  3  0  0  0  0  0  0
  190.3450  174.9900  145.0020 C   0  0  0  0  0  2  0  0  0  0  0  0
  197.3480  176.3240  143.1500 C   0  0  0  0  0  1  0  0  0  0  0  0
  196.6490  175.1840  143.9490 C   0  0  2  0  0  0  0  0  0  0  0  0
  190.9730  175.4650  146.3520 C   0  0  2  0  0  3  0  0  0  0  0  0
  195.7250  174.5000  142.8820 C   0  0  1  0  0  3  0  0  0  0  0  0
  194.4230  173.9530  143.4730 C   0  0  1  0  0  3  0  0  0  0  0  0
  193.6280  173.1400  141.2340 C   0  0  0  0  0  1  0  0  0  0  0  0
  194.2360  174.7580  144.7680 C   0  0  2  0  0  3  0  0  0  0  0  0
  195.5860  175.6130  145.1020 C   0  0  0  0  0  2  0  0  0  0  0  0
  191.6700  172.8810  143.4730 C   0  0  1  0  0  3  0  0  0  0  0  0
  190.4120  171.5660  141.3160 C   0  0  0  0  0  2  0  0  0  0  0  0
  189.5180  171.7380  142.6350 C   0  0  1  0  0  3  0  0  0  0  0  0
  190.7940  172.6260  142.3750 C   0  0  1  0  0  3  0  0  0  0  0  0
  188.2560  172.5490  142.6360 C   0  0  0  0  0  2  0  0  0  0  0  0
  189.1270  174.5910  140.8250 O   0  0  0  0  0  1  0  0  0  0  0  0
  187.0760  174.3040  142.3100 N   0  0  0  0  0  2  0  0  0  0  0  0
  188.4640  174.8240  141.9190 C   0  0  2  0  0  0  0  0  0  0  0  0
  187.9200  173.4620  141.5910 C   0  0  1  0  0  3  0  0  0  0  0  0
  187.8840  176.0760  141.4060 C   0  0  1  0  0  3  0  0  0  0  0  0
  188.4040  177.3040  141.8160 O   0  0  0  0  0  1  0  0  0  0  0  0
  187.2830  176.2590  139.9790 C   0  0  0  0  0  2  0  0  0  0  0  0
  185.3050  177.8050  140.3910 C   0  0  0  0  0  1  0  0  0  0  0  0
  186.7120  177.6580  139.7780 C   0  0  0  0  0  2  0  0  0  0  0  0
  194.6590  176.1980  141.1440 O   0  0  0  0  0  0  0  0  0  0  0  0
  195.4800  175.2820  141.4460 C   0  0  0  0  0  0  0  0  0  0  0  0
  195.8470  174.4180  140.4750 O   0  0  0  0  0  0  0  0  0  0  0  0
  197.9080  175.6750  139.4190 C   0  0  0  0  0  1  0  0  0  0  0  0
  196.6780  174.7910  139.3040 C   0  0  1  0  0  3  0  0  0  0  0  0
  196.9660  173.5870  138.5140 C   0  0  0  0  0  2  0  0  0  0  0  0
  196.0210  173.5870  137.4600 O   0  0  0  0  0  0  0  0  0  0  0  0
  196.6080  173.2740  136.2370 C   0  0  2  0  0  3  0  0  0  0  0  0
  196.4490  174.3280  135.1140 C   0  0  0  0  0  1  0  0  0  0  0  0
  196.2920  171.8510  135.8320 C   0  0  0  0  0  2  0  0  0  0  0  0
  195.1140  170.2420  134.6630 C   0  0  0  0  0  2  0  0  0  0  0  0
  193.9430  172.2260  135.5120 O   0  0  0  0  0  0  0  0  0  0  0  0
  192.9960  171.2950  135.3350 N   0  0  0  0  0  0  0  0  0  0  0  0
  195.1340  171.7840  134.8040 C   0  0  1  0  0  3  0  0  0  0  0  0
  193.7270  169.9980  135.3050 C   0  0  0  0  0  2  0  0  0  0  0  0
  190.3300  172.0250  135.8030 C   0  0  0  0  0  1  0  0  0  0  0  0
  191.9420  170.3630  137.2710 C   0  0  0  0  0  1  0  0  0  0  0  0
  191.8450  171.6750  136.3280 C   0  0  0  0  0  0  0  0  0  0  0  0
  191.6740  174.2050  136.9660 C   0  0  1  0  0  3  0  0  0  0  0  0
  192.3640  172.8270  137.2900 C   0  0  1  0  0  3  0  0  0  0  0  0
  191.3900  173.4730  138.2900 C   0  0  0  0  0  2  0  0  0  0  0  0
  192.8060  175.2690  136.7750 C   0  0  0  0  0  2  0  0  0  0  0  0
  193.0610  175.7430  135.4850 O   0  0  0  0  0  1  0  0  0  0  0  0
  197.7020  174.2410  144.5970 C   0  0  0  0  0  3  0  0  0  0  0  0
  197.5370  172.8750  144.6670 C   0  0  0  0  0  2  0  0  0  0  0  0
  190.3520  176.8290  146.8940 C   0  0  0  0  0  2  0  0  0  0  0  0
  188.4930  177.1400  147.2570 S   0  0  0  0  0  0  0  0  0  0  0  0
  187.7950  177.5410  145.8570 N   0  0  0  0  0  2  0  0  0  0  0  0
  184.1960  177.9780  146.5590 O   0  0  0  0  0  0  0  0  0  0  0  0
  185.4000  177.7120  146.7200 C   0  0  0  0  0  3  0  0  0  0  0  0
  186.3260  177.6990  145.6300 N   0  0  0  0  0  0  0  0  0  0  0  0
  185.8740  177.8820  144.1820 C   0  0  0  0  0  2  0  0  0  0  0  0
  186.0740  179.1690  143.5700 O   0  0  0  0  0  1  0  0  0  0  0  0
  1  9  1  0  0  0  0
  2 15  1  0  0  0  0
  2  4  1  0  0  0  0
  3  2  1  0  0  0  0
  3 11  1  0  0  0  0
  4  6  1  0  0  0  0
  4  5  1  0  0  0  0
  5  1  1  0  0  0  0
  6  9  1  0  0  0  0
  7  8  1  0  0  0  0
  8 52  1  0  0  0  0
  8 14  1  0  0  0  0
  9 54  1  0  0  0  0
 10 11  1  0  0  0  0
 10  8  1  0  0  0  0
 11 13  1  0  0  0  0
 12  3  1  0  0  0  0
 13 14  1  0  0  0  0
 13  5  1  0  0  0  0
 15  4  1  0  0  0  0
 16 18  1  0  0  0  0
 16 17  1  0  0  0  0
 17 19  1  0  0  0  0
 18 17  1  0  0  0  0
 18 15  1  0  0  0  0
 20 22  1  0  0  0  0
 22 21  1  0  0  0  0
 23 22  1  0  0  0  0
 23 21  1  0  0  0  0
 23 19  1  0  0  0  0
 24 25  1  0  0  0  0
 24 22  1  0  0  0  0
 26 24  1  0  0  0  0
 28 26  1  0  0  0  0
 28 27  1  0  0  0  0
 29 30  2  0  0  0  0
 30 10  1  0  0  0  0
 31 30  1  0  0  0  0
 33 32  1  0  0  0  0
 33 31  1  0  0  0  0
 34 33  1  0  0  0  0
 35 34  1  0  0  0  0
 36 35  1  0  0  0  0
 37 36  1  0  0  0  0
 38 36  1  0  0  0  0
 39 42  1  0  0  0  0
 39 43  1  0  0  0  0
 41 40  1  0  0  0  0
 41 46  1  0  0  0  0
 42 40  1  0  0  0  0
 42 38  1  0  0  0  0
 43 41  1  0  0  0  0
 44 46  1  0  0  0  0
 46 45  1  0  0  0  0
 46 48  1  0  0  0  0
 47 48  1  0  0  0  0
 47 49  1  0  0  0  0
 48 49  1  0  0  0  0
 50 47  1  0  0  0  0
 51 50  1  0  0  0  0
 52 53  2  0  0  0  0
 54 55  1  0  0  0  0
 56 55  1  0  0  0  0
 57 58  2  0  0  0  0
 59 56  1  0  0  0  0
 59 58  1  0  0  0  0
 60 59  1  0  0  0  0
 61 60  1  0  0  0  0
M  END
>  <MODEL>
6

>  <REMARK>
 VINA RESULT:      -4.7      2.689      5.520
  Name = 
  22 active torsions:
  status: ('A' for Active; 'I' for Inactive)
    1  A    between atoms: O_5  and  C_10
    2  A    between atoms: O_5  and  C_22
    3  A    between atoms: C_8  and  C_48
    4  A    between atoms: C_8  and  C_58
    5  A    between atoms: C_9  and  C_18
    6  A    between atoms: C_10  and  C_26
    7  A    between atoms: C_11  and  C_25
    8  A    between atoms: C_11  and  C_59
    9  A    between atoms: C_13  and  C_33
   10  A    between atoms: C_13  and  S_46
   11  A    between atoms: O_14  and  C_35
   12  A    between atoms: O_14  and  C_50
   13  A    between atoms: C_19  and  C_60
   14  A    between atoms: C_22  and  C_50
   15  A    between atoms: C_26  and  C_34
   16  A    between atoms: C_27  and  C_32
   17  A    between atoms: N_30  and  C_60
   18  A    between atoms: C_31  and  N_45
   19  A    between atoms: C_35  and  C_37
   20  A    between atoms: N_45  and  N_54
   21  A    between atoms: C_51  and  C_57
   22  A    between atoms: C_55  and  C_58
                            x       y       z     vdW  Elec       q    Type
                         _______ _______ _______ _____ _____    ______ ____

>  <TORSDO>
F 22

$$$$
=
 OpenBabel11042419393D

 61 68  0  0  1  0  0  0  0  0999 V2000
  194.5680  174.9480  138.3330 O   0  0  0  0  0  0  0  0  0  0  0  0
  194.8090  171.3500  138.5190 C   0  0  2  0  0  3  0  0  0  0  0  0
  193.4520  170.9280  137.8400 C   0  0  1  0  0  3  0  0  0  0  0  0
  195.4740  172.7000  138.1970 C   0  0  1  0  0  0  0  0  0  0  0  0
  194.4520  173.7720  137.5660 C   0  0  1  0  0  3  0  0  0  0  0  0
  196.2740  173.3780  139.3400 C   0  0  0  0  0  2  0  0  0  0  0  0
  189.1670  172.6980  137.5300 C   0  0  0  0  0  1  0  0  0  0  0  0
  190.4560  173.0080  136.7130 C   0  0  2  0  0  0  0  0  0  0  0  0
  195.8390  174.8590  139.0930 C   0  0  2  0  0  3  0  0  0  0  0  0
  191.3060  171.6960  136.8570 C   0  0  1  0  0  3  0  0  0  0  0  0
  192.8140  171.9550  136.8790 C   0  0  1  0  0  3  0  0  0  0  0  0
  193.3320  169.5120  137.1480 C   0  0  0  0  0  1  0  0  0  0  0  0
  192.9330  173.4230  137.3180 C   0  0  2  0  0  3  0  0  0  0  0  0
  191.4670  174.1400  137.2960 C   0  0  0  0  0  2  0  0  0  0  0  0
  195.6750  171.3570  137.3160 C   0  0  1  0  0  3  0  0  0  0  0  0
  197.6170  169.3700  137.8150 C   0  0  0  0  0  2  0  0  0  0  0  0
  197.2120  170.2720  139.0760 C   0  0  1  0  0  3  0  0  0  0  0  0
  196.2900  170.1630  137.8030 C   0  0  1  0  0  3  0  0  0  0  0  0
  196.5640  169.6840  140.2950 C   0  0  0  0  0  2  0  0  0  0  0  0
  197.7210  168.7260  142.7350 O   0  0  0  0  0  1  0  0  0  0  0  0
  195.7650  170.2670  142.1930 N   0  0  0  0  0  2  0  0  0  0  0  0
  196.4510  168.9490  142.5720 C   0  0  2  0  0  0  0  0  0  0  0  0
  197.0010  169.9760  141.6230 C   0  0  1  0  0  3  0  0  0  0  0  0
  196.2200  169.2060  144.0020 C   0  0  1  0  0  3  0  0  0  0  0  0
  195.1970  168.5370  144.6740 O   0  0  0  0  0  1  0  0  0  0  0  0
  197.3380  169.5400  145.0370 C   0  0  0  0  0  2  0  0  0  0  0  0
  195.9380  171.1360  146.4400 C   0  0  0  0  0  1  0  0  0  0  0  0
  197.2040  170.9590  145.5780 C   0  0  0  0  0  2  0  0  0  0  0  0
  190.0690  169.5900  137.8910 O   0  0  0  0  0  0  0  0  0  0  0  0
  190.8430  170.5880  137.9910 C   0  0  0  0  0  0  0  0  0  0  0  0
  190.9130  171.2150  139.1860 O   0  0  0  0  0  0  0  0  0  0  0  0
  192.0420  169.4300  140.7610 C   0  0  0  0  0  1  0  0  0  0  0  0
  191.0090  170.5090  140.4880 C   0  0  1  0  0  3  0  0  0  0  0  0
  190.9780  171.4970  141.5740 C   0  0  0  0  0  2  0  0  0  0  0  0
  190.3850  172.6560  141.0190 O   0  0  0  0  0  0  0  0  0  0  0  0
  191.1840  173.7820  141.1920 C   0  0  2  0  0  3  0  0  0  0  0  0
  192.6990  173.5230  141.3730 C   0  0  0  0  0  1  0  0  0  0  0  0
  190.5700  174.7340  142.1960 C   0  0  0  0  0  2  0  0  0  0  0  0
  191.6640  176.6230  142.9570 C   0  0  0  0  0  2  0  0  0  0  0  0
  190.8500  174.9590  144.5690 O   0  0  0  0  0  0  0  0  0  0  0  0
  190.9790  176.1000  145.2600 N   0  0  0  0  0  0  0  0  0  0  0  0
  191.5700  175.1190  143.3160 C   0  0  1  0  0  3  0  0  0  0  0  0
  190.9860  177.1780  144.2320 C   0  0  0  0  0  2  0  0  0  0  0  0
  189.3110  174.5420  146.8870 C   0  0  0  0  0  1  0  0  0  0  0  0
  190.9140  176.6540  147.5870 C   0  0  0  0  0  1  0  0  0  0  0  0
  189.9730  175.9800  146.4550 C   0  0  0  0  0  0  0  0  0  0  0  0
  187.6370  176.5080  145.4070 C   0  0  1  0  0  3  0  0  0  0  0  0
  188.8310  177.0670  146.2680 C   0  0  1  0  0  3  0  0  0  0  0  0
  187.4490  176.8270  146.9000 C   0  0  0  0  0  2  0  0  0  0  0  0
  187.3700  177.5290  144.2490 C   0  0  0  0  0  2  0  0  0  0  0  0
  186.3550  178.4740  144.4180 O   0  0  0  0  0  1  0  0  0  0  0  0
  190.1000  173.3930  135.2490 C   0  0  0  0  0  3  0  0  0  0  0  0
  189.0780  174.2610  134.9320 C   0  0  0  0  0  2  0  0  0  0  0  0
  195.9160  175.7680  140.4000 C   0  0  0  0  0  2  0  0  0  0  0  0
  196.1970  175.1270  142.1870 S   0  0  0  0  0  0  0  0  0  0  0  0
  195.1470  175.8990  143.1410 N   0  0  0  0  0  2  0  0  0  0  0  0
  194.0960  176.3270  146.6560 O   0  0  0  0  0  0  0  0  0  0  0  0
  194.4450  176.5970  145.4920 C   0  0  0  0  0  3  0  0  0  0  0  0
  194.8880  175.5900  144.5810 N   0  0  0  0  0  0  0  0  0  0  0  0
  195.0860  174.1370  145.0130 C   0  0  0  0  0  2  0  0  0  0  0  0
  193.9290  173.2810  145.0550 O   0  0  0  0  0  1  0  0  0  0  0  0
  1  9  1  0  0  0  0
  3  2  1  0  0  0  0
  4  2  1  0  0  0  0
  4  6  1  0  0  0  0
  5  4  1  0  0  0  0
  5  1  1  0  0  0  0
  8 10  1  0  0  0  0
  8 14  1  0  0  0  0
  8  7  1  0  0  0  0
  9  6  1  0  0  0  0
  9 54  1  0  0  0  0
 10 11  1  0  0  0  0
 10 30  1  0  0  0  0
 11 13  1  0  0  0  0
 11  3  1  0  0  0  0
 12  3  1  0  0  0  0
 13  5  1  0  0  0  0
 14 13  1  0  0  0  0
 15 18  1  0  0  0  0
 15  4  1  0  0  0  0
 15  2  1  0  0  0  0
 16 17  1  0  0  0  0
 17 19  1  0  0  0  0
 18 16  1  0  0  0  0
 18 17  1  0  0  0  0
 19 23  1  0  0  0  0
 21 22  1  0  0  0  0
 22 20  1  0  0  0  0
 22 24  1  0  0  0  0
 23 21  1  0  0  0  0
 23 22  1  0  0  0  0
 24 25  1  0  0  0  0
 24 26  1  0  0  0  0
 26 28  1  0  0  0  0
 28 27  1  0  0  0  0
 29 30  2  0  0  0  0
 30 31  1  0  0  0  0
 31 33  1  0  0  0  0
 33 32  1  0  0  0  0
 33 34  1  0  0  0  0
 35 36  1  0  0  0  0
 35 34  1  0  0  0  0
 36 37  1  0  0  0  0
 36 38  1  0  0  0  0
 38 42  1  0  0  0  0
 39 42  1  0  0  0  0
 39 43  1  0  0  0  0
 40 41  1  0  0  0  0
 41 46  1  0  0  0  0
 42 40  1  0  0  0  0
 43 41  1  0  0  0  0
 46 44  1  0  0  0  0
 46 45  1  0  0  0  0
 47 48  1  0  0  0  0
 47 49  1  0  0  0  0
 48 46  1  0  0  0  0
 48 49  1  0  0  0  0
 50 51  1  0  0  0  0
 50 47  1  0  0  0  0
 52  8  1  0  0  0  0
 53 52  2  0  0  0  0
 54 55  1  0  0  0  0
 55 56  1  0  0  0  0
 56 59  1  0  0  0  0
 58 57  2  0  0  0  0
 59 60  1  0  0  0  0
 59 58  1  0  0  0  0
 60 61  1  0  0  0  0
M  END
>  <MODEL>
7

>  <REMARK>
 VINA RESULT:      -4.7      2.974     10.086
  Name = 
  22 active torsions:
  status: ('A' for Active; 'I' for Inactive)
    1  A    between atoms: O_5  and  C_10
    2  A    between atoms: O_5  and  C_22
    3  A    between atoms: C_8  and  C_48
    4  A    between atoms: C_8  and  C_58
    5  A    between atoms: C_9  and  C_18
    6  A    between atoms: C_10  and  C_26
    7  A    between atoms: C_11  and  C_25
    8  A    between atoms: C_11  and  C_59
    9  A    between atoms: C_13  and  C_33
   10  A    between atoms: C_13  and  S_46
   11  A    between atoms: O_14  and  C_35
   12  A    between atoms: O_14  and  C_50
   13  A    between atoms: C_19  and  C_60
   14  A    between atoms: C_22  and  C_50
   15  A    between atoms: C_26  and  C_34
   16  A    between atoms: C_27  and  C_32
   17  A    between atoms: N_30  and  C_60
   18  A    between atoms: C_31  and  N_45
   19  A    between atoms: C_35  and  C_37
   20  A    between atoms: N_45  and  N_54
   21  A    between atoms: C_51  and  C_57
   22  A    between atoms: C_55  and  C_58
                            x       y       z     vdW  Elec       q    Type
                         _______ _______ _______ _____ _____    ______ ____

>  <TORSDO>
F 22

$$$$
=
 OpenBabel11042419393D

 61 68  0  0  1  0  0  0  0  0999 V2000
  187.9910  175.9690  142.2310 O   0  0  0  0  0  0  0  0  0  0  0  0
  190.5130  173.6910  141.0080 C   0  0  2  0  0  3  0  0  0  0  0  0
  191.5090  173.6710  142.2280 C   0  0  1  0  0  3  0  0  0  0  0  0
  189.0230  174.0270  141.2020 C   0  0  1  0  0  0  0  0  0  0  0  0
  188.7280  174.8170  142.5730 C   0  0  1  0  0  3  0  0  0  0  0  0
  188.3120  174.7600  140.0340 C   0  0  0  0  0  2  0  0  0  0  0  0
  192.8550  176.6750  145.5070 C   0  0  0  0  0  1  0  0  0  0  0  0
  191.6030  175.7520  145.4260 C   0  0  2  0  0  0  0  0  0  0  0  0
  187.4440  175.7580  140.8680 C   0  0  2  0  0  3  0  0  0  0  0  0
  192.0580  174.5990  144.4640 C   0  0  1  0  0  3  0  0  0  0  0  0
  190.9180  174.0470  143.6040 C   0  0  1  0  0  3  0  0  0  0  0  0
  192.4420  172.4150  142.4530 C   0  0  0  0  0  1  0  0  0  0  0  0
  189.8830  175.1820  143.5840 C   0  0  2  0  0  3  0  0  0  0  0  0
  190.2840  176.3320  144.6710 C   0  0  0  0  0  2  0  0  0  0  0  0
  189.6520  172.5480  141.3950 C   0  0  1  0  0  3  0  0  0  0  0  0
  190.5490  170.3510  139.8680 C   0  0  0  0  0  2  0  0  0  0  0  0
  189.3180  171.1670  139.2460 C   0  0  1  0  0  3  0  0  0  0  0  0
  190.2570  171.7920  140.3450 C   0  0  1  0  0  3  0  0  0  0  0  0
  189.4260  171.8870  137.9340 C   0  0  0  0  0  2  0  0  0  0  0  0
  191.1220  174.1890  137.7530 O   0  0  0  0  0  1  0  0  0  0  0  0
  190.3890  172.4000  136.0940 N   0  0  0  0  0  2  0  0  0  0  0  0
  190.3630  173.7670  136.7850 C   0  0  2  0  0  0  0  0  0  0  0  0
  190.6470  172.4550  137.4600 C   0  0  1  0  0  3  0  0  0  0  0  0
  191.2220  174.3470  135.7400 C   0  0  1  0  0  3  0  0  0  0  0  0
  192.3440  173.6490  135.2940 O   0  0  0  0  0  1  0  0  0  0  0  0
  190.7160  175.2440  134.5690 C   0  0  0  0  0  2  0  0  0  0  0  0
  188.8720  176.9760  134.8370 C   0  0  0  0  0  1  0  0  0  0  0  0
  189.2130  175.4840  134.6470 C   0  0  0  0  0  2  0  0  0  0  0  0
  193.6520  175.4360  142.5150 O   0  0  0  0  0  0  0  0  0  0  0  0
  193.4500  174.8100  143.5980 C   0  0  0  0  0  0  0  0  0  0  0  0
  194.2270  173.7380  143.8620 O   0  0  0  0  0  0  0  0  0  0  0  0
  196.3350  172.6000  144.9600 C   0  0  0  0  0  1  0  0  0  0  0  0
  195.3440  173.7440  144.8400 C   0  0  1  0  0  3  0  0  0  0  0  0
  196.0360  175.0380  144.7730 C   0  0  0  0  0  2  0  0  0  0  0  0
  197.3260  174.7550  144.2650 O   0  0  0  0  0  0  0  0  0  0  0  0
  197.6890  175.6320  143.2480 C   0  0  2  0  0  3  0  0  0  0  0  0
  196.8310  176.9150  143.1150 C   0  0  0  0  0  1  0  0  0  0  0  0
  197.9390  174.8900  141.9530 C   0  0  0  0  0  2  0  0  0  0  0  0
  197.7290  175.2660  139.6820 C   0  0  0  0  0  2  0  0  0  0  0  0
  196.0670  173.8790  140.8420 O   0  0  0  0  0  0  0  0  0  0  0  0
  195.9880  173.5340  139.5500 N   0  0  0  0  0  0  0  0  0  0  0  0
  196.8090  175.1270  140.9200 C   0  0  1  0  0  3  0  0  0  0  0  0
  197.2760  173.9800  138.9490 C   0  0  0  0  0  2  0  0  0  0  0  0
  193.8950  171.7290  139.0820 C   0  0  0  0  0  1  0  0  0  0  0  0
  196.5760  171.4190  138.5970 C   0  0  0  0  0  1  0  0  0  0  0  0
  195.4330  172.0690  139.5420 C   0  0  0  0  0  0  0  0  0  0  0  0
  195.8480  169.8370  140.8390 C   0  0  1  0  0  3  0  0  0  0  0  0
  195.7360  171.4040  140.9510 C   0  0  1  0  0  3  0  0  0  0  0  0
  197.0810  170.6920  141.1790 C   0  0  0  0  0  2  0  0  0  0  0  0
  194.8870  169.2160  141.9080 C   0  0  0  0  0  2  0  0  0  0  0  0
  193.5150  169.1990  141.6390 O   0  0  0  0  0  1  0  0  0  0  0  0
  191.1740  175.2820  146.8450 C   0  0  0  0  0  3  0  0  0  0  0  0
  191.4940  175.9770  147.9910 C   0  0  0  0  0  2  0  0  0  0  0  0
  187.0650  177.0860  140.0730 C   0  0  0  0  0  2  0  0  0  0  0  0
  185.6500  178.2960  140.5390 S   0  0  0  0  0  0  0  0  0  0  0  0
  184.8370  177.6300  141.7660 N   0  0  0  0  0  2  0  0  0  0  0  0
  181.5380  179.0050  142.6940 O   0  0  0  0  0  0  0  0  0  0  0  0
  182.4800  178.5750  142.0040 C   0  0  0  0  0  3  0  0  0  0  0  0
  183.7650  178.2990  142.5650 N   0  0  0  0  0  0  0  0  0  0  0  0
  184.1050  178.6340  144.0160 C   0  0  0  0  0  2  0  0  0  0  0  0
  184.9330  179.7840  144.2690 O   0  0  0  0  0  1  0  0  0  0  0  0
  1  5  1  0  0  0  0
  2  4  1  0  0  0  0
  2 15  1  0  0  0  0
  2  3  1  0  0  0  0
  3 12  1  0  0  0  0
  3 11  1  0  0  0  0
  4 15  1  0  0  0  0
  4  5  1  0  0  0  0
  5 13  1  0  0  0  0
  6  9  1  0  0  0  0
  6  4  1  0  0  0  0
  8  7  1  0  0  0  0
  8 52  1  0  0  0  0
  9  1  1  0  0  0  0
 10  8  1  0  0  0  0
 11 10  1  0  0  0  0
 13 11  1  0  0  0  0
 13 14  1  0  0  0  0
 14  8  1  0  0  0  0
 16 18  1  0  0  0  0
 17 16  1  0  0  0  0
 17 18  1  0  0  0  0
 18 15  1  0  0  0  0
 19 17  1  0  0  0  0
 21 22  1  0  0  0  0
 21 23  1  0  0  0  0
 22 23  1  0  0  0  0
 22 20  1  0  0  0  0
 23 19  1  0  0  0  0
 24 22  1  0  0  0  0
 25 24  1  0  0  0  0
 26 28  1  0  0  0  0
 26 24  1  0  0  0  0
 28 27  1  0  0  0  0
 29 30  2  0  0  0  0
 30 31  1  0  0  0  0
 30 10  1  0  0  0  0
 31 33  1  0  0  0  0
 33 32  1  0  0  0  0
 34 33  1  0  0  0  0
 35 34  1  0  0  0  0
 36 35  1  0  0  0  0
 37 36  1  0  0  0  0
 38 36  1  0  0  0  0
 39 42  1  0  0  0  0
 40 42  1  0  0  0  0
 41 40  1  0  0  0  0
 42 38  1  0  0  0  0
 43 41  1  0  0  0  0
 43 39  1  0  0  0  0
 44 46  1  0  0  0  0
 45 46  1  0  0  0  0
 46 41  1  0  0  0  0
 46 48  1  0  0  0  0
 47 48  1  0  0  0  0
 47 49  1  0  0  0  0
 47 50  1  0  0  0  0
 48 49  1  0  0  0  0
 51 50  1  0  0  0  0
 52 53  2  0  0  0  0
 54 55  1  0  0  0  0
 54  9  1  0  0  0  0
 55 56  1  0  0  0  0
 56 59  1  0  0  0  0
 58 59  1  0  0  0  0
 58 57  2  0  0  0  0
 59 60  1  0  0  0  0
 60 61  1  0  0  0  0
M  END
>  <MODEL>
8

>  <REMARK>
 VINA RESULT:      -4.6      2.423      6.821
  Name = 
  22 active torsions:
  status: ('A' for Active; 'I' for Inactive)
    1  A    between atoms: O_5  and  C_10
    2  A    between atoms: O_5  and  C_22
    3  A    between atoms: C_8  and  C_48
    4  A    between atoms: C_8  and  C_58
    5  A    between atoms: C_9  and  C_18
    6  A    between atoms: C_10  and  C_26
    7  A    between atoms: C_11  and  C_25
    8  A    between atoms: C_11  and  C_59
    9  A    between atoms: C_13  and  C_33
   10  A    between atoms: C_13  and  S_46
   11  A    between atoms: O_14  and  C_35
   12  A    between atoms: O_14  and  C_50
   13  A    between atoms: C_19  and  C_60
   14  A    between atoms: C_22  and  C_50
   15  A    between atoms: C_26  and  C_34
   16  A    between atoms: C_27  and  C_32
   17  A    between atoms: N_30  and  C_60
   18  A    between atoms: C_31  and  N_45
   19  A    between atoms: C_35  and  C_37
   20  A    between atoms: N_45  and  N_54
   21  A    between atoms: C_51  and  C_57
   22  A    between atoms: C_55  and  C_58
                            x       y       z     vdW  Elec       q    Type
                         _______ _______ _______ _____ _____    ______ ____

>  <TORSDO>
F 22

$$$$
=
 OpenBabel11042419393D

 61 68  0  0  1  0  0  0  0  0999 V2000
  194.1140  175.0480  138.8650 O   0  0  0  0  0  0  0  0  0  0  0  0
  194.4220  171.4590  139.1170 C   0  0  2  0  0  3  0  0  0  0  0  0
  193.0060  171.0040  138.5960 C   0  0  1  0  0  3  0  0  0  0  0  0
  195.0310  172.8070  138.6910 C   0  0  1  0  0  0  0  0  0  0  0  0
  193.9340  173.8500  138.1440 C   0  0  1  0  0  3  0  0  0  0  0  0
  195.9370  173.5240  139.7260 C   0  0  0  0  0  2  0  0  0  0  0  0
  188.6890  172.7190  138.6930 C   0  0  0  0  0  1  0  0  0  0  0  0
  189.8810  173.0200  137.7370 C   0  0  2  0  0  0  0  0  0  0  0  0
  195.4580  174.9930  139.4890 C   0  0  2  0  0  3  0  0  0  0  0  0
  190.7590  171.7220  137.8240 C   0  0  1  0  0  3  0  0  0  0  0  0
  192.2580  171.9980  137.6810 C   0  0  1  0  0  3  0  0  0  0  0  0
  192.8340  169.5690  137.9580 C   0  0  0  0  0  1  0  0  0  0  0  0
  192.4020  173.4780  138.0670 C   0  0  2  0  0  3  0  0  0  0  0  0
  190.9320  174.1780  138.1810 C   0  0  0  0  0  2  0  0  0  0  0  0
  195.1560  171.4430  137.8300 C   0  0  1  0  0  3  0  0  0  0  0  0
  197.1230  169.4360  138.0920 C   0  0  0  0  0  2  0  0  0  0  0  0
  196.9960  170.4430  139.3320 C   0  0  1  0  0  3  0  0  0  0  0  0
  195.8350  170.2700  138.2800 C   0  0  1  0  0  3  0  0  0  0  0  0
  196.5950  169.9720  140.6990 C   0  0  0  0  0  2  0  0  0  0  0  0
  197.6090  169.6370  143.3570 O   0  0  0  0  0  1  0  0  0  0  0  0
  195.8820  171.1890  142.3080 N   0  0  0  0  0  2  0  0  0  0  0  0
  196.3810  169.9650  143.0840 C   0  0  2  0  0  0  0  0  0  0  0  0
  197.0680  170.5840  141.8990 C   0  0  1  0  0  3  0  0  0  0  0  0
  196.1870  170.6600  144.3660 C   0  0  1  0  0  3  0  0  0  0  0  0
  195.1810  170.2460  145.2380 O   0  0  0  0  0  1  0  0  0  0  0  0
  197.3300  171.2940  145.2160 C   0  0  0  0  0  2  0  0  0  0  0  0
  197.1810  173.8010  145.6240 C   0  0  0  0  0  1  0  0  0  0  0  0
  196.8120  172.3940  146.1350 C   0  0  0  0  0  2  0  0  0  0  0  0
  189.8190  169.5330  138.9900 O   0  0  0  0  0  0  0  0  0  0  0  0
  190.4330  170.6400  139.0300 C   0  0  0  0  0  0  0  0  0  0  0  0
  190.3740  171.3540  140.1750 O   0  0  0  0  0  0  0  0  0  0  0  0
  191.9190  170.3770  142.0720 C   0  0  0  0  0  1  0  0  0  0  0  0
  190.5570  170.7680  141.5270 C   0  0  1  0  0  3  0  0  0  0  0  0
  189.8070  171.5690  142.5040 C   0  0  0  0  0  2  0  0  0  0  0  0
  190.1590  172.9150  142.2440 O   0  0  0  0  0  0  0  0  0  0  0  0
  190.4430  173.6120  143.4140 C   0  0  2  0  0  3  0  0  0  0  0  0
  190.2480  172.8330  144.7380 C   0  0  0  0  0  1  0  0  0  0  0  0
  189.8280  174.9950  143.3860 C   0  0  0  0  0  2  0  0  0  0  0  0
  190.4460  176.9050  144.5300 C   0  0  0  0  0  2  0  0  0  0  0  0
  188.2590  175.8790  144.9730 O   0  0  0  0  0  0  0  0  0  0  0  0
  188.1480  177.1540  145.3700 N   0  0  0  0  0  0  0  0  0  0  0  0
  189.6750  175.5910  144.8080 C   0  0  1  0  0  3  0  0  0  0  0  0
  189.2490  177.8760  144.6730 C   0  0  0  0  0  2  0  0  0  0  0  0
  185.4660  176.4300  145.7460 C   0  0  0  0  0  1  0  0  0  0  0  0
  186.6570  178.8730  146.1110 C   0  0  0  0  0  1  0  0  0  0  0  0
  186.6220  177.4920  145.2660 C   0  0  0  0  0  0  0  0  0  0  0  0
  186.0390  176.7970  142.8140 C   0  0  1  0  0  3  0  0  0  0  0  0
  186.3130  178.0000  143.7940 C   0  0  1  0  0  3  0  0  0  0  0  0
  184.9140  177.7750  143.1950 C   0  0  0  0  0  2  0  0  0  0  0  0
  186.9760  176.9750  141.5720 C   0  0  0  0  0  2  0  0  0  0  0  0
  188.2310  177.5610  141.7660 O   0  0  0  0  0  1  0  0  0  0  0  0
  189.3690  173.3620  136.3090 C   0  0  0  0  0  3  0  0  0  0  0  0
  190.2140  173.5790  135.2440 C   0  0  0  0  0  2  0  0  0  0  0  0
  195.6600  175.9380  140.7560 C   0  0  0  0  0  2  0  0  0  0  0  0
  195.6370  175.3650  142.5870 S   0  0  0  0  0  0  0  0  0  0  0  0
  194.6490  176.3610  143.3870 N   0  0  0  0  0  2  0  0  0  0  0  0
  193.2460  174.7860  146.4180 O   0  0  0  0  0  0  0  0  0  0  0  0
  193.5100  175.0040  145.2220 C   0  0  0  0  0  3  0  0  0  0  0  0
  194.1930  176.1860  144.8000 N   0  0  0  0  0  0  0  0  0  0  0  0
  194.5290  177.3170  145.7710 C   0  0  0  0  0  2  0  0  0  0  0  0
  194.1170  177.1750  147.1420 O   0  0  0  0  0  1  0  0  0  0  0  0
  1  9  1  0  0  0  0
  3  2  1  0  0  0  0
  4  2  1  0  0  0  0
  4  6  1  0  0  0  0
  5  4  1  0  0  0  0
  5  1  1  0  0  0  0
  8 10  1  0  0  0  0
  8 14  1  0  0  0  0
  8  7  1  0  0  0  0
  9  6  1  0  0  0  0
  9 54  1  0  0  0  0
 10 30  1  0  0  0  0
 11 10  1  0  0  0  0
 11 13  1  0  0  0  0
 11  3  1  0  0  0  0
 12  3  1  0  0  0  0
 13  5  1  0  0  0  0
 13 14  1  0  0  0  0
 15 18  1  0  0  0  0
 15  4  1  0  0  0  0
 15  2  1  0  0  0  0
 16 18  1  0  0  0  0
 16 17  1  0  0  0  0
 17 19  1  0  0  0  0
 18 17  1  0  0  0  0
 19 23  1  0  0  0  0
 21 22  1  0  0  0  0
 22 20  1  0  0  0  0
 22 24  1  0  0  0  0
 23 21  1  0  0  0  0
 23 22  1  0  0  0  0
 24 26  1  0  0  0  0
 24 25  1  0  0  0  0
 26 28  1  0  0  0  0
 27 28  1  0  0  0  0
 29 30  2  0  0  0  0
 30 31  1  0  0  0  0
 31 33  1  0  0  0  0
 33 32  1  0  0  0  0
 33 34  1  0  0  0  0
 35 34  1  0  0  0  0
 35 36  1  0  0  0  0
 36 37  1  0  0  0  0
 38 36  1  0  0  0  0
 38 42  1  0  0  0  0
 39 43  1  0  0  0  0
 39 42  1  0  0  0  0
 40 41  1  0  0  0  0
 42 40  1  0  0  0  0
 43 41  1  0  0  0  0
 46 41  1  0  0  0  0
 46 44  1  0  0  0  0
 46 45  1  0  0  0  0
 47 49  1  0  0  0  0
 47 48  1  0  0  0  0
 48 46  1  0  0  0  0
 49 48  1  0  0  0  0
 50 51  1  0  0  0  0
 50 47  1  0  0  0  0
 52  8  1  0  0  0  0
 53 52  2  0  0  0  0
 54 55  1  0  0  0  0
 55 56  1  0  0  0  0
 56 59  1  0  0  0  0
 58 57  2  0  0  0  0
 59 58  1  0  0  0  0
 59 60  1  0  0  0  0
 60 61  1  0  0  0  0
M  END
>  <MODEL>
9

>  <REMARK>
 VINA RESULT:      -4.5      2.847      9.808
  Name = 
  22 active torsions:
  status: ('A' for Active; 'I' for Inactive)
    1  A    between atoms: O_5  and  C_10
    2  A    between atoms: O_5  and  C_22
    3  A    between atoms: C_8  and  C_48
    4  A    between atoms: C_8  and  C_58
    5  A    between atoms: C_9  and  C_18
    6  A    between atoms: C_10  and  C_26
    7  A    between atoms: C_11  and  C_25
    8  A    between atoms: C_11  and  C_59
    9  A    between atoms: C_13  and  C_33
   10  A    between atoms: C_13  and  S_46
   11  A    between atoms: O_14  and  C_35
   12  A    between atoms: O_14  and  C_50
   13  A    between atoms: C_19  and  C_60
   14  A    between atoms: C_22  and  C_50
   15  A    between atoms: C_26  and  C_34
   16  A    between atoms: C_27  and  C_32
   17  A    between atoms: N_30  and  C_60
   18  A    between atoms: C_31  and  N_45
   19  A    between atoms: C_35  and  C_37
   20  A    between atoms: N_45  and  N_54
   21  A    between atoms: C_51  and  C_57
   22  A    between atoms: C_55  and  C_58
                            x       y       z     vdW  Elec       q    Type
                         _______ _______ _______ _____ _____    ______ ____

>  <TORSDO>
F 22

$$$$
