=
 OpenBabel11042414143D

 45 49  0  0  1  0  0  0  0  0999 V2000
  189.8120  174.2780  143.9750 C   0  0  0  0  0  0  0  0  0  0  0  0
  188.6110  175.0840  142.1050 C   0  0  0  0  0  0  0  0  0  0  0  0
  189.2560  174.2330  141.2580 C   0  0  0  0  0  3  0  0  0  0  0  0
  188.9320  175.1190  143.4670 C   0  0  0  0  0  3  0  0  0  0  0  0
  190.1730  173.3540  141.7670 C   0  0  0  0  0  0  0  0  0  0  0  0
  190.4520  173.4390  143.1350 C   0  0  0  0  0  3  0  0  0  0  0  0
  187.6590  176.1130  141.6110 C   0  0  0  0  0  0  0  0  0  0  0  0
  185.6420  177.9800  140.9850 N   0  0  0  0  0  0  0  0  0  0  0  0
  186.9630  176.6780  142.5200 N   0  0  0  0  0  0  0  0  0  0  0  0
  187.3770  176.4960  140.2710 C   0  0  0  0  0  3  0  0  0  0  0  0
  186.3520  177.4340  139.9410 C   0  0  0  0  0  3  0  0  0  0  0  0
  185.9630  177.5970  142.2550 C   0  0  0  0  0  0  0  0  0  0  0  0
  185.8530  177.5730  144.8250 C   0  0  0  0  0  3  0  0  0  0  0  0
  184.2150  178.7460  143.6410 C   0  0  0  0  0  3  0  0  0  0  0  0
  185.3840  177.9860  143.5850 C   0  0  0  0  0  0  0  0  0  0  0  0
  183.5510  179.0660  144.8240 N   0  0  0  0  0  0  0  0  0  0  0  0
  185.1300  177.9280  146.0770 C   0  0  0  0  0  0  0  0  0  0  0  0
  184.0100  178.6660  145.9920 N   0  0  0  0  0  0  0  0  0  0  0  0
  186.8320  176.7060  147.2900 C   0  0  0  0  0  1  0  0  0  0  0  0
  185.6360  177.4640  147.3000 O   0  0  0  0  0  0  0  0  0  0  0  0
  190.0350  174.1990  145.3890 N   0  0  0  0  0  2  0  0  0  0  0  0
  190.7590  175.3060  146.5420 S   0  0  0  0  0  0  0  0  0  0  0  0
  190.3600  176.6720  146.1450 O   0  0  0  0  0  0  0  0  0  0  0  0
  190.3600  175.0350  147.9700 O   0  0  0  0  0  0  0  0  0  0  0  0
  192.8730  173.8190  146.0410 N   0  0  0  0  0  1  0  0  0  0  0  0
  192.5400  175.1790  146.3990 C   0  0  1  0  0  3  0  0  0  0  0  0
  193.6050  176.0470  144.2030 C   0  0  1  0  0  3  0  0  0  0  0  0
  194.7190  176.4330  145.9610 C   0  0  0  0  0  2  0  0  0  0  0  0
  195.2650  176.6900  144.2250 S   0  0  0  0  0  0  0  0  0  0  0  0
  193.2670  176.2900  145.6290 C   0  0  2  0  0  3  0  0  0  0  0  0
  192.7150  176.3200  143.0660 C   0  0  0  0  0  3  0  0  0  0  0  0
  191.8780  177.3630  143.0610 C   0  0  0  0  0  2  0  0  0  0  0  0
  191.2300  172.8610  140.8850 C   0  0  0  0  0  2  0  0  0  0  0  0
  195.6470  174.7270  140.9730 C   0  0  0  0  0  2  0  0  0  0  0  0
  197.0200  172.9590  142.1870 C   0  0  2  0  0  3  0  0  0  0  0  0
  193.0390  174.4530  140.0200 O   0  0  0  0  0  0  0  0  0  0  0  0
  197.0100  174.3820  141.6870 C   0  0  0  0  0  2  0  0  0  0  0  0
  193.4530  173.5850  140.8620 C   0  0  0  0  0  0  0  0  0  0  0  0
  192.5250  172.6930  141.4860 N   0  0  0  0  0  2  0  0  0  0  0  0
  194.8400  173.6020  141.1940 N   0  0  0  0  0  0  0  0  0  0  0  0
  195.5310  172.5950  142.0230 C   0  0  0  0  0  2  0  0  0  0  0  0
  197.8890  172.5090  143.2370 O   0  0  0  0  0  0  0  0  0  0  0  0
  196.5390  173.4590  145.4460 O   0  0  0  0  0  0  0  0  0  0  0  0
  197.0730  172.2560  144.6920 P   0  0  0  0  0  0  0  0  0  0  0  0
  196.3780  170.9430  145.1120 O   0  0  0  0  0  0  0  0  0  0  0  0
  1 21  1  0  0  0  0
  2  4  2  0  0  0  0
  3  5  2  0  0  0  0
  3  2  1  0  0  0  0
  4  1  1  0  0  0  0
  5  6  1  0  0  0  0
  6  1  2  0  0  0  0
  7  2  1  0  0  0  0
  7  9  2  0  0  0  0
  8 12  2  0  0  0  0
 10  7  1  0  0  0  0
 11 10  2  0  0  0  0
 11  8  1  0  0  0  0
 12  9  1  0  0  0  0
 12 15  1  0  0  0  0
 13 17  1  0  0  0  0
 14 16  2  0  0  0  0
 15 14  1  0  0  0  0
 15 13  2  0  0  0  0
 16 18  1  0  0  0  0
 17 20  1  0  0  0  0
 18 17  2  0  0  0  0
 19 20  1  0  0  0  0
 21 22  1  0  0  0  0
 22 24  2  0  0  0  0
 23 22  2  0  0  0  0
 26 25  1  6  0  0  0
 26 22  1  0  0  0  0
 27 31  1  6  0  0  0
 27 29  1  0  0  0  0
 27 30  1  0  0  0  0
 29 28  1  0  0  0  0
 30 28  1  0  0  0  0
 30 26  1  1  0  0  0
 32 31  2  0  0  0  0
 33 39  1  0  0  0  0
 33  5  1  0  0  0  0
 34 40  1  0  0  0  0
 34 37  1  0  0  0  0
 35 42  1  1  0  0  0
 36 38  2  0  0  0  0
 37 35  1  0  0  0  0
 38 40  1  0  0  0  0
 38 39  1  0  0  0  0
 40 41  1  0  0  0  0
 41 35  1  0  0  0  0
 42 44  1  0  0  0  0
 44 45  2  0  0  0  0
 44 43  2  0  0  0  0
M  END
>  <MODEL>
1

>  <REMARK>
 VINA RESULT:      -6.9      0.000      0.000
  Name = 
  12 active torsions:
  status: ('A' for Active; 'I' for Inactive)
    1  A    between atoms: C_2  and  C_6
    2  A    between atoms: S_3  and  N_9
    3  A    between atoms: S_3  and  C_38
    4  A    between atoms: C_4  and  C_12
    5  A    between atoms: C_8  and  N_9
    6  A    between atoms: C_10  and  O_18
    7  A    between atoms: C_17  and  C_26
    8  A    between atoms: C_17  and  N_36
    9  A    between atoms: O_18  and  P_19
   10  A    between atoms: O_27  and  C_41
   11  A    between atoms: C_33  and  C_37
   12  A    between atoms: C_38  and  C_45
                            x       y       z     vdW  Elec       q    Type
                         _______ _______ _______ _____ _____    ______ ____

>  <TORSDO>
F 12

$$$$
=
 OpenBabel11042414143D

 45 49  0  0  1  0  0  0  0  0999 V2000
  189.5030  173.9800  143.6750 C   0  0  0  0  0  0  0  0  0  0  0  0
  188.3370  174.9420  141.8570 C   0  0  0  0  0  0  0  0  0  0  0  0
  188.8190  174.0080  140.9880 C   0  0  0  0  0  3  0  0  0  0  0  0
  188.7240  174.9340  143.2020 C   0  0  0  0  0  3  0  0  0  0  0  0
  189.6290  173.0130  141.4610 C   0  0  0  0  0  0  0  0  0  0  0  0
  189.9810  173.0600  142.8130 C   0  0  0  0  0  3  0  0  0  0  0  0
  187.5140  176.0920  141.4000 C   0  0  0  0  0  0  0  0  0  0  0  0
  185.7400  178.2130  140.8480 N   0  0  0  0  0  0  0  0  0  0  0  0
  186.9240  176.7320  142.3340 N   0  0  0  0  0  0  0  0  0  0  0  0
  187.2470  176.5230  140.0720 C   0  0  0  0  0  3  0  0  0  0  0  0
  186.3430  177.5910  139.7800 C   0  0  0  0  0  3  0  0  0  0  0  0
  186.0440  177.7760  142.1060 C   0  0  0  0  0  0  0  0  0  0  0  0
  186.2450  178.0700  144.6540 C   0  0  0  0  0  3  0  0  0  0  0  0
  184.2770  178.7510  143.5950 C   0  0  0  0  0  3  0  0  0  0  0  0
  185.5600  178.2220  143.4550 C   0  0  0  0  0  0  0  0  0  0  0  0
  183.7060  179.0950  144.8190 N   0  0  0  0  0  0  0  0  0  0  0  0
  185.6180  178.4450  145.9500 C   0  0  0  0  0  0  0  0  0  0  0  0
  184.3700  178.9430  145.9470 N   0  0  0  0  0  0  0  0  0  0  0  0
  186.4900  176.9260  147.6220 C   0  0  0  0  0  1  0  0  0  0  0  0
  186.3470  178.2480  147.1320 O   0  0  0  0  0  0  0  0  0  0  0  0
  189.7790  173.8740  145.0790 N   0  0  0  0  0  2  0  0  0  0  0  0
  190.2420  175.0540  146.2930 S   0  0  0  0  0  0  0  0  0  0  0  0
  189.8040  176.3770  145.8040 O   0  0  0  0  0  0  0  0  0  0  0  0
  189.6590  174.7760  147.6550 O   0  0  0  0  0  0  0  0  0  0  0  0
  192.5270  173.8030  145.9090 N   0  0  0  0  0  1  0  0  0  0  0  0
  192.0290  175.0630  146.4120 C   0  0  1  0  0  3  0  0  0  0  0  0
  193.3780  176.3170  144.5910 C   0  0  1  0  0  3  0  0  0  0  0  0
  194.1040  176.5400  146.5660 C   0  0  0  0  0  2  0  0  0  0  0  0
  194.9270  177.0840  145.0160 S   0  0  0  0  0  0  0  0  0  0  0  0
  192.7610  176.3280  145.9420 C   0  0  2  0  0  3  0  0  0  0  0  0
  192.6870  176.6740  143.3440 C   0  0  0  0  0  3  0  0  0  0  0  0
  192.5180  175.7900  142.3550 C   0  0  0  0  0  2  0  0  0  0  0  0
  190.5650  172.3770  140.5350 C   0  0  0  0  0  2  0  0  0  0  0  0
  193.7980  174.7340  137.8910 C   0  0  0  0  0  2  0  0  0  0  0  0
  195.9750  174.3990  139.1690 C   0  0  2  0  0  3  0  0  0  0  0  0
  191.3780  173.4230  138.3430 O   0  0  0  0  0  0  0  0  0  0  0  0
  195.3010  175.1790  138.0680 C   0  0  0  0  0  2  0  0  0  0  0  0
  192.2640  173.3580  139.2620 C   0  0  0  0  0  0  0  0  0  0  0  0
  191.9140  172.8740  140.5620 N   0  0  0  0  0  2  0  0  0  0  0  0
  193.5660  173.8500  138.9530 N   0  0  0  0  0  0  0  0  0  0  0  0
  194.7530  173.7250  139.8230 C   0  0  0  0  0  2  0  0  0  0  0  0
  197.1460  174.8720  139.8530 O   0  0  0  0  0  0  0  0  0  0  0  0
  195.9910  176.9210  141.2920 O   0  0  0  0  0  0  0  0  0  0  0  0
  196.7830  175.6270  141.3170 P   0  0  0  0  0  0  0  0  0  0  0  0
  196.7280  174.9300  142.6940 O   0  0  0  0  0  0  0  0  0  0  0  0
  1 21  1  0  0  0  0
  2  4  2  0  0  0  0
  3  5  2  0  0  0  0
  3  2  1  0  0  0  0
  4  1  1  0  0  0  0
  5  6  1  0  0  0  0
  6  1  2  0  0  0  0
  7  2  1  0  0  0  0
  7  9  2  0  0  0  0
  8 12  2  0  0  0  0
 10  7  1  0  0  0  0
 11 10  2  0  0  0  0
 11  8  1  0  0  0  0
 12  9  1  0  0  0  0
 12 15  1  0  0  0  0
 13 17  1  0  0  0  0
 14 16  2  0  0  0  0
 15 14  1  0  0  0  0
 15 13  2  0  0  0  0
 16 18  1  0  0  0  0
 17 20  1  0  0  0  0
 18 17  2  0  0  0  0
 20 19  1  0  0  0  0
 21 22  1  0  0  0  0
 22 26  1  0  0  0  0
 22 24  2  0  0  0  0
 23 22  2  0  0  0  0
 26 25  1  6  0  0  0
 27 31  1  6  0  0  0
 27 29  1  0  0  0  0
 27 30  1  0  0  0  0
 29 28  1  0  0  0  0
 30 26  1  1  0  0  0
 30 28  1  0  0  0  0
 32 31  2  0  0  0  0
 33 39  1  0  0  0  0
 33  5  1  0  0  0  0
 34 37  1  0  0  0  0
 34 40  1  0  0  0  0
 35 41  1  0  0  0  0
 35 42  1  1  0  0  0
 36 38  2  0  0  0  0
 37 35  1  0  0  0  0
 38 39  1  0  0  0  0
 40 38  1  0  0  0  0
 40 41  1  0  0  0  0
 42 44  1  0  0  0  0
 43 44  2  0  0  0  0
 44 45  2  0  0  0  0
M  END
>  <MODEL>
2

>  <REMARK>
 VINA RESULT:      -6.8      1.630      1.960
  Name = 
  12 active torsions:
  status: ('A' for Active; 'I' for Inactive)
    1  A    between atoms: C_2  and  C_6
    2  A    between atoms: S_3  and  N_9
    3  A    between atoms: S_3  and  C_38
    4  A    between atoms: C_4  and  C_12
    5  A    between atoms: C_8  and  N_9
    6  A    between atoms: C_10  and  O_18
    7  A    between atoms: C_17  and  C_26
    8  A    between atoms: C_17  and  N_36
    9  A    between atoms: O_18  and  P_19
   10  A    between atoms: O_27  and  C_41
   11  A    between atoms: C_33  and  C_37
   12  A    between atoms: C_38  and  C_45
                            x       y       z     vdW  Elec       q    Type
                         _______ _______ _______ _____ _____    ______ ____

>  <TORSDO>
F 12

$$$$
=
 OpenBabel11042414143D

 45 49  0  0  1  0  0  0  0  0999 V2000
  191.5080  176.1780  145.0000 C   0  0  0  0  0  0  0  0  0  0  0  0
  189.2090  176.0650  145.5390 C   0  0  0  0  0  0  0  0  0  0  0  0
  189.2090  174.7030  145.4790 C   0  0  0  0  0  3  0  0  0  0  0  0
  190.3700  176.7940  145.2570 C   0  0  0  0  0  3  0  0  0  0  0  0
  190.3800  174.0480  145.2140 C   0  0  0  0  0  0  0  0  0  0  0  0
  191.5050  174.8310  144.9390 C   0  0  0  0  0  3  0  0  0  0  0  0
  187.9610  176.8430  145.7490 C   0  0  0  0  0  0  0  0  0  0  0  0
  185.6330  178.4340  145.7830 N   0  0  0  0  0  0  0  0  0  0  0  0
  187.2760  177.0520  144.6920 N   0  0  0  0  0  0  0  0  0  0  0  0
  187.4720  177.4370  146.9450 C   0  0  0  0  0  3  0  0  0  0  0  0
  186.2990  178.2520  146.9730 C   0  0  0  0  0  3  0  0  0  0  0  0
  186.1300  177.8280  144.6650 C   0  0  0  0  0  0  0  0  0  0  0  0
  186.4660  177.6930  142.1190 C   0  0  0  0  0  2  0  0  0  0  0  0
  184.3210  178.1060  142.9490 C   0  0  0  0  0  3  0  0  0  0  0  0
  185.6590  177.8360  143.2400 C   0  0  0  0  0  0  0  0  0  0  0  0
  183.8170  178.2360  141.6560 N   0  0  0  0  0  2  0  0  0  0  0  0
  185.9070  177.8330  140.7460 C   0  0  0  0  0  0  0  0  0  0  0  0
  184.5970  178.0970  140.6040 N   0  0  0  0  0  0  0  0  0  0  0  0
  186.4780  176.7200  138.6730 C   0  0  0  0  0  1  0  0  0  0  0  0
  186.7730  177.7020  139.6510 O   0  0  0  0  0  0  0  0  0  0  0  0
  192.7350  176.9090  144.8630 N   0  0  0  0  0  2  0  0  0  0  0  0
  194.3310  176.6940  145.5600 S   0  0  0  0  0  0  0  0  0  0  0  0
  194.9250  178.0380  145.7120 O   0  0  0  0  0  0  0  0  0  0  0  0
  194.3180  175.9710  146.8830 O   0  0  0  0  0  0  0  0  0  0  0  0
  195.2230  174.3630  144.7200 N   0  0  0  0  0  1  0  0  0  0  0  0
  195.3300  175.7680  144.3970 C   0  0  1  0  0  3  0  0  0  0  0  0
  195.1480  175.0420  141.9170 C   0  0  1  0  0  3  0  0  0  0  0  0
  196.4800  176.6430  142.2940 C   0  0  0  0  0  2  0  0  0  0  0  0
  196.2740  175.7220  140.7170 S   0  0  0  0  0  0  0  0  0  0  0  0
  195.2130  176.1430  142.9130 C   0  0  2  0  0  3  0  0  0  0  0  0
  193.9170  174.3660  141.4840 C   0  0  0  0  0  3  0  0  0  0  0  0
  192.7330  174.9860  141.4940 C   0  0  0  0  0  2  0  0  0  0  0  0
  190.3130  172.7170  144.6120 C   0  0  0  0  0  2  0  0  0  0  0  0
  189.0400  172.5110  139.9930 C   0  0  0  0  0  2  0  0  0  0  0  0
  191.1700  171.7630  138.8180 C   0  0  2  0  0  3  0  0  0  0  0  0
  188.5710  172.5400  142.7430 O   0  0  0  0  0  0  0  0  0  0  0  0
  189.7890  172.3330  138.6170 C   0  0  0  0  0  2  0  0  0  0  0  0
  189.7840  172.4290  142.3530 C   0  0  0  0  0  0  0  0  0  0  0  0
  190.8540  172.5950  143.2860 N   0  0  0  0  0  2  0  0  0  0  0  0
  190.0070  172.2100  140.9620 N   0  0  0  0  0  0  0  0  0  0  0  0
  191.3140  171.9100  140.3450 C   0  0  0  0  0  2  0  0  0  0  0  0
  192.2220  171.9140  137.8520 O   0  0  0  0  0  0  0  0  0  0  0  0
  194.3160  173.7030  137.9770 O   0  0  0  0  0  0  0  0  0  0  0  0
  192.8270  173.4870  137.7890 P   0  0  0  0  0  0  0  0  0  0  0  0
  192.1440  174.6810  137.0870 O   0  0  0  0  0  0  0  0  0  0  0  0
  1  4  1  0  0  0  0
  2  7  1  0  0  0  0
  3  2  1  0  0  0  0
  4  2  2  0  0  0  0
  5  3  2  0  0  0  0
  6  1  2  0  0  0  0
  6  5  1  0  0  0  0
  7 10  1  0  0  0  0
  8 11  1  0  0  0  0
  9  7  2  0  0  0  0
 10 11  2  0  0  0  0
 12  9  1  0  0  0  0
 12  8  2  0  0  0  0
 13 15  1  0  0  0  0
 14 15  2  0  0  0  0
 15 12  1  0  0  0  0
 16 14  1  0  0  0  0
 17 13  1  0  0  0  0
 18 17  2  0  0  0  0
 18 16  1  0  0  0  0
 19 20  1  0  0  0  0
 20 17  1  0  0  0  0
 21  1  1  0  0  0  0
 21 22  1  0  0  0  0
 22 23  2  0  0  0  0
 22 24  2  0  0  0  0
 26 25  1  6  0  0  0
 26 22  1  0  0  0  0
 27 31  1  6  0  0  0
 27 30  1  0  0  0  0
 28 30  1  0  0  0  0
 29 27  1  0  0  0  0
 29 28  1  0  0  0  0
 30 26  1  1  0  0  0
 31 32  2  0  0  0  0
 33  5  1  0  0  0  0
 34 40  1  0  0  0  0
 35 42  1  6  0  0  0
 35 41  1  0  0  0  0
 37 35  1  0  0  0  0
 37 34  1  0  0  0  0
 38 36  2  0  0  0  0
 38 39  1  0  0  0  0
 39 33  1  0  0  0  0
 40 38  1  0  0  0  0
 41 40  1  0  0  0  0
 44 42  1  0  0  0  0
 44 43  2  0  0  0  0
 45 44  2  0  0  0  0
M  END
>  <MODEL>
3

>  <REMARK>
 VINA RESULT:      -6.7      2.957      5.048
  Name = 
  12 active torsions:
  status: ('A' for Active; 'I' for Inactive)
    1  A    between atoms: C_2  and  C_6
    2  A    between atoms: S_3  and  N_9
    3  A    between atoms: S_3  and  C_38
    4  A    between atoms: C_4  and  C_12
    5  A    between atoms: C_8  and  N_9
    6  A    between atoms: C_10  and  O_18
    7  A    between atoms: C_17  and  C_26
    8  A    between atoms: C_17  and  N_36
    9  A    between atoms: O_18  and  P_19
   10  A    between atoms: O_27  and  C_41
   11  A    between atoms: C_33  and  C_37
   12  A    between atoms: C_38  and  C_45
                            x       y       z     vdW  Elec       q    Type
                         _______ _______ _______ _____ _____    ______ ____

>  <TORSDO>
F 12

$$$$
=
 OpenBabel11042414143D

 45 49  0  0  1  0  0  0  0  0999 V2000
  188.0410  174.9010  141.7800 C   0  0  0  0  0  0  0  0  0  0  0  0
  189.3660  173.5010  140.4110 C   0  0  0  0  0  0  0  0  0  0  0  0
  189.7330  172.7250  141.4700 C   0  0  0  0  0  3  0  0  0  0  0  0
  188.5420  174.6170  140.5930 C   0  0  0  0  0  3  0  0  0  0  0  0
  189.2240  173.0050  142.7090 C   0  0  0  0  0  0  0  0  0  0  0  0
  188.4080  174.1340  142.8270 C   0  0  0  0  0  3  0  0  0  0  0  0
  189.9370  173.3000  139.0540 C   0  0  0  0  0  0  0  0  0  0  0  0
  191.2660  173.2010  136.5690 N   0  0  0  0  0  0  0  0  0  0  0  0
  191.1690  173.6150  138.9390 N   0  0  0  0  0  0  0  0  0  0  0  0
  189.2810  172.8750  137.8660 C   0  0  0  0  0  3  0  0  0  0  0  0
  189.9420  172.8290  136.6000 C   0  0  0  0  0  3  0  0  0  0  0  0
  191.8570  173.5820  137.7390 C   0  0  0  0  0  0  0  0  0  0  0  0
  193.7370  174.3990  139.2930 C   0  0  0  0  0  3  0  0  0  0  0  0
  194.1550  174.2630  136.9980 C   0  0  0  0  0  3  0  0  0  0  0  0
  193.2520  174.0480  138.0400 C   0  0  0  0  0  0  0  0  0  0  0  0
  195.4320  174.7920  137.1720 N   0  0  0  0  0  0  0  0  0  0  0  0
  195.1060  174.9600  139.4580 C   0  0  0  0  0  0  0  0  0  0  0  0
  195.8770  175.1190  138.3680 N   0  0  0  0  0  0  0  0  0  0  0  0
  195.1070  176.5600  141.2750 C   0  0  0  0  0  1  0  0  0  0  0  0
  195.5360  175.3190  140.7440 O   0  0  0  0  0  0  0  0  0  0  0  0
  187.0750  175.9470  141.9490 N   0  0  0  0  0  2  0  0  0  0  0  0
  186.9890  177.5950  141.3510 S   0  0  0  0  0  0  0  0  0  0  0  0
  188.3170  178.2060  141.5650 O   0  0  0  0  0  0  0  0  0  0  0  0
  186.5940  177.6880  139.9000 O   0  0  0  0  0  0  0  0  0  0  0  0
  184.5300  177.7920  142.2700 N   0  0  0  0  0  1  0  0  0  0  0  0
  185.7940  178.4890  142.3410 C   0  0  1  0  0  3  0  0  0  0  0  0
  186.2250  177.9740  144.8430 C   0  0  1  0  0  3  0  0  0  0  0  0
  185.2460  179.8090  144.4550 C   0  0  0  0  0  2  0  0  0  0  0  0
  185.5020  179.0170  146.0930 S   0  0  0  0  0  0  0  0  0  0  0  0
  186.2420  178.9600  143.7330 C   0  0  2  0  0  3  0  0  0  0  0  0
  187.3260  177.0610  145.1810 C   0  0  0  0  0  3  0  0  0  0  0  0
  188.6050  177.4010  144.9910 C   0  0  0  0  0  2  0  0  0  0  0  0
  189.9870  172.5890  143.8850 C   0  0  0  0  0  2  0  0  0  0  0  0
  192.9970  175.3330  146.4160 C   0  0  0  0  0  2  0  0  0  0  0  0
  195.0520  175.5040  144.9210 C   0  0  2  0  0  3  0  0  0  0  0  0
  190.5000  174.3100  145.7120 O   0  0  0  0  0  0  0  0  0  0  0  0
  194.5150  175.7490  146.3090 C   0  0  0  0  0  2  0  0  0  0  0  0
  191.4860  174.0380  144.9450 C   0  0  0  0  0  0  0  0  0  0  0  0
  191.3540  173.0290  143.9390 N   0  0  0  0  0  2  0  0  0  0  0  0
  192.7140  174.7220  145.1870 N   0  0  0  0  0  0  0  0  0  0  0  0
  193.9110  174.6560  144.3260 C   0  0  0  0  0  2  0  0  0  0  0  0
  196.4520  175.3500  144.6440 O   0  0  0  0  0  0  0  0  0  0  0  0
  197.1470  173.4660  146.5350 O   0  0  0  0  0  0  0  0  0  0  0  0
  197.0330  173.8220  145.0650 P   0  0  0  0  0  0  0  0  0  0  0  0
  197.0050  172.5730  144.1580 O   0  0  0  0  0  0  0  0  0  0  0  0
  1 21  1  0  0  0  0
  1  6  1  0  0  0  0
  2  4  1  0  0  0  0
  2  3  2  0  0  0  0
  3  5  1  0  0  0  0
  4  1  2  0  0  0  0
  5  6  2  0  0  0  0
  5 33  1  0  0  0  0
  7  2  1  0  0  0  0
  8 11  1  0  0  0  0
  8 12  2  0  0  0  0
  9  7  2  0  0  0  0
 10  7  1  0  0  0  0
 11 10  2  0  0  0  0
 12 15  1  0  0  0  0
 12  9  1  0  0  0  0
 13 17  1  0  0  0  0
 14 16  2  0  0  0  0
 14 15  1  0  0  0  0
 15 13  2  0  0  0  0
 16 18  1  0  0  0  0
 17 20  1  0  0  0  0
 18 17  2  0  0  0  0
 20 19  1  0  0  0  0
 22 23  2  0  0  0  0
 22 21  1  0  0  0  0
 22 26  1  0  0  0  0
 24 22  2  0  0  0  0
 26 25  1  1  0  0  0
 27 31  1  1  0  0  0
 27 29  1  0  0  0  0
 28 29  1  0  0  0  0
 30 26  1  6  0  0  0
 30 28  1  0  0  0  0
 30 27  1  0  0  0  0
 32 31  2  0  0  0  0
 33 39  1  0  0  0  0
 35 42  1  1  0  0  0
 35 37  1  0  0  0  0
 37 34  1  0  0  0  0
 38 40  1  0  0  0  0
 38 36  2  0  0  0  0
 39 38  1  0  0  0  0
 40 34  1  0  0  0  0
 41 35  1  0  0  0  0
 41 40  1  0  0  0  0
 42 44  1  0  0  0  0
 44 43  2  0  0  0  0
 45 44  2  0  0  0  0
M  END
>  <MODEL>
4

>  <REMARK>
 VINA RESULT:      -6.7      2.911      7.391
  Name = 
  12 active torsions:
  status: ('A' for Active; 'I' for Inactive)
    1  A    between atoms: C_2  and  C_6
    2  A    between atoms: S_3  and  N_9
    3  A    between atoms: S_3  and  C_38
    4  A    between atoms: C_4  and  C_12
    5  A    between atoms: C_8  and  N_9
    6  A    between atoms: C_10  and  O_18
    7  A    between atoms: C_17  and  C_26
    8  A    between atoms: C_17  and  N_36
    9  A    between atoms: O_18  and  P_19
   10  A    between atoms: O_27  and  C_41
   11  A    between atoms: C_33  and  C_37
   12  A    between atoms: C_38  and  C_45
                            x       y       z     vdW  Elec       q    Type
                         _______ _______ _______ _____ _____    ______ ____

>  <TORSDO>
F 12

$$$$
=
 OpenBabel11042414143D

 45 49  0  0  1  0  0  0  0  0999 V2000
  188.0150  174.8880  141.8040 C   0  0  0  0  0  0  0  0  0  0  0  0
  189.1220  173.2070  140.5640 C   0  0  0  0  0  0  0  0  0  0  0  0
  189.6630  172.6600  141.6900 C   0  0  0  0  0  3  0  0  0  0  0  0
  188.3240  174.3540  140.6380 C   0  0  0  0  0  3  0  0  0  0  0  0
  189.3550  173.2020  142.9080 C   0  0  0  0  0  0  0  0  0  0  0  0
  188.5540  174.3480  142.9160 C   0  0  0  0  0  3  0  0  0  0  0  0
  189.4710  172.7170  139.2060 C   0  0  0  0  0  0  0  0  0  0  0  0
  189.9100  172.0710  136.4960 N   0  0  0  0  0  0  0  0  0  0  0  0
  189.4350  173.6060  138.2900 N   0  0  0  0  0  0  0  0  0  0  0  0
  189.7680  171.3910  138.7860 C   0  0  0  0  0  3  0  0  0  0  0  0
  189.9830  171.0500  137.4160 C   0  0  0  0  0  3  0  0  0  0  0  0
  189.6420  173.3310  136.9500 C   0  0  0  0  0  0  0  0  0  0  0  0
  188.2820  175.2750  135.9570 C   0  0  0  0  0  3  0  0  0  0  0  0
  190.5980  175.2540  135.6520 C   0  0  0  0  0  3  0  0  0  0  0  0
  189.4850  174.6340  136.2220 C   0  0  0  0  0  0  0  0  0  0  0  0
  190.5340  176.4070  134.8740 N   0  0  0  0  0  0  0  0  0  0  0  0
  188.2350  176.5080  135.1240 C   0  0  0  0  0  0  0  0  0  0  0  0
  189.3830  177.0020  134.6320 N   0  0  0  0  0  0  0  0  0  0  0  0
  185.8210  176.4160  135.2870 C   0  0  0  0  0  1  0  0  0  0  0  0
  186.9890  177.1000  134.8690 O   0  0  0  0  0  0  0  0  0  0  0  0
  187.0750  175.9670  141.9030 N   0  0  0  0  0  2  0  0  0  0  0  0
  187.0930  177.6180  141.3090 S   0  0  0  0  0  0  0  0  0  0  0  0
  188.4160  178.1860  141.6400 O   0  0  0  0  0  0  0  0  0  0  0  0
  186.8290  177.7280  139.8290 O   0  0  0  0  0  0  0  0  0  0  0  0
  184.5530  177.9640  141.9110 N   0  0  0  0  0  1  0  0  0  0  0  0
  185.8450  178.5470  142.1960 C   0  0  1  0  0  3  0  0  0  0  0  0
  185.7630  177.8980  144.7020 C   0  0  1  0  0  3  0  0  0  0  0  0
  185.1960  179.8890  144.2660 C   0  0  0  0  0  2  0  0  0  0  0  0
  185.0370  179.0210  145.8780 S   0  0  0  0  0  0  0  0  0  0  0  0
  186.1340  178.8920  143.6640 C   0  0  2  0  0  3  0  0  0  0  0  0
  186.6170  176.7920  145.1570 C   0  0  0  0  0  3  0  0  0  0  0  0
  187.7880  177.0110  145.7640 C   0  0  0  0  0  2  0  0  0  0  0  0
  190.3000  173.0230  144.0090 C   0  0  0  0  0  2  0  0  0  0  0  0
  193.2060  175.9770  146.4230 C   0  0  0  0  0  2  0  0  0  0  0  0
  194.8280  176.8060  144.6450 C   0  0  2  0  0  3  0  0  0  0  0  0
  190.8540  174.5380  145.9980 O   0  0  0  0  0  0  0  0  0  0  0  0
  194.5610  176.7270  146.1270 C   0  0  0  0  0  2  0  0  0  0  0  0
  191.6890  174.6010  145.0320 C   0  0  0  0  0  0  0  0  0  0  0  0
  191.5400  173.7410  143.8990 N   0  0  0  0  0  2  0  0  0  0  0  0
  192.7890  175.4980  145.1740 N   0  0  0  0  0  0  0  0  0  0  0  0
  193.7680  175.8200  144.1170 C   0  0  0  0  0  2  0  0  0  0  0  0
  196.1430  177.0050  144.1010 O   0  0  0  0  0  0  0  0  0  0  0  0
  197.1820  174.4770  144.4660 O   0  0  0  0  0  0  0  0  0  0  0  0
  196.8170  175.5820  143.4940 P   0  0  0  0  0  0  0  0  0  0  0  0
  196.6620  175.0650  142.0470 O   0  0  0  0  0  0  0  0  0  0  0  0
  1 21  1  0  0  0  0
  1  6  1  0  0  0  0
  2  4  1  0  0  0  0
  2  3  2  0  0  0  0
  3  5  1  0  0  0  0
  4  1  2  0  0  0  0
  5  6  2  0  0  0  0
  5 33  1  0  0  0  0
  7  2  1  0  0  0  0
  8 12  2  0  0  0  0
  8 11  1  0  0  0  0
  9  7  2  0  0  0  0
 10  7  1  0  0  0  0
 11 10  2  0  0  0  0
 12  9  1  0  0  0  0
 13 15  2  0  0  0  0
 14 15  1  0  0  0  0
 15 12  1  0  0  0  0
 16 14  2  0  0  0  0
 17 13  1  0  0  0  0
 18 16  1  0  0  0  0
 18 17  2  0  0  0  0
 20 17  1  0  0  0  0
 20 19  1  0  0  0  0
 22 23  2  0  0  0  0
 22 21  1  0  0  0  0
 22 26  1  0  0  0  0
 24 22  2  0  0  0  0
 26 25  1  1  0  0  0
 27 31  1  1  0  0  0
 27 29  1  0  0  0  0
 28 29  1  0  0  0  0
 30 26  1  6  0  0  0
 30 28  1  0  0  0  0
 30 27  1  0  0  0  0
 31 32  2  0  0  0  0
 35 42  1  1  0  0  0
 35 37  1  0  0  0  0
 37 34  1  0  0  0  0
 38 40  1  0  0  0  0
 38 36  2  0  0  0  0
 39 33  1  0  0  0  0
 39 38  1  0  0  0  0
 40 34  1  0  0  0  0
 41 35  1  0  0  0  0
 41 40  1  0  0  0  0
 44 42  1  0  0  0  0
 44 43  2  0  0  0  0
 45 44  2  0  0  0  0
M  END
>  <MODEL>
5

>  <REMARK>
 VINA RESULT:      -6.7      3.842      7.310
  Name = 
  12 active torsions:
  status: ('A' for Active; 'I' for Inactive)
    1  A    between atoms: C_2  and  C_6
    2  A    between atoms: S_3  and  N_9
    3  A    between atoms: S_3  and  C_38
    4  A    between atoms: C_4  and  C_12
    5  A    between atoms: C_8  and  N_9
    6  A    between atoms: C_10  and  O_18
    7  A    between atoms: C_17  and  C_26
    8  A    between atoms: C_17  and  N_36
    9  A    between atoms: O_18  and  P_19
   10  A    between atoms: O_27  and  C_41
   11  A    between atoms: C_33  and  C_37
   12  A    between atoms: C_38  and  C_45
                            x       y       z     vdW  Elec       q    Type
                         _______ _______ _______ _____ _____    ______ ____

>  <TORSDO>
F 12

$$$$
=
 OpenBabel11042414143D

 45 49  0  0  1  0  0  0  0  0999 V2000
  189.7990  174.1010  144.3690 C   0  0  0  0  0  0  0  0  0  0  0  0
  188.5100  174.7890  142.5110 C   0  0  0  0  0  0  0  0  0  0  0  0
  188.8460  173.6750  141.8000 C   0  0  0  0  0  3  0  0  0  0  0  0
  189.0320  175.0050  143.7910 C   0  0  0  0  0  3  0  0  0  0  0  0
  189.6430  172.7280  142.3830 C   0  0  0  0  0  0  0  0  0  0  0  0
  190.1330  173.0020  143.6630 C   0  0  0  0  0  3  0  0  0  0  0  0
  187.7110  175.8910  141.9150 C   0  0  0  0  0  0  0  0  0  0  0  0
  185.9480  177.9240  141.0740 N   0  0  0  0  0  0  0  0  0  0  0  0
  186.9910  176.5400  142.7460 N   0  0  0  0  0  0  0  0  0  0  0  0
  187.5920  176.2670  140.5490 C   0  0  0  0  0  3  0  0  0  0  0  0
  186.6960  177.2900  140.1100 C   0  0  0  0  0  3  0  0  0  0  0  0
  186.1120  177.5420  142.3750 C   0  0  0  0  0  0  0  0  0  0  0  0
  185.8970  177.7590  144.9290 C   0  0  0  0  0  3  0  0  0  0  0  0
  184.2330  178.6890  143.5780 C   0  0  0  0  0  3  0  0  0  0  0  0
  185.4530  178.0150  143.6380 C   0  0  0  0  0  0  0  0  0  0  0  0
  183.5000  179.0730  144.6990 N   0  0  0  0  0  0  0  0  0  0  0  0
  185.1000  178.1800  146.1130 C   0  0  0  0  0  0  0  0  0  0  0  0
  183.9360  178.8220  145.9170 N   0  0  0  0  0  0  0  0  0  0  0  0
  186.5220  176.8210  147.5240 C   0  0  0  0  0  1  0  0  0  0  0  0
  185.5850  177.8740  147.3940 O   0  0  0  0  0  0  0  0  0  0  0  0
  190.2120  174.2390  145.7360 N   0  0  0  0  0  2  0  0  0  0  0  0
  191.2250  175.4120  146.5600 S   0  0  0  0  0  0  0  0  0  0  0  0
  190.8560  176.7460  146.0430 O   0  0  0  0  0  0  0  0  0  0  0  0
  191.0920  175.3730  148.0610 O   0  0  0  0  0  0  0  0  0  0  0  0
  193.0770  173.6750  145.8640 N   0  0  0  0  0  1  0  0  0  0  0  0
  192.9300  175.0900  146.1140 C   0  0  1  0  0  3  0  0  0  0  0  0
  193.7220  175.5760  143.6970 C   0  0  1  0  0  3  0  0  0  0  0  0
  195.0720  176.1510  145.2220 C   0  0  0  0  0  2  0  0  0  0  0  0
  195.3920  176.1270  143.4130 S   0  0  0  0  0  0  0  0  0  0  0  0
  193.5850  176.0390  145.1010 C   0  0  2  0  0  3  0  0  0  0  0  0
  192.7000  175.7280  142.6530 C   0  0  0  0  0  3  0  0  0  0  0  0
  192.7160  174.9900  141.5380 C   0  0  0  0  0  2  0  0  0  0  0  0
  190.4410  171.8610  141.5170 C   0  0  0  0  0  2  0  0  0  0  0  0
  190.8250  170.8210  136.8520 C   0  0  0  0  0  2  0  0  0  0  0  0
  192.2030  172.7490  135.9200 C   0  0  2  0  0  3  0  0  0  0  0  0
  190.3820  170.2330  139.5420 O   0  0  0  0  0  0  0  0  0  0  0  0
  191.3320  171.5710  135.5600 C   0  0  0  0  0  2  0  0  0  0  0  0
  190.8330  171.3950  139.2600 C   0  0  0  0  0  0  0  0  0  0  0  0
  190.8370  172.4220  140.2550 N   0  0  0  0  0  2  0  0  0  0  0  0
  191.2500  171.6280  137.9160 N   0  0  0  0  0  0  0  0  0  0  0  0
  191.9310  172.8450  137.4340 C   0  0  0  0  0  2  0  0  0  0  0  0
  192.4240  173.8530  135.0290 O   0  0  0  0  0  0  0  0  0  0  0  0
  192.7320  176.3260  136.2100 O   0  0  0  0  0  0  0  0  0  0  0  0
  191.7860  175.3000  135.6170 P   0  0  0  0  0  0  0  0  0  0  0  0
  190.4370  175.9220  135.1910 O   0  0  0  0  0  0  0  0  0  0  0  0
  1 21  1  0  0  0  0
  2  4  2  0  0  0  0
  3  5  2  0  0  0  0
  3  2  1  0  0  0  0
  4  1  1  0  0  0  0
  5  6  1  0  0  0  0
  6  1  2  0  0  0  0
  7  2  1  0  0  0  0
  7  9  2  0  0  0  0
  8 12  2  0  0  0  0
 10  7  1  0  0  0  0
 11 10  2  0  0  0  0
 11  8  1  0  0  0  0
 12  9  1  0  0  0  0
 12 15  1  0  0  0  0
 13 17  1  0  0  0  0
 14 15  1  0  0  0  0
 14 16  2  0  0  0  0
 15 13  2  0  0  0  0
 16 18  1  0  0  0  0
 17 20  1  0  0  0  0
 18 17  2  0  0  0  0
 20 19  1  0  0  0  0
 21 22  1  0  0  0  0
 22 24  2  0  0  0  0
 23 22  2  0  0  0  0
 26 25  1  6  0  0  0
 26 22  1  0  0  0  0
 27 31  1  6  0  0  0
 27 30  1  0  0  0  0
 29 27  1  0  0  0  0
 29 28  1  0  0  0  0
 30 28  1  0  0  0  0
 30 26  1  1  0  0  0
 32 31  2  0  0  0  0
 33  5  1  0  0  0  0
 34 40  1  0  0  0  0
 35 42  1  6  0  0  0
 35 41  1  0  0  0  0
 37 35  1  0  0  0  0
 37 34  1  0  0  0  0
 38 36  2  0  0  0  0
 38 39  1  0  0  0  0
 39 33  1  0  0  0  0
 40 38  1  0  0  0  0
 41 40  1  0  0  0  0
 42 44  1  0  0  0  0
 44 43  2  0  0  0  0
 45 44  2  0  0  0  0
M  END
>  <MODEL>
6

>  <REMARK>
 VINA RESULT:      -6.5      3.014      4.232
  Name = 
  12 active torsions:
  status: ('A' for Active; 'I' for Inactive)
    1  A    between atoms: C_2  and  C_6
    2  A    between atoms: S_3  and  N_9
    3  A    between atoms: S_3  and  C_38
    4  A    between atoms: C_4  and  C_12
    5  A    between atoms: C_8  and  N_9
    6  A    between atoms: C_10  and  O_18
    7  A    between atoms: C_17  and  C_26
    8  A    between atoms: C_17  and  N_36
    9  A    between atoms: O_18  and  P_19
   10  A    between atoms: O_27  and  C_41
   11  A    between atoms: C_33  and  C_37
   12  A    between atoms: C_38  and  C_45
                            x       y       z     vdW  Elec       q    Type
                         _______ _______ _______ _____ _____    ______ ____

>  <TORSDO>
F 12

$$$$
=
 OpenBabel11042414143D

 45 49  0  0  1  0  0  0  0  0999 V2000
  188.0480  175.0300  141.9340 C   0  0  0  0  0  0  0  0  0  0  0  0
  189.2360  173.4890  140.5920 C   0  0  0  0  0  0  0  0  0  0  0  0
  189.7720  172.8710  141.6840 C   0  0  0  0  0  3  0  0  0  0  0  0
  188.3980  174.6000  140.7370 C   0  0  0  0  0  3  0  0  0  0  0  0
  189.4200  173.3050  142.9330 C   0  0  0  0  0  0  0  0  0  0  0  0
  188.5820  174.4210  143.0120 C   0  0  0  0  0  3  0  0  0  0  0  0
  189.6290  173.1190  139.2080 C   0  0  0  0  0  0  0  0  0  0  0  0
  190.6070  172.7250  136.5920 N   0  0  0  0  0  0  0  0  0  0  0  0
  190.8020  173.4910  138.8670 N   0  0  0  0  0  0  0  0  0  0  0  0
  188.8560  172.4740  138.2030 C   0  0  0  0  0  3  0  0  0  0  0  0
  189.3370  172.2770  136.8730 C   0  0  0  0  0  3  0  0  0  0  0  0
  191.3190  173.3200  137.5950 C   0  0  0  0  0  0  0  0  0  0  0  0
  193.7080  173.5920  138.5080 C   0  0  0  0  0  3  0  0  0  0  0  0
  193.0150  174.9630  136.7470 C   0  0  0  0  0  3  0  0  0  0  0  0
  192.6960  173.9170  137.6140 C   0  0  0  0  0  0  0  0  0  0  0  0
  194.2300  175.6450  136.7650 N   0  0  0  0  0  0  0  0  0  0  0  0
  194.9990  174.3320  138.5090 C   0  0  0  0  0  0  0  0  0  0  0  0
  195.1780  175.3240  137.6210 N   0  0  0  0  0  0  0  0  0  0  0  0
  197.3340  173.9810  139.0440 C   0  0  0  0  0  1  0  0  0  0  0  0
  195.9770  173.9780  139.4500 O   0  0  0  0  0  0  0  0  0  0  0  0
  187.0710  176.0670  142.0950 N   0  0  0  0  0  2  0  0  0  0  0  0
  187.0160  177.7410  141.5710 S   0  0  0  0  0  0  0  0  0  0  0  0
  188.3250  178.3430  141.8970 O   0  0  0  0  0  0  0  0  0  0  0  0
  186.7120  177.9030  140.1040 O   0  0  0  0  0  0  0  0  0  0  0  0
  184.4970  177.9090  142.3190 N   0  0  0  0  0  1  0  0  0  0  0  0
  185.7570  178.5860  142.5250 C   0  0  1  0  0  3  0  0  0  0  0  0
  185.9680  177.9230  145.0210 C   0  0  1  0  0  3  0  0  0  0  0  0
  185.0790  179.8090  144.6600 C   0  0  0  0  0  2  0  0  0  0  0  0
  185.1770  178.9210  146.2650 S   0  0  0  0  0  0  0  0  0  0  0  0
  186.1050  178.9660  143.9720 C   0  0  2  0  0  3  0  0  0  0  0  0
  187.0100  176.9560  145.3920 C   0  0  0  0  0  3  0  0  0  0  0  0
  188.3080  177.2730  145.3590 C   0  0  0  0  0  2  0  0  0  0  0  0
  190.3480  173.0690  144.0380 C   0  0  0  0  0  2  0  0  0  0  0  0
  193.1580  176.1840  146.3620 C   0  0  0  0  0  2  0  0  0  0  0  0
  194.9340  176.7880  144.6400 C   0  0  2  0  0  3  0  0  0  0  0  0
  190.8010  174.7660  145.9020 O   0  0  0  0  0  0  0  0  0  0  0  0
  194.5540  176.8680  146.0980 C   0  0  0  0  0  2  0  0  0  0  0  0
  191.7070  174.7100  145.0020 C   0  0  0  0  0  0  0  0  0  0  0  0
  191.6150  173.7430  143.9530 N   0  0  0  0  0  2  0  0  0  0  0  0
  192.8210  175.5900  145.1380 N   0  0  0  0  0  0  0  0  0  0  0  0
  193.8850  175.7790  144.1330 C   0  0  0  0  0  2  0  0  0  0  0  0
  196.2910  176.8990  144.1820 O   0  0  0  0  0  0  0  0  0  0  0  0
  197.0410  174.8730  142.4690 O   0  0  0  0  0  0  0  0  0  0  0  0
  196.5030  176.2830  142.6260 P   0  0  0  0  0  0  0  0  0  0  0  0
  195.7720  176.7780  141.3590 O   0  0  0  0  0  0  0  0  0  0  0  0
  1 21  1  0  0  0  0
  1  6  1  0  0  0  0
  2  4  1  0  0  0  0
  2  3  2  0  0  0  0
  3  5  1  0  0  0  0
  4  1  2  0  0  0  0
  5  6  2  0  0  0  0
  5 33  1  0  0  0  0
  7  2  1  0  0  0  0
  8 11  1  0  0  0  0
  8 12  2  0  0  0  0
  9  7  2  0  0  0  0
 10  7  1  0  0  0  0
 11 10  2  0  0  0  0
 12 15  1  0  0  0  0
 12  9  1  0  0  0  0
 13 17  1  0  0  0  0
 14 16  2  0  0  0  0
 14 15  1  0  0  0  0
 15 13  2  0  0  0  0
 16 18  1  0  0  0  0
 17 20  1  0  0  0  0
 18 17  2  0  0  0  0
 19 20  1  0  0  0  0
 22 23  2  0  0  0  0
 22 21  1  0  0  0  0
 22 26  1  0  0  0  0
 24 22  2  0  0  0  0
 26 25  1  1  0  0  0
 27 31  1  1  0  0  0
 27 29  1  0  0  0  0
 28 29  1  0  0  0  0
 30 26  1  6  0  0  0
 30 28  1  0  0  0  0
 30 27  1  0  0  0  0
 32 31  2  0  0  0  0
 35 42  1  1  0  0  0
 35 37  1  0  0  0  0
 37 34  1  0  0  0  0
 38 40  1  0  0  0  0
 38 36  2  0  0  0  0
 39 33  1  0  0  0  0
 39 38  1  0  0  0  0
 40 34  1  0  0  0  0
 41 35  1  0  0  0  0
 41 40  1  0  0  0  0
 43 44  2  0  0  0  0
 44 42  1  0  0  0  0
 45 44  2  0  0  0  0
M  END
>  <MODEL>
7

>  <REMARK>
 VINA RESULT:      -6.5      3.159      7.677
  Name = 
  12 active torsions:
  status: ('A' for Active; 'I' for Inactive)
    1  A    between atoms: C_2  and  C_6
    2  A    between atoms: S_3  and  N_9
    3  A    between atoms: S_3  and  C_38
    4  A    between atoms: C_4  and  C_12
    5  A    between atoms: C_8  and  N_9
    6  A    between atoms: C_10  and  O_18
    7  A    between atoms: C_17  and  C_26
    8  A    between atoms: C_17  and  N_36
    9  A    between atoms: O_18  and  P_19
   10  A    between atoms: O_27  and  C_41
   11  A    between atoms: C_33  and  C_37
   12  A    between atoms: C_38  and  C_45
                            x       y       z     vdW  Elec       q    Type
                         _______ _______ _______ _____ _____    ______ ____

>  <TORSDO>
F 12

$$$$
=
 OpenBabel11042414143D

 45 49  0  0  1  0  0  0  0  0999 V2000
  189.9780  174.4100  143.1000 C   0  0  0  0  0  0  0  0  0  0  0  0
  188.3000  175.2920  141.6880 C   0  0  0  0  0  0  0  0  0  0  0  0
  188.5590  174.3690  140.7180 C   0  0  0  0  0  3  0  0  0  0  0  0
  189.0520  175.3200  142.8680 C   0  0  0  0  0  3  0  0  0  0  0  0
  189.5170  173.4190  140.9420 C   0  0  0  0  0  0  0  0  0  0  0  0
  190.2350  173.5010  142.1380 C   0  0  0  0  0  3  0  0  0  0  0  0
  187.3260  176.3960  141.4840 C   0  0  0  0  0  0  0  0  0  0  0  0
  185.3120  178.3680  141.4200 N   0  0  0  0  0  0  0  0  0  0  0  0
  186.7940  176.8450  142.5540 N   0  0  0  0  0  0  0  0  0  0  0  0
  186.8640  176.9610  140.2630 C   0  0  0  0  0  3  0  0  0  0  0  0
  185.8380  177.9550  140.2190 C   0  0  0  0  0  3  0  0  0  0  0  0
  185.8020  177.8100  142.5660 C   0  0  0  0  0  0  0  0  0  0  0  0
  186.1410  177.5310  145.1010 C   0  0  0  0  0  3  0  0  0  0  0  0
  184.2610  178.6910  144.3390 C   0  0  0  0  0  3  0  0  0  0  0  0
  185.4420  178.0270  144.0080 C   0  0  0  0  0  0  0  0  0  0  0  0
  183.7950  178.8470  145.6430 N   0  0  0  0  0  0  0  0  0  0  0  0
  185.6270  177.7110  146.4870 C   0  0  0  0  0  0  0  0  0  0  0  0
  184.4710  178.3700  146.6690 N   0  0  0  0  0  0  0  0  0  0  0  0
  187.4240  176.2800  147.2530 C   0  0  0  0  0  1  0  0  0  0  0  0
  186.3610  177.1690  147.5520 O   0  0  0  0  0  0  0  0  0  0  0  0
  190.6460  174.3360  144.3670 N   0  0  0  0  0  2  0  0  0  0  0  0
  191.7480  175.4220  145.1960 S   0  0  0  0  0  0  0  0  0  0  0  0
  191.1060  176.7520  145.2280 O   0  0  0  0  0  0  0  0  0  0  0  0
  192.0990  174.9730  146.5920 O   0  0  0  0  0  0  0  0  0  0  0  0
  194.0190  176.6650  144.7190 N   0  0  0  0  0  1  0  0  0  0  0  0
  193.2480  175.5460  144.2270 C   0  0  1  0  0  3  0  0  0  0  0  0
  195.4210  174.1520  144.4370 C   0  0  1  0  0  3  0  0  0  0  0  0
  194.4840  174.0830  142.5410 C   0  0  0  0  0  2  0  0  0  0  0  0
  196.1400  173.4190  142.9810 S   0  0  0  0  0  0  0  0  0  0  0  0
  194.0200  174.2470  143.9530 C   0  0  2  0  0  3  0  0  0  0  0  0
  195.8250  173.6990  145.7750 C   0  0  0  0  0  3  0  0  0  0  0  0
  197.1060  173.4860  146.0900 C   0  0  0  0  0  2  0  0  0  0  0  0
  190.1820  172.8150  139.7880 C   0  0  0  0  0  2  0  0  0  0  0  0
  192.5500  175.3720  136.4940 C   0  0  0  0  0  2  0  0  0  0  0  0
  194.9970  175.0010  137.0940 C   0  0  2  0  0  3  0  0  0  0  0  0
  190.3520  173.9970  137.5230 O   0  0  0  0  0  0  0  0  0  0  0  0
  194.0430  175.8310  136.2720 C   0  0  0  0  0  2  0  0  0  0  0  0
  191.4590  173.8940  138.1540 C   0  0  0  0  0  0  0  0  0  0  0  0
  191.4840  173.3310  139.4680 N   0  0  0  0  0  2  0  0  0  0  0  0
  192.6240  174.4250  137.5250 N   0  0  0  0  0  0  0  0  0  0  0  0
  194.0050  174.2710  138.0210 C   0  0  0  0  0  2  0  0  0  0  0  0
  196.3120  175.4530  137.4530 O   0  0  0  0  0  0  0  0  0  0  0  0
  196.1980  175.9090  140.1690 O   0  0  0  0  0  0  0  0  0  0  0  0
  196.7290  175.0510  139.0370 P   0  0  0  0  0  0  0  0  0  0  0  0
  197.1740  173.6520  139.5180 O   0  0  0  0  0  0  0  0  0  0  0  0
  1 21  1  0  0  0  0
  2  4  2  0  0  0  0
  3  5  2  0  0  0  0
  3  2  1  0  0  0  0
  4  1  1  0  0  0  0
  5  6  1  0  0  0  0
  6  1  2  0  0  0  0
  7  2  1  0  0  0  0
  7  9  2  0  0  0  0
  8 12  2  0  0  0  0
  9 12  1  0  0  0  0
 10  7  1  0  0  0  0
 11 10  2  0  0  0  0
 11  8  1  0  0  0  0
 12 15  1  0  0  0  0
 13 17  1  0  0  0  0
 14 16  2  0  0  0  0
 15 14  1  0  0  0  0
 15 13  2  0  0  0  0
 16 18  1  0  0  0  0
 17 18  2  0  0  0  0
 17 20  1  0  0  0  0
 19 20  1  0  0  0  0
 21 22  1  0  0  0  0
 22 23  2  0  0  0  0
 22 24  2  0  0  0  0
 26 25  1  1  0  0  0
 26 22  1  0  0  0  0
 27 31  1  1  0  0  0
 28 29  1  0  0  0  0
 28 30  1  0  0  0  0
 29 27  1  0  0  0  0
 30 26  1  6  0  0  0
 30 27  1  0  0  0  0
 31 32  2  0  0  0  0
 33  5  1  0  0  0  0
 34 40  1  0  0  0  0
 35 42  1  1  0  0  0
 35 41  1  0  0  0  0
 36 38  2  0  0  0  0
 37 34  1  0  0  0  0
 37 35  1  0  0  0  0
 38 39  1  0  0  0  0
 39 33  1  0  0  0  0
 40 41  1  0  0  0  0
 40 38  1  0  0  0  0
 42 44  1  0  0  0  0
 44 45  2  0  0  0  0
 44 43  2  0  0  0  0
M  END
>  <MODEL>
8

>  <REMARK>
 VINA RESULT:      -6.4      2.535      3.310
  Name = 
  12 active torsions:
  status: ('A' for Active; 'I' for Inactive)
    1  A    between atoms: C_2  and  C_6
    2  A    between atoms: S_3  and  N_9
    3  A    between atoms: S_3  and  C_38
    4  A    between atoms: C_4  and  C_12
    5  A    between atoms: C_8  and  N_9
    6  A    between atoms: C_10  and  O_18
    7  A    between atoms: C_17  and  C_26
    8  A    between atoms: C_17  and  N_36
    9  A    between atoms: O_18  and  P_19
   10  A    between atoms: O_27  and  C_41
   11  A    between atoms: C_33  and  C_37
   12  A    between atoms: C_38  and  C_45
                            x       y       z     vdW  Elec       q    Type
                         _______ _______ _______ _____ _____    ______ ____

>  <TORSDO>
F 12

$$$$
=
 OpenBabel11042414143D

 45 49  0  0  1  0  0  0  0  0999 V2000
  191.6680  174.9960  145.6240 C   0  0  0  0  0  0  0  0  0  0  0  0
  189.3300  175.2470  145.3800 C   0  0  0  0  0  0  0  0  0  0  0  0
  189.2220  174.0660  144.7050 C   0  0  0  0  0  3  0  0  0  0  0  0
  190.5780  175.7180  145.8020 C   0  0  0  0  0  3  0  0  0  0  0  0
  190.3420  173.3060  144.5100 C   0  0  0  0  0  0  0  0  0  0  0  0
  191.5600  173.8310  144.9540 C   0  0  0  0  0  3  0  0  0  0  0  0
  188.1690  176.1570  145.5620 C   0  0  0  0  0  0  0  0  0  0  0  0
  186.0650  178.0340  145.5680 N   0  0  0  0  0  0  0  0  0  0  0  0
  187.6430  176.5770  144.4780 N   0  0  0  0  0  0  0  0  0  0  0  0
  187.6200  176.6690  146.7700 C   0  0  0  0  0  3  0  0  0  0  0  0
  186.5600  177.6270  146.7850 C   0  0  0  0  0  3  0  0  0  0  0  0
  186.6110  177.4980  144.4360 C   0  0  0  0  0  0  0  0  0  0  0  0
  185.1030  178.1710  142.4640 C   0  0  0  0  0  3  0  0  0  0  0  0
  187.2670  177.4130  142.0160 C   0  0  0  0  0  3  0  0  0  0  0  0
  186.3150  177.7350  142.9840 C   0  0  0  0  0  0  0  0  0  0  0  0
  187.0430  177.5010  140.6440 N   0  0  0  0  0  0  0  0  0  0  0  0
  184.8840  178.2610  140.9950 C   0  0  0  0  0  0  0  0  0  0  0  0
  185.8860  177.9160  140.1680 N   0  0  0  0  0  0  0  0  0  0  0  0
  182.4710  178.0690  141.0560 C   0  0  0  0  0  1  0  0  0  0  0  0
  183.6320  178.6840  140.5250 O   0  0  0  0  0  0  0  0  0  0  0  0
  192.9240  175.3950  146.1890 N   0  0  0  0  0  2  0  0  0  0  0  0
  194.0950  176.6230  145.7370 S   0  0  0  0  0  0  0  0  0  0  0  0
  193.4650  177.4640  144.6990 O   0  0  0  0  0  0  0  0  0  0  0  0
  194.5560  177.4710  146.8950 O   0  0  0  0  0  0  0  0  0  0  0  0
  195.6360  174.4920  145.6050 N   0  0  0  0  0  1  0  0  0  0  0  0
  195.5130  175.8040  145.0110 C   0  0  1  0  0  3  0  0  0  0  0  0
  195.3280  174.6830  142.6830 C   0  0  1  0  0  3  0  0  0  0  0  0
  197.0830  175.8220  143.0000 C   0  0  0  0  0  2  0  0  0  0  0  0
  196.7260  174.7130  141.5800 S   0  0  0  0  0  0  0  0  0  0  0  0
  195.6700  175.8850  143.4860 C   0  0  2  0  0  3  0  0  0  0  0  0
  193.9870  174.3580  142.1780 C   0  0  0  0  0  3  0  0  0  0  0  0
  193.0630  175.3020  141.9760 C   0  0  0  0  0  2  0  0  0  0  0  0
  190.3710  172.3860  143.3740 C   0  0  0  0  0  2  0  0  0  0  0  0
  190.4540  171.7010  138.6280 C   0  0  0  0  0  2  0  0  0  0  0  0
  189.3190  173.7830  137.7030 C   0  0  2  0  0  3  0  0  0  0  0  0
  191.2970  171.2860  141.2550 O   0  0  0  0  0  0  0  0  0  0  0  0
  189.8030  172.3940  137.3710 C   0  0  0  0  0  2  0  0  0  0  0  0
  190.4820  172.2480  141.0430 C   0  0  0  0  0  0  0  0  0  0  0  0
  189.8280  172.8890  142.1420 N   0  0  0  0  0  2  0  0  0  0  0  0
  190.2100  172.5890  139.6850 N   0  0  0  0  0  0  0  0  0  0  0  0
  189.4210  173.7550  139.2410 C   0  0  0  0  0  2  0  0  0  0  0  0
  188.3110  174.4610  136.9360 O   0  0  0  0  0  0  0  0  0  0  0  0
  188.2210  176.5600  135.1510 O   0  0  0  0  0  0  0  0  0  0  0  0
  188.9530  175.3250  135.6370 P   0  0  0  0  0  0  0  0  0  0  0  0
  190.4330  175.3050  135.1940 O   0  0  0  0  0  0  0  0  0  0  0  0
  1  4  1  0  0  0  0
  1 21  1  0  0  0  0
  2  7  1  0  0  0  0
  2  4  2  0  0  0  0
  3  2  1  0  0  0  0
  5  3  2  0  0  0  0
  5  6  1  0  0  0  0
  6  1  2  0  0  0  0
  7 10  1  0  0  0  0
  8 11  1  0  0  0  0
  9  7  2  0  0  0  0
 10 11  2  0  0  0  0
 12  9  1  0  0  0  0
 12  8  2  0  0  0  0
 13 15  2  0  0  0  0
 14 15  1  0  0  0  0
 15 12  1  0  0  0  0
 16 14  2  0  0  0  0
 17 13  1  0  0  0  0
 18 16  1  0  0  0  0
 18 17  2  0  0  0  0
 20 17  1  0  0  0  0
 20 19  1  0  0  0  0
 22 21  1  0  0  0  0
 22 24  2  0  0  0  0
 23 22  2  0  0  0  0
 26 25  1  6  0  0  0
 26 22  1  0  0  0  0
 27 31  1  6  0  0  0
 27 30  1  0  0  0  0
 28 30  1  0  0  0  0
 29 27  1  0  0  0  0
 29 28  1  0  0  0  0
 30 26  1  1  0  0  0
 32 31  2  0  0  0  0
 33  5  1  0  0  0  0
 34 40  1  0  0  0  0
 35 42  1  1  0  0  0
 35 41  1  0  0  0  0
 37 35  1  0  0  0  0
 37 34  1  0  0  0  0
 38 36  2  0  0  0  0
 38 39  1  0  0  0  0
 39 33  1  0  0  0  0
 40 38  1  0  0  0  0
 41 40  1  0  0  0  0
 43 44  2  0  0  0  0
 44 42  1  0  0  0  0
 45 44  2  0  0  0  0
M  END
>  <MODEL>
9

>  <REMARK>
 VINA RESULT:      -6.4      3.416      5.758
  Name = 
  12 active torsions:
  status: ('A' for Active; 'I' for Inactive)
    1  A    between atoms: C_2  and  C_6
    2  A    between atoms: S_3  and  N_9
    3  A    between atoms: S_3  and  C_38
    4  A    between atoms: C_4  and  C_12
    5  A    between atoms: C_8  and  N_9
    6  A    between atoms: C_10  and  O_18
    7  A    between atoms: C_17  and  C_26
    8  A    between atoms: C_17  and  N_36
    9  A    between atoms: O_18  and  P_19
   10  A    between atoms: O_27  and  C_41
   11  A    between atoms: C_33  and  C_37
   12  A    between atoms: C_38  and  C_45
                            x       y       z     vdW  Elec       q    Type
                         _______ _______ _______ _____ _____    ______ ____

>  <TORSDO>
F 12

$$$$
