=
 OpenBabel11042416143D

 33 37  0  0  1  0  0  0  0  0999 V2000
  190.6150  175.6050  145.6140 C   0  0  0  0  0  2  0  0  0  0  0  0
  192.0000  174.2060  144.0890 C   0  0  2  0  0  0  0  0  0  0  0  0
  191.4870  175.0140  142.8930 C   0  0  2  0  0  3  0  0  0  0  0  0
  189.8800  176.0750  144.4340 N   0  0  2  0  0  0  0  0  0  0  0  0
  193.5260  174.1500  144.1850 C   0  0  2  0  0  3  0  0  0  0  0  0
  192.7260  172.9150  143.7640 C   0  0  0  0  0  2  0  0  0  0  0  0
  191.1570  174.1980  145.3660 C   0  0  0  0  0  2  0  0  0  0  0  0
  190.8770  176.3280  143.3900 C   0  0  0  0  0  2  0  0  0  0  0  0
  187.3100  176.8320  146.3170 C   0  0  2  0  0  3  0  0  0  0  0  0
  187.5530  177.7900  142.7710 C   0  0  0  0  0  0  0  0  0  0  0  0
  187.8550  177.3990  144.0810 C   0  0  0  0  0  0  0  0  0  0  0  0
  188.7670  177.3040  146.2540 C   0  0  0  0  0  2  0  0  0  0  0  0
  189.1860  177.3310  144.7650 C   0  0  1  0  0  3  0  0  0  0  0  0
  185.2490  177.3670  143.2550 N   0  0  0  0  0  0  0  0  0  0  0  0
  186.8390  177.0730  144.9380 C   0  0  0  0  0  0  0  0  0  0  0  0
  186.5470  177.6960  147.3040 C   0  0  0  0  0  1  0  0  0  0  0  0
  186.2120  177.7530  142.3690 C   0  0  0  0  0  3  0  0  0  0  0  0
  185.5490  177.0460  144.5170 N   0  0  0  0  0  0  0  0  0  0  0  0
  188.5890  178.2920  141.8280 C   0  0  0  0  0  1  0  0  0  0  0  0
  189.0450  174.2050  142.3990 C   0  0  0  0  0  2  0  0  0  0  0  0
  190.9570  173.7880  140.8500 C   0  0  0  0  0  3  0  0  0  0  0  0
  188.6090  173.4050  140.0760 C   0  0  1  0  0  3  0  0  0  0  0  0
  187.8160  172.5700  139.2910 O   0  0  0  0  0  1  0  0  0  0  0  0
  188.2400  173.2300  141.5420 C   0  0  0  0  0  2  0  0  0  0  0  0
  190.5170  174.2500  142.0330 C   0  0  0  0  0  0  0  0  0  0  0  0
  190.0750  173.0330  139.8930 C   0  0  0  0  0  2  0  0  0  0  0  0
  194.1290  174.0240  145.6000 C   0  0  2  0  0  3  0  0  0  0  0  0
  194.3130  175.2520  146.2470 O   0  0  0  0  0  1  0  0  0  0  0  0
  195.4300  173.2370  145.5590 C   0  0  0  0  0  2  0  0  0  0  0  0
  196.6150  174.1640  145.7610 C   0  0  0  0  0  2  0  0  0  0  0  0
  197.5790  174.0430  144.5950 C   0  0  0  0  0  2  0  0  0  0  0  0
  196.9530  174.5290  143.3770 N   0  0  0  0  0  2  0  0  0  0  0  0
  196.8360  175.9690  143.5140 C   0  0  0  0  0  1  0  0  0  0  0  0
  2  6  1  6  0  0  0
  2  5  1  0  0  0  0
  2  7  1  0  0  0  0
  3 25  1  1  0  0  0
  3  8  1  0  0  0  0
  3  2  1  0  0  0  0
  4  8  1  6  0  0  0
  4 13  1  0  0  0  0
  4  1  1  0  0  0  0
  5 27  1  1  0  0  0
  6  5  1  0  0  0  0
  7  1  1  0  0  0  0
  9 16  1  1  0  0  0
 10 11  1  0  0  0  0
 11 13  1  0  0  0  0
 11 15  2  0  0  0  0
 12  9  1  0  0  0  0
 13 12  1  1  0  0  0
 14 18  2  0  0  0  0
 15  9  1  0  0  0  0
 17 10  2  0  0  0  0
 17 14  1  0  0  0  0
 18 15  1  0  0  0  0
 19 10  1  0  0  0  0
 21 25  2  0  0  0  0
 22 23  1  6  0  0  0
 22 24  1  0  0  0  0
 24 20  1  0  0  0  0
 25 20  1  0  0  0  0
 26 22  1  0  0  0  0
 26 21  1  0  0  0  0
 27 28  1  6  0  0  0
 29 27  1  0  0  0  0
 29 30  1  0  0  0  0
 31 30  1  0  0  0  0
 32 33  1  0  0  0  0
 32 31  1  0  0  0  0
M  END
>  <MODEL>
1

>  <REMARK>
 VINA RESULT:      -7.1      0.000      0.000
  Name = 
  7 active torsions:
  status: ('A' for Active; 'I' for Inactive)
    1  A    between atoms: N_2  and  C_9
    2  A    between atoms: C_4  and  C_24
    3  A    between atoms: C_4  and  C_29
    4  A    between atoms: C_9  and  C_23
    5  A    between atoms: C_12  and  N_20
    6  A    between atoms: C_18  and  C_26
    7  A    between atoms: C_23  and  C_29
                            x       y       z     vdW  Elec       q    Type
                         _______ _______ _______ _____ _____    ______ ____

>  <TORSDO>
F 7

$$$$
=
 OpenBabel11042416143D

 33 37  0  0  1  0  0  0  0  0999 V2000
  190.4020  176.5420  144.0460 C   0  0  0  0  0  2  0  0  0  0  0  0
  188.5390  176.1950  142.4300 C   0  0  2  0  0  0  0  0  0  0  0  0
  188.6660  174.6800  142.6190 C   0  0  2  0  0  3  0  0  0  0  0  0
  190.7300  175.1190  143.8970 N   0  0  2  0  0  0  0  0  0  0  0  0
  187.1280  176.7300  142.6760 C   0  0  2  0  0  3  0  0  0  0  0  0
  187.6960  176.6550  141.2570 C   0  0  0  0  0  2  0  0  0  0  0  0
  189.7520  177.0650  142.7670 C   0  0  0  0  0  2  0  0  0  0  0  0
  189.4570  174.3910  143.8980 C   0  0  0  0  0  2  0  0  0  0  0  0
  193.4940  176.2110  145.2710 C   0  0  2  0  0  3  0  0  0  0  0  0
  193.0420  172.7300  144.1630 C   0  0  0  0  0  0  0  0  0  0  0  0
  192.8170  174.0470  144.5840 C   0  0  0  0  0  0  0  0  0  0  0  0
  192.0780  175.9350  145.7880 C   0  0  0  0  0  2  0  0  0  0  0  0
  191.5430  174.6880  145.0460 C   0  0  1  0  0  3  0  0  0  0  0  0
  195.3370  173.3100  143.8230 N   0  0  0  0  0  0  0  0  0  0  0  0
  193.8700  174.9160  144.6690 C   0  0  0  0  0  0  0  0  0  0  0  0
  194.3990  176.5410  146.4430 C   0  0  0  0  0  1  0  0  0  0  0  0
  194.3380  172.3810  143.7670 C   0  0  0  0  0  3  0  0  0  0  0  0
  195.1150  174.5470  144.2750 N   0  0  0  0  0  0  0  0  0  0  0  0
  191.9750  171.6920  144.1800 C   0  0  0  0  0  1  0  0  0  0  0  0
  190.7750  173.9780  141.2330 C   0  0  0  0  0  2  0  0  0  0  0  0
  188.4660  173.2110  140.6810 C   0  0  0  0  0  3  0  0  0  0  0  0
  190.4420  172.1160  139.6060 C   0  0  1  0  0  3  0  0  0  0  0  0
  190.8930  171.5550  138.4130 O   0  0  0  0  0  1  0  0  0  0  0  0
  191.2040  173.4040  139.8840 C   0  0  0  0  0  2  0  0  0  0  0  0
  189.2710  173.9820  141.4320 C   0  0  0  0  0  0  0  0  0  0  0  0
  188.9590  172.4430  139.4840 C   0  0  0  0  0  2  0  0  0  0  0  0
  187.0150  178.1750  143.2050 C   0  0  2  0  0  3  0  0  0  0  0  0
  187.3880  178.3170  144.5480 O   0  0  0  0  0  1  0  0  0  0  0  0
  185.6140  178.7220  142.9750 C   0  0  0  0  0  2  0  0  0  0  0  0
  185.1980  179.6120  144.1320 C   0  0  0  0  0  2  0  0  0  0  0  0
  184.0280  178.9930  144.8750 C   0  0  0  0  0  2  0  0  0  0  0  0
  184.3750  178.7850  146.2700 N   0  0  0  0  0  2  0  0  0  0  0  0
  184.6910  177.3770  146.4170 C   0  0  0  0  0  1  0  0  0  0  0  0
  2  6  1  6  0  0  0
  2  3  1  0  0  0  0
  2  5  1  0  0  0  0
  2  7  1  0  0  0  0
  3 25  1  6  0  0  0
  3  8  1  0  0  0  0
  4  8  1  1  0  0  0
  4  1  1  0  0  0  0
  4 13  1  0  0  0  0
  5 27  1  1  0  0  0
  6  5  1  0  0  0  0
  7  1  1  0  0  0  0
  9 12  1  0  0  0  0
  9 16  1  1  0  0  0
 10 19  1  0  0  0  0
 10 11  1  0  0  0  0
 11 15  2  0  0  0  0
 11 13  1  0  0  0  0
 13 12  1  1  0  0  0
 14 18  2  0  0  0  0
 15  9  1  0  0  0  0
 17 14  1  0  0  0  0
 17 10  2  0  0  0  0
 18 15  1  0  0  0  0
 20 25  1  0  0  0  0
 21 25  2  0  0  0  0
 22 23  1  6  0  0  0
 22 24  1  0  0  0  0
 24 20  1  0  0  0  0
 26 22  1  0  0  0  0
 26 21  1  0  0  0  0
 27 28  1  1  0  0  0
 29 27  1  0  0  0  0
 29 30  1  0  0  0  0
 30 31  1  0  0  0  0
 31 32  1  0  0  0  0
 32 33  1  0  0  0  0
M  END
>  <MODEL>
2

>  <REMARK>
 VINA RESULT:      -6.9      2.374      7.436
  Name = 
  7 active torsions:
  status: ('A' for Active; 'I' for Inactive)
    1  A    between atoms: N_2  and  C_9
    2  A    between atoms: C_4  and  C_24
    3  A    between atoms: C_4  and  C_29
    4  A    between atoms: C_9  and  C_23
    5  A    between atoms: C_12  and  N_20
    6  A    between atoms: C_18  and  C_26
    7  A    between atoms: C_23  and  C_29
                            x       y       z     vdW  Elec       q    Type
                         _______ _______ _______ _____ _____    ______ ____

>  <TORSDO>
F 7

$$$$
=
 OpenBabel11042416143D

 33 37  0  0  1  0  0  0  0  0999 V2000
  189.3990  176.5320  142.4980 C   0  0  0  0  0  2  0  0  0  0  0  0
  191.4150  175.5490  143.5800 C   0  0  2  0  0  0  0  0  0  0  0  0
  190.5270  174.9420  144.6700 C   0  0  2  0  0  3  0  0  0  0  0  0
  188.6640  176.2660  143.7410 N   0  0  2  0  0  0  0  0  0  0  0  0
  192.3100  174.5280  142.8760 C   0  0  2  0  0  3  0  0  0  0  0  0
  192.9060  175.5440  143.8520 C   0  0  0  0  0  2  0  0  0  0  0  0
  190.8790  176.7530  142.8030 C   0  0  0  0  0  2  0  0  0  0  0  0
  189.0710  174.9320  144.1940 C   0  0  0  0  0  2  0  0  0  0  0  0
  186.7410  177.9770  141.7180 C   0  0  2  0  0  3  0  0  0  0  0  0
  186.1280  177.7280  145.3380 C   0  0  0  0  0  0  0  0  0  0  0  0
  186.5690  177.4910  144.0300 C   0  0  0  0  0  0  0  0  0  0  0  0
  186.9980  176.4830  141.9420 C   0  0  0  0  0  2  0  0  0  0  0  0
  187.2190  176.2690  143.4580 C   0  0  1  0  0  3  0  0  0  0  0  0
  185.4230  179.9000  144.6290 N   0  0  0  0  0  0  0  0  0  0  0  0
  186.3580  178.4390  143.0670 C   0  0  0  0  0  0  0  0  0  0  0  0
  185.5890  178.1460  140.7450 C   0  0  0  0  0  1  0  0  0  0  0  0
  185.5560  178.9730  145.6220 C   0  0  0  0  0  3  0  0  0  0  0  0
  185.8020  179.6390  143.3740 N   0  0  0  0  0  0  0  0  0  0  0  0
  186.1940  176.6900  146.4040 C   0  0  0  0  0  1  0  0  0  0  0  0
  191.6230  175.0940  147.0450 C   0  0  0  0  0  2  0  0  0  0  0  0
  190.0690  176.8290  146.1490 C   0  0  0  0  0  3  0  0  0  0  0  0
  191.4220  177.2950  148.2020 C   0  0  1  0  0  3  0  0  0  0  0  0
  191.3820  177.9270  149.4430 O   0  0  0  0  0  1  0  0  0  0  0  0
  191.4920  175.7870  148.3990 C   0  0  0  0  0  2  0  0  0  0  0  0
  190.6630  175.6330  146.0000 C   0  0  0  0  0  0  0  0  0  0  0  0
  190.1560  177.6270  147.4220 C   0  0  0  0  0  2  0  0  0  0  0  0
  192.6740  174.8190  141.4050 C   0  0  2  0  0  3  0  0  0  0  0  0
  191.8920  174.1150  140.4800 O   0  0  0  0  0  1  0  0  0  0  0  0
  194.1530  174.5700  141.1590 C   0  0  0  0  0  2  0  0  0  0  0  0
  194.8090  175.8100  140.5780 C   0  0  0  0  0  2  0  0  0  0  0  0
  196.2000  175.9870  141.1580 C   0  0  0  0  0  2  0  0  0  0  0  0
  196.1610  175.8370  142.6030 N   0  0  0  0  0  2  0  0  0  0  0  0
  197.0870  176.8110  143.1490 C   0  0  0  0  0  1  0  0  0  0  0  0
  1  7  1  0  0  0  0
  2  7  1  6  0  0  0
  2  6  1  0  0  0  0
  2  3  1  0  0  0  0
  3 25  1  1  0  0  0
  4  1  1  6  0  0  0
  4  8  1  0  0  0  0
  5 27  1  6  0  0  0
  5  2  1  0  0  0  0
  5  6  1  0  0  0  0
  8  3  1  0  0  0  0
  9 16  1  6  0  0  0
  9 12  1  0  0  0  0
  9 15  1  0  0  0  0
 10 17  1  0  0  0  0
 10 19  1  0  0  0  0
 11 10  2  0  0  0  0
 13 12  1  6  0  0  0
 13  4  1  0  0  0  0
 13 11  1  0  0  0  0
 14 17  2  0  0  0  0
 15 18  2  0  0  0  0
 15 11  1  0  0  0  0
 18 14  1  0  0  0  0
 20 24  1  0  0  0  0
 21 26  1  0  0  0  0
 22 24  1  0  0  0  0
 22 23  1  1  0  0  0
 25 21  2  0  0  0  0
 25 20  1  0  0  0  0
 26 22  1  0  0  0  0
 27 28  1  6  0  0  0
 29 27  1  0  0  0  0
 30 31  1  0  0  0  0
 30 29  1  0  0  0  0
 31 32  1  0  0  0  0
 32 33  1  0  0  0  0
M  END
>  <MODEL>
3

>  <REMARK>
 VINA RESULT:      -6.7      2.395      4.979
  Name = 
  7 active torsions:
  status: ('A' for Active; 'I' for Inactive)
    1  A    between atoms: N_2  and  C_9
    2  A    between atoms: C_4  and  C_24
    3  A    between atoms: C_4  and  C_29
    4  A    between atoms: C_9  and  C_23
    5  A    between atoms: C_12  and  N_20
    6  A    between atoms: C_18  and  C_26
    7  A    between atoms: C_23  and  C_29
                            x       y       z     vdW  Elec       q    Type
                         _______ _______ _______ _____ _____    ______ ____

>  <TORSDO>
F 7

$$$$
=
 OpenBabel11042416143D

 33 37  0  0  1  0  0  0  0  0999 V2000
  191.4080  176.6510  145.1360 C   0  0  0  0  0  2  0  0  0  0  0  0
  189.0080  176.0660  144.8170 C   0  0  2  0  0  0  0  0  0  0  0  0
  189.3960  174.5950  144.6430 C   0  0  2  0  0  3  0  0  0  0  0  0
  191.7500  175.3320  144.5900 N   0  0  2  0  0  0  0  0  0  0  0  0
  187.9540  176.3010  145.9000 C   0  0  2  0  0  3  0  0  0  0  0  0
  187.5930  176.4370  144.4190 C   0  0  0  0  0  2  0  0  0  0  0  0
  190.0780  177.1280  144.5550 C   0  0  0  0  0  2  0  0  0  0  0  0
  190.8110  174.3740  145.1840 C   0  0  0  0  0  2  0  0  0  0  0  0
  194.7210  176.2860  143.6010 C   0  0  2  0  0  3  0  0  0  0  0  0
  193.6890  172.7560  143.7380 C   0  0  0  0  0  0  0  0  0  0  0  0
  193.7830  174.1380  143.9450 C   0  0  0  0  0  0  0  0  0  0  0  0
  194.0020  176.2580  144.9540 C   0  0  0  0  0  2  0  0  0  0  0  0
  193.1240  174.9850  144.9900 C   0  0  1  0  0  3  0  0  0  0  0  0
  195.1830  173.0060  141.8870 N   0  0  0  0  0  0  0  0  0  0  0  0
  194.6210  174.8810  143.1590 C   0  0  0  0  0  0  0  0  0  0  0  0
  196.1710  176.6800  143.8140 C   0  0  0  0  0  1  0  0  0  0  0  0
  194.4060  172.2030  142.6700 C   0  0  0  0  0  3  0  0  0  0  0  0
  195.3010  174.3150  142.1300 N   0  0  0  0  0  0  0  0  0  0  0  0
  192.9100  171.8640  144.6400 C   0  0  0  0  0  1  0  0  0  0  0  0
  189.0900  175.1070  142.0920 C   0  0  0  0  0  2  0  0  0  0  0  0
  189.5210  172.8150  142.9780 C   0  0  0  0  0  3  0  0  0  0  0  0
  189.7200  173.2700  140.5260 C   0  0  1  0  0  3  0  0  0  0  0  0
  189.4870  172.7190  139.2670 O   0  0  0  0  0  1  0  0  0  0  0  0
  188.7800  174.4460  140.7500 C   0  0  0  0  0  2  0  0  0  0  0  0
  189.2710  174.1120  143.2230 C   0  0  0  0  0  0  0  0  0  0  0  0
  189.4530  172.2200  141.5970 C   0  0  0  0  0  2  0  0  0  0  0  0
  188.0030  177.6570  146.6360 C   0  0  2  0  0  3  0  0  0  0  0  0
  189.1060  177.7970  147.4890 O   0  0  0  0  0  1  0  0  0  0  0  0
  186.7060  177.9050  147.3890 C   0  0  0  0  0  2  0  0  0  0  0  0
  185.8530  178.9210  146.6510 C   0  0  0  0  0  2  0  0  0  0  0  0
  184.5940  178.2610  146.1190 C   0  0  0  0  0  2  0  0  0  0  0  0
  184.1550  178.9280  144.9050 N   0  0  0  0  0  2  0  0  0  0  0  0
  185.3020  179.6510  144.3880 C   0  0  0  0  0  1  0  0  0  0  0  0
  2  6  1  6  0  0  0
  2  5  1  0  0  0  0
  3 25  1  6  0  0  0
  3  2  1  0  0  0  0
  3  8  1  0  0  0  0
  4 13  1  0  0  0  0
  4  1  1  1  0  0  0
  4  8  1  0  0  0  0
  5 27  1  1  0  0  0
  6  5  1  0  0  0  0
  7  2  1  0  0  0  0
  7  1  1  0  0  0  0
  9 16  1  1  0  0  0
  9 12  1  0  0  0  0
 10 11  1  0  0  0  0
 10 19  1  0  0  0  0
 11 13  1  0  0  0  0
 13 12  1  6  0  0  0
 14 18  2  0  0  0  0
 14 17  1  0  0  0  0
 15  9  1  0  0  0  0
 15 11  2  0  0  0  0
 17 10  2  0  0  0  0
 18 15  1  0  0  0  0
 20 25  1  0  0  0  0
 21 25  2  0  0  0  0
 22 23  1  6  0  0  0
 22 24  1  0  0  0  0
 22 26  1  0  0  0  0
 24 20  1  0  0  0  0
 26 21  1  0  0  0  0
 27 29  1  0  0  0  0
 27 28  1  1  0  0  0
 30 29  1  0  0  0  0
 31 30  1  0  0  0  0
 32 31  1  0  0  0  0
 33 32  1  0  0  0  0
M  END
>  <MODEL>
4

>  <REMARK>
 VINA RESULT:      -6.7      2.056      7.354
  Name = 
  7 active torsions:
  status: ('A' for Active; 'I' for Inactive)
    1  A    between atoms: N_2  and  C_9
    2  A    between atoms: C_4  and  C_24
    3  A    between atoms: C_4  and  C_29
    4  A    between atoms: C_9  and  C_23
    5  A    between atoms: C_12  and  N_20
    6  A    between atoms: C_18  and  C_26
    7  A    between atoms: C_23  and  C_29
                            x       y       z     vdW  Elec       q    Type
                         _______ _______ _______ _____ _____    ______ ____

>  <TORSDO>
F 7

$$$$
=
 OpenBabel11042416143D

 33 37  0  0  1  0  0  0  0  0999 V2000
  189.0830  174.8630  143.6390 C   0  0  0  0  0  2  0  0  0  0  0  0
  189.8460  175.9940  145.7230 C   0  0  2  0  0  0  0  0  0  0  0  0
  191.0820  176.5120  144.9820 C   0  0  2  0  0  3  0  0  0  0  0  0
  190.4360  175.0510  143.1020 N   0  0  2  0  0  0  0  0  0  0  0  0
  189.0320  177.0940  146.4060 C   0  0  2  0  0  3  0  0  0  0  0  0
  189.8700  176.1170  147.2330 C   0  0  0  0  0  2  0  0  0  0  0  0
  189.1360  174.7590  145.1620 C   0  0  0  0  0  2  0  0  0  0  0  0
  190.8510  176.4080  143.4720 C   0  0  0  0  0  2  0  0  0  0  0  0
  188.9420  173.0120  141.0210 C   0  0  2  0  0  3  0  0  0  0  0  0
  192.5680  173.6400  140.9610 C   0  0  0  0  0  0  0  0  0  0  0  0
  191.1880  173.7500  141.1740 C   0  0  0  0  0  0  0  0  0  0  0  0
  188.9650  174.5350  141.1970 C   0  0  0  0  0  2  0  0  0  0  0  0
  190.3930  174.9340  141.6340 C   0  0  1  0  0  3  0  0  0  0  0  0
  192.2130  171.3640  140.3180 N   0  0  0  0  0  0  0  0  0  0  0  0
  190.3760  172.6870  140.8880 C   0  0  0  0  0  0  0  0  0  0  0  0
  188.1920  172.6680  139.7480 C   0  0  0  0  0  1  0  0  0  0  0  0
  193.0690  172.4040  140.5340 C   0  0  0  0  0  3  0  0  0  0  0  0
  190.8930  171.5010  140.4770 N   0  0  0  0  0  0  0  0  0  0  0  0
  193.4950  174.7950  141.1140 C   0  0  0  0  0  1  0  0  0  0  0  0
  192.6740  174.4350  144.8540 C   0  0  0  0  0  2  0  0  0  0  0  0
  193.2660  176.5310  146.0710 C   0  0  0  0  0  3  0  0  0  0  0  0
  195.0230  174.8110  145.6060 C   0  0  1  0  0  3  0  0  0  0  0  0
  196.1560  174.2030  146.1410 O   0  0  0  0  0  1  0  0  0  0  0  0
  193.8910  173.7970  145.5200 C   0  0  0  0  0  2  0  0  0  0  0  0
  192.3530  175.8180  145.3900 C   0  0  0  0  0  0  0  0  0  0  0  0
  194.5850  175.9560  146.5120 C   0  0  0  0  0  2  0  0  0  0  0  0
  187.5140  176.8520  146.5430 C   0  0  2  0  0  3  0  0  0  0  0  0
  186.8380  176.7900  145.3170 O   0  0  0  0  0  1  0  0  0  0  0  0
  186.8840  177.8970  147.4510 C   0  0  0  0  0  2  0  0  0  0  0  0
  185.9360  178.7820  146.6620 C   0  0  0  0  0  2  0  0  0  0  0  0
  184.5020  178.3360  146.8790 C   0  0  0  0  0  2  0  0  0  0  0  0
  183.6910  178.6860  145.7250 N   0  0  0  0  0  2  0  0  0  0  0  0
  184.5810  179.3060  144.7610 C   0  0  0  0  0  1  0  0  0  0  0  0
  1  7  1  0  0  0  0
  2  7  1  6  0  0  0
  2  5  1  0  0  0  0
  2  6  1  0  0  0  0
  3 25  1  1  0  0  0
  3  2  1  0  0  0  0
  4  8  1  6  0  0  0
  4  1  1  0  0  0  0
  5 27  1  1  0  0  0
  5  6  1  0  0  0  0
  8  3  1  0  0  0  0
  9 16  1  6  0  0  0
  9 12  1  0  0  0  0
 10 19  1  0  0  0  0
 10 11  1  0  0  0  0
 11 13  1  0  0  0  0
 13 12  1  1  0  0  0
 13  4  1  0  0  0  0
 14 18  2  0  0  0  0
 14 17  1  0  0  0  0
 15  9  1  0  0  0  0
 15 11  2  0  0  0  0
 17 10  2  0  0  0  0
 18 15  1  0  0  0  0
 20 25  1  0  0  0  0
 20 24  1  0  0  0  0
 21 26  1  0  0  0  0
 22 23  1  1  0  0  0
 22 26  1  0  0  0  0
 24 22  1  0  0  0  0
 25 21  2  0  0  0  0
 27 28  1  6  0  0  0
 27 29  1  0  0  0  0
 30 31  1  0  0  0  0
 30 29  1  0  0  0  0
 32 31  1  0  0  0  0
 33 32  1  0  0  0  0
M  END
>  <MODEL>
5

>  <REMARK>
 VINA RESULT:      -6.4      2.565      7.747
  Name = 
  7 active torsions:
  status: ('A' for Active; 'I' for Inactive)
    1  A    between atoms: N_2  and  C_9
    2  A    between atoms: C_4  and  C_24
    3  A    between atoms: C_4  and  C_29
    4  A    between atoms: C_9  and  C_23
    5  A    between atoms: C_12  and  N_20
    6  A    between atoms: C_18  and  C_26
    7  A    between atoms: C_23  and  C_29
                            x       y       z     vdW  Elec       q    Type
                         _______ _______ _______ _____ _____    ______ ____

>  <TORSDO>
F 7

$$$$
=
 OpenBabel11042416143D

 33 37  0  0  1  0  0  0  0  0999 V2000
  188.3600  174.8350  141.6150 C   0  0  0  0  0  2  0  0  0  0  0  0
  187.6130  176.6120  143.1930 C   0  0  2  0  0  0  0  0  0  0  0  0
  189.0750  176.9090  143.5390 C   0  0  2  0  0  3  0  0  0  0  0  0
  189.6800  174.8920  142.2550 N   0  0  2  0  0  0  0  0  0  0  0  0
  186.8270  177.8410  142.7330 C   0  0  2  0  0  3  0  0  0  0  0  0
  186.5700  177.2210  144.1080 C   0  0  0  0  0  2  0  0  0  0  0  0
  187.2770  175.2350  142.6150 C   0  0  0  0  0  2  0  0  0  0  0  0
  189.9850  176.3110  142.4630 C   0  0  0  0  0  2  0  0  0  0  0  0
  190.0440  171.9490  140.8670 C   0  0  2  0  0  3  0  0  0  0  0  0
  192.6720  173.5600  142.8790 C   0  0  0  0  0  0  0  0  0  0  0  0
  191.5450  173.3220  142.0820 C   0  0  0  0  0  0  0  0  0  0  0  0
  189.9670  173.3830  140.3310 C   0  0  0  0  0  2  0  0  0  0  0  0
  190.6810  174.3020  141.3500 C   0  0  1  0  0  3  0  0  0  0  0  0
  192.8270  171.2000  143.2340 N   0  0  0  0  0  0  0  0  0  0  0  0
  191.1490  172.0340  141.8430 C   0  0  0  0  0  0  0  0  0  0  0  0
  190.4020  171.0090  139.7310 C   0  0  0  0  0  1  0  0  0  0  0  0
  193.3030  172.4570  143.4670 C   0  0  0  0  0  3  0  0  0  0  0  0
  191.7810  170.9870  142.4300 N   0  0  0  0  0  0  0  0  0  0  0  0
  193.2450  174.9210  143.0680 C   0  0  0  0  0  1  0  0  0  0  0  0
  189.4530  174.9560  145.2440 C   0  0  0  0  0  2  0  0  0  0  0  0
  190.0080  177.3350  145.7540 C   0  0  0  0  0  3  0  0  0  0  0  0
  190.8410  175.5050  147.2430 C   0  0  1  0  0  3  0  0  0  0  0  0
  191.0960  175.1790  148.5740 O   0  0  0  0  0  1  0  0  0  0  0  0
  189.6810  174.6660  146.7260 C   0  0  0  0  0  2  0  0  0  0  0  0
  189.4660  176.4370  144.9130 C   0  0  0  0  0  0  0  0  0  0  0  0
  190.4620  176.9770  147.1440 C   0  0  0  0  0  2  0  0  0  0  0  0
  185.6740  177.5970  141.7370 C   0  0  2  0  0  3  0  0  0  0  0  0
  186.0960  177.4580  140.4080 O   0  0  0  0  0  1  0  0  0  0  0  0
  184.6220  178.6890  141.8560 C   0  0  0  0  0  2  0  0  0  0  0  0
  183.2360  178.0780  141.9600 C   0  0  0  0  0  2  0  0  0  0  0  0
  182.5250  178.1640  140.6220 C   0  0  0  0  0  2  0  0  0  0  0  0
  181.3650  179.0330  140.7280 N   0  0  0  0  0  2  0  0  0  0  0  0
  180.1990  178.2060  140.4790 C   0  0  0  0  0  1  0  0  0  0  0  0
  1  7  1  0  0  0  0
  2  7  1  6  0  0  0
  2  3  1  0  0  0  0
  2  6  1  0  0  0  0
  3 25  1  1  0  0  0
  4  1  1  6  0  0  0
  4  8  1  0  0  0  0
  5 27  1  6  0  0  0
  5  2  1  0  0  0  0
  5  6  1  0  0  0  0
  8  3  1  0  0  0  0
  9 16  1  6  0  0  0
  9 15  1  0  0  0  0
 10 19  1  0  0  0  0
 10 17  1  0  0  0  0
 11 10  2  0  0  0  0
 12  9  1  0  0  0  0
 13 12  1  6  0  0  0
 13 11  1  0  0  0  0
 13  4  1  0  0  0  0
 14 17  2  0  0  0  0
 15 11  1  0  0  0  0
 15 18  2  0  0  0  0
 18 14  1  0  0  0  0
 20 24  1  0  0  0  0
 21 26  1  0  0  0  0
 22 23  1  1  0  0  0
 24 22  1  0  0  0  0
 25 20  1  0  0  0  0
 25 21  2  0  0  0  0
 26 22  1  0  0  0  0
 27 28  1  6  0  0  0
 27 29  1  0  0  0  0
 29 30  1  0  0  0  0
 31 32  1  0  0  0  0
 31 30  1  0  0  0  0
 33 32  1  0  0  0  0
M  END
>  <MODEL>
6

>  <REMARK>
 VINA RESULT:      -6.4      2.754      8.876
  Name = 
  7 active torsions:
  status: ('A' for Active; 'I' for Inactive)
    1  A    between atoms: N_2  and  C_9
    2  A    between atoms: C_4  and  C_24
    3  A    between atoms: C_4  and  C_29
    4  A    between atoms: C_9  and  C_23
    5  A    between atoms: C_12  and  N_20
    6  A    between atoms: C_18  and  C_26
    7  A    between atoms: C_23  and  C_29
                            x       y       z     vdW  Elec       q    Type
                         _______ _______ _______ _____ _____    ______ ____

>  <TORSDO>
F 7

$$$$
=
 OpenBabel11042416143D

 33 37  0  0  1  0  0  0  0  0999 V2000
  190.2950  176.6890  144.0650 C   0  0  0  0  0  2  0  0  0  0  0  0
  188.4500  176.2960  142.4380 C   0  0  2  0  0  0  0  0  0  0  0  0
  188.5910  174.7860  142.6530 C   0  0  2  0  0  3  0  0  0  0  0  0
  190.6390  175.2670  143.9410 N   0  0  2  0  0  0  0  0  0  0  0  0
  187.0300  176.8190  142.6640 C   0  0  2  0  0  3  0  0  0  0  0  0
  187.6120  176.7280  141.2510 C   0  0  0  0  0  2  0  0  0  0  0  0
  189.6500  177.1850  142.7720 C   0  0  0  0  0  2  0  0  0  0  0  0
  189.3740  174.5260  143.9430 C   0  0  0  0  0  2  0  0  0  0  0  0
  193.3580  176.4340  145.3440 C   0  0  2  0  0  3  0  0  0  0  0  0
  193.0030  172.9360  144.2540 C   0  0  0  0  0  0  0  0  0  0  0  0
  192.7410  174.2490  144.6630 C   0  0  0  0  0  0  0  0  0  0  0  0
  191.9420  176.1280  145.8440 C   0  0  0  0  0  2  0  0  0  0  0  0
  191.4470  174.8630  145.1040 C   0  0  1  0  0  3  0  0  0  0  0  0
  195.2880  173.5680  143.9400 N   0  0  0  0  0  0  0  0  0  0  0  0
  193.7720  175.1440  144.7560 C   0  0  0  0  0  0  0  0  0  0  0  0
  194.2390  176.7930  146.5250 C   0  0  0  0  0  1  0  0  0  0  0  0
  194.3130  172.6160  143.8770 C   0  0  0  0  0  3  0  0  0  0  0  0
  195.0310  174.8030  144.3810 N   0  0  0  0  0  0  0  0  0  0  0  0
  191.9610  171.8730  144.2640 C   0  0  0  0  0  1  0  0  0  0  0  0
  190.7220  174.0410  141.3240 C   0  0  0  0  0  2  0  0  0  0  0  0
  188.4130  173.3210  140.7090 C   0  0  0  0  0  3  0  0  0  0  0  0
  190.3960  172.1860  139.6870 C   0  0  1  0  0  3  0  0  0  0  0  0
  190.8680  171.6160  138.5070 O   0  0  0  0  0  1  0  0  0  0  0  0
  191.1760  173.4590  139.9870 C   0  0  0  0  0  2  0  0  0  0  0  0
  189.2130  174.0760  141.4810 C   0  0  0  0  0  0  0  0  0  0  0  0
  188.9240  172.5430  139.5250 C   0  0  0  0  0  2  0  0  0  0  0  0
  186.8970  178.2720  143.1680 C   0  0  2  0  0  3  0  0  0  0  0  0
  186.8110  178.3800  144.5630 O   0  0  0  0  0  1  0  0  0  0  0  0
  185.7190  178.9650  142.5020 C   0  0  0  0  0  2  0  0  0  0  0  0
  184.5790  177.9850  142.2910 C   0  0  0  0  0  2  0  0  0  0  0  0
  184.2130  177.9160  140.8190 C   0  0  0  0  0  2  0  0  0  0  0  0
  183.0430  178.7350  140.5570 N   0  0  0  0  0  2  0  0  0  0  0  0
  182.0080  178.2910  141.4730 C   0  0  0  0  0  1  0  0  0  0  0  0
  2  6  1  6  0  0  0
  2  3  1  0  0  0  0
  2  5  1  0  0  0  0
  2  7  1  0  0  0  0
  3 25  1  6  0  0  0
  3  8  1  0  0  0  0
  4  8  1  1  0  0  0
  4  1  1  0  0  0  0
  4 13  1  0  0  0  0
  5 27  1  1  0  0  0
  6  5  1  0  0  0  0
  7  1  1  0  0  0  0
  9 12  1  0  0  0  0
  9 16  1  1  0  0  0
 10 19  1  0  0  0  0
 10 11  1  0  0  0  0
 11 15  2  0  0  0  0
 11 13  1  0  0  0  0
 13 12  1  1  0  0  0
 14 18  2  0  0  0  0
 15  9  1  0  0  0  0
 17 14  1  0  0  0  0
 17 10  2  0  0  0  0
 18 15  1  0  0  0  0
 20 25  1  0  0  0  0
 21 25  2  0  0  0  0
 22 23  1  6  0  0  0
 22 24  1  0  0  0  0
 24 20  1  0  0  0  0
 26 22  1  0  0  0  0
 26 21  1  0  0  0  0
 27 28  1  1  0  0  0
 29 27  1  0  0  0  0
 30 29  1  0  0  0  0
 31 30  1  0  0  0  0
 32 31  1  0  0  0  0
 32 33  1  0  0  0  0
M  END
>  <MODEL>
7

>  <REMARK>
 VINA RESULT:      -6.2      2.640      7.653
  Name = 
  7 active torsions:
  status: ('A' for Active; 'I' for Inactive)
    1  A    between atoms: N_2  and  C_9
    2  A    between atoms: C_4  and  C_24
    3  A    between atoms: C_4  and  C_29
    4  A    between atoms: C_9  and  C_23
    5  A    between atoms: C_12  and  N_20
    6  A    between atoms: C_18  and  C_26
    7  A    between atoms: C_23  and  C_29
                            x       y       z     vdW  Elec       q    Type
                         _______ _______ _______ _____ _____    ______ ____

>  <TORSDO>
F 7

$$$$
=
 OpenBabel11042416143D

 33 37  0  0  1  0  0  0  0  0999 V2000
  189.1990  176.2800  142.5120 C   0  0  0  0  0  2  0  0  0  0  0  0
  191.2640  175.4020  143.5920 C   0  0  2  0  0  0  0  0  0  0  0  0
  190.4600  175.0830  144.8550 C   0  0  2  0  0  3  0  0  0  0  0  0
  188.5780  176.3140  143.8420 N   0  0  2  0  0  0  0  0  0  0  0  0
  192.0370  174.2060  143.0350 C   0  0  2  0  0  3  0  0  0  0  0  0
  192.7730  175.3540  143.7280 C   0  0  0  0  0  2  0  0  0  0  0  0
  190.7100  176.4610  142.6350 C   0  0  0  0  0  2  0  0  0  0  0  0
  188.9660  175.0730  144.5190 C   0  0  0  0  0  2  0  0  0  0  0  0
  186.5230  178.0960  142.0190 C   0  0  2  0  0  3  0  0  0  0  0  0
  186.2330  177.8150  145.6770 C   0  0  0  0  0  0  0  0  0  0  0  0
  186.5480  177.5840  144.3320 C   0  0  0  0  0  0  0  0  0  0  0  0
  186.7620  176.5930  142.2030 C   0  0  0  0  0  2  0  0  0  0  0  0
  187.1140  176.3540  143.6900 C   0  0  1  0  0  3  0  0  0  0  0  0
  185.5200  180.0120  145.0570 N   0  0  0  0  0  0  0  0  0  0  0  0
  186.2750  178.5490  143.4020 C   0  0  0  0  0  0  0  0  0  0  0  0
  185.2930  178.3040  141.1560 C   0  0  0  0  0  1  0  0  0  0  0  0
  185.7200  179.0700  146.0240 C   0  0  0  0  0  3  0  0  0  0  0  0
  185.7780  179.7580  143.7710 N   0  0  0  0  0  0  0  0  0  0  0  0
  186.3700  176.7620  146.7210 C   0  0  0  0  0  1  0  0  0  0  0  0
  189.6450  176.8310  146.6270 C   0  0  0  0  0  2  0  0  0  0  0  0
  191.9760  175.9440  146.5630 C   0  0  0  0  0  3  0  0  0  0  0  0
  191.1760  177.2250  148.5580 C   0  0  1  0  0  3  0  0  0  0  0  0
  191.5750  178.1480  149.5230 O   0  0  0  0  0  1  0  0  0  0  0  0
  190.1490  177.8640  147.6340 C   0  0  0  0  0  2  0  0  0  0  0  0
  190.7580  176.0130  146.0000 C   0  0  0  0  0  0  0  0  0  0  0  0
  192.3840  176.8040  147.7290 C   0  0  0  0  0  2  0  0  0  0  0  0
  192.2680  174.1750  141.5100 C   0  0  2  0  0  3  0  0  0  0  0  0
  191.1200  173.8590  140.7710 O   0  0  0  0  0  1  0  0  0  0  0  0
  193.4090  173.2340  141.1590 C   0  0  0  0  0  2  0  0  0  0  0  0
  192.8840  171.8280  140.9280 C   0  0  0  0  0  2  0  0  0  0  0  0
  193.0650  170.9890  142.1790 C   0  0  0  0  0  2  0  0  0  0  0  0
  192.0720  169.9290  142.2180 N   0  0  0  0  0  2  0  0  0  0  0  0
  190.7880  170.5500  141.9530 C   0  0  0  0  0  1  0  0  0  0  0  0
  1  7  1  0  0  0  0
  2  7  1  6  0  0  0
  2  6  1  0  0  0  0
  2  3  1  0  0  0  0
  3 25  1  1  0  0  0
  4  1  1  6  0  0  0
  4  8  1  0  0  0  0
  5 27  1  6  0  0  0
  5  2  1  0  0  0  0
  5  6  1  0  0  0  0
  8  3  1  0  0  0  0
  9 16  1  6  0  0  0
  9 12  1  0  0  0  0
  9 15  1  0  0  0  0
 10 17  1  0  0  0  0
 10 19  1  0  0  0  0
 11 10  2  0  0  0  0
 13 12  1  6  0  0  0
 13  4  1  0  0  0  0
 13 11  1  0  0  0  0
 14 17  2  0  0  0  0
 15 18  2  0  0  0  0
 15 11  1  0  0  0  0
 18 14  1  0  0  0  0
 20 24  1  0  0  0  0
 21 26  1  0  0  0  0
 22 23  1  1  0  0  0
 24 22  1  0  0  0  0
 25 21  2  0  0  0  0
 25 20  1  0  0  0  0
 26 22  1  0  0  0  0
 27 28  1  6  0  0  0
 29 27  1  0  0  0  0
 30 29  1  0  0  0  0
 30 31  1  0  0  0  0
 31 32  1  0  0  0  0
 33 32  1  0  0  0  0
M  END
>  <MODEL>
8

>  <REMARK>
 VINA RESULT:      -6.1      2.800      5.413
  Name = 
  7 active torsions:
  status: ('A' for Active; 'I' for Inactive)
    1  A    between atoms: N_2  and  C_9
    2  A    between atoms: C_4  and  C_24
    3  A    between atoms: C_4  and  C_29
    4  A    between atoms: C_9  and  C_23
    5  A    between atoms: C_12  and  N_20
    6  A    between atoms: C_18  and  C_26
    7  A    between atoms: C_23  and  C_29
                            x       y       z     vdW  Elec       q    Type
                         _______ _______ _______ _____ _____    ______ ____

>  <TORSDO>
F 7

$$$$
=
 OpenBabel11042416143D

 33 37  0  0  1  0  0  0  0  0999 V2000
  192.2960  176.1610  143.9090 C   0  0  0  0  0  2  0  0  0  0  0  0
  189.9780  175.2640  143.7450 C   0  0  2  0  0  0  0  0  0  0  0  0
  190.5040  173.8630  144.0740 C   0  0  2  0  0  3  0  0  0  0  0  0
  192.7820  174.7780  143.8350 N   0  0  2  0  0  0  0  0  0  0  0  0
  188.8500  175.7300  144.6660 C   0  0  2  0  0  3  0  0  0  0  0  0
  188.5600  175.3390  143.2150 C   0  0  0  0  0  2  0  0  0  0  0  0
  190.9630  176.2860  143.1720 C   0  0  0  0  0  2  0  0  0  0  0  0
  191.9010  173.9760  144.6900 C   0  0  0  0  0  2  0  0  0  0  0  0
  195.6340  176.0850  142.8960 C   0  0  2  0  0  3  0  0  0  0  0  0
  195.1690  172.4790  143.4630 C   0  0  0  0  0  0  0  0  0  0  0  0
  195.0250  173.8710  143.4810 C   0  0  0  0  0  0  0  0  0  0  0  0
  194.8220  176.1090  144.1960 C   0  0  0  0  0  2  0  0  0  0  0  0
  194.1580  174.7220  144.3590 C   0  0  1  0  0  3  0  0  0  0  0  0
  196.7470  172.7380  141.6850 N   0  0  0  0  0  0  0  0  0  0  0  0
  195.7940  174.6390  142.6490 C   0  0  0  0  0  0  0  0  0  0  0  0
  196.9800  176.7420  143.1360 C   0  0  0  0  0  1  0  0  0  0  0  0
  196.0480  171.9220  142.5260 C   0  0  0  0  0  3  0  0  0  0  0  0
  196.6360  174.0680  141.7500 N   0  0  0  0  0  0  0  0  0  0  0  0
  194.4720  171.5910  144.4340 C   0  0  0  0  0  1  0  0  0  0  0  0
  190.4880  173.4960  141.4800 C   0  0  0  0  0  2  0  0  0  0  0  0
  190.7060  171.6270  143.1180 C   0  0  0  0  0  3  0  0  0  0  0  0
  191.1800  171.2320  140.6930 C   0  0  1  0  0  3  0  0  0  0  0  0
  191.0480  170.2950  139.6700 O   0  0  0  0  0  1  0  0  0  0  0  0
  190.2840  172.4290  140.4070 C   0  0  0  0  0  2  0  0  0  0  0  0
  190.5000  172.9350  142.8890 C   0  0  0  0  0  0  0  0  0  0  0  0
  190.7500  170.6050  142.0140 C   0  0  0  0  0  2  0  0  0  0  0  0
  188.7380  177.2480  144.9160 C   0  0  2  0  0  3  0  0  0  0  0  0
  189.7080  177.7490  145.7940 O   0  0  0  0  0  1  0  0  0  0  0  0
  187.3410  177.6120  145.3940 C   0  0  0  0  0  2  0  0  0  0  0  0
  186.5800  178.3390  144.2990 C   0  0  0  0  0  2  0  0  0  0  0  0
  185.6510  179.3740  144.9060 C   0  0  0  0  0  2  0  0  0  0  0  0
  185.3680  179.0390  146.2920 N   0  0  0  0  0  2  0  0  0  0  0  0
  184.0670  178.3980  146.3100 C   0  0  0  0  0  1  0  0  0  0  0  0
  2  7  1  6  0  0  0
  2  3  1  0  0  0  0
  2  5  1  0  0  0  0
  3 25  1  6  0  0  0
  3  8  1  0  0  0  0
  4  1  1  1  0  0  0
  4 13  1  0  0  0  0
  4  8  1  0  0  0  0
  5 27  1  6  0  0  0
  6  2  1  0  0  0  0
  6  5  1  0  0  0  0
  7  1  1  0  0  0  0
  9 16  1  1  0  0  0
  9 12  1  0  0  0  0
 10 11  1  0  0  0  0
 10 19  1  0  0  0  0
 11 13  1  0  0  0  0
 13 12  1  6  0  0  0
 14 18  2  0  0  0  0
 14 17  1  0  0  0  0
 15  9  1  0  0  0  0
 15 11  2  0  0  0  0
 17 10  2  0  0  0  0
 18 15  1  0  0  0  0
 20 25  1  0  0  0  0
 22 23  1  6  0  0  0
 22 26  1  0  0  0  0
 24 22  1  0  0  0  0
 24 20  1  0  0  0  0
 25 21  2  0  0  0  0
 26 21  1  0  0  0  0
 27 29  1  0  0  0  0
 27 28  1  1  0  0  0
 30 31  1  0  0  0  0
 30 29  1  0  0  0  0
 31 32  1  0  0  0  0
 32 33  1  0  0  0  0
M  END
>  <MODEL>
9

>  <REMARK>
 VINA RESULT:      -6.0      2.207      7.730
  Name = 
  7 active torsions:
  status: ('A' for Active; 'I' for Inactive)
    1  A    between atoms: N_2  and  C_9
    2  A    between atoms: C_4  and  C_24
    3  A    between atoms: C_4  and  C_29
    4  A    between atoms: C_9  and  C_23
    5  A    between atoms: C_12  and  N_20
    6  A    between atoms: C_18  and  C_26
    7  A    between atoms: C_23  and  C_29
                            x       y       z     vdW  Elec       q    Type
                         _______ _______ _______ _____ _____    ______ ____

>  <TORSDO>
F 7

$$$$
