=
 OpenBabel11042418593D

 41 44  0  0  1  0  0  0  0  0999 V2000
  188.6690  176.3710  143.3630 N   0  0  0  0  0  0  0  0  0  0  0  0
  187.9480  174.4390  142.2730 O   0  0  0  0  0  1  0  0  0  0  0  0
  188.8040  174.9250  143.2640 C   0  0  1  0  0  3  0  0  0  0  0  0
  190.7120  173.5480  142.6410 N   0  0  0  0  0  0  0  0  0  0  0  0
  190.2100  174.7320  142.8430 C   0  0  0  0  0  0  0  0  0  0  0  0
  189.8910  177.0900  143.0120 C   0  0  0  0  0  2  0  0  0  0  0  0
  190.9490  176.0300  142.7200 C   0  0  1  0  0  3  0  0  0  0  0  0
  193.4310  176.3120  143.2960 C   0  0  0  0  0  0  0  0  0  0  0  0
  195.1050  176.4340  146.5530 F   0  0  0  0  0  0  0  0  0  0  0  0
  193.7630  176.3670  141.9810 F   0  0  0  0  0  0  0  0  0  0  0  0
  195.7320  176.5900  143.8710 F   0  0  0  0  0  0  0  0  0  0  0  0
  194.1280  176.3390  145.6190 C   0  0  0  0  0  0  0  0  0  0  0  0
  194.4430  176.4150  144.2580 C   0  0  0  0  0  0  0  0  0  0  0  0
  192.0880  176.1540  143.6990 C   0  0  0  0  0  0  0  0  0  0  0  0
  192.8020  176.1620  146.0190 C   0  0  0  0  0  3  0  0  0  0  0  0
  191.7890  176.0660  145.0630 C   0  0  0  0  0  3  0  0  0  0  0  0
  187.4970  177.0300  143.8720 C   0  0  0  0  0  0  0  0  0  0  0  0
  186.3410  178.1770  145.6770 C   0  0  0  0  0  3  0  0  0  0  0  0
  186.3500  177.1660  143.0740 C   0  0  0  0  0  3  0  0  0  0  0  0
  185.2080  178.3080  144.8720 C   0  0  0  0  0  3  0  0  0  0  0  0
  185.2060  177.8040  143.5620 C   0  0  0  0  0  0  0  0  0  0  0  0
  187.4810  177.5420  145.1790 C   0  0  0  0  0  3  0  0  0  0  0  0
  185.1330  178.4690  140.6960 O   0  0  0  0  0  0  0  0  0  0  0  0
  184.0590  177.9140  142.7090 N   0  0  0  0  0  2  0  0  0  0  0  0
  184.0560  178.2560  141.3140 C   0  0  0  0  0  0  0  0  0  0  0  0
  182.8220  178.3730  140.6130 N   0  0  0  0  0  2  0  0  0  0  0  0
  181.5980  178.1790  141.2640 N   0  0  0  0  0  2  0  0  0  0  0  0
  179.4450  178.0390  141.0070 C   0  0  0  0  0  1  0  0  0  0  0  0
  180.6360  178.2570  140.3170 O   0  0  0  0  0  0  0  0  0  0  0  0
  192.0290  173.2520  142.1540 C   0  0  0  0  0  0  0  0  0  0  0  0
  192.2510  173.1720  140.9150 O   0  0  0  0  0  0  0  0  0  0  0  0
  192.8400  172.7290  144.4520 C   0  0  0  0  0  3  0  0  0  0  0  0
  195.5040  172.8160  143.5860 C   0  0  0  0  0  0  0  0  0  0  0  0
  195.2180  172.5360  144.9470 C   0  0  0  0  0  0  0  0  0  0  0  0
  193.8770  172.5030  145.3580 C   0  0  0  0  0  3  0  0  0  0  0  0
  194.4570  173.0390  142.6870 C   0  0  0  0  0  3  0  0  0  0  0  0
  196.8920  172.9000  143.0490 C   0  0  0  0  0  1  0  0  0  0  0  0
  193.1220  172.9960  143.1090 C   0  0  0  0  0  0  0  0  0  0  0  0
  196.5680  170.9990  146.2750 O   0  0  0  0  0  0  0  0  0  0  0  0
  196.2450  172.2920  145.9300 N   0  0  0  0  0  0  0  0  0  0  0  0
  196.9030  173.2250  146.4360 O   0  0  0  0  0  0  0  0  0  0  0  0
  1 17  1  0  0  0  0
  3  2  1  6  0  0  0
  3  1  1  0  0  0  0
  4  5  2  0  0  0  0
  5  3  1  0  0  0  0
  6  1  1  0  0  0  0
  7  5  1  0  0  0  0
  7  6  1  0  0  0  0
  7 14  1  1  0  0  0
  8 14  2  0  0  0  0
  8 13  1  0  0  0  0
 10  8  1  0  0  0  0
 11 13  1  0  0  0  0
 12 15  1  0  0  0  0
 12  9  1  0  0  0  0
 13 12  2  0  0  0  0
 14 16  1  0  0  0  0
 16 15  2  0  0  0  0
 17 22  1  0  0  0  0
 19 21  1  0  0  0  0
 19 17  2  0  0  0  0
 20 18  1  0  0  0  0
 21 20  2  0  0  0  0
 22 18  2  0  0  0  0
 23 25  2  0  0  0  0
 24 21  1  0  0  0  0
 25 24  1  0  0  0  0
 26 27  1  0  0  0  0
 26 25  1  0  0  0  0
 29 28  1  0  0  0  0
 29 27  1  0  0  0  0
 30  4  1  0  0  0  0
 30 38  1  0  0  0  0
 31 30  2  0  0  0  0
 32 35  1  0  0  0  0
 33 34  1  0  0  0  0
 34 35  2  0  0  0  0
 34 40  1  0  0  0  0
 36 38  1  0  0  0  0
 36 33  2  0  0  0  0
 37 33  1  0  0  0  0
 38 32  2  0  0  0  0
 40 39  2  0  0  0  0
 40 41  2  0  0  0  0
M  END
>  <MODEL>
1

>  <REMARK>
 VINA RESULT:      -8.0      0.000      0.000
  Name = 
  8 active torsions:
  status: ('A' for Active; 'I' for Inactive)
    1  A    between atoms: N_4  and  C_19
    2  A    between atoms: N_5  and  C_15
    3  A    between atoms: N_12  and  C_35
    4  A    between atoms: C_17  and  C_40
    5  A    between atoms: O_18  and  N_21
    6  A    between atoms: N_21  and  N_41
    7  A    between atoms: N_25  and  C_32
    8  A    between atoms: C_35  and  C_38
                            x       y       z     vdW  Elec       q    Type
                         _______ _______ _______ _____ _____    ______ ____

>  <TORSDO>
F 8

$$$$
=
 OpenBabel11042418593D

 41 44  0  0  1  0  0  0  0  0999 V2000
  188.1010  176.7420  145.7740 N   0  0  0  0  0  0  0  0  0  0  0  0
  189.4270  177.9500  147.2650 O   0  0  0  0  0  1  0  0  0  0  0  0
  189.3810  177.4020  145.9810 C   0  0  1  0  0  3  0  0  0  0  0  0
  191.6430  176.5050  146.0120 N   0  0  0  0  0  0  0  0  0  0  0  0
  190.3640  176.3010  145.8750 C   0  0  0  0  0  0  0  0  0  0  0  0
  188.2210  175.3010  145.5680 C   0  0  0  0  0  2  0  0  0  0  0  0
  189.7130  174.9860  145.5700 C   0  0  1  0  0  3  0  0  0  0  0  0
  190.4100  173.0540  144.0350 C   0  0  0  0  0  0  0  0  0  0  0  0
  191.2880  173.0570  140.4780 F   0  0  0  0  0  0  0  0  0  0  0  0
  190.3200  172.1670  145.0580 F   0  0  0  0  0  0  0  0  0  0  0  0
  191.0460  171.2780  142.5720 F   0  0  0  0  0  0  0  0  0  0  0  0
  190.9130  173.4960  141.7040 C   0  0  0  0  0  0  0  0  0  0  0  0
  190.7930  172.5970  142.7690 C   0  0  0  0  0  0  0  0  0  0  0  0
  190.1240  174.4220  144.2350 C   0  0  0  0  0  0  0  0  0  0  0  0
  190.6510  174.8530  141.9040 C   0  0  0  0  0  3  0  0  0  0  0  0
  190.2630  175.3130  143.1650 C   0  0  0  0  0  3  0  0  0  0  0  0
  186.8500  177.4420  145.6590 C   0  0  0  0  0  0  0  0  0  0  0  0
  185.1260  178.8500  146.6360 C   0  0  0  0  0  3  0  0  0  0  0  0
  186.1140  177.3990  144.4640 C   0  0  0  0  0  3  0  0  0  0  0  0
  184.4050  178.8010  145.4410 C   0  0  0  0  0  3  0  0  0  0  0  0
  184.8970  178.0760  144.3440 C   0  0  0  0  0  0  0  0  0  0  0  0
  186.3430  178.1740  146.7440 C   0  0  0  0  0  3  0  0  0  0  0  0
  185.8920  178.6630  141.6370 O   0  0  0  0  0  0  0  0  0  0  0  0
  184.1820  177.9990  143.1030 N   0  0  0  0  0  2  0  0  0  0  0  0
  184.6930  178.3070  141.7980 C   0  0  0  0  0  0  0  0  0  0  0  0
  183.8380  178.2270  140.6620 N   0  0  0  0  0  2  0  0  0  0  0  0
  182.4900  177.8700  140.7940 N   0  0  0  0  0  2  0  0  0  0  0  0
  180.7560  178.8720  141.6370 C   0  0  0  0  0  1  0  0  0  0  0  0
  181.7730  179.0120  140.6930 O   0  0  0  0  0  0  0  0  0  0  0  0
  192.6710  175.5020  146.0130 C   0  0  0  0  0  0  0  0  0  0  0  0
  192.6970  174.6110  146.9050 O   0  0  0  0  0  0  0  0  0  0  0  0
  194.7240  176.5210  145.0330 C   0  0  0  0  0  3  0  0  0  0  0  0
  194.7260  174.6420  142.9550 C   0  0  0  0  0  0  0  0  0  0  0  0
  195.7410  175.6310  143.0060 C   0  0  0  0  0  0  0  0  0  0  0  0
  195.7170  176.5640  144.0530 C   0  0  0  0  0  3  0  0  0  0  0  0
  193.7380  174.6070  143.9430 C   0  0  0  0  0  3  0  0  0  0  0  0
  194.6440  173.6190  141.8730 C   0  0  0  0  0  1  0  0  0  0  0  0
  193.7290  175.5400  144.9880 C   0  0  0  0  0  0  0  0  0  0  0  0
  196.5620  176.3790  140.8340 O   0  0  0  0  0  0  0  0  0  0  0  0
  196.7940  175.7270  142.0250 N   0  0  0  0  0  0  0  0  0  0  0  0
  197.9410  175.2900  142.2510 O   0  0  0  0  0  0  0  0  0  0  0  0
  1  3  1  0  0  0  0
  3  2  1  1  0  0  0
  4 30  1  0  0  0  0
  5  3  1  0  0  0  0
  5  4  2  0  0  0  0
  6  7  1  0  0  0  0
  6  1  1  0  0  0  0
  7 14  1  6  0  0  0
  7  5  1  0  0  0  0
  8 14  1  0  0  0  0
  8 10  1  0  0  0  0
  9 12  1  0  0  0  0
 11 13  1  0  0  0  0
 12 15  2  0  0  0  0
 12 13  1  0  0  0  0
 13  8  2  0  0  0  0
 15 16  1  0  0  0  0
 16 14  2  0  0  0  0
 17  1  1  0  0  0  0
 17 22  1  0  0  0  0
 18 22  2  0  0  0  0
 19 17  2  0  0  0  0
 20 18  1  0  0  0  0
 21 19  1  0  0  0  0
 21 20  2  0  0  0  0
 23 25  2  0  0  0  0
 24 21  1  0  0  0  0
 25 24  1  0  0  0  0
 26 27  1  0  0  0  0
 26 25  1  0  0  0  0
 29 27  1  0  0  0  0
 29 28  1  0  0  0  0
 30 31  2  0  0  0  0
 33 34  2  0  0  0  0
 33 36  1  0  0  0  0
 34 35  1  0  0  0  0
 35 32  2  0  0  0  0
 36 38  2  0  0  0  0
 37 33  1  0  0  0  0
 38 32  1  0  0  0  0
 38 30  1  0  0  0  0
 39 40  2  0  0  0  0
 40 41  2  0  0  0  0
 40 34  1  0  0  0  0
M  END
>  <MODEL>
2

>  <REMARK>
 VINA RESULT:      -8.0      2.842      4.016
  Name = 
  8 active torsions:
  status: ('A' for Active; 'I' for Inactive)
    1  A    between atoms: N_4  and  C_19
    2  A    between atoms: N_5  and  C_15
    3  A    between atoms: N_12  and  C_35
    4  A    between atoms: C_17  and  C_40
    5  A    between atoms: O_18  and  N_21
    6  A    between atoms: N_21  and  N_41
    7  A    between atoms: N_25  and  C_32
    8  A    between atoms: C_35  and  C_38
                            x       y       z     vdW  Elec       q    Type
                         _______ _______ _______ _____ _____    ______ ____

>  <TORSDO>
F 8

$$$$
=
 OpenBabel11042418593D

 41 44  0  0  1  0  0  0  0  0999 V2000
  187.7260  176.4840  143.2140 N   0  0  0  0  0  0  0  0  0  0  0  0
  187.8980  178.0990  144.8880 O   0  0  0  0  0  1  0  0  0  0  0  0
  188.6330  177.2810  144.0260 C   0  0  1  0  0  3  0  0  0  0  0  0
  190.2920  176.6090  145.6750 N   0  0  0  0  0  0  0  0  0  0  0  0
  189.3760  176.2720  144.8130 C   0  0  0  0  0  0  0  0  0  0  0  0
  187.8420  175.0490  143.4580 C   0  0  0  0  0  2  0  0  0  0  0  0
  188.9690  174.8710  144.4700 C   0  0  1  0  0  3  0  0  0  0  0  0
  190.3420  172.7210  144.2100 C   0  0  0  0  0  0  0  0  0  0  0  0
  193.2540  172.0150  142.1020 F   0  0  0  0  0  0  0  0  0  0  0  0
  189.5700  172.0800  145.1240 F   0  0  0  0  0  0  0  0  0  0  0  0
  191.6330  170.7330  143.9290 F   0  0  0  0  0  0  0  0  0  0  0  0
  192.2250  172.6790  142.6810 C   0  0  0  0  0  0  0  0  0  0  0  0
  191.4030  172.0320  143.6100 C   0  0  0  0  0  0  0  0  0  0  0  0
  190.0870  174.0650  143.8610 C   0  0  0  0  0  0  0  0  0  0  0  0
  191.9870  174.0140  142.3500 C   0  0  0  0  0  3  0  0  0  0  0  0
  190.9260  174.7040  142.9410 C   0  0  0  0  0  3  0  0  0  0  0  0
  186.8850  177.0320  142.1840 C   0  0  0  0  0  0  0  0  0  0  0  0
  186.5650  177.7420  139.8810 C   0  0  0  0  0  3  0  0  0  0  0  0
  185.5630  177.4120  142.4670 C   0  0  0  0  0  3  0  0  0  0  0  0
  185.2510  178.1130  140.1750 C   0  0  0  0  0  3  0  0  0  0  0  0
  184.7400  177.9480  141.4720 C   0  0  0  0  0  0  0  0  0  0  0  0
  187.3780  177.2040  140.8810 C   0  0  0  0  0  3  0  0  0  0  0  0
  182.2870  177.5430  139.8950 O   0  0  0  0  0  0  0  0  0  0  0  0
  183.3980  178.3220  141.8120 N   0  0  0  0  0  2  0  0  0  0  0  0
  182.2220  178.1220  141.0120 C   0  0  0  0  0  0  0  0  0  0  0  0
  180.9610  178.5970  141.4720 N   0  0  0  0  0  2  0  0  0  0  0  0
  180.8430  179.2770  142.6910 N   0  0  0  0  0  2  0  0  0  0  0  0
  178.8080  179.0900  141.9530 C   0  0  0  0  0  1  0  0  0  0  0  0
  179.5730  179.0940  143.1180 O   0  0  0  0  0  0  0  0  0  0  0  0
  191.0110  175.7230  146.5460 C   0  0  0  0  0  0  0  0  0  0  0  0
  190.4540  175.2400  147.5700 O   0  0  0  0  0  0  0  0  0  0  0  0
  193.3720  176.4330  146.1820 C   0  0  0  0  0  3  0  0  0  0  0  0
  194.1620  173.7750  145.7790 C   0  0  0  0  0  0  0  0  0  0  0  0
  195.1260  174.8120  145.7010 C   0  0  0  0  0  0  0  0  0  0  0  0
  194.7070  176.1350  145.9020 C   0  0  0  0  0  3  0  0  0  0  0  0
  192.8280  174.0850  146.0620 C   0  0  0  0  0  3  0  0  0  0  0  0
  194.4950  172.3390  145.5580 C   0  0  0  0  0  1  0  0  0  0  0  0
  192.4240  175.4100  146.2670 C   0  0  0  0  0  0  0  0  0  0  0  0
  197.2700  173.8030  146.2820 O   0  0  0  0  0  0  0  0  0  0  0  0
  196.5190  174.5680  145.4180 N   0  0  0  0  0  0  0  0  0  0  0  0
  197.0550  174.9790  144.3680 O   0  0  0  0  0  0  0  0  0  0  0  0
  1  6  1  0  0  0  0
  1  3  1  0  0  0  0
  3  5  1  0  0  0  0
  3  2  1  1  0  0  0
  4 30  1  0  0  0  0
  5  4  2  0  0  0  0
  6  7  1  0  0  0  0
  7 14  1  6  0  0  0
  7  5  1  0  0  0  0
  8 10  1  0  0  0  0
  9 12  1  0  0  0  0
 12 13  1  0  0  0  0
 13 11  1  0  0  0  0
 13  8  2  0  0  0  0
 14  8  1  0  0  0  0
 15 12  2  0  0  0  0
 15 16  1  0  0  0  0
 16 14  2  0  0  0  0
 17 19  1  0  0  0  0
 17  1  1  0  0  0  0
 18 20  2  0  0  0  0
 18 22  1  0  0  0  0
 20 21  1  0  0  0  0
 21 24  1  0  0  0  0
 21 19  2  0  0  0  0
 22 17  2  0  0  0  0
 23 25  2  0  0  0  0
 25 26  1  0  0  0  0
 25 24  1  0  0  0  0
 26 27  1  0  0  0  0
 27 29  1  0  0  0  0
 28 29  1  0  0  0  0
 30 31  2  0  0  0  0
 32 38  1  0  0  0  0
 33 36  1  0  0  0  0
 34 33  2  0  0  0  0
 34 35  1  0  0  0  0
 35 32  2  0  0  0  0
 36 38  2  0  0  0  0
 37 33  1  0  0  0  0
 38 30  1  0  0  0  0
 40 34  1  0  0  0  0
 40 39  2  0  0  0  0
 41 40  2  0  0  0  0
M  END
>  <MODEL>
3

>  <REMARK>
 VINA RESULT:      -7.9      2.608      3.912
  Name = 
  8 active torsions:
  status: ('A' for Active; 'I' for Inactive)
    1  A    between atoms: N_4  and  C_19
    2  A    between atoms: N_5  and  C_15
    3  A    between atoms: N_12  and  C_35
    4  A    between atoms: C_17  and  C_40
    5  A    between atoms: O_18  and  N_21
    6  A    between atoms: N_21  and  N_41
    7  A    between atoms: N_25  and  C_32
    8  A    between atoms: C_35  and  C_38
                            x       y       z     vdW  Elec       q    Type
                         _______ _______ _______ _____ _____    ______ ____

>  <TORSDO>
F 8

$$$$
=
 OpenBabel11042418593D

 41 44  0  0  1  0  0  0  0  0999 V2000
  188.2770  176.6650  146.2650 N   0  0  0  0  0  0  0  0  0  0  0  0
  189.7440  178.0770  147.4030 O   0  0  0  0  0  1  0  0  0  0  0  0
  189.5380  177.3870  146.2050 C   0  0  1  0  0  3  0  0  0  0  0  0
  191.8230  176.5770  145.9900 N   0  0  0  0  0  0  0  0  0  0  0  0
  190.5500  176.3160  146.0700 C   0  0  0  0  0  0  0  0  0  0  0  0
  188.4380  175.2150  146.1970 C   0  0  0  0  0  2  0  0  0  0  0  0
  189.9290  174.9530  146.0070 C   0  0  1  0  0  3  0  0  0  0  0  0
  189.7610  174.7990  143.4530 C   0  0  0  0  0  0  0  0  0  0  0  0
  190.8760  172.1640  141.1640 F   0  0  0  0  0  0  0  0  0  0  0  0
  189.1300  175.9990  143.3900 F   0  0  0  0  0  0  0  0  0  0  0  0
  189.6380  174.6280  141.0750 F   0  0  0  0  0  0  0  0  0  0  0  0
  190.6390  172.8480  142.3090 C   0  0  0  0  0  0  0  0  0  0  0  0
  190.0080  174.0970  142.2680 C   0  0  0  0  0  0  0  0  0  0  0  0
  190.1680  174.2580  144.6920 C   0  0  0  0  0  0  0  0  0  0  0  0
  191.0230  172.3020  143.5350 C   0  0  0  0  0  3  0  0  0  0  0  0
  190.7840  173.0020  144.7200 C   0  0  0  0  0  3  0  0  0  0  0  0
  186.9890  177.3050  146.2670 C   0  0  0  0  0  0  0  0  0  0  0  0
  185.2110  178.4580  147.4570 C   0  0  0  0  0  3  0  0  0  0  0  0
  186.2340  177.3960  145.0860 C   0  0  0  0  0  3  0  0  0  0  0  0
  184.4720  178.5450  146.2750 C   0  0  0  0  0  3  0  0  0  0  0  0
  184.9810  178.0150  145.0800 C   0  0  0  0  0  0  0  0  0  0  0  0
  186.4640  177.8420  147.4520 C   0  0  0  0  0  3  0  0  0  0  0  0
  186.0320  178.4280  142.3620 O   0  0  0  0  0  0  0  0  0  0  0  0
  184.2480  178.0800  143.8480 N   0  0  0  0  0  2  0  0  0  0  0  0
  184.7910  178.2980  142.5370 C   0  0  0  0  0  0  0  0  0  0  0  0
  183.9210  178.3860  141.4130 N   0  0  0  0  0  2  0  0  0  0  0  0
  182.5330  178.2810  141.5620 N   0  0  0  0  0  2  0  0  0  0  0  0
  180.6780  178.3100  140.4300 C   0  0  0  0  0  1  0  0  0  0  0  0
  182.0310  177.9880  140.3400 O   0  0  0  0  0  0  0  0  0  0  0  0
  192.8890  175.6170  145.9410 C   0  0  0  0  0  0  0  0  0  0  0  0
  193.1300  174.8760  146.9330 O   0  0  0  0  0  0  0  0  0  0  0  0
  193.1910  175.7400  143.4700 C   0  0  0  0  0  3  0  0  0  0  0  0
  195.9060  175.0940  143.7180 C   0  0  0  0  0  0  0  0  0  0  0  0
  195.3550  175.3210  142.4320 C   0  0  0  0  0  0  0  0  0  0  0  0
  193.9920  175.6380  142.3310 C   0  0  0  0  0  3  0  0  0  0  0  0
  195.0940  175.2010  144.8510 C   0  0  0  0  0  3  0  0  0  0  0  0
  197.3350  174.7270  143.9360 C   0  0  0  0  0  1  0  0  0  0  0  0
  193.7370  175.5260  144.7390 C   0  0  0  0  0  0  0  0  0  0  0  0
  196.8280  176.3310  140.7710 O   0  0  0  0  0  0  0  0  0  0  0  0
  196.1310  175.2320  141.2190 N   0  0  0  0  0  0  0  0  0  0  0  0
  196.2440  174.1590  140.5910 O   0  0  0  0  0  0  0  0  0  0  0  0
  1 17  1  0  0  0  0
  3  1  1  0  0  0  0
  3  2  1  1  0  0  0
  4  5  2  0  0  0  0
  5  3  1  0  0  0  0
  6  1  1  0  0  0  0
  7 14  1  6  0  0  0
  7  5  1  0  0  0  0
  7  6  1  0  0  0  0
  8 14  1  0  0  0  0
  9 12  1  0  0  0  0
 10  8  1  0  0  0  0
 11 13  1  0  0  0  0
 12 15  2  0  0  0  0
 13 12  1  0  0  0  0
 13  8  2  0  0  0  0
 14 16  2  0  0  0  0
 15 16  1  0  0  0  0
 17 22  1  0  0  0  0
 19 17  2  0  0  0  0
 20 18  1  0  0  0  0
 21 19  1  0  0  0  0
 21 20  2  0  0  0  0
 22 18  2  0  0  0  0
 23 25  2  0  0  0  0
 24 21  1  0  0  0  0
 25 24  1  0  0  0  0
 26 27  1  0  0  0  0
 26 25  1  0  0  0  0
 29 28  1  0  0  0  0
 29 27  1  0  0  0  0
 30  4  1  0  0  0  0
 30 31  2  0  0  0  0
 32 38  1  0  0  0  0
 33 37  1  0  0  0  0
 33 36  1  0  0  0  0
 34 33  2  0  0  0  0
 35 34  1  0  0  0  0
 35 32  2  0  0  0  0
 38 36  2  0  0  0  0
 38 30  1  0  0  0  0
 39 40  2  0  0  0  0
 40 34  1  0  0  0  0
 41 40  2  0  0  0  0
M  END
>  <MODEL>
4

>  <REMARK>
 VINA RESULT:      -7.8      2.874      4.097
  Name = 
  8 active torsions:
  status: ('A' for Active; 'I' for Inactive)
    1  A    between atoms: N_4  and  C_19
    2  A    between atoms: N_5  and  C_15
    3  A    between atoms: N_12  and  C_35
    4  A    between atoms: C_17  and  C_40
    5  A    between atoms: O_18  and  N_21
    6  A    between atoms: N_21  and  N_41
    7  A    between atoms: N_25  and  C_32
    8  A    between atoms: C_35  and  C_38
                            x       y       z     vdW  Elec       q    Type
                         _______ _______ _______ _____ _____    ______ ____

>  <TORSDO>
F 8

$$$$
=
 OpenBabel11042418593D

 41 44  0  0  1  0  0  0  0  0999 V2000
  192.9380  174.1360  142.3360 N   0  0  0  0  0  0  0  0  0  0  0  0
  192.0320  173.8340  140.2080 O   0  0  0  0  0  1  0  0  0  0  0  0
  191.9740  174.6220  141.3600 C   0  0  1  0  0  3  0  0  0  0  0  0
  189.5460  174.7470  141.4540 N   0  0  0  0  0  0  0  0  0  0  0  0
  190.6690  174.4270  142.0290 C   0  0  0  0  0  0  0  0  0  0  0  0
  192.3180  173.6330  143.5590 C   0  0  0  0  0  2  0  0  0  0  0  0
  190.8180  173.8670  143.4110 C   0  0  1  0  0  3  0  0  0  0  0  0
  189.6440  174.3700  145.6340 C   0  0  0  0  0  0  0  0  0  0  0  0
  189.0360  177.5680  147.3170 F   0  0  0  0  0  0  0  0  0  0  0  0
  189.3850  173.0530  145.8330 F   0  0  0  0  0  0  0  0  0  0  0  0
  188.5720  174.8770  147.7070 F   0  0  0  0  0  0  0  0  0  0  0  0
  189.4520  176.6660  146.3960 C   0  0  0  0  0  0  0  0  0  0  0  0
  189.2160  175.3000  146.5890 C   0  0  0  0  0  0  0  0  0  0  0  0
  190.3340  174.8080  144.4830 C   0  0  0  0  0  0  0  0  0  0  0  0
  190.1170  177.1020  145.2480 C   0  0  0  0  0  3  0  0  0  0  0  0
  190.5510  176.1780  144.2960 C   0  0  0  0  0  3  0  0  0  0  0  0
  194.3630  174.2480  142.1760 C   0  0  0  0  0  0  0  0  0  0  0  0
  196.5980  174.2410  143.1310 C   0  0  0  0  0  3  0  0  0  0  0  0
  194.9230  174.4900  140.9110 C   0  0  0  0  0  3  0  0  0  0  0  0
  197.1420  174.4780  141.8680 C   0  0  0  0  0  3  0  0  0  0  0  0
  196.3070  174.6020  140.7470 C   0  0  0  0  0  0  0  0  0  0  0  0
  195.2150  174.1260  143.2840 C   0  0  0  0  0  3  0  0  0  0  0  0
  197.2230  172.6380  138.7550 O   0  0  0  0  0  0  0  0  0  0  0  0
  196.8300  174.8510  139.4350 N   0  0  0  0  0  2  0  0  0  0  0  0
  197.2830  173.8690  138.4900 C   0  0  0  0  0  0  0  0  0  0  0  0
  197.8230  174.2820  137.2390 N   0  0  0  0  0  2  0  0  0  0  0  0
  197.9410  175.6390  136.9140 N   0  0  0  0  0  2  0  0  0  0  0  0
  196.3970  176.3880  135.5810 C   0  0  0  0  0  1  0  0  0  0  0  0
  197.6370  175.7520  135.6010 O   0  0  0  0  0  0  0  0  0  0  0  0
  188.2270  174.5240  141.9750 C   0  0  0  0  0  0  0  0  0  0  0  0
  187.7540  173.3560  142.0440 O   0  0  0  0  0  0  0  0  0  0  0  0
  187.0900  176.6870  141.4830 C   0  0  0  0  0  3  0  0  0  0  0  0
  186.1700  176.8620  144.1240 C   0  0  0  0  0  0  0  0  0  0  0  0
  185.8460  177.8880  143.2000 C   0  0  0  0  0  0  0  0  0  0  0  0
  186.3210  177.7800  141.8840 C   0  0  0  0  0  3  0  0  0  0  0  0
  186.9390  175.7700  143.7100 C   0  0  0  0  0  3  0  0  0  0  0  0
  185.7380  176.8890  145.5510 C   0  0  0  0  0  1  0  0  0  0  0  0
  187.4010  175.6720  142.3920 C   0  0  0  0  0  0  0  0  0  0  0  0
  183.6810  178.9500  143.5670 O   0  0  0  0  0  0  0  0  0  0  0  0
  185.0550  179.0410  143.5520 N   0  0  0  0  0  0  0  0  0  0  0  0
  185.5840  180.1120  143.9130 O   0  0  0  0  0  0  0  0  0  0  0  0
  1  6  1  0  0  0  0
  3  2  1  6  0  0  0
  3  5  1  0  0  0  0
  3  1  1  0  0  0  0
  4 30  1  0  0  0  0
  4  5  2  0  0  0  0
  5  7  1  0  0  0  0
  7  6  1  0  0  0  0
  7 14  1  1  0  0  0
  8 10  1  0  0  0  0
  8 13  1  0  0  0  0
 12 13  2  0  0  0  0
 12  9  1  0  0  0  0
 13 11  1  0  0  0  0
 14  8  2  0  0  0  0
 15 12  1  0  0  0  0
 16 14  1  0  0  0  0
 16 15  2  0  0  0  0
 17  1  1  0  0  0  0
 17 22  1  0  0  0  0
 18 22  2  0  0  0  0
 19 17  2  0  0  0  0
 20 18  1  0  0  0  0
 21 19  1  0  0  0  0
 21 20  2  0  0  0  0
 24 21  1  0  0  0  0
 25 23  2  0  0  0  0
 25 24  1  0  0  0  0
 26 25  1  0  0  0  0
 27 26  1  0  0  0  0
 28 29  1  0  0  0  0
 29 27  1  0  0  0  0
 30 31  2  0  0  0  0
 30 38  1  0  0  0  0
 32 35  2  0  0  0  0
 32 38  1  0  0  0  0
 33 37  1  0  0  0  0
 34 40  1  0  0  0  0
 34 33  2  0  0  0  0
 35 34  1  0  0  0  0
 36 33  1  0  0  0  0
 38 36  2  0  0  0  0
 40 39  2  0  0  0  0
 40 41  2  0  0  0  0
M  END
>  <MODEL>
5

>  <REMARK>
 VINA RESULT:      -7.6      3.967      9.883
  Name = 
  8 active torsions:
  status: ('A' for Active; 'I' for Inactive)
    1  A    between atoms: N_4  and  C_19
    2  A    between atoms: N_5  and  C_15
    3  A    between atoms: N_12  and  C_35
    4  A    between atoms: C_17  and  C_40
    5  A    between atoms: O_18  and  N_21
    6  A    between atoms: N_21  and  N_41
    7  A    between atoms: N_25  and  C_32
    8  A    between atoms: C_35  and  C_38
                            x       y       z     vdW  Elec       q    Type
                         _______ _______ _______ _____ _____    ______ ____

>  <TORSDO>
F 8

$$$$
=
 OpenBabel11042418593D

 41 44  0  0  1  0  0  0  0  0999 V2000
  188.0300  176.8590  143.2810 N   0  0  0  0  0  0  0  0  0  0  0  0
  187.2790  174.9680  142.1420 O   0  0  0  0  0  1  0  0  0  0  0  0
  188.0760  175.4070  143.2010 C   0  0  1  0  0  3  0  0  0  0  0  0
  189.9350  173.9010  142.7550 N   0  0  0  0  0  0  0  0  0  0  0  0
  189.4970  175.1170  142.9060 C   0  0  0  0  0  0  0  0  0  0  0  0
  189.3230  177.4920  143.0350 C   0  0  0  0  0  2  0  0  0  0  0  0
  190.3290  176.3630  142.8420 C   0  0  1  0  0  3  0  0  0  0  0  0
  192.7560  176.5970  143.6340 C   0  0  0  0  0  0  0  0  0  0  0  0
  194.1580  176.5150  147.0180 F   0  0  0  0  0  0  0  0  0  0  0  0
  193.1940  176.7290  142.3560 F   0  0  0  0  0  0  0  0  0  0  0  0
  195.0020  176.8280  144.4100 F   0  0  0  0  0  0  0  0  0  0  0  0
  193.2610  176.4810  146.0040 C   0  0  0  0  0  0  0  0  0  0  0  0
  193.6860  176.6360  144.6800 C   0  0  0  0  0  0  0  0  0  0  0  0
  191.3840  176.4220  143.9160 C   0  0  0  0  0  0  0  0  0  0  0  0
  191.9060  176.2870  146.2830 C   0  0  0  0  0  3  0  0  0  0  0  0
  190.9750  176.2530  145.2430 C   0  0  0  0  0  3  0  0  0  0  0  0
  186.8650  177.6000  143.6820 C   0  0  0  0  0  0  0  0  0  0  0  0
  185.7450  179.0790  145.2540 C   0  0  0  0  0  3  0  0  0  0  0  0
  185.6930  177.5650  142.9080 C   0  0  0  0  0  3  0  0  0  0  0  0
  184.5890  179.0380  144.4730 C   0  0  0  0  0  3  0  0  0  0  0  0
  184.5560  178.2810  143.2920 C   0  0  0  0  0  0  0  0  0  0  0  0
  186.8780  178.3640  144.8600 C   0  0  0  0  0  3  0  0  0  0  0  0
  184.3750  178.5500  140.3660 O   0  0  0  0  0  0  0  0  0  0  0  0
  183.3840  178.2110  142.4680 N   0  0  0  0  0  2  0  0  0  0  0  0
  183.3280  178.3610  141.0410 C   0  0  0  0  0  0  0  0  0  0  0  0
  182.0720  178.3130  140.3700 N   0  0  0  0  0  2  0  0  0  0  0  0
  180.8780  178.1390  141.0800 N   0  0  0  0  0  2  0  0  0  0  0  0
  178.7280  177.8800  140.9000 C   0  0  0  0  0  1  0  0  0  0  0  0
  179.9120  177.9000  140.1640 O   0  0  0  0  0  0  0  0  0  0  0  0
  191.2670  173.5130  142.3860 C   0  0  0  0  0  0  0  0  0  0  0  0
  192.0670  173.0640  143.2520 O   0  0  0  0  0  0  0  0  0  0  0  0
  193.0120  174.1350  140.7190 C   0  0  0  0  0  3  0  0  0  0  0  0
  191.2590  173.5840  138.6040 C   0  0  0  0  0  0  0  0  0  0  0  0
  192.5750  174.0350  138.3240 C   0  0  0  0  0  0  0  0  0  0  0  0
  193.4330  174.3090  139.4000 C   0  0  0  0  0  3  0  0  0  0  0  0
  190.8500  173.4120  139.9290 C   0  0  0  0  0  3  0  0  0  0  0  0
  190.2600  173.2880  137.5380 C   0  0  0  0  0  1  0  0  0  0  0  0
  191.7190  173.6820  140.9930 C   0  0  0  0  0  0  0  0  0  0  0  0
  192.9530  175.4680  136.3870 O   0  0  0  0  0  0  0  0  0  0  0  0
  193.0680  174.2320  136.9840 N   0  0  0  0  0  0  0  0  0  0  0  0
  193.6630  173.3260  136.3650 O   0  0  0  0  0  0  0  0  0  0  0  0
  1 17  1  0  0  0  0
  3  2  1  6  0  0  0
  3  1  1  0  0  0  0
  4  5  2  0  0  0  0
  5  3  1  0  0  0  0
  6  1  1  0  0  0  0
  7  5  1  0  0  0  0
  7  6  1  0  0  0  0
  7 14  1  1  0  0  0
  8 14  2  0  0  0  0
  8 13  1  0  0  0  0
 10  8  1  0  0  0  0
 11 13  1  0  0  0  0
 12 15  1  0  0  0  0
 12  9  1  0  0  0  0
 13 12  2  0  0  0  0
 14 16  1  0  0  0  0
 16 15  2  0  0  0  0
 17 22  1  0  0  0  0
 19 21  1  0  0  0  0
 19 17  2  0  0  0  0
 20 18  1  0  0  0  0
 21 20  2  0  0  0  0
 22 18  2  0  0  0  0
 23 25  2  0  0  0  0
 24 21  1  0  0  0  0
 25 24  1  0  0  0  0
 26 25  1  0  0  0  0
 26 27  1  0  0  0  0
 29 28  1  0  0  0  0
 29 27  1  0  0  0  0
 30  4  1  0  0  0  0
 30 31  2  0  0  0  0
 32 38  1  0  0  0  0
 33 36  1  0  0  0  0
 34 33  2  0  0  0  0
 34 35  1  0  0  0  0
 35 32  2  0  0  0  0
 36 38  2  0  0  0  0
 37 33  1  0  0  0  0
 38 30  1  0  0  0  0
 39 40  2  0  0  0  0
 40 34  1  0  0  0  0
 41 40  2  0  0  0  0
M  END
>  <MODEL>
6

>  <REMARK>
 VINA RESULT:      -7.4      2.416      3.883
  Name = 
  8 active torsions:
  status: ('A' for Active; 'I' for Inactive)
    1  A    between atoms: N_4  and  C_19
    2  A    between atoms: N_5  and  C_15
    3  A    between atoms: N_12  and  C_35
    4  A    between atoms: C_17  and  C_40
    5  A    between atoms: O_18  and  N_21
    6  A    between atoms: N_21  and  N_41
    7  A    between atoms: N_25  and  C_32
    8  A    between atoms: C_35  and  C_38
                            x       y       z     vdW  Elec       q    Type
                         _______ _______ _______ _____ _____    ______ ____

>  <TORSDO>
F 8

$$$$
=
 OpenBabel11042418593D

 41 44  0  0  1  0  0  0  0  0999 V2000
  190.3940  172.8760  142.1450 N   0  0  0  0  0  0  0  0  0  0  0  0
  188.5300  173.9010  141.1870 O   0  0  0  0  0  1  0  0  0  0  0  0
  189.8850  174.0690  141.4850 C   0  0  1  0  0  3  0  0  0  0  0  0
  189.6810  176.3590  142.2830 N   0  0  0  0  0  0  0  0  0  0  0  0
  190.0400  175.1280  142.5070 C   0  0  0  0  0  0  0  0  0  0  0  0
  190.8370  173.1190  143.5150 C   0  0  0  0  0  2  0  0  0  0  0  0
  190.6710  174.6140  143.7660 C   0  0  1  0  0  3  0  0  0  0  0  0
  192.3470  175.7910  145.3080 C   0  0  0  0  0  0  0  0  0  0  0  0
  195.7490  176.9750  144.6390 F   0  0  0  0  0  0  0  0  0  0  0  0
  191.4620  175.7730  146.3370 F   0  0  0  0  0  0  0  0  0  0  0  0
  193.9390  176.8740  146.7190 F   0  0  0  0  0  0  0  0  0  0  0  0
  194.5290  176.4160  144.4530 C   0  0  0  0  0  0  0  0  0  0  0  0
  193.6080  176.3660  145.5050 C   0  0  0  0  0  0  0  0  0  0  0  0
  192.0100  175.2410  144.0520 C   0  0  0  0  0  0  0  0  0  0  0  0
  194.1900  175.8910  143.2040 C   0  0  0  0  0  3  0  0  0  0  0  0
  192.9350  175.3110  143.0050 C   0  0  0  0  0  3  0  0  0  0  0  0
  190.5650  171.6100  141.4840 C   0  0  0  0  0  0  0  0  0  0  0  0
  190.8160  169.1950  141.5920 C   0  0  0  0  0  3  0  0  0  0  0  0
  190.6620  171.5410  140.0850 C   0  0  0  0  0  3  0  0  0  0  0  0
  190.9090  169.1400  140.2000 C   0  0  0  0  0  3  0  0  0  0  0  0
  190.8300  170.3140  139.4360 C   0  0  0  0  0  0  0  0  0  0  0  0
  190.6440  170.4240  142.2310 C   0  0  0  0  0  3  0  0  0  0  0  0
  193.2520  170.5310  137.7770 O   0  0  0  0  0  0  0  0  0  0  0  0
  190.9270  170.2970  138.0050 N   0  0  0  0  0  2  0  0  0  0  0  0
  192.1250  170.4200  137.2240 C   0  0  0  0  0  0  0  0  0  0  0  0
  192.0490  170.4330  135.8020 N   0  0  0  0  0  2  0  0  0  0  0  0
  190.8160  170.3470  135.1420 N   0  0  0  0  0  2  0  0  0  0  0  0
  189.3170  171.9160  135.0400 C   0  0  0  0  0  1  0  0  0  0  0  0
  190.5860  171.5600  134.5880 O   0  0  0  0  0  0  0  0  0  0  0  0
  189.7090  177.4410  143.2270 C   0  0  0  0  0  0  0  0  0  0  0  0
  190.7270  178.1800  143.3240 O   0  0  0  0  0  0  0  0  0  0  0  0
  188.5940  177.2250  145.4450 C   0  0  0  0  0  3  0  0  0  0  0  0
  186.2970  178.4990  144.4720 C   0  0  0  0  0  0  0  0  0  0  0  0
  186.3370  178.0620  145.8200 C   0  0  0  0  0  0  0  0  0  0  0  0
  187.4960  177.4230  146.2840 C   0  0  0  0  0  3  0  0  0  0  0  0
  187.4030  178.2970  143.6420 C   0  0  0  0  0  3  0  0  0  0  0  0
  185.1070  179.1670  143.8710 C   0  0  0  0  0  1  0  0  0  0  0  0
  188.5570  177.6640  144.1190 C   0  0  0  0  0  0  0  0  0  0  0  0
  184.0660  177.5410  146.5420 O   0  0  0  0  0  0  0  0  0  0  0  0
  185.2370  178.2390  146.7360 N   0  0  0  0  0  0  0  0  0  0  0  0
  185.3370  178.9630  147.7480 O   0  0  0  0  0  0  0  0  0  0  0  0
  1  6  1  0  0  0  0
  3  2  1  1  0  0  0
  3  1  1  0  0  0  0
  3  5  1  0  0  0  0
  4  5  2  0  0  0  0
  4 30  1  0  0  0  0
  5  7  1  0  0  0  0
  6  7  1  0  0  0  0
  7 14  1  6  0  0  0
  8 13  1  0  0  0  0
  8 10  1  0  0  0  0
 12  9  1  0  0  0  0
 12 13  2  0  0  0  0
 13 11  1  0  0  0  0
 14  8  2  0  0  0  0
 15 12  1  0  0  0  0
 16 15  2  0  0  0  0
 16 14  1  0  0  0  0
 17  1  1  0  0  0  0
 17 22  1  0  0  0  0
 18 22  2  0  0  0  0
 19 17  2  0  0  0  0
 20 18  1  0  0  0  0
 21 19  1  0  0  0  0
 21 20  2  0  0  0  0
 24 21  1  0  0  0  0
 25 23  2  0  0  0  0
 25 24  1  0  0  0  0
 26 25  1  0  0  0  0
 27 26  1  0  0  0  0
 29 28  1  0  0  0  0
 29 27  1  0  0  0  0
 30 31  2  0  0  0  0
 30 38  1  0  0  0  0
 32 35  1  0  0  0  0
 33 34  1  0  0  0  0
 34 35  2  0  0  0  0
 34 40  1  0  0  0  0
 36 38  1  0  0  0  0
 36 33  2  0  0  0  0
 37 33  1  0  0  0  0
 38 32  2  0  0  0  0
 39 40  2  0  0  0  0
 40 41  2  0  0  0  0
M  END
>  <MODEL>
7

>  <REMARK>
 VINA RESULT:      -7.3      3.726      8.525
  Name = 
  8 active torsions:
  status: ('A' for Active; 'I' for Inactive)
    1  A    between atoms: N_4  and  C_19
    2  A    between atoms: N_5  and  C_15
    3  A    between atoms: N_12  and  C_35
    4  A    between atoms: C_17  and  C_40
    5  A    between atoms: O_18  and  N_21
    6  A    between atoms: N_21  and  N_41
    7  A    between atoms: N_25  and  C_32
    8  A    between atoms: C_35  and  C_38
                            x       y       z     vdW  Elec       q    Type
                         _______ _______ _______ _____ _____    ______ ____

>  <TORSDO>
F 8

$$$$
=
 OpenBabel11042418593D

 41 44  0  0  1  0  0  0  0  0999 V2000
  188.6860  176.4850  144.8690 N   0  0  0  0  0  0  0  0  0  0  0  0
  190.1030  178.3380  144.8350 O   0  0  0  0  0  1  0  0  0  0  0  0
  189.6930  177.2140  144.1130 C   0  0  1  0  0  3  0  0  0  0  0  0
  191.9220  176.5560  143.3910 N   0  0  0  0  0  0  0  0  0  0  0  0
  190.8150  176.2560  144.0070 C   0  0  0  0  0  0  0  0  0  0  0  0
  189.1150  175.1440  145.2580 C   0  0  0  0  0  2  0  0  0  0  0  0
  190.4990  174.9390  144.6510 C   0  0  1  0  0  3  0  0  0  0  0  0
  191.2570  172.6350  143.8200 C   0  0  0  0  0  0  0  0  0  0  0  0
  190.2800  170.7610  140.8270 F   0  0  0  0  0  0  0  0  0  0  0  0
  192.0910  172.4910  144.8810 F   0  0  0  0  0  0  0  0  0  0  0  0
  191.9260  170.4860  143.0240 F   0  0  0  0  0  0  0  0  0  0  0  0
  190.3490  171.7480  141.7530 C   0  0  0  0  0  0  0  0  0  0  0  0
  191.1850  171.6120  142.8660 C   0  0  0  0  0  0  0  0  0  0  0  0
  190.4690  173.7960  143.6700 C   0  0  0  0  0  0  0  0  0  0  0  0
  189.5840  172.9040  141.5920 C   0  0  0  0  0  3  0  0  0  0  0  0
  189.6480  173.9250  142.5440 C   0  0  0  0  0  3  0  0  0  0  0  0
  187.3560  176.9760  145.1080 C   0  0  0  0  0  0  0  0  0  0  0  0
  185.6490  177.7740  146.6420 C   0  0  0  0  0  3  0  0  0  0  0  0
  186.4480  177.1280  144.0460 C   0  0  0  0  0  3  0  0  0  0  0  0
  184.7570  177.9240  145.5780 C   0  0  0  0  0  3  0  0  0  0  0  0
  185.1530  177.6030  144.2710 C   0  0  0  0  0  0  0  0  0  0  0  0
  186.9420  177.3040  146.4080 C   0  0  0  0  0  3  0  0  0  0  0  0
  185.7710  178.5920  141.5680 O   0  0  0  0  0  0  0  0  0  0  0  0
  184.2640  177.7390  143.1540 N   0  0  0  0  0  2  0  0  0  0  0  0
  184.5940  178.2400  141.8490 C   0  0  0  0  0  0  0  0  0  0  0  0
  183.5800  178.3590  140.8560 N   0  0  0  0  0  2  0  0  0  0  0  0
  182.2520  178.0120  141.1310 N   0  0  0  0  0  2  0  0  0  0  0  0
  180.2440  178.5240  140.4790 C   0  0  0  0  0  1  0  0  0  0  0  0
  181.4910  179.0720  140.7750 O   0  0  0  0  0  0  0  0  0  0  0  0
  193.0980  175.7370  143.3020 C   0  0  0  0  0  0  0  0  0  0  0  0
  193.6700  175.3220  144.3470 O   0  0  0  0  0  0  0  0  0  0  0  0
  194.8970  175.9510  141.5900 C   0  0  0  0  0  3  0  0  0  0  0  0
  193.4900  174.2860  139.8300 C   0  0  0  0  0  0  0  0  0  0  0  0
  194.7430  174.8220  139.4360 C   0  0  0  0  0  0  0  0  0  0  0  0
  195.4260  175.6570  140.3330 C   0  0  0  0  0  3  0  0  0  0  0  0
  192.9710  174.5850  141.0930 C   0  0  0  0  0  3  0  0  0  0  0  0
  192.6700  173.4080  138.9470 C   0  0  0  0  0  1  0  0  0  0  0  0
  193.6670  175.4150  141.9810 C   0  0  0  0  0  0  0  0  0  0  0  0
  195.0720  175.3810  137.0850 O   0  0  0  0  0  0  0  0  0  0  0  0
  195.3430  174.5550  138.1530 N   0  0  0  0  0  0  0  0  0  0  0  0
  196.1610  173.6250  137.9930 O   0  0  0  0  0  0  0  0  0  0  0  0
  1 17  1  0  0  0  0
  1  6  1  0  0  0  0
  3  2  1  1  0  0  0
  3  1  1  0  0  0  0
  4  5  2  0  0  0  0
  5  3  1  0  0  0  0
  5  7  1  0  0  0  0
  7 14  1  6  0  0  0
  7  6  1  0  0  0  0
  8 10  1  0  0  0  0
  9 12  1  0  0  0  0
 12 13  1  0  0  0  0
 13 11  1  0  0  0  0
 13  8  2  0  0  0  0
 14  8  1  0  0  0  0
 15 12  2  0  0  0  0
 15 16  1  0  0  0  0
 16 14  2  0  0  0  0
 17 22  1  0  0  0  0
 19 21  1  0  0  0  0
 19 17  2  0  0  0  0
 20 18  1  0  0  0  0
 21 20  2  0  0  0  0
 22 18  2  0  0  0  0
 23 25  2  0  0  0  0
 24 21  1  0  0  0  0
 25 24  1  0  0  0  0
 26 27  1  0  0  0  0
 26 25  1  0  0  0  0
 28 29  1  0  0  0  0
 29 27  1  0  0  0  0
 30  4  1  0  0  0  0
 30 31  2  0  0  0  0
 32 38  1  0  0  0  0
 33 36  1  0  0  0  0
 34 33  2  0  0  0  0
 34 35  1  0  0  0  0
 35 32  2  0  0  0  0
 36 38  2  0  0  0  0
 37 33  1  0  0  0  0
 38 30  1  0  0  0  0
 39 40  2  0  0  0  0
 40 34  1  0  0  0  0
 41 40  2  0  0  0  0
M  END
>  <MODEL>
8

>  <REMARK>
 VINA RESULT:      -7.2      2.973      4.557
  Name = 
  8 active torsions:
  status: ('A' for Active; 'I' for Inactive)
    1  A    between atoms: N_4  and  C_19
    2  A    between atoms: N_5  and  C_15
    3  A    between atoms: N_12  and  C_35
    4  A    between atoms: C_17  and  C_40
    5  A    between atoms: O_18  and  N_21
    6  A    between atoms: N_21  and  N_41
    7  A    between atoms: N_25  and  C_32
    8  A    between atoms: C_35  and  C_38
                            x       y       z     vdW  Elec       q    Type
                         _______ _______ _______ _____ _____    ______ ____

>  <TORSDO>
F 8

$$$$
=
 OpenBabel11042418593D

 41 44  0  0  1  0  0  0  0  0999 V2000
  188.9330  175.8100  143.2820 N   0  0  0  0  0  0  0  0  0  0  0  0
  188.2470  174.0800  141.8750 O   0  0  0  0  0  1  0  0  0  0  0  0
  189.0770  174.4000  142.9530 C   0  0  1  0  0  3  0  0  0  0  0  0
  191.0050  173.1430  142.1630 N   0  0  0  0  0  0  0  0  0  0  0  0
  190.4930  174.2780  142.5420 C   0  0  0  0  0  0  0  0  0  0  0  0
  190.1590  176.5770  143.0830 C   0  0  0  0  0  2  0  0  0  0  0  0
  191.2290  175.5800  142.6500 C   0  0  1  0  0  3  0  0  0  0  0  0
  193.6430  176.0190  143.3910 C   0  0  0  0  0  0  0  0  0  0  0  0
  195.3030  175.3180  146.5810 F   0  0  0  0  0  0  0  0  0  0  0  0
  193.9530  176.5480  142.1800 F   0  0  0  0  0  0  0  0  0  0  0  0
  195.8790  176.4280  144.1230 F   0  0  0  0  0  0  0  0  0  0  0  0
  194.3450  175.3900  145.6270 C   0  0  0  0  0  0  0  0  0  0  0  0
  194.6350  175.9500  144.3770 C   0  0  0  0  0  0  0  0  0  0  0  0
  192.3420  175.5430  143.6640 C   0  0  0  0  0  0  0  0  0  0  0  0
  193.0640  174.9000  145.8910 C   0  0  0  0  0  3  0  0  0  0  0  0
  192.0710  174.9730  144.9120 C   0  0  0  0  0  3  0  0  0  0  0  0
  187.7450  176.3780  143.8620 C   0  0  0  0  0  0  0  0  0  0  0  0
  186.5030  177.1230  145.8130 C   0  0  0  0  0  3  0  0  0  0  0  0
  186.6540  176.7330  143.0520 C   0  0  0  0  0  3  0  0  0  0  0  0
  185.4260  177.4750  144.9970 C   0  0  0  0  0  3  0  0  0  0  0  0
  185.4960  177.2830  143.6090 C   0  0  0  0  0  0  0  0  0  0  0  0
  187.6580  176.5780  145.2480 C   0  0  0  0  0  3  0  0  0  0  0  0
  185.6280  178.4110  140.8930 O   0  0  0  0  0  0  0  0  0  0  0  0
  184.4080  177.6270  142.7390 N   0  0  0  0  0  2  0  0  0  0  0  0
  184.5060  178.1910  141.4220 C   0  0  0  0  0  0  0  0  0  0  0  0
  183.3240  178.5230  140.7010 N   0  0  0  0  0  2  0  0  0  0  0  0
  182.0550  178.3290  141.2610 N   0  0  0  0  0  2  0  0  0  0  0  0
  179.9820  178.2830  140.6130 C   0  0  0  0  0  1  0  0  0  0  0  0
  181.1760  178.9870  140.4710 O   0  0  0  0  0  0  0  0  0  0  0  0
  192.3350  172.9300  141.6670 C   0  0  0  0  0  0  0  0  0  0  0  0
  193.1830  172.2990  142.3560 O   0  0  0  0  0  0  0  0  0  0  0  0
  191.8390  173.4630  139.2830 C   0  0  0  0  0  3  0  0  0  0  0  0
  194.3950  174.5610  138.9440 C   0  0  0  0  0  0  0  0  0  0  0  0
  193.4910  174.5400  137.8520 C   0  0  0  0  0  0  0  0  0  0  0  0
  192.2190  173.9820  138.0440 C   0  0  0  0  0  3  0  0  0  0  0  0
  194.0030  174.0400  140.1810 C   0  0  0  0  0  3  0  0  0  0  0  0
  195.7790  175.1070  138.8420 C   0  0  0  0  0  1  0  0  0  0  0  0
  192.7280  173.4920  140.3620 C   0  0  0  0  0  0  0  0  0  0  0  0
  193.5820  176.3850  136.2590 O   0  0  0  0  0  0  0  0  0  0  0  0
  193.8230  175.0610  136.5490 N   0  0  0  0  0  0  0  0  0  0  0  0
  194.3890  174.3570  135.6870 O   0  0  0  0  0  0  0  0  0  0  0  0
  1 17  1  0  0  0  0
  3  2  1  6  0  0  0
  3  1  1  0  0  0  0
  4  5  2  0  0  0  0
  5  7  1  0  0  0  0
  5  3  1  0  0  0  0
  6  1  1  0  0  0  0
  7  6  1  0  0  0  0
  7 14  1  1  0  0  0
  8 14  2  0  0  0  0
  8 13  1  0  0  0  0
 10  8  1  0  0  0  0
 11 13  1  0  0  0  0
 12 15  1  0  0  0  0
 12  9  1  0  0  0  0
 13 12  2  0  0  0  0
 14 16  1  0  0  0  0
 16 15  2  0  0  0  0
 17 22  1  0  0  0  0
 19 21  1  0  0  0  0
 19 17  2  0  0  0  0
 20 18  1  0  0  0  0
 21 20  2  0  0  0  0
 22 18  2  0  0  0  0
 23 25  2  0  0  0  0
 24 21  1  0  0  0  0
 25 24  1  0  0  0  0
 26 27  1  0  0  0  0
 26 25  1  0  0  0  0
 29 28  1  0  0  0  0
 29 27  1  0  0  0  0
 30  4  1  0  0  0  0
 30 31  2  0  0  0  0
 32 38  1  0  0  0  0
 33 36  1  0  0  0  0
 34 35  1  0  0  0  0
 34 33  2  0  0  0  0
 35 32  2  0  0  0  0
 36 38  2  0  0  0  0
 37 33  1  0  0  0  0
 38 30  1  0  0  0  0
 39 40  2  0  0  0  0
 40 34  1  0  0  0  0
 41 40  2  0  0  0  0
M  END
>  <MODEL>
9

>  <REMARK>
 VINA RESULT:      -7.0      2.380      3.799
  Name = 
  8 active torsions:
  status: ('A' for Active; 'I' for Inactive)
    1  A    between atoms: N_4  and  C_19
    2  A    between atoms: N_5  and  C_15
    3  A    between atoms: N_12  and  C_35
    4  A    between atoms: C_17  and  C_40
    5  A    between atoms: O_18  and  N_21
    6  A    between atoms: N_21  and  N_41
    7  A    between atoms: N_25  and  C_32
    8  A    between atoms: C_35  and  C_38
                            x       y       z     vdW  Elec       q    Type
                         _______ _______ _______ _____ _____    ______ ____

>  <TORSDO>
F 8

$$$$
