=
 OpenBabel11042416593D

 67 73  0  0  1  0  0  0  0  0999 V2000
  192.4650  171.2010  143.8530 C   0  0  1  0  0  3  0  0  0  0  0  0
  190.4930  172.1930  142.5740 N   0  0  0  0  0  1  0  0  0  0  0  0
  191.3700  171.0960  142.8370 C   0  0  0  0  0  0  0  0  0  0  0  0
  191.2350  170.0330  142.1830 O   0  0  0  0  0  0  0  0  0  0  0  0
  192.9630  169.8680  144.3060 C   0  0  0  0  0  3  0  0  0  0  0  0
  193.9100  169.7820  145.1990 C   0  0  0  0  0  0  0  0  0  0  0  0
  194.8490  169.6750  146.0980 C   0  0  0  0  0  3  0  0  0  0  0  0
  196.1280  168.9900  145.7620 C   0  0  2  0  0  3  0  0  0  0  0  0
  196.9830  168.9690  146.9360 N   0  0  0  0  0  1  0  0  0  0  0  0
  196.8180  169.7320  144.6310 C   0  0  0  0  0  2  0  0  0  0  0  0
  196.8920  168.8530  143.3920 C   0  0  0  0  0  2  0  0  0  0  0  0
  197.9410  169.3800  142.4230 C   0  0  0  0  0  2  0  0  0  0  0  0
  197.3130  169.6880  141.0740 C   0  0  0  0  0  2  0  0  0  0  0  0
  192.9730  174.0190  138.6560 C   0  0  0  0  0  2  0  0  0  0  0  0
  191.6230  173.0970  137.1300 C   0  0  2  0  0  0  0  0  0  0  0  0
  192.4820  172.5600  136.1430 O   0  0  0  0  0  0  0  0  0  0  0  0
  191.9980  170.7640  137.6410 O   0  0  0  0  0  1  0  0  0  0  0  0
  192.0600  174.3340  137.6290 O   0  0  0  0  0  0  0  0  0  0  0  0
  196.9790  173.4190  138.0700 O   0  0  0  0  0  1  0  0  0  0  0  0
  194.8160  172.7400  137.7590 O   0  0  0  0  0  0  0  0  0  0  0  0
  193.5570  172.6340  138.4080 C   0  0  1  0  0  0  0  0  0  0  0  0
  193.6930  169.2090  140.6430 O   0  0  0  0  0  0  0  0  0  0  0  0
  196.0980  171.7090  139.4730 C   0  0  0  0  0  2  0  0  0  0  0  0
  194.8010  169.7910  140.5110 C   0  0  0  0  0  0  0  0  0  0  0  0
  193.5840  171.8300  139.7290 C   0  0  0  0  0  2  0  0  0  0  0  0
  195.8180  172.9930  138.7130 C   0  0  1  0  0  3  0  0  0  0  0  0
  192.5680  172.0270  137.4500 C   0  0  2  0  0  0  0  0  0  0  0  0
  194.8420  171.0950  139.9040 N   0  0  0  0  0  0  0  0  0  0  0  0
  195.9710  169.1270  141.0130 N   0  0  0  0  0  2  0  0  0  0  0  0
  190.1140  172.8620  136.9100 C   0  0  1  0  0  3  0  0  0  0  0  0
  189.4190  173.0530  138.1060 O   0  0  0  0  0  1  0  0  0  0  0  0
  188.7330  174.8590  136.1720 N   0  0  0  0  0  1  0  0  0  0  0  0
  189.4990  173.7090  135.8370 C   0  0  0  0  0  0  0  0  0  0  0  0
  189.6180  173.3570  134.6000 N   0  0  0  0  0  2  0  0  0  0  0  0
  193.5660  171.9930  143.3180 N   0  0  0  0  0  2  0  0  0  0  0  0
  194.6330  174.2400  142.7250 C   0  0  2  0  0  3  0  0  0  0  0  0
  192.0260  173.6020  145.2230 O   0  0  0  0  0  1  0  0  0  0  0  0
  196.0480  173.6630  142.6920 C   0  0  0  0  0  2  0  0  0  0  0  0
  196.9540  174.5130  141.8210 C   0  0  0  0  0  2  0  0  0  0  0  0
  195.7250  176.1440  144.1180 C   0  0  0  0  0  2  0  0  0  0  0  0
  196.7760  176.6610  143.1510 C   0  0  0  0  0  2  0  0  0  0  0  0
  194.4970  175.6500  143.3500 C   0  0  2  0  0  3  0  0  0  0  0  0
  193.7290  173.3980  143.5450 C   0  0  0  0  0  0  0  0  0  0  0  0
  197.6910  175.5450  142.6680 C   0  0  0  0  0  2  0  0  0  0  0  0
  193.3060  175.5730  144.3100 C   0  0  2  0  0  3  0  0  0  0  0  0
  193.0110  174.1220  144.3900 C   0  0  0  0  0  0  0  0  0  0  0  0
  191.2670  176.9450  145.7580 O   0  0  0  0  0  0  0  0  0  0  0  0
  191.2290  177.0130  144.4990 C   0  0  0  0  0  0  0  0  0  0  0  0
  192.1680  176.2660  143.7180 N   0  0  0  0  0  2  0  0  0  0  0  0
  190.2620  177.8840  143.8050 C   0  0  0  0  0  3  0  0  0  0  0  0
  187.0010  176.0050  141.9890 C   0  0  0  0  0  3  0  0  0  0  0  0
  188.9510  177.6690  143.6440 C   0  0  0  0  0  0  0  0  0  0  0  0
  188.1830  178.7320  142.9210 C   0  0  0  0  0  2  0  0  0  0  0  0
  186.5700  177.2450  141.7100 C   0  0  0  0  0  0  0  0  0  0  0  0
  187.6970  175.5880  143.1390 O   0  0  0  0  0  0  0  0  0  0  0  0
  188.2810  176.4090  144.1540 C   0  0  2  0  0  3  0  0  0  0  0  0
  186.7280  178.3520  142.7200 C   0  0  2  0  0  3  0  0  0  0  0  0
  185.9720  179.4830  142.4150 O   0  0  0  0  0  1  0  0  0  0  0  0
  185.3520  176.4810  146.3130 C   0  0  0  0  0  2  0  0  0  0  0  0
  186.0710  176.7560  145.1360 O   0  0  0  0  0  0  0  0  0  0  0  0
  187.4260  176.5110  145.4220 C   0  0  2  0  0  3  0  0  0  0  0  0
  187.9670  177.5690  146.3940 C   0  0  0  0  0  2  0  0  0  0  0  0
  185.6580  177.5410  147.3710 C   0  0  0  0  0  2  0  0  0  0  0  0
  187.1520  177.5100  147.6840 C   0  0  0  0  0  2  0  0  0  0  0  0
  184.7010  177.6720  140.2930 O   0  0  0  0  0  1  0  0  0  0  0  0
  185.9400  177.4740  140.3820 C   0  0  0  0  0  0  0  0  0  0  0  0
  186.6950  177.4590  139.2180 O   0  0  0  0  0  0  0  0  0  0  0  0
  1  5  1  6  0  0  0
  2  3  1  0  0  0  0
  3  1  1  0  0  0  0
  4  3  2  0  0  0  0
  5  6  2  0  0  0  0
  6  7  2  0  0  0  0
  8  7  1  0  0  0  0
  8  9  1  1  0  0  0
 10  8  1  0  0  0  0
 11 10  1  0  0  0  0
 12 11  1  0  0  0  0
 13 12  1  0  0  0  0
 15 30  1  6  0  0  0
 15 27  1  0  0  0  0
 15 18  1  0  0  0  0
 16 15  1  0  0  0  0
 16 27  1  0  0  0  0
 18 14  1  0  0  0  0
 20 21  1  0  0  0  0
 20 26  1  0  0  0  0
 21 14  1  1  0  0  0
 21 25  1  0  0  0  0
 23 28  1  0  0  0  0
 24 22  2  0  0  0  0
 24 29  1  0  0  0  0
 25 28  1  0  0  0  0
 26 19  1  6  0  0  0
 26 23  1  0  0  0  0
 27 17  1  1  0  0  0
 27 21  1  0  0  0  0
 28 24  1  0  0  0  0
 29 13  1  0  0  0  0
 30 31  1  1  0  0  0
 33 32  1  0  0  0  0
 33 30  1  0  0  0  0
 34 33  2  0  0  0  0
 35 43  1  0  0  0  0
 35  1  1  0  0  0  0
 36 38  1  1  0  0  0
 36 42  1  0  0  0  0
 36 43  1  0  0  0  0
 39 44  1  0  0  0  0
 39 38  1  0  0  0  0
 41 40  1  0  0  0  0
 42 40  1  1  0  0  0
 42 45  1  0  0  0  0
 43 46  2  0  0  0  0
 44 41  1  0  0  0  0
 45 49  1  6  0  0  0
 45 46  1  0  0  0  0
 46 37  1  0  0  0  0
 48 47  2  0  0  0  0
 49 48  1  0  0  0  0
 50 48  1  0  0  0  0
 51 55  1  0  0  0  0
 52 50  2  0  0  0  0
 52 56  1  0  0  0  0
 53 52  1  0  0  0  0
 54 51  2  0  0  0  0
 54 57  1  0  0  0  0
 56 55  1  6  0  0  0
 56 61  1  0  0  0  0
 57 58  1  6  0  0  0
 57 53  1  0  0  0  0
 59 63  1  0  0  0  0
 60 61  1  0  0  0  0
 60 59  1  0  0  0  0
 61 62  1  1  0  0  0
 62 64  1  0  0  0  0
 63 64  1  0  0  0  0
 65 66  1  0  0  0  0
 66 54  1  0  0  0  0
 67 66  2  0  0  0  0
M  END
>  <MODEL>
1

>  <REMARK>
 VINA RESULT:      -6.3      0.000      0.000
  Name = 
  16 active torsions:
  status: ('A' for Active; 'I' for Inactive)
    1  A    between atoms: C_2  and  C_13
    2  A    between atoms: C_4  and  C_15
    3  A    between atoms: C_4  and  C_51
    4  A    between atoms: C_5  and  C_9
    5  A    between atoms: C_9  and  C_42
    6  A    between atoms: N_12  and  C_23
    7  A    between atoms: N_12  and  C_46
    8  A    between atoms: C_15  and  N_67
    9  A    between atoms: C_18  and  C_23
   10  A    between atoms: C_19  and  C_23
   11  A    between atoms: N_22  and  C_61
   12  A    between atoms: C_31  and  C_36
   13  A    between atoms: C_41  and  C_49
   14  A    between atoms: C_41  and  C_54
   15  A    between atoms: C_49  and  C_51
   16  A    between atoms: C_52  and  C_63
                            x       y       z     vdW  Elec       q    Type
                         _______ _______ _______ _____ _____    ______ ____

>  <TORSDO>
F 16

$$$$
=
 OpenBabel11042416593D

 67 73  0  0  1  0  0  0  0  0999 V2000
  187.4400  176.3790  141.6930 C   0  0  1  0  0  3  0  0  0  0  0  0
  189.1680  178.2540  141.5860 N   0  0  0  0  0  1  0  0  0  0  0  0
  188.7700  176.9650  142.0580 C   0  0  0  0  0  0  0  0  0  0  0  0
  189.5390  176.3240  142.8140 O   0  0  0  0  0  0  0  0  0  0  0  0
  186.3710  177.4130  141.5590 C   0  0  0  0  0  3  0  0  0  0  0  0
  186.0390  178.1610  142.5750 C   0  0  0  0  0  0  0  0  0  0  0  0
  185.6980  178.9240  143.5760 C   0  0  0  0  0  3  0  0  0  0  0  0
  184.3020  178.9000  144.0920 C   0  0  2  0  0  3  0  0  0  0  0  0
  183.8830  180.2540  144.4050 N   0  0  0  0  0  1  0  0  0  0  0  0
  184.2380  178.0350  145.3380 C   0  0  0  0  0  2  0  0  0  0  0  0
  185.5790  178.0410  146.0530 C   0  0  0  0  0  2  0  0  0  0  0  0
  185.7500  176.7750  146.8820 C   0  0  0  0  0  2  0  0  0  0  0  0
  187.2080  176.3480  146.9060 C   0  0  0  0  0  2  0  0  0  0  0  0
  193.3510  174.3590  145.5840 C   0  0  0  0  0  2  0  0  0  0  0  0
  194.1350  175.2450  143.6860 C   0  0  2  0  0  0  0  0  0  0  0  0
  193.2030  174.8780  142.6870 O   0  0  0  0  0  0  0  0  0  0  0  0
  192.5530  177.0550  143.4240 O   0  0  0  0  0  1  0  0  0  0  0  0
  194.3730  174.2260  144.6210 O   0  0  0  0  0  0  0  0  0  0  0  0
  189.6870  172.5550  145.3170 O   0  0  0  0  0  1  0  0  0  0  0  0
  191.1900  174.0950  144.5370 O   0  0  0  0  0  0  0  0  0  0  0  0
  192.1490  175.0540  144.9570 C   0  0  1  0  0  0  0  0  0  0  0  0
  190.0610  178.4420  145.9070 O   0  0  0  0  0  0  0  0  0  0  0  0
  189.4260  174.8360  145.9450 C   0  0  0  0  0  2  0  0  0  0  0  0
  189.4370  177.3680  146.1120 C   0  0  0  0  0  0  0  0  0  0  0  0
  191.6000  176.1300  145.9230 C   0  0  0  0  0  2  0  0  0  0  0  0
  190.3960  173.7120  145.6340 C   0  0  1  0  0  3  0  0  0  0  0  0
  192.7460  175.7060  143.7390 C   0  0  2  0  0  0  0  0  0  0  0  0
  190.1350  176.1150  145.9900 N   0  0  0  0  0  0  0  0  0  0  0  0
  188.0570  177.4580  146.4980 N   0  0  0  0  0  2  0  0  0  0  0  0
  195.3080  176.1320  143.2210 C   0  0  1  0  0  3  0  0  0  0  0  0
  196.0600  176.5510  144.3200 O   0  0  0  0  0  1  0  0  0  0  0  0
  196.9590  174.3260  142.5480 N   0  0  0  0  0  1  0  0  0  0  0  0
  196.2150  175.4910  142.2140 C   0  0  0  0  0  0  0  0  0  0  0  0
  196.3660  176.0350  141.0530 N   0  0  0  0  0  2  0  0  0  0  0  0
  187.5550  175.6130  140.4580 N   0  0  0  0  0  2  0  0  0  0  0  0
  189.1970  174.1380  139.1670 C   0  0  2  0  0  3  0  0  0  0  0  0
  187.7900  173.5210  142.4970 O   0  0  0  0  0  1  0  0  0  0  0  0
  188.4360  174.2850  137.8510 C   0  0  0  0  0  2  0  0  0  0  0  0
  189.3560  174.0430  136.6690 C   0  0  0  0  0  2  0  0  0  0  0  0
  189.2560  171.6140  138.5500 C   0  0  0  0  0  2  0  0  0  0  0  0
  189.9740  171.6480  137.2110 C   0  0  0  0  0  2  0  0  0  0  0  0
  189.7760  172.7310  139.4570 C   0  0  2  0  0  3  0  0  0  0  0  0
  188.3170  174.4070  140.3300 C   0  0  0  0  0  0  0  0  0  0  0  0
  189.2850  172.5850  136.2290 C   0  0  0  0  0  2  0  0  0  0  0  0
  189.4020  172.4110  140.9060 C   0  0  2  0  0  3  0  0  0  0  0  0
  188.4390  173.4790  141.2660 C   0  0  0  0  0  0  0  0  0  0  0  0
  190.6870  170.2610  142.2720 O   0  0  0  0  0  0  0  0  0  0  0  0
  191.2380  171.3940  142.3280 C   0  0  0  0  0  0  0  0  0  0  0  0
  190.5900  172.5290  141.7440 N   0  0  0  0  0  2  0  0  0  0  0  0
  192.5640  171.5740  142.9470 C   0  0  0  0  0  3  0  0  0  0  0  0
  194.9550  168.1660  143.3070 C   0  0  0  0  0  3  0  0  0  0  0  0
  193.6740  170.8690  142.7010 C   0  0  0  0  0  0  0  0  0  0  0  0
  194.9060  171.2770  143.4490 C   0  0  0  0  0  2  0  0  0  0  0  0
  195.8980  169.0000  143.7750 C   0  0  0  0  0  0  0  0  0  0  0  0
  193.9990  168.4400  142.3110 O   0  0  0  0  0  0  0  0  0  0  0  0
  193.6810  169.7060  141.7290 C   0  0  2  0  0  3  0  0  0  0  0  0
  196.0820  170.3630  143.1610 C   0  0  2  0  0  3  0  0  0  0  0  0
  197.2750  170.9770  143.5390 O   0  0  0  0  0  1  0  0  0  0  0  0
  195.2790  171.3800  138.9190 C   0  0  0  0  0  2  0  0  0  0  0  0
  194.3820  171.2830  139.9990 O   0  0  0  0  0  0  0  0  0  0  0  0
  194.3210  169.9230  140.3520 C   0  0  2  0  0  3  0  0  0  0  0  0
  193.6090  169.1170  139.2580 C   0  0  0  0  0  2  0  0  0  0  0  0
  194.6650  170.7460  137.6710 C   0  0  0  0  0  2  0  0  0  0  0  0
  194.3860  169.2710  137.9530 C   0  0  0  0  0  2  0  0  0  0  0  0
  197.9410  168.2090  144.7150 O   0  0  0  0  0  0  0  0  0  0  0  0
  196.7390  168.5250  144.9060 C   0  0  0  0  0  0  0  0  0  0  0  0
  196.2180  168.4050  146.1870 O   0  0  0  0  0  1  0  0  0  0  0  0
  1  5  1  6  0  0  0
  1  3  1  0  0  0  0
  2  3  1  0  0  0  0
  3  4  2  0  0  0  0
  5  6  2  0  0  0  0
  6  7  2  0  0  0  0
  7  8  1  0  0  0  0
  8  9  1  1  0  0  0
  8 10  1  0  0  0  0
 10 11  1  0  0  0  0
 11 12  1  0  0  0  0
 12 13  1  0  0  0  0
 15 30  1  6  0  0  0
 15 27  1  0  0  0  0
 15 18  1  0  0  0  0
 16 15  1  0  0  0  0
 16 27  1  0  0  0  0
 18 14  1  0  0  0  0
 20 21  1  0  0  0  0
 20 26  1  0  0  0  0
 21 14  1  1  0  0  0
 21 25  1  0  0  0  0
 22 24  2  0  0  0  0
 23 28  1  0  0  0  0
 24 29  1  0  0  0  0
 25 28  1  0  0  0  0
 26 19  1  6  0  0  0
 26 23  1  0  0  0  0
 27 17  1  6  0  0  0
 27 21  1  0  0  0  0
 28 24  1  0  0  0  0
 29 13  1  0  0  0  0
 30 31  1  1  0  0  0
 33 32  1  0  0  0  0
 33 30  1  0  0  0  0
 34 33  2  0  0  0  0
 35  1  1  0  0  0  0
 36 38  1  6  0  0  0
 36 42  1  0  0  0  0
 36 43  1  0  0  0  0
 39 38  1  0  0  0  0
 41 40  1  0  0  0  0
 42 40  1  6  0  0  0
 42 45  1  0  0  0  0
 43 35  1  0  0  0  0
 43 46  2  0  0  0  0
 44 39  1  0  0  0  0
 44 41  1  0  0  0  0
 45 46  1  0  0  0  0
 45 49  1  1  0  0  0
 46 37  1  0  0  0  0
 47 48  2  0  0  0  0
 48 50  1  0  0  0  0
 49 48  1  0  0  0  0
 51 54  2  0  0  0  0
 52 50  2  0  0  0  0
 52 53  1  0  0  0  0
 54 66  1  0  0  0  0
 55 51  1  0  0  0  0
 56 55  1  1  0  0  0
 56 52  1  0  0  0  0
 57 53  1  0  0  0  0
 57 58  1  1  0  0  0
 57 54  1  0  0  0  0
 59 60  1  0  0  0  0
 60 61  1  0  0  0  0
 61 62  1  6  0  0  0
 61 56  1  0  0  0  0
 63 64  1  0  0  0  0
 63 59  1  0  0  0  0
 64 62  1  0  0  0  0
 65 66  2  0  0  0  0
 66 67  1  0  0  0  0
M  END
>  <MODEL>
2

>  <REMARK>
 VINA RESULT:      -6.1      2.789     10.496
  Name = 
  16 active torsions:
  status: ('A' for Active; 'I' for Inactive)
    1  A    between atoms: C_2  and  C_13
    2  A    between atoms: C_4  and  C_15
    3  A    between atoms: C_4  and  C_51
    4  A    between atoms: C_5  and  C_9
    5  A    between atoms: C_9  and  C_42
    6  A    between atoms: N_12  and  C_23
    7  A    between atoms: N_12  and  C_46
    8  A    between atoms: C_15  and  N_67
    9  A    between atoms: C_18  and  C_23
   10  A    between atoms: C_19  and  C_23
   11  A    between atoms: N_22  and  C_61
   12  A    between atoms: C_31  and  C_36
   13  A    between atoms: C_41  and  C_49
   14  A    between atoms: C_41  and  C_54
   15  A    between atoms: C_49  and  C_51
   16  A    between atoms: C_52  and  C_63
                            x       y       z     vdW  Elec       q    Type
                         _______ _______ _______ _____ _____    ______ ____

>  <TORSDO>
F 16

$$$$
=
 OpenBabel11042416593D

 67 73  0  0  1  0  0  0  0  0999 V2000
  187.5370  175.7940  141.8230 C   0  0  1  0  0  3  0  0  0  0  0  0
  189.1130  177.8000  141.8930 N   0  0  0  0  0  1  0  0  0  0  0  0
  188.7340  176.5080  142.3730 C   0  0  0  0  0  0  0  0  0  0  0  0
  189.4030  175.9750  143.2910 O   0  0  0  0  0  0  0  0  0  0  0  0
  186.2560  176.5020  142.1180 C   0  0  0  0  0  3  0  0  0  0  0  0
  186.2040  177.4220  143.0410 C   0  0  0  0  0  0  0  0  0  0  0  0
  186.1320  178.3500  143.9540 C   0  0  0  0  0  3  0  0  0  0  0  0
  185.2170  178.1850  145.1170 C   0  0  2  0  0  3  0  0  0  0  0  0
  185.3740  179.3150  146.0150 N   0  0  0  0  0  1  0  0  0  0  0  0
  185.5500  176.8940  145.8440 C   0  0  0  0  0  2  0  0  0  0  0  0
  187.0290  176.8540  146.1970 C   0  0  0  0  0  2  0  0  0  0  0  0
  187.2780  175.8980  147.3550 C   0  0  0  0  0  2  0  0  0  0  0  0
  188.6050  175.1790  147.1740 C   0  0  0  0  0  2  0  0  0  0  0  0
  194.0860  172.6640  144.5150 C   0  0  0  0  0  2  0  0  0  0  0  0
  195.0600  174.0850  143.0880 C   0  0  2  0  0  0  0  0  0  0  0  0
  194.0670  174.3950  142.1300 O   0  0  0  0  0  0  0  0  0  0  0  0
  193.9610  176.1280  143.7690 O   0  0  0  0  0  1  0  0  0  0  0  0
  195.0450  172.7380  143.4840 O   0  0  0  0  0  0  0  0  0  0  0  0
  190.0950  171.9960  143.9020 O   0  0  0  0  0  1  0  0  0  0  0  0
  191.9240  173.3530  143.6830 O   0  0  0  0  0  0  0  0  0  0  0  0
  193.0870  173.8050  144.3620 C   0  0  1  0  0  0  0  0  0  0  0  0
  191.8780  176.8210  146.8480 O   0  0  0  0  0  0  0  0  0  0  0  0
  190.3920  173.7830  145.4470 C   0  0  0  0  0  2  0  0  0  0  0  0
  191.0130  175.9280  146.6510 C   0  0  0  0  0  0  0  0  0  0  0  0
  192.8130  174.4530  145.7400 C   0  0  0  0  0  2  0  0  0  0  0  0
  191.0620  172.7200  144.5970 C   0  0  1  0  0  3  0  0  0  0  0  0
  193.8230  174.7680  143.4710 C   0  0  2  0  0  0  0  0  0  0  0  0
  191.3880  174.7310  145.9460 N   0  0  0  0  0  0  0  0  0  0  0  0
  189.6960  176.1420  147.1800 N   0  0  0  0  0  2  0  0  0  0  0  0
  196.4120  174.8060  142.9150 C   0  0  1  0  0  3  0  0  0  0  0  0
  197.4560  173.9790  143.3340 O   0  0  0  0  0  1  0  0  0  0  0  0
  196.1040  176.4950  141.0460 N   0  0  0  0  0  1  0  0  0  0  0  0
  196.6890  175.2900  141.5240 C   0  0  0  0  0  0  0  0  0  0  0  0
  197.4200  174.5760  140.7330 N   0  0  0  0  0  2  0  0  0  0  0  0
  187.6870  175.6050  140.3850 N   0  0  0  0  0  2  0  0  0  0  0  0
  189.0290  174.5350  138.4900 C   0  0  2  0  0  3  0  0  0  0  0  0
  187.9420  172.9590  141.6170 O   0  0  0  0  0  1  0  0  0  0  0  0
  188.1460  175.1390  137.4000 C   0  0  0  0  0  2  0  0  0  0  0  0
  188.9040  175.2400  136.0890 C   0  0  0  0  0  2  0  0  0  0  0  0
  188.7780  172.3450  137.1130 C   0  0  0  0  0  2  0  0  0  0  0  0
  189.3450  172.7670  135.7680 C   0  0  0  0  0  2  0  0  0  0  0  0
  189.4990  173.0800  138.2460 C   0  0  2  0  0  3  0  0  0  0  0  0
  188.3110  174.4640  139.7860 C   0  0  0  0  0  0  0  0  0  0  0  0
  188.6460  174.0070  135.2300 C   0  0  0  0  0  2  0  0  0  0  0  0
  189.2570  172.3310  139.5590 C   0  0  2  0  0  3  0  0  0  0  0  0
  188.4450  173.2780  140.3600 C   0  0  0  0  0  0  0  0  0  0  0  0
  190.4850  169.7900  139.9720 O   0  0  0  0  0  0  0  0  0  0  0  0
  191.1380  170.8120  140.3180 C   0  0  0  0  0  0  0  0  0  0  0  0
  190.5350  172.1070  140.2250 N   0  0  0  0  0  2  0  0  0  0  0  0
  192.5350  170.7120  140.7810 C   0  0  0  0  0  3  0  0  0  0  0  0
  195.3500  169.3730  137.9980 C   0  0  0  0  0  3  0  0  0  0  0  0
  193.6430  170.8590  140.0450 C   0  0  0  0  0  0  0  0  0  0  0  0
  194.9490  170.7370  140.7700 C   0  0  0  0  0  2  0  0  0  0  0  0
  196.2620  169.6180  138.9530 C   0  0  0  0  0  0  0  0  0  0  0  0
  194.1730  170.1020  137.7420 O   0  0  0  0  0  0  0  0  0  0  0  0
  193.5810  171.1190  138.5540 C   0  0  2  0  0  3  0  0  0  0  0  0
  196.1360  170.8360  139.8320 C   0  0  2  0  0  3  0  0  0  0  0  0
  197.2980  171.1130  140.5510 O   0  0  0  0  0  1  0  0  0  0  0  0
  194.0500  174.7290  138.5840 C   0  0  0  0  0  2  0  0  0  0  0  0
  193.4310  173.5230  138.9620 O   0  0  0  0  0  0  0  0  0  0  0  0
  193.8720  172.5410  138.0580 C   0  0  2  0  0  3  0  0  0  0  0  0
  193.2820  172.7920  136.6640 C   0  0  0  0  0  2  0  0  0  0  0  0
  193.4700  175.2210  137.2580 C   0  0  0  0  0  2  0  0  0  0  0  0
  193.7330  174.1690  136.1830 C   0  0  0  0  0  2  0  0  0  0  0  0
  197.9410  168.1660  138.0850 O   0  0  0  0  0  0  0  0  0  0  0  0
  197.3820  168.6510  139.1020 C   0  0  0  0  0  0  0  0  0  0  0  0
  197.8240  168.2520  140.3550 O   0  0  0  0  0  1  0  0  0  0  0  0
  1  5  1  6  0  0  0
  1  3  1  0  0  0  0
  2  3  1  0  0  0  0
  3  4  2  0  0  0  0
  5  6  2  0  0  0  0
  6  7  2  0  0  0  0
  7  8  1  0  0  0  0
  8 10  1  0  0  0  0
  8  9  1  1  0  0  0
 10 11  1  0  0  0  0
 11 12  1  0  0  0  0
 13 29  1  0  0  0  0
 13 12  1  0  0  0  0
 15 30  1  6  0  0  0
 15 27  1  0  0  0  0
 15 18  1  0  0  0  0
 16 15  1  0  0  0  0
 16 27  1  0  0  0  0
 18 14  1  0  0  0  0
 20 21  1  0  0  0  0
 20 26  1  0  0  0  0
 21 14  1  1  0  0  0
 21 25  1  0  0  0  0
 23 28  1  0  0  0  0
 24 22  2  0  0  0  0
 24 29  1  0  0  0  0
 25 28  1  0  0  0  0
 26 19  1  6  0  0  0
 26 23  1  0  0  0  0
 27 17  1  1  0  0  0
 27 21  1  0  0  0  0
 28 24  1  0  0  0  0
 30 31  1  6  0  0  0
 32 33  1  0  0  0  0
 33 30  1  0  0  0  0
 34 33  2  0  0  0  0
 35  1  1  0  0  0  0
 36 38  1  6  0  0  0
 36 43  1  0  0  0  0
 39 38  1  0  0  0  0
 41 40  1  0  0  0  0
 42 40  1  6  0  0  0
 42 36  1  0  0  0  0
 42 45  1  0  0  0  0
 43 46  2  0  0  0  0
 43 35  1  0  0  0  0
 44 41  1  0  0  0  0
 44 39  1  0  0  0  0
 45 49  1  1  0  0  0
 45 46  1  0  0  0  0
 46 37  1  0  0  0  0
 47 48  2  0  0  0  0
 48 50  1  0  0  0  0
 49 48  1  0  0  0  0
 51 54  2  0  0  0  0
 52 53  1  0  0  0  0
 52 50  2  0  0  0  0
 54 66  1  0  0  0  0
 54 57  1  0  0  0  0
 55 51  1  0  0  0  0
 56 55  1  6  0  0  0
 56 52  1  0  0  0  0
 57 58  1  1  0  0  0
 57 53  1  0  0  0  0
 59 60  1  0  0  0  0
 61 62  1  6  0  0  0
 61 56  1  0  0  0  0
 61 60  1  0  0  0  0
 63 59  1  0  0  0  0
 64 62  1  0  0  0  0
 64 63  1  0  0  0  0
 65 66  2  0  0  0  0
 66 67  1  0  0  0  0
M  END
>  <MODEL>
3

>  <REMARK>
 VINA RESULT:      -5.6      2.870     10.074
  Name = 
  16 active torsions:
  status: ('A' for Active; 'I' for Inactive)
    1  A    between atoms: C_2  and  C_13
    2  A    between atoms: C_4  and  C_15
    3  A    between atoms: C_4  and  C_51
    4  A    between atoms: C_5  and  C_9
    5  A    between atoms: C_9  and  C_42
    6  A    between atoms: N_12  and  C_23
    7  A    between atoms: N_12  and  C_46
    8  A    between atoms: C_15  and  N_67
    9  A    between atoms: C_18  and  C_23
   10  A    between atoms: C_19  and  C_23
   11  A    between atoms: N_22  and  C_61
   12  A    between atoms: C_31  and  C_36
   13  A    between atoms: C_41  and  C_49
   14  A    between atoms: C_41  and  C_54
   15  A    between atoms: C_49  and  C_51
   16  A    between atoms: C_52  and  C_63
                            x       y       z     vdW  Elec       q    Type
                         _______ _______ _______ _____ _____    ______ ____

>  <TORSDO>
F 16

$$$$
=
 OpenBabel11042416593D

 67 73  0  0  1  0  0  0  0  0999 V2000
  186.9410  177.2510  145.3610 C   0  0  1  0  0  3  0  0  0  0  0  0
  185.9420  179.4930  146.0580 N   0  0  0  0  0  1  0  0  0  0  0  0
  186.6610  178.3030  146.3900 C   0  0  0  0  0  0  0  0  0  0  0  0
  187.0410  178.1260  147.5730 O   0  0  0  0  0  0  0  0  0  0  0  0
  185.7630  176.9700  144.4870 C   0  0  0  0  0  3  0  0  0  0  0  0
  185.8540  177.0890  143.1910 C   0  0  0  0  0  0  0  0  0  0  0  0
  185.9280  177.1940  141.8940 C   0  0  0  0  0  3  0  0  0  0  0  0
  185.0470  178.1540  141.1720 C   0  0  2  0  0  3  0  0  0  0  0  0
  183.6640  177.9000  141.5330 N   0  0  0  0  0  1  0  0  0  0  0  0
  185.2320  177.9830  139.6740 C   0  0  0  0  0  2  0  0  0  0  0  0
  186.4980  177.1910  139.3860 C   0  0  0  0  0  2  0  0  0  0  0  0
  186.8800  177.3060  137.9180 C   0  0  0  0  0  2  0  0  0  0  0  0
  186.3240  176.1320  137.1300 C   0  0  0  0  0  2  0  0  0  0  0  0
  191.6540  172.3060  137.7620 C   0  0  0  0  0  2  0  0  0  0  0  0
  191.8290  170.8220  136.0980 C   0  0  2  0  0  0  0  0  0  0  0  0
  190.6160  170.0940  136.1150 O   0  0  0  0  0  0  0  0  0  0  0  0
  190.3130  171.8390  134.5130 O   0  0  0  0  0  1  0  0  0  0  0  0
  192.3120  171.1180  137.3820 O   0  0  0  0  0  0  0  0  0  0  0  0
  188.0290  172.4230  139.6590 O   0  0  0  0  0  1  0  0  0  0  0  0
  189.2640  171.9530  137.7910 O   0  0  0  0  0  0  0  0  0  0  0  0
  190.3420  172.4270  136.9970 C   0  0  1  0  0  0  0  0  0  0  0  0
  188.7900  175.3000  134.5320 O   0  0  0  0  0  0  0  0  0  0  0  0
  188.0660  174.0020  137.8780 C   0  0  0  0  0  2  0  0  0  0  0  0
  188.2230  175.2110  135.6530 C   0  0  0  0  0  0  0  0  0  0  0  0
  190.1670  173.8730  136.4760 C   0  0  0  0  0  2  0  0  0  0  0  0
  188.8450  172.9680  138.6690 C   0  0  1  0  0  3  0  0  0  0  0  0
  190.5460  171.4810  135.8450 C   0  0  2  0  0  0  0  0  0  0  0  0
  188.7990  174.3670  136.6660 N   0  0  0  0  0  0  0  0  0  0  0  0
  187.0410  175.9960  135.8700 N   0  0  0  0  0  2  0  0  0  0  0  0
  192.8260  170.4440  134.9850 C   0  0  1  0  0  3  0  0  0  0  0  0
  193.4790  171.5850  134.5160 O   0  0  0  0  0  1  0  0  0  0  0  0
  195.2340  169.6930  135.2700 N   0  0  0  0  0  2  0  0  0  0  0  0
  193.8430  169.4160  135.3790 C   0  0  0  0  0  0  0  0  0  0  0  0
  193.4520  168.2470  135.7660 N   0  0  0  0  0  1  0  0  0  0  0  0
  188.0870  177.6420  144.5480 N   0  0  0  0  0  2  0  0  0  0  0  0
  189.8170  176.0460  145.5470 C   0  0  2  0  0  3  0  0  0  0  0  0
  190.4520  179.1630  143.7220 O   0  0  0  0  0  1  0  0  0  0  0  0
  189.0420  175.8770  146.8520 C   0  0  0  0  0  2  0  0  0  0  0  0
  189.4060  174.5670  147.5270 C   0  0  0  0  0  2  0  0  0  0  0  0
  191.8690  176.3580  147.1110 C   0  0  0  0  0  2  0  0  0  0  0  0
  191.8680  175.0440  147.8750 C   0  0  0  0  0  2  0  0  0  0  0  0
  191.3560  176.1410  145.6860 C   0  0  2  0  0  3  0  0  0  0  0  0
  189.4440  177.3060  144.8600 C   0  0  0  0  0  0  0  0  0  0  0  0
  190.5240  174.7830  148.5400 C   0  0  0  0  0  2  0  0  0  0  0  0
  191.7870  177.3240  144.8150 C   0  0  2  0  0  3  0  0  0  0  0  0
  190.5080  177.9850  144.4610 C   0  0  0  0  0  0  0  0  0  0  0  0
  194.5080  176.4960  144.5950 O   0  0  0  0  0  0  0  0  0  0  0  0
  193.7710  176.3360  143.5850 C   0  0  0  0  0  0  0  0  0  0  0  0
  192.4240  176.8210  143.6040 N   0  0  0  0  0  2  0  0  0  0  0  0
  194.2500  175.6190  142.3880 C   0  0  0  0  0  3  0  0  0  0  0  0
  195.1130  171.5570  142.8480 C   0  0  0  0  0  3  0  0  0  0  0  0
  194.0730  174.3260  142.0970 C   0  0  0  0  0  0  0  0  0  0  0  0
  194.6390  173.8500  140.7940 C   0  0  0  0  0  2  0  0  0  0  0  0
  195.3410  171.5580  141.5250 C   0  0  0  0  0  0  0  0  0  0  0  0
  194.1500  172.3110  143.5440 O   0  0  0  0  0  0  0  0  0  0  0  0
  193.3520  173.3860  143.0420 C   0  0  2  0  0  3  0  0  0  0  0  0
  194.4580  172.3570  140.6010 C   0  0  2  0  0  3  0  0  0  0  0  0
  194.6250  172.0190  139.2580 O   0  0  0  0  0  1  0  0  0  0  0  0
  189.7780  173.6190  142.3910 C   0  0  0  0  0  2  0  0  0  0  0  0
  190.9720  173.9380  143.0640 O   0  0  0  0  0  0  0  0  0  0  0  0
  191.9190  172.9690  142.6890 C   0  0  2  0  0  3  0  0  0  0  0  0
  191.5560  171.6050  143.2910 C   0  0  0  0  0  2  0  0  0  0  0  0
  189.1790  172.3370  142.9710 C   0  0  0  0  0  2  0  0  0  0  0  0
  190.1770  171.1960  142.7800 C   0  0  0  0  0  2  0  0  0  0  0  0
  197.6270  171.2640  140.9150 O   0  0  0  0  0  1  0  0  0  0  0  0
  196.4840  170.7510  141.0200 C   0  0  0  0  0  0  0  0  0  0  0  0
  196.3140  169.4270  140.6390 O   0  0  0  0  0  0  0  0  0  0  0  0
  1  5  1  6  0  0  0
  1  3  1  0  0  0  0
  2  3  1  0  0  0  0
  3  4  2  0  0  0  0
  6  5  2  0  0  0  0
  7  6  2  0  0  0  0
  8  9  1  6  0  0  0
  8  7  1  0  0  0  0
 10  8  1  0  0  0  0
 11 10  1  0  0  0  0
 12 11  1  0  0  0  0
 13 12  1  0  0  0  0
 15 30  1  6  0  0  0
 15 16  1  0  0  0  0
 15 18  1  0  0  0  0
 18 14  1  0  0  0  0
 20 26  1  0  0  0  0
 21 25  1  6  0  0  0
 21 14  1  0  0  0  0
 21 20  1  0  0  0  0
 22 24  2  0  0  0  0
 23 26  1  0  0  0  0
 24 29  1  0  0  0  0
 24 28  1  0  0  0  0
 25 28  1  0  0  0  0
 26 19  1  1  0  0  0
 27 17  1  6  0  0  0
 27 15  1  0  0  0  0
 27 16  1  0  0  0  0
 27 21  1  0  0  0  0
 28 23  1  0  0  0  0
 29 13  1  0  0  0  0
 30 31  1  1  0  0  0
 30 33  1  0  0  0  0
 32 33  2  0  0  0  0
 33 34  1  0  0  0  0
 35 43  1  0  0  0  0
 35  1  1  0  0  0  0
 36 42  1  0  0  0  0
 36 38  1  1  0  0  0
 37 46  1  0  0  0  0
 38 39  1  0  0  0  0
 39 44  1  0  0  0  0
 40 41  1  0  0  0  0
 41 44  1  0  0  0  0
 42 40  1  1  0  0  0
 43 36  1  0  0  0  0
 45 49  1  6  0  0  0
 45 42  1  0  0  0  0
 46 45  1  0  0  0  0
 46 43  2  0  0  0  0
 48 49  1  0  0  0  0
 48 47  2  0  0  0  0
 50 48  1  0  0  0  0
 51 55  1  0  0  0  0
 52 50  2  0  0  0  0
 53 52  1  0  0  0  0
 54 51  2  0  0  0  0
 56 52  1  6  0  0  0
 56 55  1  0  0  0  0
 57 58  1  6  0  0  0
 57 53  1  0  0  0  0
 57 54  1  0  0  0  0
 59 63  1  0  0  0  0
 59 60  1  0  0  0  0
 61 56  1  0  0  0  0
 61 60  1  0  0  0  0
 61 62  1  1  0  0  0
 64 63  1  0  0  0  0
 64 62  1  0  0  0  0
 65 66  1  0  0  0  0
 66 54  1  0  0  0  0
 67 66  2  0  0  0  0
M  END
>  <MODEL>
4

>  <REMARK>
 VINA RESULT:      -5.3      2.893      8.661
  Name = 
  16 active torsions:
  status: ('A' for Active; 'I' for Inactive)
    1  A    between atoms: C_2  and  C_13
    2  A    between atoms: C_4  and  C_15
    3  A    between atoms: C_4  and  C_51
    4  A    between atoms: C_5  and  C_9
    5  A    between atoms: C_9  and  C_42
    6  A    between atoms: N_12  and  C_23
    7  A    between atoms: N_12  and  C_46
    8  A    between atoms: C_15  and  N_67
    9  A    between atoms: C_18  and  C_23
   10  A    between atoms: C_19  and  C_23
   11  A    between atoms: N_22  and  C_61
   12  A    between atoms: C_31  and  C_36
   13  A    between atoms: C_41  and  C_49
   14  A    between atoms: C_41  and  C_54
   15  A    between atoms: C_49  and  C_51
   16  A    between atoms: C_52  and  C_63
                            x       y       z     vdW  Elec       q    Type
                         _______ _______ _______ _____ _____    ______ ____

>  <TORSDO>
F 16

$$$$
=
 OpenBabel11042416593D

 67 73  0  0  1  0  0  0  0  0999 V2000
  195.0700  170.5270  144.7840 C   0  0  1  0  0  3  0  0  0  0  0  0
  194.4540  168.9660  146.7070 N   0  0  0  0  0  1  0  0  0  0  0  0
  194.4100  169.2910  145.3160 C   0  0  0  0  0  0  0  0  0  0  0  0
  193.7820  168.5400  144.5300 O   0  0  0  0  0  0  0  0  0  0  0  0
  196.3550  170.2380  144.0810 C   0  0  0  0  0  3  0  0  0  0  0  0
  196.4480  170.3710  142.7870 C   0  0  0  0  0  0  0  0  0  0  0  0
  196.5640  170.5060  141.4950 C   0  0  0  0  0  3  0  0  0  0  0  0
  196.9280  169.3330  140.6520 C   0  0  2  0  0  3  0  0  0  0  0  0
  197.6640  168.3740  141.4560 N   0  0  0  0  0  1  0  0  0  0  0  0
  197.7810  169.7950  139.4840 C   0  0  0  0  0  2  0  0  0  0  0  0
  196.8980  170.2190  138.3210 C   0  0  0  0  0  2  0  0  0  0  0  0
  195.4630  170.4280  138.7850 C   0  0  0  0  0  2  0  0  0  0  0  0
  194.5320  169.4500  138.0900 C   0  0  0  0  0  2  0  0  0  0  0  0
  191.4290  174.9910  136.3270 C   0  0  0  0  0  2  0  0  0  0  0  0
  189.3130  174.6130  135.7090 C   0  0  2  0  0  0  0  0  0  0  0  0
  189.3910  173.6610  134.6650 O   0  0  0  0  0  0  0  0  0  0  0  0
  189.0190  172.4120  136.6660 O   0  0  0  0  0  1  0  0  0  0  0  0
  190.3340  175.5740  135.6570 O   0  0  0  0  0  0  0  0  0  0  0  0
  194.2510  172.6440  134.5150 O   0  0  0  0  0  1  0  0  0  0  0  0
  192.0920  172.9550  135.2080 O   0  0  0  0  0  0  0  0  0  0  0  0
  191.3070  173.4730  136.2730 C   0  0  1  0  0  0  0  0  0  0  0  0
  191.1930  170.5670  139.1500 O   0  0  0  0  0  0  0  0  0  0  0  0
  193.5400  171.6360  136.5520 C   0  0  0  0  0  2  0  0  0  0  0  0
  192.2530  170.5880  138.4710 C   0  0  0  0  0  0  0  0  0  0  0  0
  191.6300  172.8690  137.6600 C   0  0  0  0  0  2  0  0  0  0  0  0
  193.4290  172.8320  135.6260 C   0  0  1  0  0  3  0  0  0  0  0  0
  189.8530  173.2720  135.9430 C   0  0  2  0  0  0  0  0  0  0  0  0
  192.4810  171.6780  137.5590 N   0  0  0  0  0  0  0  0  0  0  0  0
  193.2020  169.5300  138.6750 N   0  0  0  0  0  2  0  0  0  0  0  0
  187.8910  175.0430  136.1250 C   0  0  1  0  0  3  0  0  0  0  0  0
  187.8350  175.2460  137.5040 O   0  0  0  0  0  1  0  0  0  0  0  0
  187.9890  177.5280  135.6220 N   0  0  0  0  0  1  0  0  0  0  0  0
  187.3760  176.2610  135.4200 C   0  0  0  0  0  0  0  0  0  0  0  0
  186.3290  176.1690  134.6690 N   0  0  0  0  0  2  0  0  0  0  0  0
  194.1580  171.2340  143.8920 N   0  0  0  0  0  2  0  0  0  0  0  0
  193.5820  173.3770  142.6220 C   0  0  2  0  0  3  0  0  0  0  0  0
  194.4920  173.0600  146.1590 O   0  0  0  0  0  1  0  0  0  0  0  0
  194.4280  172.9930  141.4080 C   0  0  0  0  0  2  0  0  0  0  0  0
  193.9330  173.7060  140.1630 C   0  0  0  0  0  2  0  0  0  0  0  0
  194.7380  175.6910  142.3670 C   0  0  0  0  0  2  0  0  0  0  0  0
  194.3310  176.0780  140.9550 C   0  0  0  0  0  2  0  0  0  0  0  0
  193.6300  174.8700  143.0300 C   0  0  2  0  0  3  0  0  0  0  0  0
  194.0330  172.6600  143.8390 C   0  0  0  0  0  0  0  0  0  0  0  0
  194.7080  175.0010  139.9480 C   0  0  0  0  0  2  0  0  0  0  0  0
  193.8380  174.8850  144.5470 C   0  0  2  0  0  3  0  0  0  0  0  0
  194.1600  173.4760  144.8740 C   0  0  0  0  0  0  0  0  0  0  0  0
  192.7340  177.5150  144.6280 O   0  0  0  0  0  0  0  0  0  0  0  0
  192.0450  176.5820  145.1230 C   0  0  0  0  0  0  0  0  0  0  0  0
  192.5880  175.2590  145.1980 N   0  0  0  0  0  2  0  0  0  0  0  0
  190.6650  176.8100  145.5920 C   0  0  0  0  0  3  0  0  0  0  0  0
  187.8410  177.8610  142.6980 C   0  0  0  0  0  3  0  0  0  0  0  0
  189.5350  176.6100  144.9060 C   0  0  0  0  0  0  0  0  0  0  0  0
  188.2530  176.8930  145.6290 C   0  0  0  0  0  2  0  0  0  0  0  0
  186.9440  177.7980  143.6940 C   0  0  0  0  0  0  0  0  0  0  0  0
  188.9790  177.0510  142.5280 O   0  0  0  0  0  0  0  0  0  0  0  0
  189.5490  176.1350  143.4670 C   0  0  2  0  0  3  0  0  0  0  0  0
  187.0400  176.7140  144.7380 C   0  0  2  0  0  3  0  0  0  0  0  0
  185.8860  176.5960  145.5110 O   0  0  0  0  0  1  0  0  0  0  0  0
  189.7740  172.5030  143.4000 C   0  0  0  0  0  2  0  0  0  0  0  0
  190.2880  173.8100  143.3310 O   0  0  0  0  0  0  0  0  0  0  0  0
  189.1860  174.6720  143.1870 C   0  0  2  0  0  3  0  0  0  0  0  0
  188.5460  174.4960  141.8040 C   0  0  0  0  0  2  0  0  0  0  0  0
  189.2130  172.0900  142.0390 C   0  0  0  0  0  2  0  0  0  0  0  0
  188.0860  173.0470  141.6590 C   0  0  0  0  0  2  0  0  0  0  0  0
  185.9400  179.7970  144.5170 O   0  0  0  0  0  1  0  0  0  0  0  0
  185.8690  178.8250  143.7220 C   0  0  0  0  0  0  0  0  0  0  0  0
  184.7620  178.7280  142.8910 O   0  0  0  0  0  0  0  0  0  0  0  0
  1  5  1  6  0  0  0
  1  3  1  0  0  0  0
  3  2  1  0  0  0  0
  4  3  2  0  0  0  0
  6  5  2  0  0  0  0
  7  6  2  0  0  0  0
  8  9  1  1  0  0  0
  8  7  1  0  0  0  0
 10  8  1  0  0  0  0
 11 12  1  0  0  0  0
 11 10  1  0  0  0  0
 13 29  1  0  0  0  0
 13 12  1  0  0  0  0
 15 27  1  0  0  0  0
 15 30  1  1  0  0  0
 16 15  1  0  0  0  0
 16 27  1  0  0  0  0
 18 15  1  0  0  0  0
 18 14  1  0  0  0  0
 20 26  1  0  0  0  0
 20 21  1  0  0  0  0
 21 14  1  1  0  0  0
 21 25  1  0  0  0  0
 23 28  1  0  0  0  0
 24 29  1  0  0  0  0
 24 22  2  0  0  0  0
 26 19  1  6  0  0  0
 26 23  1  0  0  0  0
 27 21  1  0  0  0  0
 27 17  1  1  0  0  0
 28 25  1  0  0  0  0
 28 24  1  0  0  0  0
 30 31  1  1  0  0  0
 33 32  1  0  0  0  0
 33 30  1  0  0  0  0
 34 33  2  0  0  0  0
 35  1  1  0  0  0  0
 36 38  1  6  0  0  0
 36 42  1  0  0  0  0
 36 43  1  0  0  0  0
 39 38  1  0  0  0  0
 41 40  1  0  0  0  0
 42 40  1  6  0  0  0
 42 45  1  0  0  0  0
 43 35  1  0  0  0  0
 43 46  2  0  0  0  0
 44 39  1  0  0  0  0
 44 41  1  0  0  0  0
 45 46  1  0  0  0  0
 45 49  1  1  0  0  0
 46 37  1  0  0  0  0
 47 48  2  0  0  0  0
 48 49  1  0  0  0  0
 48 50  1  0  0  0  0
 51 54  2  0  0  0  0
 52 50  2  0  0  0  0
 52 53  1  0  0  0  0
 54 66  1  0  0  0  0
 54 57  1  0  0  0  0
 55 51  1  0  0  0  0
 56 55  1  6  0  0  0
 56 52  1  0  0  0  0
 57 58  1  1  0  0  0
 57 53  1  0  0  0  0
 60 59  1  0  0  0  0
 61 62  1  6  0  0  0
 61 60  1  0  0  0  0
 61 56  1  0  0  0  0
 63 59  1  0  0  0  0
 64 62  1  0  0  0  0
 64 63  1  0  0  0  0
 66 65  1  0  0  0  0
 67 66  2  0  0  0  0
M  END
>  <MODEL>
5

>  <REMARK>
 VINA RESULT:      -5.3      2.123      3.794
  Name = 
  16 active torsions:
  status: ('A' for Active; 'I' for Inactive)
    1  A    between atoms: C_2  and  C_13
    2  A    between atoms: C_4  and  C_15
    3  A    between atoms: C_4  and  C_51
    4  A    between atoms: C_5  and  C_9
    5  A    between atoms: C_9  and  C_42
    6  A    between atoms: N_12  and  C_23
    7  A    between atoms: N_12  and  C_46
    8  A    between atoms: C_15  and  N_67
    9  A    between atoms: C_18  and  C_23
   10  A    between atoms: C_19  and  C_23
   11  A    between atoms: N_22  and  C_61
   12  A    between atoms: C_31  and  C_36
   13  A    between atoms: C_41  and  C_49
   14  A    between atoms: C_41  and  C_54
   15  A    between atoms: C_49  and  C_51
   16  A    between atoms: C_52  and  C_63
                            x       y       z     vdW  Elec       q    Type
                         _______ _______ _______ _____ _____    ______ ____

>  <TORSDO>
F 16

$$$$
=
 OpenBabel11042416593D

 67 73  0  0  1  0  0  0  0  0999 V2000
  191.5700  170.6470  136.5470 C   0  0  1  0  0  3  0  0  0  0  0  0
  190.0970  171.1800  134.5320 N   0  0  0  0  0  1  0  0  0  0  0  0
  191.0600  170.3390  135.1720 C   0  0  0  0  0  0  0  0  0  0  0  0
  191.5060  169.3400  134.5580 O   0  0  0  0  0  0  0  0  0  0  0  0
  193.0560  170.5470  136.6480 C   0  0  0  0  0  3  0  0  0  0  0  0
  193.6360  170.4240  137.8100 C   0  0  0  0  0  0  0  0  0  0  0  0
  194.2340  170.2920  138.9610 C   0  0  0  0  0  3  0  0  0  0  0  0
  195.2130  171.3180  139.4160 C   0  0  2  0  0  3  0  0  0  0  0  0
  196.2340  171.4900  138.3980 N   0  0  0  0  0  1  0  0  0  0  0  0
  195.8490  170.8680  140.7190 C   0  0  0  0  0  2  0  0  0  0  0  0
  196.8090  171.9300  141.2310 C   0  0  0  0  0  2  0  0  0  0  0  0
  197.6890  171.3680  142.3390 C   0  0  0  0  0  2  0  0  0  0  0  0
  197.0030  171.5110  143.6870 C   0  0  0  0  0  2  0  0  0  0  0  0
  191.2830  174.7860  143.7620 C   0  0  0  0  0  2  0  0  0  0  0  0
  190.9760  175.9040  145.6740 C   0  0  2  0  0  0  0  0  0  0  0  0
  191.0760  174.9320  146.6970 O   0  0  0  0  0  0  0  0  0  0  0  0
  193.2510  175.8960  146.4940 O   0  0  0  0  0  1  0  0  0  0  0  0
  190.3010  175.4390  144.5350 O   0  0  0  0  0  0  0  0  0  0  0  0
  192.2720  170.8340  144.1580 O   0  0  0  0  0  1  0  0  0  0  0  0
  192.2390  172.9550  145.0160 O   0  0  0  0  0  0  0  0  0  0  0  0
  192.4170  174.3210  144.6670 C   0  0  1  0  0  0  0  0  0  0  0  0
  196.4500  175.0060  144.6850 O   0  0  0  0  0  0  0  0  0  0  0  0
  194.2470  172.1570  144.0290 C   0  0  0  0  0  2  0  0  0  0  0  0
  196.1200  173.8350  144.3590 C   0  0  0  0  0  0  0  0  0  0  0  0
  193.7800  174.6430  144.0120 C   0  0  0  0  0  2  0  0  0  0  0  0
  192.7300  172.1380  143.9820 C   0  0  1  0  0  3  0  0  0  0  0  0
  192.2190  175.1630  145.8990 C   0  0  2  0  0  0  0  0  0  0  0  0
  194.7310  173.5330  144.1400 N   0  0  0  0  0  0  0  0  0  0  0  0
  197.1670  172.8680  144.1860 N   0  0  0  0  0  2  0  0  0  0  0  0
  190.7550  177.3560  146.1430 C   0  0  1  0  0  3  0  0  0  0  0  0
  190.3790  178.1580  145.0640 O   0  0  0  0  0  1  0  0  0  0  0  0
  190.0620  178.2900  148.3990 N   0  0  0  0  0  1  0  0  0  0  0  0
  189.7550  177.5110  147.2490 C   0  0  0  0  0  0  0  0  0  0  0  0
  188.6280  176.8840  147.1830 N   0  0  0  0  0  2  0  0  0  0  0  0
  191.1270  171.9750  136.9560 N   0  0  0  0  0  2  0  0  0  0  0  0
  191.9730  173.8310  138.4990 C   0  0  2  0  0  3  0  0  0  0  0  0
  190.1160  170.8170  139.4510 O   0  0  0  0  0  1  0  0  0  0  0  0
  193.3370  173.9030  137.8150 C   0  0  0  0  0  2  0  0  0  0  0  0
  193.9730  175.2640  138.0290 C   0  0  0  0  0  2  0  0  0  0  0  0
  193.3640  173.8610  140.6940 C   0  0  0  0  0  2  0  0  0  0  0  0
  194.1190  175.1720  140.5550 C   0  0  0  0  0  2  0  0  0  0  0  0
  191.9840  173.9740  140.0400 C   0  0  2  0  0  3  0  0  0  0  0  0
  191.3240  172.5180  138.2670 C   0  0  0  0  0  0  0  0  0  0  0  0
  194.8920  175.2370  139.2450 C   0  0  0  0  0  2  0  0  0  0  0  0
  191.0870  172.8540  140.5740 C   0  0  2  0  0  3  0  0  0  0  0  0
  190.8420  172.0010  139.3870 C   0  0  0  0  0  0  0  0  0  0  0  0
  189.3880  171.7460  142.5810 O   0  0  0  0  0  0  0  0  0  0  0  0
  189.0650  172.8680  142.1030 C   0  0  0  0  0  0  0  0  0  0  0  0
  189.8240  173.4280  141.0270 N   0  0  0  0  0  2  0  0  0  0  0  0
  187.9400  173.6450  142.6580 C   0  0  0  0  0  3  0  0  0  0  0  0
  188.2110  177.8060  142.3880 C   0  0  0  0  0  3  0  0  0  0  0  0
  187.5040  174.8410  142.2470 C   0  0  0  0  0  0  0  0  0  0  0  0
  186.3160  175.4030  142.9660 C   0  0  0  0  0  2  0  0  0  0  0  0
  186.9740  177.8200  142.9080 C   0  0  0  0  0  0  0  0  0  0  0  0
  188.7480  176.8540  141.5010 O   0  0  0  0  0  0  0  0  0  0  0  0
  188.1850  175.5950  141.1230 C   0  0  2  0  0  3  0  0  0  0  0  0
  185.9560  176.7940  142.4800 C   0  0  2  0  0  3  0  0  0  0  0  0
  184.6570  177.1190  142.8660 O   0  0  0  0  0  1  0  0  0  0  0  0
  187.4390  174.8100  137.6480 C   0  0  0  0  0  2  0  0  0  0  0  0
  188.2880  175.0450  138.7450 O   0  0  0  0  0  0  0  0  0  0  0  0
  187.4960  175.6220  139.7530 C   0  0  2  0  0  3  0  0  0  0  0  0
  187.0730  177.0420  139.3540 C   0  0  0  0  0  2  0  0  0  0  0  0
  187.0240  176.1390  137.0150 C   0  0  0  0  0  2  0  0  0  0  0  0
  186.2730  176.9670  138.0550 C   0  0  0  0  0  2  0  0  0  0  0  0
  186.1590  179.9700  143.5380 O   0  0  0  0  0  0  0  0  0  0  0  0
  186.6560  178.8750  143.9070 C   0  0  0  0  0  0  0  0  0  0  0  0
  186.9150  178.6850  145.2570 O   0  0  0  0  0  1  0  0  0  0  0  0
  1  5  1  6  0  0  0
  1 35  1  0  0  0  0
  2  3  1  0  0  0  0
  3  1  1  0  0  0  0
  4  3  2  0  0  0  0
  5  6  2  0  0  0  0
  6  7  2  0  0  0  0
  7  8  1  0  0  0  0
  8  9  1  6  0  0  0
  8 10  1  0  0  0  0
 10 11  1  0  0  0  0
 11 12  1  0  0  0  0
 12 13  1  0  0  0  0
 13 29  1  0  0  0  0
 14 18  1  0  0  0  0
 15 27  1  0  0  0  0
 15 30  1  1  0  0  0
 15 16  1  0  0  0  0
 18 15  1  0  0  0  0
 21 14  1  6  0  0  0
 21 20  1  0  0  0  0
 21 27  1  0  0  0  0
 23 28  1  0  0  0  0
 24 22  2  0  0  0  0
 25 28  1  0  0  0  0
 25 21  1  0  0  0  0
 26 23  1  0  0  0  0
 26 19  1  1  0  0  0
 26 20  1  0  0  0  0
 27 17  1  1  0  0  0
 27 16  1  0  0  0  0
 28 24  1  0  0  0  0
 29 24  1  0  0  0  0
 30 31  1  6  0  0  0
 30 33  1  0  0  0  0
 33 32  1  0  0  0  0
 34 33  2  0  0  0  0
 35 43  1  0  0  0  0
 36 38  1  1  0  0  0
 36 42  1  0  0  0  0
 38 39  1  0  0  0  0
 39 44  1  0  0  0  0
 41 40  1  0  0  0  0
 42 45  1  0  0  0  0
 42 40  1  1  0  0  0
 43 36  1  0  0  0  0
 43 46  2  0  0  0  0
 44 41  1  0  0  0  0
 45 49  1  6  0  0  0
 46 37  1  0  0  0  0
 46 45  1  0  0  0  0
 48 47  2  0  0  0  0
 48 50  1  0  0  0  0
 49 48  1  0  0  0  0
 51 54  2  0  0  0  0
 52 50  2  0  0  0  0
 52 53  1  0  0  0  0
 54 66  1  0  0  0  0
 55 51  1  0  0  0  0
 56 55  1  1  0  0  0
 56 52  1  0  0  0  0
 57 58  1  1  0  0  0
 57 54  1  0  0  0  0
 57 53  1  0  0  0  0
 59 60  1  0  0  0  0
 60 61  1  0  0  0  0
 61 62  1  6  0  0  0
 61 56  1  0  0  0  0
 63 59  1  0  0  0  0
 63 64  1  0  0  0  0
 64 62  1  0  0  0  0
 65 66  2  0  0  0  0
 66 67  1  0  0  0  0
M  END
>  <MODEL>
6

>  <REMARK>
 VINA RESULT:      -5.1      2.596      6.815
  Name = 
  16 active torsions:
  status: ('A' for Active; 'I' for Inactive)
    1  A    between atoms: C_2  and  C_13
    2  A    between atoms: C_4  and  C_15
    3  A    between atoms: C_4  and  C_51
    4  A    between atoms: C_5  and  C_9
    5  A    between atoms: C_9  and  C_42
    6  A    between atoms: N_12  and  C_23
    7  A    between atoms: N_12  and  C_46
    8  A    between atoms: C_15  and  N_67
    9  A    between atoms: C_18  and  C_23
   10  A    between atoms: C_19  and  C_23
   11  A    between atoms: N_22  and  C_61
   12  A    between atoms: C_31  and  C_36
   13  A    between atoms: C_41  and  C_49
   14  A    between atoms: C_41  and  C_54
   15  A    between atoms: C_49  and  C_51
   16  A    between atoms: C_52  and  C_63
                            x       y       z     vdW  Elec       q    Type
                         _______ _______ _______ _____ _____    ______ ____

>  <TORSDO>
F 16

$$$$
=
 OpenBabel11042416593D

 67 73  0  0  1  0  0  0  0  0999 V2000
  192.4600  175.0670  145.7600 C   0  0  1  0  0  3  0  0  0  0  0  0
  193.6650  176.8920  147.0750 N   0  0  0  0  0  1  0  0  0  0  0  0
  192.4800  176.1390  146.8060 C   0  0  0  0  0  0  0  0  0  0  0  0
  191.4290  176.4020  147.4410 O   0  0  0  0  0  0  0  0  0  0  0  0
  191.1100  174.4520  145.5890 C   0  0  0  0  0  3  0  0  0  0  0  0
  190.9760  173.3010  144.9900 C   0  0  0  0  0  0  0  0  0  0  0  0
  190.8220  172.1470  144.4020 C   0  0  0  0  0  3  0  0  0  0  0  0
  189.9910  172.0410  143.1710 C   0  0  2  0  0  3  0  0  0  0  0  0
  188.6970  171.4770  143.5130 N   0  0  0  0  0  1  0  0  0  0  0  0
  190.6940  171.1530  142.1600 C   0  0  0  0  0  2  0  0  0  0  0  0
  192.1040  171.6610  141.9020 C   0  0  0  0  0  2  0  0  0  0  0  0
  192.1390  172.5370  140.6580 C   0  0  0  0  0  2  0  0  0  0  0  0
  191.3040  173.7900  140.8650 C   0  0  0  0  0  2  0  0  0  0  0  0
  185.7560  176.5610  143.0950 C   0  0  0  0  0  2  0  0  0  0  0  0
  184.9670  178.1150  141.6930 C   0  0  2  0  0  0  0  0  0  0  0  0
  186.0230  179.0410  141.5250 O   0  0  0  0  0  0  0  0  0  0  0  0
  186.2010  177.5040  139.7060 O   0  0  0  0  0  1  0  0  0  0  0  0
  184.8520  177.6410  143.0100 O   0  0  0  0  0  0  0  0  0  0  0  0
  189.7010  176.9370  144.1190 O   0  0  0  0  0  1  0  0  0  0  0  0
  188.0010  177.3250  142.6360 O   0  0  0  0  0  0  0  0  0  0  0  0
  186.8510  176.7320  142.0500 C   0  0  1  0  0  0  0  0  0  0  0  0
  188.1960  174.3730  138.9900 O   0  0  0  0  0  0  0  0  0  0  0  0
  189.4850  175.5170  142.2200 C   0  0  0  0  0  2  0  0  0  0  0  0
  188.9920  174.4740  139.9610 C   0  0  0  0  0  0  0  0  0  0  0  0
  187.1170  175.3830  141.3410 C   0  0  0  0  0  2  0  0  0  0  0  0
  188.7670  176.3350  143.2770 C   0  0  1  0  0  3  0  0  0  0  0  0
  186.2380  177.7130  141.0890 C   0  0  2  0  0  0  0  0  0  0  0  0
  188.5500  175.1240  141.1660 N   0  0  0  0  0  0  0  0  0  0  0  0
  190.2980  173.8940  139.8200 N   0  0  0  0  0  2  0  0  0  0  0  0
  183.6880  178.3970  140.8790 C   0  0  1  0  0  3  0  0  0  0  0  0
  183.5690  177.4760  139.8360 O   0  0  0  0  0  1  0  0  0  0  0  0
  181.2340  177.8160  141.1670 N   0  0  0  0  0  2  0  0  0  0  0  0
  182.4230  178.4020  141.6830 C   0  0  0  0  0  0  0  0  0  0  0  0
  182.3980  178.9960  142.8300 N   0  0  0  0  0  1  0  0  0  0  0  0
  192.9330  175.6020  144.4890 N   0  0  0  0  0  2  0  0  0  0  0  0
  194.8200  173.8960  144.2260 C   0  0  2  0  0  3  0  0  0  0  0  0
  193.8090  176.4880  141.8370 O   0  0  0  0  0  1  0  0  0  0  0  0
  195.3240  174.0970  145.6540 C   0  0  0  0  0  2  0  0  0  0  0  0
  196.0830  172.8730  146.1320 C   0  0  0  0  0  2  0  0  0  0  0  0
  197.3350  174.0700  143.5940 C   0  0  0  0  0  2  0  0  0  0  0  0
  197.9290  172.9270  144.4000 C   0  0  0  0  0  2  0  0  0  0  0  0
  195.9150  173.7200  143.1450 C   0  0  2  0  0  3  0  0  0  0  0  0
  194.0460  175.0720  143.7590 C   0  0  0  0  0  0  0  0  0  0  0  0
  197.5770  173.0400  145.8760 C   0  0  0  0  0  2  0  0  0  0  0  0
  195.5160  174.6380  141.9870 C   0  0  2  0  0  3  0  0  0  0  0  0
  194.4190  175.4610  142.5500 C   0  0  0  0  0  0  0  0  0  0  0  0
  197.0000  173.8180  139.6920 O   0  0  0  0  0  0  0  0  0  0  0  0
  195.8250  173.3750  139.8110 C   0  0  0  0  0  0  0  0  0  0  0  0
  195.0000  173.8280  140.8900 N   0  0  0  0  0  2  0  0  0  0  0  0
  195.2870  172.3620  138.8840 C   0  0  0  0  0  3  0  0  0  0  0  0
  191.7580  173.3340  136.8690 C   0  0  0  0  0  3  0  0  0  0  0  0
  194.5730  172.5790  137.7740 C   0  0  0  0  0  0  0  0  0  0  0  0
  194.1710  171.3680  136.9880 C   0  0  0  0  0  2  0  0  0  0  0  0
  191.9230  172.1670  136.2260 C   0  0  0  0  0  0  0  0  0  0  0  0
  192.7670  174.2150  137.3010 O   0  0  0  0  0  0  0  0  0  0  0  0
  194.1770  173.9760  137.3420 C   0  0  2  0  0  3  0  0  0  0  0  0
  193.2980  171.7200  135.8000 C   0  0  2  0  0  3  0  0  0  0  0  0
  193.2710  170.6630  134.8910 O   0  0  0  0  0  1  0  0  0  0  0  0
  196.8760  174.7420  135.0220 C   0  0  0  0  0  2  0  0  0  0  0  0
  196.3280  174.4470  136.2840 O   0  0  0  0  0  0  0  0  0  0  0  0
  194.9370  174.6110  136.1700 C   0  0  2  0  0  3  0  0  0  0  0  0
  194.5840  176.0940  135.9960 C   0  0  0  0  0  2  0  0  0  0  0  0
  196.7450  176.2380  134.7320 C   0  0  0  0  0  2  0  0  0  0  0  0
  195.2650  176.6130  134.7320 C   0  0  0  0  0  2  0  0  0  0  0  0
  190.4380  170.9860  134.7820 O   0  0  0  0  0  0  0  0  0  0  0  0
  190.7090  171.3510  135.9550 C   0  0  0  0  0  0  0  0  0  0  0  0
  189.8450  170.9890  136.9780 O   0  0  0  0  0  1  0  0  0  0  0  0
  1  5  1  6  0  0  0
  1  3  1  0  0  0  0
  3  2  1  0  0  0  0
  3  4  2  0  0  0  0
  6  5  2  0  0  0  0
  7  6  2  0  0  0  0
  8  9  1  1  0  0  0
  8  7  1  0  0  0  0
 10  8  1  0  0  0  0
 11 10  1  0  0  0  0
 12 13  1  0  0  0  0
 12 11  1  0  0  0  0
 15 30  1  6  0  0  0
 15 18  1  0  0  0  0
 16 15  1  0  0  0  0
 18 14  1  0  0  0  0
 20 26  1  0  0  0  0
 21 25  1  6  0  0  0
 21 20  1  0  0  0  0
 21 14  1  0  0  0  0
 22 24  2  0  0  0  0
 23 26  1  0  0  0  0
 24 28  1  0  0  0  0
 26 19  1  1  0  0  0
 27 17  1  6  0  0  0
 27 16  1  0  0  0  0
 27 15  1  0  0  0  0
 27 21  1  0  0  0  0
 28 25  1  0  0  0  0
 28 23  1  0  0  0  0
 29 24  1  0  0  0  0
 29 13  1  0  0  0  0
 30 31  1  6  0  0  0
 30 33  1  0  0  0  0
 32 33  2  0  0  0  0
 33 34  1  0  0  0  0
 35  1  1  0  0  0  0
 36 38  1  1  0  0  0
 37 46  1  0  0  0  0
 38 39  1  0  0  0  0
 40 41  1  0  0  0  0
 41 44  1  0  0  0  0
 42 40  1  1  0  0  0
 42 36  1  0  0  0  0
 43 36  1  0  0  0  0
 43 35  1  0  0  0  0
 44 39  1  0  0  0  0
 45 49  1  6  0  0  0
 45 46  1  0  0  0  0
 45 42  1  0  0  0  0
 46 43  2  0  0  0  0
 47 48  2  0  0  0  0
 48 49  1  0  0  0  0
 50 48  1  0  0  0  0
 51 55  1  0  0  0  0
 52 50  2  0  0  0  0
 53 52  1  0  0  0  0
 54 51  2  0  0  0  0
 56 55  1  6  0  0  0
 56 52  1  0  0  0  0
 57 58  1  6  0  0  0
 57 54  1  0  0  0  0
 57 53  1  0  0  0  0
 59 60  1  0  0  0  0
 61 62  1  1  0  0  0
 61 60  1  0  0  0  0
 61 56  1  0  0  0  0
 63 59  1  0  0  0  0
 64 63  1  0  0  0  0
 64 62  1  0  0  0  0
 65 66  2  0  0  0  0
 66 54  1  0  0  0  0
 66 67  1  0  0  0  0
M  END
>  <MODEL>
7

>  <REMARK>
 VINA RESULT:      -5.1      2.909      8.665
  Name = 
  16 active torsions:
  status: ('A' for Active; 'I' for Inactive)
    1  A    between atoms: C_2  and  C_13
    2  A    between atoms: C_4  and  C_15
    3  A    between atoms: C_4  and  C_51
    4  A    between atoms: C_5  and  C_9
    5  A    between atoms: C_9  and  C_42
    6  A    between atoms: N_12  and  C_23
    7  A    between atoms: N_12  and  C_46
    8  A    between atoms: C_15  and  N_67
    9  A    between atoms: C_18  and  C_23
   10  A    between atoms: C_19  and  C_23
   11  A    between atoms: N_22  and  C_61
   12  A    between atoms: C_31  and  C_36
   13  A    between atoms: C_41  and  C_49
   14  A    between atoms: C_41  and  C_54
   15  A    between atoms: C_49  and  C_51
   16  A    between atoms: C_52  and  C_63
                            x       y       z     vdW  Elec       q    Type
                         _______ _______ _______ _____ _____    ______ ____

>  <TORSDO>
F 16

$$$$
=
 OpenBabel11042416593D

 67 73  0  0  1  0  0  0  0  0999 V2000
  193.8200  169.2720  142.4130 C   0  0  1  0  0  3  0  0  0  0  0  0
  193.6340  168.5750  144.8610 N   0  0  0  0  0  1  0  0  0  0  0  0
  194.3920  168.6520  143.6520 C   0  0  0  0  0  0  0  0  0  0  0  0
  195.5490  168.1670  143.6210 O   0  0  0  0  0  0  0  0  0  0  0  0
  193.9170  168.3770  141.2220 C   0  0  0  0  0  3  0  0  0  0  0  0
  194.4820  168.7950  140.1230 C   0  0  0  0  0  0  0  0  0  0  0  0
  195.0510  169.1910  139.0180 C   0  0  0  0  0  3  0  0  0  0  0  0
  194.2710  169.2320  137.7500 C   0  0  2  0  0  3  0  0  0  0  0  0
  193.2460  168.2040  137.7850 N   0  0  0  0  0  1  0  0  0  0  0  0
  195.2030  168.9970  136.5750 C   0  0  0  0  0  2  0  0  0  0  0  0
  195.5740  170.3200  135.9240 C   0  0  0  0  0  2  0  0  0  0  0  0
  197.0140  170.2900  135.4320 C   0  0  0  0  0  2  0  0  0  0  0  0
  197.8920  171.1710  136.3040 C   0  0  0  0  0  2  0  0  0  0  0  0
  196.9470  175.8880  140.8090 C   0  0  0  0  0  2  0  0  0  0  0  0
  195.5070  175.2580  142.4010 C   0  0  2  0  0  0  0  0  0  0  0  0
  194.3240  174.8960  141.7160 O   0  0  0  0  0  0  0  0  0  0  0  0
  195.5450  172.8680  142.0310 O   0  0  0  0  0  1  0  0  0  0  0  0
  196.1400  176.3850  141.8540 O   0  0  0  0  0  0  0  0  0  0  0  0
  195.6640  175.3740  136.9570 O   0  0  0  0  0  1  0  0  0  0  0  0
  195.5720  174.7750  139.1630 O   0  0  0  0  0  0  0  0  0  0  0  0
  196.3780  174.5640  140.3140 C   0  0  1  0  0  0  0  0  0  0  0  0
  197.9400  170.7990  139.9620 O   0  0  0  0  0  0  0  0  0  0  0  0
  196.8680  173.4500  137.6760 C   0  0  0  0  0  2  0  0  0  0  0  0
  197.7430  171.3880  138.8660 C   0  0  0  0  0  0  0  0  0  0  0  0
  197.5200  173.5400  140.1180 C   0  0  0  0  0  2  0  0  0  0  0  0
  196.3920  174.8490  138.0230 C   0  0  1  0  0  3  0  0  0  0  0  0
  195.4910  174.1420  141.4540 C   0  0  2  0  0  0  0  0  0  0  0  0
  197.3720  172.7780  138.8730 N   0  0  0  0  0  0  0  0  0  0  0  0
  197.9390  170.6380  137.6580 N   0  0  0  0  0  2  0  0  0  0  0  0
  195.4830  175.0750  143.9320 C   0  0  1  0  0  3  0  0  0  0  0  0
  196.7850  175.0430  144.4340 O   0  0  0  0  0  1  0  0  0  0  0  0
  194.9170  176.3420  146.0570 N   0  0  0  0  0  1  0  0  0  0  0  0
  194.6890  176.1090  144.6730 C   0  0  0  0  0  0  0  0  0  0  0  0
  193.7510  176.7520  144.0610 N   0  0  0  0  0  2  0  0  0  0  0  0
  192.4310  169.6510  142.6430 N   0  0  0  0  0  2  0  0  0  0  0  0
  190.9320  171.3560  141.4660 C   0  0  2  0  0  3  0  0  0  0  0  0
  193.0090  171.8940  144.4390 O   0  0  0  0  0  1  0  0  0  0  0  0
  191.3980  170.9400  140.0720 C   0  0  0  0  0  2  0  0  0  0  0  0
  190.3530  171.2920  139.0290 C   0  0  0  0  0  2  0  0  0  0  0  0
  191.2960  173.7720  140.5790 C   0  0  0  0  0  2  0  0  0  0  0  0
  190.3600  173.7990  139.3830 C   0  0  0  0  0  2  0  0  0  0  0  0
  190.7230  172.8760  141.6790 C   0  0  2  0  0  3  0  0  0  0  0  0
  191.9290  170.9850  142.4990 C   0  0  0  0  0  0  0  0  0  0  0  0
  190.6490  172.6570  138.4190 C   0  0  0  0  0  2  0  0  0  0  0  0
  191.4090  173.2140  143.0060 C   0  0  2  0  0  3  0  0  0  0  0  0
  192.1750  171.9870  143.3300 C   0  0  0  0  0  0  0  0  0  0  0  0
  191.8250  174.5350  145.5000 O   0  0  0  0  0  0  0  0  0  0  0  0
  190.6460  174.1850  145.2190 C   0  0  0  0  0  0  0  0  0  0  0  0
  190.3920  173.4330  144.0280 N   0  0  0  0  0  2  0  0  0  0  0  0
  189.5060  174.5700  146.0730 C   0  0  0  0  0  3  0  0  0  0  0  0
  188.4600  178.6150  146.1070 C   0  0  0  0  0  3  0  0  0  0  0  0
  188.6510  175.5780  145.8720 C   0  0  0  0  0  0  0  0  0  0  0  0
  187.5550  175.7370  146.8810 C   0  0  0  0  0  2  0  0  0  0  0  0
  187.4330  178.2390  146.8870 C   0  0  0  0  0  0  0  0  0  0  0  0
  189.0290  177.8880  145.0460 O   0  0  0  0  0  0  0  0  0  0  0  0
  188.7920  176.5220  144.6950 C   0  0  2  0  0  3  0  0  0  0  0  0
  186.6950  176.9550  146.6070 C   0  0  2  0  0  3  0  0  0  0  0  0
  185.4870  176.8580  147.2960 O   0  0  0  0  0  1  0  0  0  0  0  0
  187.2350  175.1370  141.7100 C   0  0  0  0  0  2  0  0  0  0  0  0
  188.3210  175.4800  142.5350 O   0  0  0  0  0  0  0  0  0  0  0  0
  187.8230  176.3540  143.5180 C   0  0  2  0  0  3  0  0  0  0  0  0
  187.4460  177.7030  142.8920 C   0  0  0  0  0  2  0  0  0  0  0  0
  186.8050  176.3480  140.8820 C   0  0  0  0  0  2  0  0  0  0  0  0
  186.3760  177.4670  141.8280 C   0  0  0  0  0  2  0  0  0  0  0  0
  187.7330  179.1190  149.0820 O   0  0  0  0  0  1  0  0  0  0  0  0
  187.0620  179.1310  148.0180 C   0  0  0  0  0  0  0  0  0  0  0  0
  185.9660  179.9780  147.9340 O   0  0  0  0  0  0  0  0  0  0  0  0
  1  5  1  6  0  0  0
  1 35  1  0  0  0  0
  1  3  1  0  0  0  0
  3  2  1  0  0  0  0
  4  3  2  0  0  0  0
  6  5  2  0  0  0  0
  7  6  2  0  0  0  0
  8  9  1  1  0  0  0
  8  7  1  0  0  0  0
 10  8  1  0  0  0  0
 11 10  1  0  0  0  0
 12 11  1  0  0  0  0
 12 13  1  0  0  0  0
 13 29  1  0  0  0  0
 14 18  1  0  0  0  0
 15 30  1  1  0  0  0
 16 15  1  0  0  0  0
 18 15  1  0  0  0  0
 20 21  1  0  0  0  0
 21 25  1  6  0  0  0
 21 14  1  0  0  0  0
 21 27  1  0  0  0  0
 23 26  1  0  0  0  0
 23 28  1  0  0  0  0
 24 28  1  0  0  0  0
 24 22  2  0  0  0  0
 26 19  1  6  0  0  0
 26 20  1  0  0  0  0
 27 16  1  0  0  0  0
 27 17  1  1  0  0  0
 27 15  1  0  0  0  0
 28 25  1  0  0  0  0
 29 24  1  0  0  0  0
 30 31  1  1  0  0  0
 30 33  1  0  0  0  0
 33 32  1  0  0  0  0
 34 33  2  0  0  0  0
 36 38  1  6  0  0  0
 36 42  1  0  0  0  0
 36 43  1  0  0  0  0
 39 38  1  0  0  0  0
 41 40  1  0  0  0  0
 42 40  1  6  0  0  0
 42 45  1  0  0  0  0
 43 35  1  0  0  0  0
 43 46  2  0  0  0  0
 44 39  1  0  0  0  0
 44 41  1  0  0  0  0
 45 46  1  0  0  0  0
 45 49  1  1  0  0  0
 46 37  1  0  0  0  0
 48 47  2  0  0  0  0
 48 50  1  0  0  0  0
 49 48  1  0  0  0  0
 51 54  2  0  0  0  0
 52 50  2  0  0  0  0
 52 53  1  0  0  0  0
 54 66  1  0  0  0  0
 55 51  1  0  0  0  0
 56 55  1  1  0  0  0
 56 52  1  0  0  0  0
 57 53  1  0  0  0  0
 57 54  1  0  0  0  0
 57 58  1  1  0  0  0
 59 60  1  0  0  0  0
 60 61  1  0  0  0  0
 61 62  1  6  0  0  0
 61 56  1  0  0  0  0
 63 59  1  0  0  0  0
 63 64  1  0  0  0  0
 64 62  1  0  0  0  0
 66 65  1  0  0  0  0
 67 66  2  0  0  0  0
M  END
>  <MODEL>
8

>  <REMARK>
 VINA RESULT:      -5.0      2.833      5.914
  Name = 
  16 active torsions:
  status: ('A' for Active; 'I' for Inactive)
    1  A    between atoms: C_2  and  C_13
    2  A    between atoms: C_4  and  C_15
    3  A    between atoms: C_4  and  C_51
    4  A    between atoms: C_5  and  C_9
    5  A    between atoms: C_9  and  C_42
    6  A    between atoms: N_12  and  C_23
    7  A    between atoms: N_12  and  C_46
    8  A    between atoms: C_15  and  N_67
    9  A    between atoms: C_18  and  C_23
   10  A    between atoms: C_19  and  C_23
   11  A    between atoms: N_22  and  C_61
   12  A    between atoms: C_31  and  C_36
   13  A    between atoms: C_41  and  C_49
   14  A    between atoms: C_41  and  C_54
   15  A    between atoms: C_49  and  C_51
   16  A    between atoms: C_52  and  C_63
                            x       y       z     vdW  Elec       q    Type
                         _______ _______ _______ _____ _____    ______ ____

>  <TORSDO>
F 16

$$$$
=
 OpenBabel11042416593D

 67 73  0  0  1  0  0  0  0  0999 V2000
  192.6100  169.7960  139.6530 C   0  0  1  0  0  3  0  0  0  0  0  0
  193.9340  168.1710  141.1070 N   0  0  0  0  0  1  0  0  0  0  0  0
  192.6800  168.6990  140.6700 C   0  0  0  0  0  0  0  0  0  0  0  0
  191.6190  168.2520  141.1690 O   0  0  0  0  0  0  0  0  0  0  0  0
  193.4660  169.5320  138.4580 C   0  0  0  0  0  3  0  0  0  0  0  0
  194.5780  170.1890  138.2790 C   0  0  0  0  0  0  0  0  0  0  0  0
  195.6980  170.8290  138.0880 C   0  0  0  0  0  3  0  0  0  0  0  0
  195.8830  171.6600  136.8660 C   0  0  2  0  0  3  0  0  0  0  0  0
  195.4160  170.9200  135.7070 N   0  0  0  0  0  1  0  0  0  0  0  0
  197.3530  172.0030  136.7050 C   0  0  0  0  0  2  0  0  0  0  0  0
  197.8910  172.6330  137.9800 C   0  0  0  0  0  2  0  0  0  0  0  0
  197.5270  174.1100  138.0430 C   0  0  0  0  0  2  0  0  0  0  0  0
  196.9710  174.4630  139.4130 C   0  0  0  0  0  2  0  0  0  0  0  0
  194.0380  174.0770  145.3020 C   0  0  0  0  0  2  0  0  0  0  0  0
  192.6190  175.7700  145.6500 C   0  0  2  0  0  0  0  0  0  0  0  0
  193.3890  176.9460  145.4870 O   0  0  0  0  0  0  0  0  0  0  0  0
  192.3630  176.5340  143.3700 O   0  0  0  0  0  1  0  0  0  0  0  0
  193.3120  174.7430  146.3110 O   0  0  0  0  0  0  0  0  0  0  0  0
  197.8020  175.1390  144.0940 O   0  0  0  0  0  1  0  0  0  0  0  0
  195.5670  175.6130  144.2340 O   0  0  0  0  0  0  0  0  0  0  0  0
  194.2770  175.0280  144.1360 C   0  0  1  0  0  0  0  0  0  0  0  0
  193.3890  174.8450  140.1460 O   0  0  0  0  0  0  0  0  0  0  0  0
  196.4200  174.7410  142.1960 C   0  0  0  0  0  2  0  0  0  0  0  0
  194.6140  174.7350  140.4140 C   0  0  0  0  0  0  0  0  0  0  0  0
  194.0040  174.2990  142.7990 C   0  0  0  0  0  2  0  0  0  0  0  0
  196.5260  174.7280  143.7100 C   0  0  1  0  0  3  0  0  0  0  0  0
  193.2420  176.0960  144.3660 C   0  0  2  0  0  0  0  0  0  0  0  0
  195.0230  174.6000  141.7870 N   0  0  0  0  0  0  0  0  0  0  0  0
  195.5410  174.7140  139.3180 N   0  0  0  0  0  2  0  0  0  0  0  0
  191.1200  175.9820  145.9460 C   0  0  1  0  0  3  0  0  0  0  0  0
  190.4610  174.7520  145.9960 O   0  0  0  0  0  1  0  0  0  0  0  0
  191.6160  176.5470  148.3700 N   0  0  0  0  0  1  0  0  0  0  0  0
  190.8330  176.7510  147.2010 C   0  0  0  0  0  0  0  0  0  0  0  0
  189.8290  177.5620  147.2360 N   0  0  0  0  0  2  0  0  0  0  0  0
  191.2270  170.0080  139.2430 N   0  0  0  0  0  2  0  0  0  0  0  0
  189.5630  171.6020  138.1340 C   0  0  2  0  0  3  0  0  0  0  0  0
  191.6410  172.2490  141.0850 O   0  0  0  0  0  1  0  0  0  0  0  0
  190.0370  171.2610  136.7230 C   0  0  0  0  0  2  0  0  0  0  0  0
  188.9460  171.5450  135.7070 C   0  0  0  0  0  2  0  0  0  0  0  0
  189.6980  174.0610  137.3040 C   0  0  0  0  0  2  0  0  0  0  0  0
  188.7400  174.0340  136.1240 C   0  0  0  0  0  2  0  0  0  0  0  0
  189.2260  173.0920  138.3900 C   0  0  2  0  0  3  0  0  0  0  0  0
  190.6080  171.2960  139.1410 C   0  0  0  0  0  0  0  0  0  0  0  0
  189.1100  172.9460  135.1270 C   0  0  0  0  0  2  0  0  0  0  0  0
  189.9050  173.4570  139.7130 C   0  0  2  0  0  3  0  0  0  0  0  0
  190.7810  172.2950  139.9930 C   0  0  0  0  0  0  0  0  0  0  0  0
  190.3650  174.3530  142.3820 O   0  0  0  0  0  0  0  0  0  0  0  0
  189.1730  174.1060  142.0510 C   0  0  0  0  0  0  0  0  0  0  0  0
  188.8930  173.5620  140.7570 N   0  0  0  0  0  2  0  0  0  0  0  0
  188.0470  174.4060  142.9550 C   0  0  0  0  0  3  0  0  0  0  0  0
  187.9120  178.2510  144.5860 C   0  0  0  0  0  3  0  0  0  0  0  0
  187.4640  175.5940  143.1540 C   0  0  0  0  0  0  0  0  0  0  0  0
  186.3110  175.6220  144.1090 C   0  0  0  0  0  2  0  0  0  0  0  0
  186.7390  177.8750  145.1190 C   0  0  0  0  0  0  0  0  0  0  0  0
  188.4380  177.8690  143.3380 O   0  0  0  0  0  0  0  0  0  0  0  0
  187.9550  176.8490  142.4600 C   0  0  2  0  0  3  0  0  0  0  0  0
  185.7790  177.0260  144.3250 C   0  0  2  0  0  3  0  0  0  0  0  0
  184.5020  176.9780  144.8820 O   0  0  0  0  0  1  0  0  0  0  0  0
  185.2250  178.4100  140.6260 C   0  0  0  0  0  2  0  0  0  0  0  0
  185.7820  177.6010  141.6340 O   0  0  0  0  0  0  0  0  0  0  0  0
  187.1290  177.3940  141.2880 C   0  0  2  0  0  3  0  0  0  0  0  0
  187.2320  176.4940  140.0490 C   0  0  0  0  0  2  0  0  0  0  0  0
  185.1100  177.6160  139.3240 C   0  0  0  0  0  2  0  0  0  0  0  0
  186.5050  177.1730  138.8910 C   0  0  0  0  0  2  0  0  0  0  0  0
  186.2030  179.5410  146.7380 O   0  0  0  0  0  0  0  0  0  0  0  0
  186.4320  178.3270  146.5020 C   0  0  0  0  0  0  0  0  0  0  0  0
  186.4080  177.4300  147.5610 O   0  0  0  0  0  1  0  0  0  0  0  0
  1  5  1  6  0  0  0
  1  3  1  0  0  0  0
  3  2  1  0  0  0  0
  3  4  2  0  0  0  0
  6  5  2  0  0  0  0
  7  6  2  0  0  0  0
  8  9  1  6  0  0  0
  8  7  1  0  0  0  0
 10  8  1  0  0  0  0
 10 11  1  0  0  0  0
 11 12  1  0  0  0  0
 12 13  1  0  0  0  0
 14 18  1  0  0  0  0
 15 30  1  1  0  0  0
 15 18  1  0  0  0  0
 16 15  1  0  0  0  0
 21 25  1  6  0  0  0
 21 20  1  0  0  0  0
 21 27  1  0  0  0  0
 21 14  1  0  0  0  0
 22 24  2  0  0  0  0
 23 26  1  0  0  0  0
 24 28  1  0  0  0  0
 26 19  1  6  0  0  0
 26 20  1  0  0  0  0
 27 17  1  6  0  0  0
 27 16  1  0  0  0  0
 27 15  1  0  0  0  0
 28 23  1  0  0  0  0
 28 25  1  0  0  0  0
 29 13  1  0  0  0  0
 29 24  1  0  0  0  0
 30 31  1  1  0  0  0
 30 33  1  0  0  0  0
 33 34  2  0  0  0  0
 33 32  1  0  0  0  0
 35  1  1  0  0  0  0
 36 38  1  6  0  0  0
 36 42  1  0  0  0  0
 36 43  1  0  0  0  0
 39 38  1  0  0  0  0
 41 40  1  0  0  0  0
 42 40  1  6  0  0  0
 42 45  1  0  0  0  0
 43 35  1  0  0  0  0
 43 46  2  0  0  0  0
 44 39  1  0  0  0  0
 44 41  1  0  0  0  0
 45 46  1  0  0  0  0
 45 49  1  1  0  0  0
 46 37  1  0  0  0  0
 48 47  2  0  0  0  0
 48 50  1  0  0  0  0
 49 48  1  0  0  0  0
 50 52  2  0  0  0  0
 51 54  2  0  0  0  0
 52 53  1  0  0  0  0
 53 57  1  0  0  0  0
 54 66  1  0  0  0  0
 55 51  1  0  0  0  0
 56 52  1  1  0  0  0
 56 55  1  0  0  0  0
 57 58  1  1  0  0  0
 57 54  1  0  0  0  0
 59 60  1  0  0  0  0
 61 62  1  6  0  0  0
 61 60  1  0  0  0  0
 61 56  1  0  0  0  0
 63 59  1  0  0  0  0
 64 63  1  0  0  0  0
 64 62  1  0  0  0  0
 66 65  2  0  0  0  0
 66 67  1  0  0  0  0
M  END
>  <MODEL>
9

>  <REMARK>
 VINA RESULT:      -4.7      2.941      7.064
  Name = 
  16 active torsions:
  status: ('A' for Active; 'I' for Inactive)
    1  A    between atoms: C_2  and  C_13
    2  A    between atoms: C_4  and  C_15
    3  A    between atoms: C_4  and  C_51
    4  A    between atoms: C_5  and  C_9
    5  A    between atoms: C_9  and  C_42
    6  A    between atoms: N_12  and  C_23
    7  A    between atoms: N_12  and  C_46
    8  A    between atoms: C_15  and  N_67
    9  A    between atoms: C_18  and  C_23
   10  A    between atoms: C_19  and  C_23
   11  A    between atoms: N_22  and  C_61
   12  A    between atoms: C_31  and  C_36
   13  A    between atoms: C_41  and  C_49
   14  A    between atoms: C_41  and  C_54
   15  A    between atoms: C_49  and  C_51
   16  A    between atoms: C_52  and  C_63
                            x       y       z     vdW  Elec       q    Type
                         _______ _______ _______ _____ _____    ______ ____

>  <TORSDO>
F 16

$$$$
