=
 OpenBabel11042419293D

 40 47  0  0  1  0  0  0  0  0999 V2000
  191.1050  177.4110  144.4870 C   0  0  0  0  0  2  0  0  0  0  0  0
  191.2410  176.3460  145.2590 C   0  0  2  0  0  3  0  0  0  0  0  0
  194.6910  173.7060  144.7280 C   0  0  2  0  0  3  0  0  0  0  0  0
  196.0410  176.0150  142.1900 N   0  0  0  0  0  0  0  0  0  0  0  0
  196.2100  174.9900  143.0510 C   0  0  0  0  0  2  0  0  0  0  0  0
  195.0350  174.8270  143.7670 C   0  0  0  0  0  0  0  0  0  0  0  0
  191.1550  176.2580  146.7520 C   0  0  2  0  0  3  0  0  0  0  0  0
  193.9730  174.1780  145.9130 N   0  0  0  0  0  0  0  0  0  0  0  0
  191.9620  177.1990  143.2660 C   0  0  0  0  0  2  0  0  0  0  0  0
  192.7910  176.0140  143.6730 C   0  0  2  0  0  3  0  0  0  0  0  0
  192.2590  175.5010  144.7630 C   0  0  1  0  0  3  0  0  0  0  0  0
  192.8810  174.8820  145.9100 C   0  0  0  0  0  0  0  0  0  0  0  0
  192.2190  175.3020  147.1030 N   0  0  0  0  0  2  0  0  0  0  0  0
  194.8110  176.4920  142.3100 N   0  0  0  0  0  0  0  0  0  0  0  0
  194.1760  175.7760  143.2520 C   0  0  0  0  0  0  0  0  0  0  0  0
  195.7710  171.4810  145.2810 C   0  0  1  0  0  0  0  0  0  0  0  0
  196.3950  172.0850  144.1710 O   0  0  0  0  0  0  0  0  0  0  0  0
  195.9440  172.9580  145.1920 C   0  0  1  0  0  3  0  0  0  0  0  0
  193.4630  170.2550  144.6900 C   0  0  0  0  0  3  0  0  0  0  0  0
  194.4990  170.8150  144.9580 C   0  0  0  0  0  0  0  0  0  0  0  0
  196.6910  170.8090  146.2000 N   0  0  0  0  0  2  0  0  0  0  0  0
  196.5480  169.3540  146.1130 C   0  0  0  0  0  2  0  0  0  0  0  0
  197.2530  168.5300  148.2440 O   0  0  0  0  0  1  0  0  0  0  0  0
  196.2920  168.7650  147.4630 C   0  0  0  0  0  0  0  0  0  0  0  0
  194.9900  168.4840  147.8620 O   0  0  0  0  0  0  0  0  0  0  0  0
  189.8010  175.7140  147.1770 C   0  0  0  0  0  2  0  0  0  0  0  0
  188.8470  175.7440  145.9950 C   0  0  0  0  0  2  0  0  0  0  0  0
  187.5980  176.5370  146.3370 C   0  0  1  0  0  3  0  0  0  0  0  0
  187.9380  177.6610  147.0880 O   0  0  0  0  0  1  0  0  0  0  0  0
  186.9270  176.9690  145.0470 C   0  0  0  0  0  2  0  0  0  0  0  0
  185.4070  177.9050  142.3150 C   0  0  2  0  0  3  0  0  0  0  0  0
  187.7490  177.8550  142.7530 C   0  0  2  0  0  3  0  0  0  0  0  0
  186.5410  178.7560  142.8360 C   0  0  0  0  0  2  0  0  0  0  0  0
  184.1280  178.2620  143.0370 C   0  0  0  0  0  1  0  0  0  0  0  0
  187.1360  176.4860  142.5570 C   0  0  1  0  0  0  0  0  0  0  0  0
  187.8720  176.7820  143.8580 C   0  0  2  0  0  3  0  0  0  0  0  0
  185.7240  176.5590  142.5540 O   0  0  0  0  0  0  0  0  0  0  0  0
  187.8500  175.6880  141.4690 C   0  0  0  0  0  3  0  0  0  0  0  0
  188.0230  174.2310  141.8730 C   0  0  0  0  0  2  0  0  0  0  0  0
  189.1890  175.1900  141.9860 C   0  0  0  0  0  2  0  0  0  0  0  0
  2  1  1  1  0  0  0
  2  7  1  0  0  0  0
  3  6  1  6  0  0  0
  3 18  1  0  0  0  0
  3  8  1  0  0  0  0
  4 14  2  0  0  0  0
  4  5  1  0  0  0  0
  5  6  1  0  0  0  0
  7 13  1  0  0  0  0
  7 26  1  6  0  0  0
  9  1  1  0  0  0  0
 10  9  1  1  0  0  0
 10 11  1  0  0  0  0
 11  2  1  0  0  0  0
 11 12  1  1  0  0  0
 12  8  2  0  0  0  0
 12 13  1  0  0  0  0
 14 15  1  0  0  0  0
 15 10  1  0  0  0  0
 15  6  2  0  0  0  0
 16 20  1  6  0  0  0
 16 21  1  0  0  0  0
 17 16  1  0  0  0  0
 18 17  1  6  0  0  0
 18 16  1  0  0  0  0
 19 20  3  0  0  0  0
 22 21  1  0  0  0  0
 22 24  1  0  0  0  0
 24 25  2  0  0  0  0
 24 23  1  0  0  0  0
 27 28  1  0  0  0  0
 27 26  1  0  0  0  0
 28 29  1  1  0  0  0
 30 28  1  0  0  0  0
 31 37  1  0  0  0  0
 31 33  1  0  0  0  0
 31 34  1  1  0  0  0
 32 33  1  1  0  0  0
 32 36  1  0  0  0  0
 35 38  1  6  0  0  0
 35 32  1  0  0  0  0
 35 36  1  0  0  0  0
 36 30  1  1  0  0  0
 37 35  1  0  0  0  0
 38 39  1  0  0  0  0
 38 40  1  0  0  0  0
 39 40  1  0  0  0  0
M  END
>  <MODEL>
1

>  <REMARK>
 VINA RESULT:      -7.2      0.000      0.000
  Name = 
  11 active torsions:
  status: ('A' for Active; 'I' for Inactive)
    1  A    between atoms: C_2  and  C_20
    2  A    between atoms: C_5  and  C_27
    3  A    between atoms: C_11  and  N_36
    4  A    between atoms: C_11  and  C_40
    5  A    between atoms: C_16  and  C_39
    6  A    between atoms: C_17  and  C_22
    7  A    between atoms: C_17  and  N_36
    8  A    between atoms: C_21  and  C_25
    9  A    between atoms: C_21  and  C_29
   10  A    between atoms: C_25  and  C_31
   11  A    between atoms: C_31  and  C_39
                            x       y       z     vdW  Elec       q    Type
                         _______ _______ _______ _____ _____    ______ ____

>  <TORSDO>
F 11

$$$$
=
 OpenBabel11042419293D

 40 47  0  0  1  0  0  0  0  0999 V2000
  194.0280  176.9640  146.8000 C   0  0  0  0  0  2  0  0  0  0  0  0
  192.9680  176.2910  146.3850 C   0  0  2  0  0  3  0  0  0  0  0  0
  192.9280  174.5720  142.3600 C   0  0  2  0  0  3  0  0  0  0  0  0
  196.4150  175.6680  141.8800 N   0  0  0  0  0  0  0  0  0  0  0  0
  195.3650  174.9050  141.5130 C   0  0  0  0  0  3  0  0  0  0  0  0
  194.3510  175.0890  142.4390 C   0  0  0  0  0  0  0  0  0  0  0  0
  192.2330  175.1850  147.0770 C   0  0  2  0  0  3  0  0  0  0  0  0
  192.4280  174.0950  143.6510 N   0  0  0  0  0  0  0  0  0  0  0  0
  194.8090  177.3780  145.5800 C   0  0  0  0  0  2  0  0  0  0  0  0
  194.1600  176.5560  144.5040 C   0  0  2  0  0  3  0  0  0  0  0  0
  193.0480  176.0480  144.9950 C   0  0  1  0  0  3  0  0  0  0  0  0
  192.4120  174.7740  144.7590 C   0  0  0  0  0  0  0  0  0  0  0  0
  191.8980  174.2560  145.9860 N   0  0  0  0  0  2  0  0  0  0  0  0
  196.1070  176.3410  142.9790 N   0  0  0  0  0  2  0  0  0  0  0  0
  194.8520  176.0160  143.3290 C   0  0  0  0  0  0  0  0  0  0  0  0
  191.4120  173.2280  140.8370 C   0  0  1  0  0  0  0  0  0  0  0  0
  192.3720  173.9440  140.0940 O   0  0  0  0  0  0  0  0  0  0  0  0
  192.7980  173.4340  141.3450 C   0  0  1  0  0  3  0  0  0  0  0  0
  189.3380  174.7090  141.6640 C   0  0  0  0  0  3  0  0  0  0  0  0
  190.2770  174.0480  141.2890 C   0  0  0  0  0  0  0  0  0  0  0  0
  191.1370  171.8830  140.3300 N   0  0  0  0  0  2  0  0  0  0  0  0
  190.2570  171.1490  141.2420 C   0  0  0  0  0  2  0  0  0  0  0  0
  190.7400  168.8080  141.2010 O   0  0  0  0  0  0  0  0  0  0  0  0
  190.9340  169.9210  141.7600 C   0  0  0  0  0  0  0  0  0  0  0  0
  191.7870  170.0080  142.8550 O   0  0  0  0  0  1  0  0  0  0  0  0
  190.9630  175.7110  147.7250 C   0  0  0  0  0  2  0  0  0  0  0  0
  189.7630  175.3390  146.8700 C   0  0  0  0  0  2  0  0  0  0  0  0
  189.0400  176.5860  146.3940 C   0  0  1  0  0  3  0  0  0  0  0  0
  189.9590  177.5170  145.9140 O   0  0  0  0  0  1  0  0  0  0  0  0
  188.0810  176.1980  145.2850 C   0  0  0  0  0  2  0  0  0  0  0  0
  186.9570  178.1450  142.9190 C   0  0  2  0  0  3  0  0  0  0  0  0
  185.7070  176.7750  144.4150 C   0  0  2  0  0  3  0  0  0  0  0  0
  186.3630  176.7630  143.0570 C   0  0  0  0  0  2  0  0  0  0  0  0
  188.2380  178.0730  142.1210 C   0  0  0  0  0  1  0  0  0  0  0  0
  186.3010  178.0040  145.0670 C   0  0  1  0  0  0  0  0  0  0  0  0
  186.6540  176.6330  145.6280 C   0  0  2  0  0  3  0  0  0  0  0  0
  187.2280  178.6360  144.2050 O   0  0  0  0  0  0  0  0  0  0  0  0
  185.2440  178.8450  145.7790 C   0  0  0  0  0  3  0  0  0  0  0  0
  185.6840  179.2120  147.1880 C   0  0  0  0  0  2  0  0  0  0  0  0
  184.6970  178.0850  146.9750 C   0  0  0  0  0  2  0  0  0  0  0  0
  2  1  1  1  0  0  0
  2  7  1  0  0  0  0
  3  6  1  1  0  0  0
  3  8  1  0  0  0  0
  4 14  1  0  0  0  0
  5  4  2  0  0  0  0
  5  6  1  0  0  0  0
  6 15  2  0  0  0  0
  7 26  1  6  0  0  0
  8 12  2  0  0  0  0
  9  1  1  0  0  0  0
 10 11  1  0  0  0  0
 10  9  1  1  0  0  0
 11 12  1  1  0  0  0
 11  2  1  0  0  0  0
 12 13  1  0  0  0  0
 13  7  1  0  0  0  0
 14 15  1  0  0  0  0
 15 10  1  0  0  0  0
 16 20  1  1  0  0  0
 16 18  1  0  0  0  0
 17 16  1  0  0  0  0
 18 17  1  6  0  0  0
 18  3  1  0  0  0  0
 20 19  3  0  0  0  0
 21 16  1  0  0  0  0
 21 22  1  0  0  0  0
 22 24  1  0  0  0  0
 23 24  2  0  0  0  0
 24 25  1  0  0  0  0
 27 26  1  0  0  0  0
 28 29  1  6  0  0  0
 28 27  1  0  0  0  0
 30 28  1  0  0  0  0
 31 34  1  6  0  0  0
 31 33  1  0  0  0  0
 31 37  1  0  0  0  0
 32 33  1  6  0  0  0
 32 35  1  0  0  0  0
 32 36  1  0  0  0  0
 35 36  1  0  0  0  0
 35 38  1  1  0  0  0
 36 30  1  6  0  0  0
 37 35  1  0  0  0  0
 38 40  1  0  0  0  0
 38 39  1  0  0  0  0
 40 39  1  0  0  0  0
M  END
>  <MODEL>
2

>  <REMARK>
 VINA RESULT:      -7.2      3.228      4.472
  Name = 
  11 active torsions:
  status: ('A' for Active; 'I' for Inactive)
    1  A    between atoms: C_2  and  C_20
    2  A    between atoms: C_5  and  C_27
    3  A    between atoms: C_11  and  N_36
    4  A    between atoms: C_11  and  C_40
    5  A    between atoms: C_16  and  C_39
    6  A    between atoms: C_17  and  C_22
    7  A    between atoms: C_17  and  N_36
    8  A    between atoms: C_21  and  C_25
    9  A    between atoms: C_21  and  C_29
   10  A    between atoms: C_25  and  C_31
   11  A    between atoms: C_31  and  C_39
                            x       y       z     vdW  Elec       q    Type
                         _______ _______ _______ _____ _____    ______ ____

>  <TORSDO>
F 11

$$$$
=
 OpenBabel11042419293D

 40 47  0  0  1  0  0  0  0  0999 V2000
  193.2410  172.0550  142.0060 C   0  0  0  0  0  2  0  0  0  0  0  0
  192.6260  172.7140  142.9730 C   0  0  2  0  0  3  0  0  0  0  0  0
  188.9330  174.8970  142.1040 C   0  0  2  0  0  3  0  0  0  0  0  0
  188.9970  173.5910  138.6560 N   0  0  0  0  0  0  0  0  0  0  0  0
  188.3360  174.1760  139.6770 C   0  0  0  0  0  2  0  0  0  0  0  0
  189.1730  174.1980  140.7800 C   0  0  0  0  0  0  0  0  0  0  0  0
  192.2510  172.2320  144.3400 C   0  0  2  0  0  3  0  0  0  0  0  0
  189.3710  174.1000  143.2510 N   0  0  0  0  0  0  0  0  0  0  0  0
  192.7500  172.6110  140.6930 C   0  0  0  0  0  2  0  0  0  0  0  0
  191.5700  173.4330  141.1290 C   0  0  2  0  0  3  0  0  0  0  0  0
  191.6180  173.5490  142.4400 C   0  0  1  0  0  3  0  0  0  0  0  0
  190.5570  173.5950  143.4180 C   0  0  0  0  0  0  0  0  0  0  0  0
  190.9280  172.8360  144.5690 N   0  0  0  0  0  2  0  0  0  0  0  0
  190.2180  173.2650  139.0530 N   0  0  0  0  0  0  0  0  0  0  0  0
  190.3530  173.6370  140.3370 C   0  0  0  0  0  0  0  0  0  0  0  0
  187.2180  176.4340  143.1610 C   0  0  1  0  0  0  0  0  0  0  0  0
  187.1810  176.5240  141.7550 O   0  0  0  0  0  0  0  0  0  0  0  0
  187.4540  175.2440  142.2970 C   0  0  1  0  0  3  0  0  0  0  0  0
  189.2140  177.8300  144.2770 C   0  0  0  0  0  3  0  0  0  0  0  0
  188.3190  177.1940  143.7760 C   0  0  0  0  0  0  0  0  0  0  0  0
  185.9040  176.4760  143.8040 N   0  0  0  0  0  2  0  0  0  0  0  0
  185.5250  177.8510  144.1340 C   0  0  0  0  0  2  0  0  0  0  0  0
  184.0330  178.8780  145.6950 O   0  0  0  0  0  0  0  0  0  0  0  0
  184.7840  177.9010  145.4320 C   0  0  0  0  0  0  0  0  0  0  0  0
  184.9160  176.8610  146.3470 O   0  0  0  0  0  1  0  0  0  0  0  0
  193.2430  172.7360  145.3750 C   0  0  0  0  0  2  0  0  0  0  0  0
  194.5190  171.9140  145.2990 C   0  0  0  0  0  2  0  0  0  0  0  0
  195.7310  172.8190  145.1740 C   0  0  1  0  0  3  0  0  0  0  0  0
  196.3010  172.6800  143.9090 O   0  0  0  0  0  1  0  0  0  0  0  0
  195.2900  174.2550  145.3790 C   0  0  0  0  0  2  0  0  0  0  0  0
  193.3430  176.8180  144.8400 C   0  0  2  0  0  3  0  0  0  0  0  0
  195.7070  176.6840  144.5750 C   0  0  2  0  0  3  0  0  0  0  0  0
  194.6410  177.0430  145.5800 C   0  0  0  0  0  2  0  0  0  0  0  0
  192.2830  176.3360  145.8030 C   0  0  0  0  0  1  0  0  0  0  0  0
  194.9310  175.9430  143.5090 C   0  0  1  0  0  0  0  0  0  0  0  0
  195.9450  175.1750  144.3470 C   0  0  2  0  0  3  0  0  0  0  0  0
  193.5630  175.8450  143.8540 O   0  0  0  0  0  0  0  0  0  0  0  0
  195.3210  176.3870  142.1010 C   0  0  0  0  0  3  0  0  0  0  0  0
  194.4600  175.7090  141.0470 C   0  0  0  0  0  2  0  0  0  0  0  0
  195.8610  175.2050  141.3160 C   0  0  0  0  0  2  0  0  0  0  0  0
  2  1  1  6  0  0  0
  2  7  1  0  0  0  0
  3  6  1  6  0  0  0
  3 18  1  0  0  0  0
  3  8  1  0  0  0  0
  4 14  2  0  0  0  0
  4  5  1  0  0  0  0
  5  6  1  0  0  0  0
  7 13  1  0  0  0  0
  7 26  1  1  0  0  0
  8 12  2  0  0  0  0
  9  1  1  0  0  0  0
 10  9  1  1  0  0  0
 10 11  1  0  0  0  0
 11  2  1  0  0  0  0
 11 12  1  1  0  0  0
 12 13  1  0  0  0  0
 14 15  1  0  0  0  0
 15  6  2  0  0  0  0
 15 10  1  0  0  0  0
 16 20  1  1  0  0  0
 16 21  1  0  0  0  0
 17 16  1  0  0  0  0
 18 17  1  6  0  0  0
 18 16  1  0  0  0  0
 20 19  3  0  0  0  0
 21 22  1  0  0  0  0
 22 24  1  0  0  0  0
 24 23  2  0  0  0  0
 24 25  1  0  0  0  0
 27 26  1  0  0  0  0
 28 29  1  6  0  0  0
 28 27  1  0  0  0  0
 28 30  1  0  0  0  0
 31 33  1  0  0  0  0
 31 34  1  1  0  0  0
 32 33  1  1  0  0  0
 35 38  1  6  0  0  0
 35 37  1  0  0  0  0
 35 36  1  0  0  0  0
 35 32  1  0  0  0  0
 36 32  1  0  0  0  0
 36 30  1  1  0  0  0
 37 31  1  0  0  0  0
 39 40  1  0  0  0  0
 39 38  1  0  0  0  0
 40 38  1  0  0  0  0
M  END
>  <MODEL>
3

>  <REMARK>
 VINA RESULT:      -7.0      3.045      8.578
  Name = 
  11 active torsions:
  status: ('A' for Active; 'I' for Inactive)
    1  A    between atoms: C_2  and  C_20
    2  A    between atoms: C_5  and  C_27
    3  A    between atoms: C_11  and  N_36
    4  A    between atoms: C_11  and  C_40
    5  A    between atoms: C_16  and  C_39
    6  A    between atoms: C_17  and  C_22
    7  A    between atoms: C_17  and  N_36
    8  A    between atoms: C_21  and  C_25
    9  A    between atoms: C_21  and  C_29
   10  A    between atoms: C_25  and  C_31
   11  A    between atoms: C_31  and  C_39
                            x       y       z     vdW  Elec       q    Type
                         _______ _______ _______ _____ _____    ______ ____

>  <TORSDO>
F 11

$$$$
=
 OpenBabel11042419293D

 40 47  0  0  1  0  0  0  0  0999 V2000
  191.9600  175.7470  146.9480 C   0  0  0  0  0  2  0  0  0  0  0  0
  191.7920  176.0390  145.6700 C   0  0  2  0  0  3  0  0  0  0  0  0
  187.7660  176.7880  144.1240 C   0  0  2  0  0  3  0  0  0  0  0  0
  186.4200  176.4850  147.5430 N   0  0  0  0  0  0  0  0  0  0  0  0
  186.2820  176.8750  146.2590 C   0  0  0  0  0  3  0  0  0  0  0  0
  187.4860  176.6580  145.6080 C   0  0  0  0  0  0  0  0  0  0  0  0
  192.5120  177.0580  144.8420 C   0  0  2  0  0  3  0  0  0  0  0  0
  189.0680  177.3980  143.8460 N   0  0  0  0  0  0  0  0  0  0  0  0
  190.6310  175.2790  147.4850 C   0  0  0  0  0  2  0  0  0  0  0  0
  189.6960  175.6690  146.3760 C   0  0  2  0  0  3  0  0  0  0  0  0
  190.4220  175.9880  145.3250 C   0  0  1  0  0  3  0  0  0  0  0  0
  190.2120  176.9900  144.3080 C   0  0  0  0  0  0  0  0  0  0  0  0
  191.4530  177.6220  143.9890 N   0  0  0  0  0  2  0  0  0  0  0  0
  187.6430  176.0100  147.7300 N   0  0  0  0  0  2  0  0  0  0  0  0
  188.3040  176.0920  146.5640 C   0  0  0  0  0  0  0  0  0  0  0  0
  186.5330  177.3010  141.9700 C   0  0  1  0  0  0  0  0  0  0  0  0
  185.6600  176.7660  142.9390 O   0  0  0  0  0  0  0  0  0  0  0  0
  186.6880  177.6150  143.4180 C   0  0  1  0  0  3  0  0  0  0  0  0
  188.0460  175.4660  140.7350 C   0  0  0  0  0  3  0  0  0  0  0  0
  187.3580  176.2890  141.2900 C   0  0  0  0  0  0  0  0  0  0  0  0
  185.9560  178.3780  141.1650 N   0  0  0  0  0  2  0  0  0  0  0  0
  184.9740  177.8540  140.2140 C   0  0  0  0  0  2  0  0  0  0  0  0
  183.3910  178.5190  141.8780 O   0  0  0  0  0  1  0  0  0  0  0  0
  183.5820  178.0640  140.7180 C   0  0  0  0  0  0  0  0  0  0  0  0
  182.4960  177.7670  139.9010 O   0  0  0  0  0  0  0  0  0  0  0  0
  193.5770  176.3960  143.9860 C   0  0  0  0  0  2  0  0  0  0  0  0
  193.1200  176.3670  142.5370 C   0  0  0  0  0  2  0  0  0  0  0  0
  193.4550  175.0320  141.8970 C   0  0  1  0  0  3  0  0  0  0  0  0
  194.8320  174.8210  141.9280 O   0  0  0  0  0  1  0  0  0  0  0  0
  192.7520  173.9320  142.6690 C   0  0  0  0  0  2  0  0  0  0  0  0
  191.6380  171.0020  143.5760 C   0  0  2  0  0  3  0  0  0  0  0  0
  190.3870  172.9840  143.1490 C   0  0  2  0  0  3  0  0  0  0  0  0
  191.0770  172.2280  144.2570 C   0  0  0  0  0  2  0  0  0  0  0  0
  192.9400  170.6050  144.2320 C   0  0  0  0  0  1  0  0  0  0  0  0
  190.9330  172.3270  141.9000 C   0  0  1  0  0  0  0  0  0  0  0  0
  191.3070  173.7750  142.1920 C   0  0  2  0  0  3  0  0  0  0  0  0
  191.8650  171.3140  142.2270 O   0  0  0  0  0  0  0  0  0  0  0  0
  189.8370  172.0380  140.8770 C   0  0  0  0  0  3  0  0  0  0  0  0
  190.3700  171.2220  139.7090 C   0  0  0  0  0  2  0  0  0  0  0  0
  190.1690  172.7140  139.5580 C   0  0  0  0  0  2  0  0  0  0  0  0
  1  9  1  0  0  0  0
  2  1  1  1  0  0  0
  3  8  1  1  0  0  0
  3  6  1  0  0  0  0
  4 14  1  0  0  0  0
  5  4  2  0  0  0  0
  6  5  1  0  0  0  0
  6 15  2  0  0  0  0
  7 26  1  6  0  0  0
  7  2  1  0  0  0  0
  8 12  2  0  0  0  0
 10 15  1  0  0  0  0
 10  9  1  1  0  0  0
 11 12  1  1  0  0  0
 11  2  1  0  0  0  0
 11 10  1  0  0  0  0
 13 12  1  0  0  0  0
 13  7  1  0  0  0  0
 15 14  1  0  0  0  0
 16 20  1  6  0  0  0
 16 17  1  0  0  0  0
 16 18  1  0  0  0  0
 18 17  1  1  0  0  0
 18  3  1  0  0  0  0
 19 20  3  0  0  0  0
 21 16  1  0  0  0  0
 22 24  1  0  0  0  0
 22 21  1  0  0  0  0
 24 23  1  0  0  0  0
 25 24  2  0  0  0  0
 27 26  1  0  0  0  0
 28 29  1  1  0  0  0
 28 27  1  0  0  0  0
 28 30  1  0  0  0  0
 31 34  1  1  0  0  0
 31 33  1  0  0  0  0
 32 33  1  1  0  0  0
 35 38  1  6  0  0  0
 35 36  1  0  0  0  0
 35 37  1  0  0  0  0
 35 32  1  0  0  0  0
 36 30  1  1  0  0  0
 36 32  1  0  0  0  0
 37 31  1  0  0  0  0
 39 38  1  0  0  0  0
 40 39  1  0  0  0  0
 40 38  1  0  0  0  0
M  END
>  <MODEL>
4

>  <REMARK>
 VINA RESULT:      -6.9      3.338      9.032
  Name = 
  11 active torsions:
  status: ('A' for Active; 'I' for Inactive)
    1  A    between atoms: C_2  and  C_20
    2  A    between atoms: C_5  and  C_27
    3  A    between atoms: C_11  and  N_36
    4  A    between atoms: C_11  and  C_40
    5  A    between atoms: C_16  and  C_39
    6  A    between atoms: C_17  and  C_22
    7  A    between atoms: C_17  and  N_36
    8  A    between atoms: C_21  and  C_25
    9  A    between atoms: C_21  and  C_29
   10  A    between atoms: C_25  and  C_31
   11  A    between atoms: C_31  and  C_39
                            x       y       z     vdW  Elec       q    Type
                         _______ _______ _______ _____ _____    ______ ____

>  <TORSDO>
F 11

$$$$
=
 OpenBabel11042419293D

 40 47  0  0  1  0  0  0  0  0999 V2000
  186.5280  178.6730  145.3380 C   0  0  0  0  0  2  0  0  0  0  0  0
  187.4170  177.6950  145.3020 C   0  0  2  0  0  3  0  0  0  0  0  0
  188.0430  175.4630  141.5900 C   0  0  2  0  0  3  0  0  0  0  0  0
  185.6940  177.7190  139.8620 N   0  0  0  0  0  0  0  0  0  0  0  0
  186.6720  176.7910  139.8220 C   0  0  0  0  0  3  0  0  0  0  0  0
  187.0860  176.5400  141.1210 C   0  0  0  0  0  0  0  0  0  0  0  0
  188.8420  177.7110  145.7640 C   0  0  2  0  0  3  0  0  0  0  0  0
  188.9550  175.9330  142.6340 N   0  0  0  0  0  0  0  0  0  0  0  0
  185.5880  178.4740  144.1760 C   0  0  0  0  0  2  0  0  0  0  0  0
  186.3110  177.4340  143.3690 C   0  0  2  0  0  3  0  0  0  0  0  0
  187.2820  176.9450  144.1120 C   0  0  1  0  0  3  0  0  0  0  0  0
  188.6060  176.4960  143.7520 C   0  0  0  0  0  0  0  0  0  0  0  0
  189.5460  176.9220  144.7390 N   0  0  0  0  0  2  0  0  0  0  0  0
  185.4520  178.0490  141.1220 N   0  0  0  0  0  2  0  0  0  0  0  0
  186.2760  177.3350  141.9060 C   0  0  0  0  0  0  0  0  0  0  0  0
  189.4080  173.5370  140.6670 C   0  0  1  0  0  0  0  0  0  0  0  0
  188.2560  173.7630  139.8860 O   0  0  0  0  0  0  0  0  0  0  0  0
  188.8800  174.9100  140.4330 C   0  0  1  0  0  3  0  0  0  0  0  0
  188.9420  172.1890  142.9350 C   0  0  0  0  0  3  0  0  0  0  0  0
  189.1460  172.7920  141.9090 C   0  0  0  0  0  0  0  0  0  0  0  0
  190.6040  173.1980  139.8950 N   0  0  0  0  0  2  0  0  0  0  0  0
  190.3770  172.0110  139.0690 C   0  0  0  0  0  2  0  0  0  0  0  0
  190.9830  169.6980  139.0940 O   0  0  0  0  0  0  0  0  0  0  0  0
  191.1450  170.8420  139.5980 C   0  0  0  0  0  0  0  0  0  0  0  0
  192.0460  171.0190  140.6430 O   0  0  0  0  0  1  0  0  0  0  0  0
  188.9720  177.0410  147.1210 C   0  0  0  0  0  2  0  0  0  0  0  0
  190.4220  177.0820  147.5720 C   0  0  0  0  0  2  0  0  0  0  0  0
  190.9270  175.6830  147.8770 C   0  0  1  0  0  3  0  0  0  0  0  0
  190.0560  174.7350  147.3410 O   0  0  0  0  0  1  0  0  0  0  0  0
  192.3030  175.5170  147.2610 C   0  0  0  0  0  2  0  0  0  0  0  0
  194.4940  176.3750  145.0010 C   0  0  2  0  0  3  0  0  0  0  0  0
  193.6320  174.2030  145.4640 C   0  0  2  0  0  3  0  0  0  0  0  0
  194.7590  175.1380  145.8260 C   0  0  0  0  0  2  0  0  0  0  0  0
  194.9400  177.6020  145.7630 C   0  0  0  0  0  1  0  0  0  0  0  0
  192.6450  175.1160  144.7710 C   0  0  1  0  0  0  0  0  0  0  0  0
  192.2630  174.5050  146.1140 C   0  0  2  0  0  3  0  0  0  0  0  0
  193.1160  176.4490  144.7510 O   0  0  0  0  0  0  0  0  0  0  0  0
  192.0880  174.4960  143.4920 C   0  0  0  0  0  3  0  0  0  0  0  0
  193.2040  174.0430  142.5640 C   0  0  0  0  0  2  0  0  0  0  0  0
  192.4780  175.3430  142.2940 C   0  0  0  0  0  2  0  0  0  0  0  0
  2  1  1  6  0  0  0
  2  7  1  0  0  0  0
  3  6  1  6  0  0  0
  3  8  1  0  0  0  0
  4 14  1  0  0  0  0
  5  4  2  0  0  0  0
  5  6  1  0  0  0  0
  6 15  2  0  0  0  0
  7 26  1  1  0  0  0
  8 12  2  0  0  0  0
  9  1  1  0  0  0  0
 10 11  1  0  0  0  0
 10  9  1  6  0  0  0
 11 12  1  6  0  0  0
 11  2  1  0  0  0  0
 12 13  1  0  0  0  0
 13  7  1  0  0  0  0
 14 15  1  0  0  0  0
 15 10  1  0  0  0  0
 16 20  1  1  0  0  0
 17 16  1  0  0  0  0
 18 17  1  6  0  0  0
 18 16  1  0  0  0  0
 18  3  1  0  0  0  0
 20 19  3  0  0  0  0
 21 16  1  0  0  0  0
 22 24  1  0  0  0  0
 22 21  1  0  0  0  0
 23 24  2  0  0  0  0
 24 25  1  0  0  0  0
 26 27  1  0  0  0  0
 27 28  1  0  0  0  0
 28 29  1  6  0  0  0
 30 28  1  0  0  0  0
 31 34  1  1  0  0  0
 31 33  1  0  0  0  0
 32 33  1  1  0  0  0
 32 36  1  0  0  0  0
 35 38  1  6  0  0  0
 35 32  1  0  0  0  0
 35 36  1  0  0  0  0
 36 30  1  1  0  0  0
 37 35  1  0  0  0  0
 37 31  1  0  0  0  0
 39 38  1  0  0  0  0
 40 39  1  0  0  0  0
 40 38  1  0  0  0  0
M  END
>  <MODEL>
5

>  <REMARK>
 VINA RESULT:      -6.8      3.885      7.303
  Name = 
  11 active torsions:
  status: ('A' for Active; 'I' for Inactive)
    1  A    between atoms: C_2  and  C_20
    2  A    between atoms: C_5  and  C_27
    3  A    between atoms: C_11  and  N_36
    4  A    between atoms: C_11  and  C_40
    5  A    between atoms: C_16  and  C_39
    6  A    between atoms: C_17  and  C_22
    7  A    between atoms: C_17  and  N_36
    8  A    between atoms: C_21  and  C_25
    9  A    between atoms: C_21  and  C_29
   10  A    between atoms: C_25  and  C_31
   11  A    between atoms: C_31  and  C_39
                            x       y       z     vdW  Elec       q    Type
                         _______ _______ _______ _____ _____    ______ ____

>  <TORSDO>
F 11

$$$$
=
 OpenBabel11042419293D

 40 47  0  0  1  0  0  0  0  0999 V2000
  192.7600  176.7640  147.2180 C   0  0  0  0  0  2  0  0  0  0  0  0
  191.7150  176.2710  146.5760 C   0  0  2  0  0  3  0  0  0  0  0  0
  192.2140  172.8030  143.9540 C   0  0  2  0  0  3  0  0  0  0  0  0
  195.7460  172.5590  144.9840 N   0  0  0  0  0  0  0  0  0  0  0  0
  194.6500  172.0150  144.4140 C   0  0  0  0  0  3  0  0  0  0  0  0
  193.5960  172.9020  144.5680 C   0  0  0  0  0  0  0  0  0  0  0  0
  190.3670  175.9110  147.1220 C   0  0  2  0  0  3  0  0  0  0  0  0
  191.1540  173.2050  144.8810 N   0  0  0  0  0  0  0  0  0  0  0  0
  193.9990  176.2740  146.5120 C   0  0  0  0  0  2  0  0  0  0  0  0
  193.4390  175.2140  145.6070 C   0  0  2  0  0  3  0  0  0  0  0  0
  192.1270  175.3370  145.6000 C   0  0  1  0  0  3  0  0  0  0  0  0
  191.0910  174.3350  145.5190 C   0  0  0  0  0  0  0  0  0  0  0  0
  190.0210  174.6740  146.4020 N   0  0  0  0  0  2  0  0  0  0  0  0
  195.4420  173.7550  145.4670 N   0  0  0  0  0  2  0  0  0  0  0  0
  194.1450  173.9910  145.2140 C   0  0  0  0  0  0  0  0  0  0  0  0
  191.4230  171.3110  142.0640 C   0  0  1  0  0  0  0  0  0  0  0  0
  192.7680  171.0460  142.3900 O   0  0  0  0  0  0  0  0  0  0  0  0
  191.9130  171.3820  143.4690 C   0  0  1  0  0  3  0  0  0  0  0  0
  191.0730  173.4940  140.5500 C   0  0  0  0  0  3  0  0  0  0  0  0
  191.2390  172.5110  141.2310 C   0  0  0  0  0  0  0  0  0  0  0  0
  190.6310  170.1210  141.7490 N   0  0  0  0  0  2  0  0  0  0  0  0
  191.3910  169.1940  140.9090 C   0  0  0  0  0  2  0  0  0  0  0  0
  192.3290  169.9310  138.8360 O   0  0  0  0  0  1  0  0  0  0  0  0
  191.2960  169.5820  139.4680 C   0  0  0  0  0  0  0  0  0  0  0  0
  190.0650  169.5500  138.8210 O   0  0  0  0  0  0  0  0  0  0  0  0
  189.3560  177.0000  146.8090 C   0  0  0  0  0  2  0  0  0  0  0  0
  188.1700  176.3970  146.0750 C   0  0  0  0  0  2  0  0  0  0  0  0
  186.9270  177.2450  146.2780 C   0  0  1  0  0  3  0  0  0  0  0  0
  187.1110  178.1080  147.3580 O   0  0  0  0  0  1  0  0  0  0  0  0
  186.6760  178.0510  145.0190 C   0  0  0  0  0  2  0  0  0  0  0  0
  185.1120  177.9230  142.1580 C   0  0  2  0  0  3  0  0  0  0  0  0
  187.4250  178.3360  142.5520 C   0  0  2  0  0  3  0  0  0  0  0  0
  186.1010  179.0410  142.3870 C   0  0  0  0  0  2  0  0  0  0  0  0
  183.7770  178.2910  142.7630 C   0  0  0  0  0  1  0  0  0  0  0  0
  187.0160  176.8970  142.7760 C   0  0  1  0  0  0  0  0  0  0  0  0
  187.6690  177.6610  143.9210 C   0  0  2  0  0  3  0  0  0  0  0  0
  185.6070  176.7650  142.7740 O   0  0  0  0  0  0  0  0  0  0  0  0
  187.8630  175.9250  141.9580 C   0  0  0  0  0  3  0  0  0  0  0  0
  188.2350  174.6940  142.7700 C   0  0  0  0  0  2  0  0  0  0  0  0
  189.2470  175.8020  142.5710 C   0  0  0  0  0  2  0  0  0  0  0  0
  2  7  1  0  0  0  0
  2  1  1  1  0  0  0
  3  6  1  1  0  0  0
  3  8  1  0  0  0  0
  4 14  1  0  0  0  0
  5  6  1  0  0  0  0
  5  4  2  0  0  0  0
  6 15  2  0  0  0  0
  7 26  1  6  0  0  0
  8 12  2  0  0  0  0
  9  1  1  0  0  0  0
 10  9  1  1  0  0  0
 11 12  1  1  0  0  0
 11 10  1  0  0  0  0
 11  2  1  0  0  0  0
 12 13  1  0  0  0  0
 13  7  1  0  0  0  0
 15 14  1  0  0  0  0
 15 10  1  0  0  0  0
 16 20  1  6  0  0  0
 16 17  1  0  0  0  0
 16 18  1  0  0  0  0
 18 17  1  6  0  0  0
 18  3  1  0  0  0  0
 19 20  3  0  0  0  0
 21 16  1  0  0  0  0
 22 21  1  0  0  0  0
 23 24  1  0  0  0  0
 24 22  1  0  0  0  0
 25 24  2  0  0  0  0
 27 28  1  0  0  0  0
 27 26  1  0  0  0  0
 28 29  1  1  0  0  0
 30 28  1  0  0  0  0
 31 33  1  0  0  0  0
 31 34  1  1  0  0  0
 31 37  1  0  0  0  0
 32 33  1  1  0  0  0
 32 35  1  0  0  0  0
 32 36  1  0  0  0  0
 35 38  1  6  0  0  0
 35 36  1  0  0  0  0
 36 30  1  1  0  0  0
 37 35  1  0  0  0  0
 38 40  1  0  0  0  0
 38 39  1  0  0  0  0
 40 39  1  0  0  0  0
M  END
>  <MODEL>
6

>  <REMARK>
 VINA RESULT:      -6.7      2.891      4.145
  Name = 
  11 active torsions:
  status: ('A' for Active; 'I' for Inactive)
    1  A    between atoms: C_2  and  C_20
    2  A    between atoms: C_5  and  C_27
    3  A    between atoms: C_11  and  N_36
    4  A    between atoms: C_11  and  C_40
    5  A    between atoms: C_16  and  C_39
    6  A    between atoms: C_17  and  C_22
    7  A    between atoms: C_17  and  N_36
    8  A    between atoms: C_21  and  C_25
    9  A    between atoms: C_21  and  C_29
   10  A    between atoms: C_25  and  C_31
   11  A    between atoms: C_31  and  C_39
                            x       y       z     vdW  Elec       q    Type
                         _______ _______ _______ _____ _____    ______ ____

>  <TORSDO>
F 11

$$$$
=
 OpenBabel11042419293D

 40 47  0  0  1  0  0  0  0  0999 V2000
  194.6530  174.1650  144.6200 C   0  0  0  0  0  2  0  0  0  0  0  0
  194.0230  174.5770  143.5320 C   0  0  2  0  0  3  0  0  0  0  0  0
  190.2440  176.7530  143.9060 C   0  0  2  0  0  3  0  0  0  0  0  0
  190.6080  176.7130  147.5750 N   0  0  0  0  0  0  0  0  0  0  0  0
  190.0330  177.2060  146.4590 C   0  0  0  0  0  3  0  0  0  0  0  0
  190.6530  176.6330  145.3610 C   0  0  0  0  0  0  0  0  0  0  0  0
  194.5730  175.3390  142.3670 C   0  0  2  0  0  3  0  0  0  0  0  0
  191.3910  176.8970  143.0070 N   0  0  0  0  0  0  0  0  0  0  0  0
  193.6510  174.1460  145.7450 C   0  0  0  0  0  2  0  0  0  0  0  0
  192.5000  174.9010  145.1450 C   0  0  2  0  0  3  0  0  0  0  0  0
  192.7200  175.0190  143.8520 C   0  0  1  0  0  3  0  0  0  0  0  0
  192.4110  176.0950  142.9410 C   0  0  0  0  0  0  0  0  0  0  0  0
  193.4950  176.2830  142.0310 N   0  0  0  0  0  2  0  0  0  0  0  0
  191.5440  175.8380  147.2370 N   0  0  0  0  0  2  0  0  0  0  0  0
  191.5800  175.7620  145.8970 C   0  0  0  0  0  0  0  0  0  0  0  0
  188.0070  177.5780  143.0480 C   0  0  1  0  0  0  0  0  0  0  0  0
  188.1200  177.7740  144.4390 O   0  0  0  0  0  0  0  0  0  0  0  0
  189.3050  177.9410  143.6810 C   0  0  1  0  0  3  0  0  0  0  0  0
  187.3950  175.0580  142.3720 C   0  0  0  0  0  3  0  0  0  0  0  0
  187.6740  176.1950  142.6690 C   0  0  0  0  0  0  0  0  0  0  0  0
  187.3430  178.6700  142.3350 N   0  0  0  0  0  2  0  0  0  0  0  0
  185.8950  178.4600  142.2850 C   0  0  0  0  0  2  0  0  0  0  0  0
  185.5570  180.1750  143.9170 O   0  0  0  0  0  0  0  0  0  0  0  0
  185.2340  179.0300  143.4990 C   0  0  0  0  0  0  0  0  0  0  0  0
  184.2550  178.3000  144.1640 O   0  0  0  0  0  1  0  0  0  0  0  0
  194.8370  174.4070  141.1960 C   0  0  0  0  0  2  0  0  0  0  0  0
  193.9970  174.8360  140.0050 C   0  0  0  0  0  2  0  0  0  0  0  0
  193.2320  173.6540  139.4370 C   0  0  1  0  0  3  0  0  0  0  0  0
  193.8530  172.4620  139.8070 O   0  0  0  0  0  1  0  0  0  0  0  0
  191.8170  173.6820  139.9820 C   0  0  0  0  0  2  0  0  0  0  0  0
  188.7350  172.6770  139.6090 C   0  0  2  0  0  3  0  0  0  0  0  0
  190.6220  171.4050  140.3160 C   0  0  2  0  0  3  0  0  0  0  0  0
  189.8470  171.8000  139.0840 C   0  0  0  0  0  2  0  0  0  0  0  0
  188.4080  173.7490  138.5950 C   0  0  0  0  0  1  0  0  0  0  0  0
  190.1180  172.3790  141.3580 C   0  0  1  0  0  0  0  0  0  0  0  0
  191.5670  172.4820  140.8970 C   0  0  2  0  0  3  0  0  0  0  0  0
  189.1720  173.2720  140.8020 O   0  0  0  0  0  0  0  0  0  0  0  0
  189.8120  171.6920  142.6870 C   0  0  0  0  0  3  0  0  0  0  0  0
  189.8740  172.6740  143.8460 C   0  0  0  0  0  2  0  0  0  0  0  0
  191.0340  171.7370  143.5870 C   0  0  0  0  0  2  0  0  0  0  0  0
  1  9  1  0  0  0  0
  2 11  1  0  0  0  0
  2  1  1  1  0  0  0
  3  8  1  6  0  0  0
  3  6  1  0  0  0  0
  5  4  2  0  0  0  0
  6 15  2  0  0  0  0
  6  5  1  0  0  0  0
  7 26  1  6  0  0  0
  7  2  1  0  0  0  0
 10  9  1  1  0  0  0
 10 15  1  0  0  0  0
 11 12  1  1  0  0  0
 11 10  1  0  0  0  0
 12  8  2  0  0  0  0
 13  7  1  0  0  0  0
 13 12  1  0  0  0  0
 14  4  1  0  0  0  0
 15 14  1  0  0  0  0
 16 20  1  6  0  0  0
 16 18  1  0  0  0  0
 16 17  1  0  0  0  0
 18  3  1  0  0  0  0
 18 17  1  1  0  0  0
 19 20  3  0  0  0  0
 21 16  1  0  0  0  0
 22 21  1  0  0  0  0
 22 24  1  0  0  0  0
 24 23  2  0  0  0  0
 24 25  1  0  0  0  0
 27 26  1  0  0  0  0
 28 29  1  1  0  0  0
 28 30  1  0  0  0  0
 28 27  1  0  0  0  0
 31 34  1  6  0  0  0
 31 37  1  0  0  0  0
 32 33  1  6  0  0  0
 32 36  1  0  0  0  0
 32 35  1  0  0  0  0
 33 31  1  0  0  0  0
 35 38  1  1  0  0  0
 36 30  1  6  0  0  0
 36 35  1  0  0  0  0
 37 35  1  0  0  0  0
 38 40  1  0  0  0  0
 38 39  1  0  0  0  0
 40 39  1  0  0  0  0
M  END
>  <MODEL>
7

>  <REMARK>
 VINA RESULT:      -6.7      3.303      8.203
  Name = 
  11 active torsions:
  status: ('A' for Active; 'I' for Inactive)
    1  A    between atoms: C_2  and  C_20
    2  A    between atoms: C_5  and  C_27
    3  A    between atoms: C_11  and  N_36
    4  A    between atoms: C_11  and  C_40
    5  A    between atoms: C_16  and  C_39
    6  A    between atoms: C_17  and  C_22
    7  A    between atoms: C_17  and  N_36
    8  A    between atoms: C_21  and  C_25
    9  A    between atoms: C_21  and  C_29
   10  A    between atoms: C_25  and  C_31
   11  A    between atoms: C_31  and  C_39
                            x       y       z     vdW  Elec       q    Type
                         _______ _______ _______ _____ _____    ______ ____

>  <TORSDO>
F 11

$$$$
=
 OpenBabel11042419293D

 40 47  0  0  1  0  0  0  0  0999 V2000
  185.9340  178.7270  145.8070 C   0  0  0  0  0  2  0  0  0  0  0  0
  186.8780  177.8250  145.5990 C   0  0  2  0  0  3  0  0  0  0  0  0
  187.3980  176.1080  141.6070 C   0  0  2  0  0  3  0  0  0  0  0  0
  184.8040  178.3860  140.3120 N   0  0  0  0  0  0  0  0  0  0  0  0
  185.8340  177.5400  140.1000 C   0  0  0  0  0  3  0  0  0  0  0  0
  186.3460  177.1640  141.3310 C   0  0  0  0  0  0  0  0  0  0  0  0
  188.3260  177.8850  145.9760 C   0  0  2  0  0  3  0  0  0  0  0  0
  188.3450  176.5110  142.6480 N   0  0  0  0  0  0  0  0  0  0  0  0
  184.9340  178.6050  144.6860 C   0  0  0  0  0  2  0  0  0  0  0  0
  185.6670  177.7230  143.7150 C   0  0  2  0  0  3  0  0  0  0  0  0
  186.7130  177.2170  144.3340 C   0  0  1  0  0  3  0  0  0  0  0  0
  188.0350  176.9090  143.8450 C   0  0  0  0  0  0  0  0  0  0  0  0
  189.0100  177.2770  144.8220 N   0  0  0  0  0  2  0  0  0  0  0  0
  184.6250  178.5440  141.6150 N   0  0  0  0  0  2  0  0  0  0  0  0
  185.5420  177.8000  142.2550 C   0  0  0  0  0  0  0  0  0  0  0  0
  188.5660  174.3220  140.2390 C   0  0  1  0  0  0  0  0  0  0  0  0
  187.4570  174.8480  139.5450 O   0  0  0  0  0  0  0  0  0  0  0  0
  188.1900  175.7590  140.3440 C   0  0  1  0  0  3  0  0  0  0  0  0
  187.9020  172.5200  142.1080 C   0  0  0  0  0  3  0  0  0  0  0  0
  188.2060  173.3360  141.2710 C   0  0  0  0  0  0  0  0  0  0  0  0
  189.7320  174.0500  139.3980 N   0  0  0  0  0  2  0  0  0  0  0  0
  190.4650  172.8790  139.8810 C   0  0  0  0  0  2  0  0  0  0  0  0
  191.4800  171.9950  137.9050 O   0  0  0  0  0  0  0  0  0  0  0  0
  190.6030  171.8560  138.8000 C   0  0  0  0  0  0  0  0  0  0  0  0
  189.7680  170.7430  138.7870 O   0  0  0  0  0  1  0  0  0  0  0  0
  188.5860  177.0660  147.2290 C   0  0  0  0  0  2  0  0  0  0  0  0
  190.0460  176.6440  147.2680 C   0  0  0  0  0  2  0  0  0  0  0  0
  190.1630  175.1420  147.4540 C   0  0  1  0  0  3  0  0  0  0  0  0
  188.8980  174.5850  147.6370 O   0  0  0  0  0  1  0  0  0  0  0  0
  190.8090  174.5470  146.2180 C   0  0  0  0  0  2  0  0  0  0  0  0
  192.1490  173.1950  143.5670 C   0  0  2  0  0  3  0  0  0  0  0  0
  192.0050  175.5070  144.1270 C   0  0  2  0  0  3  0  0  0  0  0  0
  191.2730  174.4130  143.3890 C   0  0  0  0  0  2  0  0  0  0  0  0
  191.2900  171.9550  143.6490 C   0  0  0  0  0  1  0  0  0  0  0  0
  193.0110  174.7410  144.9560 C   0  0  1  0  0  0  0  0  0  0  0  0
  191.8860  175.4840  145.6670 C   0  0  2  0  0  3  0  0  0  0  0  0
  192.8740  173.3470  144.7590 O   0  0  0  0  0  0  0  0  0  0  0  0
  194.3990  175.3750  144.9050 C   0  0  0  0  0  3  0  0  0  0  0  0
  195.2370  174.9730  146.1090 C   0  0  0  0  0  2  0  0  0  0  0  0
  194.5740  176.3330  146.0700 C   0  0  0  0  0  2  0  0  0  0  0  0
  2  1  1  6  0  0  0
  2  7  1  0  0  0  0
  3  6  1  6  0  0  0
  3  8  1  0  0  0  0
  4 14  1  0  0  0  0
  5  4  2  0  0  0  0
  5  6  1  0  0  0  0
  6 15  2  0  0  0  0
  7 26  1  1  0  0  0
  8 12  2  0  0  0  0
  9  1  1  0  0  0  0
 10 11  1  0  0  0  0
 10  9  1  1  0  0  0
 11 12  1  6  0  0  0
 11  2  1  0  0  0  0
 12 13  1  0  0  0  0
 13  7  1  0  0  0  0
 14 15  1  0  0  0  0
 15 10  1  0  0  0  0
 16 18  1  0  0  0  0
 16 20  1  1  0  0  0
 17 16  1  0  0  0  0
 18 17  1  6  0  0  0
 18  3  1  0  0  0  0
 20 19  3  0  0  0  0
 21 22  1  0  0  0  0
 21 16  1  0  0  0  0
 23 24  2  0  0  0  0
 24 22  1  0  0  0  0
 25 24  1  0  0  0  0
 26 27  1  0  0  0  0
 27 28  1  0  0  0  0
 28 29  1  6  0  0  0
 30 28  1  0  0  0  0
 31 34  1  1  0  0  0
 31 37  1  0  0  0  0
 32 33  1  6  0  0  0
 32 35  1  0  0  0  0
 32 36  1  0  0  0  0
 33 31  1  0  0  0  0
 35 38  1  1  0  0  0
 35 36  1  0  0  0  0
 36 30  1  6  0  0  0
 37 35  1  0  0  0  0
 38 40  1  0  0  0  0
 38 39  1  0  0  0  0
 40 39  1  0  0  0  0
M  END
>  <MODEL>
8

>  <REMARK>
 VINA RESULT:      -6.7      3.786      7.828
  Name = 
  11 active torsions:
  status: ('A' for Active; 'I' for Inactive)
    1  A    between atoms: C_2  and  C_20
    2  A    between atoms: C_5  and  C_27
    3  A    between atoms: C_11  and  N_36
    4  A    between atoms: C_11  and  C_40
    5  A    between atoms: C_16  and  C_39
    6  A    between atoms: C_17  and  C_22
    7  A    between atoms: C_17  and  N_36
    8  A    between atoms: C_21  and  C_25
    9  A    between atoms: C_21  and  C_29
   10  A    between atoms: C_25  and  C_31
   11  A    between atoms: C_31  and  C_39
                            x       y       z     vdW  Elec       q    Type
                         _______ _______ _______ _____ _____    ______ ____

>  <TORSDO>
F 11

$$$$
=
 OpenBabel11042419293D

 40 47  0  0  1  0  0  0  0  0999 V2000
  191.9740  170.9750  140.1510 C   0  0  0  0  0  2  0  0  0  0  0  0
  191.6320  171.4510  141.3370 C   0  0  2  0  0  3  0  0  0  0  0  0
  188.7110  174.6980  141.6130 C   0  0  2  0  0  3  0  0  0  0  0  0
  188.2080  174.5270  137.9640 N   0  0  0  0  0  0  0  0  0  0  0  0
  187.8030  174.9310  139.1860 C   0  0  0  0  0  2  0  0  0  0  0  0
  188.6660  174.3940  140.1280 C   0  0  0  0  0  0  0  0  0  0  0  0
  191.2030  170.6960  142.5570 C   0  0  2  0  0  3  0  0  0  0  0  0
  188.9530  173.5050  142.4260 N   0  0  0  0  0  0  0  0  0  0  0  0
  191.6020  172.0110  139.1220 C   0  0  0  0  0  2  0  0  0  0  0  0
  190.7430  172.9470  139.9230 C   0  0  2  0  0  3  0  0  0  0  0  0
  190.8910  172.6450  141.1960 C   0  0  1  0  0  3  0  0  0  0  0  0
  189.9430  172.6760  142.2850 C   0  0  0  0  0  0  0  0  0  0  0  0
  190.1310  171.5340  143.1210 N   0  0  0  0  0  2  0  0  0  0  0  0
  189.2970  173.7820  138.0860 N   0  0  0  0  0  0  0  0  0  0  0  0
  189.6020  173.6990  139.3910 C   0  0  0  0  0  0  0  0  0  0  0  0
  187.6010  176.7060  142.6890 C   0  0  1  0  0  0  0  0  0  0  0  0
  187.1660  176.5390  141.3590 O   0  0  0  0  0  0  0  0  0  0  0  0
  187.4140  175.3530  142.0940 C   0  0  1  0  0  3  0  0  0  0  0  0
  190.0070  177.8630  142.9170 C   0  0  0  0  0  3  0  0  0  0  0  0
  188.9240  177.3400  142.8060 C   0  0  0  0  0  0  0  0  0  0  0  0
  186.5500  177.1180  143.6210 N   0  0  0  0  0  2  0  0  0  0  0  0
  187.1130  177.4480  144.9320 C   0  0  0  0  0  2  0  0  0  0  0  0
  184.8990  177.3300  145.8270 O   0  0  0  0  0  0  0  0  0  0  0  0
  186.1310  177.1520  146.0200 C   0  0  0  0  0  0  0  0  0  0  0  0
  186.5790  176.6690  147.2450 O   0  0  0  0  0  1  0  0  0  0  0  0
  192.3510  170.5790  143.5450 C   0  0  0  0  0  2  0  0  0  0  0  0
  193.1180  171.8910  143.5910 C   0  0  0  0  0  2  0  0  0  0  0  0
  193.6990  172.1210  144.9740 C   0  0  1  0  0  3  0  0  0  0  0  0
  195.0780  171.9140  144.9520 O   0  0  0  0  0  1  0  0  0  0  0  0
  193.4040  173.5470  145.3960 C   0  0  0  0  0  2  0  0  0  0  0  0
  193.1400  176.8000  145.4410 C   0  0  2  0  0  3  0  0  0  0  0  0
  191.8590  175.2370  144.1780 C   0  0  2  0  0  3  0  0  0  0  0  0
  193.1000  176.0930  144.1070 C   0  0  0  0  0  2  0  0  0  0  0  0
  194.5750  177.0050  145.8670 C   0  0  0  0  0  1  0  0  0  0  0  0
  191.5270  175.2460  145.6530 C   0  0  1  0  0  0  0  0  0  0  0  0
  191.9760  173.9400  145.0100 C   0  0  2  0  0  3  0  0  0  0  0  0
  192.4780  175.9980  146.3830 O   0  0  0  0  0  0  0  0  0  0  0  0
  190.0380  175.4720  145.9050 C   0  0  0  0  0  3  0  0  0  0  0  0
  189.6130  174.9170  147.2560 C   0  0  0  0  0  2  0  0  0  0  0  0
  189.3190  174.1370  145.9930 C   0  0  0  0  0  2  0  0  0  0  0  0
  2  1  1  6  0  0  0
  2  7  1  0  0  0  0
  3  6  1  6  0  0  0
  3 18  1  0  0  0  0
  3  8  1  0  0  0  0
  4 14  2  0  0  0  0
  4  5  1  0  0  0  0
  5  6  1  0  0  0  0
  7 13  1  0  0  0  0
  7 26  1  1  0  0  0
  9  1  1  0  0  0  0
 10  9  1  6  0  0  0
 10 11  1  0  0  0  0
 11  2  1  0  0  0  0
 11 12  1  6  0  0  0
 12  8  2  0  0  0  0
 12 13  1  0  0  0  0
 14 15  1  0  0  0  0
 15 10  1  0  0  0  0
 15  6  2  0  0  0  0
 16 20  1  1  0  0  0
 16 21  1  0  0  0  0
 17 16  1  0  0  0  0
 18 17  1  6  0  0  0
 18 16  1  0  0  0  0
 20 19  3  0  0  0  0
 21 22  1  0  0  0  0
 22 24  1  0  0  0  0
 23 24  2  0  0  0  0
 24 25  1  0  0  0  0
 26 27  1  0  0  0  0
 27 28  1  0  0  0  0
 28 29  1  6  0  0  0
 28 30  1  0  0  0  0
 31 34  1  1  0  0  0
 31 37  1  0  0  0  0
 32 33  1  1  0  0  0
 32 36  1  0  0  0  0
 32 35  1  0  0  0  0
 33 31  1  0  0  0  0
 35 38  1  1  0  0  0
 35 37  1  0  0  0  0
 36 30  1  1  0  0  0
 36 35  1  0  0  0  0
 38 40  1  0  0  0  0
 38 39  1  0  0  0  0
 40 39  1  0  0  0  0
M  END
>  <MODEL>
9

>  <REMARK>
 VINA RESULT:      -6.7      3.309      8.303
  Name = 
  11 active torsions:
  status: ('A' for Active; 'I' for Inactive)
    1  A    between atoms: C_2  and  C_20
    2  A    between atoms: C_5  and  C_27
    3  A    between atoms: C_11  and  N_36
    4  A    between atoms: C_11  and  C_40
    5  A    between atoms: C_16  and  C_39
    6  A    between atoms: C_17  and  C_22
    7  A    between atoms: C_17  and  N_36
    8  A    between atoms: C_21  and  C_25
    9  A    between atoms: C_21  and  C_29
   10  A    between atoms: C_25  and  C_31
   11  A    between atoms: C_31  and  C_39
                            x       y       z     vdW  Elec       q    Type
                         _______ _______ _______ _____ _____    ______ ____

>  <TORSDO>
F 11

$$$$
