=
 OpenBabel11042414103D

 49 55  0  0  1  0  0  0  0  0999 V2000
  188.0060  173.5400  138.6280 O   0  0  0  0  0  0  0  0  0  0  0  0
  188.8680  173.7830  141.3410 C   0  0  2  0  0  3  0  0  0  0  0  0
  190.3380  177.0780  146.8040 C   0  0  0  0  0  1  0  0  0  0  0  0
  193.3800  173.4480  143.4570 C   0  0  0  0  0  2  0  0  0  0  0  0
  193.8730  172.7890  141.0810 C   0  0  0  0  0  0  0  0  0  0  0  0
  194.2570  174.5920  143.9740 C   0  0  1  0  0  3  0  0  0  0  0  0
  188.2060  175.1460  141.1710 C   0  0  0  0  0  2  0  0  0  0  0  0
  190.0870  176.9610  145.5040 C   0  0  0  0  0  0  0  0  0  0  0  0
  190.1650  173.1860  137.7120 C   0  0  0  0  0  2  0  0  0  0  0  0
  191.2190  176.8850  144.5080 C   0  0  0  0  0  0  0  0  0  0  0  0
  188.4220  176.8070  143.7400 N   0  0  0  0  0  0  0  0  0  0  0  0
  189.7500  173.4800  140.2090 N   0  0  0  0  0  0  0  0  0  0  0  0
  193.4820  175.9100  144.0180 C   0  0  0  0  0  2  0  0  0  0  0  0
  187.8060  172.7090  141.5130 C   0  0  0  0  0  1  0  0  0  0  0  0
  193.3790  172.4030  139.8920 C   0  0  0  0  0  0  0  0  0  0  0  0
  188.7600  177.0130  145.0660 O   0  0  0  0  0  0  0  0  0  0  0  0
  193.0530  173.6680  141.9850 C   0  0  1  0  0  3  0  0  0  0  0  0
  192.0540  171.8270  137.3100 O   0  0  0  0  0  0  0  0  0  0  0  0
  191.4320  172.5300  138.1490 C   0  0  0  0  0  0  0  0  0  0  0  0
  191.6560  173.4900  141.7560 O   0  0  0  0  0  0  0  0  0  0  0  0
  190.7330  176.5890  143.1150 C   0  0  0  0  0  3  0  0  0  0  0  0
  191.9680  172.7480  139.5180 C   0  0  0  0  0  0  0  0  0  0  0  0
  192.2450  175.8280  144.9100 C   0  0  0  0  0  2  0  0  0  0  0  0
  189.4490  176.5360  142.7670 C   0  0  0  0  0  0  0  0  0  0  0  0
  195.1740  172.4480  141.4460 O   0  0  0  0  0  1  0  0  0  0  0  0
  189.2370  173.3910  138.8620 C   0  0  0  0  0  0  0  0  0  0  0  0
  191.1470  173.2400  140.4730 C   0  0  0  0  0  0  0  0  0  0  0  0
  189.1380  176.1770  141.4550 O   0  0  0  0  0  0  0  0  0  0  0  0
  184.0390  178.9630  146.1610 C   0  0  0  0  0  3  0  0  0  0  0  0
  186.2000  179.3610  143.1220 C   0  0  0  0  0  3  0  0  0  0  0  0
  186.1600  177.4130  144.4340 C   0  0  0  0  0  0  0  0  0  0  0  0
  185.0960  176.7200  146.6090 C   0  0  0  0  0  3  0  0  0  0  0  0
  184.3020  177.7410  146.9240 C   0  0  0  0  0  3  0  0  0  0  0  0
  187.0190  178.2940  142.4000 C   0  0  0  0  0  3  0  0  0  0  0  0
  185.6690  178.7410  144.3230 N   0  0  0  0  0  0  0  0  0  0  0  0
  185.9230  176.5460  145.4130 C   0  0  0  0  0  3  0  0  0  0  0  0
  184.6240  179.3990  145.0480 C   0  0  0  0  0  3  0  0  0  0  0  0
  187.0490  177.0580  143.2990 C   0  0  1  0  0  3  0  0  0  0  0  0
  194.1580  170.1350  139.2670 C   0  0  0  0  0  1  0  0  0  0  0  0
  194.2590  171.6200  138.9650 C   0  0  0  0  0  2  0  0  0  0  0  0
  194.9320  174.2860  145.2830 C   0  0  0  0  0  0  0  0  0  0  0  0
  195.4400  175.2330  145.9430 O   0  0  0  0  0  0  0  0  0  0  0  0
  197.0130  172.3300  144.4970 C   0  0  0  0  0  3  0  0  0  0  0  0
  195.0180  172.9330  145.7630 N   0  0  0  0  0  0  0  0  0  0  0  0
  195.9530  172.0660  145.4960 C   0  0  0  0  0  0  0  0  0  0  0  0
  197.9340  171.4070  144.2200 C   0  0  0  0  0  3  0  0  0  0  0  0
  195.8270  170.6860  146.0740 C   0  0  0  0  0  2  0  0  0  0  0  0
  197.9410  170.1610  144.9230 N   0  0  0  0  0  2  0  0  0  0  0  0
  197.1890  169.9940  146.1670 C   0  0  0  0  0  2  0  0  0  0  0  0
  1 26  2  0  0  0  0
  2 14  1  6  0  0  0
  4  6  1  0  0  0  0
  5 25  1  0  0  0  0
  5 17  1  0  0  0  0
  6 13  1  0  0  0  0
  6 41  1  1  0  0  0
  7  2  1  0  0  0  0
  7 28  1  0  0  0  0
  8  3  1  0  0  0  0
  9 19  1  0  0  0  0
  9 26  1  0  0  0  0
 10 23  1  0  0  0  0
 10  8  2  0  0  0  0
 11 16  1  0  0  0  0
 12 27  1  0  0  0  0
 12  2  1  0  0  0  0
 13 23  1  0  0  0  0
 15  5  2  0  0  0  0
 16  8  1  0  0  0  0
 17  4  1  1  0  0  0
 18 19  2  0  0  0  0
 19 22  1  0  0  0  0
 20 17  1  0  0  0  0
 21 10  1  0  0  0  0
 22 15  1  0  0  0  0
 22 27  2  0  0  0  0
 24 21  2  0  0  0  0
 24 11  1  0  0  0  0
 26 12  1  0  0  0  0
 27 20  1  0  0  0  0
 28 24  1  0  0  0  0
 29 33  1  0  0  0  0
 30 35  1  0  0  0  0
 31 36  2  0  0  0  0
 32 33  2  0  0  0  0
 34 30  2  0  0  0  0
 35 31  1  0  0  0  0
 35 37  1  0  0  0  0
 36 32  1  0  0  0  0
 37 29  2  0  0  0  0
 38 34  1  6  0  0  0
 38 11  1  0  0  0  0
 38 31  1  0  0  0  0
 40 39  1  0  0  0  0
 40 15  1  0  0  0  0
 41 44  1  0  0  0  0
 41 42  2  0  0  0  0
 43 45  1  0  0  0  0
 45 44  2  0  0  0  0
 45 47  1  0  0  0  0
 46 43  2  0  0  0  0
 46 48  1  0  0  0  0
 47 49  1  0  0  0  0
 48 49  1  0  0  0  0
M  END
>  <MODEL>
1

>  <REMARK>
 VINA RESULT:      -9.5      0.000      0.000
  Name = 
  4 active torsions:
  status: ('A' for Active; 'I' for Inactive)
    1  A    between atoms: C_4  and  C_13
    2  A    between atoms: C_4  and  N_16
    3  A    between atoms: C_10  and  C_25
    4  A    between atoms: N_20  and  C_44
                            x       y       z     vdW  Elec       q    Type
                         _______ _______ _______ _____ _____    ______ ____

>  <TORSDO>
F 4

$$$$
=
 OpenBabel11042414103D

 49 55  0  0  1  0  0  0  0  0999 V2000
  185.2210  177.6640  140.4310 O   0  0  0  0  0  0  0  0  0  0  0  0
  187.8290  177.0170  141.4010 C   0  0  2  0  0  3  0  0  0  0  0  0
  192.7390  172.9550  142.9050 C   0  0  0  0  0  1  0  0  0  0  0  0
  189.7180  176.8010  146.0210 C   0  0  0  0  0  2  0  0  0  0  0  0
  187.4210  177.7340  146.4440 C   0  0  0  0  0  0  0  0  0  0  0  0
  190.0360  175.5490  146.8430 C   0  0  1  0  0  3  0  0  0  0  0  0
  187.5240  175.7300  140.6430 C   0  0  0  0  0  2  0  0  0  0  0  0
  191.4800  173.2550  142.6010 C   0  0  0  0  0  0  0  0  0  0  0  0
  184.2400  178.0040  142.5630 C   0  0  0  0  0  2  0  0  0  0  0  0
  190.4410  173.3930  143.6870 C   0  0  0  0  0  0  0  0  0  0  0  0
  189.8450  173.7380  140.8690 N   0  0  0  0  0  0  0  0  0  0  0  0
  186.6980  177.4120  142.2480 N   0  0  0  0  0  0  0  0  0  0  0  0
  189.9540  174.2850  145.9840 C   0  0  0  0  0  2  0  0  0  0  0  0
  188.1950  178.1210  140.4230 C   0  0  0  0  0  1  0  0  0  0  0  0
  186.3210  178.3010  145.9210 C   0  0  0  0  0  0  0  0  0  0  0  0
  191.1130  173.3410  141.2550 O   0  0  0  0  0  0  0  0  0  0  0  0
  188.2500  176.7950  145.6100 C   0  0  1  0  0  3  0  0  0  0  0  0
  183.9100  179.2870  144.5170 O   0  0  0  0  0  0  0  0  0  0  0  0
  184.6860  178.5200  143.8910 C   0  0  0  0  0  0  0  0  0  0  0  0
  188.1230  177.0850  144.2190 O   0  0  0  0  0  0  0  0  0  0  0  0
  189.1260  173.8960  143.1570 C   0  0  0  0  0  3  0  0  0  0  0  0
  185.9840  178.0930  144.4740 C   0  0  0  0  0  0  0  0  0  0  0  0
  190.9160  174.3240  144.7990 C   0  0  0  0  0  2  0  0  0  0  0  0
  188.8590  174.0720  141.8650 C   0  0  0  0  0  0  0  0  0  0  0  0
  187.7540  177.9460  147.7800 O   0  0  0  0  0  1  0  0  0  0  0  0
  185.4040  177.7070  141.6790 C   0  0  0  0  0  0  0  0  0  0  0  0
  186.9130  177.5310  143.6680 C   0  0  0  0  0  0  0  0  0  0  0  0
  187.6220  174.6160  141.5160 O   0  0  0  0  0  0  0  0  0  0  0  0
  192.3630  171.8850  136.4020 C   0  0  0  0  0  3  0  0  0  0  0  0
  189.2240  171.4210  138.4010 C   0  0  0  0  0  3  0  0  0  0  0  0
  190.6090  173.3090  138.5890 C   0  0  0  0  0  0  0  0  0  0  0  0
  192.8510  174.0040  137.6750 C   0  0  0  0  0  3  0  0  0  0  0  0
  193.1600  173.0460  136.8050 C   0  0  0  0  0  3  0  0  0  0  0  0
  188.5090  172.4400  139.2860 C   0  0  0  0  0  3  0  0  0  0  0  0
  190.4690  172.0370  137.9740 N   0  0  0  0  0  0  0  0  0  0  0  0
  191.6290  174.1530  138.4690 C   0  0  0  0  0  3  0  0  0  0  0  0
  191.2110  171.4450  136.9020 C   0  0  0  0  0  3  0  0  0  0  0  0
  189.4520  173.6290  139.4630 C   0  0  1  0  0  3  0  0  0  0  0  0
  184.4710  178.2730  147.5710 C   0  0  0  0  0  1  0  0  0  0  0  0
  185.4540  179.1440  146.8070 C   0  0  0  0  0  2  0  0  0  0  0  0
  191.3340  175.6400  147.5970 C   0  0  0  0  0  0  0  0  0  0  0  0
  191.4710  174.9730  148.6580 O   0  0  0  0  0  0  0  0  0  0  0  0
  193.7800  174.7150  146.2060 C   0  0  0  0  0  3  0  0  0  0  0  0
  192.3920  176.4950  147.1300 N   0  0  0  0  0  0  0  0  0  0  0  0
  193.4480  176.1360  146.4550 C   0  0  0  0  0  0  0  0  0  0  0  0
  194.8870  174.3810  145.5430 C   0  0  0  0  0  3  0  0  0  0  0  0
  194.4540  177.1920  146.0990 C   0  0  0  0  0  2  0  0  0  0  0  0
  195.7490  175.3950  145.0190 N   0  0  0  0  0  2  0  0  0  0  0  0
  195.2900  176.7780  144.8860 C   0  0  0  0  0  2  0  0  0  0  0  0
  1 26  2  0  0  0  0
  2 14  1  6  0  0  0
  2 12  1  0  0  0  0
  4  6  1  0  0  0  0
  5 25  1  0  0  0  0
  6 41  1  6  0  0  0
  7  2  1  0  0  0  0
  7 28  1  0  0  0  0
  8  3  1  0  0  0  0
  8 10  2  0  0  0  0
  9 19  1  0  0  0  0
 10 23  1  0  0  0  0
 11 16  1  0  0  0  0
 11 24  1  0  0  0  0
 12 27  1  0  0  0  0
 13  6  1  0  0  0  0
 15  5  2  0  0  0  0
 15 40  1  0  0  0  0
 16  8  1  0  0  0  0
 17  4  1  1  0  0  0
 17  5  1  0  0  0  0
 19 22  1  0  0  0  0
 19 18  2  0  0  0  0
 20 17  1  0  0  0  0
 21 10  1  0  0  0  0
 22 15  1  0  0  0  0
 23 13  1  0  0  0  0
 24 21  2  0  0  0  0
 26 12  1  0  0  0  0
 26  9  1  0  0  0  0
 27 20  1  0  0  0  0
 27 22  2  0  0  0  0
 28 24  1  0  0  0  0
 29 33  1  0  0  0  0
 29 37  2  0  0  0  0
 30 34  2  0  0  0  0
 31 38  1  0  0  0  0
 32 36  1  0  0  0  0
 33 32  2  0  0  0  0
 35 30  1  0  0  0  0
 35 31  1  0  0  0  0
 36 31  2  0  0  0  0
 37 35  1  0  0  0  0
 38 34  1  1  0  0  0
 38 11  1  0  0  0  0
 40 39  1  0  0  0  0
 41 42  2  0  0  0  0
 43 45  1  0  0  0  0
 44 41  1  0  0  0  0
 45 44  2  0  0  0  0
 46 43  2  0  0  0  0
 47 45  1  0  0  0  0
 48 46  1  0  0  0  0
 49 48  1  0  0  0  0
 49 47  1  0  0  0  0
M  END
>  <MODEL>
2

>  <REMARK>
 VINA RESULT:      -9.5      2.494      8.023
  Name = 
  4 active torsions:
  status: ('A' for Active; 'I' for Inactive)
    1  A    between atoms: C_4  and  C_13
    2  A    between atoms: C_4  and  N_16
    3  A    between atoms: C_10  and  C_25
    4  A    between atoms: N_20  and  C_44
                            x       y       z     vdW  Elec       q    Type
                         _______ _______ _______ _____ _____    ______ ____

>  <TORSDO>
F 4

$$$$
=
 OpenBabel11042414103D

 49 55  0  0  1  0  0  0  0  0999 V2000
  194.9410  175.9900  146.2720 O   0  0  0  0  0  0  0  0  0  0  0  0
  193.1180  175.4290  144.1460 C   0  0  2  0  0  3  0  0  0  0  0  0
  187.3440  173.6500  141.6230 C   0  0  0  0  0  1  0  0  0  0  0  0
  192.7160  171.5500  141.0240 C   0  0  0  0  0  2  0  0  0  0  0  0
  194.8470  171.0120  142.2450 C   0  0  0  0  0  0  0  0  0  0  0  0
  191.6810  170.4220  141.0630 C   0  0  1  0  0  3  0  0  0  0  0  0
  192.1200  175.5940  145.2860 C   0  0  0  0  0  2  0  0  0  0  0  0
  188.2440  173.7660  142.5940 C   0  0  0  0  0  0  0  0  0  0  0  0
  196.1620  173.9640  146.0940 C   0  0  0  0  0  2  0  0  0  0  0  0
  189.1450  172.6070  142.9490 C   0  0  0  0  0  0  0  0  0  0  0  0
  189.2440  175.1680  144.3090 N   0  0  0  0  0  0  0  0  0  0  0  0
  194.2330  174.5600  144.5400 N   0  0  0  0  0  0  0  0  0  0  0  0
  190.5570  170.7340  142.0520 C   0  0  0  0  0  2  0  0  0  0  0  0
  193.6170  176.7910  143.6910 C   0  0  0  0  0  1  0  0  0  0  0  0
  195.8310  171.4570  143.0440 C   0  0  0  0  0  0  0  0  0  0  0  0
  188.2760  174.9440  143.3470 O   0  0  0  0  0  0  0  0  0  0  0  0
  193.4700  171.6100  142.3460 C   0  0  1  0  0  3  0  0  0  0  0  0
  197.7360  172.5760  145.0130 O   0  0  0  0  0  0  0  0  0  0  0  0
  196.5650  173.0360  144.9970 C   0  0  0  0  0  0  0  0  0  0  0  0
  193.5210  172.9530  142.8280 O   0  0  0  0  0  0  0  0  0  0  0  0
  190.1990  172.9910  143.9520 C   0  0  0  0  0  3  0  0  0  0  0  0
  195.5920  172.6280  143.9510 C   0  0  0  0  0  0  0  0  0  0  0  0
  189.8250  172.0300  141.7110 C   0  0  0  0  0  2  0  0  0  0  0  0
  190.2550  174.1730  144.5630 C   0  0  0  0  0  0  0  0  0  0  0  0
  195.0720  169.9430  141.3800 O   0  0  0  0  0  1  0  0  0  0  0  0
  195.1010  174.9090  145.6400 C   0  0  0  0  0  0  0  0  0  0  0  0
  194.4650  173.3560  143.7820 C   0  0  0  0  0  0  0  0  0  0  0  0
  191.3310  174.4230  145.4150 O   0  0  0  0  0  0  0  0  0  0  0  0
  185.4360  179.0150  144.9640 C   0  0  0  0  0  3  0  0  0  0  0  0
  187.3360  176.4160  146.8880 C   0  0  0  0  0  3  0  0  0  0  0  0
  188.0140  177.2230  144.7880 C   0  0  0  0  0  0  0  0  0  0  0  0
  187.0400  178.7500  143.0390 C   0  0  0  0  0  3  0  0  0  0  0  0
  185.9410  179.2410  143.6080 C   0  0  0  0  0  3  0  0  0  0  0  0
  188.7270  175.8550  146.5970 C   0  0  0  0  0  3  0  0  0  0  0  0
  186.9890  177.2760  145.7700 N   0  0  0  0  0  0  0  0  0  0  0  0
  188.0390  177.8480  143.6150 C   0  0  0  0  0  3  0  0  0  0  0  0
  185.8790  178.1710  145.8940 C   0  0  0  0  0  3  0  0  0  0  0  0
  189.1240  176.3250  145.1990 C   0  0  1  0  0  3  0  0  0  0  0  0
  197.1340  169.5040  143.8410 C   0  0  0  0  0  1  0  0  0  0  0  0
  197.1630  170.7690  143.0000 C   0  0  0  0  0  2  0  0  0  0  0  0
  191.1550  170.0440  139.7060 C   0  0  0  0  0  0  0  0  0  0  0  0
  190.4820  168.9840  139.5860 O   0  0  0  0  0  0  0  0  0  0  0  0
  189.3230  172.0810  138.5790 C   0  0  0  0  0  3  0  0  0  0  0  0
  191.4360  170.8640  138.5580 N   0  0  0  0  0  0  0  0  0  0  0  0
  190.6890  171.8150  138.0730 C   0  0  0  0  0  0  0  0  0  0  0  0
  188.5710  173.0380  138.0370 C   0  0  0  0  0  3  0  0  0  0  0  0
  191.1570  172.5240  136.8360 C   0  0  0  0  0  2  0  0  0  0  0  0
  189.0910  173.8590  136.9880 N   0  0  0  0  0  2  0  0  0  0  0  0
  190.5290  173.9150  136.7190 C   0  0  0  0  0  2  0  0  0  0  0  0
  2 14  1  1  0  0  0
  2 12  1  0  0  0  0
  2  7  1  0  0  0  0
  3  8  1  0  0  0  0
  4  6  1  0  0  0  0
  5 17  1  0  0  0  0
  5 15  2  0  0  0  0
  6 41  1  6  0  0  0
  6 13  1  0  0  0  0
  7 28  1  0  0  0  0
  8 10  2  0  0  0  0
  8 16  1  0  0  0  0
 10 21  1  0  0  0  0
 11 24  1  0  0  0  0
 12 26  1  0  0  0  0
 15 22  1  0  0  0  0
 16 11  1  0  0  0  0
 17  4  1  6  0  0  0
 17 20  1  0  0  0  0
 19 18  2  0  0  0  0
 19  9  1  0  0  0  0
 20 27  1  0  0  0  0
 21 24  2  0  0  0  0
 22 19  1  0  0  0  0
 23 13  1  0  0  0  0
 23 10  1  0  0  0  0
 24 28  1  0  0  0  0
 25  5  1  0  0  0  0
 26  9  1  0  0  0  0
 26  1  2  0  0  0  0
 27 22  2  0  0  0  0
 27 12  1  0  0  0  0
 29 37  2  0  0  0  0
 31 38  1  0  0  0  0
 31 35  1  0  0  0  0
 32 33  2  0  0  0  0
 32 36  1  0  0  0  0
 33 29  1  0  0  0  0
 34 30  2  0  0  0  0
 35 37  1  0  0  0  0
 35 30  1  0  0  0  0
 36 31  2  0  0  0  0
 38 11  1  6  0  0  0
 38 34  1  0  0  0  0
 40 15  1  0  0  0  0
 40 39  1  0  0  0  0
 42 41  2  0  0  0  0
 44 41  1  0  0  0  0
 45 44  2  0  0  0  0
 45 43  1  0  0  0  0
 46 43  2  0  0  0  0
 47 45  1  0  0  0  0
 48 46  1  0  0  0  0
 49 47  1  0  0  0  0
 49 48  1  0  0  0  0
M  END
>  <MODEL>
3

>  <REMARK>
 VINA RESULT:      -8.8      2.153      6.571
  Name = 
  4 active torsions:
  status: ('A' for Active; 'I' for Inactive)
    1  A    between atoms: C_4  and  C_13
    2  A    between atoms: C_4  and  N_16
    3  A    between atoms: C_10  and  C_25
    4  A    between atoms: N_20  and  C_44
                            x       y       z     vdW  Elec       q    Type
                         _______ _______ _______ _____ _____    ______ ____

>  <TORSDO>
F 4

$$$$
=
 OpenBabel11042414103D

 49 55  0  0  1  0  0  0  0  0999 V2000
  194.2680  176.7140  146.8050 O   0  0  0  0  0  0  0  0  0  0  0  0
  192.5600  176.4520  144.5310 C   0  0  2  0  0  3  0  0  0  0  0  0
  187.0660  174.6950  141.4330 C   0  0  0  0  0  1  0  0  0  0  0  0
  192.6470  173.3370  140.6270 C   0  0  0  0  0  2  0  0  0  0  0  0
  194.7980  172.7630  141.7940 C   0  0  0  0  0  0  0  0  0  0  0  0
  191.7400  172.1290  140.3750 C   0  0  1  0  0  3  0  0  0  0  0  0
  191.5270  176.2590  145.6360 C   0  0  0  0  0  2  0  0  0  0  0  0
  187.9290  174.6860  142.4440 C   0  0  0  0  0  0  0  0  0  0  0  0
  195.7050  174.9110  146.2460 C   0  0  0  0  0  2  0  0  0  0  0  0
  188.9430  173.5750  142.5780 C   0  0  0  0  0  0  0  0  0  0  0  0
  188.7350  175.7690  144.4650 N   0  0  0  0  0  0  0  0  0  0  0  0
  193.7540  175.6360  144.7760 N   0  0  0  0  0  0  0  0  0  0  0  0
  190.5680  172.0990  141.3590 C   0  0  0  0  0  2  0  0  0  0  0  0
  192.9170  177.9250  144.4050 C   0  0  0  0  0  1  0  0  0  0  0  0
  195.7120  173.1180  142.7130 C   0  0  0  0  0  0  0  0  0  0  0  0
  187.8170  175.6660  143.4360 O   0  0  0  0  0  0  0  0  0  0  0  0
  193.3620  173.1810  141.9620 C   0  0  1  0  0  3  0  0  0  0  0  0
  197.4430  173.9640  144.9590 O   0  0  0  0  0  0  0  0  0  0  0  0
  196.2290  174.2940  144.9920 C   0  0  0  0  0  0  0  0  0  0  0  0
  193.2570  174.3820  142.7260 O   0  0  0  0  0  0  0  0  0  0  0  0
  189.9280  173.8330  143.6850 C   0  0  0  0  0  3  0  0  0  0  0  0
  195.3270  174.0300  143.8410 C   0  0  0  0  0  0  0  0  0  0  0  0
  189.7060  173.3570  141.2750 C   0  0  0  0  0  2  0  0  0  0  0  0
  189.8430  174.8510  144.5400 C   0  0  0  0  0  0  0  0  0  0  0  0
  195.1560  171.9390  140.7290 O   0  0  0  0  0  1  0  0  0  0  0  0
  194.5570  175.8200  145.9620 C   0  0  0  0  0  0  0  0  0  0  0  0
  194.1320  174.6590  143.7860 C   0  0  0  0  0  0  0  0  0  0  0  0
  190.8680  175.0150  145.4720 O   0  0  0  0  0  0  0  0  0  0  0  0
  184.4010  178.7290  145.9410 C   0  0  0  0  0  3  0  0  0  0  0  0
  186.7640  176.1330  147.2620 C   0  0  0  0  0  3  0  0  0  0  0  0
  187.2190  177.4540  145.3730 C   0  0  0  0  0  0  0  0  0  0  0  0
  185.9440  179.1290  143.9910 C   0  0  0  0  0  3  0  0  0  0  0  0
  184.8070  179.3070  144.6590 C   0  0  0  0  0  3  0  0  0  0  0  0
  188.2120  175.8780  146.8500 C   0  0  0  0  0  3  0  0  0  0  0  0
  186.2400  177.1370  146.3520 N   0  0  0  0  0  0  0  0  0  0  0  0
  187.0960  178.3020  144.3580 C   0  0  0  0  0  3  0  0  0  0  0  0
  185.0080  177.7950  146.6700 C   0  0  0  0  0  3  0  0  0  0  0  0
  188.4720  176.6830  145.5780 C   0  0  1  0  0  3  0  0  0  0  0  0
  197.9230  173.4880  141.6560 C   0  0  0  0  0  1  0  0  0  0  0  0
  197.1110  172.5960  142.5790 C   0  0  0  0  0  2  0  0  0  0  0  0
  191.2860  172.0080  138.9460 C   0  0  0  0  0  0  0  0  0  0  0  0
  190.9780  170.8700  138.4990 O   0  0  0  0  0  0  0  0  0  0  0  0
  193.2770  172.6960  136.8640 C   0  0  0  0  0  3  0  0  0  0  0  0
  191.2270  173.1670  138.0970 N   0  0  0  0  0  0  0  0  0  0  0  0
  192.0420  173.4690  137.1260 C   0  0  0  0  0  0  0  0  0  0  0  0
  194.1090  173.0530  135.8860 C   0  0  0  0  0  3  0  0  0  0  0  0
  191.8180  174.7560  136.3870 C   0  0  0  0  0  2  0  0  0  0  0  0
  193.7960  174.1630  135.0400 N   0  0  0  0  0  2  0  0  0  0  0  0
  192.4390  174.7100  134.9880 C   0  0  0  0  0  2  0  0  0  0  0  0
  2 14  1  1  0  0  0
  2 12  1  0  0  0  0
  2  7  1  0  0  0  0
  3  8  1  0  0  0  0
  5 17  1  0  0  0  0
  5 15  2  0  0  0  0
  6 41  1  6  0  0  0
  6  4  1  0  0  0  0
  6 13  1  0  0  0  0
  8 10  2  0  0  0  0
  8 16  1  0  0  0  0
 10 21  1  0  0  0  0
 11 24  1  0  0  0  0
 12 26  1  0  0  0  0
 15 22  1  0  0  0  0
 16 11  1  0  0  0  0
 17  4  1  6  0  0  0
 17 20  1  0  0  0  0
 18 19  2  0  0  0  0
 19  9  1  0  0  0  0
 20 27  1  0  0  0  0
 21 24  2  0  0  0  0
 22 19  1  0  0  0  0
 23 13  1  0  0  0  0
 23 10  1  0  0  0  0
 24 28  1  0  0  0  0
 25  5  1  0  0  0  0
 26  9  1  0  0  0  0
 26  1  2  0  0  0  0
 27 22  2  0  0  0  0
 27 12  1  0  0  0  0
 28  7  1  0  0  0  0
 29 37  2  0  0  0  0
 31 38  1  0  0  0  0
 31 35  1  0  0  0  0
 32 36  1  0  0  0  0
 32 33  2  0  0  0  0
 33 29  1  0  0  0  0
 34 30  2  0  0  0  0
 35 37  1  0  0  0  0
 35 30  1  0  0  0  0
 36 31  2  0  0  0  0
 38 11  1  6  0  0  0
 38 34  1  0  0  0  0
 39 40  1  0  0  0  0
 40 15  1  0  0  0  0
 42 41  2  0  0  0  0
 43 45  1  0  0  0  0
 44 41  1  0  0  0  0
 45 44  2  0  0  0  0
 46 43  2  0  0  0  0
 47 45  1  0  0  0  0
 48 46  1  0  0  0  0
 49 48  1  0  0  0  0
 49 47  1  0  0  0  0
M  END
>  <MODEL>
4

>  <REMARK>
 VINA RESULT:      -8.0      2.213      6.366
  Name = 
  4 active torsions:
  status: ('A' for Active; 'I' for Inactive)
    1  A    between atoms: C_4  and  C_13
    2  A    between atoms: C_4  and  N_16
    3  A    between atoms: C_10  and  C_25
    4  A    between atoms: N_20  and  C_44
                            x       y       z     vdW  Elec       q    Type
                         _______ _______ _______ _____ _____    ______ ____

>  <TORSDO>
F 4

$$$$
=
 OpenBabel11042414103D

 49 55  0  0  1  0  0  0  0  0999 V2000
  185.2670  176.9260  142.0130 O   0  0  0  0  0  0  0  0  0  0  0  0
  188.1190  176.7540  142.0120 C   0  0  2  0  0  3  0  0  0  0  0  0
  193.8550  173.6510  141.4330 C   0  0  0  0  0  1  0  0  0  0  0  0
  191.4670  176.7430  145.7190 C   0  0  0  0  0  2  0  0  0  0  0  0
  189.3280  177.2070  146.9560 C   0  0  0  0  0  0  0  0  0  0  0  0
  192.2500  175.5470  146.2680 C   0  0  1  0  0  3  0  0  0  0  0  0
  187.7950  175.4590  141.2750 C   0  0  0  0  0  2  0  0  0  0  0  0
  192.5360  173.7170  141.5870 C   0  0  0  0  0  0  0  0  0  0  0  0
  185.0230  176.9990  144.3720 C   0  0  0  0  0  2  0  0  0  0  0  0
  191.9180  173.6170  142.9610 C   0  0  0  0  0  0  0  0  0  0  0  0
  190.3550  173.9390  140.5380 N   0  0  0  0  0  0  0  0  0  0  0  0
  187.2920  176.8970  143.2160 N   0  0  0  0  0  0  0  0  0  0  0  0
  192.0960  174.3210  145.3660 C   0  0  0  0  0  2  0  0  0  0  0  0
  187.9410  177.9410  141.0800 C   0  0  0  0  0  1  0  0  0  0  0  0
  188.0370  177.5720  146.8780 C   0  0  0  0  0  0  0  0  0  0  0  0
  191.7260  173.7770  140.4490 O   0  0  0  0  0  0  0  0  0  0  0  0
  189.9710  176.4720  145.8110 C   0  0  1  0  0  3  0  0  0  0  0  0
  185.1640  178.1290  146.4400 O   0  0  0  0  0  0  0  0  0  0  0  0
  185.7990  177.5450  145.5230 C   0  0  0  0  0  0  0  0  0  0  0  0
  189.3330  176.7800  144.5730 O   0  0  0  0  0  0  0  0  0  0  0  0
  190.4370  173.8790  142.9400 C   0  0  0  0  0  3  0  0  0  0  0  0
  187.2700  177.3540  145.6070 C   0  0  0  0  0  0  0  0  0  0  0  0
  192.5790  174.5830  143.9410 C   0  0  0  0  0  2  0  0  0  0  0  0
  189.7230  174.0440  141.8290 C   0  0  0  0  0  0  0  0  0  0  0  0
  190.0530  177.4320  148.1240 O   0  0  0  0  0  1  0  0  0  0  0  0
  185.8510  176.9600  143.1310 C   0  0  0  0  0  0  0  0  0  0  0  0
  187.9520  177.0060  144.4920 C   0  0  0  0  0  0  0  0  0  0  0  0
  188.3690  174.3550  141.9570 O   0  0  0  0  0  0  0  0  0  0  0  0
  191.3040  171.9530  135.5500 C   0  0  0  0  0  3  0  0  0  0  0  0
  188.9630  171.5780  138.4560 C   0  0  0  0  0  3  0  0  0  0  0  0
  190.3490  173.4500  138.1460 C   0  0  0  0  0  0  0  0  0  0  0  0
  192.1870  174.0910  136.5480 C   0  0  0  0  0  3  0  0  0  0  0  0
  192.1950  173.1100  135.6480 C   0  0  0  0  0  3  0  0  0  0  0  0
  188.5750  172.6260  139.4970 C   0  0  0  0  0  3  0  0  0  0  0  0
  190.0110  172.1660  137.6400 N   0  0  0  0  0  0  0  0  0  0  0  0
  191.2830  174.2750  137.6850 C   0  0  0  0  0  3  0  0  0  0  0  0
  190.3680  171.5410  136.4020 C   0  0  0  0  0  3  0  0  0  0  0  0
  189.5330  173.8060  139.3340 C   0  0  1  0  0  3  0  0  0  0  0  0
  187.4720  179.7180  147.9820 C   0  0  0  0  0  1  0  0  0  0  0  0
  187.3930  178.2040  148.0760 C   0  0  0  0  0  2  0  0  0  0  0  0
  193.6920  175.8580  146.5620 C   0  0  0  0  0  0  0  0  0  0  0  0
  193.9970  177.0140  146.9610 O   0  0  0  0  0  0  0  0  0  0  0  0
  195.7330  175.9020  144.4150 C   0  0  0  0  0  3  0  0  0  0  0  0
  194.7090  174.8600  146.3680 N   0  0  0  0  0  0  0  0  0  0  0  0
  195.6640  174.8770  145.4820 C   0  0  0  0  0  0  0  0  0  0  0  0
  196.7020  175.8700  143.5020 C   0  0  0  0  0  3  0  0  0  0  0  0
  196.6030  173.7070  145.4270 C   0  0  0  0  0  2  0  0  0  0  0  0
  197.7240  174.8710  143.5670 N   0  0  0  0  0  2  0  0  0  0  0  0
  197.9380  174.0930  144.7880 C   0  0  0  0  0  2  0  0  0  0  0  0
  1 26  2  0  0  0  0
  2 14  1  6  0  0  0
  2 12  1  0  0  0  0
  3  8  1  0  0  0  0
  4  6  1  0  0  0  0
  5 25  1  0  0  0  0
  6 41  1  6  0  0  0
  7 28  1  0  0  0  0
  7  2  1  0  0  0  0
  8 10  2  0  0  0  0
  9 19  1  0  0  0  0
 10 23  1  0  0  0  0
 11 24  1  0  0  0  0
 12 27  1  0  0  0  0
 13  6  1  0  0  0  0
 15  5  2  0  0  0  0
 15 40  1  0  0  0  0
 16 11  1  0  0  0  0
 16  8  1  0  0  0  0
 17  4  1  6  0  0  0
 17  5  1  0  0  0  0
 19 22  1  0  0  0  0
 19 18  2  0  0  0  0
 20 17  1  0  0  0  0
 21 10  1  0  0  0  0
 22 15  1  0  0  0  0
 23 13  1  0  0  0  0
 24 28  1  0  0  0  0
 24 21  2  0  0  0  0
 26 12  1  0  0  0  0
 26  9  1  0  0  0  0
 27 20  1  0  0  0  0
 27 22  2  0  0  0  0
 29 33  1  0  0  0  0
 29 37  2  0  0  0  0
 30 34  2  0  0  0  0
 31 38  1  0  0  0  0
 32 36  1  0  0  0  0
 33 32  2  0  0  0  0
 35 31  1  0  0  0  0
 35 30  1  0  0  0  0
 36 31  2  0  0  0  0
 37 35  1  0  0  0  0
 38 34  1  1  0  0  0
 38 11  1  0  0  0  0
 39 40  1  0  0  0  0
 41 42  2  0  0  0  0
 43 45  1  0  0  0  0
 44 41  1  0  0  0  0
 45 44  2  0  0  0  0
 46 48  1  0  0  0  0
 46 43  2  0  0  0  0
 47 45  1  0  0  0  0
 48 49  1  0  0  0  0
 49 47  1  0  0  0  0
M  END
>  <MODEL>
5

>  <REMARK>
 VINA RESULT:      -7.8      2.177      7.648
  Name = 
  4 active torsions:
  status: ('A' for Active; 'I' for Inactive)
    1  A    between atoms: C_4  and  C_13
    2  A    between atoms: C_4  and  N_16
    3  A    between atoms: C_10  and  C_25
    4  A    between atoms: N_20  and  C_44
                            x       y       z     vdW  Elec       q    Type
                         _______ _______ _______ _____ _____    ______ ____

>  <TORSDO>
F 4

$$$$
=
 OpenBabel11042414103D

 49 55  0  0  1  0  0  0  0  0999 V2000
  190.1800  176.3920  147.0290 O   0  0  0  0  0  0  0  0  0  0  0  0
  190.3540  174.2320  145.1690 C   0  0  2  0  0  3  0  0  0  0  0  0
  193.4460  170.3130  140.9310 C   0  0  0  0  0  1  0  0  0  0  0  0
  188.8060  173.7580  140.4430 C   0  0  0  0  0  2  0  0  0  0  0  0
  187.8450  175.9920  141.0800 C   0  0  0  0  0  0  0  0  0  0  0  0
  189.6590  173.7930  139.1720 C   0  0  1  0  0  3  0  0  0  0  0  0
  191.8380  174.4170  145.4680 C   0  0  0  0  0  2  0  0  0  0  0  0
  193.3120  171.4040  141.6790 C   0  0  0  0  0  0  0  0  0  0  0  0
  189.1060  177.9060  145.5520 C   0  0  0  0  0  2  0  0  0  0  0  0
  192.8130  172.6940  141.0740 C   0  0  0  0  0  0  0  0  0  0  0  0
  193.5440  172.4330  143.8690 N   0  0  0  0  0  0  0  0  0  0  0  0
  189.7060  175.5190  144.8940 N   0  0  0  0  0  0  0  0  0  0  0  0
  191.1520  173.7350  139.5030 C   0  0  0  0  0  2  0  0  0  0  0  0
  189.6770  173.5110  146.3230 C   0  0  0  0  0  1  0  0  0  0  0  0
  187.5400  176.8470  142.0710 C   0  0  0  0  0  0  0  0  0  0  0  0
  193.7370  171.3650  143.0110 O   0  0  0  0  0  0  0  0  0  0  0  0
  189.0020  175.0430  141.2370 C   0  0  1  0  0  3  0  0  0  0  0  0
  187.2030  178.6670  144.3800 O   0  0  0  0  0  0  0  0  0  0  0  0
  188.1270  177.8130  144.4310 C   0  0  0  0  0  0  0  0  0  0  0  0
  189.2470  174.7450  142.6110 O   0  0  0  0  0  0  0  0  0  0  0  0
  192.5750  173.7560  142.1120 C   0  0  0  0  0  3  0  0  0  0  0  0
  188.2740  176.7750  143.3780 C   0  0  0  0  0  0  0  0  0  0  0  0
  191.5250  172.4760  140.2830 C   0  0  0  0  0  2  0  0  0  0  0  0
  192.8940  173.6300  143.3980 C   0  0  0  0  0  0  0  0  0  0  0  0
  187.1480  176.0350  139.8750 O   0  0  0  0  0  1  0  0  0  0  0  0
  189.6760  176.5690  145.8860 C   0  0  0  0  0  0  0  0  0  0  0  0
  189.0680  175.7070  143.6160 C   0  0  0  0  0  0  0  0  0  0  0  0
  192.5490  174.6650  144.2670 O   0  0  0  0  0  0  0  0  0  0  0  0
  196.8170  168.9030  146.4290 C   0  0  0  0  0  3  0  0  0  0  0  0
  196.6230  172.5060  145.4060 C   0  0  0  0  0  3  0  0  0  0  0  0
  194.7510  171.0890  145.5130 C   0  0  0  0  0  0  0  0  0  0  0  0
  194.3650  168.6340  145.9180 C   0  0  0  0  0  3  0  0  0  0  0  0
  195.5640  168.1660  146.2560 C   0  0  0  0  0  3  0  0  0  0  0  0
  195.3750  173.3610  145.1960 C   0  0  0  0  0  3  0  0  0  0  0  0
  196.1650  171.1480  145.6420 N   0  0  0  0  0  0  0  0  0  0  0  0
  193.9770  170.0150  145.6250 C   0  0  0  0  0  3  0  0  0  0  0  0
  197.0820  170.1800  146.1630 C   0  0  0  0  0  3  0  0  0  0  0  0
  194.1720  172.4190  145.1910 C   0  0  1  0  0  3  0  0  0  0  0  0
  185.1360  177.3500  142.4090 C   0  0  0  0  0  1  0  0  0  0  0  0
  186.4530  177.8550  141.8450 C   0  0  0  0  0  2  0  0  0  0  0  0
  189.2620  172.7600  138.1540 C   0  0  0  0  0  0  0  0  0  0  0  0
  188.1450  172.1870  138.2710 O   0  0  0  0  0  0  0  0  0  0  0  0
  190.3530  170.0520  137.6540 C   0  0  0  0  0  3  0  0  0  0  0  0
  190.1520  172.4130  137.0790 N   0  0  0  0  0  0  0  0  0  0  0  0
  190.5980  171.2250  136.7850 C   0  0  0  0  0  0  0  0  0  0  0  0
  190.8540  168.8570  137.3430 C   0  0  0  0  0  3  0  0  0  0  0  0
  191.5560  171.0910  135.6360 C   0  0  0  0  0  2  0  0  0  0  0  0
  191.5990  168.6780  136.1350 N   0  0  0  0  0  2  0  0  0  0  0  0
  191.5430  169.6720  135.0630 C   0  0  0  0  0  2  0  0  0  0  0  0
  2  7  1  0  0  0  0
  2 14  1  1  0  0  0
  3  8  1  0  0  0  0
  5 17  1  0  0  0  0
  5 15  2  0  0  0  0
  6 41  1  6  0  0  0
  6 13  1  0  0  0  0
  6  4  1  0  0  0  0
  8 16  1  0  0  0  0
  9 26  1  0  0  0  0
 10  8  2  0  0  0  0
 10 21  1  0  0  0  0
 12  2  1  0  0  0  0
 12 26  1  0  0  0  0
 13 23  1  0  0  0  0
 15 22  1  0  0  0  0
 16 11  1  0  0  0  0
 17  4  1  6  0  0  0
 17 20  1  0  0  0  0
 18 19  2  0  0  0  0
 19  9  1  0  0  0  0
 20 27  1  0  0  0  0
 21 24  2  0  0  0  0
 22 27  2  0  0  0  0
 22 19  1  0  0  0  0
 23 10  1  0  0  0  0
 24 11  1  0  0  0  0
 24 28  1  0  0  0  0
 25  5  1  0  0  0  0
 26  1  2  0  0  0  0
 27 12  1  0  0  0  0
 28  7  1  0  0  0  0
 30 35  1  0  0  0  0
 31 36  2  0  0  0  0
 31 35  1  0  0  0  0
 32 33  2  0  0  0  0
 33 29  1  0  0  0  0
 34 30  2  0  0  0  0
 35 37  1  0  0  0  0
 36 32  1  0  0  0  0
 37 29  2  0  0  0  0
 38 11  1  6  0  0  0
 38 34  1  0  0  0  0
 38 31  1  0  0  0  0
 40 15  1  0  0  0  0
 40 39  1  0  0  0  0
 41 42  2  0  0  0  0
 44 41  1  0  0  0  0
 45 44  2  0  0  0  0
 45 43  1  0  0  0  0
 46 43  2  0  0  0  0
 47 45  1  0  0  0  0
 48 46  1  0  0  0  0
 49 47  1  0  0  0  0
 49 48  1  0  0  0  0
M  END
>  <MODEL>
6

>  <REMARK>
 VINA RESULT:      -7.6      2.231      9.210
  Name = 
  4 active torsions:
  status: ('A' for Active; 'I' for Inactive)
    1  A    between atoms: C_4  and  C_13
    2  A    between atoms: C_4  and  N_16
    3  A    between atoms: C_10  and  C_25
    4  A    between atoms: N_20  and  C_44
                            x       y       z     vdW  Elec       q    Type
                         _______ _______ _______ _____ _____    ______ ____

>  <TORSDO>
F 4

$$$$
=
 OpenBabel11042414103D

 49 55  0  0  1  0  0  0  0  0999 V2000
  195.7010  172.5220  144.3540 O   0  0  0  0  0  0  0  0  0  0  0  0
  192.9930  172.3250  143.4670 C   0  0  2  0  0  3  0  0  0  0  0  0
  188.1930  172.5900  139.0220 C   0  0  0  0  0  1  0  0  0  0  0  0
  189.0560  175.3430  144.0530 C   0  0  0  0  0  2  0  0  0  0  0  0
  190.7830  176.4590  145.5000 C   0  0  0  0  0  0  0  0  0  0  0  0
  188.4290  176.2740  143.0110 C   0  0  1  0  0  3  0  0  0  0  0  0
  193.6990  172.2480  142.1180 C   0  0  0  0  0  2  0  0  0  0  0  0
  189.4180  172.8250  139.4800 C   0  0  0  0  0  0  0  0  0  0  0  0
  195.4640  174.6330  145.4100 C   0  0  0  0  0  2  0  0  0  0  0  0
  189.7650  174.1610  140.0920 C   0  0  0  0  0  0  0  0  0  0  0  0
  191.6760  171.9940  139.8260 N   0  0  0  0  0  0  0  0  0  0  0  0
  193.5270  173.4230  144.2800 N   0  0  0  0  0  0  0  0  0  0  0  0
  188.9910  176.0030  141.6140 C   0  0  0  0  0  2  0  0  0  0  0  0
  193.1140  170.9950  144.1930 C   0  0  0  0  0  1  0  0  0  0  0  0
  191.9680  176.3550  146.1240 C   0  0  0  0  0  0  0  0  0  0  0  0
  190.4060  171.8530  139.2950 O   0  0  0  0  0  0  0  0  0  0  0  0
  190.5300  175.6840  144.2360 C   0  0  1  0  0  3  0  0  0  0  0  0
  194.7070  175.9940  147.1840 O   0  0  0  0  0  0  0  0  0  0  0  0
  194.3880  175.3610  146.1450 C   0  0  0  0  0  0  0  0  0  0  0  0
  191.3230  174.4990  144.1850 O   0  0  0  0  0  0  0  0  0  0  0  0
  191.1430  174.1710  140.6970 C   0  0  0  0  0  3  0  0  0  0  0  0
  192.9950  175.3790  145.6290 C   0  0  0  0  0  0  0  0  0  0  0  0
  188.7520  174.5650  141.1600 C   0  0  0  0  0  2  0  0  0  0  0  0
  192.0130  173.1680  140.5900 C   0  0  0  0  0  0  0  0  0  0  0  0
  189.8150  177.3430  145.9720 O   0  0  0  0  0  1  0  0  0  0  0  0
  194.9160  173.4570  144.6740 C   0  0  0  0  0  0  0  0  0  0  0  0
  192.6230  174.4610  144.7080 C   0  0  0  0  0  0  0  0  0  0  0  0
  193.2300  173.2790  141.2640 O   0  0  0  0  0  0  0  0  0  0  0  0
  192.3820  168.6940  135.5440 C   0  0  0  0  0  3  0  0  0  0  0  0
  194.0920  171.4420  137.4380 C   0  0  0  0  0  3  0  0  0  0  0  0
  192.3080  170.1860  138.3110 C   0  0  0  0  0  0  0  0  0  0  0  0
  190.7250  168.4400  137.4250 C   0  0  0  0  0  3  0  0  0  0  0  0
  191.1880  168.1670  136.2070 C   0  0  0  0  0  3  0  0  0  0  0  0
  193.9360  171.8120  138.9120 C   0  0  0  0  0  3  0  0  0  0  0  0
  193.1050  170.4150  137.1570 N   0  0  0  0  0  0  0  0  0  0  0  0
  191.2850  169.3460  138.4290 C   0  0  0  0  0  3  0  0  0  0  0  0
  193.2050  169.6610  135.9440 C   0  0  0  0  0  3  0  0  0  0  0  0
  192.7260  171.0470  139.4470 C   0  0  1  0  0  3  0  0  0  0  0  0
  191.5660  176.6390  148.5530 C   0  0  0  0  0  1  0  0  0  0  0  0
  192.2330  177.2210  147.3190 C   0  0  0  0  0  2  0  0  0  0  0  0
  186.9250  176.2690  143.0300 C   0  0  0  0  0  0  0  0  0  0  0  0
  186.3020  176.4140  141.9430 O   0  0  0  0  0  0  0  0  0  0  0  0
  186.2940  178.4820  144.8960 C   0  0  0  0  0  3  0  0  0  0  0  0
  186.2100  176.1260  144.2690 N   0  0  0  0  0  0  0  0  0  0  0  0
  185.8530  177.0810  145.0820 C   0  0  0  0  0  0  0  0  0  0  0  0
  185.9420  179.4280  145.7660 C   0  0  0  0  0  3  0  0  0  0  0  0
  185.1420  176.7040  146.3490 C   0  0  0  0  0  2  0  0  0  0  0  0
  185.0880  179.1120  146.8700 N   0  0  0  0  0  2  0  0  0  0  0  0
  184.3130  177.8710  146.8910 C   0  0  0  0  0  2  0  0  0  0  0  0
  1 26  2  0  0  0  0
  2 14  1  1  0  0  0
  2 12  1  0  0  0  0
  3  8  1  0  0  0  0
  5 25  1  0  0  0  0
  5 15  2  0  0  0  0
  6 41  1  6  0  0  0
  6  4  1  0  0  0  0
  7  2  1  0  0  0  0
  8 10  2  0  0  0  0
  9 19  1  0  0  0  0
 10 21  1  0  0  0  0
 10 23  1  0  0  0  0
 11 24  1  0  0  0  0
 12 26  1  0  0  0  0
 12 27  1  0  0  0  0
 13  6  1  0  0  0  0
 15 40  1  0  0  0  0
 16  8  1  0  0  0  0
 16 11  1  0  0  0  0
 17  4  1  1  0  0  0
 17  5  1  0  0  0  0
 19 18  2  0  0  0  0
 20 17  1  0  0  0  0
 20 27  1  0  0  0  0
 22 15  1  0  0  0  0
 22 19  1  0  0  0  0
 23 13  1  0  0  0  0
 24 21  2  0  0  0  0
 24 28  1  0  0  0  0
 26  9  1  0  0  0  0
 27 22  2  0  0  0  0
 28  7  1  0  0  0  0
 29 37  2  0  0  0  0
 29 33  1  0  0  0  0
 30 34  2  0  0  0  0
 31 36  2  0  0  0  0
 31 38  1  0  0  0  0
 32 36  1  0  0  0  0
 33 32  2  0  0  0  0
 35 30  1  0  0  0  0
 35 31  1  0  0  0  0
 37 35  1  0  0  0  0
 38 34  1  6  0  0  0
 38 11  1  0  0  0  0
 40 39  1  0  0  0  0
 41 44  1  0  0  0  0
 42 41  2  0  0  0  0
 43 45  1  0  0  0  0
 43 46  2  0  0  0  0
 44 45  2  0  0  0  0
 45 47  1  0  0  0  0
 46 48  1  0  0  0  0
 47 49  1  0  0  0  0
 48 49  1  0  0  0  0
M  END
>  <MODEL>
7

>  <REMARK>
 VINA RESULT:      -6.9      2.162      9.768
  Name = 
  4 active torsions:
  status: ('A' for Active; 'I' for Inactive)
    1  A    between atoms: C_4  and  C_13
    2  A    between atoms: C_4  and  N_16
    3  A    between atoms: C_10  and  C_25
    4  A    between atoms: N_20  and  C_44
                            x       y       z     vdW  Elec       q    Type
                         _______ _______ _______ _____ _____    ______ ____

>  <TORSDO>
F 4

$$$$
