=
 OpenBabel11042413463D

 30 31  0  0  1  0  0  0  0  0999 V2000
  185.7530  177.4300  145.2460 C   0  0  0  0  0  3  0  0  0  0  0  0
  189.8190  175.4120  145.0590 C   0  0  1  0  0  3  0  0  0  0  0  0
  188.0880  176.2070  146.8280 C   0  0  0  0  0  3  0  0  0  0  0  0
  186.3120  176.6320  144.3360 C   0  0  0  0  0  3  0  0  0  0  0  0
  186.5240  178.0860  146.3490 C   0  0  2  0  0  3  0  0  0  0  0  0
  188.5030  176.0370  145.4220 C   0  0  0  0  0  0  0  0  0  0  0  0
  190.4640  174.6900  142.8270 O   0  0  0  0  0  0  0  0  0  0  0  0
  188.3830  175.7630  143.1570 N   0  0  0  0  0  0  0  0  0  0  0  0
  189.6330  175.2480  143.5910 C   0  0  0  0  0  0  0  0  0  0  0  0
  187.7290  176.2110  144.3380 C   0  0  0  0  0  0  0  0  0  0  0  0
  187.1780  177.0850  147.2490 C   0  0  0  0  0  3  0  0  0  0  0  0
  192.2520  175.9540  145.5130 C   0  0  0  0  0  0  0  0  0  0  0  0
  190.8940  176.3590  145.3270 N   0  0  0  0  0  2  0  0  0  0  0  0
  193.2540  176.9470  145.7200 N   0  0  0  0  0  2  0  0  0  0  0  0
  192.5610  174.7310  145.4930 O   0  0  0  0  0  0  0  0  0  0  0  0
  195.3400  176.5160  144.5670 C   0  0  0  0  0  1  0  0  0  0  0  0
  194.6510  176.6000  145.9120 C   0  0  0  0  0  2  0  0  0  0  0  0
  185.6730  178.9020  147.0950 O   0  0  0  0  0  0  0  0  0  0  0  0
  184.4070  178.3320  146.9420 C   0  0  0  0  0  1  0  0  0  0  0  0
  187.7430  175.5660  141.8550 C   0  0  2  0  0  3  0  0  0  0  0  0
  188.2660  174.4950  139.7530 O   0  0  0  0  0  1  0  0  0  0  0  0
  188.3270  174.3460  141.1400 C   0  0  2  0  0  3  0  0  0  0  0  0
  187.5980  173.0820  141.5530 C   0  0  0  0  0  1  0  0  0  0  0  0
  187.7980  176.8340  141.0060 C   0  0  0  0  0  2  0  0  0  0  0  0
  186.3960  177.2790  140.6420 C   0  0  0  0  0  2  0  0  0  0  0  0
  185.9880  178.3560  141.5270 N   0  0  0  0  0  2  0  0  0  0  0  0
  184.5630  178.5660  141.3210 C   0  0  2  0  0  3  0  0  0  0  0  0
  183.8540  178.0500  142.4070 O   0  0  0  0  0  1  0  0  0  0  0  0
  182.7720  177.8610  140.2370 C   0  0  0  0  0  1  0  0  0  0  0  0
  184.1630  177.9160  140.1530 O   0  0  0  0  0  0  0  0  0  0  0  0
  1  5  1  0  0  0  0
  2 13  1  6  0  0  0
  2  6  1  0  0  0  0
  3 11  2  0  0  0  0
  4 10  1  0  0  0  0
  4  1  2  0  0  0  0
  5 18  1  1  0  0  0
  5 11  1  0  0  0  0
  6  3  1  0  0  0  0
  7  9  2  0  0  0  0
  8  9  1  0  0  0  0
  8 10  1  0  0  0  0
  9  2  1  0  0  0  0
 10  6  2  0  0  0  0
 12 14  1  0  0  0  0
 13 12  1  0  0  0  0
 14 17  1  0  0  0  0
 15 12  2  0  0  0  0
 16 17  1  0  0  0  0
 19 18  1  0  0  0  0
 20 24  1  6  0  0  0
 20  8  1  0  0  0  0
 21 22  1  0  0  0  0
 22 23  1  6  0  0  0
 22 20  1  0  0  0  0
 25 24  1  0  0  0  0
 25 26  1  0  0  0  0
 27 26  1  0  0  0  0
 27 28  1  1  0  0  0
 30 29  1  0  0  0  0
 30 27  1  0  0  0  0
M  END
>  <MODEL>
1

>  <REMARK>
 VINA RESULT:      -6.2      0.000      0.000
  Name = 
  10 active torsions:
  status: ('A' for Active; 'I' for Inactive)
    1  A    between atoms: C_3  and  N_20
    2  A    between atoms: C_3  and  C_25
    3  A    between atoms: C_3  and  C_26
    4  A    between atoms: C_4  and  N_22
    5  A    between atoms: C_4  and  C_26
    6  A    between atoms: O_5  and  C_15
    7  A    between atoms: C_8  and  N_9
    8  A    between atoms: C_10  and  O_18
    9  A    between atoms: C_10  and  N_22
   10  A    between atoms: N_16  and  C_27
                            x       y       z     vdW  Elec       q    Type
                         _______ _______ _______ _____ _____    ______ ____

>  <TORSDO>
F 10

$$$$
=
 OpenBabel11042413463D

 30 31  0  0  1  0  0  0  0  0999 V2000
  186.8040  176.7480  147.0130 C   0  0  0  0  0  3  0  0  0  0  0  0
  189.0970  177.1570  143.1130 C   0  0  1  0  0  3  0  0  0  0  0  0
  187.0230  178.1780  144.3020 C   0  0  0  0  0  3  0  0  0  0  0  0
  188.0900  176.5650  146.7100 C   0  0  0  0  0  3  0  0  0  0  0  0
  185.7260  176.8750  145.9820 C   0  0  2  0  0  3  0  0  0  0  0  0
  188.1710  177.2500  144.2900 C   0  0  0  0  0  0  0  0  0  0  0  0
  191.2380  176.0010  143.0980 O   0  0  0  0  0  0  0  0  0  0  0  0
  189.8770  175.9240  145.0300 N   0  0  0  0  0  0  0  0  0  0  0  0
  190.1750  176.3110  143.6960 C   0  0  0  0  0  0  0  0  0  0  0  0
  188.6420  176.5560  145.3390 C   0  0  0  0  0  0  0  0  0  0  0  0
  185.9480  178.0470  145.0790 C   0  0  0  0  0  3  0  0  0  0  0  0
  187.7470  177.1170  140.9690 C   0  0  0  0  0  0  0  0  0  0  0  0
  188.4310  176.4450  142.0290 N   0  0  0  0  0  2  0  0  0  0  0  0
  187.1640  176.3500  139.9180 N   0  0  0  0  0  2  0  0  0  0  0  0
  187.6610  178.3760  140.9630 O   0  0  0  0  0  0  0  0  0  0  0  0
  186.6190  176.1250  137.5680 C   0  0  0  0  0  1  0  0  0  0  0  0
  186.4590  176.9740  138.8110 C   0  0  0  0  0  2  0  0  0  0  0  0
  184.4870  176.9960  146.6110 O   0  0  0  0  0  0  0  0  0  0  0  0
  184.1380  178.3390  146.4580 C   0  0  0  0  0  1  0  0  0  0  0  0
  190.7850  175.3130  146.0020 C   0  0  2  0  0  3  0  0  0  0  0  0
  193.1050  175.8630  146.3960 O   0  0  0  0  0  1  0  0  0  0  0  0
  191.7970  176.3350  146.5210 C   0  0  2  0  0  3  0  0  0  0  0  0
  191.5140  176.6840  147.9700 C   0  0  0  0  0  1  0  0  0  0  0  0
  191.4470  174.0570  145.4380 C   0  0  0  0  0  2  0  0  0  0  0  0
  190.3910  173.0750  144.9720 C   0  0  0  0  0  2  0  0  0  0  0  0
  190.8240  172.4540  143.7330 N   0  0  0  0  0  2  0  0  0  0  0  0
  189.6250  172.0590  143.0090 C   0  0  2  0  0  3  0  0  0  0  0  0
  189.9240  170.9880  142.1650 O   0  0  0  0  0  1  0  0  0  0  0  0
  190.1030  173.2710  141.2250 C   0  0  0  0  0  1  0  0  0  0  0  0
  189.1650  173.1350  142.2490 O   0  0  0  0  0  0  0  0  0  0  0  0
  2 13  1  6  0  0  0
  2  9  1  0  0  0  0
  2  6  1  0  0  0  0
  3 11  2  0  0  0  0
  4  1  2  0  0  0  0
  5 18  1  1  0  0  0
  5  1  1  0  0  0  0
  6  3  1  0  0  0  0
  6 10  2  0  0  0  0
  7  9  2  0  0  0  0
  8 10  1  0  0  0  0
  8 20  1  0  0  0  0
  9  8  1  0  0  0  0
 10  4  1  0  0  0  0
 11  5  1  0  0  0  0
 12 13  1  0  0  0  0
 14 12  1  0  0  0  0
 15 12  2  0  0  0  0
 16 17  1  0  0  0  0
 17 14  1  0  0  0  0
 19 18  1  0  0  0  0
 20 24  1  6  0  0  0
 20 22  1  0  0  0  0
 21 22  1  0  0  0  0
 22 23  1  1  0  0  0
 25 24  1  0  0  0  0
 26 25  1  0  0  0  0
 27 28  1  6  0  0  0
 27 26  1  0  0  0  0
 29 30  1  0  0  0  0
 30 27  1  0  0  0  0
M  END
>  <MODEL>
2

>  <REMARK>
 VINA RESULT:      -6.2      2.269      6.177
  Name = 
  10 active torsions:
  status: ('A' for Active; 'I' for Inactive)
    1  A    between atoms: C_3  and  N_20
    2  A    between atoms: C_3  and  C_25
    3  A    between atoms: C_3  and  C_26
    4  A    between atoms: C_4  and  N_22
    5  A    between atoms: C_4  and  C_26
    6  A    between atoms: O_5  and  C_15
    7  A    between atoms: C_8  and  N_9
    8  A    between atoms: C_10  and  O_18
    9  A    between atoms: C_10  and  N_22
   10  A    between atoms: N_16  and  C_27
                            x       y       z     vdW  Elec       q    Type
                         _______ _______ _______ _____ _____    ______ ____

>  <TORSDO>
F 10

$$$$
=
 OpenBabel11042413463D

 30 31  0  0  1  0  0  0  0  0999 V2000
  185.7470  178.3140  143.2100 C   0  0  0  0  0  3  0  0  0  0  0  0
  188.9430  175.7840  141.2040 C   0  0  1  0  0  3  0  0  0  0  0  0
  187.0040  177.3910  140.5610 C   0  0  0  0  0  3  0  0  0  0  0  0
  186.9670  177.9430  143.6000 C   0  0  0  0  0  3  0  0  0  0  0  0
  185.0300  177.6940  142.0510 C   0  0  2  0  0  3  0  0  0  0  0  0
  187.8200  176.7050  141.5820 C   0  0  0  0  0  0  0  0  0  0  0  0
  190.6220  174.9140  142.7350 O   0  0  0  0  0  0  0  0  0  0  0  0
  188.8640  176.2600  143.5640 N   0  0  0  0  0  0  0  0  0  0  0  0
  189.5720  175.5800  142.5380 C   0  0  0  0  0  0  0  0  0  0  0  0
  187.8120  176.9510  142.9030 C   0  0  0  0  0  0  0  0  0  0  0  0
  185.7780  177.8740  140.7670 C   0  0  0  0  0  3  0  0  0  0  0  0
  189.1440  173.6200  139.9030 C   0  0  0  0  0  0  0  0  0  0  0  0
  188.3920  174.5270  140.7100 N   0  0  0  0  0  2  0  0  0  0  0  0
  188.5510  172.3860  139.5020 N   0  0  0  0  0  2  0  0  0  0  0  0
  190.3210  173.9050  139.5490 O   0  0  0  0  0  0  0  0  0  0  0  0
  189.2770  171.8880  137.2450 C   0  0  0  0  0  1  0  0  0  0  0  0
  189.2640  171.4200  138.6840 C   0  0  0  0  0  2  0  0  0  0  0  0
  183.7570  178.2520  141.9340 O   0  0  0  0  0  0  0  0  0  0  0  0
  183.5010  178.2730  140.5610 C   0  0  0  0  0  1  0  0  0  0  0  0
  189.3040  176.5010  144.9390 C   0  0  2  0  0  3  0  0  0  0  0  0
  191.2540  177.0010  146.2770 O   0  0  0  0  0  1  0  0  0  0  0  0
  190.7590  176.9710  144.9710 C   0  0  2  0  0  3  0  0  0  0  0  0
  190.8940  178.3440  144.3410 C   0  0  0  0  0  1  0  0  0  0  0  0
  189.0550  175.2840  145.8290 C   0  0  0  0  0  2  0  0  0  0  0  0
  188.1430  175.6590  146.9800 C   0  0  0  0  0  2  0  0  0  0  0  0
  187.7770  177.0600  146.8690 N   0  0  0  0  0  2  0  0  0  0  0  0
  186.4030  177.1830  147.3310 C   0  0  2  0  0  3  0  0  0  0  0  0
  185.5510  176.5420  146.4300 O   0  0  0  0  0  1  0  0  0  0  0  0
  184.7950  178.6140  146.8340 C   0  0  0  0  0  1  0  0  0  0  0  0
  186.0610  178.5340  147.4130 O   0  0  0  0  0  0  0  0  0  0  0  0
  1  4  2  0  0  0  0
  2 13  1  1  0  0  0
  2  6  1  0  0  0  0
  2  9  1  0  0  0  0
  3 11  2  0  0  0  0
  3  6  1  0  0  0  0
  5 18  1  6  0  0  0
  5  1  1  0  0  0  0
  6 10  2  0  0  0  0
  8 20  1  0  0  0  0
  9  7  2  0  0  0  0
  9  8  1  0  0  0  0
 10  8  1  0  0  0  0
 10  4  1  0  0  0  0
 11  5  1  0  0  0  0
 12 13  1  0  0  0  0
 14 12  1  0  0  0  0
 15 12  2  0  0  0  0
 16 17  1  0  0  0  0
 17 14  1  0  0  0  0
 19 18  1  0  0  0  0
 20 22  1  0  0  0  0
 20 24  1  1  0  0  0
 22 23  1  1  0  0  0
 22 21  1  0  0  0  0
 24 25  1  0  0  0  0
 26 25  1  0  0  0  0
 26 27  1  0  0  0  0
 27 28  1  6  0  0  0
 27 30  1  0  0  0  0
 29 30  1  0  0  0  0
M  END
>  <MODEL>
3

>  <REMARK>
 VINA RESULT:      -6.0      2.123      5.949
  Name = 
  10 active torsions:
  status: ('A' for Active; 'I' for Inactive)
    1  A    between atoms: C_3  and  N_20
    2  A    between atoms: C_3  and  C_25
    3  A    between atoms: C_3  and  C_26
    4  A    between atoms: C_4  and  N_22
    5  A    between atoms: C_4  and  C_26
    6  A    between atoms: O_5  and  C_15
    7  A    between atoms: C_8  and  N_9
    8  A    between atoms: C_10  and  O_18
    9  A    between atoms: C_10  and  N_22
   10  A    between atoms: N_16  and  C_27
                            x       y       z     vdW  Elec       q    Type
                         _______ _______ _______ _____ _____    ______ ____

>  <TORSDO>
F 10

$$$$
=
 OpenBabel11042413463D

 30 31  0  0  1  0  0  0  0  0999 V2000
  188.6810  173.0450  142.0470 C   0  0  0  0  0  3  0  0  0  0  0  0
  191.5820  176.4460  142.8580 C   0  0  1  0  0  3  0  0  0  0  0  0
  191.5410  174.1170  141.7040 C   0  0  0  0  0  3  0  0  0  0  0  0
  188.5000  174.3590  142.1860 C   0  0  0  0  0  3  0  0  0  0  0  0
  189.9480  172.3450  142.4290 C   0  0  2  0  0  3  0  0  0  0  0  0
  190.8580  175.2000  142.4390 C   0  0  0  0  0  0  0  0  0  0  0  0
  190.5230  178.4710  143.6950 O   0  0  0  0  0  0  0  0  0  0  0  0
  189.2010  176.5740  143.2020 N   0  0  0  0  0  0  0  0  0  0  0  0
  190.4310  177.2780  143.3050 C   0  0  0  0  0  0  0  0  0  0  0  0
  189.5350  175.3110  142.6410 C   0  0  0  0  0  0  0  0  0  0  0  0
  191.1250  172.8520  141.6560 C   0  0  0  0  0  3  0  0  0  0  0  0
  193.8390  175.8400  143.8350 C   0  0  0  0  0  0  0  0  0  0  0  0
  192.4520  176.1440  143.9880 N   0  0  0  0  0  2  0  0  0  0  0  0
  194.6340  175.6040  144.9950 N   0  0  0  0  0  2  0  0  0  0  0  0
  194.3560  175.7810  142.6860 O   0  0  0  0  0  0  0  0  0  0  0  0
  196.3730  174.1360  145.8260 C   0  0  0  0  0  1  0  0  0  0  0  0
  196.0510  175.2940  144.9060 C   0  0  0  0  0  2  0  0  0  0  0  0
  189.8070  170.9730  142.2210 O   0  0  0  0  0  0  0  0  0  0  0  0
  191.1100  170.4990  142.0600 C   0  0  0  0  0  1  0  0  0  0  0  0
  187.8490  177.1250  143.3080 C   0  0  2  0  0  3  0  0  0  0  0  0
  186.5650  179.0410  142.5870 O   0  0  0  0  0  1  0  0  0  0  0  0
  187.6050  178.1810  142.2280 C   0  0  2  0  0  3  0  0  0  0  0  0
  187.2920  177.5250  140.8970 C   0  0  0  0  0  1  0  0  0  0  0  0
  187.5620  177.6410  144.7170 C   0  0  0  0  0  2  0  0  0  0  0  0
  187.0520  176.5130  145.5910 C   0  0  0  0  0  2  0  0  0  0  0  0
  187.8180  176.4760  146.8250 N   0  0  0  0  0  2  0  0  0  0  0  0
  188.9280  175.5600  146.6140 C   0  0  2  0  0  3  0  0  0  0  0  0
  188.8950  174.5570  147.5850 O   0  0  0  0  0  1  0  0  0  0  0  0
  190.9980  175.3840  147.3640 C   0  0  0  0  0  1  0  0  0  0  0  0
  190.1310  176.2590  146.7090 O   0  0  0  0  0  0  0  0  0  0  0  0
  1  4  2  0  0  0  0
  1  5  1  0  0  0  0
  2  9  1  0  0  0  0
  2 13  1  1  0  0  0
  3  6  1  0  0  0  0
  4 10  1  0  0  0  0
  5 18  1  6  0  0  0
  6 10  2  0  0  0  0
  6  2  1  0  0  0  0
  8  9  1  0  0  0  0
  8 20  1  0  0  0  0
  9  7  2  0  0  0  0
 10  8  1  0  0  0  0
 11  3  2  0  0  0  0
 11  5  1  0  0  0  0
 12 13  1  0  0  0  0
 12 14  1  0  0  0  0
 15 12  2  0  0  0  0
 17 14  1  0  0  0  0
 17 16  1  0  0  0  0
 19 18  1  0  0  0  0
 20 24  1  1  0  0  0
 22 23  1  6  0  0  0
 22 21  1  0  0  0  0
 22 20  1  0  0  0  0
 24 25  1  0  0  0  0
 25 26  1  0  0  0  0
 27 30  1  0  0  0  0
 27 26  1  0  0  0  0
 27 28  1  1  0  0  0
 30 29  1  0  0  0  0
M  END
>  <MODEL>
4

>  <REMARK>
 VINA RESULT:      -6.0      2.545      5.829
  Name = 
  10 active torsions:
  status: ('A' for Active; 'I' for Inactive)
    1  A    between atoms: C_3  and  N_20
    2  A    between atoms: C_3  and  C_25
    3  A    between atoms: C_3  and  C_26
    4  A    between atoms: C_4  and  N_22
    5  A    between atoms: C_4  and  C_26
    6  A    between atoms: O_5  and  C_15
    7  A    between atoms: C_8  and  N_9
    8  A    between atoms: C_10  and  O_18
    9  A    between atoms: C_10  and  N_22
   10  A    between atoms: N_16  and  C_27
                            x       y       z     vdW  Elec       q    Type
                         _______ _______ _______ _____ _____    ______ ____

>  <TORSDO>
F 10

$$$$
=
 OpenBabel11042413463D

 30 31  0  0  1  0  0  0  0  0999 V2000
  192.8930  175.8700  143.2640 C   0  0  0  0  0  3  0  0  0  0  0  0
  188.4320  176.7300  143.1870 C   0  0  1  0  0  3  0  0  0  0  0  0
  190.6760  177.9690  143.6220 C   0  0  0  0  0  3  0  0  0  0  0  0
  191.8920  175.3330  142.5640 C   0  0  0  0  0  3  0  0  0  0  0  0
  192.6820  176.7510  144.4570 C   0  0  2  0  0  3  0  0  0  0  0  0
  189.9310  176.7440  143.2690 C   0  0  0  0  0  0  0  0  0  0  0  0
  187.0950  174.9360  142.2300 O   0  0  0  0  0  0  0  0  0  0  0  0
  189.4440  174.7020  142.3680 N   0  0  0  0  0  0  0  0  0  0  0  0
  188.2190  175.3930  142.5680 C   0  0  0  0  0  0  0  0  0  0  0  0
  190.4580  175.6010  142.8000 C   0  0  0  0  0  0  0  0  0  0  0  0
  191.9160  177.9890  144.1110 C   0  0  0  0  0  3  0  0  0  0  0  0
  186.9910  177.7860  144.9820 C   0  0  0  0  0  0  0  0  0  0  0  0
  187.8740  176.7570  144.5330 N   0  0  0  0  0  2  0  0  0  0  0  0
  186.4460  177.7140  146.2980 N   0  0  0  0  0  2  0  0  0  0  0  0
  186.6960  178.7490  144.2230 O   0  0  0  0  0  0  0  0  0  0  0  0
  184.1110  178.2760  146.6080 C   0  0  0  0  0  1  0  0  0  0  0  0
  185.5410  178.7260  146.8120 C   0  0  0  0  0  2  0  0  0  0  0  0
  193.9160  177.1010  145.0040 O   0  0  0  0  0  0  0  0  0  0  0  0
  193.9530  176.4580  146.2430 C   0  0  0  0  0  1  0  0  0  0  0  0
  189.6640  173.4920  141.5750 C   0  0  2  0  0  3  0  0  0  0  0  0
  188.1230  172.8370  139.8320 O   0  0  0  0  0  1  0  0  0  0  0  0
  189.1870  173.6900  140.1350 C   0  0  2  0  0  3  0  0  0  0  0  0
  190.3220  173.4610  139.1560 C   0  0  0  0  0  1  0  0  0  0  0  0
  189.0450  172.2650  142.2410 C   0  0  0  0  0  2  0  0  0  0  0  0
  190.0860  171.1730  142.3910 C   0  0  0  0  0  2  0  0  0  0  0  0
  191.3690  171.7710  142.7170 N   0  0  0  0  0  2  0  0  0  0  0  0
  191.5800  171.5860  144.1440 C   0  0  2  0  0  3  0  0  0  0  0  0
  191.3430  172.7890  144.8100 O   0  0  0  0  0  1  0  0  0  0  0  0
  193.6290  172.3660  144.4060 C   0  0  0  0  0  1  0  0  0  0  0  0
  192.8960  171.1810  144.3700 O   0  0  0  0  0  0  0  0  0  0  0  0
  1  5  1  0  0  0  0
  2  6  1  0  0  0  0
  2 13  1  1  0  0  0
  3 11  2  0  0  0  0
  4 10  1  0  0  0  0
  4  1  2  0  0  0  0
  5 18  1  6  0  0  0
  6  3  1  0  0  0  0
  7  9  2  0  0  0  0
  8  9  1  0  0  0  0
  8 10  1  0  0  0  0
  9  2  1  0  0  0  0
 10  6  2  0  0  0  0
 11  5  1  0  0  0  0
 12 14  1  0  0  0  0
 13 12  1  0  0  0  0
 14 17  1  0  0  0  0
 15 12  2  0  0  0  0
 16 17  1  0  0  0  0
 18 19  1  0  0  0  0
 20 24  1  1  0  0  0
 20  8  1  0  0  0  0
 21 22  1  0  0  0  0
 22 23  1  6  0  0  0
 22 20  1  0  0  0  0
 24 25  1  0  0  0  0
 25 26  1  0  0  0  0
 26 27  1  0  0  0  0
 27 30  1  0  0  0  0
 27 28  1  1  0  0  0
 30 29  1  0  0  0  0
M  END
>  <MODEL>
5

>  <REMARK>
 VINA RESULT:      -5.9      2.825      6.936
  Name = 
  10 active torsions:
  status: ('A' for Active; 'I' for Inactive)
    1  A    between atoms: C_3  and  N_20
    2  A    between atoms: C_3  and  C_25
    3  A    between atoms: C_3  and  C_26
    4  A    between atoms: C_4  and  N_22
    5  A    between atoms: C_4  and  C_26
    6  A    between atoms: O_5  and  C_15
    7  A    between atoms: C_8  and  N_9
    8  A    between atoms: C_10  and  O_18
    9  A    between atoms: C_10  and  N_22
   10  A    between atoms: N_16  and  C_27
                            x       y       z     vdW  Elec       q    Type
                         _______ _______ _______ _____ _____    ______ ____

>  <TORSDO>
F 10

$$$$
=
 OpenBabel11042413463D

 30 31  0  0  1  0  0  0  0  0999 V2000
  190.7490  173.0710  144.9750 C   0  0  0  0  0  3  0  0  0  0  0  0
  188.1500  174.3890  141.4890 C   0  0  1  0  0  3  0  0  0  0  0  0
  189.1670  172.2130  142.4830 C   0  0  0  0  0  3  0  0  0  0  0  0
  189.8910  174.0820  144.8340 C   0  0  0  0  0  3  0  0  0  0  0  0
  191.2650  172.2640  143.8250 C   0  0  2  0  0  3  0  0  0  0  0  0
  188.9590  173.6730  142.5320 C   0  0  0  0  0  0  0  0  0  0  0  0
  187.3760  176.6910  141.6470 O   0  0  0  0  0  0  0  0  0  0  0  0
  188.7420  175.7930  143.3560 N   0  0  0  0  0  0  0  0  0  0  0  0
  188.0390  175.7320  142.1230 C   0  0  0  0  0  0  0  0  0  0  0  0
  189.2640  174.4860  143.5580 C   0  0  0  0  0  0  0  0  0  0  0  0
  190.1650  171.5680  143.0880 C   0  0  0  0  0  3  0  0  0  0  0  0
  188.7110  173.6030  139.1470 C   0  0  0  0  0  0  0  0  0  0  0  0
  188.9230  174.4780  140.2560 N   0  0  0  0  0  2  0  0  0  0  0  0
  189.4730  173.7870  137.9560 N   0  0  0  0  0  2  0  0  0  0  0  0
  187.8580  172.6760  139.2210 O   0  0  0  0  0  0  0  0  0  0  0  0
  189.5690  173.7310  135.5370 C   0  0  0  0  0  1  0  0  0  0  0  0
  189.3020  172.9330  136.7940 C   0  0  0  0  0  2  0  0  0  0  0  0
  192.1870  171.3240  144.2870 O   0  0  0  0  0  0  0  0  0  0  0  0
  192.4930  170.5440  143.1710 C   0  0  0  0  0  1  0  0  0  0  0  0
  188.6630  176.8420  144.3740 C   0  0  2  0  0  3  0  0  0  0  0  0
  189.9970  177.7000  146.1970 O   0  0  0  0  0  1  0  0  0  0  0  0
  190.0550  177.2040  144.8930 C   0  0  2  0  0  3  0  0  0  0  0  0
  190.7190  178.2210  143.9860 C   0  0  0  0  0  1  0  0  0  0  0  0
  187.6920  176.4660  145.4920 C   0  0  0  0  0  2  0  0  0  0  0  0
  186.3550  177.1440  145.2710 C   0  0  0  0  0  2  0  0  0  0  0  0
  186.5720  178.4760  144.7350 N   0  0  0  0  0  2  0  0  0  0  0  0
  185.3720  178.8450  144.0010 C   0  0  2  0  0  3  0  0  0  0  0  0
  184.4690  179.4650  144.8670 O   0  0  0  0  0  1  0  0  0  0  0  0
  184.0650  178.1560  142.3590 C   0  0  0  0  0  1  0  0  0  0  0  0
  184.7860  177.6990  143.4620 O   0  0  0  0  0  0  0  0  0  0  0  0
  2 13  1  6  0  0  0
  2  9  1  0  0  0  0
  2  6  1  0  0  0  0
  3  6  1  0  0  0  0
  3 11  2  0  0  0  0
  4  1  2  0  0  0  0
  5 18  1  1  0  0  0
  5  1  1  0  0  0  0
  6 10  2  0  0  0  0
  7  9  2  0  0  0  0
  8 10  1  0  0  0  0
  8 20  1  0  0  0  0
  9  8  1  0  0  0  0
 10  4  1  0  0  0  0
 11  5  1  0  0  0  0
 12 15  2  0  0  0  0
 12 13  1  0  0  0  0
 14 12  1  0  0  0  0
 16 17  1  0  0  0  0
 17 14  1  0  0  0  0
 19 18  1  0  0  0  0
 20 22  1  0  0  0  0
 20 24  1  1  0  0  0
 22 23  1  6  0  0  0
 22 21  1  0  0  0  0
 25 24  1  0  0  0  0
 26 25  1  0  0  0  0
 27 26  1  0  0  0  0
 27 28  1  1  0  0  0
 29 30  1  0  0  0  0
 30 27  1  0  0  0  0
M  END
>  <MODEL>
6

>  <REMARK>
 VINA RESULT:      -5.9      2.912      6.405
  Name = 
  10 active torsions:
  status: ('A' for Active; 'I' for Inactive)
    1  A    between atoms: C_3  and  N_20
    2  A    between atoms: C_3  and  C_25
    3  A    between atoms: C_3  and  C_26
    4  A    between atoms: C_4  and  N_22
    5  A    between atoms: C_4  and  C_26
    6  A    between atoms: O_5  and  C_15
    7  A    between atoms: C_8  and  N_9
    8  A    between atoms: C_10  and  O_18
    9  A    between atoms: C_10  and  N_22
   10  A    between atoms: N_16  and  C_27
                            x       y       z     vdW  Elec       q    Type
                         _______ _______ _______ _____ _____    ______ ____

>  <TORSDO>
F 10

$$$$
=
 OpenBabel11042413463D

 30 31  0  0  1  0  0  0  0  0999 V2000
  188.9230  172.9350  142.3940 C   0  0  0  0  0  3  0  0  0  0  0  0
  191.9060  176.3400  142.7740 C   0  0  1  0  0  3  0  0  0  0  0  0
  191.6950  174.0180  141.6260 C   0  0  0  0  0  3  0  0  0  0  0  0
  188.7620  174.2470  142.5680 C   0  0  0  0  0  3  0  0  0  0  0  0
  190.2350  172.2360  142.5750 C   0  0  2  0  0  3  0  0  0  0  0  0
  191.1300  175.0940  142.4630 C   0  0  0  0  0  0  0  0  0  0  0  0
  190.9830  178.3570  143.7750 O   0  0  0  0  0  0  0  0  0  0  0  0
  189.6050  176.4590  143.4780 N   0  0  0  0  0  0  0  0  0  0  0  0
  190.8340  177.1660  143.3960 C   0  0  0  0  0  0  0  0  0  0  0  0
  189.8520  175.2000  142.8650 C   0  0  0  0  0  0  0  0  0  0  0  0
  191.2790  172.7510  141.6340 C   0  0  0  0  0  3  0  0  0  0  0  0
  194.3010  175.7990  143.3960 C   0  0  0  0  0  0  0  0  0  0  0  0
  192.9390  176.0340  143.7560 N   0  0  0  0  0  2  0  0  0  0  0  0
  195.2620  175.5550  144.4220 N   0  0  0  0  0  2  0  0  0  0  0  0
  194.6510  175.8070  142.1850 O   0  0  0  0  0  0  0  0  0  0  0  0
  197.1710  174.1690  144.9720 C   0  0  0  0  0  1  0  0  0  0  0  0
  196.6620  175.3130  144.1210 C   0  0  0  0  0  2  0  0  0  0  0  0
  190.0670  170.8650  142.3820 O   0  0  0  0  0  0  0  0  0  0  0  0
  191.3630  170.3480  142.3390 C   0  0  0  0  0  1  0  0  0  0  0  0
  188.2840  177.0050  143.7920 C   0  0  2  0  0  3  0  0  0  0  0  0
  186.6880  178.7010  143.1460 O   0  0  0  0  0  1  0  0  0  0  0  0
  187.8830  178.0790  142.7790 C   0  0  2  0  0  3  0  0  0  0  0  0
  187.7460  177.4840  141.3910 C   0  0  0  0  0  1  0  0  0  0  0  0
  188.2090  177.4960  145.2370 C   0  0  0  0  0  2  0  0  0  0  0  0
  187.6200  176.4170  146.1240 C   0  0  0  0  0  2  0  0  0  0  0  0
  186.8400  177.0350  147.1810 N   0  0  0  0  0  2  0  0  0  0  0  0
  186.0420  178.0860  146.5680 C   0  0  2  0  0  3  0  0  0  0  0  0
  185.8050  179.0950  147.5030 O   0  0  0  0  0  1  0  0  0  0  0  0
  184.0650  178.6650  145.7700 C   0  0  0  0  0  1  0  0  0  0  0  0
  184.8260  177.5550  146.1380 O   0  0  0  0  0  0  0  0  0  0  0  0
  1  4  2  0  0  0  0
  1  5  1  0  0  0  0
  2  9  1  0  0  0  0
  2 13  1  1  0  0  0
  3 11  2  0  0  0  0
  3  6  1  0  0  0  0
  4 10  1  0  0  0  0
  5 18  1  6  0  0  0
  6  2  1  0  0  0  0
  6 10  2  0  0  0  0
  8 20  1  0  0  0  0
  9  8  1  0  0  0  0
  9  7  2  0  0  0  0
 10  8  1  0  0  0  0
 11  5  1  0  0  0  0
 12 13  1  0  0  0  0
 12 14  1  0  0  0  0
 15 12  2  0  0  0  0
 17 14  1  0  0  0  0
 17 16  1  0  0  0  0
 19 18  1  0  0  0  0
 20 24  1  1  0  0  0
 22 23  1  6  0  0  0
 22 21  1  0  0  0  0
 22 20  1  0  0  0  0
 24 25  1  0  0  0  0
 25 26  1  0  0  0  0
 27 26  1  0  0  0  0
 27 28  1  1  0  0  0
 29 30  1  0  0  0  0
 30 27  1  0  0  0  0
M  END
>  <MODEL>
7

>  <REMARK>
 VINA RESULT:      -5.9      2.567      5.386
  Name = 
  10 active torsions:
  status: ('A' for Active; 'I' for Inactive)
    1  A    between atoms: C_3  and  N_20
    2  A    between atoms: C_3  and  C_25
    3  A    between atoms: C_3  and  C_26
    4  A    between atoms: C_4  and  N_22
    5  A    between atoms: C_4  and  C_26
    6  A    between atoms: O_5  and  C_15
    7  A    between atoms: C_8  and  N_9
    8  A    between atoms: C_10  and  O_18
    9  A    between atoms: C_10  and  N_22
   10  A    between atoms: N_16  and  C_27
                            x       y       z     vdW  Elec       q    Type
                         _______ _______ _______ _____ _____    ______ ____

>  <TORSDO>
F 10

$$$$
=
 OpenBabel11042413463D

 30 31  0  0  1  0  0  0  0  0999 V2000
  193.9340  176.5110  145.1420 C   0  0  0  0  0  3  0  0  0  0  0  0
  191.0970  173.8010  142.8530 C   0  0  1  0  0  3  0  0  0  0  0  0
  193.5990  173.9040  143.5510 C   0  0  0  0  0  3  0  0  0  0  0  0
  192.6250  176.2840  145.2620 C   0  0  0  0  0  3  0  0  0  0  0  0
  194.7380  176.0820  143.9540 C   0  0  2  0  0  3  0  0  0  0  0  0
  192.2390  174.4780  143.5530 C   0  0  0  0  0  0  0  0  0  0  0  0
  188.7490  174.3870  143.1050 O   0  0  0  0  0  0  0  0  0  0  0  0
  190.4020  175.6640  144.2120 N   0  0  0  0  0  0  0  0  0  0  0  0
  189.9600  174.6150  143.3630 C   0  0  0  0  0  0  0  0  0  0  0  0
  191.8120  175.5060  144.3040 C   0  0  0  0  0  0  0  0  0  0  0  0
  194.7160  174.5970  143.7700 C   0  0  0  0  0  3  0  0  0  0  0  0
  190.6360  173.1000  140.4620 C   0  0  0  0  0  0  0  0  0  0  0  0
  191.2380  173.9810  141.4130 N   0  0  0  0  0  2  0  0  0  0  0  0
  190.7780  173.3730  139.0700 N   0  0  0  0  0  2  0  0  0  0  0  0
  189.9850  172.0910  140.8500 O   0  0  0  0  0  0  0  0  0  0  0  0
  188.8710  173.1100  137.5990 C   0  0  0  0  0  1  0  0  0  0  0  0
  190.1880  172.5180  138.0550 C   0  0  0  0  0  2  0  0  0  0  0  0
  196.0560  176.5170  144.0980 O   0  0  0  0  0  0  0  0  0  0  0  0
  196.5350  176.6420  142.7920 C   0  0  0  0  0  1  0  0  0  0  0  0
  189.5830  176.5050  145.0870 C   0  0  2  0  0  3  0  0  0  0  0  0
  187.6460  176.3950  146.5270 O   0  0  0  0  0  1  0  0  0  0  0  0
  188.7010  175.6490  145.9970 C   0  0  2  0  0  3  0  0  0  0  0  0
  189.5170  175.0440  147.1220 C   0  0  0  0  0  1  0  0  0  0  0  0
  188.7880  177.5360  144.2890 C   0  0  0  0  0  2  0  0  0  0  0  0
  189.5280  177.8950  143.0160 C   0  0  0  0  0  2  0  0  0  0  0  0
  188.5680  178.1820  141.9650 N   0  0  0  0  0  2  0  0  0  0  0  0
  187.2500  177.8430  142.4820 C   0  0  2  0  0  3  0  0  0  0  0  0
  186.7550  176.7300  141.8000 O   0  0  0  0  0  1  0  0  0  0  0  0
  185.4470  178.8050  143.3200 C   0  0  0  0  0  1  0  0  0  0  0  0
  186.3870  178.9230  142.2960 O   0  0  0  0  0  0  0  0  0  0  0  0
  1  4  2  0  0  0  0
  2 13  1  6  0  0  0
  2  9  1  0  0  0  0
  2  6  1  0  0  0  0
  3  6  1  0  0  0  0
  3 11  2  0  0  0  0
  5 18  1  1  0  0  0
  5  1  1  0  0  0  0
  6 10  2  0  0  0  0
  7  9  2  0  0  0  0
  8 10  1  0  0  0  0
  8 20  1  0  0  0  0
  9  8  1  0  0  0  0
 10  4  1  0  0  0  0
 11  5  1  0  0  0  0
 12 15  2  0  0  0  0
 12 13  1  0  0  0  0
 14 12  1  0  0  0  0
 16 17  1  0  0  0  0
 17 14  1  0  0  0  0
 19 18  1  0  0  0  0
 20 24  1  6  0  0  0
 20 22  1  0  0  0  0
 22 21  1  0  0  0  0
 22 23  1  1  0  0  0
 25 24  1  0  0  0  0
 26 27  1  0  0  0  0
 26 25  1  0  0  0  0
 27 28  1  6  0  0  0
 30 27  1  0  0  0  0
 30 29  1  0  0  0  0
M  END
>  <MODEL>
8

>  <REMARK>
 VINA RESULT:      -5.8      2.624      6.375
  Name = 
  10 active torsions:
  status: ('A' for Active; 'I' for Inactive)
    1  A    between atoms: C_3  and  N_20
    2  A    between atoms: C_3  and  C_25
    3  A    between atoms: C_3  and  C_26
    4  A    between atoms: C_4  and  N_22
    5  A    between atoms: C_4  and  C_26
    6  A    between atoms: O_5  and  C_15
    7  A    between atoms: C_8  and  N_9
    8  A    between atoms: C_10  and  O_18
    9  A    between atoms: C_10  and  N_22
   10  A    between atoms: N_16  and  C_27
                            x       y       z     vdW  Elec       q    Type
                         _______ _______ _______ _____ _____    ______ ____

>  <TORSDO>
F 10

$$$$
=
 OpenBabel11042413463D

 30 31  0  0  1  0  0  0  0  0999 V2000
  190.5930  173.0460  145.0060 C   0  0  0  0  0  3  0  0  0  0  0  0
  187.9990  174.3280  141.5040 C   0  0  1  0  0  3  0  0  0  0  0  0
  189.1070  172.1790  142.4590 C   0  0  0  0  0  3  0  0  0  0  0  0
  189.6870  174.0160  144.8740 C   0  0  0  0  0  3  0  0  0  0  0  0
  191.1740  172.3000  143.8450 C   0  0  2  0  0  3  0  0  0  0  0  0
  188.8220  173.6250  142.5430 C   0  0  0  0  0  0  0  0  0  0  0  0
  187.1030  176.5810  141.7090 O   0  0  0  0  0  0  0  0  0  0  0  0
  188.4800  175.7070  143.4200 N   0  0  0  0  0  0  0  0  0  0  0  0
  187.8050  175.6440  142.1720 C   0  0  0  0  0  0  0  0  0  0  0  0
  189.0650  174.4230  143.5970 C   0  0  0  0  0  0  0  0  0  0  0  0
  190.1250  171.5690  143.0670 C   0  0  0  0  0  3  0  0  0  0  0  0
  188.6440  173.6370  139.1540 C   0  0  0  0  0  0  0  0  0  0  0  0
  188.7890  174.4910  140.2900 N   0  0  0  0  0  2  0  0  0  0  0  0
  189.4190  173.8940  137.9840 N   0  0  0  0  0  2  0  0  0  0  0  0
  187.8400  172.6670  139.1840 O   0  0  0  0  0  0  0  0  0  0  0  0
  190.4060  172.0160  136.8150 C   0  0  0  0  0  1  0  0  0  0  0  0
  189.3160  173.0660  136.7960 C   0  0  0  0  0  2  0  0  0  0  0  0
  192.1330  171.3960  144.3010 O   0  0  0  0  0  0  0  0  0  0  0  0
  193.2710  172.1700  144.5350 C   0  0  0  0  0  1  0  0  0  0  0  0
  188.3270  176.7210  144.4640 C   0  0  2  0  0  3  0  0  0  0  0  0
  186.6860  178.4920  144.3660 O   0  0  0  0  0  1  0  0  0  0  0  0
  186.8610  177.1300  144.6160 C   0  0  2  0  0  3  0  0  0  0  0  0
  186.3500  176.7940  146.0040 C   0  0  0  0  0  1  0  0  0  0  0  0
  189.2530  177.9120  144.2300 C   0  0  0  0  0  2  0  0  0  0  0  0
  190.4870  177.7930  145.1020 C   0  0  0  0  0  2  0  0  0  0  0  0
  191.6340  177.4690  144.2730 N   0  0  0  0  0  2  0  0  0  0  0  0
  192.4260  176.4880  144.9990 C   0  0  2  0  0  3  0  0  0  0  0  0
  191.9820  176.4180  146.3210 O   0  0  0  0  0  1  0  0  0  0  0  0
  194.1980  176.7170  146.2990 C   0  0  0  0  0  1  0  0  0  0  0  0
  193.7680  176.8690  144.9800 O   0  0  0  0  0  0  0  0  0  0  0  0
  2 13  1  6  0  0  0
  2  9  1  0  0  0  0
  2  6  1  0  0  0  0
  3  6  1  0  0  0  0
  3 11  2  0  0  0  0
  4  1  2  0  0  0  0
  5 18  1  1  0  0  0
  5  1  1  0  0  0  0
  6 10  2  0  0  0  0
  7  9  2  0  0  0  0
  8 10  1  0  0  0  0
  8 20  1  0  0  0  0
  9  8  1  0  0  0  0
 10  4  1  0  0  0  0
 11  5  1  0  0  0  0
 12 15  2  0  0  0  0
 12 13  1  0  0  0  0
 14 12  1  0  0  0  0
 17 16  1  0  0  0  0
 17 14  1  0  0  0  0
 18 19  1  0  0  0  0
 20 24  1  6  0  0  0
 20 22  1  0  0  0  0
 21 22  1  0  0  0  0
 22 23  1  1  0  0  0
 24 25  1  0  0  0  0
 26 27  1  0  0  0  0
 26 25  1  0  0  0  0
 27 28  1  1  0  0  0
 30 27  1  0  0  0  0
 30 29  1  0  0  0  0
M  END
>  <MODEL>
9

>  <REMARK>
 VINA RESULT:      -5.8      2.666      7.345
  Name = 
  10 active torsions:
  status: ('A' for Active; 'I' for Inactive)
    1  A    between atoms: C_3  and  N_20
    2  A    between atoms: C_3  and  C_25
    3  A    between atoms: C_3  and  C_26
    4  A    between atoms: C_4  and  N_22
    5  A    between atoms: C_4  and  C_26
    6  A    between atoms: O_5  and  C_15
    7  A    between atoms: C_8  and  N_9
    8  A    between atoms: C_10  and  O_18
    9  A    between atoms: C_10  and  N_22
   10  A    between atoms: N_16  and  C_27
                            x       y       z     vdW  Elec       q    Type
                         _______ _______ _______ _____ _____    ______ ____

>  <TORSDO>
F 10

$$$$
