=
 OpenBabel11042418173D

 68 77  0  0  1  0  0  0  0  0999 V2000
  190.3020  175.0010  141.6220 O   0  0  0  0  0  0  0  0  0  0  0  0
  188.9500  174.9240  142.0370 C   0  0  2  0  0  3  0  0  0  0  0  0
  190.4180  175.2780  143.9880 C   0  0  1  0  0  3  0  0  0  0  0  0
  191.1360  175.2200  142.6930 C   0  0  0  0  0  0  0  0  0  0  0  0
  188.9740  174.9810  143.5740 C   0  0  1  0  0  3  0  0  0  0  0  0
  192.3700  175.4180  142.5580 O   0  0  0  0  0  0  0  0  0  0  0  0
  187.6330  172.9440  142.3070 O   0  0  0  0  0  0  0  0  0  0  0  0
  188.3460  173.6520  141.5420 C   0  0  0  0  0  0  0  0  0  0  0  0
  188.6420  173.2220  140.2120 N   0  0  0  0  0  0  0  0  0  0  0  0
  188.3370  173.9470  139.1740 C   0  0  0  0  0  3  0  0  0  0  0  0
  188.6510  173.4810  137.7970 C   0  0  0  0  0  2  0  0  0  0  0  0
  189.9460  173.8860  137.4740 O   0  0  0  0  0  0  0  0  0  0  0  0
  193.8190  174.8600  135.9990 C   0  0  2  0  0  0  0  0  0  0  0  0
  194.6360  172.4320  136.6860 C   0  0  1  0  0  3  0  0  0  0  0  0
  192.3530  174.5100  135.9960 C   0  0  1  0  0  0  0  0  0  0  0  0
  192.1340  173.1220  135.8800 O   0  0  0  0  0  0  0  0  0  0  0  0
  194.2190  176.1360  135.2730 C   0  0  0  0  0  1  0  0  0  0  0  0
  190.8530  170.1660  136.4260 C   0  0  1  0  0  3  0  0  0  0  0  0
  194.0210  169.0670  136.6520 O   0  0  0  0  0  1  0  0  0  0  0  0
  193.4090  170.3070  136.4720 C   0  0  1  0  0  3  0  0  0  0  0  0
  194.8590  173.6990  135.8560 C   0  0  0  0  0  2  0  0  0  0  0  0
  194.3410  171.2700  135.7510 C   0  0  2  0  0  3  0  0  0  0  0  0
  195.7050  171.3960  136.4140 C   0  0  0  0  0  2  0  0  0  0  0  0
  192.7520  174.0730  138.3630 C   0  0  0  0  0  2  0  0  0  0  0  0
  189.6690  172.4680  135.2590 O   0  0  0  0  0  0  0  0  0  0  0  0
  192.9730  175.1560  137.2860 C   0  0  0  0  0  0  0  0  0  0  0  0
  190.7860  171.2440  137.3350 O   0  0  0  0  0  0  0  0  0  0  0  0
  190.5810  172.6870  136.4460 P   0  0  2  0  0  0  0  0  0  0  0  0
  192.1620  170.1310  135.6200 C   0  0  0  0  0  2  0  0  0  0  0  0
  190.6940  168.9690  137.1190 O   0  0  0  0  0  1  0  0  0  0  0  0
  191.4620  175.4130  135.1400 C   0  0  0  0  0  1  0  0  0  0  0  0
  194.0200  174.8240  138.3680 C   0  0  0  0  0  2  0  0  0  0  0  0
  188.0730  176.1030  144.0550 C   0  0  0  0  0  2  0  0  0  0  0  0
  188.1310  177.2570  143.0710 C   0  0  0  0  0  2  0  0  0  0  0  0
  187.2510  178.3210  143.5310 N   0  0  0  0  0  2  0  0  0  0  0  0
  183.7150  178.6930  143.4240 N   0  0  0  0  0  0  0  0  0  0  0  0
  185.3060  178.1700  141.9330 C   0  0  0  0  0  0  0  0  0  0  0  0
  185.8770  178.4500  143.1610 C   0  0  0  0  0  0  0  0  0  0  0  0
  183.9480  178.3400  142.1450 C   0  0  0  0  0  0  0  0  0  0  0  0
  184.8910  178.7670  144.0280 N   0  0  0  0  0  0  0  0  0  0  0  0
  182.0220  177.9520  140.3690 C   0  0  0  0  0  3  0  0  0  0  0  0
  182.9030  178.1320  141.1750 C   0  0  0  0  0  0  0  0  0  0  0  0
  186.4920  177.4410  139.6850 C   0  0  0  0  0  3  0  0  0  0  0  0
  185.9490  177.7710  140.7090 C   0  0  0  0  0  0  0  0  0  0  0  0
  185.0190  179.0680  145.3930 N   0  0  0  0  0  2  0  0  0  0  0  0
  184.5710  178.1710  146.4480 C   0  0  0  0  0  2  0  0  0  0  0  0
  186.9870  177.9730  147.0400 C   0  0  0  0  0  2  0  0  0  0  0  0
  185.5790  178.1440  147.5820 C   0  0  0  0  0  3  0  0  0  0  0  0
  186.2430  176.7770  147.6110 C   0  0  0  0  0  2  0  0  0  0  0  0
  190.9020  174.2050  144.9590 C   0  0  0  0  0  2  0  0  0  0  0  0
  190.6670  172.5640  144.2530 S   0  0  0  0  0  0  0  0  0  0  0  0
  192.1480  171.9080  144.2580 C   0  0  0  0  0  2  0  0  0  0  0  0
  197.2410  175.7220  143.4370 C   0  0  0  0  0  3  0  0  0  0  0  0
  194.0310  172.1410  142.4850 C   0  0  2  0  0  0  0  0  0  0  0  0
  194.6210  172.0510  141.0960 C   0  0  0  0  0  0  0  0  0  0  0  0
  194.1280  171.2560  140.1520 C   0  0  0  0  0  2  0  0  0  0  0  0
  197.8810  175.4770  142.2230 C   0  0  0  0  0  3  0  0  0  0  0  0
  195.6140  173.9890  142.9430 C   0  0  0  0  0  0  0  0  0  0  0  0
  197.3830  174.5040  141.3590 C   0  0  0  0  0  3  0  0  0  0  0  0
  191.9230  170.6060  142.0290 C   0  0  0  0  0  1  0  0  0  0  0  0
  192.7750  171.4230  142.9860 C   0  0  2  0  0  0  0  0  0  0  0  0
  194.4940  173.2230  143.2850 O   0  0  0  0  0  0  0  0  0  0  0  0
  194.1530  170.8150  143.2240 C   0  0  0  0  0  2  0  0  0  0  0  0
  195.7440  172.8280  140.8040 O   0  0  0  0  0  0  0  0  0  0  0  0
  196.2500  173.7680  141.7060 C   0  0  0  0  0  0  0  0  0  0  0  0
  196.1100  174.9930  143.8130 C   0  0  0  0  0  0  0  0  0  0  0  0
  195.5190  175.3100  145.0430 O   0  0  0  0  0  0  0  0  0  0  0  0
  194.4550  176.2350  145.2230 C   0  0  0  0  0  1  0  0  0  0  0  0
  1  2  1  0  0  0  0
  1  4  1  0  0  0  0
  2  8  1  1  0  0  0
  2  5  1  0  0  0  0
  3 50  1  1  0  0  0
  4  3  1  0  0  0  0
  5  3  1  0  0  0  0
  5 33  1  6  0  0  0
  6  4  2  0  0  0  0
  8  7  2  0  0  0  0
  9  8  1  0  0  0  0
 10  9  2  0  0  0  0
 11 10  1  0  0  0  0
 12 11  1  0  0  0  0
 13 17  1  6  0  0  0
 13 26  1  0  0  0  0
 14 21  1  6  0  0  0
 15 31  1  6  0  0  0
 15 13  1  0  0  0  0
 15 26  1  0  0  0  0
 16 15  1  0  0  0  0
 16 28  1  0  0  0  0
 18 30  1  1  0  0  0
 18 27  1  0  0  0  0
 20 19  1  6  0  0  0
 21 13  1  0  0  0  0
 22 23  1  1  0  0  0
 22 20  1  0  0  0  0
 22 14  1  0  0  0  0
 23 14  1  0  0  0  0
 24 32  1  0  0  0  0
 26 24  1  0  0  0  0
 26 32  1  0  0  0  0
 28 25  2  6  0  0  0
 28 27  1  0  0  0  0
 28 12  1  0  0  0  0
 29 18  1  0  0  0  0
 29 20  1  0  0  0  0
 34 35  1  0  0  0  0
 34 33  1  0  0  0  0
 36 40  1  0  0  0  0
 37 39  1  0  0  0  0
 37 38  2  0  0  0  0
 38 35  1  0  0  0  0
 38 40  1  0  0  0  0
 39 36  2  0  0  0  0
 40 45  1  0  0  0  0
 41 42  3  0  0  0  0
 42 39  1  0  0  0  0
 43 44  3  0  0  0  0
 44 37  1  0  0  0  0
 45 46  1  0  0  0  0
 46 48  1  0  0  0  0
 47 48  1  0  0  0  0
 47 49  1  0  0  0  0
 48 49  1  0  0  0  0
 51 52  1  0  0  0  0
 51 50  1  0  0  0  0
 53 66  1  0  0  0  0
 54 61  1  0  0  0  0
 54 63  1  1  0  0  0
 54 62  1  0  0  0  0
 55 54  1  0  0  0  0
 56 55  2  0  0  0  0
 57 53  2  0  0  0  0
 58 62  1  0  0  0  0
 58 66  2  0  0  0  0
 59 65  2  0  0  0  0
 59 57  1  0  0  0  0
 61 60  1  6  0  0  0
 61 63  1  0  0  0  0
 61 52  1  0  0  0  0
 64 55  1  0  0  0  0
 64 65  1  0  0  0  0
 65 58  1  0  0  0  0
 66 67  1  0  0  0  0
 67 68  1  0  0  0  0
M  END
>  <MODEL>
1

>  <REMARK>
 VINA RESULT:      -7.3      0.000      0.000
  Name = 
  18 active torsions:
  status: ('A' for Active; 'I' for Inactive)
    1  A    between atoms: O_4  and  C_66
    2  A    between atoms: C_6  and  C_22
    3  A    between atoms: C_6  and  S_29
    4  A    between atoms: C_14  and  C_56
    5  A    between atoms: C_15  and  C_25
    6  A    between atoms: C_15  and  N_47
    7  A    between atoms: C_19  and  C_48
    8  A    between atoms: C_20  and  C_26
    9  A    between atoms: C_25  and  C_31
   10  A    between atoms: C_34  and  O_35
   11  A    between atoms: C_34  and  C_57
   12  A    between atoms: O_35  and  P_54
   13  A    between atoms: C_38  and  C_42
   14  A    between atoms: N_44  and  C_56
   15  A    between atoms: N_47  and  C_58
   16  A    between atoms: C_48  and  N_51
   17  A    between atoms: N_51  and  N_68
   18  A    between atoms: C_62  and  C_65
                            x       y       z     vdW  Elec       q    Type
                         _______ _______ _______ _____ _____    ______ ____

>  <TORSDO>
F 18

$$$$
=
 OpenBabel11042418173D

 68 77  0  0  1  0  0  0  0  0999 V2000
  188.1740  173.0470  138.7950 O   0  0  0  0  0  0  0  0  0  0  0  0
  188.1530  173.7790  137.5820 C   0  0  2  0  0  3  0  0  0  0  0  0
  190.4700  173.1650  138.1620 C   0  0  1  0  0  3  0  0  0  0  0  0
  189.4560  172.6770  139.1260 C   0  0  0  0  0  0  0  0  0  0  0  0
  189.6240  173.9870  137.1850 C   0  0  1  0  0  3  0  0  0  0  0  0
  189.7120  171.9400  140.1100 O   0  0  0  0  0  0  0  0  0  0  0  0
  186.8910  175.6670  136.8260 O   0  0  0  0  0  0  0  0  0  0  0  0
  187.4510  175.0790  137.7930 C   0  0  0  0  0  0  0  0  0  0  0  0
  187.4800  175.6730  139.0920 N   0  0  0  0  0  0  0  0  0  0  0  0
  186.9960  176.8620  139.3130 C   0  0  0  0  0  3  0  0  0  0  0  0
  187.0370  177.4650  140.6720 C   0  0  0  0  0  2  0  0  0  0  0  0
  188.1050  176.9080  141.3730 O   0  0  0  0  0  0  0  0  0  0  0  0
  191.1420  175.9200  144.1880 C   0  0  2  0  0  0  0  0  0  0  0  0
  189.8750  177.3910  145.9950 C   0  0  1  0  0  3  0  0  0  0  0  0
  189.9450  175.7590  143.2860 C   0  0  1  0  0  0  0  0  0  0  0  0
  188.7310  175.9990  143.9610 O   0  0  0  0  0  0  0  0  0  0  0  0
  192.2940  174.9480  143.9770 C   0  0  0  0  0  1  0  0  0  0  0  0
  185.7150  177.1170  144.5360 C   0  0  1  0  0  3  0  0  0  0  0  0
  186.9050  178.1920  147.4910 O   0  0  0  0  0  1  0  0  0  0  0  0
  187.4470  177.5680  146.3670 C   0  0  1  0  0  3  0  0  0  0  0  0
  190.8970  176.2920  145.6890 C   0  0  0  0  0  2  0  0  0  0  0  0
  188.6960  176.7820  146.7370 C   0  0  2  0  0  3  0  0  0  0  0  0
  189.7290  177.6110  147.4860 C   0  0  0  0  0  2  0  0  0  0  0  0
  190.1230  178.1860  143.1040 C   0  0  0  0  0  2  0  0  0  0  0  0
  186.6000  175.1650  142.6740 O   0  0  0  0  0  0  0  0  0  0  0  0
  190.9740  176.9050  142.9780 C   0  0  0  0  0  0  0  0  0  0  0  0
  186.5970  177.6620  143.5790 O   0  0  0  0  0  0  0  0  0  0  0  0
  187.4760  176.3840  142.8670 P   0  0  2  0  0  0  0  0  0  0  0  0
  186.4290  176.5960  145.7940 C   0  0  0  0  0  2  0  0  0  0  0  0
  184.7730  178.0790  144.8940 O   0  0  0  0  0  1  0  0  0  0  0  0
  189.9790  174.5420  142.3590 C   0  0  0  0  0  1  0  0  0  0  0  0
  191.5010  178.2020  143.6230 C   0  0  0  0  0  2  0  0  0  0  0  0
  189.8480  173.4730  135.7750 C   0  0  0  0  0  2  0  0  0  0  0  0
  190.7180  172.2310  135.8190 C   0  0  0  0  0  2  0  0  0  0  0  0
  191.8420  172.4020  134.9110 N   0  0  0  0  0  2  0  0  0  0  0  0
  195.2280  172.0980  135.9570 N   0  0  0  0  0  0  0  0  0  0  0  0
  193.7600  173.7840  135.7890 C   0  0  0  0  0  0  0  0  0  0  0  0
  193.1930  172.6100  135.3270 C   0  0  0  0  0  0  0  0  0  0  0  0
  195.0390  173.4150  136.1700 C   0  0  0  0  0  0  0  0  0  0  0  0
  194.1070  171.6220  135.4360 N   0  0  0  0  0  0  0  0  0  0  0  0
  196.8630  174.9990  137.2560 C   0  0  0  0  0  3  0  0  0  0  0  0
  196.0350  174.2760  136.7560 C   0  0  0  0  0  0  0  0  0  0  0  0
  192.6750  176.1890  135.9660 C   0  0  0  0  0  3  0  0  0  0  0  0
  193.1710  175.0940  135.8830 C   0  0  0  0  0  0  0  0  0  0  0  0
  193.9360  170.2630  135.1310 N   0  0  0  0  0  2  0  0  0  0  0  0
  193.2410  169.3350  136.0100 C   0  0  0  0  0  2  0  0  0  0  0  0
  193.0390  168.5860  138.3820 C   0  0  0  0  0  2  0  0  0  0  0  0
  193.4640  169.7160  137.4620 C   0  0  0  0  0  3  0  0  0  0  0  0
  192.1170  169.7740  138.1630 C   0  0  0  0  0  2  0  0  0  0  0  0
  191.5030  174.0690  138.8280 C   0  0  0  0  0  2  0  0  0  0  0  0
  192.9620  173.1200  139.2970 S   0  0  0  0  0  0  0  0  0  0  0  0
  193.2920  173.6100  140.8050 C   0  0  0  0  0  2  0  0  0  0  0  0
  195.3500  170.1390  145.7930 C   0  0  0  0  0  3  0  0  0  0  0  0
  195.4010  173.6000  142.3220 C   0  0  2  0  0  0  0  0  0  0  0  0
  196.5730  174.2300  143.0380 C   0  0  0  0  0  0  0  0  0  0  0  0
  197.1150  175.3830  142.6610 C   0  0  0  0  0  2  0  0  0  0  0  0
  196.5440  170.6370  146.3110 C   0  0  0  0  0  3  0  0  0  0  0  0
  195.3400  171.8870  144.1080 C   0  0  0  0  0  0  0  0  0  0  0  0
  197.1310  171.7670  145.7460 C   0  0  0  0  0  3  0  0  0  0  0  0
  194.9380  175.6060  140.6570 C   0  0  0  0  0  1  0  0  0  0  0  0
  194.6280  174.2010  141.1440 C   0  0  2  0  0  0  0  0  0  0  0  0
  194.7680  172.5210  142.9990 O   0  0  0  0  0  0  0  0  0  0  0  0
  195.7660  173.2180  140.8930 C   0  0  0  0  0  2  0  0  0  0  0  0
  197.1160  173.5570  144.1340 O   0  0  0  0  0  0  0  0  0  0  0  0
  196.5320  172.4000  144.6570 C   0  0  0  0  0  0  0  0  0  0  0  0
  194.7340  170.7480  144.6960 C   0  0  0  0  0  0  0  0  0  0  0  0
  193.5290  170.1940  144.2440 O   0  0  0  0  0  0  0  0  0  0  0  0
  192.3380  170.9270  143.9930 C   0  0  0  0  0  1  0  0  0  0  0  0
  1  4  1  0  0  0  0
  2  8  1  1  0  0  0
  2  1  1  0  0  0  0
  3 50  1  1  0  0  0
  3  4  1  0  0  0  0
  4  6  2  0  0  0  0
  5 33  1  6  0  0  0
  5  2  1  0  0  0  0
  5  3  1  0  0  0  0
  7  8  2  0  0  0  0
  8  9  1  0  0  0  0
  9 10  2  0  0  0  0
 10 11  1  0  0  0  0
 11 12  1  0  0  0  0
 12 28  1  0  0  0  0
 13 17  1  6  0  0  0
 13 21  1  0  0  0  0
 14 21  1  1  0  0  0
 14 22  1  0  0  0  0
 14 23  1  0  0  0  0
 15 31  1  6  0  0  0
 15 16  1  0  0  0  0
 15 13  1  0  0  0  0
 18 30  1  1  0  0  0
 18 29  1  0  0  0  0
 20 22  1  0  0  0  0
 20 19  1  1  0  0  0
 22 23  1  1  0  0  0
 24 32  1  0  0  0  0
 26 24  1  0  0  0  0
 26 15  1  0  0  0  0
 26 32  1  0  0  0  0
 26 13  1  0  0  0  0
 27 18  1  0  0  0  0
 28 25  2  6  0  0  0
 28 27  1  0  0  0  0
 28 16  1  0  0  0  0
 29 20  1  0  0  0  0
 33 34  1  0  0  0  0
 35 38  1  0  0  0  0
 35 34  1  0  0  0  0
 36 39  2  0  0  0  0
 37 44  1  0  0  0  0
 37 39  1  0  0  0  0
 38 40  1  0  0  0  0
 38 37  2  0  0  0  0
 39 42  1  0  0  0  0
 40 36  1  0  0  0  0
 42 41  3  0  0  0  0
 44 43  3  0  0  0  0
 45 40  1  0  0  0  0
 45 46  1  0  0  0  0
 46 48  1  0  0  0  0
 48 49  1  0  0  0  0
 48 47  1  0  0  0  0
 49 47  1  0  0  0  0
 50 51  1  0  0  0  0
 51 52  1  0  0  0  0
 52 61  1  0  0  0  0
 53 57  1  0  0  0  0
 54 63  1  6  0  0  0
 54 62  1  0  0  0  0
 54 55  1  0  0  0  0
 55 64  1  0  0  0  0
 56 55  2  0  0  0  0
 58 65  2  0  0  0  0
 58 66  1  0  0  0  0
 59 57  2  0  0  0  0
 61 60  1  6  0  0  0
 61 54  1  0  0  0  0
 62 58  1  0  0  0  0
 63 61  1  0  0  0  0
 64 65  1  0  0  0  0
 65 59  1  0  0  0  0
 66 53  2  0  0  0  0
 67 66  1  0  0  0  0
 68 67  1  0  0  0  0
M  END
>  <MODEL>
2

>  <REMARK>
 VINA RESULT:      -6.9      3.204      9.328
  Name = 
  18 active torsions:
  status: ('A' for Active; 'I' for Inactive)
    1  A    between atoms: O_4  and  C_66
    2  A    between atoms: C_6  and  C_22
    3  A    between atoms: C_6  and  S_29
    4  A    between atoms: C_14  and  C_56
    5  A    between atoms: C_15  and  C_25
    6  A    between atoms: C_15  and  N_47
    7  A    between atoms: C_19  and  C_48
    8  A    between atoms: C_20  and  C_26
    9  A    between atoms: C_25  and  C_31
   10  A    between atoms: C_34  and  O_35
   11  A    between atoms: C_34  and  C_57
   12  A    between atoms: O_35  and  P_54
   13  A    between atoms: C_38  and  C_42
   14  A    between atoms: N_44  and  C_56
   15  A    between atoms: N_47  and  C_58
   16  A    between atoms: C_48  and  N_51
   17  A    between atoms: N_51  and  N_68
   18  A    between atoms: C_62  and  C_65
                            x       y       z     vdW  Elec       q    Type
                         _______ _______ _______ _____ _____    ______ ____

>  <TORSDO>
F 18

$$$$
=
 OpenBabel11042418173D

 68 77  0  0  1  0  0  0  0  0999 V2000
  187.9440  172.7880  140.6770 O   0  0  0  0  0  0  0  0  0  0  0  0
  188.3250  172.8120  139.3130 C   0  0  2  0  0  3  0  0  0  0  0  0
  190.1470  171.8740  140.6860 C   0  0  1  0  0  3  0  0  0  0  0  0
  188.9380  172.2480  141.4580 C   0  0  0  0  0  0  0  0  0  0  0  0
  189.7880  172.3390  139.2720 C   0  0  1  0  0  3  0  0  0  0  0  0
  188.7910  172.0370  142.6880 O   0  0  0  0  0  0  0  0  0  0  0  0
  188.3500  174.4280  137.5470 O   0  0  0  0  0  0  0  0  0  0  0  0
  188.1790  174.1970  138.7770 C   0  0  0  0  0  0  0  0  0  0  0  0
  187.9050  175.2630  139.6890 N   0  0  0  0  0  0  0  0  0  0  0  0
  187.1280  176.2570  139.3670 C   0  0  0  0  0  3  0  0  0  0  0  0
  186.8570  177.3590  140.3290 C   0  0  0  0  0  2  0  0  0  0  0  0
  186.9050  176.8410  141.6220 O   0  0  0  0  0  0  0  0  0  0  0  0
  186.1940  178.4410  145.5030 C   0  0  2  0  0  0  0  0  0  0  0  0
  188.2920  177.0820  146.3920 C   0  0  1  0  0  3  0  0  0  0  0  0
  186.6010  178.3790  144.0530 C   0  0  1  0  0  0  0  0  0  0  0  0
  187.9760  178.1070  143.8940 O   0  0  0  0  0  0  0  0  0  0  0  0
  185.1530  179.4850  145.8770 C   0  0  0  0  0  1  0  0  0  0  0  0
  190.7210  176.7850  142.7140 C   0  0  1  0  0  3  0  0  0  0  0  0
  191.5590  176.1880  145.9140 O   0  0  0  0  0  1  0  0  0  0  0  0
  190.4490  176.7210  145.2590 C   0  0  1  0  0  3  0  0  0  0  0  0
  187.2970  178.2290  146.5940 C   0  0  0  0  0  2  0  0  0  0  0  0
  189.6810  177.6610  146.1770 C   0  0  2  0  0  3  0  0  0  0  0  0
  189.3100  177.0290  147.5110 C   0  0  0  0  0  2  0  0  0  0  0  0
  186.3420  175.9750  144.3850 C   0  0  0  0  0  2  0  0  0  0  0  0
  188.8960  178.5770  141.4810 O   0  0  0  0  0  0  0  0  0  0  0  0
  185.5920  177.3070  144.6000 C   0  0  0  0  0  0  0  0  0  0  0  0
  189.4370  176.2160  142.5710 O   0  0  0  0  0  0  0  0  0  0  0  0
  188.3110  177.4780  142.3410 P   0  0  2  0  0  0  0  0  0  0  0  0
  190.9160  177.5180  144.0520 C   0  0  0  0  0  2  0  0  0  0  0  0
  191.6840  175.7880  142.5790 O   0  0  0  0  0  1  0  0  0  0  0  0
  186.0180  179.4740  143.1580 C   0  0  0  0  0  1  0  0  0  0  0  0
  185.5590  176.1520  145.6210 C   0  0  0  0  0  2  0  0  0  0  0  0
  189.9190  171.1710  138.3120 C   0  0  0  0  0  2  0  0  0  0  0  0
  190.1870  169.9000  139.0950 C   0  0  0  0  0  2  0  0  0  0  0  0
  191.3590  169.2370  138.5420 N   0  0  0  0  0  2  0  0  0  0  0  0
  194.8420  169.9530  138.6700 N   0  0  0  0  0  0  0  0  0  0  0  0
  193.2710  169.4180  140.1770 C   0  0  0  0  0  0  0  0  0  0  0  0
  192.7060  169.5290  138.9190 C   0  0  0  0  0  0  0  0  0  0  0  0
  194.6110  169.6960  139.9720 C   0  0  0  0  0  0  0  0  0  0  0  0
  193.6790  169.8590  138.0430 N   0  0  0  0  0  0  0  0  0  0  0  0
  196.5190  169.6530  141.8100 C   0  0  0  0  0  3  0  0  0  0  0  0
  195.6480  169.6780  140.9740 C   0  0  0  0  0  0  0  0  0  0  0  0
  192.1030  168.7800  142.4630 C   0  0  0  0  0  3  0  0  0  0  0  0
  192.6370  169.0730  141.4230 C   0  0  0  0  0  0  0  0  0  0  0  0
  193.5580  170.0210  136.6540 N   0  0  0  0  0  2  0  0  0  0  0  0
  192.9550  171.1960  136.0430 C   0  0  0  0  0  2  0  0  0  0  0  0
  192.9690  173.6920  136.0700 C   0  0  0  0  0  2  0  0  0  0  0  0
  193.7680  172.4350  136.3680 C   0  0  0  0  0  3  0  0  0  0  0  0
  194.0170  173.2060  135.0820 C   0  0  0  0  0  2  0  0  0  0  0  0
  191.3880  172.6190  141.1700 C   0  0  0  0  0  2  0  0  0  0  0  0
  192.1580  173.5110  139.8070 S   0  0  0  0  0  0  0  0  0  0  0  0
  193.7150  173.0700  139.8670 C   0  0  0  0  0  2  0  0  0  0  0  0
  196.0260  172.1040  145.7740 C   0  0  0  0  0  3  0  0  0  0  0  0
  195.5600  174.1490  141.3440 C   0  0  2  0  0  0  0  0  0  0  0  0
  196.4310  175.2830  141.8310 C   0  0  0  0  0  0  0  0  0  0  0  0
  196.6880  176.3630  141.1000 C   0  0  0  0  0  2  0  0  0  0  0  0
  196.9760  173.0620  146.1210 C   0  0  0  0  0  3  0  0  0  0  0  0
  195.7480  173.1480  143.6000 C   0  0  0  0  0  0  0  0  0  0  0  0
  197.3030  174.0740  145.2210 C   0  0  0  0  0  3  0  0  0  0  0  0
  194.7790  175.3010  139.0920 C   0  0  0  0  0  1  0  0  0  0  0  0
  194.7980  174.0960  140.0160 C   0  0  2  0  0  0  0  0  0  0  0  0
  195.1620  173.2040  142.3310 O   0  0  0  0  0  0  0  0  0  0  0  0
  196.1770  173.4580  140.1350 C   0  0  0  0  0  2  0  0  0  0  0  0
  197.0020  175.1780  143.1010 O   0  0  0  0  0  0  0  0  0  0  0  0
  196.6890  174.1290  143.9700 C   0  0  0  0  0  0  0  0  0  0  0  0
  195.4020  172.1300  144.5240 C   0  0  0  0  0  0  0  0  0  0  0  0
  194.4480  171.1380  144.2590 O   0  0  0  0  0  0  0  0  0  0  0  0
  194.2570  169.9620  145.0330 C   0  0  0  0  0  1  0  0  0  0  0  0
  1  4  1  0  0  0  0
  2  8  1  1  0  0  0
  2  1  1  0  0  0  0
  3 50  1  1  0  0  0
  3  4  1  0  0  0  0
  4  6  2  0  0  0  0
  5 33  1  6  0  0  0
  5  2  1  0  0  0  0
  5  3  1  0  0  0  0
  7  8  2  0  0  0  0
  8  9  1  0  0  0  0
 10  9  2  0  0  0  0
 10 11  1  0  0  0  0
 11 12  1  0  0  0  0
 12 28  1  0  0  0  0
 13 17  1  1  0  0  0
 13 21  1  0  0  0  0
 14 21  1  1  0  0  0
 14 23  1  0  0  0  0
 15 31  1  6  0  0  0
 15 26  1  0  0  0  0
 15 13  1  0  0  0  0
 16 15  1  0  0  0  0
 18 30  1  1  0  0  0
 18 29  1  0  0  0  0
 20 19  1  1  0  0  0
 20 22  1  0  0  0  0
 22 14  1  0  0  0  0
 22 23  1  1  0  0  0
 24 26  1  0  0  0  0
 24 32  1  0  0  0  0
 26 13  1  0  0  0  0
 26 32  1  0  0  0  0
 27 18  1  0  0  0  0
 28 25  2  6  0  0  0
 28 27  1  0  0  0  0
 28 16  1  0  0  0  0
 29 20  1  0  0  0  0
 33 34  1  0  0  0  0
 35 38  1  0  0  0  0
 35 34  1  0  0  0  0
 36 39  2  0  0  0  0
 37 44  1  0  0  0  0
 38 37  2  0  0  0  0
 39 37  1  0  0  0  0
 39 42  1  0  0  0  0
 40 36  1  0  0  0  0
 40 38  1  0  0  0  0
 42 41  3  0  0  0  0
 44 43  3  0  0  0  0
 45 40  1  0  0  0  0
 46 48  1  0  0  0  0
 46 45  1  0  0  0  0
 47 48  1  0  0  0  0
 49 47  1  0  0  0  0
 49 48  1  0  0  0  0
 51 52  1  0  0  0  0
 51 50  1  0  0  0  0
 52 61  1  0  0  0  0
 53 57  1  0  0  0  0
 54 63  1  6  0  0  0
 54 55  1  0  0  0  0
 54 62  1  0  0  0  0
 55 64  1  0  0  0  0
 56 55  2  0  0  0  0
 58 65  2  0  0  0  0
 58 66  1  0  0  0  0
 59 57  2  0  0  0  0
 61 60  1  6  0  0  0
 61 63  1  0  0  0  0
 61 54  1  0  0  0  0
 62 58  1  0  0  0  0
 64 65  1  0  0  0  0
 65 59  1  0  0  0  0
 66 53  2  0  0  0  0
 67 66  1  0  0  0  0
 67 68  1  0  0  0  0
M  END
>  <MODEL>
3

>  <REMARK>
 VINA RESULT:      -6.8      2.985      9.422
  Name = 
  18 active torsions:
  status: ('A' for Active; 'I' for Inactive)
    1  A    between atoms: O_4  and  C_66
    2  A    between atoms: C_6  and  C_22
    3  A    between atoms: C_6  and  S_29
    4  A    between atoms: C_14  and  C_56
    5  A    between atoms: C_15  and  C_25
    6  A    between atoms: C_15  and  N_47
    7  A    between atoms: C_19  and  C_48
    8  A    between atoms: C_20  and  C_26
    9  A    between atoms: C_25  and  C_31
   10  A    between atoms: C_34  and  O_35
   11  A    between atoms: C_34  and  C_57
   12  A    between atoms: O_35  and  P_54
   13  A    between atoms: C_38  and  C_42
   14  A    between atoms: N_44  and  C_56
   15  A    between atoms: N_47  and  C_58
   16  A    between atoms: C_48  and  N_51
   17  A    between atoms: N_51  and  N_68
   18  A    between atoms: C_62  and  C_65
                            x       y       z     vdW  Elec       q    Type
                         _______ _______ _______ _____ _____    ______ ____

>  <TORSDO>
F 18

$$$$
=
 OpenBabel11042418173D

 68 77  0  0  1  0  0  0  0  0999 V2000
  188.2510  172.4730  140.5210 O   0  0  0  0  0  0  0  0  0  0  0  0
  188.4950  172.6550  139.1370 C   0  0  2  0  0  3  0  0  0  0  0  0
  190.4390  171.5780  140.2070 C   0  0  1  0  0  3  0  0  0  0  0  0
  189.3150  171.8550  141.1330 C   0  0  0  0  0  0  0  0  0  0  0  0
  189.9440  172.1990  138.8970 C   0  0  1  0  0  3  0  0  0  0  0  0
  189.2900  171.5040  142.3390 O   0  0  0  0  0  0  0  0  0  0  0  0
  188.5960  174.5050  137.6230 O   0  0  0  0  0  0  0  0  0  0  0  0
  188.3030  174.0910  138.7790 C   0  0  0  0  0  0  0  0  0  0  0  0
  187.8440  174.9960  139.7850 N   0  0  0  0  0  0  0  0  0  0  0  0
  187.4490  176.2020  139.4930 C   0  0  0  0  0  3  0  0  0  0  0  0
  186.9760  177.1300  140.5550 C   0  0  0  0  0  2  0  0  0  0  0  0
  187.9960  177.2900  141.4920 O   0  0  0  0  0  0  0  0  0  0  0  0
  191.0890  176.2080  144.2100 C   0  0  2  0  0  0  0  0  0  0  0  0
  189.8210  177.5560  146.1100 C   0  0  1  0  0  3  0  0  0  0  0  0
  189.8830  176.0740  143.3160 C   0  0  1  0  0  0  0  0  0  0  0  0
  188.6730  176.2550  144.0180 O   0  0  0  0  0  0  0  0  0  0  0  0
  192.2540  175.2700  143.9320 C   0  0  0  0  0  1  0  0  0  0  0  0
  185.6460  177.2860  144.6910 C   0  0  1  0  0  3  0  0  0  0  0  0
  186.8580  178.2210  147.6840 O   0  0  0  0  0  1  0  0  0  0  0  0
  187.3950  177.6690  146.5220 C   0  0  1  0  0  3  0  0  0  0  0  0
  190.8570  176.4940  145.7310 C   0  0  0  0  0  2  0  0  0  0  0  0
  188.6630  176.8870  146.8320 C   0  0  2  0  0  3  0  0  0  0  0  0
  189.6910  177.6930  147.6120 C   0  0  0  0  0  2  0  0  0  0  0  0
  190.0150  178.5100  143.2630 C   0  0  0  0  0  2  0  0  0  0  0  0
  186.5400  175.4520  142.7160 O   0  0  0  0  0  0  0  0  0  0  0  0
  190.8870  177.2530  143.0570 C   0  0  0  0  0  0  0  0  0  0  0  0
  186.5060  177.8970  143.7540 O   0  0  0  0  0  0  0  0  0  0  0  0
  187.3970  176.6750  142.9620 P   0  0  2  0  0  0  0  0  0  0  0  0
  186.3870  176.7100  145.9100 C   0  0  0  0  0  2  0  0  0  0  0  0
  184.6930  178.2090  145.1130 O   0  0  0  0  0  1  0  0  0  0  0  0
  189.9240  174.9100  142.3240 C   0  0  0  0  0  1  0  0  0  0  0  0
  191.4000  178.5230  143.7650 C   0  0  0  0  0  2  0  0  0  0  0  0
  189.9720  171.1480  137.8030 C   0  0  0  0  0  2  0  0  0  0  0  0
  190.0570  169.7680  138.4270 C   0  0  0  0  0  2  0  0  0  0  0  0
  191.0400  168.9760  137.7020 N   0  0  0  0  0  2  0  0  0  0  0  0
  194.5040  169.4590  137.0510 N   0  0  0  0  0  0  0  0  0  0  0  0
  193.2710  169.0410  138.8760 C   0  0  0  0  0  0  0  0  0  0  0  0
  192.4520  169.1800  137.7700 C   0  0  0  0  0  0  0  0  0  0  0  0
  194.5490  169.2280  138.3780 C   0  0  0  0  0  0  0  0  0  0  0  0
  193.2280  169.4380  136.6950 N   0  0  0  0  0  0  0  0  0  0  0  0
  196.7990  169.0780  139.7670 C   0  0  0  0  0  3  0  0  0  0  0  0
  195.7760  169.1480  139.1290 C   0  0  0  0  0  0  0  0  0  0  0  0
  192.6000  168.4960  141.3760 C   0  0  0  0  0  3  0  0  0  0  0  0
  192.9050  168.7470  140.2370 C   0  0  0  0  0  0  0  0  0  0  0  0
  192.8150  169.5980  135.3630 N   0  0  0  0  0  2  0  0  0  0  0  0
  192.5380  170.8980  134.7700 C   0  0  0  0  0  2  0  0  0  0  0  0
  192.1160  173.2760  135.3980 C   0  0  0  0  0  2  0  0  0  0  0  0
  192.8710  172.0070  135.7500 C   0  0  0  0  0  3  0  0  0  0  0  0
  193.5750  173.1250  134.9990 C   0  0  0  0  0  2  0  0  0  0  0  0
  191.7260  172.2710  140.6460 C   0  0  0  0  0  2  0  0  0  0  0  0
  192.4310  173.2140  139.2830 S   0  0  0  0  0  0  0  0  0  0  0  0
  193.9460  172.6590  139.1510 C   0  0  0  0  0  2  0  0  0  0  0  0
  195.2550  172.8090  145.4300 C   0  0  0  0  0  3  0  0  0  0  0  0
  195.6830  173.8630  140.6610 C   0  0  2  0  0  0  0  0  0  0  0  0
  196.6110  174.9920  141.0460 C   0  0  0  0  0  0  0  0  0  0  0  0
  197.1020  175.8560  140.1630 C   0  0  0  0  0  2  0  0  0  0  0  0
  196.2600  173.7290  145.7260 C   0  0  0  0  0  3  0  0  0  0  0  0
  195.4220  173.3700  143.0730 C   0  0  0  0  0  0  0  0  0  0  0  0
  196.8350  174.4840  144.7070 C   0  0  0  0  0  3  0  0  0  0  0  0
  195.3790  174.5580  138.1250 C   0  0  0  0  0  1  0  0  0  0  0  0
  195.1160  173.5890  139.2650 C   0  0  2  0  0  0  0  0  0  0  0  0
  195.0330  173.1990  141.7400 O   0  0  0  0  0  0  0  0  0  0  0  0
  196.3740  172.8690  139.7370 C   0  0  0  0  0  2  0  0  0  0  0  0
  196.9780  175.1170  142.3870 O   0  0  0  0  0  0  0  0  0  0  0  0
  196.4160  174.3180  143.3870 C   0  0  0  0  0  0  0  0  0  0  0  0
  194.8240  172.6160  144.1140 C   0  0  0  0  0  0  0  0  0  0  0  0
  193.8010  171.6820  143.9020 O   0  0  0  0  0  0  0  0  0  0  0  0
  193.6870  170.4310  144.5670 C   0  0  0  0  0  1  0  0  0  0  0  0
  1  4  1  0  0  0  0
  2  8  1  1  0  0  0
  2  1  1  0  0  0  0
  3 50  1  1  0  0  0
  3  4  1  0  0  0  0
  4  6  2  0  0  0  0
  5 33  1  6  0  0  0
  5  2  1  0  0  0  0
  5  3  1  0  0  0  0
  7  8  2  0  0  0  0
  8  9  1  0  0  0  0
 10  9  2  0  0  0  0
 10 11  1  0  0  0  0
 11 12  1  0  0  0  0
 12 28  1  0  0  0  0
 13 17  1  6  0  0  0
 13 21  1  0  0  0  0
 14 21  1  1  0  0  0
 14 22  1  0  0  0  0
 14 23  1  0  0  0  0
 15 31  1  6  0  0  0
 15 16  1  0  0  0  0
 15 13  1  0  0  0  0
 18 30  1  1  0  0  0
 18 29  1  0  0  0  0
 20 22  1  0  0  0  0
 20 19  1  1  0  0  0
 22 23  1  1  0  0  0
 24 32  1  0  0  0  0
 26 24  1  0  0  0  0
 26 15  1  0  0  0  0
 26 32  1  0  0  0  0
 26 13  1  0  0  0  0
 27 18  1  0  0  0  0
 28 25  2  6  0  0  0
 28 27  1  0  0  0  0
 28 16  1  0  0  0  0
 29 20  1  0  0  0  0
 33 34  1  0  0  0  0
 35 38  1  0  0  0  0
 35 34  1  0  0  0  0
 36 39  2  0  0  0  0
 37 44  1  0  0  0  0
 38 37  2  0  0  0  0
 39 37  1  0  0  0  0
 39 42  1  0  0  0  0
 40 36  1  0  0  0  0
 40 38  1  0  0  0  0
 42 41  3  0  0  0  0
 44 43  3  0  0  0  0
 45 40  1  0  0  0  0
 46 45  1  0  0  0  0
 46 48  1  0  0  0  0
 47 48  1  0  0  0  0
 49 47  1  0  0  0  0
 49 48  1  0  0  0  0
 51 50  1  0  0  0  0
 52 61  1  0  0  0  0
 52 51  1  0  0  0  0
 53 57  1  0  0  0  0
 54 63  1  6  0  0  0
 54 55  1  0  0  0  0
 54 62  1  0  0  0  0
 55 64  1  0  0  0  0
 56 55  2  0  0  0  0
 58 65  2  0  0  0  0
 58 66  1  0  0  0  0
 59 57  2  0  0  0  0
 61 60  1  6  0  0  0
 61 63  1  0  0  0  0
 61 54  1  0  0  0  0
 62 58  1  0  0  0  0
 64 65  1  0  0  0  0
 65 59  1  0  0  0  0
 66 53  2  0  0  0  0
 67 66  1  0  0  0  0
 67 68  1  0  0  0  0
M  END
>  <MODEL>
4

>  <REMARK>
 VINA RESULT:      -6.6      3.132      9.494
  Name = 
  18 active torsions:
  status: ('A' for Active; 'I' for Inactive)
    1  A    between atoms: O_4  and  C_66
    2  A    between atoms: C_6  and  C_22
    3  A    between atoms: C_6  and  S_29
    4  A    between atoms: C_14  and  C_56
    5  A    between atoms: C_15  and  C_25
    6  A    between atoms: C_15  and  N_47
    7  A    between atoms: C_19  and  C_48
    8  A    between atoms: C_20  and  C_26
    9  A    between atoms: C_25  and  C_31
   10  A    between atoms: C_34  and  O_35
   11  A    between atoms: C_34  and  C_57
   12  A    between atoms: O_35  and  P_54
   13  A    between atoms: C_38  and  C_42
   14  A    between atoms: N_44  and  C_56
   15  A    between atoms: N_47  and  C_58
   16  A    between atoms: C_48  and  N_51
   17  A    between atoms: N_51  and  N_68
   18  A    between atoms: C_62  and  C_65
                            x       y       z     vdW  Elec       q    Type
                         _______ _______ _______ _____ _____    ______ ____

>  <TORSDO>
F 18

$$$$
=
 OpenBabel11042418173D

 68 77  0  0  1  0  0  0  0  0999 V2000
  190.1180  175.7990  141.7890 O   0  0  0  0  0  0  0  0  0  0  0  0
  188.8270  175.2930  142.0770 C   0  0  2  0  0  3  0  0  0  0  0  0
  189.9370  176.0150  144.1580 C   0  0  1  0  0  3  0  0  0  0  0  0
  190.7470  176.2280  142.9350 C   0  0  0  0  0  0  0  0  0  0  0  0
  188.6990  175.3000  143.6090 C   0  0  1  0  0  3  0  0  0  0  0  0
  191.8640  176.8020  142.9170 O   0  0  0  0  0  0  0  0  0  0  0  0
  188.2110  172.9840  142.2240 O   0  0  0  0  0  0  0  0  0  0  0  0
  188.6940  173.9150  141.5200 C   0  0  0  0  0  0  0  0  0  0  0  0
  189.1810  173.6550  140.2010 N   0  0  0  0  0  0  0  0  0  0  0  0
  190.3430  173.1040  139.9960 C   0  0  0  0  0  3  0  0  0  0  0  0
  190.8330  172.8440  138.6160 C   0  0  0  0  0  2  0  0  0  0  0  0
  192.1760  173.2130  138.5440 O   0  0  0  0  0  0  0  0  0  0  0  0
  196.2650  174.1370  137.8020 C   0  0  2  0  0  0  0  0  0  0  0  0
  196.8750  171.6040  138.2980 C   0  0  1  0  0  3  0  0  0  0  0  0
  194.8050  173.8720  137.5350 C   0  0  1  0  0  0  0  0  0  0  0  0
  194.5570  172.5200  137.2150 O   0  0  0  0  0  0  0  0  0  0  0  0
  196.8200  175.4650  137.3090 C   0  0  0  0  0  1  0  0  0  0  0  0
  193.0980  169.5970  137.1910 C   0  0  1  0  0  3  0  0  0  0  0  0
  196.1510  168.3050  137.7530 O   0  0  0  0  0  1  0  0  0  0  0  0
  195.6200  169.5900  137.6390 C   0  0  1  0  0  3  0  0  0  0  0  0
  197.2720  172.9450  137.6740 C   0  0  0  0  0  2  0  0  0  0  0  0
  196.6880  170.5770  137.1920 C   0  0  2  0  0  3  0  0  0  0  0  0
  197.9350  170.5490  138.0630 C   0  0  0  0  0  2  0  0  0  0  0  0
  194.8130  173.1390  139.8620 C   0  0  0  0  0  2  0  0  0  0  0  0
  192.1970  172.0810  136.1530 O   0  0  0  0  0  0  0  0  0  0  0  0
  195.2390  174.3270  138.9740 C   0  0  0  0  0  0  0  0  0  0  0  0
  192.9300  170.5630  138.2060 O   0  0  0  0  0  0  0  0  0  0  0  0
  192.9200  172.1080  137.4820 P   0  0  2  0  0  0  0  0  0  0  0  0
  194.5160  169.5840  136.5940 C   0  0  0  0  0  2  0  0  0  0  0  0
  192.7900  168.3370  137.6980 O   0  0  0  0  0  1  0  0  0  0  0  0
  194.0930  174.9160  136.6730 C   0  0  0  0  0  1  0  0  0  0  0  0
  196.0910  173.8130  140.1510 C   0  0  0  0  0  2  0  0  0  0  0  0
  187.4560  176.0710  144.0120 C   0  0  0  0  0  2  0  0  0  0  0  0
  187.8400  177.4880  144.3970 C   0  0  0  0  0  2  0  0  0  0  0  0
  187.2940  178.4130  143.4150 N   0  0  0  0  0  2  0  0  0  0  0  0
  183.7460  178.6760  143.3730 N   0  0  0  0  0  0  0  0  0  0  0  0
  185.3260  178.2130  141.8510 C   0  0  0  0  0  0  0  0  0  0  0  0
  185.9100  178.5020  143.0710 C   0  0  0  0  0  0  0  0  0  0  0  0
  183.9680  178.3390  142.0870 C   0  0  0  0  0  0  0  0  0  0  0  0
  184.9300  178.7820  143.9570 N   0  0  0  0  0  0  0  0  0  0  0  0
  182.0340  177.9040  140.3300 C   0  0  0  0  0  3  0  0  0  0  0  0
  182.9120  178.1060  141.1340 C   0  0  0  0  0  0  0  0  0  0  0  0
  186.4860  177.5330  139.5730 C   0  0  0  0  0  3  0  0  0  0  0  0
  185.9600  177.8430  140.6120 C   0  0  0  0  0  0  0  0  0  0  0  0
  185.0720  179.0770  145.3220 N   0  0  0  0  0  2  0  0  0  0  0  0
  184.1100  178.6540  146.3290 C   0  0  0  0  0  2  0  0  0  0  0  0
  186.2900  178.6800  147.5430 C   0  0  0  0  0  2  0  0  0  0  0  0
  184.8200  178.3100  147.6250 C   0  0  0  0  0  3  0  0  0  0  0  0
  185.8580  177.2370  147.3400 C   0  0  0  0  0  2  0  0  0  0  0  0
  190.6460  175.1120  145.1630 C   0  0  0  0  0  2  0  0  0  0  0  0
  191.8670  174.0800  144.3310 S   0  0  0  0  0  0  0  0  0  0  0  0
  193.0340  173.8690  145.4340 C   0  0  0  0  0  2  0  0  0  0  0  0
  195.2700  169.2360  141.6000 C   0  0  0  0  0  3  0  0  0  0  0  0
  195.2880  173.3630  144.2460 C   0  0  2  0  0  0  0  0  0  0  0  0
  196.7910  173.3930  144.0960 C   0  0  0  0  0  0  0  0  0  0  0  0
  197.5590  174.2940  144.6980 C   0  0  0  0  0  2  0  0  0  0  0  0
  196.6260  169.4040  141.3230 C   0  0  0  0  0  3  0  0  0  0  0  0
  195.2870  171.2480  142.9600 C   0  0  0  0  0  0  0  0  0  0  0  0
  197.3210  170.4780  141.8740 C   0  0  0  0  0  3  0  0  0  0  0  0
  195.1190  175.2640  146.0800 C   0  0  0  0  0  1  0  0  0  0  0  0
  194.4460  174.2770  145.1420 C   0  0  2  0  0  0  0  0  0  0  0  0
  194.6400  172.1900  143.7670 O   0  0  0  0  0  0  0  0  0  0  0  0
  194.6490  174.6200  143.6710 C   0  0  0  0  0  2  0  0  0  0  0  0
  197.3920  172.4380  143.2730 O   0  0  0  0  0  0  0  0  0  0  0  0
  196.6640  171.3930  142.6970 C   0  0  0  0  0  0  0  0  0  0  0  0
  194.5860  170.1430  142.4140 C   0  0  0  0  0  0  0  0  0  0  0  0
  193.2280  169.8950  142.6540 O   0  0  0  0  0  0  0  0  0  0  0  0
  192.7220  169.0200  143.6520 C   0  0  0  0  0  1  0  0  0  0  0  0
  1  2  1  0  0  0  0
  1  4  1  0  0  0  0
  2  8  1  1  0  0  0
  2  5  1  0  0  0  0
  3 50  1  1  0  0  0
  4  3  1  0  0  0  0
  5 33  1  6  0  0  0
  5  3  1  0  0  0  0
  6  4  2  0  0  0  0
  8  7  2  0  0  0  0
  9  8  1  0  0  0  0
 10  9  2  0  0  0  0
 11 10  1  0  0  0  0
 12 11  1  0  0  0  0
 13 17  1  6  0  0  0
 13 26  1  0  0  0  0
 14 21  1  6  0  0  0
 15 31  1  6  0  0  0
 15 13  1  0  0  0  0
 15 26  1  0  0  0  0
 16 28  1  0  0  0  0
 16 15  1  0  0  0  0
 18 30  1  1  0  0  0
 18 27  1  0  0  0  0
 20 19  1  6  0  0  0
 21 13  1  0  0  0  0
 22 20  1  0  0  0  0
 22 23  1  1  0  0  0
 22 14  1  0  0  0  0
 23 14  1  0  0  0  0
 24 32  1  0  0  0  0
 26 24  1  0  0  0  0
 26 32  1  0  0  0  0
 28 25  2  6  0  0  0
 28 27  1  0  0  0  0
 28 12  1  0  0  0  0
 29 18  1  0  0  0  0
 29 20  1  0  0  0  0
 33 34  1  0  0  0  0
 35 34  1  0  0  0  0
 36 40  1  0  0  0  0
 37 39  1  0  0  0  0
 37 38  2  0  0  0  0
 38 35  1  0  0  0  0
 38 40  1  0  0  0  0
 39 36  2  0  0  0  0
 40 45  1  0  0  0  0
 41 42  3  0  0  0  0
 42 39  1  0  0  0  0
 43 44  3  0  0  0  0
 44 37  1  0  0  0  0
 45 46  1  0  0  0  0
 46 48  1  0  0  0  0
 47 48  1  0  0  0  0
 49 47  1  0  0  0  0
 49 48  1  0  0  0  0
 51 50  1  0  0  0  0
 51 52  1  0  0  0  0
 53 66  1  0  0  0  0
 54 63  1  6  0  0  0
 54 61  1  0  0  0  0
 55 54  1  0  0  0  0
 55 56  2  0  0  0  0
 57 53  2  0  0  0  0
 57 59  1  0  0  0  0
 58 62  1  0  0  0  0
 59 65  2  0  0  0  0
 61 52  1  0  0  0  0
 61 60  1  1  0  0  0
 62 54  1  0  0  0  0
 63 61  1  0  0  0  0
 64 55  1  0  0  0  0
 65 58  1  0  0  0  0
 65 64  1  0  0  0  0
 66 67  1  0  0  0  0
 66 58  2  0  0  0  0
 67 68  1  0  0  0  0
M  END
>  <MODEL>
5

>  <REMARK>
 VINA RESULT:      -6.6      1.743      2.958
  Name = 
  18 active torsions:
  status: ('A' for Active; 'I' for Inactive)
    1  A    between atoms: O_4  and  C_66
    2  A    between atoms: C_6  and  C_22
    3  A    between atoms: C_6  and  S_29
    4  A    between atoms: C_14  and  C_56
    5  A    between atoms: C_15  and  C_25
    6  A    between atoms: C_15  and  N_47
    7  A    between atoms: C_19  and  C_48
    8  A    between atoms: C_20  and  C_26
    9  A    between atoms: C_25  and  C_31
   10  A    between atoms: C_34  and  O_35
   11  A    between atoms: C_34  and  C_57
   12  A    between atoms: O_35  and  P_54
   13  A    between atoms: C_38  and  C_42
   14  A    between atoms: N_44  and  C_56
   15  A    between atoms: N_47  and  C_58
   16  A    between atoms: C_48  and  N_51
   17  A    between atoms: N_51  and  N_68
   18  A    between atoms: C_62  and  C_65
                            x       y       z     vdW  Elec       q    Type
                         _______ _______ _______ _____ _____    ______ ____

>  <TORSDO>
F 18

$$$$
=
 OpenBabel11042418173D

 68 77  0  0  1  0  0  0  0  0999 V2000
  194.2690  170.8790  140.5150 O   0  0  0  0  0  0  0  0  0  0  0  0
  193.7890  171.7250  141.5440 C   0  0  2  0  0  3  0  0  0  0  0  0
  191.9500  170.3420  140.6580 C   0  0  1  0  0  3  0  0  0  0  0  0
  193.2630  170.0830  140.0210 C   0  0  0  0  0  0  0  0  0  0  0  0
  192.2680  171.5050  141.6020 C   0  0  1  0  0  3  0  0  0  0  0  0
  193.4700  169.1850  139.1680 O   0  0  0  0  0  0  0  0  0  0  0  0
  195.3240  173.4810  141.0040 O   0  0  0  0  0  0  0  0  0  0  0  0
  194.1270  173.1440  141.2240 C   0  0  0  0  0  0  0  0  0  0  0  0
  193.0830  174.1190  141.2360 N   0  0  0  0  0  0  0  0  0  0  0  0
  192.8770  174.8900  142.2650 C   0  0  0  0  0  3  0  0  0  0  0  0
  191.7840  175.8990  142.2580 C   0  0  0  0  0  2  0  0  0  0  0  0
  191.0880  175.8090  143.4630 O   0  0  0  0  0  0  0  0  0  0  0  0
  188.5620  175.5540  146.8810 C   0  0  2  0  0  0  0  0  0  0  0  0
  187.0570  177.4790  145.8490 C   0  0  1  0  0  3  0  0  0  0  0  0
  189.2130  175.1800  145.5730 C   0  0  1  0  0  0  0  0  0  0  0  0
  188.4650  175.6140  144.4600 O   0  0  0  0  0  0  0  0  0  0  0  0
  188.6630  174.5390  148.0100 C   0  0  0  0  0  1  0  0  0  0  0  0
  187.7970  176.9030  141.5320 C   0  0  1  0  0  3  0  0  0  0  0  0
  185.4330  178.7070  143.1000 O   0  0  0  0  0  1  0  0  0  0  0  0
  186.4130  177.7950  143.4930 C   0  0  1  0  0  3  0  0  0  0  0  0
  187.1970  176.3180  146.8390 C   0  0  0  0  0  2  0  0  0  0  0  0
  186.0230  177.1130  144.7970 C   0  0  2  0  0  3  0  0  0  0  0  0
  185.6740  178.0930  145.9070 C   0  0  0  0  0  2  0  0  0  0  0  0
  190.0610  177.4650  145.6770 C   0  0  0  0  0  2  0  0  0  0  0  0
  189.1720  174.5060  142.1880 O   0  0  0  0  0  0  0  0  0  0  0  0
  189.9560  176.1810  146.5270 C   0  0  0  0  0  0  0  0  0  0  0  0
  188.9780  177.1540  142.2630 O   0  0  0  0  0  0  0  0  0  0  0  0
  189.4370  175.7160  143.0580 P   0  0  2  0  0  0  0  0  0  0  0  0
  186.5570  176.7240  142.4240 C   0  0  0  0  0  2  0  0  0  0  0  0
  187.5820  177.9430  140.6310 O   0  0  0  0  0  1  0  0  0  0  0  0
  189.7750  173.7590  145.5010 C   0  0  0  0  0  1  0  0  0  0  0  0
  189.7620  177.5930  147.1140 C   0  0  0  0  0  2  0  0  0  0  0  0
  191.8620  171.1290  143.0150 C   0  0  0  0  0  2  0  0  0  0  0  0
  192.5660  169.8470  143.4200 C   0  0  0  0  0  2  0  0  0  0  0  0
  193.1830  170.0330  144.7250 N   0  0  0  0  0  2  0  0  0  0  0  0
  196.6280  170.7670  145.2260 N   0  0  0  0  0  0  0  0  0  0  0  0
  194.7180  171.9340  145.3500 C   0  0  0  0  0  0  0  0  0  0  0  0
  194.4590  170.6400  144.9360 C   0  0  0  0  0  0  0  0  0  0  0  0
  196.0920  171.9690  145.5160 C   0  0  0  0  0  0  0  0  0  0  0  0
  195.6310  169.9730  144.8660 N   0  0  0  0  0  0  0  0  0  0  0  0
  197.5140  174.0340  146.3690 C   0  0  0  0  0  3  0  0  0  0  0  0
  196.8660  173.0940  145.9740 C   0  0  0  0  0  0  0  0  0  0  0  0
  193.0150  173.9120  145.7780 C   0  0  0  0  0  3  0  0  0  0  0  0
  193.7890  173.0090  145.5840 C   0  0  0  0  0  0  0  0  0  0  0  0
  195.8250  168.6210  144.5390 N   0  0  0  0  0  2  0  0  0  0  0  0
  196.8540  168.1700  143.6140 C   0  0  0  0  0  2  0  0  0  0  0  0
  197.6500  168.3110  141.2530 C   0  0  0  0  0  2  0  0  0  0  0  0
  196.4730  168.5220  142.1880 C   0  0  0  0  0  3  0  0  0  0  0  0
  197.3090  169.7090  141.7400 C   0  0  0  0  0  2  0  0  0  0  0  0
  190.8990  170.7800  139.6430 C   0  0  0  0  0  2  0  0  0  0  0  0
  191.6680  171.1360  138.0530 S   0  0  0  0  0  0  0  0  0  0  0  0
  191.9080  172.7370  138.0710 C   0  0  0  0  0  2  0  0  0  0  0  0
  196.8530  176.2320  135.9520 C   0  0  0  0  0  3  0  0  0  0  0  0
  192.2430  174.6000  136.2930 C   0  0  2  0  0  0  0  0  0  0  0  0
  191.8160  175.7820  135.4530 C   0  0  0  0  0  0  0  0  0  0  0  0
  190.5440  176.0560  135.1850 C   0  0  0  0  0  2  0  0  0  0  0  0
  196.4480  177.1920  135.0260 C   0  0  0  0  0  3  0  0  0  0  0  0
  194.5620  175.4590  136.1680 C   0  0  0  0  0  0  0  0  0  0  0  0
  195.1030  177.3030  134.6820 C   0  0  0  0  0  3  0  0  0  0  0  0
  189.8130  173.8330  137.0110 C   0  0  0  0  0  1  0  0  0  0  0  0
  191.3160  173.6130  137.0080 C   0  0  2  0  0  0  0  0  0  0  0  0
  193.6030  174.5960  136.7120 O   0  0  0  0  0  0  0  0  0  0  0  0
  191.8670  173.2830  135.6250 C   0  0  0  0  0  2  0  0  0  0  0  0
  192.8090  176.6090  134.9240 O   0  0  0  0  0  0  0  0  0  0  0  0
  194.1580  176.4510  135.2540 C   0  0  0  0  0  0  0  0  0  0  0  0
  195.9280  175.3600  136.5320 C   0  0  0  0  0  0  0  0  0  0  0  0
  196.4150  174.4320  137.4630 O   0  0  0  0  0  0  0  0  0  0  0  0
  197.1480  173.2590  137.1400 C   0  0  0  0  0  1  0  0  0  0  0  0
  1  2  1  0  0  0  0
  2  8  1  6  0  0  0
  2  5  1  0  0  0  0
  3 50  1  6  0  0  0
  3  5  1  0  0  0  0
  4  1  1  0  0  0  0
  4  3  1  0  0  0  0
  5 33  1  1  0  0  0
  6  4  2  0  0  0  0
  7  8  2  0  0  0  0
  8  9  1  0  0  0  0
  9 10  2  0  0  0  0
 11 10  1  0  0  0  0
 11 12  1  0  0  0  0
 13 17  1  1  0  0  0
 14 23  1  1  0  0  0
 14 21  1  0  0  0  0
 15 31  1  6  0  0  0
 15 26  1  0  0  0  0
 15 13  1  0  0  0  0
 16 15  1  0  0  0  0
 18 30  1  6  0  0  0
 18 27  1  0  0  0  0
 18 29  1  0  0  0  0
 20 19  1  6  0  0  0
 20 22  1  0  0  0  0
 21 13  1  0  0  0  0
 22 14  1  0  0  0  0
 22 23  1  1  0  0  0
 24 26  1  0  0  0  0
 24 32  1  0  0  0  0
 26 13  1  0  0  0  0
 26 32  1  0  0  0  0
 27 28  1  0  0  0  0
 28 25  2  6  0  0  0
 28 12  1  0  0  0  0
 28 16  1  0  0  0  0
 29 20  1  0  0  0  0
 33 34  1  0  0  0  0
 34 35  1  0  0  0  0
 35 38  1  0  0  0  0
 36 39  2  0  0  0  0
 37 39  1  0  0  0  0
 37 44  1  0  0  0  0
 38 37  2  0  0  0  0
 39 42  1  0  0  0  0
 40 38  1  0  0  0  0
 40 36  1  0  0  0  0
 42 41  3  0  0  0  0
 44 43  3  0  0  0  0
 45 40  1  0  0  0  0
 46 45  1  0  0  0  0
 47 49  1  0  0  0  0
 47 48  1  0  0  0  0
 48 46  1  0  0  0  0
 49 48  1  0  0  0  0
 51 52  1  0  0  0  0
 51 50  1  0  0  0  0
 53 66  1  0  0  0  0
 54 63  1  6  0  0  0
 54 62  1  0  0  0  0
 54 61  1  0  0  0  0
 55 54  1  0  0  0  0
 56 55  2  0  0  0  0
 57 53  2  0  0  0  0
 58 66  2  0  0  0  0
 58 62  1  0  0  0  0
 59 57  1  0  0  0  0
 59 65  2  0  0  0  0
 61 60  1  1  0  0  0
 61 52  1  0  0  0  0
 63 61  1  0  0  0  0
 64 65  1  0  0  0  0
 64 55  1  0  0  0  0
 65 58  1  0  0  0  0
 66 67  1  0  0  0  0
 68 67  1  0  0  0  0
M  END
>  <MODEL>
6

>  <REMARK>
 VINA RESULT:      -6.5      3.578     10.155
  Name = 
  18 active torsions:
  status: ('A' for Active; 'I' for Inactive)
    1  A    between atoms: O_4  and  C_66
    2  A    between atoms: C_6  and  C_22
    3  A    between atoms: C_6  and  S_29
    4  A    between atoms: C_14  and  C_56
    5  A    between atoms: C_15  and  C_25
    6  A    between atoms: C_15  and  N_47
    7  A    between atoms: C_19  and  C_48
    8  A    between atoms: C_20  and  C_26
    9  A    between atoms: C_25  and  C_31
   10  A    between atoms: C_34  and  O_35
   11  A    between atoms: C_34  and  C_57
   12  A    between atoms: O_35  and  P_54
   13  A    between atoms: C_38  and  C_42
   14  A    between atoms: N_44  and  C_56
   15  A    between atoms: N_47  and  C_58
   16  A    between atoms: C_48  and  N_51
   17  A    between atoms: N_51  and  N_68
   18  A    between atoms: C_62  and  C_65
                            x       y       z     vdW  Elec       q    Type
                         _______ _______ _______ _____ _____    ______ ____

>  <TORSDO>
F 18

$$$$
=
 OpenBabel11042418173D

 68 77  0  0  1  0  0  0  0  0999 V2000
  189.9850  174.2790  144.1770 O   0  0  0  0  0  0  0  0  0  0  0  0
  189.9970  175.5410  143.5350 C   0  0  2  0  0  3  0  0  0  0  0  0
  189.4640  173.7680  141.9060 C   0  0  1  0  0  3  0  0  0  0  0  0
  189.6690  173.2770  143.2900 C   0  0  0  0  0  0  0  0  0  0  0  0
  189.7810  175.2600  142.0380 C   0  0  1  0  0  3  0  0  0  0  0  0
  189.5050  172.0850  143.6490 O   0  0  0  0  0  0  0  0  0  0  0  0
  191.5200  177.3790  143.3370 O   0  0  0  0  0  0  0  0  0  0  0  0
  191.3050  176.2170  143.7840 C   0  0  0  0  0  0  0  0  0  0  0  0
  192.3270  175.5020  144.4810 N   0  0  0  0  0  0  0  0  0  0  0  0
  192.9670  176.0280  145.4860 C   0  0  0  0  0  3  0  0  0  0  0  0
  194.0300  175.2690  146.1980 C   0  0  0  0  0  2  0  0  0  0  0  0
  194.0930  173.9830  145.6620 O   0  0  0  0  0  0  0  0  0  0  0  0
  194.6730  170.2370  143.7250 C   0  0  2  0  0  0  0  0  0  0  0  0
  195.6710  171.5290  141.6350 C   0  0  1  0  0  3  0  0  0  0  0  0
  194.8790  171.3730  144.6940 C   0  0  1  0  0  0  0  0  0  0  0  0
  195.8380  172.3000  144.2350 O   0  0  0  0  0  0  0  0  0  0  0  0
  194.4420  168.8590  144.3270 C   0  0  0  0  0  1  0  0  0  0  0  0
  197.2540  175.1690  143.5720 C   0  0  1  0  0  3  0  0  0  0  0  0
  197.8020  173.9460  140.4900 O   0  0  0  0  0  1  0  0  0  0  0  0
  197.1570  173.4920  141.6400 C   0  0  1  0  0  3  0  0  0  0  0  0
  195.5240  170.2170  142.4120 C   0  0  0  0  0  2  0  0  0  0  0  0
  197.1240  171.9710  141.6750 C   0  0  2  0  0  3  0  0  0  0  0  0
  196.5450  171.3530  140.4110 C   0  0  0  0  0  2  0  0  0  0  0  0
  193.3150  172.5270  143.2180 C   0  0  0  0  0  2  0  0  0  0  0  0
  196.7050  173.9540  146.0800 O   0  0  0  0  0  0  0  0  0  0  0  0
  193.4760  171.2100  144.0070 C   0  0  0  0  0  0  0  0  0  0  0  0
  195.8700  174.9930  143.7820 O   0  0  0  0  0  0  0  0  0  0  0  0
  195.6540  173.8170  145.0000 P   0  0  2  0  0  0  0  0  0  0  0  0
  197.9170  173.9760  142.8640 C   0  0  0  0  0  2  0  0  0  0  0  0
  197.4640  176.3310  142.8340 O   0  0  0  0  0  1  0  0  0  0  0  0
  194.9700  170.9740  146.1680 C   0  0  0  0  0  1  0  0  0  0  0  0
  192.8540  171.2720  142.5980 C   0  0  0  0  0  2  0  0  0  0  0  0
  188.6000  176.0690  141.5340 C   0  0  0  0  0  2  0  0  0  0  0  0
  187.5550  176.1770  142.6290 C   0  0  0  0  0  2  0  0  0  0  0  0
  187.1490  177.5680  142.7660 N   0  0  0  0  0  2  0  0  0  0  0  0
  184.9830  179.2600  145.0250 N   0  0  0  0  0  0  0  0  0  0  0  0
  186.9060  178.1220  145.2140 C   0  0  0  0  0  0  0  0  0  0  0  0
  186.4680  178.1020  143.9030 C   0  0  0  0  0  0  0  0  0  0  0  0
  185.9410  178.8560  145.8830 C   0  0  0  0  0  0  0  0  0  0  0  0
  185.3070  178.7890  143.8300 N   0  0  0  0  0  0  0  0  0  0  0  0
  185.9640  179.4930  148.4540 C   0  0  0  0  0  3  0  0  0  0  0  0
  185.9490  179.1990  147.2820 C   0  0  0  0  0  0  0  0  0  0  0  0
  189.0960  177.0540  146.2420 C   0  0  0  0  0  3  0  0  0  0  0  0
  188.0970  177.5420  145.7760 C   0  0  0  0  0  0  0  0  0  0  0  0
  184.5460  179.0600  142.6820 N   0  0  0  0  0  2  0  0  0  0  0  0
  184.0630  178.0190  141.7870 C   0  0  0  0  0  2  0  0  0  0  0  0
  181.7600  178.6160  141.0340 C   0  0  0  0  0  2  0  0  0  0  0  0
  183.2340  178.6270  140.6710 C   0  0  0  0  0  3  0  0  0  0  0  0
  182.3200  177.5530  140.1030 C   0  0  0  0  0  2  0  0  0  0  0  0
  190.4370  173.1240  140.9220 C   0  0  0  0  0  2  0  0  0  0  0  0
  189.5970  171.8740  139.9330 S   0  0  0  0  0  0  0  0  0  0  0  0
  190.7690  170.8360  139.5170 C   0  0  0  0  0  2  0  0  0  0  0  0
  195.6100  174.7780  138.0360 C   0  0  0  0  0  3  0  0  0  0  0  0
  192.1740  171.3400  137.3920 C   0  0  2  0  0  0  0  0  0  0  0  0
  192.4100  171.4570  135.9030 C   0  0  0  0  0  0  0  0  0  0  0  0
  191.6830  170.8010  135.0040 C   0  0  0  0  0  2  0  0  0  0  0  0
  195.9310  174.7160  136.6820 C   0  0  0  0  0  3  0  0  0  0  0  0
  193.8670  173.1180  137.7110 C   0  0  0  0  0  0  0  0  0  0  0  0
  195.2150  173.8730  135.8350 C   0  0  0  0  0  3  0  0  0  0  0  0
  189.9800  169.8660  137.2480 C   0  0  0  0  0  1  0  0  0  0  0  0
  191.0580  170.5450  138.0750 C   0  0  2  0  0  0  0  0  0  0  0  0
  192.8440  172.3000  138.2020 O   0  0  0  0  0  0  0  0  0  0  0  0
  192.4370  169.9230  137.8840 C   0  0  0  0  0  2  0  0  0  0  0  0
  193.4480  172.2780  135.4610 O   0  0  0  0  0  0  0  0  0  0  0  0
  194.1800  173.0840  136.3380 C   0  0  0  0  0  0  0  0  0  0  0  0
  194.5850  173.9910  138.5680 C   0  0  0  0  0  0  0  0  0  0  0  0
  194.3160  174.1220  139.9370 O   0  0  0  0  0  0  0  0  0  0  0  0
  194.1010  175.3540  140.6120 C   0  0  0  0  0  1  0  0  0  0  0  0
  2  8  1  6  0  0  0
  2  1  1  0  0  0  0
  3 50  1  6  0  0  0
  3  5  1  0  0  0  0
  3  4  1  0  0  0  0
  4  6  2  0  0  0  0
  4  1  1  0  0  0  0
  5 33  1  1  0  0  0
  5  2  1  0  0  0  0
  7  8  2  0  0  0  0
  8  9  1  0  0  0  0
  9 10  2  0  0  0  0
 10 11  1  0  0  0  0
 12 11  1  0  0  0  0
 13 26  1  0  0  0  0
 13 17  1  1  0  0  0
 13 15  1  0  0  0  0
 14 23  1  6  0  0  0
 14 22  1  0  0  0  0
 14 21  1  0  0  0  0
 15 31  1  1  0  0  0
 16 15  1  0  0  0  0
 16 28  1  0  0  0  0
 18 30  1  6  0  0  0
 18 27  1  0  0  0  0
 20 19  1  6  0  0  0
 20 22  1  0  0  0  0
 20 29  1  0  0  0  0
 21 13  1  0  0  0  0
 22 23  1  6  0  0  0
 24 26  1  0  0  0  0
 26 15  1  0  0  0  0
 27 28  1  0  0  0  0
 28 12  1  0  0  0  0
 28 25  2  1  0  0  0
 29 18  1  0  0  0  0
 32 24  1  0  0  0  0
 32 26  1  0  0  0  0
 33 34  1  0  0  0  0
 34 35  1  0  0  0  0
 35 38  1  0  0  0  0
 36 39  2  0  0  0  0
 37 44  1  0  0  0  0
 37 39  1  0  0  0  0
 38 37  2  0  0  0  0
 39 42  1  0  0  0  0
 40 38  1  0  0  0  0
 40 36  1  0  0  0  0
 42 41  3  0  0  0  0
 44 43  3  0  0  0  0
 45 40  1  0  0  0  0
 46 45  1  0  0  0  0
 48 47  1  0  0  0  0
 48 46  1  0  0  0  0
 49 48  1  0  0  0  0
 49 47  1  0  0  0  0
 51 50  1  0  0  0  0
 52 51  1  0  0  0  0
 53 66  1  0  0  0  0
 54 63  1  1  0  0  0
 54 61  1  0  0  0  0
 54 62  1  0  0  0  0
 55 54  1  0  0  0  0
 56 55  2  0  0  0  0
 57 53  2  0  0  0  0
 58 62  1  0  0  0  0
 58 66  2  0  0  0  0
 59 65  2  0  0  0  0
 59 57  1  0  0  0  0
 61 60  1  6  0  0  0
 61 52  1  0  0  0  0
 63 61  1  0  0  0  0
 64 55  1  0  0  0  0
 64 65  1  0  0  0  0
 65 58  1  0  0  0  0
 66 67  1  0  0  0  0
 67 68  1  0  0  0  0
M  END
>  <MODEL>
7

>  <REMARK>
 VINA RESULT:      -6.4      2.387      6.689
  Name = 
  18 active torsions:
  status: ('A' for Active; 'I' for Inactive)
    1  A    between atoms: O_4  and  C_66
    2  A    between atoms: C_6  and  C_22
    3  A    between atoms: C_6  and  S_29
    4  A    between atoms: C_14  and  C_56
    5  A    between atoms: C_15  and  C_25
    6  A    between atoms: C_15  and  N_47
    7  A    between atoms: C_19  and  C_48
    8  A    between atoms: C_20  and  C_26
    9  A    between atoms: C_25  and  C_31
   10  A    between atoms: C_34  and  O_35
   11  A    between atoms: C_34  and  C_57
   12  A    between atoms: O_35  and  P_54
   13  A    between atoms: C_38  and  C_42
   14  A    between atoms: N_44  and  C_56
   15  A    between atoms: N_47  and  C_58
   16  A    between atoms: C_48  and  N_51
   17  A    between atoms: N_51  and  N_68
   18  A    between atoms: C_62  and  C_65
                            x       y       z     vdW  Elec       q    Type
                         _______ _______ _______ _____ _____    ______ ____

>  <TORSDO>
F 18

$$$$
=
 OpenBabel11042418173D

 68 77  0  0  1  0  0  0  0  0999 V2000
  188.8270  172.2460  141.1780 O   0  0  0  0  0  0  0  0  0  0  0  0
  188.8910  172.3540  139.7670 C   0  0  2  0  0  3  0  0  0  0  0  0
  190.8200  171.0660  140.6080 C   0  0  1  0  0  3  0  0  0  0  0  0
  189.8830  171.5130  141.6660 C   0  0  0  0  0  0  0  0  0  0  0  0
  190.2240  171.7070  139.3520 C   0  0  1  0  0  3  0  0  0  0  0  0
  189.9860  171.2040  142.8800 O   0  0  0  0  0  0  0  0  0  0  0  0
  188.8640  174.1210  138.1530 O   0  0  0  0  0  0  0  0  0  0  0  0
  188.8310  173.7910  139.3710 C   0  0  0  0  0  0  0  0  0  0  0  0
  188.7980  174.7870  140.3960 N   0  0  0  0  0  0  0  0  0  0  0  0
  187.6770  175.2020  140.9130 C   0  0  0  0  0  3  0  0  0  0  0  0
  187.6640  176.2400  141.9780 C   0  0  0  0  0  2  0  0  0  0  0  0
  188.3100  175.7310  143.1040 O   0  0  0  0  0  0  0  0  0  0  0  0
  189.2470  177.1520  147.0060 C   0  0  2  0  0  0  0  0  0  0  0  0
  191.6360  176.0210  146.7890 C   0  0  1  0  0  3  0  0  0  0  0  0
  188.9740  177.1700  145.5230 C   0  0  1  0  0  0  0  0  0  0  0  0
  190.1550  177.0590  144.7610 O   0  0  0  0  0  0  0  0  0  0  0  0
  188.3880  178.0640  147.8700 C   0  0  0  0  0  1  0  0  0  0  0  0
  192.2030  176.0830  142.4090 C   0  0  1  0  0  3  0  0  0  0  0  0
  194.4210  175.5130  144.8700 O   0  0  0  0  0  1  0  0  0  0  0  0
  193.0930  175.9320  144.8050 C   0  0  1  0  0  3  0  0  0  0  0  0
  190.7330  177.0430  147.4860 C   0  0  0  0  0  2  0  0  0  0  0  0
  192.7270  176.7580  146.0300 C   0  0  2  0  0  3  0  0  0  0  0  0
  193.0450  176.0580  147.3440 C   0  0  0  0  0  2  0  0  0  0  0  0
  189.1100  174.7460  145.7660 C   0  0  0  0  0  2  0  0  0  0  0  0
  189.8650  177.6840  142.2280 O   0  0  0  0  0  0  0  0  0  0  0  0
  188.4150  175.9790  146.3800 C   0  0  0  0  0  0  0  0  0  0  0  0
  191.0470  175.3760  142.8030 O   0  0  0  0  0  0  0  0  0  0  0  0
  189.8250  176.5070  143.1780 P   0  0  2  0  0  0  0  0  0  0  0  0
  192.9020  176.8030  143.5750 C   0  0  0  0  0  2  0  0  0  0  0  0
  193.0940  175.2050  141.7970 O   0  0  0  0  0  1  0  0  0  0  0  0
  187.9570  178.2110  145.0530 C   0  0  0  0  0  1  0  0  0  0  0  0
  188.9430  174.8050  147.2290 C   0  0  0  0  0  2  0  0  0  0  0  0
  189.9650  170.6300  138.3150 C   0  0  0  0  0  2  0  0  0  0  0  0
  190.4320  169.2890  138.8490 C   0  0  0  0  0  2  0  0  0  0  0  0
  191.1630  168.5880  137.8050 N   0  0  0  0  0  2  0  0  0  0  0  0
  193.9690  169.5450  135.8370 N   0  0  0  0  0  0  0  0  0  0  0  0
  193.6510  168.9650  137.9800 C   0  0  0  0  0  0  0  0  0  0  0  0
  192.4430  168.9860  137.3070 C   0  0  0  0  0  0  0  0  0  0  0  0
  194.5800  169.3250  137.0180 C   0  0  0  0  0  0  0  0  0  0  0  0
  192.6730  169.3460  136.0260 N   0  0  0  0  0  0  0  0  0  0  0  0
  197.2000  169.4980  137.3700 C   0  0  0  0  0  3  0  0  0  0  0  0
  196.0060  169.4190  137.2040 C   0  0  0  0  0  0  0  0  0  0  0  0
  194.1310  168.3500  140.5070 C   0  0  0  0  0  3  0  0  0  0  0  0
  193.9130  168.6270  139.3540 C   0  0  0  0  0  0  0  0  0  0  0  0
  191.7370  169.4440  134.9850 N   0  0  0  0  0  2  0  0  0  0  0  0
  190.8560  170.5900  134.8160 C   0  0  0  0  0  2  0  0  0  0  0  0
  191.7480  172.7270  135.7480 C   0  0  0  0  0  2  0  0  0  0  0  0
  191.6670  171.8380  134.5190 C   0  0  0  0  0  3  0  0  0  0  0  0
  190.7580  173.0500  134.6410 C   0  0  0  0  0  2  0  0  0  0  0  0
  192.2320  171.5990  140.8330 C   0  0  0  0  0  2  0  0  0  0  0  0
  192.7460  172.6260  139.4450 S   0  0  0  0  0  0  0  0  0  0  0  0
  194.2960  172.2270  139.2020 C   0  0  0  0  0  2  0  0  0  0  0  0
  196.2310  172.1950  145.3190 C   0  0  0  0  0  3  0  0  0  0  0  0
  196.0530  173.5280  140.6050 C   0  0  2  0  0  0  0  0  0  0  0  0
  196.8990  174.7280  140.9650 C   0  0  0  0  0  0  0  0  0  0  0  0
  197.2070  175.6820  140.0930 C   0  0  0  0  0  2  0  0  0  0  0  0
  197.1640  173.1990  145.5710 C   0  0  0  0  0  3  0  0  0  0  0  0
  196.0950  172.8890  142.9960 C   0  0  0  0  0  0  0  0  0  0  0  0
  197.5530  174.0610  144.5480 C   0  0  0  0  0  3  0  0  0  0  0  0
  195.4190  174.3160  138.1580 C   0  0  0  0  0  1  0  0  0  0  0  0
  195.3740  173.2680  139.2570 C   0  0  2  0  0  0  0  0  0  0  0  0
  195.5890  172.7460  141.7000 O   0  0  0  0  0  0  0  0  0  0  0  0
  196.7390  172.6600  139.5580 C   0  0  0  0  0  2  0  0  0  0  0  0
  197.3900  174.8220  142.2680 O   0  0  0  0  0  0  0  0  0  0  0  0
  197.0170  173.9190  143.2680 C   0  0  0  0  0  0  0  0  0  0  0  0
  195.6870  172.0250  144.0430 C   0  0  0  0  0  0  0  0  0  0  0  0
  194.7450  171.0000  143.8760 O   0  0  0  0  0  0  0  0  0  0  0  0
  194.9730  169.6270  144.1620 C   0  0  0  0  0  1  0  0  0  0  0  0
  1  4  1  0  0  0  0
  2  8  1  1  0  0  0
  2  1  1  0  0  0  0
  3 50  1  1  0  0  0
  3  4  1  0  0  0  0
  4  6  2  0  0  0  0
  5 33  1  6  0  0  0
  5  2  1  0  0  0  0
  5  3  1  0  0  0  0
  7  8  2  0  0  0  0
  8  9  1  0  0  0  0
  9 10  2  0  0  0  0
 10 11  1  0  0  0  0
 11 12  1  0  0  0  0
 12 28  1  0  0  0  0
 13 21  1  0  0  0  0
 13 17  1  1  0  0  0
 14 23  1  1  0  0  0
 14 21  1  0  0  0  0
 15 31  1  6  0  0  0
 15 26  1  0  0  0  0
 15 13  1  0  0  0  0
 16 15  1  0  0  0  0
 18 30  1  1  0  0  0
 18 27  1  0  0  0  0
 18 29  1  0  0  0  0
 20 19  1  1  0  0  0
 20 22  1  0  0  0  0
 22 14  1  0  0  0  0
 22 23  1  1  0  0  0
 24 26  1  0  0  0  0
 24 32  1  0  0  0  0
 26 13  1  0  0  0  0
 26 32  1  0  0  0  0
 27 28  1  0  0  0  0
 28 25  2  6  0  0  0
 28 16  1  0  0  0  0
 29 20  1  0  0  0  0
 33 34  1  0  0  0  0
 35 34  1  0  0  0  0
 36 40  1  0  0  0  0
 36 39  2  0  0  0  0
 37 44  1  0  0  0  0
 38 35  1  0  0  0  0
 38 37  2  0  0  0  0
 39 42  1  0  0  0  0
 39 37  1  0  0  0  0
 40 38  1  0  0  0  0
 42 41  3  0  0  0  0
 44 43  3  0  0  0  0
 45 40  1  0  0  0  0
 46 45  1  0  0  0  0
 48 49  1  0  0  0  0
 48 46  1  0  0  0  0
 48 47  1  0  0  0  0
 49 47  1  0  0  0  0
 51 50  1  0  0  0  0
 52 61  1  0  0  0  0
 52 51  1  0  0  0  0
 53 57  1  0  0  0  0
 54 63  1  6  0  0  0
 54 55  1  0  0  0  0
 54 62  1  0  0  0  0
 55 64  1  0  0  0  0
 56 55  2  0  0  0  0
 58 65  2  0  0  0  0
 58 66  1  0  0  0  0
 59 57  2  0  0  0  0
 61 60  1  6  0  0  0
 61 63  1  0  0  0  0
 61 54  1  0  0  0  0
 62 58  1  0  0  0  0
 64 65  1  0  0  0  0
 65 59  1  0  0  0  0
 66 53  2  0  0  0  0
 67 66  1  0  0  0  0
 67 68  1  0  0  0  0
M  END
>  <MODEL>
8

>  <REMARK>
 VINA RESULT:      -6.3      3.199      9.411
  Name = 
  18 active torsions:
  status: ('A' for Active; 'I' for Inactive)
    1  A    between atoms: O_4  and  C_66
    2  A    between atoms: C_6  and  C_22
    3  A    between atoms: C_6  and  S_29
    4  A    between atoms: C_14  and  C_56
    5  A    between atoms: C_15  and  C_25
    6  A    between atoms: C_15  and  N_47
    7  A    between atoms: C_19  and  C_48
    8  A    between atoms: C_20  and  C_26
    9  A    between atoms: C_25  and  C_31
   10  A    between atoms: C_34  and  O_35
   11  A    between atoms: C_34  and  C_57
   12  A    between atoms: O_35  and  P_54
   13  A    between atoms: C_38  and  C_42
   14  A    between atoms: N_44  and  C_56
   15  A    between atoms: N_47  and  C_58
   16  A    between atoms: C_48  and  N_51
   17  A    between atoms: N_51  and  N_68
   18  A    between atoms: C_62  and  C_65
                            x       y       z     vdW  Elec       q    Type
                         _______ _______ _______ _____ _____    ______ ____

>  <TORSDO>
F 18

$$$$
=
 OpenBabel11042418173D

 68 77  0  0  1  0  0  0  0  0999 V2000
  190.1140  172.0420  141.9710 O   0  0  0  0  0  0  0  0  0  0  0  0
  190.0410  172.2380  140.5700 C   0  0  2  0  0  3  0  0  0  0  0  0
  191.9990  173.4230  141.4910 C   0  0  1  0  0  3  0  0  0  0  0  0
  191.2120  172.6770  142.5020 C   0  0  0  0  0  0  0  0  0  0  0  0
  191.1710  173.2210  140.2190 C   0  0  1  0  0  3  0  0  0  0  0  0
  191.5370  172.5670  143.7110 O   0  0  0  0  0  0  0  0  0  0  0  0
  188.0410  172.2930  139.2560 O   0  0  0  0  0  0  0  0  0  0  0  0
  188.7010  172.7890  140.2110 C   0  0  0  0  0  0  0  0  0  0  0  0
  188.2110  173.9260  140.9250 N   0  0  0  0  0  0  0  0  0  0  0  0
  188.1910  175.1140  140.3910 C   0  0  0  0  0  3  0  0  0  0  0  0
  187.6780  176.2860  141.1510 C   0  0  0  0  0  2  0  0  0  0  0  0
  187.5310  175.9190  142.4880 O   0  0  0  0  0  0  0  0  0  0  0  0
  185.8080  178.8130  145.0920 C   0  0  2  0  0  0  0  0  0  0  0  0
  187.3680  177.9150  147.0400 C   0  0  1  0  0  3  0  0  0  0  0  0
  186.6410  178.2330  143.9770 C   0  0  1  0  0  0  0  0  0  0  0  0
  187.9600  177.9490  144.3870 O   0  0  0  0  0  0  0  0  0  0  0  0
  184.8160  179.9010  144.7100 C   0  0  0  0  0  1  0  0  0  0  0  0
  190.7840  176.3400  144.7230 C   0  0  1  0  0  3  0  0  0  0  0  0
  190.5080  176.9710  148.0140 O   0  0  0  0  0  1  0  0  0  0  0  0
  189.7220  177.2070  146.8860 C   0  0  1  0  0  3  0  0  0  0  0  0
  186.4840  179.0360  146.4860 C   0  0  0  0  0  2  0  0  0  0  0  0
  188.8060  178.4020  147.1070 C   0  0  2  0  0  3  0  0  0  0  0  0
  187.9720  178.2940  148.3750 C   0  0  0  0  0  2  0  0  0  0  0  0
  186.0430  176.1130  145.0270 C   0  0  0  0  0  2  0  0  0  0  0  0
  189.6340  177.5210  142.4110 O   0  0  0  0  0  0  0  0  0  0  0  0
  185.4060  177.4160  144.5000 C   0  0  0  0  0  0  0  0  0  0  0  0
  189.5590  175.7340  144.3750 O   0  0  0  0  0  0  0  0  0  0  0  0
  188.6980  176.8020  143.3580 P   0  0  2  0  0  0  0  0  0  0  0  0
  190.6240  177.5150  145.7030 C   0  0  0  0  0  2  0  0  0  0  0  0
  191.6320  175.3820  145.2730 O   0  0  0  0  0  1  0  0  0  0  0  0
  186.4840  178.9130  142.6160 C   0  0  0  0  0  1  0  0  0  0  0  0
  184.9340  176.7140  145.7890 C   0  0  0  0  0  2  0  0  0  0  0  0
  192.0510  172.6180  139.1390 C   0  0  0  0  0  2  0  0  0  0  0  0
  193.2430  171.9330  139.7800 C   0  0  0  0  0  2  0  0  0  0  0  0
  194.1710  171.5180  138.7390 N   0  0  0  0  0  2  0  0  0  0  0  0
  194.4050  172.6280  135.3670 N   0  0  0  0  0  0  0  0  0  0  0  0
  195.1820  173.3570  137.3400 C   0  0  0  0  0  0  0  0  0  0  0  0
  194.3950  172.2350  137.5230 C   0  0  0  0  0  0  0  0  0  0  0  0
  195.1560  173.5690  135.9720 C   0  0  0  0  0  0  0  0  0  0  0  0
  193.9400  171.8310  136.3170 N   0  0  0  0  0  0  0  0  0  0  0  0
  196.4500  175.4710  134.6570 C   0  0  0  0  0  3  0  0  0  0  0  0
  195.8550  174.6070  135.2580 C   0  0  0  0  0  0  0  0  0  0  0  0
  196.4860  174.7750  139.1520 C   0  0  0  0  0  3  0  0  0  0  0  0
  195.8920  174.1310  138.3240 C   0  0  0  0  0  0  0  0  0  0  0  0
  193.1520  170.7040  136.0350 N   0  0  0  0  0  2  0  0  0  0  0  0
  191.9520  170.7610  135.2130 C   0  0  0  0  0  2  0  0  0  0  0  0
  189.6660  171.1610  136.1300 C   0  0  0  0  0  2  0  0  0  0  0  0
  190.9900  171.8020  135.7560 C   0  0  0  0  0  3  0  0  0  0  0  0
  189.8030  171.9060  134.8130 C   0  0  0  0  0  2  0  0  0  0  0  0
  192.0830  174.9110  141.8150 C   0  0  0  0  0  2  0  0  0  0  0  0
  193.7990  175.4620  141.8070 S   0  0  0  0  0  0  0  0  0  0  0  0
  194.6530  174.1210  142.1170 C   0  0  0  0  0  2  0  0  0  0  0  0
  193.5680  168.3450  144.6910 C   0  0  0  0  0  3  0  0  0  0  0  0
  195.5640  172.7900  144.1520 C   0  0  2  0  0  0  0  0  0  0  0  0
  196.1470  172.6410  145.5390 C   0  0  0  0  0  0  0  0  0  0  0  0
  196.8160  173.6130  146.1490 C   0  0  0  0  0  2  0  0  0  0  0  0
  194.2770  168.1670  145.8780 C   0  0  0  0  0  3  0  0  0  0  0  0
  194.5090  170.5710  144.4500 C   0  0  0  0  0  0  0  0  0  0  0  0
  195.0880  169.1900  146.3640 C   0  0  0  0  0  3  0  0  0  0  0  0
  196.1200  175.3610  143.8550 C   0  0  0  0  0  1  0  0  0  0  0  0
  195.5800  174.0570  143.2920 C   0  0  2  0  0  0  0  0  0  0  0  0
  194.6540  171.7740  143.7500 O   0  0  0  0  0  0  0  0  0  0  0  0
  196.6580  172.9950  143.1120 C   0  0  0  0  0  2  0  0  0  0  0  0
  195.9850  171.4200  146.1950 O   0  0  0  0  0  0  0  0  0  0  0  0
  195.1990  170.3920  145.6650 C   0  0  0  0  0  0  0  0  0  0  0  0
  193.6700  169.5360  143.9660 C   0  0  0  0  0  0  0  0  0  0  0  0
  192.9140  169.6400  142.7910 O   0  0  0  0  0  0  0  0  0  0  0  0
  191.9220  168.7120  142.3730 C   0  0  0  0  0  1  0  0  0  0  0  0
  1  4  1  0  0  0  0
  2  8  1  1  0  0  0
  2  1  1  0  0  0  0
  3 50  1  1  0  0  0
  3  4  1  0  0  0  0
  4  6  2  0  0  0  0
  5 33  1  6  0  0  0
  5  2  1  0  0  0  0
  5  3  1  0  0  0  0
  7  8  2  0  0  0  0
  8  9  1  0  0  0  0
 10  9  2  0  0  0  0
 10 11  1  0  0  0  0
 11 12  1  0  0  0  0
 12 28  1  0  0  0  0
 13 17  1  6  0  0  0
 13 21  1  0  0  0  0
 14 21  1  6  0  0  0
 14 22  1  0  0  0  0
 14 23  1  0  0  0  0
 15 31  1  6  0  0  0
 15 16  1  0  0  0  0
 15 26  1  0  0  0  0
 15 13  1  0  0  0  0
 18 30  1  1  0  0  0
 18 29  1  0  0  0  0
 20 22  1  0  0  0  0
 20 19  1  1  0  0  0
 22 23  1  1  0  0  0
 24 32  1  0  0  0  0
 26 24  1  0  0  0  0
 26 13  1  0  0  0  0
 26 32  1  0  0  0  0
 27 18  1  0  0  0  0
 28 25  2  6  0  0  0
 28 27  1  0  0  0  0
 28 16  1  0  0  0  0
 29 20  1  0  0  0  0
 33 34  1  0  0  0  0
 35 34  1  0  0  0  0
 36 39  2  0  0  0  0
 36 40  1  0  0  0  0
 37 38  2  0  0  0  0
 37 44  1  0  0  0  0
 38 35  1  0  0  0  0
 39 37  1  0  0  0  0
 40 38  1  0  0  0  0
 41 42  3  0  0  0  0
 42 39  1  0  0  0  0
 44 43  3  0  0  0  0
 45 40  1  0  0  0  0
 46 48  1  0  0  0  0
 46 45  1  0  0  0  0
 48 47  1  0  0  0  0
 49 48  1  0  0  0  0
 49 47  1  0  0  0  0
 51 50  1  0  0  0  0
 51 52  1  0  0  0  0
 52 61  1  0  0  0  0
 53 57  1  0  0  0  0
 54 63  1  6  0  0  0
 54 55  1  0  0  0  0
 55 56  2  0  0  0  0
 55 64  1  0  0  0  0
 57 59  2  0  0  0  0
 58 65  2  0  0  0  0
 61 60  1  1  0  0  0
 61 54  1  0  0  0  0
 62 54  1  0  0  0  0
 62 58  1  0  0  0  0
 63 61  1  0  0  0  0
 65 64  1  0  0  0  0
 65 59  1  0  0  0  0
 66 58  1  0  0  0  0
 66 53  2  0  0  0  0
 67 66  1  0  0  0  0
 68 67  1  0  0  0  0
M  END
>  <MODEL>
9

>  <REMARK>
 VINA RESULT:      -6.2      3.134      9.746
  Name = 
  18 active torsions:
  status: ('A' for Active; 'I' for Inactive)
    1  A    between atoms: O_4  and  C_66
    2  A    between atoms: C_6  and  C_22
    3  A    between atoms: C_6  and  S_29
    4  A    between atoms: C_14  and  C_56
    5  A    between atoms: C_15  and  C_25
    6  A    between atoms: C_15  and  N_47
    7  A    between atoms: C_19  and  C_48
    8  A    between atoms: C_20  and  C_26
    9  A    between atoms: C_25  and  C_31
   10  A    between atoms: C_34  and  O_35
   11  A    between atoms: C_34  and  C_57
   12  A    between atoms: O_35  and  P_54
   13  A    between atoms: C_38  and  C_42
   14  A    between atoms: N_44  and  C_56
   15  A    between atoms: N_47  and  C_58
   16  A    between atoms: C_48  and  N_51
   17  A    between atoms: N_51  and  N_68
   18  A    between atoms: C_62  and  C_65
                            x       y       z     vdW  Elec       q    Type
                         _______ _______ _______ _____ _____    ______ ____

>  <TORSDO>
F 18

$$$$
