=
 OpenBabel11042419533D

 56 58  0  0  1  0  0  0  0  0999 V2000
  188.7190  174.9380  141.6150 C   0  0  0  0  0  2  0  0  0  0  0  0
  189.2120  172.6930  143.2450 C   0  0  0  0  0  2  0  0  0  0  0  0
  188.3250  173.5890  141.0020 C   0  0  2  0  0  3  0  0  0  0  0  0
  187.0930  172.0630  142.3710 F   0  0  0  0  0  0  0  0  0  0  0  0
  190.0400  174.9180  142.4190 C   0  0  2  0  0  3  0  0  0  0  0  0
  188.3740  172.4120  141.9940 C   0  0  2  0  0  3  0  0  0  0  0  0
  190.4460  173.5110  142.8710 C   0  0  0  0  0  2  0  0  0  0  0  0
  189.1010  173.2570  139.7650 C   0  0  0  0  0  0  0  0  0  0  0  0
  189.1330  174.0530  138.7930 O   0  0  0  0  0  0  0  0  0  0  0  0
  189.9240  172.0920  139.7630 N   0  0  0  0  0  2  0  0  0  0  0  0
  190.8850  171.8690  138.7650 N   0  0  0  0  0  2  0  0  0  0  0  0
  192.1900  171.4160  139.1160 C   0  0  0  0  0  0  0  0  0  0  0  0
  192.5160  171.3240  140.3300 O   0  0  0  0  0  0  0  0  0  0  0  0
  193.1750  171.1110  138.0270 C   0  0  1  0  0  3  0  0  0  0  0  0
  192.6360  170.1280  137.1030 N   0  0  0  0  0  1  0  0  0  0  0  0
  193.6850  172.3480  137.2810 C   0  0  0  0  0  2  0  0  0  0  0  0
  194.5570  173.2390  138.1650 C   0  0  0  0  0  2  0  0  0  0  0  0
  195.1040  174.4780  137.4470 C   0  0  1  0  0  0  0  0  0  0  0  0
  195.9080  174.0570  136.2930 N   0  0  0  0  0  2  0  0  0  0  0  0
  197.1950  173.4260  136.3110 C   0  0  0  0  0  0  0  0  0  0  0  0
  197.9410  173.5240  135.3090 O   0  0  0  0  0  0  0  0  0  0  0  0
  197.6560  172.7540  137.4360 O   0  0  0  0  0  1  0  0  0  0  0  0
  193.7390  175.5770  136.9650 S   0  0  0  0  0  3  0  0  0  0  0  0
  193.7100  175.5650  135.4410 O   0  0  0  0  0  0  0  0  0  0  0  0
  195.9750  175.2050  138.4910 C   0  0  0  0  0  2  0  0  0  0  0  0
  195.8330  174.8010  139.9650 C   0  0  1  0  0  3  0  0  0  0  0  0
  197.0550  174.3670  140.4790 O   0  0  0  0  0  1  0  0  0  0  0  0
  195.3090  175.8990  140.7630 N   0  0  0  0  0  2  0  0  0  0  0  0
  193.8910  174.3590  141.9980 C   0  0  0  0  0  1  0  0  0  0  0  0
  195.0070  175.3760  142.0860 C   0  0  0  0  0  2  0  0  0  0  0  0
  189.9340  175.7710  143.6000 N   0  0  0  0  0  2  0  0  0  0  0  0
  191.2330  176.0870  144.0410 N   0  0  0  0  0  2  0  0  0  0  0  0
  191.3740  175.5950  145.4120 C   0  0  1  0  0  3  0  0  0  0  0  0
  194.2890  173.1640  145.5250 C   0  0  0  0  0  3  0  0  0  0  0  0
  195.3800  174.0290  145.7030 C   0  0  0  0  0  0  0  0  0  0  0  0
  195.1320  175.3970  145.9140 C   0  0  0  0  0  3  0  0  0  0  0  0
  193.8240  175.8970  145.8630 C   0  0  0  0  0  3  0  0  0  0  0  0
  192.7480  175.0350  145.6280 C   0  0  0  0  0  0  0  0  0  0  0  0
  192.9840  173.6610  145.4720 C   0  0  0  0  0  3  0  0  0  0  0  0
  197.3770  173.6200  144.2490 C   0  0  0  0  0  2  0  0  0  0  0  0
  196.7890  173.4820  145.6500 C   0  0  2  0  0  3  0  0  0  0  0  0
  197.5890  171.3910  144.9810 C   0  0  0  0  0  2  0  0  0  0  0  0
  196.7850  172.0610  145.9950 N   0  0  0  0  0  2  0  0  0  0  0  0
  197.4980  172.2150  143.7300 C   0  0  0  0  0  2  0  0  0  0  0  0
  191.1410  176.6790  146.3630 N   0  0  0  0  0  2  0  0  0  0  0  0
  190.0360  177.4840  145.8740 C   0  0  0  0  0  2  0  0  0  0  0  0
  188.7930  177.0140  146.4730 N   0  0  0  0  0  2  0  0  0  0  0  0
  187.7680  177.8530  146.0060 N   0  0  0  0  0  2  0  0  0  0  0  0
  186.7750  177.0010  145.3580 C   0  0  2  0  0  3  0  0  0  0  0  0
  186.3090  177.5920  144.0250 C   0  0  2  0  0  3  0  0  0  0  0  0
  187.4910  178.0570  143.1900 C   0  0  0  0  0  1  0  0  0  0  0  0
  183.9680  178.5430  143.6820 N   0  0  0  0  0  1  0  0  0  0  0  0
  185.2940  178.6880  144.1820 C   0  0  0  0  0  0  0  0  0  0  0  0
  185.6290  179.7740  144.7310 O   0  0  0  0  0  0  0  0  0  0  0  0
  185.6080  176.7170  146.2910 C   0  0  0  0  0  2  0  0  0  0  0  0
  185.7610  177.4620  147.4580 O   0  0  0  0  0  1  0  0  0  0  0  0
  1  5  1  0  0  0  0
  3  8  1  6  0  0  0
  3  1  1  0  0  0  0
  3  6  1  0  0  0  0
  5  7  1  0  0  0  0
  5 31  1  1  0  0  0
  6  4  1  1  0  0  0
  6  2  1  0  0  0  0
  7  2  1  0  0  0  0
  9  8  2  0  0  0  0
 10  8  1  0  0  0  0
 11 12  1  0  0  0  0
 11 10  1  0  0  0  0
 12 13  2  0  0  0  0
 14 15  1  6  0  0  0
 14 12  1  0  0  0  0
 16 14  1  0  0  0  0
 16 17  1  0  0  0  0
 18 17  1  1  0  0  0
 18 25  1  0  0  0  0
 19 20  1  0  0  0  0
 19 18  1  0  0  0  0
 20 22  1  0  0  0  0
 21 20  2  0  0  0  0
 23 18  1  0  0  0  0
 24 23  2  0  0  0  0
 25 26  1  0  0  0  0
 26 27  1  1  0  0  0
 26 28  1  0  0  0  0
 28 30  1  0  0  0  0
 29 30  1  0  0  0  0
 31 32  1  0  0  0  0
 33 32  1  6  0  0  0
 33 38  1  0  0  0  0
 33 45  1  0  0  0  0
 34 35  1  0  0  0  0
 35 36  2  0  0  0  0
 37 36  1  0  0  0  0
 38 37  2  0  0  0  0
 39 34  2  0  0  0  0
 39 38  1  0  0  0  0
 40 41  1  0  0  0  0
 41 35  1  6  0  0  0
 41 43  1  0  0  0  0
 42 43  1  0  0  0  0
 44 40  1  0  0  0  0
 44 42  1  0  0  0  0
 46 45  1  0  0  0  0
 46 47  1  0  0  0  0
 48 47  1  0  0  0  0
 49 48  1  0  0  0  0
 49 55  1  1  0  0  0
 50 51  1  1  0  0  0
 50 53  1  0  0  0  0
 50 49  1  0  0  0  0
 52 53  1  0  0  0  0
 53 54  2  0  0  0  0
 55 56  1  0  0  0  0
M  END
>  <MODEL>
1

>  <REMARK>
 VINA RESULT:      -5.4      0.000      0.000
  Name = 
  25 active torsions:
  status: ('A' for Active; 'I' for Inactive)
    1  A    between atoms: C_1  and  C_17
    2  A    between atoms: C_3  and  C_38
    3  A    between atoms: C_3  and  C_52
    4  A    between atoms: N_4  and  C_16
    5  A    between atoms: N_4  and  N_26
    6  A    between atoms: C_5  and  C_17
    7  A    between atoms: C_5  and  C_36
    8  A    between atoms: C_8  and  C_20
    9  A    between atoms: N_12  and  C_52
   10  A    between atoms: C_14  and  N_24
   11  A    between atoms: C_15  and  C_38
   12  A    between atoms: C_15  and  C_44
   13  A    between atoms: C_16  and  N_48
   14  A    between atoms: C_17  and  N_26
   15  A    between atoms: C_18  and  C_22
   16  A    between atoms: N_24  and  C_43
   17  A    between atoms: N_27  and  N_28
   18  A    between atoms: C_29  and  N_39
   19  A    between atoms: N_30  and  C_34
   20  A    between atoms: N_30  and  N_39
   21  A    between atoms: S_31  and  C_52
   22  A    between atoms: C_34  and  C_45
   23  A    between atoms: C_34  and  N_48
   24  A    between atoms: C_37  and  C_43
   25  A    between atoms: C_37  and  C_52
                            x       y       z     vdW  Elec       q    Type
                         _______ _______ _______ _____ _____    ______ ____

>  <TORSDO>
F 25

$$$$
=
 OpenBabel11042419533D

 56 58  0  0  1  0  0  0  0  0999 V2000
  188.7840  174.9020  141.6430 C   0  0  0  0  0  2  0  0  0  0  0  0
  190.0990  172.8250  143.0220 C   0  0  0  0  0  2  0  0  0  0  0  0
  188.3290  173.4850  141.2750 C   0  0  2  0  0  3  0  0  0  0  0  0
  187.8860  171.9580  143.0620 F   0  0  0  0  0  0  0  0  0  0  0  0
  190.3070  175.0500  141.8700 C   0  0  2  0  0  3  0  0  0  0  0  0
  188.8790  172.3880  142.2050 C   0  0  2  0  0  3  0  0  0  0  0  0
  191.0000  173.7170  142.1710 C   0  0  0  0  0  2  0  0  0  0  0  0
  188.6000  173.1350  139.8440 C   0  0  0  0  0  0  0  0  0  0  0  0
  188.1820  173.8680  138.9130 O   0  0  0  0  0  0  0  0  0  0  0  0
  189.4660  172.0390  139.5570 N   0  0  0  0  0  2  0  0  0  0  0  0
  189.9880  171.8270  138.2730 N   0  0  0  0  0  2  0  0  0  0  0  0
  190.1290  170.5020  137.7660 C   0  0  0  0  0  0  0  0  0  0  0  0
  189.8890  169.5160  138.5150 O   0  0  0  0  0  0  0  0  0  0  0  0
  190.6170  170.3040  136.3620 C   0  0  1  0  0  3  0  0  0  0  0  0
  189.8290  171.0860  135.4260 N   0  0  0  0  0  1  0  0  0  0  0  0
  192.1150  170.5690  136.1790 C   0  0  0  0  0  2  0  0  0  0  0  0
  192.3970  171.9970  135.7120 C   0  0  0  0  0  2  0  0  0  0  0  0
  193.2890  172.7960  136.6690 C   0  0  1  0  0  0  0  0  0  0  0  0
  194.4760  173.2720  135.9480 N   0  0  0  0  0  2  0  0  0  0  0  0
  195.6890  172.5520  135.6940 C   0  0  0  0  0  0  0  0  0  0  0  0
  196.7460  173.1880  135.4750 O   0  0  0  0  0  0  0  0  0  0  0  0
  195.7300  171.1640  135.7390 O   0  0  0  0  0  1  0  0  0  0  0  0
  192.3480  174.1610  137.4120 S   0  0  0  0  0  3  0  0  0  0  0  0
  192.5450  175.3570  136.4890 O   0  0  0  0  0  0  0  0  0  0  0  0
  193.6820  171.8060  137.7850 C   0  0  0  0  0  2  0  0  0  0  0  0
  193.6680  172.3020  139.2370 C   0  0  1  0  0  3  0  0  0  0  0  0
  192.9050  171.4560  140.0420 O   0  0  0  0  0  1  0  0  0  0  0  0
  195.0190  172.4220  139.7640 N   0  0  0  0  0  2  0  0  0  0  0  0
  196.8030  173.9010  139.0280 C   0  0  0  0  0  1  0  0  0  0  0  0
  195.4190  173.8150  139.6340 C   0  0  0  0  0  2  0  0  0  0  0  0
  190.5740  175.9700  142.9720 N   0  0  0  0  0  2  0  0  0  0  0  0
  191.6350  175.4520  143.7400 N   0  0  0  0  0  2  0  0  0  0  0  0
  191.5970  176.1000  145.0510 C   0  0  1  0  0  3  0  0  0  0  0  0
  188.3710  175.4600  146.9470 C   0  0  0  0  0  3  0  0  0  0  0  0
  187.6500  176.6380  146.6990 C   0  0  0  0  0  0  0  0  0  0  0  0
  188.1830  177.5800  145.8010 C   0  0  0  0  0  3  0  0  0  0  0  0
  189.4470  177.3820  145.2320 C   0  0  0  0  0  3  0  0  0  0  0  0
  190.1830  176.2300  145.5300 C   0  0  0  0  0  0  0  0  0  0  0  0
  189.6330  175.2610  146.3820 C   0  0  0  0  0  3  0  0  0  0  0  0
  185.1600  176.6950  146.4520 C   0  0  0  0  0  2  0  0  0  0  0  0
  186.3350  176.8780  147.4060 C   0  0  2  0  0  3  0  0  0  0  0  0
  184.9920  178.7870  147.5230 C   0  0  0  0  0  2  0  0  0  0  0  0
  186.2870  178.2480  147.9170 N   0  0  0  0  0  2  0  0  0  0  0  0
  184.5770  178.0690  146.2730 C   0  0  0  0  0  2  0  0  0  0  0  0
  192.3640  175.3200  146.0200 N   0  0  0  0  0  2  0  0  0  0  0  0
  193.5960  176.0330  146.3060 C   0  0  0  0  0  2  0  0  0  0  0  0
  194.7150  175.1020  146.2670 N   0  0  0  0  0  2  0  0  0  0  0  0
  194.8190  174.6370  144.9470 N   0  0  0  0  0  2  0  0  0  0  0  0
  195.6980  173.4710  144.9680 C   0  0  2  0  0  3  0  0  0  0  0  0
  194.9650  172.2210  145.4620 C   0  0  2  0  0  3  0  0  0  0  0  0
  195.9460  171.1070  145.7900 C   0  0  0  0  0  1  0  0  0  0  0  0
  194.2320  171.0200  143.3340 N   0  0  0  0  0  1  0  0  0  0  0  0
  193.9000  171.7420  144.5170 C   0  0  0  0  0  0  0  0  0  0  0  0
  192.6900  172.0160  144.7520 O   0  0  0  0  0  0  0  0  0  0  0  0
  196.9540  173.7500  145.7790 C   0  0  0  0  0  2  0  0  0  0  0  0
  197.9260  174.2990  144.9460 O   0  0  0  0  0  1  0  0  0  0  0  0
  1  5  1  0  0  0  0
  3  8  1  6  0  0  0
  3  1  1  0  0  0  0
  3  6  1  0  0  0  0
  5  7  1  0  0  0  0
  5 31  1  1  0  0  0
  6  2  1  0  0  0  0
  6  4  1  1  0  0  0
  7  2  1  0  0  0  0
  9  8  2  0  0  0  0
 10  8  1  0  0  0  0
 11 10  1  0  0  0  0
 12 11  1  0  0  0  0
 12 13  2  0  0  0  0
 14 15  1  6  0  0  0
 14 12  1  0  0  0  0
 16 14  1  0  0  0  0
 17 16  1  0  0  0  0
 18 17  1  6  0  0  0
 18 23  1  0  0  0  0
 18 25  1  0  0  0  0
 19 18  1  0  0  0  0
 20 22  1  0  0  0  0
 20 19  1  0  0  0  0
 21 20  2  0  0  0  0
 24 23  2  0  0  0  0
 25 26  1  0  0  0  0
 26 28  1  0  0  0  0
 26 27  1  1  0  0  0
 29 30  1  0  0  0  0
 30 28  1  0  0  0  0
 31 32  1  0  0  0  0
 33 32  1  6  0  0  0
 33 38  1  0  0  0  0
 33 45  1  0  0  0  0
 35 34  1  0  0  0  0
 36 35  2  0  0  0  0
 37 38  2  0  0  0  0
 37 36  1  0  0  0  0
 38 39  1  0  0  0  0
 39 34  2  0  0  0  0
 40 41  1  0  0  0  0
 41 35  1  6  0  0  0
 41 43  1  0  0  0  0
 42 43  1  0  0  0  0
 44 40  1  0  0  0  0
 44 42  1  0  0  0  0
 45 46  1  0  0  0  0
 47 46  1  0  0  0  0
 48 49  1  0  0  0  0
 48 47  1  0  0  0  0
 49 50  1  0  0  0  0
 49 55  1  1  0  0  0
 50 51  1  6  0  0  0
 52 53  1  0  0  0  0
 53 54  2  0  0  0  0
 53 50  1  0  0  0  0
 56 55  1  0  0  0  0
M  END
>  <MODEL>
2

>  <REMARK>
 VINA RESULT:      -5.4      2.566      6.557
  Name = 
  25 active torsions:
  status: ('A' for Active; 'I' for Inactive)
    1  A    between atoms: C_1  and  C_17
    2  A    between atoms: C_3  and  C_38
    3  A    between atoms: C_3  and  C_52
    4  A    between atoms: N_4  and  C_16
    5  A    between atoms: N_4  and  N_26
    6  A    between atoms: C_5  and  C_17
    7  A    between atoms: C_5  and  C_36
    8  A    between atoms: C_8  and  C_20
    9  A    between atoms: N_12  and  C_52
   10  A    between atoms: C_14  and  N_24
   11  A    between atoms: C_15  and  C_38
   12  A    between atoms: C_15  and  C_44
   13  A    between atoms: C_16  and  N_48
   14  A    between atoms: C_17  and  N_26
   15  A    between atoms: C_18  and  C_22
   16  A    between atoms: N_24  and  C_43
   17  A    between atoms: N_27  and  N_28
   18  A    between atoms: C_29  and  N_39
   19  A    between atoms: N_30  and  C_34
   20  A    between atoms: N_30  and  N_39
   21  A    between atoms: S_31  and  C_52
   22  A    between atoms: C_34  and  C_45
   23  A    between atoms: C_34  and  N_48
   24  A    between atoms: C_37  and  C_43
   25  A    between atoms: C_37  and  C_52
                            x       y       z     vdW  Elec       q    Type
                         _______ _______ _______ _____ _____    ______ ____

>  <TORSDO>
F 25

$$$$
=
 OpenBabel11042419533D

 56 58  0  0  1  0  0  0  0  0999 V2000
  188.7170  175.0390  141.0730 C   0  0  0  0  0  2  0  0  0  0  0  0
  187.5990  172.4680  141.3620 C   0  0  0  0  0  2  0  0  0  0  0  0
  189.4820  173.9130  140.3680 C   0  0  2  0  0  3  0  0  0  0  0  0
  188.2170  172.3520  139.0690 F   0  0  0  0  0  0  0  0  0  0  0  0
  188.1510  174.6600  142.4610 C   0  0  2  0  0  3  0  0  0  0  0  0
  188.7290  172.5700  140.3330 C   0  0  2  0  0  3  0  0  0  0  0  0
  188.0200  173.1470  142.6630 C   0  0  0  0  0  2  0  0  0  0  0  0
  190.8660  173.7170  140.9050 C   0  0  0  0  0  0  0  0  0  0  0  0
  191.5350  174.6930  141.3280 O   0  0  0  0  0  0  0  0  0  0  0  0
  191.3580  172.3880  141.0670 N   0  0  0  0  0  2  0  0  0  0  0  0
  192.5120  172.1140  141.8160 N   0  0  0  0  0  2  0  0  0  0  0  0
  192.4110  171.8090  143.2040 C   0  0  0  0  0  0  0  0  0  0  0  0
  191.2950  171.8950  143.7840 O   0  0  0  0  0  0  0  0  0  0  0  0
  193.6510  171.4440  143.9650 C   0  0  1  0  0  3  0  0  0  0  0  0
  193.8960  170.0140  143.8990 N   0  0  0  0  0  1  0  0  0  0  0  0
  194.8940  172.2380  143.5500 C   0  0  0  0  0  2  0  0  0  0  0  0
  194.8470  173.6850  144.0390 C   0  0  0  0  0  2  0  0  0  0  0  0
  196.1010  174.4960  143.6920 C   0  0  1  0  0  0  0  0  0  0  0  0
  195.9300  175.8800  144.1510 N   0  0  0  0  0  2  0  0  0  0  0  0
  195.2810  176.3260  145.3490 C   0  0  0  0  0  0  0  0  0  0  0  0
  194.8240  177.4910  145.4010 O   0  0  0  0  0  0  0  0  0  0  0  0
  195.1000  175.4770  146.4340 O   0  0  0  0  0  1  0  0  0  0  0  0
  197.5740  173.7140  144.4140 S   0  0  0  0  0  3  0  0  0  0  0  0
  197.2220  173.4180  145.8670 O   0  0  0  0  0  0  0  0  0  0  0  0
  196.2160  174.4340  142.1550 C   0  0  0  0  0  2  0  0  0  0  0  0
  195.7280  175.6390  141.3400 C   0  0  1  0  0  3  0  0  0  0  0  0
  196.7960  176.2690  140.7010 O   0  0  0  0  0  1  0  0  0  0  0  0
  194.7190  175.2430  140.3700 N   0  0  0  0  0  2  0  0  0  0  0  0
  194.6950  173.5710  138.6040 C   0  0  0  0  0  1  0  0  0  0  0  0
  194.9200  173.8320  140.0770 C   0  0  0  0  0  2  0  0  0  0  0  0
  186.8390  175.2690  142.6640 N   0  0  0  0  0  2  0  0  0  0  0  0
  186.8210  176.5190  142.0160 N   0  0  0  0  0  2  0  0  0  0  0  0
  186.2220  177.4910  142.9310 C   0  0  1  0  0  3  0  0  0  0  0  0
  183.4530  178.3200  140.4690 C   0  0  0  0  0  3  0  0  0  0  0  0
  182.4180  178.7280  141.3240 C   0  0  0  0  0  0  0  0  0  0  0  0
  182.6850  178.8500  142.6990 C   0  0  0  0  0  3  0  0  0  0  0  0
  183.9370  178.4890  143.2140 C   0  0  0  0  0  3  0  0  0  0  0  0
  184.9440  178.0290  142.3590 C   0  0  0  0  0  0  0  0  0  0  0  0
  184.7020  177.9580  140.9800 C   0  0  0  0  0  3  0  0  0  0  0  0
  180.0440  179.3030  141.8730 C   0  0  0  0  0  2  0  0  0  0  0  0
  181.0440  179.0110  140.7590 C   0  0  2  0  0  3  0  0  0  0  0  0
  179.1950  177.6120  140.4700 C   0  0  0  0  0  2  0  0  0  0  0  0
  180.5600  177.8470  140.0180 N   0  0  0  0  0  2  0  0  0  0  0  0
  179.0980  178.1350  141.8720 C   0  0  0  0  0  2  0  0  0  0  0  0
  185.9460  176.8630  144.2210 N   0  0  0  0  0  2  0  0  0  0  0  0
  186.4060  177.7560  145.2690 C   0  0  0  0  0  2  0  0  0  0  0  0
  186.7570  176.9770  146.4500 N   0  0  0  0  0  2  0  0  0  0  0  0
  187.7420  176.0560  146.0580 N   0  0  0  0  0  2  0  0  0  0  0  0
  188.8000  176.1020  147.0640 C   0  0  2  0  0  3  0  0  0  0  0  0
  189.8230  177.1980  146.7570 C   0  0  2  0  0  3  0  0  0  0  0  0
  190.2880  177.1230  145.3110 C   0  0  0  0  0  1  0  0  0  0  0  0
  192.2090  176.5380  147.3730 N   0  0  0  0  0  1  0  0  0  0  0  0
  190.9920  177.2030  147.7010 C   0  0  0  0  0  0  0  0  0  0  0  0
  190.8850  177.7730  148.8220 O   0  0  0  0  0  0  0  0  0  0  0  0
  189.4590  174.7410  147.2250 C   0  0  0  0  0  2  0  0  0  0  0  0
  189.3500  174.0340  146.0300 O   0  0  0  0  0  1  0  0  0  0  0  0
  1  5  1  0  0  0  0
  2  7  1  0  0  0  0
  3  8  1  1  0  0  0
  3  1  1  0  0  0  0
  5  7  1  0  0  0  0
  5 31  1  6  0  0  0
  6  4  1  6  0  0  0
  6  3  1  0  0  0  0
  6  2  1  0  0  0  0
  8 10  1  0  0  0  0
  8  9  2  0  0  0  0
 10 11  1  0  0  0  0
 11 12  1  0  0  0  0
 12 13  2  0  0  0  0
 12 14  1  0  0  0  0
 14 15  1  6  0  0  0
 16 14  1  0  0  0  0
 16 17  1  0  0  0  0
 18 25  1  6  0  0  0
 18 17  1  0  0  0  0
 18 19  1  0  0  0  0
 18 23  1  0  0  0  0
 19 20  1  0  0  0  0
 20 21  2  0  0  0  0
 20 22  1  0  0  0  0
 23 24  2  0  0  0  0
 26 27  1  6  0  0  0
 26 25  1  0  0  0  0
 28 26  1  0  0  0  0
 29 30  1  0  0  0  0
 30 28  1  0  0  0  0
 32 31  1  0  0  0  0
 33 32  1  6  0  0  0
 33 45  1  0  0  0  0
 34 39  2  0  0  0  0
 34 35  1  0  0  0  0
 35 36  2  0  0  0  0
 36 37  1  0  0  0  0
 38 33  1  0  0  0  0
 38 37  2  0  0  0  0
 39 38  1  0  0  0  0
 41 35  1  1  0  0  0
 41 40  1  0  0  0  0
 42 44  1  0  0  0  0
 43 42  1  0  0  0  0
 43 41  1  0  0  0  0
 44 40  1  0  0  0  0
 45 46  1  0  0  0  0
 46 47  1  0  0  0  0
 48 47  1  0  0  0  0
 48 49  1  0  0  0  0
 49 55  1  6  0  0  0
 50 51  1  6  0  0  0
 50 49  1  0  0  0  0
 50 53  1  0  0  0  0
 52 53  1  0  0  0  0
 53 54  2  0  0  0  0
 56 55  1  0  0  0  0
M  END
>  <MODEL>
3

>  <REMARK>
 VINA RESULT:      -5.3      3.451      8.357
  Name = 
  25 active torsions:
  status: ('A' for Active; 'I' for Inactive)
    1  A    between atoms: C_1  and  C_17
    2  A    between atoms: C_3  and  C_38
    3  A    between atoms: C_3  and  C_52
    4  A    between atoms: N_4  and  C_16
    5  A    between atoms: N_4  and  N_26
    6  A    between atoms: C_5  and  C_17
    7  A    between atoms: C_5  and  C_36
    8  A    between atoms: C_8  and  C_20
    9  A    between atoms: N_12  and  C_52
   10  A    between atoms: C_14  and  N_24
   11  A    between atoms: C_15  and  C_38
   12  A    between atoms: C_15  and  C_44
   13  A    between atoms: C_16  and  N_48
   14  A    between atoms: C_17  and  N_26
   15  A    between atoms: C_18  and  C_22
   16  A    between atoms: N_24  and  C_43
   17  A    between atoms: N_27  and  N_28
   18  A    between atoms: C_29  and  N_39
   19  A    between atoms: N_30  and  C_34
   20  A    between atoms: N_30  and  N_39
   21  A    between atoms: S_31  and  C_52
   22  A    between atoms: C_34  and  C_45
   23  A    between atoms: C_34  and  N_48
   24  A    between atoms: C_37  and  C_43
   25  A    between atoms: C_37  and  C_52
                            x       y       z     vdW  Elec       q    Type
                         _______ _______ _______ _____ _____    ______ ____

>  <TORSDO>
F 25

$$$$
=
 OpenBabel11042419533D

 56 58  0  0  1  0  0  0  0  0999 V2000
  188.9510  174.9240  141.2530 C   0  0  0  0  0  2  0  0  0  0  0  0
  189.0060  172.6880  142.9670 C   0  0  0  0  0  2  0  0  0  0  0  0
  188.4550  173.6140  140.6310 C   0  0  2  0  0  3  0  0  0  0  0  0
  186.9190  172.2900  141.8980 F   0  0  0  0  0  0  0  0  0  0  0  0
  190.1760  174.7710  142.1850 C   0  0  2  0  0  3  0  0  0  0  0  0
  188.2640  172.4710  141.6450 C   0  0  2  0  0  3  0  0  0  0  0  0
  190.3600  173.3400  142.7010 C   0  0  0  0  0  2  0  0  0  0  0  0
  189.3000  173.1530  139.4830 C   0  0  0  0  0  0  0  0  0  0  0  0
  189.6390  173.9510  138.5730 O   0  0  0  0  0  0  0  0  0  0  0  0
  189.8390  171.8340  139.5140 N   0  0  0  0  0  2  0  0  0  0  0  0
  190.8530  171.4290  138.6330 N   0  0  0  0  0  2  0  0  0  0  0  0
  192.0720  170.8920  139.1420 C   0  0  0  0  0  0  0  0  0  0  0  0
  192.2820  170.8850  140.3850 O   0  0  0  0  0  0  0  0  0  0  0  0
  193.1100  170.3960  138.1800 C   0  0  1  0  0  3  0  0  0  0  0  0
  192.5370  169.4390  137.2500 N   0  0  0  0  0  1  0  0  0  0  0  0
  193.8560  171.5090  137.4380 C   0  0  0  0  0  2  0  0  0  0  0  0
  194.3550  172.6020  138.3830 C   0  0  0  0  0  2  0  0  0  0  0  0
  195.6260  173.3080  137.8960 C   0  0  1  0  0  0  0  0  0  0  0  0
  195.9470  174.4150  138.8050 N   0  0  0  0  0  2  0  0  0  0  0  0
  197.1280  175.2300  138.8030 C   0  0  0  0  0  0  0  0  0  0  0  0
  197.4710  175.8140  139.8560 O   0  0  0  0  0  1  0  0  0  0  0  0
  197.9290  175.3410  137.6730 O   0  0  0  0  0  0  0  0  0  0  0  0
  196.9930  172.1170  137.7620 S   0  0  0  0  0  3  0  0  0  0  0  0
  197.0090  171.3480  139.0780 O   0  0  0  0  0  0  0  0  0  0  0  0
  195.2900  173.8300  136.4850 C   0  0  0  0  0  2  0  0  0  0  0  0
  194.4430  175.1040  136.3640 C   0  0  1  0  0  3  0  0  0  0  0  0
  195.2120  176.1660  135.8890 O   0  0  0  0  0  1  0  0  0  0  0  0
  193.2900  174.8880  135.5020 N   0  0  0  0  0  2  0  0  0  0  0  0
  191.6370  176.6170  135.0710 C   0  0  0  0  0  1  0  0  0  0  0  0
  193.0390  176.1280  134.7840 C   0  0  0  0  0  2  0  0  0  0  0  0
  190.0620  175.6660  143.3330 N   0  0  0  0  0  2  0  0  0  0  0  0
  191.3570  175.9760  143.7890 N   0  0  0  0  0  2  0  0  0  0  0  0
  191.4240  175.6450  145.2120 C   0  0  1  0  0  3  0  0  0  0  0  0
  194.2940  173.1750  145.4940 C   0  0  0  0  0  3  0  0  0  0  0  0
  195.3600  174.0100  145.8630 C   0  0  0  0  0  0  0  0  0  0  0  0
  195.0940  175.3620  146.1420 C   0  0  0  0  0  3  0  0  0  0  0  0
  193.8040  175.8820  145.9720 C   0  0  0  0  0  3  0  0  0  0  0  0
  192.7600  175.0530  145.5490 C   0  0  0  0  0  0  0  0  0  0  0  0
  193.0070  173.6910  145.3220 C   0  0  0  0  0  3  0  0  0  0  0  0
  197.6490  174.0480  144.8500 C   0  0  0  0  0  2  0  0  0  0  0  0
  196.7630  173.4490  145.9380 C   0  0  2  0  0  3  0  0  0  0  0  0
  197.7700  171.6960  144.7660 C   0  0  0  0  0  2  0  0  0  0  0  0
  196.7310  172.0010  145.7420 N   0  0  0  0  0  2  0  0  0  0  0  0
  197.9370  172.9140  143.9060 C   0  0  0  0  0  2  0  0  0  0  0  0
  191.2130  176.8450  146.0190 N   0  0  0  0  0  2  0  0  0  0  0  0
  190.0060  177.5020  145.5500 C   0  0  0  0  0  2  0  0  0  0  0  0
  188.9210  177.2520  146.4900 N   0  0  0  0  0  2  0  0  0  0  0  0
  187.8390  176.7540  145.7480 N   0  0  0  0  0  2  0  0  0  0  0  0
  187.1550  177.9010  145.1580 C   0  0  2  0  0  3  0  0  0  0  0  0
  185.7880  178.1380  145.8060 C   0  0  2  0  0  3  0  0  0  0  0  0
  184.9950  179.1840  145.0400 C   0  0  0  0  0  1  0  0  0  0  0  0
  185.8020  177.4730  148.2680 N   0  0  0  0  0  1  0  0  0  0  0  0
  185.8720  178.4830  147.2650 C   0  0  0  0  0  0  0  0  0  0  0  0
  185.9680  179.6920  147.6150 O   0  0  0  0  0  0  0  0  0  0  0  0
  187.0490  177.7560  143.6470 C   0  0  0  0  0  2  0  0  0  0  0  0
  186.5980  176.4750  143.3400 O   0  0  0  0  0  1  0  0  0  0  0  0
  1  5  1  0  0  0  0
  3  8  1  6  0  0  0
  3  1  1  0  0  0  0
  3  6  1  0  0  0  0
  5  7  1  0  0  0  0
  5 31  1  1  0  0  0
  6  4  1  1  0  0  0
  6  2  1  0  0  0  0
  7  2  1  0  0  0  0
  8 10  1  0  0  0  0
  9  8  2  0  0  0  0
 11 12  1  0  0  0  0
 11 10  1  0  0  0  0
 12 13  2  0  0  0  0
 14 15  1  6  0  0  0
 14 12  1  0  0  0  0
 16 14  1  0  0  0  0
 16 17  1  0  0  0  0
 18 25  1  6  0  0  0
 18 17  1  0  0  0  0
 18 19  1  0  0  0  0
 20 19  1  0  0  0  0
 20 21  1  0  0  0  0
 22 20  2  0  0  0  0
 23 18  1  0  0  0  0
 23 24  2  0  0  0  0
 26 27  1  6  0  0  0
 26 25  1  0  0  0  0
 28 26  1  0  0  0  0
 30 29  1  0  0  0  0
 30 28  1  0  0  0  0
 31 32  1  0  0  0  0
 33 32  1  6  0  0  0
 33 38  1  0  0  0  0
 33 45  1  0  0  0  0
 34 35  1  0  0  0  0
 35 36  2  0  0  0  0
 37 36  1  0  0  0  0
 38 37  2  0  0  0  0
 39 34  2  0  0  0  0
 39 38  1  0  0  0  0
 40 41  1  0  0  0  0
 41 35  1  6  0  0  0
 42 43  1  0  0  0  0
 43 41  1  0  0  0  0
 44 42  1  0  0  0  0
 44 40  1  0  0  0  0
 46 45  1  0  0  0  0
 46 47  1  0  0  0  0
 48 47  1  0  0  0  0
 49 55  1  6  0  0  0
 49 48  1  0  0  0  0
 49 50  1  0  0  0  0
 50 51  1  6  0  0  0
 50 53  1  0  0  0  0
 53 54  2  0  0  0  0
 53 52  1  0  0  0  0
 56 55  1  0  0  0  0
M  END
>  <MODEL>
4

>  <REMARK>
 VINA RESULT:      -5.1      1.597      2.707
  Name = 
  25 active torsions:
  status: ('A' for Active; 'I' for Inactive)
    1  A    between atoms: C_1  and  C_17
    2  A    between atoms: C_3  and  C_38
    3  A    between atoms: C_3  and  C_52
    4  A    between atoms: N_4  and  C_16
    5  A    between atoms: N_4  and  N_26
    6  A    between atoms: C_5  and  C_17
    7  A    between atoms: C_5  and  C_36
    8  A    between atoms: C_8  and  C_20
    9  A    between atoms: N_12  and  C_52
   10  A    between atoms: C_14  and  N_24
   11  A    between atoms: C_15  and  C_38
   12  A    between atoms: C_15  and  C_44
   13  A    between atoms: C_16  and  N_48
   14  A    between atoms: C_17  and  N_26
   15  A    between atoms: C_18  and  C_22
   16  A    between atoms: N_24  and  C_43
   17  A    between atoms: N_27  and  N_28
   18  A    between atoms: C_29  and  N_39
   19  A    between atoms: N_30  and  C_34
   20  A    between atoms: N_30  and  N_39
   21  A    between atoms: S_31  and  C_52
   22  A    between atoms: C_34  and  C_45
   23  A    between atoms: C_34  and  N_48
   24  A    between atoms: C_37  and  C_43
   25  A    between atoms: C_37  and  C_52
                            x       y       z     vdW  Elec       q    Type
                         _______ _______ _______ _____ _____    ______ ____

>  <TORSDO>
F 25

$$$$
=
 OpenBabel11042419533D

 56 58  0  0  1  0  0  0  0  0999 V2000
  190.3380  174.4620  141.9590 C   0  0  0  0  0  2  0  0  0  0  0  0
  190.7870  171.8210  142.8350 C   0  0  0  0  0  2  0  0  0  0  0  0
  189.3230  173.4280  141.4580 C   0  0  2  0  0  3  0  0  0  0  0  0
  188.4200  171.8910  143.0530 F   0  0  0  0  0  0  0  0  0  0  0  0
  191.8010  173.9620  141.9940 C   0  0  2  0  0  3  0  0  0  0  0  0
  189.4420  172.0520  142.1390 C   0  0  2  0  0  3  0  0  0  0  0  0
  191.9130  172.4340  142.0050 C   0  0  0  0  0  2  0  0  0  0  0  0
  189.3300  173.2710  139.9680 C   0  0  0  0  0  0  0  0  0  0  0  0
  188.6720  174.0530  139.2370 O   0  0  0  0  0  0  0  0  0  0  0  0
  190.2130  172.3170  139.3830 N   0  0  0  0  0  2  0  0  0  0  0  0
  190.4830  172.3090  138.0060 N   0  0  0  0  0  2  0  0  0  0  0  0
  190.1050  171.1890  137.2080 C   0  0  0  0  0  0  0  0  0  0  0  0
  189.6290  170.1600  137.7590 O   0  0  0  0  0  0  0  0  0  0  0  0
  190.3350  171.2360  135.7270 C   0  0  1  0  0  3  0  0  0  0  0  0
  189.0810  171.4090  135.0150 N   0  0  0  0  0  1  0  0  0  0  0  0
  191.3680  172.2790  135.2880 C   0  0  0  0  0  2  0  0  0  0  0  0
  192.8030  171.7860  135.4720 C   0  0  0  0  0  2  0  0  0  0  0  0
  193.7470  172.8380  136.0670 C   0  0  1  0  0  0  0  0  0  0  0  0
  194.9920  172.8700  135.2900 N   0  0  0  0  0  2  0  0  0  0  0  0
  196.1160  173.7400  135.4820 C   0  0  0  0  0  0  0  0  0  0  0  0
  196.8880  173.9650  134.5210 O   0  0  0  0  0  0  0  0  0  0  0  0
  196.3370  174.3810  136.6940 O   0  0  0  0  0  1  0  0  0  0  0  0
  192.9290  174.4600  136.1130 S   0  0  0  0  0  3  0  0  0  0  0  0
  193.0860  174.9670  137.5420 O   0  0  0  0  0  0  0  0  0  0  0  0
  194.0100  172.3790  137.5150 C   0  0  0  0  0  2  0  0  0  0  0  0
  194.2460  170.8840  137.7730 C   0  0  1  0  0  3  0  0  0  0  0  0
  195.5690  170.6490  138.1460 O   0  0  0  0  0  1  0  0  0  0  0  0
  193.3350  170.3770  138.7880 N   0  0  0  0  0  2  0  0  0  0  0  0
  193.4860  169.1840  140.9010 C   0  0  0  0  0  1  0  0  0  0  0  0
  194.0160  169.2980  139.4890 C   0  0  0  0  0  2  0  0  0  0  0  0
  192.4940  174.4850  143.1690 N   0  0  0  0  0  2  0  0  0  0  0  0
  191.5970  174.4830  144.2540 N   0  0  0  0  0  2  0  0  0  0  0  0
  191.6150  175.8170  144.8540 C   0  0  1  0  0  3  0  0  0  0  0  0
  188.4250  177.7310  144.0960 C   0  0  0  0  0  3  0  0  0  0  0  0
  187.5100  177.1280  144.9730 C   0  0  0  0  0  0  0  0  0  0  0  0
  187.9840  176.1830  145.8990 C   0  0  0  0  0  3  0  0  0  0  0  0
  189.3280  175.7910  145.8880 C   0  0  0  0  0  3  0  0  0  0  0  0
  190.2200  176.3560  144.9720 C   0  0  0  0  0  0  0  0  0  0  0  0
  189.7660  177.3400  144.0820 C   0  0  0  0  0  3  0  0  0  0  0  0
  185.8390  178.9890  145.1020 C   0  0  0  0  0  2  0  0  0  0  0  0
  186.0430  177.4910  144.8950 C   0  0  2  0  0  3  0  0  0  0  0  0
  184.4540  177.7880  146.5830 C   0  0  0  0  0  2  0  0  0  0  0  0
  185.3010  176.7900  145.9420 N   0  0  0  0  0  2  0  0  0  0  0  0
  185.1400  179.1140  146.4270 C   0  0  0  0  0  2  0  0  0  0  0  0
  192.2240  175.7650  146.1810 N   0  0  0  0  0  2  0  0  0  0  0  0
  193.3910  174.9040  146.1130 C   0  0  0  0  0  2  0  0  0  0  0  0
  194.5930  175.6990  146.3270 N   0  0  0  0  0  2  0  0  0  0  0  0
  195.6860  174.9020  145.9520 N   0  0  0  0  0  2  0  0  0  0  0  0
  195.6670  174.8010  144.4950 C   0  0  2  0  0  3  0  0  0  0  0  0
  196.5890  173.6870  143.9950 C   0  0  2  0  0  3  0  0  0  0  0  0
  197.9270  174.2470  143.5390 C   0  0  0  0  0  1  0  0  0  0  0  0
  195.0040  171.8340  143.2440 N   0  0  0  0  0  1  0  0  0  0  0  0
  195.9680  172.8350  142.9250 C   0  0  0  0  0  0  0  0  0  0  0  0
  196.3310  172.9780  141.7250 O   0  0  0  0  0  0  0  0  0  0  0  0
  195.9950  176.1400  143.8520 C   0  0  0  0  0  2  0  0  0  0  0  0
  195.2550  176.2800  142.6800 O   0  0  0  0  0  1  0  0  0  0  0  0
  1  5  1  0  0  0  0
  3  8  1  6  0  0  0
  3  1  1  0  0  0  0
  3  6  1  0  0  0  0
  5  7  1  0  0  0  0
  5 31  1  1  0  0  0
  6  2  1  0  0  0  0
  6  4  1  1  0  0  0
  7  2  1  0  0  0  0
  9  8  2  0  0  0  0
 10  8  1  0  0  0  0
 11 10  1  0  0  0  0
 12 13  2  0  0  0  0
 12 11  1  0  0  0  0
 14 15  1  6  0  0  0
 14 12  1  0  0  0  0
 16 17  1  0  0  0  0
 16 14  1  0  0  0  0
 18 17  1  6  0  0  0
 18 23  1  0  0  0  0
 18 25  1  0  0  0  0
 19 20  1  0  0  0  0
 19 18  1  0  0  0  0
 20 22  1  0  0  0  0
 21 20  2  0  0  0  0
 23 24  2  0  0  0  0
 25 26  1  0  0  0  0
 26 27  1  1  0  0  0
 26 28  1  0  0  0  0
 28 30  1  0  0  0  0
 30 29  1  0  0  0  0
 31 32  1  0  0  0  0
 33 32  1  1  0  0  0
 33 38  1  0  0  0  0
 33 45  1  0  0  0  0
 34 35  1  0  0  0  0
 35 36  2  0  0  0  0
 37 36  1  0  0  0  0
 38 37  2  0  0  0  0
 39 34  2  0  0  0  0
 39 38  1  0  0  0  0
 40 44  1  0  0  0  0
 41 35  1  1  0  0  0
 41 40  1  0  0  0  0
 41 43  1  0  0  0  0
 43 42  1  0  0  0  0
 44 42  1  0  0  0  0
 46 45  1  0  0  0  0
 46 47  1  0  0  0  0
 48 47  1  0  0  0  0
 49 55  1  6  0  0  0
 49 48  1  0  0  0  0
 50 51  1  6  0  0  0
 50 49  1  0  0  0  0
 53 52  1  0  0  0  0
 53 50  1  0  0  0  0
 54 53  2  0  0  0  0
 56 55  1  0  0  0  0
M  END
>  <MODEL>
5

>  <REMARK>
 VINA RESULT:      -4.9      2.547      6.794
  Name = 
  25 active torsions:
  status: ('A' for Active; 'I' for Inactive)
    1  A    between atoms: C_1  and  C_17
    2  A    between atoms: C_3  and  C_38
    3  A    between atoms: C_3  and  C_52
    4  A    between atoms: N_4  and  C_16
    5  A    between atoms: N_4  and  N_26
    6  A    between atoms: C_5  and  C_17
    7  A    between atoms: C_5  and  C_36
    8  A    between atoms: C_8  and  C_20
    9  A    between atoms: N_12  and  C_52
   10  A    between atoms: C_14  and  N_24
   11  A    between atoms: C_15  and  C_38
   12  A    between atoms: C_15  and  C_44
   13  A    between atoms: C_16  and  N_48
   14  A    between atoms: C_17  and  N_26
   15  A    between atoms: C_18  and  C_22
   16  A    between atoms: N_24  and  C_43
   17  A    between atoms: N_27  and  N_28
   18  A    between atoms: C_29  and  N_39
   19  A    between atoms: N_30  and  C_34
   20  A    between atoms: N_30  and  N_39
   21  A    between atoms: S_31  and  C_52
   22  A    between atoms: C_34  and  C_45
   23  A    between atoms: C_34  and  N_48
   24  A    between atoms: C_37  and  C_43
   25  A    between atoms: C_37  and  C_52
                            x       y       z     vdW  Elec       q    Type
                         _______ _______ _______ _____ _____    ______ ____

>  <TORSDO>
F 25

$$$$
=
 OpenBabel11042419533D

 56 58  0  0  1  0  0  0  0  0999 V2000
  187.7940  174.7440  139.6660 C   0  0  0  0  0  2  0  0  0  0  0  0
  187.8590  174.5190  142.4740 C   0  0  0  0  0  2  0  0  0  0  0  0
  188.5300  173.5120  140.2040 C   0  0  2  0  0  3  0  0  0  0  0  0
  187.4620  172.2400  141.9250 F   0  0  0  0  0  0  0  0  0  0  0  0
  188.0280  176.0390  140.4790 C   0  0  2  0  0  3  0  0  0  0  0  0
  188.3440  173.2800  141.7150 C   0  0  2  0  0  3  0  0  0  0  0  0
  188.5230  175.7700  141.9040 C   0  0  0  0  0  2  0  0  0  0  0  0
  189.9860  173.4970  139.8520 C   0  0  0  0  0  0  0  0  0  0  0  0
  190.3720  173.8060  138.6970 O   0  0  0  0  0  0  0  0  0  0  0  0
  190.9400  173.2720  140.8880 N   0  0  0  0  0  2  0  0  0  0  0  0
  192.3080  173.5210  140.6990 N   0  0  0  0  0  2  0  0  0  0  0  0
  193.1630  172.4930  140.2050 C   0  0  0  0  0  0  0  0  0  0  0  0
  192.7100  171.3270  140.0430 O   0  0  0  0  0  0  0  0  0  0  0  0
  194.6050  172.8060  139.9390 C   0  0  1  0  0  3  0  0  0  0  0  0
  194.8700  174.2210  140.1280 N   0  0  0  0  0  1  0  0  0  0  0  0
  195.5880  171.9470  140.7420 C   0  0  0  0  0  2  0  0  0  0  0  0
  196.2040  172.7150  141.9110 C   0  0  0  0  0  2  0  0  0  0  0  0
  195.8480  172.1360  143.2860 C   0  0  1  0  0  0  0  0  0  0  0  0
  194.4090  172.2980  143.5260 N   0  0  0  0  0  2  0  0  0  0  0  0
  193.6590  171.8460  144.6610 C   0  0  0  0  0  0  0  0  0  0  0  0
  192.4270  171.6530  144.5450 O   0  0  0  0  0  0  0  0  0  0  0  0
  194.2780  171.5670  145.8740 O   0  0  0  0  0  1  0  0  0  0  0  0
  196.3670  170.3980  143.3890 S   0  0  0  0  0  3  0  0  0  0  0  0
  196.8820  170.1980  144.8090 O   0  0  0  0  0  0  0  0  0  0  0  0
  196.6720  172.9560  144.3000 C   0  0  0  0  0  2  0  0  0  0  0  0
  196.1920  174.3690  144.6550 C   0  0  1  0  0  3  0  0  0  0  0  0
  196.1490  174.5440  146.0390 O   0  0  0  0  0  1  0  0  0  0  0  0
  197.0390  175.3810  144.0420 N   0  0  0  0  0  2  0  0  0  0  0  0
  194.7610  175.8800  143.3580 C   0  0  0  0  0  1  0  0  0  0  0  0
  196.1690  176.4140  143.5020 C   0  0  0  0  0  2  0  0  0  0  0  0
  186.8000  176.8250  140.5560 N   0  0  0  0  0  2  0  0  0  0  0  0
  186.3240  176.7810  141.8800 N   0  0  0  0  0  2  0  0  0  0  0  0
  185.8360  178.1170  142.2260 C   0  0  1  0  0  3  0  0  0  0  0  0
  182.6570  177.9320  140.1580 C   0  0  0  0  0  3  0  0  0  0  0  0
  181.6760  178.2610  141.1060 C   0  0  0  0  0  0  0  0  0  0  0  0
  182.0830  178.6680  142.3880 C   0  0  0  0  0  3  0  0  0  0  0  0
  183.4400  178.6620  142.7360 C   0  0  0  0  0  3  0  0  0  0  0  0
  184.4070  178.2780  141.8010 C   0  0  0  0  0  0  0  0  0  0  0  0
  184.0110  177.9250  140.5030 C   0  0  0  0  0  3  0  0  0  0  0  0
  179.6900  179.4840  140.1960 C   0  0  0  0  0  2  0  0  0  0  0  0
  180.2120  178.1580  140.7380 C   0  0  2  0  0  3  0  0  0  0  0  0
  178.2930  178.7370  141.9400 C   0  0  0  0  0  2  0  0  0  0  0  0
  179.4240  177.8170  141.9220 N   0  0  0  0  0  2  0  0  0  0  0  0
  178.7310  179.9880  141.2390 C   0  0  0  0  0  2  0  0  0  0  0  0
  185.9370  178.3320  143.6670 N   0  0  0  0  0  2  0  0  0  0  0  0
  185.8530  177.0420  144.3280 C   0  0  0  0  0  2  0  0  0  0  0  0
  186.8720  176.9620  145.3660 N   0  0  0  0  0  2  0  0  0  0  0  0
  187.9350  177.7860  144.9650 N   0  0  0  0  0  2  0  0  0  0  0  0
  189.1730  177.0830  145.2920 C   0  0  2  0  0  3  0  0  0  0  0  0
  189.2170  176.6750  146.7670 C   0  0  2  0  0  3  0  0  0  0  0  0
  189.7940  177.7890  147.6250 C   0  0  0  0  0  1  0  0  0  0  0  0
  190.9940  175.2870  147.9590 N   0  0  0  0  0  1  0  0  0  0  0  0
  189.9390  175.3800  147.0050 C   0  0  0  0  0  0  0  0  0  0  0  0
  189.6360  174.3630  146.3220 O   0  0  0  0  0  0  0  0  0  0  0  0
  190.3890  177.9070  144.8950 C   0  0  0  0  0  2  0  0  0  0  0  0
  190.7400  177.6030  143.5820 O   0  0  0  0  0  1  0  0  0  0  0  0
  1  3  1  0  0  0  0
  1  5  1  0  0  0  0
  3  8  1  1  0  0  0
  3  6  1  0  0  0  0
  5 31  1  1  0  0  0
  5  7  1  0  0  0  0
  6  4  1  6  0  0  0
  6  2  1  0  0  0  0
  7  2  1  0  0  0  0
  8 10  1  0  0  0  0
  9  8  2  0  0  0  0
 11 10  1  0  0  0  0
 12 11  1  0  0  0  0
 13 12  2  0  0  0  0
 14 15  1  1  0  0  0
 14 12  1  0  0  0  0
 14 16  1  0  0  0  0
 16 17  1  0  0  0  0
 18 17  1  6  0  0  0
 18 23  1  0  0  0  0
 18 19  1  0  0  0  0
 18 25  1  0  0  0  0
 19 20  1  0  0  0  0
 20 22  1  0  0  0  0
 21 20  2  0  0  0  0
 23 24  2  0  0  0  0
 25 26  1  0  0  0  0
 26 27  1  1  0  0  0
 28 26  1  0  0  0  0
 29 30  1  0  0  0  0
 30 28  1  0  0  0  0
 31 32  1  0  0  0  0
 33 32  1  1  0  0  0
 33 45  1  0  0  0  0
 34 39  2  0  0  0  0
 34 35  1  0  0  0  0
 35 36  2  0  0  0  0
 36 37  1  0  0  0  0
 38 33  1  0  0  0  0
 38 37  2  0  0  0  0
 39 38  1  0  0  0  0
 40 41  1  0  0  0  0
 40 44  1  0  0  0  0
 41 35  1  1  0  0  0
 41 43  1  0  0  0  0
 43 42  1  0  0  0  0
 44 42  1  0  0  0  0
 45 46  1  0  0  0  0
 46 47  1  0  0  0  0
 48 49  1  0  0  0  0
 48 47  1  0  0  0  0
 49 55  1  1  0  0  0
 49 50  1  0  0  0  0
 50 53  1  0  0  0  0
 50 51  1  1  0  0  0
 53 52  1  0  0  0  0
 54 53  2  0  0  0  0
 56 55  1  0  0  0  0
M  END
>  <MODEL>
6

>  <REMARK>
 VINA RESULT:      -4.8      3.558      8.563
  Name = 
  25 active torsions:
  status: ('A' for Active; 'I' for Inactive)
    1  A    between atoms: C_1  and  C_17
    2  A    between atoms: C_3  and  C_38
    3  A    between atoms: C_3  and  C_52
    4  A    between atoms: N_4  and  C_16
    5  A    between atoms: N_4  and  N_26
    6  A    between atoms: C_5  and  C_17
    7  A    between atoms: C_5  and  C_36
    8  A    between atoms: C_8  and  C_20
    9  A    between atoms: N_12  and  C_52
   10  A    between atoms: C_14  and  N_24
   11  A    between atoms: C_15  and  C_38
   12  A    between atoms: C_15  and  C_44
   13  A    between atoms: C_16  and  N_48
   14  A    between atoms: C_17  and  N_26
   15  A    between atoms: C_18  and  C_22
   16  A    between atoms: N_24  and  C_43
   17  A    between atoms: N_27  and  N_28
   18  A    between atoms: C_29  and  N_39
   19  A    between atoms: N_30  and  C_34
   20  A    between atoms: N_30  and  N_39
   21  A    between atoms: S_31  and  C_52
   22  A    between atoms: C_34  and  C_45
   23  A    between atoms: C_34  and  N_48
   24  A    between atoms: C_37  and  C_43
   25  A    between atoms: C_37  and  C_52
                            x       y       z     vdW  Elec       q    Type
                         _______ _______ _______ _____ _____    ______ ____

>  <TORSDO>
F 25

$$$$
=
 OpenBabel11042419533D

 56 58  0  0  1  0  0  0  0  0999 V2000
  189.6580  177.5270  144.6480 C   0  0  0  0  0  2  0  0  0  0  0  0
  188.2900  176.0890  146.6480 C   0  0  0  0  0  2  0  0  0  0  0  0
  188.1300  177.5410  144.5300 C   0  0  2  0  0  3  0  0  0  0  0  0
  186.8650  177.9870  146.5110 F   0  0  0  0  0  0  0  0  0  0  0  0
  190.2570  176.1700  145.0850 C   0  0  2  0  0  3  0  0  0  0  0  0
  187.4010  176.9620  145.7580 C   0  0  2  0  0  3  0  0  0  0  0  0
  189.2390  175.2620  145.7840 C   0  0  0  0  0  2  0  0  0  0  0  0
  187.6310  176.8900  143.2770 C   0  0  0  0  0  0  0  0  0  0  0  0
  187.0020  177.5530  142.4150 O   0  0  0  0  0  0  0  0  0  0  0  0
  188.0090  175.5420  143.0060 N   0  0  0  0  0  2  0  0  0  0  0  0
  187.8230  174.9630  141.7420 N   0  0  0  0  0  2  0  0  0  0  0  0
  188.6360  173.8660  141.3290 C   0  0  0  0  0  0  0  0  0  0  0  0
  189.5950  173.4900  142.0560 O   0  0  0  0  0  0  0  0  0  0  0  0
  188.3680  173.2150  140.0050 C   0  0  1  0  0  3  0  0  0  0  0  0
  188.2750  174.2080  138.9500 N   0  0  0  0  0  1  0  0  0  0  0  0
  189.3670  172.1120  139.6390 C   0  0  0  0  0  2  0  0  0  0  0  0
  190.7010  172.6780  139.1540 C   0  0  0  0  0  2  0  0  0  0  0  0
  191.0220  172.3390  137.6930 C   0  0  1  0  0  0  0  0  0  0  0  0
  192.3210  171.6590  137.6230 N   0  0  0  0  0  2  0  0  0  0  0  0
  192.7440  170.5090  138.3690 C   0  0  0  0  0  0  0  0  0  0  0  0
  193.9670  170.3080  138.5440 O   0  0  0  0  0  0  0  0  0  0  0  0
  191.8240  169.6420  138.9450 O   0  0  0  0  0  1  0  0  0  0  0  0
  189.6870  171.3370  136.9740 S   0  0  0  0  0  3  0  0  0  0  0  0
  190.3600  170.3860  135.9920 O   0  0  0  0  0  0  0  0  0  0  0  0
  191.0680  173.6950  136.9590 C   0  0  0  0  0  2  0  0  0  0  0  0
  191.5710  173.7210  135.5100 C   0  0  1  0  0  3  0  0  0  0  0  0
  190.6190  174.2910  134.6650 O   0  0  0  0  0  1  0  0  0  0  0  0
  192.8340  174.4370  135.4060 N   0  0  0  0  0  2  0  0  0  0  0  0
  193.1160  176.8020  135.8930 C   0  0  0  0  0  1  0  0  0  0  0  0
  192.8670  175.4270  136.4720 C   0  0  0  0  0  2  0  0  0  0  0  0
  191.3880  176.3760  145.9860 N   0  0  0  0  0  2  0  0  0  0  0  0
  192.5760  176.0900  145.2860 N   0  0  0  0  0  2  0  0  0  0  0  0
  193.3800  175.1920  146.1140 C   0  0  1  0  0  3  0  0  0  0  0  0
  194.4230  171.6050  145.4350 C   0  0  0  0  0  3  0  0  0  0  0  0
  193.4590  171.1950  144.5000 C   0  0  0  0  0  0  0  0  0  0  0  0
  192.5500  172.1470  144.0040 C   0  0  0  0  0  3  0  0  0  0  0  0
  192.5560  173.4580  144.4980 C   0  0  0  0  0  3  0  0  0  0  0  0
  193.4840  173.8410  145.4720 C   0  0  0  0  0  0  0  0  0  0  0  0
  194.4280  172.9110  145.9300 C   0  0  0  0  0  3  0  0  0  0  0  0
  194.6770  169.3580  143.3140 C   0  0  0  0  0  2  0  0  0  0  0  0
  193.4060  169.7490  144.0600 C   0  0  2  0  0  3  0  0  0  0  0  0
  192.7920  168.7990  142.0150 C   0  0  0  0  0  2  0  0  0  0  0  0
  192.2750  169.5450  143.1550 N   0  0  0  0  0  2  0  0  0  0  0  0
  194.2480  169.1370  141.8900 C   0  0  0  0  0  2  0  0  0  0  0  0
  194.7210  175.7420  146.2970 N   0  0  0  0  0  2  0  0  0  0  0  0
  195.4800  175.5050  145.0820 C   0  0  0  0  0  2  0  0  0  0  0  0
  195.5790  176.7440  144.3220 N   0  0  0  0  0  2  0  0  0  0  0  0
  196.2410  176.4400  143.1220 N   0  0  0  0  0  2  0  0  0  0  0  0
  195.3550  175.5750  142.3480 C   0  0  2  0  0  3  0  0  0  0  0  0
  196.1390  174.6850  141.3800 C   0  0  2  0  0  3  0  0  0  0  0  0
  195.6660  174.8840  139.9490 C   0  0  0  0  0  1  0  0  0  0  0  0
  195.6860  172.2350  140.8390 N   0  0  0  0  0  1  0  0  0  0  0  0
  196.1200  173.2320  141.7590 C   0  0  0  0  0  0  0  0  0  0  0  0
  196.4570  172.8880  142.9260 O   0  0  0  0  0  0  0  0  0  0  0  0
  194.2880  176.3890  141.6310 C   0  0  0  0  0  2  0  0  0  0  0  0
  193.0330  176.0360  142.1230 O   0  0  0  0  0  1  0  0  0  0  0  0
  1  5  1  0  0  0  0
  3  8  1  6  0  0  0
  3  1  1  0  0  0  0
  3  6  1  0  0  0  0
  5  7  1  0  0  0  0
  5 31  1  1  0  0  0
  6  4  1  1  0  0  0
  6  2  1  0  0  0  0
  7  2  1  0  0  0  0
  9  8  2  0  0  0  0
 10  8  1  0  0  0  0
 11 10  1  0  0  0  0
 12 11  1  0  0  0  0
 12 13  2  0  0  0  0
 14 15  1  6  0  0  0
 14 12  1  0  0  0  0
 16 14  1  0  0  0  0
 17 16  1  0  0  0  0
 18 25  1  6  0  0  0
 18 17  1  0  0  0  0
 19 18  1  0  0  0  0
 19 20  1  0  0  0  0
 20 21  2  0  0  0  0
 20 22  1  0  0  0  0
 23 18  1  0  0  0  0
 24 23  2  0  0  0  0
 26 27  1  6  0  0  0
 26 25  1  0  0  0  0
 28 26  1  0  0  0  0
 28 30  1  0  0  0  0
 29 30  1  0  0  0  0
 32 31  1  0  0  0  0
 33 32  1  6  0  0  0
 33 45  1  0  0  0  0
 34 39  1  0  0  0  0
 35 34  2  0  0  0  0
 36 37  2  0  0  0  0
 36 35  1  0  0  0  0
 37 38  1  0  0  0  0
 38 39  2  0  0  0  0
 38 33  1  0  0  0  0
 40 41  1  0  0  0  0
 41 35  1  6  0  0  0
 42 43  1  0  0  0  0
 43 41  1  0  0  0  0
 44 42  1  0  0  0  0
 44 40  1  0  0  0  0
 46 45  1  0  0  0  0
 47 46  1  0  0  0  0
 48 47  1  0  0  0  0
 49 55  1  6  0  0  0
 49 48  1  0  0  0  0
 50 51  1  6  0  0  0
 50 53  1  0  0  0  0
 50 49  1  0  0  0  0
 52 53  1  0  0  0  0
 53 54  2  0  0  0  0
 55 56  1  0  0  0  0
M  END
>  <MODEL>
7

>  <REMARK>
 VINA RESULT:      -4.8      2.828      6.408
  Name = 
  25 active torsions:
  status: ('A' for Active; 'I' for Inactive)
    1  A    between atoms: C_1  and  C_17
    2  A    between atoms: C_3  and  C_38
    3  A    between atoms: C_3  and  C_52
    4  A    between atoms: N_4  and  C_16
    5  A    between atoms: N_4  and  N_26
    6  A    between atoms: C_5  and  C_17
    7  A    between atoms: C_5  and  C_36
    8  A    between atoms: C_8  and  C_20
    9  A    between atoms: N_12  and  C_52
   10  A    between atoms: C_14  and  N_24
   11  A    between atoms: C_15  and  C_38
   12  A    between atoms: C_15  and  C_44
   13  A    between atoms: C_16  and  N_48
   14  A    between atoms: C_17  and  N_26
   15  A    between atoms: C_18  and  C_22
   16  A    between atoms: N_24  and  C_43
   17  A    between atoms: N_27  and  N_28
   18  A    between atoms: C_29  and  N_39
   19  A    between atoms: N_30  and  C_34
   20  A    between atoms: N_30  and  N_39
   21  A    between atoms: S_31  and  C_52
   22  A    between atoms: C_34  and  C_45
   23  A    between atoms: C_34  and  N_48
   24  A    between atoms: C_37  and  C_43
   25  A    between atoms: C_37  and  C_52
                            x       y       z     vdW  Elec       q    Type
                         _______ _______ _______ _____ _____    ______ ____

>  <TORSDO>
F 25

$$$$
=
 OpenBabel11042419533D

 56 58  0  0  1  0  0  0  0  0999 V2000
  188.6940  177.6800  142.2240 C   0  0  0  0  0  2  0  0  0  0  0  0
  188.0910  175.2340  143.4880 C   0  0  0  0  0  2  0  0  0  0  0  0
  187.3440  177.0630  141.8400 C   0  0  2  0  0  3  0  0  0  0  0  0
  185.9470  176.2550  143.6060 F   0  0  0  0  0  0  0  0  0  0  0  0
  189.8440  176.6590  142.3850 C   0  0  2  0  0  3  0  0  0  0  0  0
  186.9290  175.8670  142.7170 C   0  0  2  0  0  3  0  0  0  0  0  0
  189.3480  175.2280  142.6210 C   0  0  0  0  0  2  0  0  0  0  0  0
  187.2550  176.6990  140.3900 C   0  0  0  0  0  0  0  0  0  0  0  0
  187.0040  177.5720  139.5220 O   0  0  0  0  0  0  0  0  0  0  0  0
  187.6080  175.3750  139.9920 N   0  0  0  0  0  2  0  0  0  0  0  0
  187.8220  175.0410  138.6470 N   0  0  0  0  0  2  0  0  0  0  0  0
  188.8640  174.1350  138.2900 C   0  0  0  0  0  0  0  0  0  0  0  0
  189.6630  173.7220  139.1730 O   0  0  0  0  0  0  0  0  0  0  0  0
  189.0240  173.7340  136.8540 C   0  0  1  0  0  3  0  0  0  0  0  0
  188.5030  174.7610  135.9690 N   0  0  0  0  0  1  0  0  0  0  0  0
  190.4560  173.3480  136.4700 C   0  0  0  0  0  2  0  0  0  0  0  0
  191.3230  173.0520  137.6930 C   0  0  0  0  0  2  0  0  0  0  0  0
  192.2150  171.8150  137.5340 C   0  0  1  0  0  0  0  0  0  0  0  0
  192.0370  170.9330  138.6940 N   0  0  0  0  0  2  0  0  0  0  0  0
  190.8010  170.4720  139.2570 C   0  0  0  0  0  0  0  0  0  0  0  0
  190.7690  170.1120  140.4560 O   0  0  0  0  0  1  0  0  0  0  0  0
  189.6260  170.4650  138.5150 O   0  0  0  0  0  0  0  0  0  0  0  0
  191.8400  170.9690  135.9700 S   0  0  0  0  0  3  0  0  0  0  0  0
  192.0640  169.4840  136.2320 O   0  0  0  0  0  0  0  0  0  0  0  0
  193.6570  172.3550  137.4670 C   0  0  0  0  0  2  0  0  0  0  0  0
  193.9080  173.8120  137.8810 C   0  0  1  0  0  3  0  0  0  0  0  0
  194.1620  173.9010  139.2500 O   0  0  0  0  0  1  0  0  0  0  0  0
  195.0070  174.3910  137.1230 N   0  0  0  0  0  2  0  0  0  0  0  0
  193.3420  175.3580  135.6390 C   0  0  0  0  0  1  0  0  0  0  0  0
  194.5290  175.6330  136.5360 C   0  0  0  0  0  2  0  0  0  0  0  0
  190.7130  177.0360  143.4970 N   0  0  0  0  0  2  0  0  0  0  0  0
  191.3650  175.8810  143.9670 N   0  0  0  0  0  2  0  0  0  0  0  0
  191.5870  176.0440  145.4050 C   0  0  1  0  0  3  0  0  0  0  0  0
  188.3910  177.7230  146.5790 C   0  0  0  0  0  3  0  0  0  0  0  0
  187.6890  176.6470  147.1460 C   0  0  0  0  0  0  0  0  0  0  0  0
  188.3330  175.4010  147.2510 C   0  0  0  0  0  3  0  0  0  0  0  0
  189.6180  175.2190  146.7240 C   0  0  0  0  0  3  0  0  0  0  0  0
  190.2850  176.2840  146.1100 C   0  0  0  0  0  0  0  0  0  0  0  0
  189.6710  177.5430  146.0510 C   0  0  0  0  0  3  0  0  0  0  0  0
  185.2750  176.5370  146.4930 C   0  0  0  0  0  2  0  0  0  0  0  0
  186.2640  176.8420  147.6130 C   0  0  2  0  0  3  0  0  0  0  0  0
  184.8220  178.6670  147.3930 C   0  0  0  0  0  2  0  0  0  0  0  0
  186.0600  178.2300  148.0250 N   0  0  0  0  0  2  0  0  0  0  0  0
  184.6590  177.8610  146.1380 C   0  0  0  0  0  2  0  0  0  0  0  0
  192.2190  174.8470  145.9550 N   0  0  0  0  0  2  0  0  0  0  0  0
  193.5490  174.7310  145.3840 C   0  0  0  0  0  2  0  0  0  0  0  0
  194.1070  173.4280  145.7170 N   0  0  0  0  0  2  0  0  0  0  0  0
  193.5700  172.5050  144.8060 N   0  0  0  0  0  2  0  0  0  0  0  0
  194.6220  171.5390  144.4990 C   0  0  2  0  0  3  0  0  0  0  0  0
  195.2280  170.9420  145.7720 C   0  0  2  0  0  3  0  0  0  0  0  0
  196.7470  170.9890  145.7280 C   0  0  0  0  0  1  0  0  0  0  0  0
  194.0070  168.8050  145.1030 N   0  0  0  0  0  1  0  0  0  0  0  0
  194.7390  169.5530  146.0700 C   0  0  0  0  0  0  0  0  0  0  0  0
  194.9430  169.0520  147.2100 O   0  0  0  0  0  0  0  0  0  0  0  0
  195.6840  172.1560  143.6010 C   0  0  0  0  0  2  0  0  0  0  0  0
  195.0620  172.8310  142.5530 O   0  0  0  0  0  1  0  0  0  0  0  0
  1  5  1  0  0  0  0
  3  8  1  6  0  0  0
  3  1  1  0  0  0  0
  3  6  1  0  0  0  0
  5  7  1  0  0  0  0
  5 31  1  1  0  0  0
  6  2  1  0  0  0  0
  6  4  1  1  0  0  0
  7  2  1  0  0  0  0
  9  8  2  0  0  0  0
 10  8  1  0  0  0  0
 11 10  1  0  0  0  0
 12 11  1  0  0  0  0
 12 13  2  0  0  0  0
 14 15  1  6  0  0  0
 14 12  1  0  0  0  0
 16 14  1  0  0  0  0
 16 17  1  0  0  0  0
 18 25  1  6  0  0  0
 18 17  1  0  0  0  0
 18 19  1  0  0  0  0
 19 20  1  0  0  0  0
 20 21  1  0  0  0  0
 22 20  2  0  0  0  0
 23 24  2  0  0  0  0
 23 18  1  0  0  0  0
 25 26  1  0  0  0  0
 26 27  1  1  0  0  0
 28 26  1  0  0  0  0
 29 30  1  0  0  0  0
 30 28  1  0  0  0  0
 31 32  1  0  0  0  0
 33 32  1  6  0  0  0
 33 45  1  0  0  0  0
 33 38  1  0  0  0  0
 34 35  1  0  0  0  0
 35 36  2  0  0  0  0
 37 36  1  0  0  0  0
 38 37  2  0  0  0  0
 39 38  1  0  0  0  0
 39 34  2  0  0  0  0
 40 41  1  0  0  0  0
 41 35  1  6  0  0  0
 41 43  1  0  0  0  0
 42 43  1  0  0  0  0
 44 40  1  0  0  0  0
 44 42  1  0  0  0  0
 46 47  1  0  0  0  0
 46 45  1  0  0  0  0
 48 47  1  0  0  0  0
 49 55  1  1  0  0  0
 49 48  1  0  0  0  0
 49 50  1  0  0  0  0
 50 51  1  6  0  0  0
 50 53  1  0  0  0  0
 52 53  1  0  0  0  0
 53 54  2  0  0  0  0
 56 55  1  0  0  0  0
M  END
>  <MODEL>
8

>  <REMARK>
 VINA RESULT:      -4.7      2.832      7.496
  Name = 
  25 active torsions:
  status: ('A' for Active; 'I' for Inactive)
    1  A    between atoms: C_1  and  C_17
    2  A    between atoms: C_3  and  C_38
    3  A    between atoms: C_3  and  C_52
    4  A    between atoms: N_4  and  C_16
    5  A    between atoms: N_4  and  N_26
    6  A    between atoms: C_5  and  C_17
    7  A    between atoms: C_5  and  C_36
    8  A    between atoms: C_8  and  C_20
    9  A    between atoms: N_12  and  C_52
   10  A    between atoms: C_14  and  N_24
   11  A    between atoms: C_15  and  C_38
   12  A    between atoms: C_15  and  C_44
   13  A    between atoms: C_16  and  N_48
   14  A    between atoms: C_17  and  N_26
   15  A    between atoms: C_18  and  C_22
   16  A    between atoms: N_24  and  C_43
   17  A    between atoms: N_27  and  N_28
   18  A    between atoms: C_29  and  N_39
   19  A    between atoms: N_30  and  C_34
   20  A    between atoms: N_30  and  N_39
   21  A    between atoms: S_31  and  C_52
   22  A    between atoms: C_34  and  C_45
   23  A    between atoms: C_34  and  N_48
   24  A    between atoms: C_37  and  C_43
   25  A    between atoms: C_37  and  C_52
                            x       y       z     vdW  Elec       q    Type
                         _______ _______ _______ _____ _____    ______ ____

>  <TORSDO>
F 25

$$$$
=
 OpenBabel11042419533D

 56 58  0  0  1  0  0  0  0  0999 V2000
  193.8370  173.7550  145.8870 C   0  0  0  0  0  2  0  0  0  0  0  0
  196.3580  174.8640  145.2880 C   0  0  0  0  0  2  0  0  0  0  0  0
  194.9780  172.7410  145.7470 C   0  0  2  0  0  3  0  0  0  0  0  0
  197.0370  173.2210  146.8670 F   0  0  0  0  0  0  0  0  0  0  0  0
  193.8800  174.9160  144.8660 C   0  0  2  0  0  3  0  0  0  0  0  0
  196.3770  173.3800  145.6650 C   0  0  2  0  0  3  0  0  0  0  0  0
  195.2680  175.1220  144.2500 C   0  0  0  0  0  2  0  0  0  0  0  0
  194.7780  171.7830  144.6130 C   0  0  0  0  0  0  0  0  0  0  0  0
  193.6230  171.4950  144.2120 O   0  0  0  0  0  0  0  0  0  0  0  0
  195.9200  171.3190  143.8970 N   0  0  0  0  0  2  0  0  0  0  0  0
  195.8010  170.6570  142.6660 N   0  0  0  0  0  2  0  0  0  0  0  0
  196.8740  170.6900  141.7270 C   0  0  0  0  0  0  0  0  0  0  0  0
  197.8850  171.4070  141.9580 O   0  0  0  0  0  0  0  0  0  0  0  0
  196.7530  169.9110  140.4510 C   0  0  1  0  0  3  0  0  0  0  0  0
  195.5550  169.0910  140.4580 N   0  0  0  0  0  1  0  0  0  0  0  0
  196.8260  170.7720  139.1860 C   0  0  0  0  0  2  0  0  0  0  0  0
  195.4440  171.2210  138.7110 C   0  0  0  0  0  2  0  0  0  0  0  0
  195.4830  172.3410  137.6650 C   0  0  1  0  0  0  0  0  0  0  0  0
  195.3920  171.7570  136.3210 N   0  0  0  0  0  2  0  0  0  0  0  0
  194.7660  170.5220  135.9480 C   0  0  0  0  0  0  0  0  0  0  0  0
  195.1310  169.9420  134.9000 O   0  0  0  0  0  0  0  0  0  0  0  0
  193.8020  169.9280  136.7520 O   0  0  0  0  0  1  0  0  0  0  0  0
  194.1540  173.5400  137.9800 S   0  0  0  0  0  3  0  0  0  0  0  0
  192.9910  173.1200  137.0890 O   0  0  0  0  0  0  0  0  0  0  0  0
  196.8390  173.0460  137.8710 C   0  0  0  0  0  2  0  0  0  0  0  0
  196.8490  174.4210  138.5510 C   0  0  1  0  0  3  0  0  0  0  0  0
  197.2330  174.3100  139.8870 O   0  0  0  0  0  1  0  0  0  0  0  0
  197.7220  175.3490  137.8480 N   0  0  0  0  0  2  0  0  0  0  0  0
  197.9280  174.9870  135.4530 C   0  0  0  0  0  1  0  0  0  0  0  0
  197.1160  175.6290  136.5550 C   0  0  0  0  0  2  0  0  0  0  0  0
  193.4630  176.1670  145.4950 N   0  0  0  0  0  2  0  0  0  0  0  0
  192.5600  176.8200  144.6350 N   0  0  0  0  0  2  0  0  0  0  0  0
  191.4460  175.9080  144.3760 C   0  0  1  0  0  3  0  0  0  0  0  0
  188.2820  177.5950  145.6220 C   0  0  0  0  0  3  0  0  0  0  0  0
  187.8750  176.7270  146.6480 C   0  0  0  0  0  0  0  0  0  0  0  0
  188.7200  175.6610  147.0060 C   0  0  0  0  0  3  0  0  0  0  0  0
  189.9020  175.4230  146.2940 C   0  0  0  0  0  3  0  0  0  0  0  0
  190.2700  176.2610  145.2360 C   0  0  0  0  0  0  0  0  0  0  0  0
  189.4600  177.3580  144.9110 C   0  0  0  0  0  3  0  0  0  0  0  0
  185.3880  176.7200  146.3610 C   0  0  0  0  0  2  0  0  0  0  0  0
  186.5440  176.9430  147.3320 C   0  0  2  0  0  3  0  0  0  0  0  0
  185.1530  178.8190  147.4060 C   0  0  0  0  0  2  0  0  0  0  0  0
  186.4550  178.3160  147.8270 N   0  0  0  0  0  2  0  0  0  0  0  0
  184.7760  178.0780  146.1580 C   0  0  0  0  0  2  0  0  0  0  0  0
  191.0530  175.9790  142.9700 N   0  0  0  0  0  2  0  0  0  0  0  0
  192.1940  175.5970  142.1580 C   0  0  0  0  0  2  0  0  0  0  0  0
  191.8810  174.3770  141.4270 N   0  0  0  0  0  2  0  0  0  0  0  0
  190.4900  174.3520  141.2420 N   0  0  0  0  0  2  0  0  0  0  0  0
  190.0960  172.9520  141.1150 C   0  0  2  0  0  3  0  0  0  0  0  0
  189.8690  172.5600  139.6530 C   0  0  2  0  0  3  0  0  0  0  0  0
  188.4220  172.7840  139.2450 C   0  0  0  0  0  1  0  0  0  0  0  0
  190.6780  170.7810  138.0130 N   0  0  0  0  0  1  0  0  0  0  0  0
  190.3090  171.1580  139.3370 C   0  0  0  0  0  0  0  0  0  0  0  0
  190.3150  170.2870  140.2500 O   0  0  0  0  0  0  0  0  0  0  0  0
  188.8820  172.6460  141.9790 C   0  0  0  0  0  2  0  0  0  0  0  0
  188.1540  173.8180  142.1790 O   0  0  0  0  0  1  0  0  0  0  0  0
  2  6  1  0  0  0  0
  3  8  1  6  0  0  0
  3  1  1  0  0  0  0
  5 31  1  1  0  0  0
  5  1  1  0  0  0  0
  6  3  1  0  0  0  0
  6  4  1  1  0  0  0
  7  5  1  0  0  0  0
  7  2  1  0  0  0  0
  9  8  2  0  0  0  0
 10  8  1  0  0  0  0
 11 10  1  0  0  0  0
 12 13  2  0  0  0  0
 12 11  1  0  0  0  0
 14 15  1  1  0  0  0
 14 12  1  0  0  0  0
 16 14  1  0  0  0  0
 17 16  1  0  0  0  0
 18 25  1  1  0  0  0
 18 23  1  0  0  0  0
 18 17  1  0  0  0  0
 19 18  1  0  0  0  0
 20 19  1  0  0  0  0
 20 22  1  0  0  0  0
 21 20  2  0  0  0  0
 24 23  2  0  0  0  0
 25 26  1  0  0  0  0
 26 27  1  1  0  0  0
 28 26  1  0  0  0  0
 29 30  1  0  0  0  0
 30 28  1  0  0  0  0
 32 31  1  0  0  0  0
 33 45  1  6  0  0  0
 33 32  1  0  0  0  0
 33 38  1  0  0  0  0
 34 35  1  0  0  0  0
 35 36  2  0  0  0  0
 37 36  1  0  0  0  0
 38 37  2  0  0  0  0
 39 38  1  0  0  0  0
 39 34  2  0  0  0  0
 40 41  1  0  0  0  0
 41 35  1  6  0  0  0
 41 43  1  0  0  0  0
 42 43  1  0  0  0  0
 44 40  1  0  0  0  0
 44 42  1  0  0  0  0
 46 45  1  0  0  0  0
 47 46  1  0  0  0  0
 48 47  1  0  0  0  0
 49 48  1  0  0  0  0
 49 55  1  1  0  0  0
 50 51  1  1  0  0  0
 50 49  1  0  0  0  0
 52 53  1  0  0  0  0
 53 50  1  0  0  0  0
 53 54  2  0  0  0  0
 55 56  1  0  0  0  0
M  END
>  <MODEL>
9

>  <REMARK>
 VINA RESULT:      -4.7      2.879      7.026
  Name = 
  25 active torsions:
  status: ('A' for Active; 'I' for Inactive)
    1  A    between atoms: C_1  and  C_17
    2  A    between atoms: C_3  and  C_38
    3  A    between atoms: C_3  and  C_52
    4  A    between atoms: N_4  and  C_16
    5  A    between atoms: N_4  and  N_26
    6  A    between atoms: C_5  and  C_17
    7  A    between atoms: C_5  and  C_36
    8  A    between atoms: C_8  and  C_20
    9  A    between atoms: N_12  and  C_52
   10  A    between atoms: C_14  and  N_24
   11  A    between atoms: C_15  and  C_38
   12  A    between atoms: C_15  and  C_44
   13  A    between atoms: C_16  and  N_48
   14  A    between atoms: C_17  and  N_26
   15  A    between atoms: C_18  and  C_22
   16  A    between atoms: N_24  and  C_43
   17  A    between atoms: N_27  and  N_28
   18  A    between atoms: C_29  and  N_39
   19  A    between atoms: N_30  and  C_34
   20  A    between atoms: N_30  and  N_39
   21  A    between atoms: S_31  and  C_52
   22  A    between atoms: C_34  and  C_45
   23  A    between atoms: C_34  and  N_48
   24  A    between atoms: C_37  and  C_43
   25  A    between atoms: C_37  and  C_52
                            x       y       z     vdW  Elec       q    Type
                         _______ _______ _______ _____ _____    ______ ____

>  <TORSDO>
F 25

$$$$
