=
 OpenBabel11042418033D

 45 50  0  0  1  0  0  0  0  0999 V2000
  194.0180  173.8020  142.7760 C   0  0  2  0  0  3  0  0  0  0  0  0
  195.1910  172.8210  142.5960 C   0  0  1  0  0  3  0  0  0  0  0  0
  194.7460  173.7210  141.4550 C   0  0  1  0  0  3  0  0  0  0  0  0
  194.3490  175.1460  143.4090 C   0  0  1  0  0  3  0  0  0  0  0  0
  193.4670  176.1160  142.9870 C   0  0  0  0  0  2  0  0  0  0  0  0
  192.5270  175.3920  145.5590 C   0  0  0  0  0  0  0  0  0  0  0  0
  192.9020  174.5450  146.4090 O   0  0  0  0  0  0  0  0  0  0  0  0
  193.2440  175.5250  144.3370 N   0  0  0  0  0  0  0  0  0  0  0  0
  191.2990  176.2200  145.8290 C   0  0  1  0  0  3  0  0  0  0  0  0
  190.7600  176.1080  147.2250 C   0  0  0  0  0  0  0  0  0  0  0  0
  191.2900  176.8750  148.2590 O   0  0  0  0  0  1  0  0  0  0  0  0
  189.8390  175.2880  147.4690 O   0  0  0  0  0  0  0  0  0  0  0  0
  190.1450  177.8340  144.6680 C   0  0  0  0  0  1  0  0  0  0  0  0
  191.3510  177.5370  145.3280 O   0  0  0  0  0  0  0  0  0  0  0  0
  193.9440  172.8920  140.4760 C   0  0  0  0  0  2  0  0  0  0  0  0
  192.5740  172.6150  141.0690 C   0  0  0  0  0  2  0  0  0  0  0  0
  190.2340  172.9450  140.2690 C   0  0  0  0  0  3  0  0  0  0  0  0
  191.5240  172.6960  140.0060 C   0  0  0  0  0  3  0  0  0  0  0  0
  188.2590  172.7250  141.7360 C   0  0  0  0  0  3  0  0  0  0  0  0
  190.4570  175.4570  142.0170 O   0  0  0  0  0  0  0  0  0  0  0  0
  187.4460  173.7110  141.9610 N   0  0  0  0  0  0  0  0  0  0  0  0
  188.1530  174.9080  142.0720 N   0  0  0  0  0  0  0  0  0  0  0  0
  189.5270  174.6120  141.9120 C   0  0  0  0  0  0  0  0  0  0  0  0
  189.7040  173.1600  141.6580 C   0  0  2  0  0  3  0  0  0  0  0  0
  187.5630  176.1680  142.4170 C   0  0  0  0  0  0  0  0  0  0  0  0
  186.6500  177.8050  143.5220 N   0  0  0  0  0  0  0  0  0  0  0  0
  186.0930  178.6110  144.5680 C   0  0  0  0  0  0  0  0  0  0  0  0
  186.6890  178.1740  142.2500 N   0  0  0  0  0  0  0  0  0  0  0  0
  187.2480  177.1780  141.5300 C   0  0  0  0  0  3  0  0  0  0  0  0
  187.1740  176.5730  143.6740 C   0  0  0  0  0  3  0  0  0  0  0  0
  185.5720  179.7240  144.2860 O   0  0  0  0  0  0  0  0  0  0  0  0
  184.9890  178.8460  146.7530 C   0  0  0  0  0  2  0  0  0  0  0  0
  186.0770  178.1180  145.9860 C   0  0  0  0  0  3  0  0  0  0  0  0
  184.7700  177.4160  146.3120 C   0  0  0  0  0  2  0  0  0  0  0  0
  196.5370  173.2000  143.2780 C   0  0  1  0  0  3  0  0  0  0  0  0
  197.2000  173.6440  145.7940 C   0  0  0  0  0  2  0  0  0  0  0  0
  196.9500  172.6680  144.6680 C   0  0  0  0  0  0  0  0  0  0  0  0
  195.9280  172.7980  145.7730 C   0  0  0  0  0  2  0  0  0  0  0  0
  197.7600  171.3820  144.7480 C   0  0  0  0  0  2  0  0  0  0  0  0
  197.0380  170.3440  145.5790 C   0  0  0  0  0  2  0  0  0  0  0  0
  196.2380  169.4340  144.6720 C   0  0  0  0  0  2  0  0  0  0  0  0
  194.7170  168.9050  145.5100 S   0  0  0  0  0  0  0  0  0  0  0  0
  193.6730  169.9390  144.4390 C   0  0  0  0  0  1  0  0  0  0  0  0
  197.9350  174.6630  142.3620 C   0  0  0  0  0  1  0  0  0  0  0  0
  197.6170  173.3030  142.3930 O   0  0  0  0  0  0  0  0  0  0  0  0
  1  4  1  1  0  0  0
  2  1  1  0  0  0  0
  2 35  1  1  0  0  0
  3 15  1  6  0  0  0
  3  2  1  0  0  0  0
  3  1  1  0  0  0  0
  4  5  1  6  0  0  0
  4  8  1  0  0  0  0
  5  8  1  0  0  0  0
  6  9  1  0  0  0  0
  6  7  2  0  0  0  0
  8  6  1  0  0  0  0
  9 14  1  1  0  0  0
  9 10  1  0  0  0  0
 10 12  2  0  0  0  0
 10 11  1  0  0  0  0
 13 14  1  0  0  0  0
 15 16  1  0  0  0  0
 18 17  2  0  0  0  0
 18 16  1  0  0  0  0
 19 21  2  0  0  0  0
 21 22  1  0  0  0  0
 22 25  1  0  0  0  0
 23 20  2  0  0  0  0
 23 22  1  0  0  0  0
 24 17  1  6  0  0  0
 24 19  1  0  0  0  0
 24 23  1  0  0  0  0
 25 30  2  0  0  0  0
 26 30  1  0  0  0  0
 26 27  1  0  0  0  0
 27 33  1  0  0  0  0
 28 26  1  0  0  0  0
 29 28  2  0  0  0  0
 29 25  1  0  0  0  0
 31 27  2  0  0  0  0
 33 34  1  0  0  0  0
 33 32  1  0  0  0  0
 34 32  1  0  0  0  0
 35 45  1  6  0  0  0
 35 37  1  0  0  0  0
 37 39  1  0  0  0  0
 37 38  1  0  0  0  0
 37 36  1  0  0  0  0
 38 36  1  0  0  0  0
 39 40  1  0  0  0  0
 41 42  1  0  0  0  0
 41 40  1  0  0  0  0
 43 42  1  0  0  0  0
 44 45  1  0  0  0  0
M  END
>  <MODEL>
1

>  <REMARK>
 VINA RESULT:      -6.0      0.000      0.000
  Name = 
  17 active torsions:
  status: ('A' for Active; 'I' for Inactive)
    1  A    between atoms: C_1  and  C_22
    2  A    between atoms: C_1  and  C_29
    3  A    between atoms: C_3  and  C_45
    4  A    between atoms: C_6  and  N_34
    5  A    between atoms: C_7  and  C_13
    6  A    between atoms: C_8  and  C_39
    7  A    between atoms: C_14  and  C_35
    8  A    between atoms: C_15  and  C_19
    9  A    between atoms: C_20  and  C_29
   10  A    between atoms: C_21  and  C_39
   11  A    between atoms: C_24  and  C_36
   12  A    between atoms: C_24  and  C_43
   13  A    between atoms: S_25  and  C_43
   14  A    between atoms: C_31  and  C_35
   15  A    between atoms: C_31  and  C_36
   16  A    between atoms: C_35  and  O_37
   17  A    between atoms: C_39  and  O_42
                            x       y       z     vdW  Elec       q    Type
                         _______ _______ _______ _____ _____    ______ ____

>  <TORSDO>
F 17

$$$$
=
 OpenBabel11042418033D

 45 50  0  0  1  0  0  0  0  0999 V2000
  186.7090  176.2260  143.6070 C   0  0  2  0  0  3  0  0  0  0  0  0
  185.6440  177.3010  143.8920 C   0  0  1  0  0  3  0  0  0  0  0  0
  186.9710  177.3040  144.6320 C   0  0  1  0  0  3  0  0  0  0  0  0
  187.6270  176.4800  142.4200 C   0  0  1  0  0  3  0  0  0  0  0  0
  188.9280  176.6620  142.8370 C   0  0  0  0  0  2  0  0  0  0  0  0
  188.8590  173.9820  141.9220 C   0  0  0  0  0  0  0  0  0  0  0  0
  187.9470  173.2490  141.4610 O   0  0  0  0  0  0  0  0  0  0  0  0
  188.5640  175.3270  142.2830 N   0  0  0  0  0  0  0  0  0  0  0  0
  190.2360  173.4110  142.1270 C   0  0  1  0  0  3  0  0  0  0  0  0
  190.2910  172.2050  143.0190 C   0  0  0  0  0  0  0  0  0  0  0  0
  190.4900  172.3400  144.3910 O   0  0  0  0  0  1  0  0  0  0  0  0
  190.1890  171.0570  142.5160 O   0  0  0  0  0  0  0  0  0  0  0  0
  192.3620  173.5510  141.2650 C   0  0  0  0  0  1  0  0  0  0  0  0
  191.0130  173.3050  140.9550 O   0  0  0  0  0  0  0  0  0  0  0  0
  186.7440  176.7540  146.0230 C   0  0  0  0  0  2  0  0  0  0  0  0
  188.0360  176.1370  146.5290 C   0  0  0  0  0  2  0  0  0  0  0  0
  190.3750  176.9880  146.3600 C   0  0  0  0  0  3  0  0  0  0  0  0
  189.0890  177.1910  146.6760 C   0  0  0  0  0  3  0  0  0  0  0  0
  191.7050  174.9780  146.8980 C   0  0  0  0  0  3  0  0  0  0  0  0
  191.8240  176.4550  143.7090 O   0  0  0  0  0  0  0  0  0  0  0  0
  192.9620  174.8720  146.5930 N   0  0  0  0  0  0  0  0  0  0  0  0
  193.2080  175.4460  145.3450 N   0  0  0  0  0  0  0  0  0  0  0  0
  191.9770  175.9320  144.8450 C   0  0  0  0  0  0  0  0  0  0  0  0
  190.8980  175.6820  145.8330 C   0  0  2  0  0  3  0  0  0  0  0  0
  194.4730  175.4090  144.6720 C   0  0  0  0  0  0  0  0  0  0  0  0
  196.0160  175.4400  143.1380 N   0  0  0  0  0  0  0  0  0  0  0  0
  196.6970  175.5190  141.8790 C   0  0  0  0  0  0  0  0  0  0  0  0
  196.6220  175.1820  144.2880 N   0  0  0  0  0  0  0  0  0  0  0  0
  195.6930  175.1520  145.2670 C   0  0  0  0  0  3  0  0  0  0  0  0
  194.6890  175.5840  143.3250 C   0  0  0  0  0  3  0  0  0  0  0  0
  197.9380  175.3000  141.8290 O   0  0  0  0  0  0  0  0  0  0  0  0
  196.7830  175.3960  139.4240 C   0  0  0  0  0  2  0  0  0  0  0  0
  195.9380  175.8050  140.6160 C   0  0  0  0  0  3  0  0  0  0  0  0
  195.6230  174.5270  139.8590 C   0  0  0  0  0  2  0  0  0  0  0  0
  185.4600  178.4120  142.8180 C   0  0  1  0  0  3  0  0  0  0  0  0
  184.7360  178.9800  140.3440 C   0  0  0  0  0  2  0  0  0  0  0  0
  184.4440  178.2980  141.6610 C   0  0  0  0  0  0  0  0  0  0  0  0
  184.8620  177.4630  140.4740 C   0  0  0  0  0  2  0  0  0  0  0  0
  182.9660  178.1670  141.9960 C   0  0  0  0  0  2  0  0  0  0  0  0
  182.1370  178.0510  140.7360 C   0  0  0  0  0  2  0  0  0  0  0  0
  180.9190  178.9440  140.8440 C   0  0  0  0  0  2  0  0  0  0  0  0
  179.4510  177.9480  141.2220 S   0  0  0  0  0  0  0  0  0  0  0  0
  178.5590  179.3770  141.9080 C   0  0  0  0  0  1  0  0  0  0  0  0
  184.7890  179.7220  144.4820 C   0  0  0  0  0  1  0  0  0  0  0  0
  185.5670  179.7150  143.3210 O   0  0  0  0  0  0  0  0  0  0  0  0
  1  4  1  6  0  0  0
  1  2  1  0  0  0  0
  1  3  1  0  0  0  0
  2 35  1  6  0  0  0
  2  3  1  0  0  0  0
  3 15  1  1  0  0  0
  4  5  1  1  0  0  0
  6  9  1  0  0  0  0
  6  8  1  0  0  0  0
  7  6  2  0  0  0  0
  8  4  1  0  0  0  0
  8  5  1  0  0  0  0
  9 14  1  6  0  0  0
  9 10  1  0  0  0  0
 10 11  1  0  0  0  0
 12 10  2  0  0  0  0
 14 13  1  0  0  0  0
 15 16  1  0  0  0  0
 16 18  1  0  0  0  0
 17 18  2  0  0  0  0
 20 23  2  0  0  0  0
 21 19  2  0  0  0  0
 22 21  1  0  0  0  0
 23 22  1  0  0  0  0
 23 24  1  0  0  0  0
 24 17  1  1  0  0  0
 24 19  1  0  0  0  0
 25 29  1  0  0  0  0
 25 22  1  0  0  0  0
 26 30  1  0  0  0  0
 26 28  1  0  0  0  0
 27 26  1  0  0  0  0
 28 29  2  0  0  0  0
 30 25  2  0  0  0  0
 31 27  2  0  0  0  0
 32 34  1  0  0  0  0
 32 33  1  0  0  0  0
 33 27  1  0  0  0  0
 34 33  1  0  0  0  0
 35 45  1  1  0  0  0
 36 38  1  0  0  0  0
 36 37  1  0  0  0  0
 37 39  1  0  0  0  0
 37 35  1  0  0  0  0
 38 37  1  0  0  0  0
 40 41  1  0  0  0  0
 40 39  1  0  0  0  0
 41 42  1  0  0  0  0
 42 43  1  0  0  0  0
 45 44  1  0  0  0  0
M  END
>  <MODEL>
2

>  <REMARK>
 VINA RESULT:      -5.6      3.843     10.559
  Name = 
  17 active torsions:
  status: ('A' for Active; 'I' for Inactive)
    1  A    between atoms: C_1  and  C_22
    2  A    between atoms: C_1  and  C_29
    3  A    between atoms: C_3  and  C_45
    4  A    between atoms: C_6  and  N_34
    5  A    between atoms: C_7  and  C_13
    6  A    between atoms: C_8  and  C_39
    7  A    between atoms: C_14  and  C_35
    8  A    between atoms: C_15  and  C_19
    9  A    between atoms: C_20  and  C_29
   10  A    between atoms: C_21  and  C_39
   11  A    between atoms: C_24  and  C_36
   12  A    between atoms: C_24  and  C_43
   13  A    between atoms: S_25  and  C_43
   14  A    between atoms: C_31  and  C_35
   15  A    between atoms: C_31  and  C_36
   16  A    between atoms: C_35  and  O_37
   17  A    between atoms: C_39  and  O_42
                            x       y       z     vdW  Elec       q    Type
                         _______ _______ _______ _____ _____    ______ ____

>  <TORSDO>
F 17

$$$$
=
 OpenBabel11042418033D

 45 50  0  0  1  0  0  0  0  0999 V2000
  194.1590  174.0770  144.1060 C   0  0  2  0  0  3  0  0  0  0  0  0
  195.3810  173.3140  143.5620 C   0  0  1  0  0  3  0  0  0  0  0  0
  194.0760  173.3520  142.7830 C   0  0  1  0  0  3  0  0  0  0  0  0
  194.1120  175.5710  143.8200 C   0  0  1  0  0  3  0  0  0  0  0  0
  193.1270  175.8640  142.9020 C   0  0  0  0  0  2  0  0  0  0  0  0
  191.9700  176.5330  145.3990 C   0  0  0  0  0  0  0  0  0  0  0  0
  192.3730  176.4530  146.5880 O   0  0  0  0  0  0  0  0  0  0  0  0
  192.8240  176.1180  144.3390 N   0  0  0  0  0  0  0  0  0  0  0  0
  190.5740  177.0220  145.1220 C   0  0  1  0  0  3  0  0  0  0  0  0
  189.5750  176.7200  146.2000 C   0  0  0  0  0  0  0  0  0  0  0  0
  189.3080  177.6460  147.2060 O   0  0  0  0  0  1  0  0  0  0  0  0
  188.9970  175.6040  146.2140 O   0  0  0  0  0  0  0  0  0  0  0  0
  190.4610  178.2810  143.2020 C   0  0  0  0  0  1  0  0  0  0  0  0
  190.4980  178.3330  144.6070 O   0  0  0  0  0  0  0  0  0  0  0  0
  193.3700  172.0270  142.9670 C   0  0  0  0  0  2  0  0  0  0  0  0
  192.1150  172.0120  142.1120 C   0  0  0  0  0  2  0  0  0  0  0  0
  191.2550  173.5190  140.3200 C   0  0  0  0  0  3  0  0  0  0  0  0
  192.2840  172.9170  140.9320 C   0  0  0  0  0  3  0  0  0  0  0  0
  188.9050  173.5010  139.5600 C   0  0  0  0  0  3  0  0  0  0  0  0
  189.8090  174.8260  142.6900 O   0  0  0  0  0  0  0  0  0  0  0  0
  188.1360  174.5420  139.6510 N   0  0  0  0  0  0  0  0  0  0  0  0
  188.3830  175.2260  140.8420 N   0  0  0  0  0  0  0  0  0  0  0  0
  189.3880  174.5190  141.5420 C   0  0  0  0  0  0  0  0  0  0  0  0
  189.8250  173.3440  140.7480 C   0  0  2  0  0  3  0  0  0  0  0  0
  187.6340  176.3620  141.2930 C   0  0  0  0  0  0  0  0  0  0  0  0
  186.6420  177.8330  142.5520 N   0  0  0  0  0  0  0  0  0  0  0  0
  186.1410  178.5550  143.6850 C   0  0  0  0  0  0  0  0  0  0  0  0
  186.3750  178.1590  141.2950 N   0  0  0  0  0  0  0  0  0  0  0  0
  186.9750  177.2640  140.4820 C   0  0  0  0  0  3  0  0  0  0  0  0
  187.4120  176.7290  142.6010 C   0  0  0  0  0  3  0  0  0  0  0  0
  185.3730  179.5390  143.5060 O   0  0  0  0  0  0  0  0  0  0  0  0
  185.4270  178.6460  146.0370 C   0  0  0  0  0  2  0  0  0  0  0  0
  186.4790  178.1170  145.0800 C   0  0  0  0  0  3  0  0  0  0  0  0
  185.4170  177.1860  145.6390 C   0  0  0  0  0  2  0  0  0  0  0  0
  196.5450  174.1690  142.9840 C   0  0  1  0  0  3  0  0  0  0  0  0
  196.5120  176.3140  141.4460 C   0  0  0  0  0  2  0  0  0  0  0  0
  196.4960  174.8090  141.5790 C   0  0  0  0  0  0  0  0  0  0  0  0
  197.7560  175.4950  141.1050 C   0  0  0  0  0  2  0  0  0  0  0  0
  195.7570  174.0780  140.4680 C   0  0  0  0  0  2  0  0  0  0  0  0
  194.9910  175.0530  139.6020 C   0  0  0  0  0  2  0  0  0  0  0  0
  195.3220  174.8080  138.1450 C   0  0  0  0  0  2  0  0  0  0  0  0
  195.9830  173.1310  137.9330 S   0  0  0  0  0  0  0  0  0  0  0  0
  194.4620  172.5490  137.1230 C   0  0  0  0  0  1  0  0  0  0  0  0
  197.7810  174.0980  144.8280 C   0  0  0  0  0  1  0  0  0  0  0  0
  197.1790  174.9840  143.9300 O   0  0  0  0  0  0  0  0  0  0  0  0
  1  4  1  6  0  0  0
  2 35  1  6  0  0  0
  2  1  1  0  0  0  0
  3 15  1  1  0  0  0
  3  2  1  0  0  0  0
  3  1  1  0  0  0  0
  4  5  1  6  0  0  0
  4  8  1  0  0  0  0
  5  8  1  0  0  0  0
  6  7  2  0  0  0  0
  8  6  1  0  0  0  0
  9 14  1  1  0  0  0
  9  6  1  0  0  0  0
  9 10  1  0  0  0  0
 10 12  2  0  0  0  0
 10 11  1  0  0  0  0
 13 14  1  0  0  0  0
 16 15  1  0  0  0  0
 17 18  2  0  0  0  0
 18 16  1  0  0  0  0
 19 21  2  0  0  0  0
 19 24  1  0  0  0  0
 21 22  1  0  0  0  0
 22 25  1  0  0  0  0
 22 23  1  0  0  0  0
 23 20  2  0  0  0  0
 24 17  1  6  0  0  0
 24 23  1  0  0  0  0
 25 30  2  0  0  0  0
 26 30  1  0  0  0  0
 26 27  1  0  0  0  0
 27 33  1  0  0  0  0
 28 26  1  0  0  0  0
 29 25  1  0  0  0  0
 29 28  2  0  0  0  0
 31 27  2  0  0  0  0
 33 34  1  0  0  0  0
 33 32  1  0  0  0  0
 34 32  1  0  0  0  0
 35 45  1  1  0  0  0
 36 37  1  0  0  0  0
 37 35  1  0  0  0  0
 38 36  1  0  0  0  0
 38 37  1  0  0  0  0
 39 37  1  0  0  0  0
 40 39  1  0  0  0  0
 41 40  1  0  0  0  0
 42 41  1  0  0  0  0
 43 42  1  0  0  0  0
 45 44  1  0  0  0  0
M  END
>  <MODEL>
3

>  <REMARK>
 VINA RESULT:      -5.6      2.049      3.179
  Name = 
  17 active torsions:
  status: ('A' for Active; 'I' for Inactive)
    1  A    between atoms: C_1  and  C_22
    2  A    between atoms: C_1  and  C_29
    3  A    between atoms: C_3  and  C_45
    4  A    between atoms: C_6  and  N_34
    5  A    between atoms: C_7  and  C_13
    6  A    between atoms: C_8  and  C_39
    7  A    between atoms: C_14  and  C_35
    8  A    between atoms: C_15  and  C_19
    9  A    between atoms: C_20  and  C_29
   10  A    between atoms: C_21  and  C_39
   11  A    between atoms: C_24  and  C_36
   12  A    between atoms: C_24  and  C_43
   13  A    between atoms: S_25  and  C_43
   14  A    between atoms: C_31  and  C_35
   15  A    between atoms: C_31  and  C_36
   16  A    between atoms: C_35  and  O_37
   17  A    between atoms: C_39  and  O_42
                            x       y       z     vdW  Elec       q    Type
                         _______ _______ _______ _____ _____    ______ ____

>  <TORSDO>
F 17

$$$$
=
 OpenBabel11042418033D

 45 50  0  0  1  0  0  0  0  0999 V2000
  194.2710  173.6970  143.5380 C   0  0  2  0  0  3  0  0  0  0  0  0
  195.6290  174.4030  143.3650 C   0  0  1  0  0  3  0  0  0  0  0  0
  195.4250  173.3600  144.4520 C   0  0  1  0  0  3  0  0  0  0  0  0
  194.0170  172.4900  142.6460 C   0  0  1  0  0  3  0  0  0  0  0  0
  193.0200  171.6960  143.1680 C   0  0  0  0  0  2  0  0  0  0  0  0
  191.7290  173.1870  141.1350 C   0  0  0  0  0  0  0  0  0  0  0  0
  192.1150  174.0860  140.3450 O   0  0  0  0  0  0  0  0  0  0  0  0
  192.6550  172.6120  142.0510 N   0  0  0  0  0  0  0  0  0  0  0  0
  190.2830  172.7680  141.1310 C   0  0  1  0  0  3  0  0  0  0  0  0
  189.5040  173.1840  142.3450 C   0  0  0  0  0  0  0  0  0  0  0  0
  189.5110  172.4050  143.4990 O   0  0  0  0  0  1  0  0  0  0  0  0
  188.8100  174.2310  142.3070 O   0  0  0  0  0  0  0  0  0  0  0  0
  189.5170  171.7520  139.2180 C   0  0  0  0  0  1  0  0  0  0  0  0
  189.6110  172.9730  139.9080 O   0  0  0  0  0  0  0  0  0  0  0  0
  195.2570  174.0750  145.7750 C   0  0  0  0  0  2  0  0  0  0  0  0
  195.0780  175.5600  145.5170 C   0  0  0  0  0  2  0  0  0  0  0  0
  192.7900  176.3580  146.1090 C   0  0  0  0  0  3  0  0  0  0  0  0
  194.0640  176.1290  146.4580 C   0  0  0  0  0  3  0  0  0  0  0  0
  192.4830  177.2620  143.8310 C   0  0  0  0  0  3  0  0  0  0  0  0
  190.0340  175.2440  145.3490 O   0  0  0  0  0  0  0  0  0  0  0  0
  191.3820  177.8330  143.4520 N   0  0  0  0  0  0  0  0  0  0  0  0
  190.2800  177.1720  143.9960 N   0  0  0  0  0  0  0  0  0  0  0  0
  190.7650  176.0900  144.7660 C   0  0  0  0  0  0  0  0  0  0  0  0
  192.2490  176.0750  144.7360 C   0  0  2  0  0  3  0  0  0  0  0  0
  188.9150  177.4910  143.6930 C   0  0  0  0  0  0  0  0  0  0  0  0
  186.7700  177.8160  143.8550 N   0  0  0  0  0  0  0  0  0  0  0  0
  185.4310  177.9120  144.3580 C   0  0  0  0  0  0  0  0  0  0  0  0
  187.0960  178.0210  142.5870 N   0  0  0  0  0  0  0  0  0  0  0  0
  188.4240  177.8250  142.4470 C   0  0  0  0  0  3  0  0  0  0  0  0
  187.8580  177.4830  144.5750 C   0  0  0  0  0  3  0  0  0  0  0  0
  184.4850  178.1700  143.5640 O   0  0  0  0  0  0  0  0  0  0  0  0
  185.4130  178.9180  146.6020 C   0  0  0  0  0  2  0  0  0  0  0  0
  185.1390  177.6550  145.8080 C   0  0  0  0  0  3  0  0  0  0  0  0
  183.9870  178.5140  146.3000 C   0  0  0  0  0  2  0  0  0  0  0  0
  196.5020  173.9640  142.1540 C   0  0  1  0  0  3  0  0  0  0  0  0
  196.4450  176.1980  140.7500 C   0  0  0  0  0  2  0  0  0  0  0  0
  196.4660  174.6880  140.7910 C   0  0  0  0  0  0  0  0  0  0  0  0
  197.7170  175.4340  140.3880 C   0  0  0  0  0  2  0  0  0  0  0  0
  195.7700  174.0090  139.6210 C   0  0  0  0  0  2  0  0  0  0  0  0
  196.6870  173.9350  138.4200 C   0  0  0  0  0  2  0  0  0  0  0  0
  195.9970  174.5400  137.2160 C   0  0  0  0  0  2  0  0  0  0  0  0
  197.0950  175.7400  136.4100 S   0  0  0  0  0  0  0  0  0  0  0  0
  196.1580  175.6720  134.8530 C   0  0  0  0  0  1  0  0  0  0  0  0
  197.8550  172.2050  142.0630 C   0  0  0  0  0  1  0  0  0  0  0  0
  197.7860  173.5290  142.5050 O   0  0  0  0  0  0  0  0  0  0  0  0
  1  4  1  6  0  0  0
  1  3  1  0  0  0  0
  2 35  1  6  0  0  0
  2  1  1  0  0  0  0
  2  3  1  0  0  0  0
  3 15  1  1  0  0  0
  4  5  1  1  0  0  0
  6  8  1  0  0  0  0
  7  6  2  0  0  0  0
  8  4  1  0  0  0  0
  8  5  1  0  0  0  0
  9 14  1  6  0  0  0
  9  6  1  0  0  0  0
  9 10  1  0  0  0  0
 10 11  1  0  0  0  0
 12 10  2  0  0  0  0
 13 14  1  0  0  0  0
 16 15  1  0  0  0  0
 16 18  1  0  0  0  0
 17 18  2  0  0  0  0
 19 24  1  0  0  0  0
 21 19  2  0  0  0  0
 21 22  1  0  0  0  0
 22 23  1  0  0  0  0
 23 20  2  0  0  0  0
 24 23  1  0  0  0  0
 24 17  1  1  0  0  0
 25 22  1  0  0  0  0
 25 30  2  0  0  0  0
 26 27  1  0  0  0  0
 26 30  1  0  0  0  0
 27 33  1  0  0  0  0
 28 26  1  0  0  0  0
 29 28  2  0  0  0  0
 29 25  1  0  0  0  0
 31 27  2  0  0  0  0
 33 34  1  0  0  0  0
 33 32  1  0  0  0  0
 34 32  1  0  0  0  0
 35 45  1  1  0  0  0
 36 37  1  0  0  0  0
 37 35  1  0  0  0  0
 38 36  1  0  0  0  0
 38 37  1  0  0  0  0
 39 37  1  0  0  0  0
 40 39  1  0  0  0  0
 41 40  1  0  0  0  0
 42 41  1  0  0  0  0
 43 42  1  0  0  0  0
 44 45  1  0  0  0  0
M  END
>  <MODEL>
4

>  <REMARK>
 VINA RESULT:      -5.5      2.835      5.302
  Name = 
  17 active torsions:
  status: ('A' for Active; 'I' for Inactive)
    1  A    between atoms: C_1  and  C_22
    2  A    between atoms: C_1  and  C_29
    3  A    between atoms: C_3  and  C_45
    4  A    between atoms: C_6  and  N_34
    5  A    between atoms: C_7  and  C_13
    6  A    between atoms: C_8  and  C_39
    7  A    between atoms: C_14  and  C_35
    8  A    between atoms: C_15  and  C_19
    9  A    between atoms: C_20  and  C_29
   10  A    between atoms: C_21  and  C_39
   11  A    between atoms: C_24  and  C_36
   12  A    between atoms: C_24  and  C_43
   13  A    between atoms: S_25  and  C_43
   14  A    between atoms: C_31  and  C_35
   15  A    between atoms: C_31  and  C_36
   16  A    between atoms: C_35  and  O_37
   17  A    between atoms: C_39  and  O_42
                            x       y       z     vdW  Elec       q    Type
                         _______ _______ _______ _____ _____    ______ ____

>  <TORSDO>
F 17

$$$$
=
 OpenBabel11042418033D

 45 50  0  0  1  0  0  0  0  0999 V2000
  192.7820  172.8210  143.8900 C   0  0  2  0  0  3  0  0  0  0  0  0
  194.2490  172.5720  143.4930 C   0  0  1  0  0  3  0  0  0  0  0  0
  193.7670  172.2970  144.9080 C   0  0  1  0  0  3  0  0  0  0  0  0
  191.7970  171.7040  143.5790 C   0  0  1  0  0  3  0  0  0  0  0  0
  190.5780  171.9460  144.1730 C   0  0  0  0  0  2  0  0  0  0  0  0
  190.2020  172.7230  141.4750 C   0  0  0  0  0  0  0  0  0  0  0  0
  190.9610  172.7610  140.4730 O   0  0  0  0  0  0  0  0  0  0  0  0
  190.7060  172.2510  142.7200 N   0  0  0  0  0  0  0  0  0  0  0  0
  188.7880  173.2210  141.3520 C   0  0  1  0  0  3  0  0  0  0  0  0
  188.5460  174.5820  141.9360 C   0  0  0  0  0  0  0  0  0  0  0  0
  189.5920  175.4880  142.0930 O   0  0  0  0  0  0  0  0  0  0  0  0
  187.3910  174.8970  142.3170 O   0  0  0  0  0  1  0  0  0  0  0  0
  188.4200  174.1410  139.2780 C   0  0  0  0  0  1  0  0  0  0  0  0
  188.1960  173.0150  140.0890 O   0  0  0  0  0  0  0  0  0  0  0  0
  194.2330  173.4260  145.8010 C   0  0  0  0  0  2  0  0  0  0  0  0
  194.7620  174.5560  144.9340 C   0  0  0  0  0  2  0  0  0  0  0  0
  193.5910  176.6940  145.4620 C   0  0  0  0  0  3  0  0  0  0  0  0
  194.6250  175.8630  145.6500 C   0  0  0  0  0  3  0  0  0  0  0  0
  191.9720  177.6920  143.8860 C   0  0  0  0  0  3  0  0  0  0  0  0
  191.0980  174.9690  145.9340 O   0  0  0  0  0  0  0  0  0  0  0  0
  190.7560  177.9850  144.2300 N   0  0  0  0  0  0  0  0  0  0  0  0
  190.2450  177.0110  145.0880 N   0  0  0  0  0  0  0  0  0  0  0  0
  191.2470  176.0280  145.2660 C   0  0  0  0  0  0  0  0  0  0  0  0
  192.4660  176.4070  144.5090 C   0  0  2  0  0  3  0  0  0  0  0  0
  188.8960  176.9850  145.5720 C   0  0  0  0  0  0  0  0  0  0  0  0
  186.7430  177.2430  145.7460 N   0  0  0  0  0  0  0  0  0  0  0  0
  185.3770  177.5890  145.4830 C   0  0  0  0  0  0  0  0  0  0  0  0
  187.1590  176.7040  146.8830 N   0  0  0  0  0  0  0  0  0  0  0  0
  188.4960  176.5310  146.8140 C   0  0  0  0  0  3  0  0  0  0  0  0
  187.7800  177.4380  144.9080 C   0  0  0  0  0  3  0  0  0  0  0  0
  184.5070  177.4140  146.3790 O   0  0  0  0  0  0  0  0  0  0  0  0
  183.7860  179.1110  144.3860 C   0  0  0  0  0  2  0  0  0  0  0  0
  184.9850  178.2060  144.1720 C   0  0  0  0  0  3  0  0  0  0  0  0
  185.1600  179.7150  144.1970 C   0  0  0  0  0  2  0  0  0  0  0  0
  194.5380  171.3190  142.6160 C   0  0  1  0  0  3  0  0  0  0  0  0
  194.8870  172.6230  140.3480 C   0  0  0  0  0  2  0  0  0  0  0  0
  194.5060  171.3530  141.0720 C   0  0  0  0  0  0  0  0  0  0  0  0
  195.8420  171.4310  140.3710 C   0  0  0  0  0  2  0  0  0  0  0  0
  193.4950  170.4820  140.3430 C   0  0  0  0  0  2  0  0  0  0  0  0
  193.8370  170.3780  138.8730 C   0  0  0  0  0  2  0  0  0  0  0  0
  192.6040  170.6600  138.0420 C   0  0  0  0  0  2  0  0  0  0  0  0
  192.7490  172.2870  137.2500 S   0  0  0  0  0  0  0  0  0  0  0  0
  194.0700  171.7160  136.1370 C   0  0  0  0  0  1  0  0  0  0  0  0
  194.9430  169.2400  143.2840 C   0  0  0  0  0  1  0  0  0  0  0  0
  195.5470  170.4900  143.1210 O   0  0  0  0  0  0  0  0  0  0  0  0
  1  4  1  6  0  0  0
  1  3  1  0  0  0  0
  2 35  1  6  0  0  0
  2  1  1  0  0  0  0
  2  3  1  0  0  0  0
  3 15  1  1  0  0  0
  4  5  1  1  0  0  0
  6  8  1  0  0  0  0
  7  6  2  0  0  0  0
  8  4  1  0  0  0  0
  8  5  1  0  0  0  0
  9 14  1  6  0  0  0
  9  6  1  0  0  0  0
  9 10  1  0  0  0  0
 10 11  2  0  0  0  0
 10 12  1  0  0  0  0
 13 14  1  0  0  0  0
 16 18  1  0  0  0  0
 16 15  1  0  0  0  0
 17 18  2  0  0  0  0
 19 21  2  0  0  0  0
 19 24  1  0  0  0  0
 21 22  1  0  0  0  0
 22 23  1  0  0  0  0
 22 25  1  0  0  0  0
 23 20  2  0  0  0  0
 24 23  1  0  0  0  0
 24 17  1  1  0  0  0
 25 29  1  0  0  0  0
 26 28  1  0  0  0  0
 27 26  1  0  0  0  0
 27 31  2  0  0  0  0
 29 28  2  0  0  0  0
 30 25  2  0  0  0  0
 30 26  1  0  0  0  0
 33 34  1  0  0  0  0
 33 32  1  0  0  0  0
 33 27  1  0  0  0  0
 34 32  1  0  0  0  0
 35 45  1  6  0  0  0
 36 38  1  0  0  0  0
 36 37  1  0  0  0  0
 37 35  1  0  0  0  0
 38 37  1  0  0  0  0
 39 37  1  0  0  0  0
 40 39  1  0  0  0  0
 41 40  1  0  0  0  0
 42 41  1  0  0  0  0
 43 42  1  0  0  0  0
 45 44  1  0  0  0  0
M  END
>  <MODEL>
5

>  <REMARK>
 VINA RESULT:      -5.5      2.741      5.336
  Name = 
  17 active torsions:
  status: ('A' for Active; 'I' for Inactive)
    1  A    between atoms: C_1  and  C_22
    2  A    between atoms: C_1  and  C_29
    3  A    between atoms: C_3  and  C_45
    4  A    between atoms: C_6  and  N_34
    5  A    between atoms: C_7  and  C_13
    6  A    between atoms: C_8  and  C_39
    7  A    between atoms: C_14  and  C_35
    8  A    between atoms: C_15  and  C_19
    9  A    between atoms: C_20  and  C_29
   10  A    between atoms: C_21  and  C_39
   11  A    between atoms: C_24  and  C_36
   12  A    between atoms: C_24  and  C_43
   13  A    between atoms: S_25  and  C_43
   14  A    between atoms: C_31  and  C_35
   15  A    between atoms: C_31  and  C_36
   16  A    between atoms: C_35  and  O_37
   17  A    between atoms: C_39  and  O_42
                            x       y       z     vdW  Elec       q    Type
                         _______ _______ _______ _____ _____    ______ ____

>  <TORSDO>
F 17

$$$$
=
 OpenBabel11042418033D

 45 50  0  0  1  0  0  0  0  0999 V2000
  192.9650  172.2100  144.4280 C   0  0  2  0  0  3  0  0  0  0  0  0
  193.8680  171.0160  144.0670 C   0  0  1  0  0  3  0  0  0  0  0  0
  192.9470  171.6380  143.0300 C   0  0  1  0  0  3  0  0  0  0  0  0
  193.6050  173.5890  144.3570 C   0  0  1  0  0  3  0  0  0  0  0  0
  192.9780  174.3730  143.4130 C   0  0  0  0  0  2  0  0  0  0  0  0
  191.8930  175.2500  145.8780 C   0  0  0  0  0  0  0  0  0  0  0  0
  192.0570  174.8900  147.0720 O   0  0  0  0  0  0  0  0  0  0  0  0
  192.6210  174.6000  144.8420 N   0  0  0  0  0  0  0  0  0  0  0  0
  190.8960  176.3320  145.5620 C   0  0  1  0  0  3  0  0  0  0  0  0
  189.8430  176.5450  146.6100 C   0  0  0  0  0  0  0  0  0  0  0  0
  189.7340  177.7620  147.2760 O   0  0  0  0  0  1  0  0  0  0  0  0
  189.0710  175.6000  146.9120 O   0  0  0  0  0  0  0  0  0  0  0  0
  190.9860  177.7300  143.7390 C   0  0  0  0  0  1  0  0  0  0  0  0
  191.4560  177.5210  145.0480 O   0  0  0  0  0  0  0  0  0  0  0  0
  191.7420  170.7380  142.8590 C   0  0  0  0  0  2  0  0  0  0  0  0
  191.2150  170.8800  141.4420 C   0  0  0  0  0  2  0  0  0  0  0  0
  190.9370  173.2190  140.6220 C   0  0  0  0  0  3  0  0  0  0  0  0
  191.7170  172.1500  140.8290 C   0  0  0  0  0  3  0  0  0  0  0  0
  188.6760  173.8030  139.8170 C   0  0  0  0  0  3  0  0  0  0  0  0
  189.6250  174.3360  143.1610 O   0  0  0  0  0  0  0  0  0  0  0  0
  188.1140  174.9410  140.0840 N   0  0  0  0  0  0  0  0  0  0  0  0
  188.4140  175.3350  141.3890 N   0  0  0  0  0  0  0  0  0  0  0  0
  189.2240  174.3300  141.9660 C   0  0  0  0  0  0  0  0  0  0  0  0
  189.4770  173.2550  140.9750 C   0  0  2  0  0  3  0  0  0  0  0  0
  187.8680  176.4960  142.0280 C   0  0  0  0  0  0  0  0  0  0  0  0
  186.9930  177.8470  143.4930 N   0  0  0  0  0  0  0  0  0  0  0  0
  186.4380  178.3920  144.6970 C   0  0  0  0  0  0  0  0  0  0  0  0
  187.0880  178.5210  142.3550 N   0  0  0  0  0  0  0  0  0  0  0  0
  187.6270  177.7120  141.4190 C   0  0  0  0  0  3  0  0  0  0  0  0
  187.4580  176.5920  143.3380 C   0  0  0  0  0  3  0  0  0  0  0  0
  185.9760  179.5660  144.6940 O   0  0  0  0  0  0  0  0  0  0  0  0
  185.4190  178.2350  146.9300 C   0  0  0  0  0  2  0  0  0  0  0  0
  186.3540  177.5610  145.9440 C   0  0  0  0  0  3  0  0  0  0  0  0
  184.9490  177.0230  146.1560 C   0  0  0  0  0  2  0  0  0  0  0  0
  195.3860  171.3090  143.8930 C   0  0  1  0  0  3  0  0  0  0  0  0
  197.0720  170.6020  141.9900 C   0  0  0  0  0  2  0  0  0  0  0  0
  196.0360  171.5680  142.5170 C   0  0  0  0  0  0  0  0  0  0  0  0
  195.6620  170.6170  141.4030 C   0  0  0  0  0  2  0  0  0  0  0  0
  196.2070  173.0040  142.0470 C   0  0  0  0  0  2  0  0  0  0  0  0
  195.3710  173.2700  140.8150 C   0  0  0  0  0  2  0  0  0  0  0  0
  196.0070  174.3750  139.9980 C   0  0  0  0  0  2  0  0  0  0  0  0
  196.6850  175.6490  141.0980 S   0  0  0  0  0  0  0  0  0  0  0  0
  195.0950  176.5280  141.1900 C   0  0  0  0  0  1  0  0  0  0  0  0
  196.7110  171.2230  145.6740 C   0  0  0  0  0  1  0  0  0  0  0  0
  195.9350  172.0990  144.9110 O   0  0  0  0  0  0  0  0  0  0  0  0
  1  4  1  6  0  0  0
  2 35  1  6  0  0  0
  2  1  1  0  0  0  0
  3 15  1  1  0  0  0
  3  2  1  0  0  0  0
  3  1  1  0  0  0  0
  4  5  1  6  0  0  0
  4  8  1  0  0  0  0
  5  8  1  0  0  0  0
  6  7  2  0  0  0  0
  8  6  1  0  0  0  0
  9 14  1  1  0  0  0
  9  6  1  0  0  0  0
  9 10  1  0  0  0  0
 10 12  2  0  0  0  0
 10 11  1  0  0  0  0
 13 14  1  0  0  0  0
 16 15  1  0  0  0  0
 17 18  2  0  0  0  0
 18 16  1  0  0  0  0
 19 21  2  0  0  0  0
 19 24  1  0  0  0  0
 21 22  1  0  0  0  0
 22 23  1  0  0  0  0
 22 25  1  0  0  0  0
 23 20  2  0  0  0  0
 24 17  1  6  0  0  0
 24 23  1  0  0  0  0
 25 30  2  0  0  0  0
 26 27  1  0  0  0  0
 27 33  1  0  0  0  0
 28 26  1  0  0  0  0
 29 25  1  0  0  0  0
 29 28  2  0  0  0  0
 30 26  1  0  0  0  0
 31 27  2  0  0  0  0
 33 34  1  0  0  0  0
 33 32  1  0  0  0  0
 34 32  1  0  0  0  0
 35 45  1  1  0  0  0
 36 37  1  0  0  0  0
 37 35  1  0  0  0  0
 38 36  1  0  0  0  0
 38 37  1  0  0  0  0
 39 37  1  0  0  0  0
 40 39  1  0  0  0  0
 41 40  1  0  0  0  0
 41 42  1  0  0  0  0
 42 43  1  0  0  0  0
 45 44  1  0  0  0  0
M  END
>  <MODEL>
6

>  <REMARK>
 VINA RESULT:      -5.3      1.951      2.963
  Name = 
  17 active torsions:
  status: ('A' for Active; 'I' for Inactive)
    1  A    between atoms: C_1  and  C_22
    2  A    between atoms: C_1  and  C_29
    3  A    between atoms: C_3  and  C_45
    4  A    between atoms: C_6  and  N_34
    5  A    between atoms: C_7  and  C_13
    6  A    between atoms: C_8  and  C_39
    7  A    between atoms: C_14  and  C_35
    8  A    between atoms: C_15  and  C_19
    9  A    between atoms: C_20  and  C_29
   10  A    between atoms: C_21  and  C_39
   11  A    between atoms: C_24  and  C_36
   12  A    between atoms: C_24  and  C_43
   13  A    between atoms: S_25  and  C_43
   14  A    between atoms: C_31  and  C_35
   15  A    between atoms: C_31  and  C_36
   16  A    between atoms: C_35  and  O_37
   17  A    between atoms: C_39  and  O_42
                            x       y       z     vdW  Elec       q    Type
                         _______ _______ _______ _____ _____    ______ ____

>  <TORSDO>
F 17

$$$$
=
 OpenBabel11042418033D

 45 50  0  0  1  0  0  0  0  0999 V2000
  193.2820  172.8330  143.7460 C   0  0  2  0  0  3  0  0  0  0  0  0
  194.7690  172.8810  144.1430 C   0  0  1  0  0  3  0  0  0  0  0  0
  193.7020  172.5160  145.1620 C   0  0  1  0  0  3  0  0  0  0  0  0
  192.7930  171.5420  143.1060 C   0  0  1  0  0  3  0  0  0  0  0  0
  191.4370  171.3830  143.2980 C   0  0  0  0  0  2  0  0  0  0  0  0
  191.6550  172.3510  140.6450 C   0  0  0  0  0  0  0  0  0  0  0  0
  192.6290  172.7050  139.9310 O   0  0  0  0  0  0  0  0  0  0  0  0
  191.8890  171.8830  141.9680 N   0  0  0  0  0  0  0  0  0  0  0  0
  190.2570  172.4710  140.1020 C   0  0  1  0  0  3  0  0  0  0  0  0
  189.5530  173.7490  140.4550 C   0  0  0  0  0  0  0  0  0  0  0  0
  189.9580  174.5100  141.5480 O   0  0  0  0  0  1  0  0  0  0  0  0
  188.5640  174.1190  139.7730 O   0  0  0  0  0  0  0  0  0  0  0  0
  189.9660  170.6770  138.6950 C   0  0  0  0  0  1  0  0  0  0  0  0
  190.1080  172.0750  138.7570 O   0  0  0  0  0  0  0  0  0  0  0  0
  193.4580  173.7160  146.0500 C   0  0  0  0  0  2  0  0  0  0  0  0
  194.4650  174.7990  145.7060 C   0  0  0  0  0  2  0  0  0  0  0  0
  192.9340  176.7610  145.5330 C   0  0  0  0  0  3  0  0  0  0  0  0
  193.9530  176.1370  146.1400 C   0  0  0  0  0  3  0  0  0  0  0  0
  192.3730  177.0930  143.1500 C   0  0  0  0  0  3  0  0  0  0  0  0
  190.0540  175.7120  145.4050 O   0  0  0  0  0  0  0  0  0  0  0  0
  191.2590  177.6360  142.7670 N   0  0  0  0  0  0  0  0  0  0  0  0
  190.2090  177.2190  143.5850 N   0  0  0  0  0  0  0  0  0  0  0  0
  190.7400  176.3280  144.5460 C   0  0  0  0  0  0  0  0  0  0  0  0
  192.2050  176.1900  144.3500 C   0  0  2  0  0  3  0  0  0  0  0  0
  188.8320  177.5580  143.3710 C   0  0  0  0  0  0  0  0  0  0  0  0
  186.7050  177.9080  143.6670 N   0  0  0  0  0  0  0  0  0  0  0  0
  185.4010  178.0140  144.2520 C   0  0  0  0  0  0  0  0  0  0  0  0
  186.9560  178.1240  142.3840 N   0  0  0  0  0  0  0  0  0  0  0  0
  188.2700  177.9130  142.1610 C   0  0  0  0  0  3  0  0  0  0  0  0
  187.8310  177.5520  144.3160 C   0  0  0  0  0  3  0  0  0  0  0  0
  184.4120  178.2930  143.5210 O   0  0  0  0  0  0  0  0  0  0  0  0
  185.4860  179.0060  146.5010 C   0  0  0  0  0  2  0  0  0  0  0  0
  185.1950  177.7420  145.7140 C   0  0  0  0  0  3  0  0  0  0  0  0
  184.0540  178.5740  146.2750 C   0  0  0  0  0  2  0  0  0  0  0  0
  195.6680  171.7100  143.6480 C   0  0  1  0  0  3  0  0  0  0  0  0
  197.3530  170.6750  141.9010 C   0  0  0  0  0  2  0  0  0  0  0  0
  196.7630  171.8920  142.5750 C   0  0  0  0  0  0  0  0  0  0  0  0
  196.3720  171.5740  141.1500 C   0  0  0  0  0  2  0  0  0  0  0  0
  197.7070  173.0790  142.6870 C   0  0  0  0  0  2  0  0  0  0  0  0
  197.2680  174.2030  141.7750 C   0  0  0  0  0  2  0  0  0  0  0  0
  197.0400  175.4590  142.5900 C   0  0  0  0  0  2  0  0  0  0  0  0
  195.9720  176.6060  141.6750 S   0  0  0  0  0  0  0  0  0  0  0  0
  194.9210  175.2580  141.0530 C   0  0  0  0  0  1  0  0  0  0  0  0
  196.9270  171.5180  145.4670 C   0  0  0  0  0  1  0  0  0  0  0  0
  196.0370  170.8100  144.6550 O   0  0  0  0  0  0  0  0  0  0  0  0
  1  4  1  6  0  0  0
  1  2  1  0  0  0  0
  1  3  1  0  0  0  0
  2 35  1  6  0  0  0
  2  3  1  0  0  0  0
  3 15  1  1  0  0  0
  4  5  1  1  0  0  0
  6  8  1  0  0  0  0
  7  6  2  0  0  0  0
  8  4  1  0  0  0  0
  8  5  1  0  0  0  0
  9 14  1  6  0  0  0
  9 10  1  0  0  0  0
  9  6  1  0  0  0  0
 10 11  1  0  0  0  0
 12 10  2  0  0  0  0
 13 14  1  0  0  0  0
 16 15  1  0  0  0  0
 16 18  1  0  0  0  0
 17 18  2  0  0  0  0
 19 24  1  0  0  0  0
 21 19  2  0  0  0  0
 21 22  1  0  0  0  0
 22 23  1  0  0  0  0
 23 20  2  0  0  0  0
 24 23  1  0  0  0  0
 24 17  1  1  0  0  0
 25 22  1  0  0  0  0
 25 30  2  0  0  0  0
 26 27  1  0  0  0  0
 26 30  1  0  0  0  0
 27 33  1  0  0  0  0
 28 26  1  0  0  0  0
 29 28  2  0  0  0  0
 29 25  1  0  0  0  0
 31 27  2  0  0  0  0
 33 34  1  0  0  0  0
 33 32  1  0  0  0  0
 34 32  1  0  0  0  0
 35 45  1  1  0  0  0
 36 37  1  0  0  0  0
 37 39  1  0  0  0  0
 37 35  1  0  0  0  0
 38 36  1  0  0  0  0
 38 37  1  0  0  0  0
 40 41  1  0  0  0  0
 40 39  1  0  0  0  0
 42 41  1  0  0  0  0
 43 42  1  0  0  0  0
 45 44  1  0  0  0  0
M  END
>  <MODEL>
7

>  <REMARK>
 VINA RESULT:      -5.3      2.500      5.021
  Name = 
  17 active torsions:
  status: ('A' for Active; 'I' for Inactive)
    1  A    between atoms: C_1  and  C_22
    2  A    between atoms: C_1  and  C_29
    3  A    between atoms: C_3  and  C_45
    4  A    between atoms: C_6  and  N_34
    5  A    between atoms: C_7  and  C_13
    6  A    between atoms: C_8  and  C_39
    7  A    between atoms: C_14  and  C_35
    8  A    between atoms: C_15  and  C_19
    9  A    between atoms: C_20  and  C_29
   10  A    between atoms: C_21  and  C_39
   11  A    between atoms: C_24  and  C_36
   12  A    between atoms: C_24  and  C_43
   13  A    between atoms: S_25  and  C_43
   14  A    between atoms: C_31  and  C_35
   15  A    between atoms: C_31  and  C_36
   16  A    between atoms: C_35  and  O_37
   17  A    between atoms: C_39  and  O_42
                            x       y       z     vdW  Elec       q    Type
                         _______ _______ _______ _____ _____    ______ ____

>  <TORSDO>
F 17

$$$$
=
 OpenBabel11042418033D

 45 50  0  0  1  0  0  0  0  0999 V2000
  194.3100  172.2210  142.0490 C   0  0  2  0  0  3  0  0  0  0  0  0
  194.2830  171.7400  143.5120 C   0  0  1  0  0  3  0  0  0  0  0  0
  194.4620  170.7530  142.3700 C   0  0  1  0  0  3  0  0  0  0  0  0
  195.6480  172.7230  141.5260 C   0  0  1  0  0  3  0  0  0  0  0  0
  195.9450  172.1490  140.3090 C   0  0  0  0  0  2  0  0  0  0  0  0
  194.9750  174.7260  139.6450 C   0  0  0  0  0  0  0  0  0  0  0  0
  194.5260  175.6830  140.3270 O   0  0  0  0  0  0  0  0  0  0  0  0
  195.4090  173.5390  140.3010 N   0  0  0  0  0  0  0  0  0  0  0  0
  195.0020  174.8350  138.1440 C   0  0  1  0  0  3  0  0  0  0  0  0
  193.6810  175.1620  137.5130 C   0  0  0  0  0  0  0  0  0  0  0  0
  192.5280  174.4640  137.8640 O   0  0  0  0  0  1  0  0  0  0  0  0
  193.6200  176.0570  136.6320 O   0  0  0  0  0  0  0  0  0  0  0  0
  196.9300  174.6910  136.9010 C   0  0  0  0  0  1  0  0  0  0  0  0
  196.0930  175.5600  137.6230 O   0  0  0  0  0  0  0  0  0  0  0  0
  193.1460  170.0400  142.1430 C   0  0  0  0  0  2  0  0  0  0  0  0
  192.1590  170.4720  143.2120 C   0  0  0  0  0  2  0  0  0  0  0  0
  190.1400  171.7810  142.5560 C   0  0  0  0  0  3  0  0  0  0  0  0
  190.7890  170.6110  142.6250 C   0  0  0  0  0  3  0  0  0  0  0  0
  190.3340  173.2700  144.5170 C   0  0  0  0  0  3  0  0  0  0  0  0
  190.0070  174.5590  141.2610 O   0  0  0  0  0  0  0  0  0  0  0  0
  189.5470  174.2850  144.7010 N   0  0  0  0  0  0  0  0  0  0  0  0
  189.2760  174.9150  143.4860 N   0  0  0  0  0  0  0  0  0  0  0  0
  189.9790  174.2190  142.4750 C   0  0  0  0  0  0  0  0  0  0  0  0
  190.7110  173.0730  143.0680 C   0  0  2  0  0  3  0  0  0  0  0  0
  188.5200  176.1260  143.3530 C   0  0  0  0  0  0  0  0  0  0  0  0
  187.0350  177.6920  143.6270 N   0  0  0  0  0  0  0  0  0  0  0  0
  185.9220  178.4590  144.1050 C   0  0  0  0  0  0  0  0  0  0  0  0
  187.7910  178.0540  142.6000 N   0  0  0  0  0  0  0  0  0  0  0  0
  188.7250  177.1010  142.3970 C   0  0  0  0  0  3  0  0  0  0  0  0
  187.4450  176.5080  144.1220 C   0  0  0  0  0  3  0  0  0  0  0  0
  185.6000  179.5250  143.5120 O   0  0  0  0  0  0  0  0  0  0  0  0
  185.4280  178.8240  146.4870 C   0  0  0  0  0  2  0  0  0  0  0  0
  185.1070  177.9770  145.2700 C   0  0  0  0  0  3  0  0  0  0  0  0
  184.1310  179.0430  145.7390 C   0  0  0  0  0  2  0  0  0  0  0  0
  195.5490  172.0250  144.3710 C   0  0  1  0  0  3  0  0  0  0  0  0
  196.8930  173.4390  146.1480 C   0  0  0  0  0  2  0  0  0  0  0  0
  195.7300  173.3210  145.1900 C   0  0  0  0  0  0  0  0  0  0  0  0
  196.9050  174.1960  144.8210 C   0  0  0  0  0  2  0  0  0  0  0  0
  194.4940  174.1130  145.5880 C   0  0  0  0  0  2  0  0  0  0  0  0
  194.8790  175.4650  146.1470 C   0  0  0  0  0  2  0  0  0  0  0  0
  194.1220  176.5530  145.4150 C   0  0  0  0  0  2  0  0  0  0  0  0
  193.2590  175.8510  143.9810 S   0  0  0  0  0  0  0  0  0  0  0  0
  192.1130  177.2590  143.8810 C   0  0  0  0  0  1  0  0  0  0  0  0
  195.0040  170.3950  145.7780 C   0  0  0  0  0  1  0  0  0  0  0  0
  196.0650  170.8960  145.0180 O   0  0  0  0  0  0  0  0  0  0  0  0
  1  4  1  1  0  0  0
  1  3  1  0  0  0  0
  1  2  1  0  0  0  0
  2 35  1  1  0  0  0
  3 15  1  6  0  0  0
  3  2  1  0  0  0  0
  4  5  1  6  0  0  0
  6  8  1  0  0  0  0
  6  7  2  0  0  0  0
  8  5  1  0  0  0  0
  8  4  1  0  0  0  0
  9 10  1  1  0  0  0
  9  6  1  0  0  0  0
 10 11  1  0  0  0  0
 12 10  2  0  0  0  0
 13 14  1  0  0  0  0
 14  9  1  0  0  0  0
 15 16  1  0  0  0  0
 17 18  2  0  0  0  0
 18 16  1  0  0  0  0
 19 21  2  0  0  0  0
 20 23  2  0  0  0  0
 22 21  1  0  0  0  0
 23 24  1  0  0  0  0
 23 22  1  0  0  0  0
 24 17  1  6  0  0  0
 24 19  1  0  0  0  0
 25 22  1  0  0  0  0
 25 30  2  0  0  0  0
 26 27  1  0  0  0  0
 26 30  1  0  0  0  0
 27 33  1  0  0  0  0
 28 26  1  0  0  0  0
 29 28  2  0  0  0  0
 29 25  1  0  0  0  0
 31 27  2  0  0  0  0
 33 34  1  0  0  0  0
 33 32  1  0  0  0  0
 34 32  1  0  0  0  0
 35 45  1  1  0  0  0
 35 37  1  0  0  0  0
 37 39  1  0  0  0  0
 37 36  1  0  0  0  0
 38 37  1  0  0  0  0
 38 36  1  0  0  0  0
 39 40  1  0  0  0  0
 41 40  1  0  0  0  0
 42 41  1  0  0  0  0
 43 42  1  0  0  0  0
 45 44  1  0  0  0  0
M  END
>  <MODEL>
8

>  <REMARK>
 VINA RESULT:      -5.3      2.826      5.065
  Name = 
  17 active torsions:
  status: ('A' for Active; 'I' for Inactive)
    1  A    between atoms: C_1  and  C_22
    2  A    between atoms: C_1  and  C_29
    3  A    between atoms: C_3  and  C_45
    4  A    between atoms: C_6  and  N_34
    5  A    between atoms: C_7  and  C_13
    6  A    between atoms: C_8  and  C_39
    7  A    between atoms: C_14  and  C_35
    8  A    between atoms: C_15  and  C_19
    9  A    between atoms: C_20  and  C_29
   10  A    between atoms: C_21  and  C_39
   11  A    between atoms: C_24  and  C_36
   12  A    between atoms: C_24  and  C_43
   13  A    between atoms: S_25  and  C_43
   14  A    between atoms: C_31  and  C_35
   15  A    between atoms: C_31  and  C_36
   16  A    between atoms: C_35  and  O_37
   17  A    between atoms: C_39  and  O_42
                            x       y       z     vdW  Elec       q    Type
                         _______ _______ _______ _____ _____    ______ ____

>  <TORSDO>
F 17

$$$$
=
 OpenBabel11042418033D

 45 50  0  0  1  0  0  0  0  0999 V2000
  192.1780  171.9260  143.3330 C   0  0  2  0  0  3  0  0  0  0  0  0
  192.8310  170.5310  143.3030 C   0  0  1  0  0  3  0  0  0  0  0  0
  192.2250  171.1350  142.0460 C   0  0  1  0  0  3  0  0  0  0  0  0
  193.1160  173.1160  143.1810 C   0  0  1  0  0  3  0  0  0  0  0  0
  192.5220  174.1150  142.4410 C   0  0  0  0  0  2  0  0  0  0  0  0
  192.2340  174.9730  145.1250 C   0  0  0  0  0  0  0  0  0  0  0  0
  192.5470  174.4660  146.2330 O   0  0  0  0  0  0  0  0  0  0  0  0
  192.5420  174.2760  143.9220 N   0  0  0  0  0  0  0  0  0  0  0  0
  191.4980  176.2850  145.0920 C   0  0  1  0  0  3  0  0  0  0  0  0
  192.1770  177.3680  144.3070 C   0  0  0  0  0  0  0  0  0  0  0  0
  191.5310  177.9900  143.2410 O   0  0  0  0  0  0  0  0  0  0  0  0
  193.3560  177.6960  144.5950 O   0  0  0  0  0  1  0  0  0  0  0  0
  189.4240  177.0310  145.7450 C   0  0  0  0  0  1  0  0  0  0  0  0
  190.1100  176.1790  144.8610 O   0  0  0  0  0  0  0  0  0  0  0  0
  190.8840  170.4790  141.7990 C   0  0  0  0  0  2  0  0  0  0  0  0
  190.4430  170.7750  140.3760 C   0  0  0  0  0  2  0  0  0  0  0  0
  190.4110  173.2060  139.8190 C   0  0  0  0  0  3  0  0  0  0  0  0
  191.0730  172.0430  139.8930 C   0  0  0  0  0  3  0  0  0  0  0  0
  188.2380  174.1870  139.1720 C   0  0  0  0  0  3  0  0  0  0  0  0
  189.2470  174.0230  142.5380 O   0  0  0  0  0  0  0  0  0  0  0  0
  187.8210  175.3220  139.6410 N   0  0  0  0  0  0  0  0  0  0  0  0
  188.1670  175.4500  140.9860 N   0  0  0  0  0  0  0  0  0  0  0  0
  188.8480  174.2700  141.3680 C   0  0  0  0  0  0  0  0  0  0  0  0
  188.9670  173.3570  140.2040 C   0  0  2  0  0  3  0  0  0  0  0  0
  187.7690  176.5420  141.8250 C   0  0  0  0  0  0  0  0  0  0  0  0
  186.8080  177.7370  143.3690 N   0  0  0  0  0  0  0  0  0  0  0  0
  186.0000  178.1530  144.4770 C   0  0  0  0  0  0  0  0  0  0  0  0
  187.5380  178.5670  142.6370 N   0  0  0  0  0  0  0  0  0  0  0  0
  188.1490  177.8600  141.6640 C   0  0  0  0  0  3  0  0  0  0  0  0
  186.9150  176.4770  142.9020 C   0  0  0  0  0  3  0  0  0  0  0  0
  185.9340  179.3770  144.7750 O   0  0  0  0  0  0  0  0  0  0  0  0
  185.8570  176.9060  146.5920 C   0  0  0  0  0  2  0  0  0  0  0  0
  185.1920  177.1530  145.2510 C   0  0  0  0  0  3  0  0  0  0  0  0
  184.6160  177.7670  146.5160 C   0  0  0  0  0  2  0  0  0  0  0  0
  194.3850  170.4800  143.3530 C   0  0  1  0  0  3  0  0  0  0  0  0
  194.5760  171.1460  145.8990 C   0  0  0  0  0  2  0  0  0  0  0  0
  195.1810  170.4980  144.6760 C   0  0  0  0  0  0  0  0  0  0  0  0
  194.6570  169.6240  145.7920 C   0  0  0  0  0  2  0  0  0  0  0  0
  196.7000  170.5470  144.6150 C   0  0  0  0  0  2  0  0  0  0  0  0
  197.1680  171.7600  143.8420 C   0  0  0  0  0  2  0  0  0  0  0  0
  197.6740  172.8130  144.8060 C   0  0  0  0  0  2  0  0  0  0  0  0
  197.8340  174.4080  143.9550 S   0  0  0  0  0  0  0  0  0  0  0  0
  196.1420  174.9050  144.3980 C   0  0  0  0  0  1  0  0  0  0  0  0
  194.4970  168.3640  142.6870 C   0  0  0  0  0  1  0  0  0  0  0  0
  194.9600  169.6480  142.3840 O   0  0  0  0  0  0  0  0  0  0  0  0
  1  4  1  6  0  0  0
  2  1  1  0  0  0  0
  2 35  1  6  0  0  0
  3 15  1  1  0  0  0
  3  2  1  0  0  0  0
  3  1  1  0  0  0  0
  4  5  1  6  0  0  0
  4  8  1  0  0  0  0
  5  8  1  0  0  0  0
  6  7  2  0  0  0  0
  8  6  1  0  0  0  0
  9 10  1  6  0  0  0
  9  6  1  0  0  0  0
 10 12  1  0  0  0  0
 11 10  2  0  0  0  0
 14  9  1  0  0  0  0
 14 13  1  0  0  0  0
 16 15  1  0  0  0  0
 17 18  2  0  0  0  0
 18 16  1  0  0  0  0
 19 21  2  0  0  0  0
 19 24  1  0  0  0  0
 21 22  1  0  0  0  0
 22 23  1  0  0  0  0
 22 25  1  0  0  0  0
 23 20  2  0  0  0  0
 24 17  1  6  0  0  0
 24 23  1  0  0  0  0
 25 30  2  0  0  0  0
 26 27  1  0  0  0  0
 27 31  2  0  0  0  0
 27 33  1  0  0  0  0
 28 26  1  0  0  0  0
 29 25  1  0  0  0  0
 29 28  2  0  0  0  0
 30 26  1  0  0  0  0
 33 34  1  0  0  0  0
 33 32  1  0  0  0  0
 34 32  1  0  0  0  0
 35 45  1  1  0  0  0
 35 37  1  0  0  0  0
 37 38  1  0  0  0  0
 37 36  1  0  0  0  0
 38 36  1  0  0  0  0
 39 37  1  0  0  0  0
 40 39  1  0  0  0  0
 40 41  1  0  0  0  0
 42 43  1  0  0  0  0
 42 41  1  0  0  0  0
 45 44  1  0  0  0  0
M  END
>  <MODEL>
9

>  <REMARK>
 VINA RESULT:      -5.3      1.969      2.946
  Name = 
  17 active torsions:
  status: ('A' for Active; 'I' for Inactive)
    1  A    between atoms: C_1  and  C_22
    2  A    between atoms: C_1  and  C_29
    3  A    between atoms: C_3  and  C_45
    4  A    between atoms: C_6  and  N_34
    5  A    between atoms: C_7  and  C_13
    6  A    between atoms: C_8  and  C_39
    7  A    between atoms: C_14  and  C_35
    8  A    between atoms: C_15  and  C_19
    9  A    between atoms: C_20  and  C_29
   10  A    between atoms: C_21  and  C_39
   11  A    between atoms: C_24  and  C_36
   12  A    between atoms: C_24  and  C_43
   13  A    between atoms: S_25  and  C_43
   14  A    between atoms: C_31  and  C_35
   15  A    between atoms: C_31  and  C_36
   16  A    between atoms: C_35  and  O_37
   17  A    between atoms: C_39  and  O_42
                            x       y       z     vdW  Elec       q    Type
                         _______ _______ _______ _____ _____    ______ ____

>  <TORSDO>
F 17

$$$$
