=
 OpenBabel11042417153D

 31 33  0  0  0  0  0  0  0  0999 V2000
  188.1770  175.4360  142.2650 C   0  0  0  0  0  3  0  0  0  0  0  0
  189.1240  177.6630  142.5040 N   0  0  0  0  0  0  0  0  0  0  0  0
  190.3570  177.4590  142.8750 C   0  0  0  0  0  3  0  0  0  0  0  0
  190.5080  174.9760  142.8590 C   0  0  0  0  0  0  0  0  0  0  0  0
  189.0860  174.8650  143.2960 C   0  0  0  0  0  2  0  0  0  0  0  0
  191.1050  176.1820  142.7540 C   0  0  0  0  0  0  0  0  0  0  0  0
  188.2110  176.7210  141.9140 C   0  0  0  0  0  0  0  0  0  0  0  0
  190.5820  173.2380  140.5290 O   0  0  0  0  0  0  0  0  0  0  0  0
  191.2440  173.7540  142.7160 N   0  0  0  0  0  2  0  0  0  0  0  0
  191.3340  172.9900  141.5080 C   0  0  0  0  0  0  0  0  0  0  0  0
  192.2930  171.8580  141.4280 C   0  0  0  0  0  1  0  0  0  0  0  0
  187.1730  177.2240  140.9700 C   0  0  0  0  0  2  0  0  0  0  0  0
  185.8790  177.3110  141.6370 N   0  0  0  0  0  2  0  0  0  0  0  0
  185.5490  179.8650  144.3570 C   0  0  0  0  0  3  0  0  0  0  0  0
  185.7450  179.3020  143.0930 C   0  0  0  0  0  3  0  0  0  0  0  0
  184.9690  176.8140  146.4080 N   0  0  0  0  0  1  0  0  0  0  0  0
  185.2930  179.0400  145.4560 C   0  0  0  0  0  3  0  0  0  0  0  0
  185.6880  177.9110  142.9220 C   0  0  0  0  0  0  0  0  0  0  0  0
  185.4270  177.0910  144.0250 C   0  0  0  0  0  3  0  0  0  0  0  0
  185.2310  177.6540  145.2900 C   0  0  0  0  0  0  0  0  0  0  0  0
  192.5320  176.2470  142.6350 N   0  0  0  0  0  2  0  0  0  0  0  0
  193.3850  176.1290  143.7430 N   0  0  0  0  0  2  0  0  0  0  0  0
  192.9070  177.0510  144.7650 C   0  0  0  0  0  2  0  0  0  0  0  0
  192.5000  176.2930  145.9870 C   0  0  0  0  0  0  0  0  0  0  0  0
  193.3970  175.8000  146.7220 O   0  0  0  0  0  0  0  0  0  0  0  0
  190.1790  177.1710  146.2570 C   0  0  0  0  0  3  0  0  0  0  0  0
  188.8300  176.9890  146.5720 C   0  0  0  0  0  3  0  0  0  0  0  0
  190.6000  174.8310  146.7070 C   0  0  0  0  0  3  0  0  0  0  0  0
  191.0760  176.0940  146.3210 C   0  0  0  0  0  0  0  0  0  0  0  0
  188.3650  175.7270  146.9550 C   0  0  0  0  0  3  0  0  0  0  0  0
  189.2510  174.6480  147.0220 C   0  0  0  0  0  3  0  0  0  0  0  0
  1  5  1  0  0  0  0
  2  3  2  0  0  0  0
  4  5  1  0  0  0  0
  6  4  2  0  0  0  0
  6  3  1  0  0  0  0
  7  1  2  0  0  0  0
  7  2  1  0  0  0  0
  8 10  2  0  0  0  0
  9  4  1  0  0  0  0
 10  9  1  0  0  0  0
 11 10  1  0  0  0  0
 12 13  1  0  0  0  0
 12  7  1  0  0  0  0
 13 18  1  0  0  0  0
 14 17  1  0  0  0  0
 15 14  2  0  0  0  0
 18 15  1  0  0  0  0
 18 19  2  0  0  0  0
 19 20  1  0  0  0  0
 20 17  2  0  0  0  0
 20 16  1  0  0  0  0
 21  6  1  0  0  0  0
 21 22  1  0  0  0  0
 22 23  1  0  0  0  0
 23 24  1  0  0  0  0
 24 29  1  0  0  0  0
 24 25  2  0  0  0  0
 26 29  2  0  0  0  0
 26 27  1  0  0  0  0
 27 30  2  0  0  0  0
 28 31  2  0  0  0  0
 29 28  1  0  0  0  0
 30 31  1  0  0  0  0
M  END
>  <MODEL>
1

>  <REMARK>
 VINA RESULT:      -7.1      0.000      0.000
  Name = 
  9 active torsions:
  status: ('A' for Active; 'I' for Inactive)
    1  A    between atoms: C_3  and  N_24
    2  A    between atoms: C_3  and  C_27
    3  A    between atoms: C_11  and  C_12
    4  A    between atoms: C_11  and  C_29
    5  A    between atoms: C_12  and  N_17
    6  A    between atoms: C_14  and  N_22
    7  A    between atoms: C_15  and  N_24
    8  A    between atoms: N_17  and  N_25
    9  A    between atoms: C_21  and  N_25
                            x       y       z     vdW  Elec       q    Type
                         _______ _______ _______ _____ _____    ______ ____

>  <TORSDO>
F 9

$$$$
=
 OpenBabel11042417153D

 31 33  0  0  0  0  0  0  0  0999 V2000
  190.9610  174.6640  142.0390 C   0  0  0  0  0  3  0  0  0  0  0  0
  189.2350  173.6200  143.3970 N   0  0  0  0  0  0  0  0  0  0  0  0
  189.7750  173.4960  144.5780 C   0  0  0  0  0  3  0  0  0  0  0  0
  192.0010  174.5570  144.2540 C   0  0  0  0  0  0  0  0  0  0  0  0
  192.0560  174.0630  142.8470 C   0  0  0  0  0  2  0  0  0  0  0  0
  190.9810  174.2120  145.0660 C   0  0  0  0  0  0  0  0  0  0  0  0
  189.6730  174.4510  142.3090 C   0  0  0  0  0  0  0  0  0  0  0  0
  192.3650  177.4400  144.3400 O   0  0  0  0  0  0  0  0  0  0  0  0
  193.1470  175.2690  144.7400 N   0  0  0  0  0  2  0  0  0  0  0  0
  193.2330  176.6930  144.8620 C   0  0  0  0  0  0  0  0  0  0  0  0
  194.3890  177.2980  145.5730 C   0  0  0  0  0  1  0  0  0  0  0  0
  188.6540  174.9900  141.3630 C   0  0  0  0  0  2  0  0  0  0  0  0
  187.3910  175.2210  142.0560 N   0  0  0  0  0  2  0  0  0  0  0  0
  187.4900  178.6550  143.5500 C   0  0  0  0  0  3  0  0  0  0  0  0
  187.9130  177.4110  143.0740 C   0  0  0  0  0  3  0  0  0  0  0  0
  183.8250  178.4350  142.9420 N   0  0  0  0  0  1  0  0  0  0  0  0
  186.1340  178.9940  143.5070 C   0  0  0  0  0  3  0  0  0  0  0  0
  186.9830  176.4990  142.5540 C   0  0  0  0  0  0  0  0  0  0  0  0
  185.6280  176.8450  142.5110 C   0  0  0  0  0  3  0  0  0  0  0  0
  185.2040  178.0900  142.9870 C   0  0  0  0  0  0  0  0  0  0  0  0
  191.1030  174.4380  146.4760 N   0  0  0  0  0  2  0  0  0  0  0  0
  190.6410  175.6120  147.0910 N   0  0  0  0  0  2  0  0  0  0  0  0
  189.4850  176.0780  146.3360 C   0  0  0  0  0  2  0  0  0  0  0  0
  188.8770  177.2640  147.0130 C   0  0  0  0  0  0  0  0  0  0  0  0
  189.6260  178.0410  147.6630 O   0  0  0  0  0  0  0  0  0  0  0  0
  186.5650  176.5550  146.3950 C   0  0  0  0  0  3  0  0  0  0  0  0
  185.1880  176.7860  146.3350 C   0  0  0  0  0  3  0  0  0  0  0  0
  186.8810  178.7090  147.4500 C   0  0  0  0  0  3  0  0  0  0  0  0
  187.4240  177.5140  146.9530 C   0  0  0  0  0  0  0  0  0  0  0  0
  184.6570  177.9800  146.8320 C   0  0  0  0  0  3  0  0  0  0  0  0
  185.5040  178.9410  147.3910 C   0  0  0  0  0  3  0  0  0  0  0  0
  1  7  2  0  0  0  0
  1  5  1  0  0  0  0
  2  3  2  0  0  0  0
  3  6  1  0  0  0  0
  4  9  1  0  0  0  0
  4  6  2  0  0  0  0
  5  4  1  0  0  0  0
  6 21  1  0  0  0  0
  7  2  1  0  0  0  0
  8 10  2  0  0  0  0
  9 10  1  0  0  0  0
 10 11  1  0  0  0  0
 12 13  1  0  0  0  0
 12  7  1  0  0  0  0
 13 18  1  0  0  0  0
 15 14  2  0  0  0  0
 16 20  1  0  0  0  0
 17 14  1  0  0  0  0
 18 15  1  0  0  0  0
 19 18  2  0  0  0  0
 19 20  1  0  0  0  0
 20 17  2  0  0  0  0
 21 22  1  0  0  0  0
 23 24  1  0  0  0  0
 23 22  1  0  0  0  0
 24 25  2  0  0  0  0
 26 29  1  0  0  0  0
 27 26  2  0  0  0  0
 27 30  1  0  0  0  0
 29 24  1  0  0  0  0
 29 28  2  0  0  0  0
 30 31  2  0  0  0  0
 31 28  1  0  0  0  0
M  END
>  <MODEL>
2

>  <REMARK>
 VINA RESULT:      -6.8      2.128      3.909
  Name = 
  9 active torsions:
  status: ('A' for Active; 'I' for Inactive)
    1  A    between atoms: C_3  and  N_24
    2  A    between atoms: C_3  and  C_27
    3  A    between atoms: C_11  and  C_12
    4  A    between atoms: C_11  and  C_29
    5  A    between atoms: C_12  and  N_17
    6  A    between atoms: C_14  and  N_22
    7  A    between atoms: C_15  and  N_24
    8  A    between atoms: N_17  and  N_25
    9  A    between atoms: C_21  and  N_25
                            x       y       z     vdW  Elec       q    Type
                         _______ _______ _______ _____ _____    ______ ____

>  <TORSDO>
F 9

$$$$
=
 OpenBabel11042417153D

 31 33  0  0  0  0  0  0  0  0999 V2000
  189.1180  177.9370  142.8760 C   0  0  0  0  0  3  0  0  0  0  0  0
  188.5040  175.9040  141.6930 N   0  0  0  0  0  0  0  0  0  0  0  0
  189.2730  174.9810  142.2020 C   0  0  0  0  0  3  0  0  0  0  0  0
  190.5190  176.2390  143.9490 C   0  0  0  0  0  0  0  0  0  0  0  0
  190.5110  177.4670  143.1020 C   0  0  0  0  0  2  0  0  0  0  0  0
  190.0200  175.0760  143.4820 C   0  0  0  0  0  0  0  0  0  0  0  0
  188.2110  177.2050  142.2300 C   0  0  0  0  0  0  0  0  0  0  0  0
  189.4360  177.0830  146.5120 O   0  0  0  0  0  0  0  0  0  0  0  0
  191.2170  176.3140  145.2000 N   0  0  0  0  0  2  0  0  0  0  0  0
  190.6100  176.6320  146.4570 C   0  0  0  0  0  0  0  0  0  0  0  0
  191.3950  176.4730  147.7090 C   0  0  0  0  0  1  0  0  0  0  0  0
  186.8830  177.8170  141.9400 C   0  0  0  0  0  2  0  0  0  0  0  0
  185.8360  177.1380  142.6930 N   0  0  0  0  0  2  0  0  0  0  0  0
  183.9740  178.8940  145.4290 C   0  0  0  0  0  3  0  0  0  0  0  0
  184.3890  178.5120  144.1500 C   0  0  0  0  0  3  0  0  0  0  0  0
  186.1680  176.7630  147.5500 N   0  0  0  0  0  1  0  0  0  0  0  0
  184.5650  178.3140  146.5560 C   0  0  0  0  0  3  0  0  0  0  0  0
  185.3980  177.5500  143.9910 C   0  0  0  0  0  0  0  0  0  0  0  0
  185.9820  176.9720  145.1230 C   0  0  0  0  0  3  0  0  0  0  0  0
  185.5680  177.3530  146.4030 C   0  0  0  0  0  0  0  0  0  0  0  0
  190.3110  173.8590  144.1820 N   0  0  0  0  0  2  0  0  0  0  0  0
  190.9000  172.7530  143.5510 N   0  0  0  0  0  2  0  0  0  0  0  0
  191.9640  172.2660  144.4200 C   0  0  0  0  0  2  0  0  0  0  0  0
  193.2890  172.7500  143.9250 C   0  0  0  0  0  0  0  0  0  0  0  0
  193.9410  172.0240  143.1290 O   0  0  0  0  0  0  0  0  0  0  0  0
  194.0940  175.0650  143.4510 C   0  0  0  0  0  3  0  0  0  0  0  0
  194.6210  176.2890  143.8730 C   0  0  0  0  0  3  0  0  0  0  0  0
  194.1360  174.2610  145.7330 C   0  0  0  0  0  3  0  0  0  0  0  0
  193.8460  174.0400  144.3770 C   0  0  0  0  0  0  0  0  0  0  0  0
  194.9070  176.4980  145.2250 C   0  0  0  0  0  3  0  0  0  0  0  0
  194.6630  175.4840  146.1550 C   0  0  0  0  0  3  0  0  0  0  0  0
  1  5  1  0  0  0  0
  2  3  2  0  0  0  0
  2  7  1  0  0  0  0
  3  6  1  0  0  0  0
  4  9  1  0  0  0  0
  5  4  1  0  0  0  0
  6  4  2  0  0  0  0
  6 21  1  0  0  0  0
  7  1  2  0  0  0  0
  9 10  1  0  0  0  0
 10  8  2  0  0  0  0
 10 11  1  0  0  0  0
 12  7  1  0  0  0  0
 12 13  1  0  0  0  0
 13 18  1  0  0  0  0
 14 17  1  0  0  0  0
 15 14  2  0  0  0  0
 18 15  1  0  0  0  0
 18 19  2  0  0  0  0
 19 20  1  0  0  0  0
 20 17  2  0  0  0  0
 20 16  1  0  0  0  0
 22 21  1  0  0  0  0
 22 23  1  0  0  0  0
 24 29  1  0  0  0  0
 24 23  1  0  0  0  0
 25 24  2  0  0  0  0
 26 27  2  0  0  0  0
 26 29  1  0  0  0  0
 27 30  1  0  0  0  0
 28 31  1  0  0  0  0
 29 28  2  0  0  0  0
 30 31  2  0  0  0  0
M  END
>  <MODEL>
3

>  <REMARK>
 VINA RESULT:      -6.8      2.055      3.991
  Name = 
  9 active torsions:
  status: ('A' for Active; 'I' for Inactive)
    1  A    between atoms: C_3  and  N_24
    2  A    between atoms: C_3  and  C_27
    3  A    between atoms: C_11  and  C_12
    4  A    between atoms: C_11  and  C_29
    5  A    between atoms: C_12  and  N_17
    6  A    between atoms: C_14  and  N_22
    7  A    between atoms: C_15  and  N_24
    8  A    between atoms: N_17  and  N_25
    9  A    between atoms: C_21  and  N_25
                            x       y       z     vdW  Elec       q    Type
                         _______ _______ _______ _____ _____    ______ ____

>  <TORSDO>
F 9

$$$$
=
 OpenBabel11042417153D

 31 33  0  0  0  0  0  0  0  0999 V2000
  193.0700  175.4100  143.3000 C   0  0  0  0  0  3  0  0  0  0  0  0
  191.6700  177.3880  143.4970 N   0  0  0  0  0  0  0  0  0  0  0  0
  190.5850  177.0910  142.8360 C   0  0  0  0  0  3  0  0  0  0  0  0
  191.0230  174.7460  142.1320 C   0  0  0  0  0  0  0  0  0  0  0  0
  192.4780  175.0380  141.9860 C   0  0  0  0  0  2  0  0  0  0  0  0
  190.1500  175.7280  142.4400 C   0  0  0  0  0  0  0  0  0  0  0  0
  192.6850  176.4910  143.9780 C   0  0  0  0  0  0  0  0  0  0  0  0
  190.5100  173.7360  139.4550 O   0  0  0  0  0  0  0  0  0  0  0  0
  190.5830  173.4280  141.7750 N   0  0  0  0  0  2  0  0  0  0  0  0
  190.4500  172.9460  140.4330 C   0  0  0  0  0  0  0  0  0  0  0  0
  190.1890  171.5030  140.1970 C   0  0  0  0  0  1  0  0  0  0  0  0
  193.4290  176.8500  145.2190 C   0  0  0  0  0  2  0  0  0  0  0  0
  192.8250  176.2040  146.3780 N   0  0  0  0  0  2  0  0  0  0  0  0
  189.5220  174.4360  146.4360 C   0  0  0  0  0  3  0  0  0  0  0  0
  190.8950  174.6630  146.3030 C   0  0  0  0  0  3  0  0  0  0  0  0
  188.3240  177.8490  147.3130 N   0  0  0  0  0  1  0  0  0  0  0  0
  188.6700  175.4930  146.7690 C   0  0  0  0  0  3  0  0  0  0  0  0
  191.4220  175.9480  146.5020 C   0  0  0  0  0  0  0  0  0  0  0  0
  190.5640  177.0000  146.8400 C   0  0  0  0  0  3  0  0  0  0  0  0
  189.1900  176.7740  146.9720 C   0  0  0  0  0  0  0  0  0  0  0  0
  188.7460  175.4920  142.2750 N   0  0  0  0  0  2  0  0  0  0  0  0
  187.9630  176.2230  141.3690 N   0  0  0  0  0  2  0  0  0  0  0  0
  186.6770  176.4780  142.0040 C   0  0  0  0  0  2  0  0  0  0  0  0
  186.7380  177.7470  142.7900 C   0  0  0  0  0  0  0  0  0  0  0  0
  187.3920  178.7180  142.3250 O   0  0  0  0  0  0  0  0  0  0  0  0
  185.8390  176.7180  144.8790 C   0  0  0  0  0  3  0  0  0  0  0  0
  185.2090  176.8220  146.1230 C   0  0  0  0  0  3  0  0  0  0  0  0
  185.6660  179.1150  144.5920 C   0  0  0  0  0  3  0  0  0  0  0  0
  186.0730  177.8640  144.1030 C   0  0  0  0  0  0  0  0  0  0  0  0
  184.8070  178.0720  146.6010 C   0  0  0  0  0  3  0  0  0  0  0  0
  185.0360  179.2190  145.8350 C   0  0  0  0  0  3  0  0  0  0  0  0
  1  7  2  0  0  0  0
  2  7  1  0  0  0  0
  3  2  2  0  0  0  0
  4  6  2  0  0  0  0
  5  4  1  0  0  0  0
  5  1  1  0  0  0  0
  6  3  1  0  0  0  0
  7 12  1  0  0  0  0
  8 10  2  0  0  0  0
  9  4  1  0  0  0  0
 10  9  1  0  0  0  0
 11 10  1  0  0  0  0
 12 13  1  0  0  0  0
 13 18  1  0  0  0  0
 14 17  1  0  0  0  0
 15 14  2  0  0  0  0
 15 18  1  0  0  0  0
 17 20  2  0  0  0  0
 18 19  2  0  0  0  0
 19 20  1  0  0  0  0
 20 16  1  0  0  0  0
 21  6  1  0  0  0  0
 22 23  1  0  0  0  0
 22 21  1  0  0  0  0
 23 24  1  0  0  0  0
 24 29  1  0  0  0  0
 25 24  2  0  0  0  0
 26 27  1  0  0  0  0
 27 30  2  0  0  0  0
 28 31  2  0  0  0  0
 29 28  1  0  0  0  0
 29 26  2  0  0  0  0
 31 30  1  0  0  0  0
M  END
>  <MODEL>
4

>  <REMARK>
 VINA RESULT:      -6.7      2.034      5.210
  Name = 
  9 active torsions:
  status: ('A' for Active; 'I' for Inactive)
    1  A    between atoms: C_3  and  N_24
    2  A    between atoms: C_3  and  C_27
    3  A    between atoms: C_11  and  C_12
    4  A    between atoms: C_11  and  C_29
    5  A    between atoms: C_12  and  N_17
    6  A    between atoms: C_14  and  N_22
    7  A    between atoms: C_15  and  N_24
    8  A    between atoms: N_17  and  N_25
    9  A    between atoms: C_21  and  N_25
                            x       y       z     vdW  Elec       q    Type
                         _______ _______ _______ _____ _____    ______ ____

>  <TORSDO>
F 9

$$$$
=
 OpenBabel11042417153D

 31 33  0  0  0  0  0  0  0  0999 V2000
  183.5460  178.2970  142.5940 C   0  0  0  0  0  3  0  0  0  0  0  0
  184.9260  178.3410  140.5930 N   0  0  0  0  0  0  0  0  0  0  0  0
  186.1220  178.0290  141.0100 C   0  0  0  0  0  3  0  0  0  0  0  0
  185.7410  177.6040  143.4310 C   0  0  0  0  0  0  0  0  0  0  0  0
  184.6900  178.6610  143.4730 C   0  0  0  0  0  2  0  0  0  0  0  0
  186.4540  177.3850  142.3060 C   0  0  0  0  0  0  0  0  0  0  0  0
  183.6750  178.1530  141.2750 C   0  0  0  0  0  0  0  0  0  0  0  0
  186.1050  178.8600  146.0270 O   0  0  0  0  0  0  0  0  0  0  0  0
  186.0630  176.9540  144.6680 N   0  0  0  0  0  2  0  0  0  0  0  0
  186.1240  177.6040  145.9420 C   0  0  0  0  0  0  0  0  0  0  0  0
  186.2610  176.7870  147.1750 C   0  0  0  0  0  1  0  0  0  0  0  0
  182.4460  177.9170  140.4660 C   0  0  0  0  0  2  0  0  0  0  0  0
  181.2680  178.3990  141.1790 N   0  0  0  0  0  2  0  0  0  0  0  0
  178.0450  178.7230  139.2970 C   0  0  0  0  0  3  0  0  0  0  0  0
  179.1580  178.1490  139.9190 C   0  0  0  0  0  3  0  0  0  0  0  0
  178.6930  182.3400  139.8870 N   0  0  0  0  0  1  0  0  0  0  0  0
  177.8930  180.1120  139.2860 C   0  0  0  0  0  3  0  0  0  0  0  0
  180.1240  178.9620  140.5310 C   0  0  0  0  0  0  0  0  0  0  0  0
  179.9620  180.3510  140.5190 C   0  0  0  0  0  3  0  0  0  0  0  0
  178.8500  180.9260  139.8970 C   0  0  0  0  0  0  0  0  0  0  0  0
  187.6450  176.5920  142.3770 N   0  0  0  0  0  2  0  0  0  0  0  0
  188.9220  177.1330  142.1580 N   0  0  0  0  0  2  0  0  0  0  0  0
  189.8810  176.2950  142.8650 C   0  0  0  0  0  2  0  0  0  0  0  0
  190.5040  177.0650  143.9850 C   0  0  0  0  0  0  0  0  0  0  0  0
  190.8880  178.2450  143.7690 O   0  0  0  0  0  0  0  0  0  0  0  0
  189.6070  175.8970  146.0010 C   0  0  0  0  0  3  0  0  0  0  0  0
  189.7840  175.3180  147.2600 C   0  0  0  0  0  3  0  0  0  0  0  0
  191.9680  176.4220  145.9110 C   0  0  0  0  0  3  0  0  0  0  0  0
  190.6980  176.4540  145.3150 C   0  0  0  0  0  0  0  0  0  0  0  0
  191.0530  175.2910  147.8460 C   0  0  0  0  0  3  0  0  0  0  0  0
  192.1450  175.8420  147.1700 C   0  0  0  0  0  3  0  0  0  0  0  0
  1  5  1  0  0  0  0
  2  3  2  0  0  0  0
  2  7  1  0  0  0  0
  3  6  1  0  0  0  0
  4  5  1  0  0  0  0
  4  9  1  0  0  0  0
  6 21  1  0  0  0  0
  6  4  2  0  0  0  0
  7  1  2  0  0  0  0
  9 10  1  0  0  0  0
 10  8  2  0  0  0  0
 10 11  1  0  0  0  0
 12 13  1  0  0  0  0
 12  7  1  0  0  0  0
 14 15  1  0  0  0  0
 15 18  2  0  0  0  0
 16 20  1  0  0  0  0
 17 14  2  0  0  0  0
 17 20  1  0  0  0  0
 18 13  1  0  0  0  0
 19 18  1  0  0  0  0
 20 19  2  0  0  0  0
 22 21  1  0  0  0  0
 22 23  1  0  0  0  0
 23 24  1  0  0  0  0
 24 29  1  0  0  0  0
 25 24  2  0  0  0  0
 26 27  1  0  0  0  0
 27 30  2  0  0  0  0
 28 31  2  0  0  0  0
 29 28  1  0  0  0  0
 29 26  2  0  0  0  0
 31 30  1  0  0  0  0
M  END
>  <MODEL>
5

>  <REMARK>
 VINA RESULT:      -6.5      4.357      6.091
  Name = 
  9 active torsions:
  status: ('A' for Active; 'I' for Inactive)
    1  A    between atoms: C_3  and  N_24
    2  A    between atoms: C_3  and  C_27
    3  A    between atoms: C_11  and  C_12
    4  A    between atoms: C_11  and  C_29
    5  A    between atoms: C_12  and  N_17
    6  A    between atoms: C_14  and  N_22
    7  A    between atoms: C_15  and  N_24
    8  A    between atoms: N_17  and  N_25
    9  A    between atoms: C_21  and  N_25
                            x       y       z     vdW  Elec       q    Type
                         _______ _______ _______ _____ _____    ______ ____

>  <TORSDO>
F 9

$$$$
=
 OpenBabel11042417153D

 31 33  0  0  0  0  0  0  0  0999 V2000
  190.2690  175.1200  143.9850 C   0  0  0  0  0  3  0  0  0  0  0  0
  189.9720  177.5330  144.0180 N   0  0  0  0  0  0  0  0  0  0  0  0
  189.3880  177.8090  142.8850 C   0  0  0  0  0  3  0  0  0  0  0  0
  189.0810  175.5510  141.8870 C   0  0  0  0  0  0  0  0  0  0  0  0
  190.3580  175.0820  142.5000 C   0  0  0  0  0  2  0  0  0  0  0  0
  188.6920  176.8380  142.0020 C   0  0  0  0  0  0  0  0  0  0  0  0
  190.0890  176.2530  144.6630 C   0  0  0  0  0  0  0  0  0  0  0  0
  190.2250  173.8360  139.8380 O   0  0  0  0  0  0  0  0  0  0  0  0
  188.3810  174.6220  141.0480 N   0  0  0  0  0  2  0  0  0  0  0  0
  189.0050  173.7210  140.1280 C   0  0  0  0  0  0  0  0  0  0  0  0
  188.1920  172.6660  139.4700 C   0  0  0  0  0  1  0  0  0  0  0  0
  190.1460  176.2040  146.1520 C   0  0  0  0  0  2  0  0  0  0  0  0
  191.4880  176.5290  146.6200 N   0  0  0  0  0  2  0  0  0  0  0  0
  194.0650  173.9410  145.7850 C   0  0  0  0  0  3  0  0  0  0  0  0
  192.9000  174.5290  146.2860 C   0  0  0  0  0  3  0  0  0  0  0  0
  195.7490  176.8910  144.2630 N   0  0  0  0  0  1  0  0  0  0  0  0
  195.0090  174.7250  145.1150 C   0  0  0  0  0  3  0  0  0  0  0  0
  192.6750  175.9040  146.1210 C   0  0  0  0  0  0  0  0  0  0  0  0
  193.6220  176.6820  145.4470 C   0  0  0  0  0  3  0  0  0  0  0  0
  194.7880  176.0940  144.9460 C   0  0  0  0  0  0  0  0  0  0  0  0
  187.6400  177.3280  141.1620 N   0  0  0  0  0  2  0  0  0  0  0  0
  186.2870  177.2440  141.5250 N   0  0  0  0  0  2  0  0  0  0  0  0
  185.9350  178.4850  142.2010 C   0  0  0  0  0  2  0  0  0  0  0  0
  184.8530  178.2340  143.2000 C   0  0  0  0  0  0  0  0  0  0  0  0
  183.6530  178.2900  142.8210 O   0  0  0  0  0  0  0  0  0  0  0  0
  186.2080  177.0650  144.9410 C   0  0  0  0  0  3  0  0  0  0  0  0
  186.5130  176.7940  146.2780 C   0  0  0  0  0  3  0  0  0  0  0  0
  184.4440  178.5640  145.6480 C   0  0  0  0  0  3  0  0  0  0  0  0
  185.1700  177.9520  144.6140 C   0  0  0  0  0  0  0  0  0  0  0  0
  185.7840  177.4080  147.3000 C   0  0  0  0  0  3  0  0  0  0  0  0
  184.7500  178.2930  146.9850 C   0  0  0  0  0  3  0  0  0  0  0  0
  1  7  2  0  0  0  0
  2  7  1  0  0  0  0
  3  2  2  0  0  0  0
  4  6  2  0  0  0  0
  4  5  1  0  0  0  0
  5  1  1  0  0  0  0
  6  3  1  0  0  0  0
  7 12  1  0  0  0  0
  8 10  2  0  0  0  0
  9  4  1  0  0  0  0
 10  9  1  0  0  0  0
 11 10  1  0  0  0  0
 12 13  1  0  0  0  0
 14 15  1  0  0  0  0
 16 20  1  0  0  0  0
 17 14  2  0  0  0  0
 18 15  2  0  0  0  0
 18 13  1  0  0  0  0
 19 18  1  0  0  0  0
 20 17  1  0  0  0  0
 20 19  2  0  0  0  0
 21 22  1  0  0  0  0
 21  6  1  0  0  0  0
 22 23  1  0  0  0  0
 23 24  1  0  0  0  0
 24 29  1  0  0  0  0
 25 24  2  0  0  0  0
 26 27  1  0  0  0  0
 27 30  2  0  0  0  0
 28 31  2  0  0  0  0
 29 26  2  0  0  0  0
 29 28  1  0  0  0  0
 31 30  1  0  0  0  0
M  END
>  <MODEL>
6

>  <REMARK>
 VINA RESULT:      -6.5      2.469      6.507
  Name = 
  9 active torsions:
  status: ('A' for Active; 'I' for Inactive)
    1  A    between atoms: C_3  and  N_24
    2  A    between atoms: C_3  and  C_27
    3  A    between atoms: C_11  and  C_12
    4  A    between atoms: C_11  and  C_29
    5  A    between atoms: C_12  and  N_17
    6  A    between atoms: C_14  and  N_22
    7  A    between atoms: C_15  and  N_24
    8  A    between atoms: N_17  and  N_25
    9  A    between atoms: C_21  and  N_25
                            x       y       z     vdW  Elec       q    Type
                         _______ _______ _______ _____ _____    ______ ____

>  <TORSDO>
F 9

$$$$
=
 OpenBabel11042417153D

 31 33  0  0  0  0  0  0  0  0999 V2000
  188.5470  174.5680  140.5010 C   0  0  0  0  0  3  0  0  0  0  0  0
  188.4580  174.7530  142.9240 N   0  0  0  0  0  0  0  0  0  0  0  0
  189.3880  173.9450  143.3510 C   0  0  0  0  0  3  0  0  0  0  0  0
  190.3790  173.1140  141.2260 C   0  0  0  0  0  0  0  0  0  0  0  0
  189.0460  173.1670  140.5580 C   0  0  0  0  0  2  0  0  0  0  0  0
  190.5040  173.3920  142.5410 C   0  0  0  0  0  0  0  0  0  0  0  0
  188.2850  175.2790  141.5970 C   0  0  0  0  0  0  0  0  0  0  0  0
  191.0660  170.3220  140.7950 O   0  0  0  0  0  0  0  0  0  0  0  0
  191.4750  172.6020  140.4550 N   0  0  0  0  0  2  0  0  0  0  0  0
  191.7080  171.2160  140.1840 C   0  0  0  0  0  0  0  0  0  0  0  0
  192.7530  170.8280  139.2020 C   0  0  0  0  0  1  0  0  0  0  0  0
  187.6640  176.6250  141.4360 C   0  0  0  0  0  2  0  0  0  0  0  0
  186.3550  176.6600  142.0780 N   0  0  0  0  0  2  0  0  0  0  0  0
  185.5820  179.6540  144.1930 C   0  0  0  0  0  3  0  0  0  0  0  0
  185.8880  178.8710  143.0760 C   0  0  0  0  0  3  0  0  0  0  0  0
  185.4290  177.0580  146.8550 N   0  0  0  0  0  1  0  0  0  0  0  0
  185.4310  179.0520  145.4450 C   0  0  0  0  0  3  0  0  0  0  0  0
  186.0470  177.4830  143.2060 C   0  0  0  0  0  0  0  0  0  0  0  0
  185.8910  176.8880  144.4620 C   0  0  0  0  0  3  0  0  0  0  0  0
  185.5850  177.6700  145.5810 C   0  0  0  0  0  0  0  0  0  0  0  0
  191.7170  173.0410  143.2180 N   0  0  0  0  0  2  0  0  0  0  0  0
  191.9360  173.3430  144.5710 N   0  0  0  0  0  2  0  0  0  0  0  0
  193.0670  174.2590  144.6390 C   0  0  0  0  0  2  0  0  0  0  0  0
  192.7250  175.4280  145.5060 C   0  0  0  0  0  0  0  0  0  0  0  0
  193.4390  175.6620  146.5170 O   0  0  0  0  0  0  0  0  0  0  0  0
  191.4850  176.9770  143.9910 C   0  0  0  0  0  3  0  0  0  0  0  0
  190.3840  177.7870  143.7040 C   0  0  0  0  0  3  0  0  0  0  0  0
  190.5120  176.4130  146.1330 C   0  0  0  0  0  3  0  0  0  0  0  0
  191.5590  176.2830  145.2080 C   0  0  0  0  0  0  0  0  0  0  0  0
  189.3460  177.9120  144.6310 C   0  0  0  0  0  3  0  0  0  0  0  0
  189.4100  177.2240  145.8460 C   0  0  0  0  0  3  0  0  0  0  0  0
  1  5  1  0  0  0  0
  1  7  2  0  0  0  0
  2  3  2  0  0  0  0
  4  6  2  0  0  0  0
  5  4  1  0  0  0  0
  6 21  1  0  0  0  0
  6  3  1  0  0  0  0
  7  2  1  0  0  0  0
  9  4  1  0  0  0  0
 10  9  1  0  0  0  0
 10  8  2  0  0  0  0
 11 10  1  0  0  0  0
 12  7  1  0  0  0  0
 12 13  1  0  0  0  0
 13 18  1  0  0  0  0
 14 17  1  0  0  0  0
 15 18  1  0  0  0  0
 15 14  2  0  0  0  0
 17 20  2  0  0  0  0
 18 19  2  0  0  0  0
 19 20  1  0  0  0  0
 20 16  1  0  0  0  0
 21 22  1  0  0  0  0
 22 23  1  0  0  0  0
 23 24  1  0  0  0  0
 24 25  2  0  0  0  0
 26 29  1  0  0  0  0
 27 26  2  0  0  0  0
 27 30  1  0  0  0  0
 29 24  1  0  0  0  0
 29 28  2  0  0  0  0
 30 31  2  0  0  0  0
 31 28  1  0  0  0  0
M  END
>  <MODEL>
7

>  <REMARK>
 VINA RESULT:      -6.5      1.540      2.243
  Name = 
  9 active torsions:
  status: ('A' for Active; 'I' for Inactive)
    1  A    between atoms: C_3  and  N_24
    2  A    between atoms: C_3  and  C_27
    3  A    between atoms: C_11  and  C_12
    4  A    between atoms: C_11  and  C_29
    5  A    between atoms: C_12  and  N_17
    6  A    between atoms: C_14  and  N_22
    7  A    between atoms: C_15  and  N_24
    8  A    between atoms: N_17  and  N_25
    9  A    between atoms: C_21  and  N_25
                            x       y       z     vdW  Elec       q    Type
                         _______ _______ _______ _____ _____    ______ ____

>  <TORSDO>
F 9

$$$$
=
 OpenBabel11042417153D

 31 33  0  0  0  0  0  0  0  0999 V2000
  189.3000  173.8980  145.9350 C   0  0  0  0  0  3  0  0  0  0  0  0
  190.8580  175.3840  147.0630 N   0  0  0  0  0  0  0  0  0  0  0  0
  191.9290  175.3670  146.3180 C   0  0  0  0  0  3  0  0  0  0  0  0
  191.2360  173.8970  144.4350 C   0  0  0  0  0  0  0  0  0  0  0  0
  190.3960  173.0760  145.3560 C   0  0  0  0  0  2  0  0  0  0  0  0
  192.0060  174.8970  144.9110 C   0  0  0  0  0  0  0  0  0  0  0  0
  189.5320  174.9540  146.7140 C   0  0  0  0  0  0  0  0  0  0  0  0
  192.9490  171.8250  143.3300 O   0  0  0  0  0  0  0  0  0  0  0  0
  191.3080  173.4730  143.0660 N   0  0  0  0  0  2  0  0  0  0  0  0
  192.0900  172.3730  142.5910 C   0  0  0  0  0  0  0  0  0  0  0  0
  191.9190  171.9040  141.1920 C   0  0  0  0  0  1  0  0  0  0  0  0
  188.3670  175.6320  147.3520 C   0  0  0  0  0  2  0  0  0  0  0  0
  188.1870  176.9660  146.7910 N   0  0  0  0  0  2  0  0  0  0  0  0
  184.5240  177.7500  146.8060 C   0  0  0  0  0  3  0  0  0  0  0  0
  185.7560  177.1980  147.1670 C   0  0  0  0  0  3  0  0  0  0  0  0
  185.5080  179.8280  143.8800 N   0  0  0  0  0  1  0  0  0  0  0  0
  184.4420  178.6210  145.7160 C   0  0  0  0  0  3  0  0  0  0  0  0
  186.9130  177.5130  146.4380 C   0  0  0  0  0  0  0  0  0  0  0  0
  186.8250  178.3880  145.3500 C   0  0  0  0  0  3  0  0  0  0  0  0
  185.5920  178.9410  144.9890 C   0  0  0  0  0  0  0  0  0  0  0  0
  193.0190  175.4610  144.0690 N   0  0  0  0  0  2  0  0  0  0  0  0
  193.0500  176.8250  143.7410 N   0  0  0  0  0  2  0  0  0  0  0  0
  192.0150  177.0610  142.7430 C   0  0  0  0  0  2  0  0  0  0  0  0
  190.8010  177.6410  143.3940 C   0  0  0  0  0  0  0  0  0  0  0  0
  190.9470  178.3590  144.4190 O   0  0  0  0  0  0  0  0  0  0  0  0
  188.7840  176.1790  143.2350 C   0  0  0  0  0  3  0  0  0  0  0  0
  187.5040  175.9090  142.7440 C   0  0  0  0  0  3  0  0  0  0  0  0
  188.8110  178.2670  142.0110 C   0  0  0  0  0  3  0  0  0  0  0  0
  189.4490  177.3610  142.8720 C   0  0  0  0  0  0  0  0  0  0  0  0
  186.8770  176.8170  141.8860 C   0  0  0  0  0  3  0  0  0  0  0  0
  187.5310  177.9960  141.5200 C   0  0  0  0  0  3  0  0  0  0  0  0
  1  7  2  0  0  0  0
  3  2  2  0  0  0  0
  4  6  2  0  0  0  0
  4  5  1  0  0  0  0
  5  1  1  0  0  0  0
  6  3  1  0  0  0  0
  7  2  1  0  0  0  0
  7 12  1  0  0  0  0
  9  4  1  0  0  0  0
 10  9  1  0  0  0  0
 10  8  2  0  0  0  0
 11 10  1  0  0  0  0
 13 12  1  0  0  0  0
 14 15  1  0  0  0  0
 16 20  1  0  0  0  0
 17 14  2  0  0  0  0
 18 13  1  0  0  0  0
 18 15  2  0  0  0  0
 19 18  1  0  0  0  0
 20 19  2  0  0  0  0
 20 17  1  0  0  0  0
 21  6  1  0  0  0  0
 22 21  1  0  0  0  0
 23 24  1  0  0  0  0
 23 22  1  0  0  0  0
 24 25  2  0  0  0  0
 27 26  2  0  0  0  0
 28 29  2  0  0  0  0
 29 26  1  0  0  0  0
 29 24  1  0  0  0  0
 30 27  1  0  0  0  0
 31 30  2  0  0  0  0
 31 28  1  0  0  0  0
M  END
>  <MODEL>
8

>  <REMARK>
 VINA RESULT:      -6.4      1.981      3.904
  Name = 
  9 active torsions:
  status: ('A' for Active; 'I' for Inactive)
    1  A    between atoms: C_3  and  N_24
    2  A    between atoms: C_3  and  C_27
    3  A    between atoms: C_11  and  C_12
    4  A    between atoms: C_11  and  C_29
    5  A    between atoms: C_12  and  N_17
    6  A    between atoms: C_14  and  N_22
    7  A    between atoms: C_15  and  N_24
    8  A    between atoms: N_17  and  N_25
    9  A    between atoms: C_21  and  N_25
                            x       y       z     vdW  Elec       q    Type
                         _______ _______ _______ _____ _____    ______ ____

>  <TORSDO>
F 9

$$$$
=
 OpenBabel11042417153D

 31 33  0  0  0  0  0  0  0  0999 V2000
  191.7220  175.7680  146.8360 C   0  0  0  0  0  3  0  0  0  0  0  0
  192.3210  175.5010  144.4950 N   0  0  0  0  0  0  0  0  0  0  0  0
  191.1840  175.3140  143.8830 C   0  0  0  0  0  3  0  0  0  0  0  0
  189.5450  175.5260  145.7410 C   0  0  0  0  0  0  0  0  0  0  0  0
  190.5140  174.9110  146.6950 C   0  0  0  0  0  2  0  0  0  0  0  0
  189.8380  175.6240  144.4280 C   0  0  0  0  0  0  0  0  0  0  0  0
  192.5370  176.0290  145.8150 C   0  0  0  0  0  0  0  0  0  0  0  0
  188.7980  177.9000  147.2440 O   0  0  0  0  0  0  0  0  0  0  0  0
  188.2450  175.8520  146.2520 N   0  0  0  0  0  2  0  0  0  0  0  0
  187.9040  177.0860  146.8920 C   0  0  0  0  0  0  0  0  0  0  0  0
  186.4800  177.3890  147.1880 C   0  0  0  0  0  1  0  0  0  0  0  0
  193.7910  176.7870  146.0860 C   0  0  0  0  0  2  0  0  0  0  0  0
  194.5850  176.9090  144.8690 N   0  0  0  0  0  2  0  0  0  0  0  0
  197.6390  175.5080  143.2120 C   0  0  0  0  0  3  0  0  0  0  0  0
  196.5640  176.3540  143.4970 C   0  0  0  0  0  3  0  0  0  0  0  0
  197.1920  172.8920  145.8210 N   0  0  0  0  0  1  0  0  0  0  0  0
  197.8450  174.3600  143.9820 C   0  0  0  0  0  3  0  0  0  0  0  0
  195.6890  176.0550  144.5530 C   0  0  0  0  0  0  0  0  0  0  0  0
  195.9040  174.9070  145.3220 C   0  0  0  0  0  3  0  0  0  0  0  0
  196.9800  174.0590  145.0370 C   0  0  0  0  0  0  0  0  0  0  0  0
  188.7900  175.9290  143.4990 N   0  0  0  0  0  2  0  0  0  0  0  0
  189.0490  176.4260  142.2120 N   0  0  0  0  0  2  0  0  0  0  0  0
  188.5470  177.7930  142.1600 C   0  0  0  0  0  2  0  0  0  0  0  0
  187.1150  177.7950  141.7330 C   0  0  0  0  0  0  0  0  0  0  0  0
  186.8220  177.3540  140.5910 O   0  0  0  0  0  0  0  0  0  0  0  0
  184.7060  178.1580  142.2790 C   0  0  0  0  0  3  0  0  0  0  0  0
  183.7010  178.6610  143.1090 C   0  0  0  0  0  3  0  0  0  0  0  0
  186.3860  179.0110  143.7970 C   0  0  0  0  0  3  0  0  0  0  0  0
  186.0580  178.3290  142.6150 C   0  0  0  0  0  0  0  0  0  0  0  0
  184.0380  179.3400  144.2830 C   0  0  0  0  0  3  0  0  0  0  0  0
  185.3810  179.5140  144.6270 C   0  0  0  0  0  3  0  0  0  0  0  0
  2  7  1  0  0  0  0
  3  6  1  0  0  0  0
  3  2  2  0  0  0  0
  4  9  1  0  0  0  0
  4  5  1  0  0  0  0
  5  1  1  0  0  0  0
  6  4  2  0  0  0  0
  7 12  1  0  0  0  0
  7  1  2  0  0  0  0
  9 10  1  0  0  0  0
 10 11  1  0  0  0  0
 10  8  2  0  0  0  0
 13 12  1  0  0  0  0
 14 15  2  0  0  0  0
 14 17  1  0  0  0  0
 15 18  1  0  0  0  0
 17 20  2  0  0  0  0
 18 13  1  0  0  0  0
 18 19  2  0  0  0  0
 20 19  1  0  0  0  0
 20 16  1  0  0  0  0
 21  6  1  0  0  0  0
 22 21  1  0  0  0  0
 23 22  1  0  0  0  0
 24 23  1  0  0  0  0
 24 29  1  0  0  0  0
 25 24  2  0  0  0  0
 26 29  2  0  0  0  0
 26 27  1  0  0  0  0
 27 30  2  0  0  0  0
 28 31  2  0  0  0  0
 29 28  1  0  0  0  0
 30 31  1  0  0  0  0
M  END
>  <MODEL>
9

>  <REMARK>
 VINA RESULT:      -6.4      2.897      8.022
  Name = 
  9 active torsions:
  status: ('A' for Active; 'I' for Inactive)
    1  A    between atoms: C_3  and  N_24
    2  A    between atoms: C_3  and  C_27
    3  A    between atoms: C_11  and  C_12
    4  A    between atoms: C_11  and  C_29
    5  A    between atoms: C_12  and  N_17
    6  A    between atoms: C_14  and  N_22
    7  A    between atoms: C_15  and  N_24
    8  A    between atoms: N_17  and  N_25
    9  A    between atoms: C_21  and  N_25
                            x       y       z     vdW  Elec       q    Type
                         _______ _______ _______ _____ _____    ______ ____

>  <TORSDO>
F 9

$$$$
